data_QOVSUR_freeONLY_PM
_symmetry_space_group_name_H-M	'P1'
_cell_length_a	19.563900
_cell_length_b	19.563900
_cell_length_c	26.873200
_cell_angle_alpha	90.000000
_cell_angle_beta	90.000000
_cell_angle_gamma	120.000000
_symmetry_Int_Tables_number 1

loop_
_symmetry_equiv_pos_as_xyz
'x,y,z'

loop_
_atom_site_label
_atom_site_type_symbol
_atom_site_fract_x
_atom_site_fract_y
_atom_site_fract_z
Cd11	Cd1	0.289930	0.010140	0.361440
C11	C1	0.999500	0.925300	0.374340
H11	H1	0.999500	0.922300	0.338300
H21	H2	0.999300	0.879100	0.387500
C21	C2	0.074500	0.999600	0.391570
H31	H3	0.074000	0.999600	0.428000
C31	C3	0.148100	0.998100	0.375290
C41	C4	0.381700	0.088500	0.568400
C51	C5	0.456100	0.097900	0.567600
H41	H4	0.483500	0.106600	0.537900
C61	C6	0.489200	0.094100	0.612470
C71	C7	0.449600	0.081900	0.656660
H51	H5	0.472600	0.079600	0.686400
C81	C8	0.374900	0.073200	0.656210
C91	C9	0.339600	0.076900	0.612240
H61	H6	0.289800	0.071900	0.612200
C101	C10	0.286600	0.107500	0.514950
H71	H7	0.267100	0.128900	0.538000
C111	C11	0.265800	0.090600	0.467030
H81	H8	0.228300	0.099000	0.451300
C121	C12	0.353500	0.057600	0.478800
H91	H9	0.388700	0.039400	0.474100
C131	C13	0.629100	0.148400	0.581400
H101	H10	0.634100	0.188500	0.560500
C141	C14	0.683000	0.124600	0.589000
H111	H11	0.732200	0.146800	0.573800
C151	C15	0.582200	0.048300	0.631700
H121	H12	0.547000	0.005600	0.651000
C161	C16	0.241200	0.003200	0.700400
H131	H13	0.208200	0.984600	0.672800
C171	C17	0.220700	0.988700	0.748700
H141	H14	0.169600	0.958200	0.761000
C181	C18	0.347000	0.045900	0.746490
H151	H15	0.394900	0.049400	0.754500
C191	C19	0.617800	0.366100	0.322300
H161	H16	0.585300	0.388100	0.320900
C201	C20	0.586000	0.285500	0.323300
C211	C21	0.448300	0.253200	0.305500
H171	H17	0.457200	0.298600	0.288900
C221	C22	0.376700	0.188000	0.317700
H181	H18	0.327800	0.184200	0.313400
C231	C23	0.464200	0.161000	0.338000
H191	H19	0.488900	0.133300	0.348200
N11	N1	0.307200	0.059300	0.444020
N21	N2	0.343100	0.086000	0.522480
N31	N3	0.654800	0.064600	0.621540
N41	N4	0.565200	0.099800	0.611420
N51	N5	0.294400	0.030300	0.779210
N61	N6	0.330400	0.056700	0.700880
N71	N7	0.388000	0.130200	0.336800
N81	N8	0.503400	0.235700	0.323400
O11	O1	0.202550	0.058520	0.354860
O21	O2	0.152950	0.937040	0.384530
C241	C24	0.282000	0.091200	0.711700
H201	H20	0.268000	0.119100	0.689900
C251	C25	0.261500	0.074500	0.759600
H211	H21	0.230400	0.089700	0.777300
Cd21	Cd2	0.989860	0.279790	0.361440
C261	C26	0.074700	0.074200	0.374340
H221	H22	0.077700	0.077200	0.338300
H231	H23	0.120900	0.120200	0.387500
C271	C27	0.000400	0.074900	0.391570
H241	H24	0.000400	0.074400	0.428000
C281	C28	0.001900	0.150000	0.375290
C291	C29	0.911500	0.293200	0.568400
C301	C30	0.902100	0.358200	0.567600
H251	H25	0.893400	0.376900	0.537900
C311	C31	0.905900	0.395100	0.612470
C321	C32	0.918100	0.367700	0.656660
H261	H26	0.920400	0.393000	0.686400
C331	C33	0.926800	0.301700	0.656210
C341	C34	0.923100	0.262700	0.612240
H271	H27	0.928100	0.217900	0.612200
C351	C35	0.892500	0.179100	0.514950
H281	H28	0.871100	0.138200	0.538000
C361	C36	0.909400	0.175200	0.467030
H291	H29	0.901000	0.129300	0.451300
C371	C37	0.942400	0.295900	0.478800
H301	H30	0.960600	0.349300	0.474100
C381	C38	0.851600	0.480700	0.581400
H311	H31	0.811500	0.445600	0.560500
C391	C39	0.875400	0.558400	0.589000
H321	H32	0.853200	0.585400	0.573800
C401	C40	0.951700	0.533900	0.631700
H331	H33	0.994400	0.541400	0.651000
C411	C41	0.996800	0.238000	0.700400
H341	H34	0.015400	0.223600	0.672800
C421	C42	0.011300	0.232000	0.748700
H351	H35	0.041800	0.211400	0.761000
C431	C43	0.954100	0.301100	0.746490
H361	H36	0.950600	0.345500	0.754500
C441	C44	0.633900	0.251700	0.322300
H371	H37	0.611900	0.197200	0.320900
C451	C45	0.714500	0.300500	0.323300
C461	C46	0.746800	0.195100	0.305500
H381	H38	0.701400	0.158600	0.288900
C471	C47	0.812000	0.188700	0.317700
H391	H39	0.815800	0.143600	0.313400
C481	C48	0.839000	0.303200	0.338000
H401	H40	0.866700	0.355600	0.348200
N91	N9	0.940700	0.247900	0.444020
N101	N10	0.914000	0.257100	0.522480
N111	N11	0.935400	0.590200	0.621540
N121	N12	0.900200	0.465400	0.611420
N131	N13	0.969700	0.264100	0.779210
N141	N14	0.943300	0.273700	0.700880
N151	N15	0.869800	0.257800	0.336800
N161	N16	0.764300	0.267700	0.323400
O31	O3	0.941480	0.144030	0.354860
O41	O4	0.062960	0.215910	0.384530
C491	C49	0.908800	0.190800	0.711700
H411	H41	0.880900	0.148900	0.689900
C501	C50	0.925500	0.187000	0.759600
H421	H42	0.910300	0.140700	0.777300
Cd31	Cd3	0.720210	0.710070	0.361440
C511	C51	0.925800	0.000500	0.374340
H431	H43	0.922800	0.000500	0.338300
H441	H44	0.879800	0.000700	0.387500
C521	C52	0.925100	0.925500	0.391570
H451	H45	0.925600	0.926000	0.428000
C531	C53	0.850000	0.851900	0.375290
C541	C54	0.706800	0.618300	0.568400
C551	C55	0.641800	0.543900	0.567600
H461	H46	0.623100	0.516500	0.537900
C561	C56	0.604900	0.510800	0.612470
C571	C57	0.632300	0.550400	0.656660
H471	H47	0.607000	0.527400	0.686400
C581	C58	0.698300	0.625100	0.656210
C591	C59	0.737300	0.660400	0.612240
H481	H48	0.782100	0.710200	0.612200
C601	C60	0.820900	0.713400	0.514950
H491	H49	0.861800	0.732900	0.538000
C611	C61	0.824800	0.734200	0.467030
H501	H50	0.870700	0.771700	0.451300
C621	C62	0.704100	0.646500	0.478800
H511	H51	0.650700	0.611300	0.474100
C631	C63	0.519300	0.370900	0.581400
H521	H52	0.554400	0.365900	0.560500
C641	C64	0.441600	0.317000	0.589000
H531	H53	0.414600	0.267800	0.573800
C651	C65	0.466100	0.417800	0.631700
H541	H54	0.458600	0.453000	0.651000
C661	C66	0.762000	0.758800	0.700400
H551	H55	0.776400	0.791800	0.672800
C671	C67	0.768000	0.779300	0.748700
H561	H56	0.788600	0.830400	0.761000
C681	C68	0.698900	0.653000	0.746490
H571	H57	0.654500	0.605100	0.754500
C691	C69	0.748300	0.382200	0.322300
H581	H58	0.802800	0.414700	0.320900
C701	C70	0.699500	0.414000	0.323300
C711	C71	0.804900	0.551700	0.305500
H591	H59	0.841400	0.542800	0.288900
C721	C72	0.811300	0.623300	0.317700
H601	H60	0.856400	0.672200	0.313400
C731	C73	0.696800	0.535800	0.338000
H611	H61	0.644400	0.511100	0.348200
N171	N17	0.752100	0.692800	0.444020
N181	N18	0.742900	0.656900	0.522480
N191	N19	0.409800	0.345200	0.621540
N201	N20	0.534600	0.434800	0.611420
N211	N21	0.735900	0.705600	0.779210
N221	N22	0.726300	0.669600	0.700880
N231	N23	0.742200	0.612000	0.336800
N241	N24	0.732300	0.496600	0.323400
O51	O5	0.855970	0.797450	0.354860
O61	O6	0.784090	0.847050	0.384530
C741	C74	0.809200	0.718000	0.711700
H621	H62	0.851100	0.732000	0.689900
C751	C75	0.813000	0.738500	0.759600
H631	H63	0.859300	0.769600	0.777300
Cd41	Cd4	0.989860	0.710070	0.138560
C761	C76	0.074700	0.000500	0.125660
H641	H64	0.077700	0.000500	0.161700
H651	H65	0.120900	0.000700	0.112500
C771	C77	0.000400	0.925500	0.108430
H661	H66	0.000400	0.926000	0.072000
C781	C78	0.001900	0.851900	0.124710
C791	C79	0.911500	0.618300	0.931600
C801	C80	0.902100	0.543900	0.932400
H671	H67	0.893400	0.516500	0.962100
C811	C81	0.905900	0.510800	0.887530
C821	C82	0.918100	0.550400	0.843340
H681	H68	0.920400	0.527400	0.813600
C831	C83	0.926800	0.625100	0.843790
C841	C84	0.923100	0.660400	0.887760
H691	H69	0.928100	0.710200	0.887800
C851	C85	0.892500	0.713400	0.985050
H701	H70	0.871100	0.732900	0.962000
C861	C86	0.909400	0.734200	0.032970
H711	H71	0.901000	0.771700	0.048700
C871	C87	0.942400	0.646500	0.021200
H721	H72	0.960600	0.611300	0.025900
C881	C88	0.851600	0.370900	0.918600
H731	H73	0.811500	0.365900	0.939500
C891	C89	0.875400	0.317000	0.911000
H741	H74	0.853200	0.267800	0.926200
C901	C90	0.951700	0.417800	0.868300
H751	H75	0.994400	0.453000	0.849000
C911	C91	0.996800	0.758800	0.799600
H761	H76	0.015400	0.791800	0.827200
C921	C92	0.011300	0.779300	0.751300
H771	H77	0.041800	0.830400	0.739000
C931	C93	0.954100	0.653000	0.753510
H781	H78	0.950600	0.605100	0.745500
C941	C94	0.633900	0.382200	0.177700
H791	H79	0.611900	0.414700	0.179100
C951	C95	0.714500	0.414000	0.176700
C961	C96	0.746800	0.551700	0.194500
H801	H80	0.701400	0.542800	0.211100
C971	C97	0.812000	0.623300	0.182300
H811	H81	0.815800	0.672200	0.186600
C981	C98	0.839000	0.535800	0.162000
H821	H82	0.866700	0.511100	0.151800
N251	N25	0.940700	0.692800	0.055980
N261	N26	0.914000	0.656900	0.977520
N271	N27	0.935400	0.345200	0.878460
N281	N28	0.900200	0.434800	0.888580
N291	N29	0.969700	0.705600	0.720790
N301	N30	0.943300	0.669600	0.799120
N311	N31	0.869800	0.612000	0.163200
N321	N32	0.764300	0.496600	0.176600
O71	O7	0.941480	0.797450	0.145140
O81	O8	0.062960	0.847050	0.115470
C991	C99	0.908800	0.718000	0.788300
H831	H83	0.880900	0.732000	0.810100
C1001	C100	0.925500	0.738500	0.740400
H841	H84	0.910300	0.769600	0.722700
Cd51	Cd5	0.720210	0.010140	0.138560
C1011	C101	0.925800	0.925300	0.125660
H851	H85	0.922800	0.922300	0.161700
H861	H86	0.879800	0.879100	0.112500
C1021	C102	0.925100	0.999600	0.108430
H871	H87	0.925600	0.999600	0.072000
C1031	C103	0.850000	0.998100	0.124710
C1041	C104	0.706800	0.088500	0.931600
C1051	C105	0.641800	0.097900	0.932400
H881	H88	0.623100	0.106600	0.962100
C1061	C106	0.604900	0.094100	0.887530
C1071	C107	0.632300	0.081900	0.843340
H891	H89	0.607000	0.079600	0.813600
C1081	C108	0.698300	0.073200	0.843790
C1091	C109	0.737300	0.076900	0.887760
H901	H90	0.782100	0.071900	0.887800
C1101	C110	0.820900	0.107500	0.985050
H911	H91	0.861800	0.128900	0.962000
C1111	C111	0.824800	0.090600	0.032970
H921	H92	0.870700	0.099000	0.048700
C1121	C112	0.704100	0.057600	0.021200
H931	H93	0.650700	0.039400	0.025900
C1131	C113	0.519300	0.148400	0.918600
H941	H94	0.554400	0.188500	0.939500
C1141	C114	0.441600	0.124600	0.911000
H951	H95	0.414600	0.146800	0.926200
C1151	C115	0.466100	0.048300	0.868300
H961	H96	0.458600	0.005600	0.849000
C1161	C116	0.762000	0.003200	0.799600
H971	H97	0.776400	0.984600	0.827200
C1171	C117	0.768000	0.988700	0.751300
H981	H98	0.788600	0.958200	0.739000
C1181	C118	0.698900	0.045900	0.753510
H991	H99	0.654500	0.049400	0.745500
C1191	C119	0.748300	0.366100	0.177700
H1001	H100	0.802800	0.388100	0.179100
C1201	C120	0.699500	0.285500	0.176700
C1211	C121	0.804900	0.253200	0.194500
H1011	H101	0.841400	0.298600	0.211100
C1221	C122	0.811300	0.188000	0.182300
H1021	H102	0.856400	0.184200	0.186600
C1231	C123	0.696800	0.161000	0.162000
H1031	H103	0.644400	0.133300	0.151800
N331	N33	0.752100	0.059300	0.055980
N341	N34	0.742900	0.086000	0.977520
N351	N35	0.409800	0.064600	0.878460
N361	N36	0.534600	0.099800	0.888580
N371	N37	0.735900	0.030300	0.720790
N381	N38	0.726300	0.056700	0.799120
N391	N39	0.742200	0.130200	0.163200
N401	N40	0.732300	0.235700	0.176600
O91	O9	0.855970	0.058520	0.145140
O101	O10	0.784090	0.937040	0.115470
C1241	C124	0.809200	0.091200	0.788300
H1041	H104	0.851100	0.119100	0.810100
C1251	C125	0.813000	0.074500	0.740400
H1051	H105	0.859300	0.089700	0.722700
Cd61	Cd6	0.289930	0.279790	0.138560
C1261	C126	0.999500	0.074200	0.125660
H1061	H106	0.999500	0.077200	0.161700
H1071	H107	0.999300	0.120200	0.112500
C1271	C127	0.074500	0.074900	0.108430
H1081	H108	0.074000	0.074400	0.072000
C1281	C128	0.148100	0.150000	0.124710
C1291	C129	0.381700	0.293200	0.931600
C1301	C130	0.456100	0.358200	0.932400
H1091	H109	0.483500	0.376900	0.962100
C1311	C131	0.489200	0.395100	0.887530
C1321	C132	0.449600	0.367700	0.843340
H1101	H110	0.472600	0.393000	0.813600
C1331	C133	0.374900	0.301700	0.843790
C1341	C134	0.339600	0.262700	0.887760
H1111	H111	0.289800	0.217900	0.887800
C1351	C135	0.286600	0.179100	0.985050
H1121	H112	0.267100	0.138200	0.962000
C1361	C136	0.265800	0.175200	0.032970
H1131	H113	0.228300	0.129300	0.048700
C1371	C137	0.353500	0.295900	0.021200
H1141	H114	0.388700	0.349300	0.025900
C1381	C138	0.629100	0.480700	0.918600
H1151	H115	0.634100	0.445600	0.939500
C1391	C139	0.683000	0.558400	0.911000
H1161	H116	0.732200	0.585400	0.926200
C1401	C140	0.582200	0.533900	0.868300
H1171	H117	0.547000	0.541400	0.849000
C1411	C141	0.241200	0.238000	0.799600
H1181	H118	0.208200	0.223600	0.827200
C1421	C142	0.220700	0.232000	0.751300
H1191	H119	0.169600	0.211400	0.739000
C1431	C143	0.347000	0.301100	0.753510
H1201	H120	0.394900	0.345500	0.745500
C1441	C144	0.617800	0.251700	0.177700
H1211	H121	0.585300	0.197200	0.179100
C1451	C145	0.586000	0.300500	0.176700
C1461	C146	0.448300	0.195100	0.194500
H1221	H122	0.457200	0.158600	0.211100
C1471	C147	0.376700	0.188700	0.182300
H1231	H123	0.327800	0.143600	0.186600
C1481	C148	0.464200	0.303200	0.162000
H1241	H124	0.488900	0.355600	0.151800
N411	N41	0.307200	0.247900	0.055980
N421	N42	0.343100	0.257100	0.977520
N431	N43	0.654800	0.590200	0.878460
N441	N44	0.565200	0.465400	0.888580
N451	N45	0.294400	0.264100	0.720790
N461	N46	0.330400	0.273700	0.799120
N471	N47	0.388000	0.257800	0.163200
N481	N48	0.503400	0.267700	0.176600
O111	O11	0.202550	0.144030	0.145140
O121	O12	0.152950	0.215910	0.115470
C1491	C149	0.282000	0.190800	0.788300
H1251	H125	0.268000	0.148900	0.810100
C1501	C150	0.261500	0.187000	0.740400
H1261	H126	0.230400	0.140700	0.722700
Cd71	Cd7	0.710070	0.989860	0.638560
C1511	C151	0.000500	0.074700	0.625660
H1271	H127	0.000500	0.077700	0.661700
H1281	H128	0.000700	0.120900	0.612500
C1521	C152	0.925500	0.000400	0.608430
H1291	H129	0.926000	0.000400	0.572000
C1531	C153	0.851900	0.001900	0.624710
C1541	C154	0.618300	0.911500	0.431600
C1551	C155	0.543900	0.902100	0.432400
H1301	H130	0.516500	0.893400	0.462100
C1561	C156	0.510800	0.905900	0.387530
C1571	C157	0.550400	0.918100	0.343340
H1311	H131	0.527400	0.920400	0.313600
C1581	C158	0.625100	0.926800	0.343790
C1591	C159	0.660400	0.923100	0.387760
H1321	H132	0.710200	0.928100	0.387800
C1601	C160	0.713400	0.892500	0.485050
H1331	H133	0.732900	0.871100	0.462000
C1611	C161	0.734200	0.909400	0.532970
H1341	H134	0.771700	0.901000	0.548700
C1621	C162	0.646500	0.942400	0.521200
H1351	H135	0.611300	0.960600	0.525900
C1631	C163	0.370900	0.851600	0.418600
H1361	H136	0.365900	0.811500	0.439500
C1641	C164	0.317000	0.875400	0.411000
H1371	H137	0.267800	0.853200	0.426200
C1651	C165	0.417800	0.951700	0.368300
H1381	H138	0.453000	0.994400	0.349000
C1661	C166	0.758800	0.996800	0.299600
H1391	H139	0.791800	0.015400	0.327200
C1671	C167	0.779300	0.011300	0.251300
H1401	H140	0.830400	0.041800	0.239000
C1681	C168	0.653000	0.954100	0.253510
H1411	H141	0.605100	0.950600	0.245500
C1691	C169	0.382200	0.633900	0.677700
H1421	H142	0.414700	0.611900	0.679100
C1701	C170	0.414000	0.714500	0.676700
C1711	C171	0.551700	0.746800	0.694500
H1431	H143	0.542800	0.701400	0.711100
C1721	C172	0.623300	0.812000	0.682300
H1441	H144	0.672200	0.815800	0.686600
C1731	C173	0.535800	0.839000	0.662000
H1451	H145	0.511100	0.866700	0.651800
N491	N49	0.692800	0.940700	0.555980
N501	N50	0.656900	0.914000	0.477520
N511	N51	0.345200	0.935400	0.378460
N521	N52	0.434800	0.900200	0.388580
N531	N53	0.705600	0.969700	0.220790
N541	N54	0.669600	0.943300	0.299120
N551	N55	0.612000	0.869800	0.663200
N561	N56	0.496600	0.764300	0.676600
O131	O13	0.797450	0.941480	0.645140
O141	O14	0.847050	0.062960	0.615470
C1741	C174	0.718000	0.908800	0.288300
H1461	H146	0.732000	0.880900	0.310100
C1751	C175	0.738500	0.925500	0.240400
H1471	H147	0.769600	0.910300	0.222700
Cd81	Cd8	0.010140	0.720210	0.638560
C1761	C176	0.925300	0.925800	0.625660
H1481	H148	0.922300	0.922800	0.661700
H1491	H149	0.879100	0.879800	0.612500
C1771	C177	0.999600	0.925100	0.608430
H1501	H150	0.999600	0.925600	0.572000
C1781	C178	0.998100	0.850000	0.624710
C1791	C179	0.088500	0.706800	0.431600
C1801	C180	0.097900	0.641800	0.432400
H1511	H151	0.106600	0.623100	0.462100
C1811	C181	0.094100	0.604900	0.387530
C1821	C182	0.081900	0.632300	0.343340
H1521	H152	0.079600	0.607000	0.313600
C1831	C183	0.073200	0.698300	0.343790
C1841	C184	0.076900	0.737300	0.387760
H1531	H153	0.071900	0.782100	0.387800
C1851	C185	0.107500	0.820900	0.485050
H1541	H154	0.128900	0.861800	0.462000
C1861	C186	0.090600	0.824800	0.532970
H1551	H155	0.099000	0.870700	0.548700
C1871	C187	0.057600	0.704100	0.521200
H1561	H156	0.039400	0.650700	0.525900
C1881	C188	0.148400	0.519300	0.418600
H1571	H157	0.188500	0.554400	0.439500
C1891	C189	0.124600	0.441600	0.411000
H1581	H158	0.146800	0.414600	0.426200
C1901	C190	0.048300	0.466100	0.368300
H1591	H159	0.005600	0.458600	0.349000
C1911	C191	0.003200	0.762000	0.299600
H1601	H160	0.984600	0.776400	0.327200
C1921	C192	0.988700	0.768000	0.251300
H1611	H161	0.958200	0.788600	0.239000
C1931	C193	0.045900	0.698900	0.253510
H1621	H162	0.049400	0.654500	0.245500
C1941	C194	0.366100	0.748300	0.677700
H1631	H163	0.388100	0.802800	0.679100
C1951	C195	0.285500	0.699500	0.676700
C1961	C196	0.253200	0.804900	0.694500
H1641	H164	0.298600	0.841400	0.711100
C1971	C197	0.188000	0.811300	0.682300
H1651	H165	0.184200	0.856400	0.686600
C1981	C198	0.161000	0.696800	0.662000
H1661	H166	0.133300	0.644400	0.651800
N571	N57	0.059300	0.752100	0.555980
N581	N58	0.086000	0.742900	0.477520
N591	N59	0.064600	0.409800	0.378460
N601	N60	0.099800	0.534600	0.388580
N611	N61	0.030300	0.735900	0.220790
N621	N62	0.056700	0.726300	0.299120
N631	N63	0.130200	0.742200	0.663200
N641	N64	0.235700	0.732300	0.676600
O151	O15	0.058520	0.855970	0.645140
O161	O16	0.937040	0.784090	0.615470
C1991	C199	0.091200	0.809200	0.288300
H1671	H167	0.119100	0.851100	0.310100
C2001	C200	0.074500	0.813000	0.240400
H1681	H168	0.089700	0.859300	0.222700
Cd91	Cd9	0.279790	0.289930	0.638560
C2011	C201	0.074200	0.999500	0.625660
H1691	H169	0.077200	0.999500	0.661700
H1701	H170	0.120200	0.999300	0.612500
C2021	C202	0.074900	0.074500	0.608430
H1711	H171	0.074400	0.074000	0.572000
C2031	C203	0.150000	0.148100	0.624710
C2041	C204	0.293200	0.381700	0.431600
C2051	C205	0.358200	0.456100	0.432400
H1721	H172	0.376900	0.483500	0.462100
C2061	C206	0.395100	0.489200	0.387530
C2071	C207	0.367700	0.449600	0.343340
H1731	H173	0.393000	0.472600	0.313600
C2081	C208	0.301700	0.374900	0.343790
C2091	C209	0.262700	0.339600	0.387760
H1741	H174	0.217900	0.289800	0.387800
C2101	C210	0.179100	0.286600	0.485050
H1751	H175	0.138200	0.267100	0.462000
C2111	C211	0.175200	0.265800	0.532970
H1761	H176	0.129300	0.228300	0.548700
C2121	C212	0.295900	0.353500	0.521200
H1771	H177	0.349300	0.388700	0.525900
C2131	C213	0.480700	0.629100	0.418600
H1781	H178	0.445600	0.634100	0.439500
C2141	C214	0.558400	0.683000	0.411000
H1791	H179	0.585400	0.732200	0.426200
C2151	C215	0.533900	0.582200	0.368300
H1801	H180	0.541400	0.547000	0.349000
C2161	C216	0.238000	0.241200	0.299600
H1811	H181	0.223600	0.208200	0.327200
C2171	C217	0.232000	0.220700	0.251300
H1821	H182	0.211400	0.169600	0.239000
C2181	C218	0.301100	0.347000	0.253510
H1831	H183	0.345500	0.394900	0.245500
C2191	C219	0.251700	0.617800	0.677700
H1841	H184	0.197200	0.585300	0.679100
C2201	C220	0.300500	0.586000	0.676700
C2211	C221	0.195100	0.448300	0.694500
H1851	H185	0.158600	0.457200	0.711100
C2221	C222	0.188700	0.376700	0.682300
H1861	H186	0.143600	0.327800	0.686600
C2231	C223	0.303200	0.464200	0.662000
H1871	H187	0.355600	0.488900	0.651800
N651	N65	0.247900	0.307200	0.555980
N661	N66	0.257100	0.343100	0.477520
N671	N67	0.590200	0.654800	0.378460
N681	N68	0.465400	0.565200	0.388580
N691	N69	0.264100	0.294400	0.220790
N701	N70	0.273700	0.330400	0.299120
N711	N71	0.257800	0.388000	0.663200
N721	N72	0.267700	0.503400	0.676600
O171	O17	0.144030	0.202550	0.645140
O181	O18	0.215910	0.152950	0.615470
C2241	C224	0.190800	0.282000	0.288300
H1881	H188	0.148900	0.268000	0.310100
C2251	C225	0.187000	0.261500	0.240400
H1891	H189	0.140700	0.230400	0.222700
Cd101	Cd10	0.010140	0.289930	0.861440
C2261	C226	0.925300	0.999500	0.874340
H1901	H190	0.922300	0.999500	0.838300
H1911	H191	0.879100	0.999300	0.887500
C2271	C227	0.999600	0.074500	0.891570
H1921	H192	0.999600	0.074000	0.928000
C2281	C228	0.998100	0.148100	0.875290
C2291	C229	0.088500	0.381700	0.068400
C2301	C230	0.097900	0.456100	0.067600
H1931	H193	0.106600	0.483500	0.037900
C2311	C231	0.094100	0.489200	0.112470
C2321	C232	0.081900	0.449600	0.156660
H1941	H194	0.079600	0.472600	0.186400
C2331	C233	0.073200	0.374900	0.156210
C2341	C234	0.076900	0.339600	0.112240
H1951	H195	0.071900	0.289800	0.112200
C2351	C235	0.107500	0.286600	0.014950
H1961	H196	0.128900	0.267100	0.038000
C2361	C236	0.090600	0.265800	0.967030
H1971	H197	0.099000	0.228300	0.951300
C2371	C237	0.057600	0.353500	0.978800
H1981	H198	0.039400	0.388700	0.974100
C2381	C238	0.148400	0.629100	0.081400
H1991	H199	0.188500	0.634100	0.060500
C2391	C239	0.124600	0.683000	0.089000
H2001	H200	0.146800	0.732200	0.073800
C2401	C240	0.048300	0.582200	0.131700
H2011	H201	0.005600	0.547000	0.151000
C2411	C241	0.003200	0.241200	0.200400
H2021	H202	0.984600	0.208200	0.172800
C2421	C242	0.988700	0.220700	0.248700
H2031	H203	0.958200	0.169600	0.261000
C2431	C243	0.045900	0.347000	0.246490
H2041	H204	0.049400	0.394900	0.254500
C2441	C244	0.366100	0.617800	0.822300
H2051	H205	0.388100	0.585300	0.820900
C2451	C245	0.285500	0.586000	0.823300
C2461	C246	0.253200	0.448300	0.805500
H2061	H206	0.298600	0.457200	0.788900
C2471	C247	0.188000	0.376700	0.817700
H2071	H207	0.184200	0.327800	0.813400
C2481	C248	0.161000	0.464200	0.838000
H2081	H208	0.133300	0.488900	0.848200
N731	N73	0.059300	0.307200	0.944020
N741	N74	0.086000	0.343100	0.022480
N751	N75	0.064600	0.654800	0.121540
N761	N76	0.099800	0.565200	0.111420
N771	N77	0.030300	0.294400	0.279210
N781	N78	0.056700	0.330400	0.200880
N791	N79	0.130200	0.388000	0.836800
N801	N80	0.235700	0.503400	0.823400
O191	O19	0.058520	0.202550	0.854860
O201	O20	0.937040	0.152950	0.884530
C2491	C249	0.091200	0.282000	0.211700
H2091	H209	0.119100	0.268000	0.189900
C2501	C250	0.074500	0.261500	0.259600
H2101	H210	0.089700	0.230400	0.277300
Cd111	Cd11	0.279790	0.989860	0.861440
C2511	C251	0.074200	0.074700	0.874340
H2111	H211	0.077200	0.077700	0.838300
H2121	H212	0.120200	0.120900	0.887500
C2521	C252	0.074900	0.000400	0.891570
H2131	H213	0.074400	0.000400	0.928000
C2531	C253	0.150000	0.001900	0.875290
C2541	C254	0.293200	0.911500	0.068400
C2551	C255	0.358200	0.902100	0.067600
H2141	H214	0.376900	0.893400	0.037900
C2561	C256	0.395100	0.905900	0.112470
C2571	C257	0.367700	0.918100	0.156660
H2151	H215	0.393000	0.920400	0.186400
C2581	C258	0.301700	0.926800	0.156210
C2591	C259	0.262700	0.923100	0.112240
H2161	H216	0.217900	0.928100	0.112200
C2601	C260	0.179100	0.892500	0.014950
H2171	H217	0.138200	0.871100	0.038000
C2611	C261	0.175200	0.909400	0.967030
H2181	H218	0.129300	0.901000	0.951300
C2621	C262	0.295900	0.942400	0.978800
H2191	H219	0.349300	0.960600	0.974100
C2631	C263	0.480700	0.851600	0.081400
H2201	H220	0.445600	0.811500	0.060500
C2641	C264	0.558400	0.875400	0.089000
H2211	H221	0.585400	0.853200	0.073800
C2651	C265	0.533900	0.951700	0.131700
H2221	H222	0.541400	0.994400	0.151000
C2661	C266	0.238000	0.996800	0.200400
H2231	H223	0.223600	0.015400	0.172800
C2671	C267	0.232000	0.011300	0.248700
H2241	H224	0.211400	0.041800	0.261000
C2681	C268	0.301100	0.954100	0.246490
H2251	H225	0.345500	0.950600	0.254500
C2691	C269	0.251700	0.633900	0.822300
H2261	H226	0.197200	0.611900	0.820900
C2701	C270	0.300500	0.714500	0.823300
C2711	C271	0.195100	0.746800	0.805500
H2271	H227	0.158600	0.701400	0.788900
C2721	C272	0.188700	0.812000	0.817700
H2281	H228	0.143600	0.815800	0.813400
C2731	C273	0.303200	0.839000	0.838000
H2291	H229	0.355600	0.866700	0.848200
N811	N81	0.247900	0.940700	0.944020
N821	N82	0.257100	0.914000	0.022480
N831	N83	0.590200	0.935400	0.121540
N841	N84	0.465400	0.900200	0.111420
N851	N85	0.264100	0.969700	0.279210
N861	N86	0.273700	0.943300	0.200880
N871	N87	0.257800	0.869800	0.836800
N881	N88	0.267700	0.764300	0.823400
O211	O21	0.144030	0.941480	0.854860
O221	O22	0.215910	0.062960	0.884530
C2741	C274	0.190800	0.908800	0.211700
H2301	H230	0.148900	0.880900	0.189900
C2751	C275	0.187000	0.925500	0.259600
H2311	H231	0.140700	0.910300	0.277300
Cd121	Cd12	0.710070	0.720210	0.861440
C2761	C276	0.000500	0.925800	0.874340
H2321	H232	0.000500	0.922800	0.838300
H2331	H233	0.000700	0.879800	0.887500
C2771	C277	0.925500	0.925100	0.891570
H2341	H234	0.926000	0.925600	0.928000
C2781	C278	0.851900	0.850000	0.875290
C2791	C279	0.618300	0.706800	0.068400
C2801	C280	0.543900	0.641800	0.067600
H2351	H235	0.516500	0.623100	0.037900
C2811	C281	0.510800	0.604900	0.112470
C2821	C282	0.550400	0.632300	0.156660
H2361	H236	0.527400	0.607000	0.186400
C2831	C283	0.625100	0.698300	0.156210
C2841	C284	0.660400	0.737300	0.112240
H2371	H237	0.710200	0.782100	0.112200
C2851	C285	0.713400	0.820900	0.014950
H2381	H238	0.732900	0.861800	0.038000
C2861	C286	0.734200	0.824800	0.967030
H2391	H239	0.771700	0.870700	0.951300
C2871	C287	0.646500	0.704100	0.978800
H2401	H240	0.611300	0.650700	0.974100
C2881	C288	0.370900	0.519300	0.081400
H2411	H241	0.365900	0.554400	0.060500
C2891	C289	0.317000	0.441600	0.089000
H2421	H242	0.267800	0.414600	0.073800
C2901	C290	0.417800	0.466100	0.131700
H2431	H243	0.453000	0.458600	0.151000
C2911	C291	0.758800	0.762000	0.200400
H2441	H244	0.791800	0.776400	0.172800
C2921	C292	0.779300	0.768000	0.248700
H2451	H245	0.830400	0.788600	0.261000
C2931	C293	0.653000	0.698900	0.246490
H2461	H246	0.605100	0.654500	0.254500
C2941	C294	0.382200	0.748300	0.822300
H2471	H247	0.414700	0.802800	0.820900
C2951	C295	0.414000	0.699500	0.823300
C2961	C296	0.551700	0.804900	0.805500
H2481	H248	0.542800	0.841400	0.788900
C2971	C297	0.623300	0.811300	0.817700
H2491	H249	0.672200	0.856400	0.813400
C2981	C298	0.535800	0.696800	0.838000
H2501	H250	0.511100	0.644400	0.848200
N891	N89	0.692800	0.752100	0.944020
N901	N90	0.656900	0.742900	0.022480
N911	N91	0.345200	0.409800	0.121540
N921	N92	0.434800	0.534600	0.111420
N931	N93	0.705600	0.735900	0.279210
N941	N94	0.669600	0.726300	0.200880
N951	N95	0.612000	0.742200	0.836800
N961	N96	0.496600	0.732300	0.823400
O231	O23	0.797450	0.855970	0.854860
O241	O24	0.847050	0.784090	0.884530
C2991	C299	0.718000	0.809200	0.211700
H2511	H251	0.732000	0.851100	0.189900
C3001	C300	0.738500	0.813000	0.259600
H2521	H252	0.769600	0.859300	0.277300
