data_QUBZAP_freeONLY_PM
_symmetry_space_group_name_H-M	'P1'
_cell_length_a	18.505500
_cell_length_b	18.505500
_cell_length_c	22.556000
_cell_angle_alpha	90.000000
_cell_angle_beta	90.000000
_cell_angle_gamma	120.000000
_symmetry_Int_Tables_number 1

loop_
_symmetry_equiv_pos_as_xyz
'x,y,z'

loop_
_atom_site_label
_atom_site_type_symbol
_atom_site_fract_x
_atom_site_fract_y
_atom_site_fract_z
Ag11	Ag1	0.892870	0.146680	0.345710
N11	N1	0.629500	0.814600	0.463100
C11	C1	0.714100	0.999900	0.378900
C21	C2	0.629100	0.748700	0.498800
H11	H1	0.685300	0.754500	0.497800
H21	H2	0.589200	0.693800	0.481400
N21	N2	0.574500	0.883000	0.417900
O11	O1	0.640000	0.840200	0.645800
N31	N3	0.689700	0.047700	0.351800
H31	H3	0.726600	0.093900	0.334000
H41	H4	0.636600	0.033200	0.351600
C31	C3	0.663300	0.831100	0.595700
C41	C4	0.693700	0.881400	0.436400
C51	C5	0.604700	0.751600	0.563100
H51	H5	0.548000	0.744500	0.563600
H61	H6	0.602200	0.703800	0.584700
C61	C6	0.660300	0.924500	0.408700
N41	N4	0.775900	0.904500	0.435000
Ag21	Ag2	0.473970	0.900880	0.385190
C71	C7	0.767900	0.153500	0.503900
H71	H7	0.722200	0.109900	0.479900
H81	H8	0.769000	0.206800	0.496500
O21	O2	0.876800	0.118800	0.506400
O31	O3	0.891700	0.215100	0.444500
C81	C8	0.851000	0.162300	0.483300
Ag31	Ag3	0.820120	0.002730	0.598680
Ag41	Ag4	0.835400	0.839100	0.473390
O41	O4	0.731100	0.878800	0.570500
C91	C9	0.822500	0.975600	0.406000
H91	H9	0.880700	0.995000	0.404300
C101	C10	0.831300	0.272300	0.617700
H101	H10	0.796100	0.291700	0.602700
C111	C11	0.930200	0.267600	0.661800
N51	N5	0.896200	0.318400	0.649800
N61	N6	0.051600	0.350300	0.721600
H111	H11	0.095100	0.354600	0.740500
H121	H12	0.041100	0.391700	0.722400
C121	C12	0.002000	0.281800	0.692100
C131	C13	0.883000	0.191900	0.634500
N71	N7	0.897000	0.126900	0.635800
N81	N8	0.020000	0.218100	0.691800
N91	N9	0.817400	0.194900	0.607000
C141	C14	0.968200	0.146500	0.665400
H131	H13	0.982500	0.103900	0.667600
C151	C15	0.749100	0.131000	0.569900
H141	H14	0.695700	0.127800	0.580600
H151	H15	0.743500	0.075700	0.577200
C161	C16	0.559400	0.819900	0.450500
H161	H16	0.505200	0.780900	0.464600
N101	N10	0.796000	0.022900	0.378900
Ag51	Ag5	0.559540	0.480010	0.679040
N111	N11	0.296170	0.147930	0.796430
C171	C17	0.380770	0.333230	0.712230
C181	C18	0.295770	0.082030	0.832130
H171	H17	0.351970	0.087830	0.831130
H181	H18	0.255870	0.027130	0.814730
N121	N12	0.241170	0.216330	0.751230
O51	O5	0.306670	0.173530	0.979130
N131	N13	0.356370	0.381030	0.685130
H191	H19	0.393270	0.427230	0.667330
H201	H20	0.303270	0.366530	0.684930
C191	C19	0.329970	0.164430	0.929030
C201	C20	0.360370	0.214730	0.769730
C211	C21	0.271370	0.084930	0.896430
H211	H21	0.214670	0.077830	0.896930
H221	H22	0.268870	0.037130	0.918030
C221	C22	0.326970	0.257830	0.742030
N141	N14	0.442570	0.237830	0.768330
Ag61	Ag6	0.140640	0.234210	0.718520
C231	C23	0.434570	0.486830	0.837230
H231	H23	0.388870	0.443230	0.813230
H241	H24	0.435670	0.540130	0.829830
O61	O6	0.543470	0.452130	0.839730
O71	O7	0.558370	0.548430	0.777830
C241	C24	0.517670	0.495630	0.816630
Ag71	Ag7	0.486790	0.336060	0.932010
Ag81	Ag8	0.502070	0.172430	0.806720
O81	O8	0.397770	0.212130	0.903830
C251	C25	0.489170	0.308930	0.739330
H251	H25	0.547370	0.328330	0.737630
C261	C26	0.497970	0.605630	0.951030
H261	H26	0.462770	0.625030	0.936030
C271	C27	0.596870	0.600930	0.995130
N151	N15	0.562870	0.651730	0.983130
N161	N16	0.718270	0.683630	0.054930
H271	H27	0.761770	0.687930	0.073830
H281	H28	0.707770	0.725030	0.055730
C281	C28	0.668670	0.615130	0.025430
C291	C29	0.549670	0.525230	0.967830
N171	N17	0.563670	0.460230	0.969130
N181	N18	0.686670	0.551430	0.025130
N191	N19	0.484070	0.528230	0.940330
C301	C30	0.634870	0.479830	0.998730
H291	H29	0.649170	0.437230	0.000930
C311	C31	0.415770	0.464330	0.903230
H301	H30	0.362370	0.461130	0.913930
H311	H31	0.410170	0.409030	0.910530
C321	C32	0.226070	0.153230	0.783830
H321	H32	0.171870	0.114230	0.797930
N201	N20	0.462670	0.356230	0.712230
Ag91	Ag9	0.226200	0.813350	0.012380
N211	N21	0.962830	0.481270	0.129770
C331	C33	0.047430	0.666570	0.045570
C341	C34	0.962430	0.415370	0.165470
H331	H33	0.018630	0.421170	0.164470
H341	H34	0.922530	0.360470	0.148070
N221	N22	0.907830	0.549670	0.084570
O91	O9	0.973330	0.506870	0.312470
N231	N23	0.023030	0.714370	0.018470
H351	H35	0.059930	0.760570	0.000670
H361	H36	0.969930	0.699870	0.018270
C351	C35	0.996630	0.497770	0.262370
C361	C36	0.027030	0.548070	0.103070
C371	C37	0.938030	0.418270	0.229770
H371	H37	0.881330	0.411170	0.230270
H381	H38	0.935530	0.370470	0.251370
C381	C38	0.993630	0.591170	0.075370
N241	N24	0.109230	0.571170	0.101670
Ag101	Ag10	0.807300	0.567550	0.051860
C391	C39	0.101230	0.820170	0.170570
H391	H39	0.055530	0.776570	0.146570
H401	H40	0.102330	0.873470	0.163170
O101	O10	0.210130	0.785470	0.173070
O111	O11	0.225030	0.881770	0.111170
C401	C40	0.184330	0.828970	0.149970
Ag111	Ag11	0.153450	0.669400	0.265350
Ag121	Ag12	0.168730	0.505770	0.140060
O121	O12	0.064430	0.545470	0.237170
C411	C41	0.155830	0.642270	0.072670
H411	H41	0.214030	0.661670	0.070970
C421	C42	0.164630	0.938970	0.284370
H421	H42	0.129430	0.958370	0.269370
C431	C43	0.263530	0.934270	0.328470
N251	N25	0.229530	0.985070	0.316470
N261	N26	0.384930	0.016970	0.388270
H431	H43	0.428430	0.021270	0.407170
H441	H44	0.374430	0.058370	0.389070
C441	C44	0.335330	0.948470	0.358770
C451	C45	0.216330	0.858570	0.301170
N271	N27	0.230330	0.793570	0.302470
N281	N28	0.353330	0.884770	0.358470
N291	N29	0.150730	0.861570	0.273670
C461	C46	0.301530	0.813170	0.332070
H451	H45	0.315830	0.770570	0.334270
C471	C47	0.082430	0.797670	0.236570
H461	H46	0.029030	0.794470	0.247270
H471	H47	0.076830	0.742370	0.243870
C481	C48	0.892730	0.486570	0.117170
H481	H48	0.838530	0.447570	0.131270
N301	N30	0.129330	0.689570	0.045570
Ag131	Ag13	0.853320	0.746190	0.345710
N311	N31	0.185400	0.814900	0.463100
C491	C49	0.000100	0.714200	0.378900
C501	C50	0.251300	0.880400	0.498800
H491	H49	0.245500	0.930800	0.497800
H501	H50	0.306200	0.895400	0.481400
N321	N32	0.117000	0.691500	0.417900
O131	O13	0.159800	0.799800	0.645800
N331	N33	0.952300	0.642000	0.351800
H511	H51	0.906100	0.632700	0.334000
H521	H52	0.966800	0.603400	0.351600
C511	C51	0.168900	0.832200	0.595700
C521	C52	0.118600	0.812300	0.436400
C531	C53	0.248400	0.853100	0.563100
H531	H53	0.255500	0.803500	0.563600
H541	H54	0.296200	0.898400	0.584700
C541	C54	0.075500	0.735800	0.408700
N341	N34	0.095500	0.871400	0.435000
Ag141	Ag14	0.099120	0.573090	0.385190
C551	C55	0.846500	0.614400	0.503900
H551	H55	0.890100	0.612300	0.479900
H561	H56	0.793200	0.562200	0.496500
O141	O14	0.881200	0.758000	0.506400
O151	O15	0.784900	0.676600	0.444500
C561	C56	0.837700	0.688700	0.483300
Ag151	Ag15	0.997270	0.817390	0.598680
Ag161	Ag16	0.160900	0.996300	0.473390
O161	O16	0.121200	0.852300	0.570500
C571	C57	0.024400	0.846900	0.406000
H571	H57	0.005000	0.885700	0.404300
C581	C58	0.727700	0.559000	0.617700
H581	H58	0.708300	0.504400	0.602700
C591	C59	0.732400	0.662600	0.661800
N351	N35	0.681600	0.577800	0.649800
N361	N36	0.649700	0.701300	0.721600
H591	H59	0.645400	0.740500	0.740500
H601	H60	0.608300	0.649400	0.722400
C601	C60	0.718200	0.720200	0.692100
C611	C61	0.808100	0.691100	0.634500
N371	N37	0.873100	0.770100	0.635800
N381	N38	0.781900	0.801900	0.691800
N391	N39	0.805100	0.622500	0.607000
C621	C62	0.853500	0.821700	0.665400
H611	H61	0.896100	0.878600	0.667600
C631	C63	0.869000	0.618100	0.569900
H621	H62	0.872200	0.567900	0.580600
H631	H63	0.924300	0.667800	0.577200
C641	C64	0.180100	0.739500	0.450500
H641	H64	0.219100	0.724300	0.464600
N401	N40	0.977100	0.773100	0.378900
Ag171	Ag17	0.519990	0.079520	0.679040
N411	N41	0.852070	0.148230	0.796430
C651	C65	0.666770	0.047530	0.712230
C661	C66	0.917970	0.213730	0.832130
H651	H65	0.912170	0.264130	0.831130
H661	H66	0.972870	0.228730	0.814730
N421	N42	0.783670	0.024830	0.751230
O171	O17	0.826470	0.133130	0.979130
N431	N43	0.618970	0.975330	0.685130
H671	H67	0.572770	0.966030	0.667330
H681	H68	0.633470	0.936730	0.684930
C671	C67	0.835570	0.165530	0.929030
C681	C68	0.785270	0.145630	0.769730
C691	C69	0.915070	0.186430	0.896430
H691	H69	0.922170	0.136830	0.896930
H701	H70	0.962870	0.231730	0.918030
C701	C70	0.742170	0.069130	0.742030
N441	N44	0.762170	0.204730	0.768330
Ag181	Ag18	0.765790	0.906420	0.718520
C711	C71	0.513170	0.947730	0.837230
H711	H71	0.556770	0.945630	0.813230
H721	H72	0.459870	0.895530	0.829830
O181	O18	0.547870	0.091330	0.839730
O191	O19	0.451570	0.009930	0.777830
C721	C72	0.504370	0.022030	0.816630
Ag191	Ag19	0.663940	0.150720	0.932010
Ag201	Ag20	0.827570	0.329630	0.806720
O201	O20	0.787870	0.185630	0.903830
C731	C73	0.691070	0.180230	0.739330
H731	H73	0.671670	0.219030	0.737630
C741	C74	0.394370	0.892330	0.951030
H741	H74	0.374970	0.837730	0.936030
C751	C75	0.399070	0.995930	0.995130
N451	N45	0.348270	0.911130	0.983130
N461	N46	0.316370	0.034630	0.054930
H751	H75	0.312070	0.073830	0.073830
H761	H76	0.274970	0.982730	0.055730
C761	C76	0.384870	0.053530	0.025430
C771	C77	0.474770	0.024430	0.967830
N471	N47	0.539770	0.103430	0.969130
N481	N48	0.448570	0.135230	0.025130
N491	N49	0.471770	0.955830	0.940330
C781	C78	0.520170	0.155030	0.998730
H771	H77	0.562770	0.211930	0.000930
C791	C79	0.535670	0.951430	0.903230
H781	H78	0.538870	0.901230	0.913930
H791	H79	0.590970	0.001130	0.910530
C801	C80	0.846770	0.072830	0.783830
H801	H80	0.885770	0.057630	0.797930
N501	N50	0.643770	0.106430	0.712230
Ag211	Ag21	0.186650	0.412860	0.012380
N511	N51	0.518730	0.481570	0.129770
C811	C81	0.333430	0.380870	0.045570
C821	C82	0.584630	0.547070	0.165470
H811	H81	0.578830	0.597470	0.164470
H821	H82	0.639530	0.562070	0.148070
N521	N52	0.450330	0.358170	0.084570
O211	O21	0.493130	0.466470	0.312470
N531	N53	0.285630	0.308670	0.018470
H831	H83	0.239430	0.299370	0.000670
H841	H84	0.300130	0.270070	0.018270
C831	C83	0.502230	0.498870	0.262370
C841	C84	0.451930	0.478970	0.103070
C851	C85	0.581730	0.519770	0.229770
H851	H85	0.588830	0.470170	0.230270
H861	H86	0.629530	0.565070	0.251370
C861	C86	0.408830	0.402470	0.075370
N541	N54	0.428830	0.538070	0.101670
Ag221	Ag22	0.432450	0.239760	0.051860
C871	C87	0.179830	0.281070	0.170570
H871	H87	0.223430	0.278970	0.146570
H881	H88	0.126530	0.228870	0.163170
O221	O22	0.214530	0.424670	0.173070
O231	O23	0.118230	0.343270	0.111170
C881	C88	0.171030	0.355370	0.149970
Ag231	Ag23	0.330600	0.484060	0.265350
Ag241	Ag24	0.494230	0.662970	0.140060
O241	O24	0.454530	0.518970	0.237170
C891	C89	0.357730	0.513570	0.072670
H891	H89	0.338330	0.552370	0.070970
C901	C90	0.061030	0.225670	0.284370
H901	H90	0.041630	0.171070	0.269370
C911	C91	0.065730	0.329270	0.328470
N551	N55	0.014930	0.244470	0.316470
N561	N56	0.983030	0.367970	0.388270
H911	H91	0.978730	0.407170	0.407170
H921	H92	0.941630	0.316070	0.389070
C921	C92	0.051530	0.386870	0.358770
C931	C93	0.141430	0.357770	0.301170
N571	N57	0.206430	0.436770	0.302470
N581	N58	0.115230	0.468570	0.358470
N591	N59	0.138430	0.289170	0.273670
C941	C94	0.186830	0.488370	0.332070
H931	H93	0.229430	0.545270	0.334270
C951	C95	0.202330	0.284770	0.236570
H941	H94	0.205530	0.234570	0.247270
H951	H95	0.257630	0.334470	0.243870
C961	C96	0.513430	0.406170	0.117170
H961	H96	0.552430	0.390970	0.131270
N601	N60	0.310430	0.439770	0.045570
Ag251	Ag25	0.253810	0.107130	0.345710
N611	N61	0.185100	0.370500	0.463100
C971	C97	0.285800	0.285900	0.378900
C981	C98	0.119600	0.370900	0.498800
H971	H97	0.069200	0.314700	0.497800
H981	H98	0.104600	0.410800	0.481400
N621	N62	0.308500	0.425500	0.417900
O251	O25	0.200200	0.360000	0.645800
N631	N63	0.358000	0.310300	0.351800
H991	H99	0.367300	0.273400	0.334000
H1001	H100	0.396600	0.363400	0.351600
C991	C99	0.167800	0.336700	0.595700
C1001	C100	0.187700	0.306300	0.436400
C1011	C101	0.146900	0.395300	0.563100
H1011	H101	0.196500	0.452000	0.563600
H1021	H102	0.101600	0.397800	0.584700
C1021	C102	0.264200	0.339700	0.408700
N641	N64	0.128600	0.224100	0.435000
Ag261	Ag26	0.426910	0.526030	0.385190
C1031	C103	0.385600	0.232100	0.503900
H1031	H103	0.387700	0.277800	0.479900
H1041	H104	0.437800	0.231000	0.496500
O261	O26	0.242000	0.123200	0.506400
O271	O27	0.323400	0.108300	0.444500
C1041	C104	0.311300	0.149000	0.483300
Ag271	Ag27	0.182610	0.179880	0.598680
Ag281	Ag28	0.003700	0.164600	0.473390
O281	O28	0.147700	0.268900	0.570500
C1051	C105	0.153100	0.177500	0.406000
H1051	H105	0.114300	0.119300	0.404300
C1061	C106	0.441000	0.168700	0.617700
H1061	H106	0.495600	0.203900	0.602700
C1071	C107	0.337400	0.069800	0.661800
N651	N65	0.422200	0.103800	0.649800
N661	N66	0.298700	0.948400	0.721600
H1071	H107	0.259500	0.904900	0.740500
H1081	H108	0.350600	0.958900	0.722400
C1081	C108	0.279800	0.998000	0.692100
C1091	C109	0.308900	0.117000	0.634500
N671	N67	0.229900	0.103000	0.635800
N681	N68	0.198100	0.980000	0.691800
N691	N69	0.377500	0.182600	0.607000
C1101	C110	0.178300	0.031800	0.665400
H1091	H109	0.121400	0.017500	0.667600
C1111	C111	0.381900	0.250900	0.569900
H1101	H110	0.432100	0.304300	0.580600
H1111	H111	0.332200	0.256500	0.577200
C1121	C112	0.260500	0.440600	0.450500
H1121	H112	0.275700	0.494800	0.464600
N701	N70	0.226900	0.204000	0.378900
Ag291	Ag29	0.920480	0.440460	0.679040
N711	N71	0.851770	0.703830	0.796430
C1131	C113	0.952470	0.619230	0.712230
C1141	C114	0.786270	0.704230	0.832130
H1131	H113	0.735870	0.648030	0.831130
H1141	H114	0.771270	0.744130	0.814730
N721	N72	0.975170	0.758830	0.751230
O291	O29	0.866870	0.693330	0.979130
N731	N73	0.024670	0.643630	0.685130
H1151	H115	0.033970	0.606730	0.667330
H1161	H116	0.063270	0.696730	0.684930
C1151	C115	0.834470	0.670030	0.929030
C1161	C116	0.854370	0.639630	0.769730
C1171	C117	0.813570	0.728630	0.896430
H1171	H117	0.863170	0.785330	0.896930
H1181	H118	0.768270	0.731130	0.918030
C1181	C118	0.930870	0.673030	0.742030
N741	N74	0.795270	0.557430	0.768330
Ag301	Ag30	0.093580	0.859360	0.718520
C1191	C119	0.052270	0.565430	0.837230
H1191	H119	0.054370	0.611130	0.813230
H1201	H120	0.104470	0.564330	0.829830
O301	O30	0.908670	0.456530	0.839730
O311	O31	0.990070	0.441630	0.777830
C1201	C120	0.977970	0.482330	0.816630
Ag311	Ag31	0.849280	0.513210	0.932010
Ag321	Ag32	0.670370	0.497930	0.806720
O321	O32	0.814370	0.602230	0.903830
C1211	C121	0.819770	0.510830	0.739330
H1211	H121	0.780970	0.452630	0.737630
C1221	C122	0.107670	0.502030	0.951030
H1221	H122	0.162270	0.537230	0.936030
C1231	C123	0.004070	0.403130	0.995130
N751	N75	0.088870	0.437130	0.983130
N761	N76	0.965370	0.281730	0.054930
H1231	H123	0.926170	0.238230	0.073830
H1241	H124	0.017270	0.292230	0.055730
C1241	C124	0.946470	0.331330	0.025430
C1251	C125	0.975570	0.450330	0.967830
N771	N77	0.896570	0.436330	0.969130
N781	N78	0.864770	0.313330	0.025130
N791	N79	0.044170	0.515930	0.940330
C1261	C126	0.844970	0.365130	0.998730
H1251	H125	0.788070	0.350830	0.000930
C1271	C127	0.048570	0.584230	0.903230
H1261	H126	0.098770	0.637630	0.913930
H1271	H127	0.998870	0.589830	0.910530
C1281	C128	0.927170	0.773930	0.783830
H1281	H128	0.942370	0.828130	0.797930
N801	N80	0.893570	0.537330	0.712230
Ag331	Ag33	0.587140	0.773800	0.012380
N811	N81	0.518430	0.037170	0.129770
C1291	C129	0.619130	0.952570	0.045570
C1301	C130	0.452930	0.037570	0.165470
H1291	H129	0.402530	0.981370	0.164470
H1301	H130	0.437930	0.077470	0.148070
N821	N82	0.641830	0.092170	0.084570
O331	O33	0.533530	0.026670	0.312470
N831	N83	0.691330	0.976970	0.018470
H1311	H131	0.700630	0.940070	0.000670
H1321	H132	0.729930	0.030070	0.018270
C1311	C131	0.501130	0.003370	0.262370
C1321	C132	0.521030	0.972970	0.103070
C1331	C133	0.480230	0.061970	0.229770
H1331	H133	0.529830	0.118670	0.230270
H1341	H134	0.434930	0.064470	0.251370
C1341	C134	0.597530	0.006370	0.075370
N841	N84	0.461930	0.890770	0.101670
Ag341	Ag34	0.760240	0.192700	0.051860
C1351	C135	0.718930	0.898770	0.170570
H1351	H135	0.721030	0.944470	0.146570
H1361	H136	0.771130	0.897670	0.163170
O341	O34	0.575330	0.789870	0.173070
O351	O35	0.656730	0.774970	0.111170
C1361	C136	0.644630	0.815670	0.149970
Ag351	Ag35	0.515940	0.846550	0.265350
Ag361	Ag36	0.337030	0.831270	0.140060
O361	O36	0.481030	0.935570	0.237170
C1371	C137	0.486430	0.844170	0.072670
H1371	H137	0.447630	0.785970	0.070970
C1381	C138	0.774330	0.835370	0.284370
H1381	H138	0.828930	0.870570	0.269370
C1391	C139	0.670730	0.736470	0.328470
N851	N85	0.755530	0.770470	0.316470
N861	N86	0.632030	0.615070	0.388270
H1391	H139	0.592830	0.571570	0.407170
H1401	H140	0.683930	0.625570	0.389070
C1401	C140	0.613130	0.664670	0.358770
C1411	C141	0.642230	0.783670	0.301170
N871	N87	0.563230	0.769670	0.302470
N881	N88	0.531430	0.646670	0.358470
N891	N89	0.710830	0.849270	0.273670
C1421	C142	0.511630	0.698470	0.332070
H1411	H141	0.454730	0.684170	0.334270
C1431	C143	0.715230	0.917570	0.236570
H1421	H142	0.765430	0.970970	0.247270
H1431	H143	0.665530	0.923170	0.243870
C1441	C144	0.593830	0.107270	0.117170
H1441	H144	0.609030	0.161470	0.131270
N901	N90	0.560230	0.870670	0.045570
