data_QUFFED_freeONLY_PM
_symmetry_space_group_name_H-M	'P1'
_cell_length_a	10.935700
_cell_length_b	10.935700
_cell_length_c	12.454900
_cell_angle_alpha	101.572000
_cell_angle_beta	101.572000
_cell_angle_gamma	99.227100
_symmetry_Int_Tables_number 1

loop_
_symmetry_equiv_pos_as_xyz
'x,y,z'

loop_
_atom_site_label
_atom_site_type_symbol
_atom_site_fract_x
_atom_site_fract_y
_atom_site_fract_z
Zn11	Zn1	0.736040	0.340810	0.376300
Zn21	Zn2	0.659190	0.263960	0.123700
H11	H1	0.067000	0.391000	0.799000
H21	H2	0.983000	0.267000	0.838000
H31	H3	0.053000	0.237000	0.726000
H41	H4	0.517900	0.254100	0.506000
H51	H5	0.514800	0.253200	0.618000
H61	H6	0.531300	0.369300	0.586000
H71	H7	0.946300	0.359700	0.577100
H81	H8	0.037200	0.244800	0.088000
H91	H9	0.238900	0.223100	0.077000
H101	H10	0.365300	0.374700	0.411000
H111	H11	0.158600	0.375800	0.422000
H121	H12	0.609000	0.933000	0.701000
H131	H13	0.733000	0.017000	0.662000
H141	H14	0.763000	0.947000	0.774000
H151	H15	0.745900	0.482100	0.994000
H161	H16	0.746800	0.485200	0.882000
H171	H17	0.630700	0.468700	0.914000
H181	H18	0.640300	0.053700	0.922900
H191	H19	0.755200	0.962800	0.412000
H201	H20	0.776900	0.761100	0.423000
H211	H21	0.625300	0.634700	0.089000
H221	H22	0.624200	0.841400	0.078000
C11	C1	0.764870	0.282490	0.704510
C21	C2	0.939500	0.318040	0.267700
C31	C3	0.073990	0.310810	0.259100
C41	C4	0.098800	0.267200	0.154800
C51	C5	0.223100	0.261700	0.147300
C61	C6	0.322960	0.299240	0.242600
C71	C7	0.457820	0.291580	0.235500
C81	C8	0.297970	0.343230	0.346500
C91	C9	0.173940	0.347860	0.355000
C101	C10	0.887500	0.308900	0.692300
C111	C11	0.006300	0.300300	0.769500
C121	C12	0.548500	0.294500	0.575800
C131	C13	0.688900	0.305900	0.605400
C141	C14	0.717510	0.235130	0.795490
C151	C15	0.681960	0.060500	0.232300
C161	C16	0.689190	0.926010	0.240900
C171	C17	0.732800	0.901200	0.345200
C181	C18	0.738300	0.776900	0.352700
C191	C19	0.700760	0.677040	0.257400
C201	C20	0.708420	0.542180	0.264500
C211	C21	0.656770	0.702030	0.153500
C221	C22	0.652140	0.826060	0.145000
C231	C23	0.691100	0.112500	0.807700
C241	C24	0.699700	0.993700	0.730500
C251	C25	0.705500	0.451500	0.924200
C261	C26	0.694100	0.311100	0.894600
N11	N1	0.769700	0.337120	0.541330
N21	N2	0.887200	0.341200	0.597600
N31	N3	0.662880	0.230300	0.958670
N41	N4	0.658800	0.112800	0.902400
O11	O1	0.854240	0.287880	0.178470
O21	O2	0.922390	0.356710	0.365650
O31	O3	0.542340	0.324220	0.325420
O41	O4	0.475190	0.250250	0.138300
O51	O5	0.712120	0.145760	0.321530
O61	O6	0.643290	0.077610	0.134350
O71	O7	0.675780	0.457660	0.174580
O81	O8	0.749750	0.524810	0.361700
Zn31	Zn3	0.263960	0.659190	0.623700
Zn41	Zn4	0.340810	0.736040	0.876300
H231	H23	0.933000	0.609000	0.201000
H241	H24	0.017000	0.733000	0.162000
H251	H25	0.947000	0.763000	0.274000
H261	H26	0.482100	0.745900	0.494000
H271	H27	0.485200	0.746800	0.382000
H281	H28	0.468700	0.630700	0.414000
H291	H29	0.053700	0.640300	0.422900
H301	H30	0.962800	0.755200	0.912000
H311	H31	0.761100	0.776900	0.923000
H321	H32	0.634700	0.625300	0.589000
H331	H33	0.841400	0.624200	0.578000
H341	H34	0.391000	0.067000	0.299000
H351	H35	0.267000	0.983000	0.338000
H361	H36	0.237000	0.053000	0.226000
H371	H37	0.254100	0.517900	0.006000
H381	H38	0.253200	0.514800	0.118000
H391	H39	0.369300	0.531300	0.086000
H401	H40	0.359700	0.946300	0.077100
H411	H41	0.244800	0.037200	0.588000
H421	H42	0.223100	0.238900	0.577000
H431	H43	0.374700	0.365300	0.911000
H441	H44	0.375800	0.158600	0.922000
C271	C27	0.235130	0.717510	0.295490
C281	C28	0.060500	0.681960	0.732300
C291	C29	0.926010	0.689190	0.740900
C301	C30	0.901200	0.732800	0.845200
C311	C31	0.776900	0.738300	0.852700
C321	C32	0.677040	0.700760	0.757400
C331	C33	0.542180	0.708420	0.764500
C341	C34	0.702030	0.656770	0.653500
C351	C35	0.826060	0.652140	0.645000
C361	C36	0.112500	0.691100	0.307700
C371	C37	0.993700	0.699700	0.230500
C381	C38	0.451500	0.705500	0.424200
C391	C39	0.311100	0.694100	0.394600
C401	C40	0.282490	0.764870	0.204510
C411	C41	0.318040	0.939500	0.767700
C421	C42	0.310810	0.073990	0.759100
C431	C43	0.267200	0.098800	0.654800
C441	C44	0.261700	0.223100	0.647300
C451	C45	0.299240	0.322960	0.742600
C461	C46	0.291580	0.457820	0.735500
C471	C47	0.343230	0.297970	0.846500
C481	C48	0.347860	0.173940	0.855000
C491	C49	0.308900	0.887500	0.192300
C501	C50	0.300300	0.006300	0.269500
C511	C51	0.294500	0.548500	0.075800
C521	C52	0.305900	0.688900	0.105400
N51	N5	0.230300	0.662880	0.458670
N61	N6	0.112800	0.658800	0.402400
N71	N7	0.337120	0.769700	0.041330
N81	N8	0.341200	0.887200	0.097600
O91	O9	0.145760	0.712120	0.821530
O101	O10	0.077610	0.643290	0.634350
O111	O11	0.457660	0.675780	0.674580
O121	O12	0.524810	0.749750	0.861700
O131	O13	0.287880	0.854240	0.678470
O141	O14	0.356710	0.922390	0.865650
O151	O15	0.324220	0.542340	0.825420
O161	O16	0.250250	0.475190	0.638300
