data_QUFGED_freeONLY_PM
_symmetry_space_group_name_H-M	'P1'
_cell_length_a	9.276900
_cell_length_b	14.798400
_cell_length_c	14.610600
_cell_angle_alpha	90.000000
_cell_angle_beta	90.000000
_cell_angle_gamma	90.000000
_symmetry_Int_Tables_number 1

loop_
_symmetry_equiv_pos_as_xyz
'x,y,z'

loop_
_atom_site_label
_atom_site_type_symbol
_atom_site_fract_x
_atom_site_fract_y
_atom_site_fract_z
P11	P1	0.148200	0.133430	0.103100
Al11	Al1	0.142600	0.347000	0.115000
O11	O1	0.966700	0.359200	0.163800
O21	O2	0.727900	0.921700	0.166300
O31	O3	0.256200	0.066800	0.139700
O41	O4	0.127000	0.114900	0.000700
O51	O5	0.002600	0.120600	0.149000
O61	O6	0.198300	0.230800	0.116700
P21	P2	0.851800	0.866570	0.603100
Al21	Al2	0.857400	0.653000	0.615000
O71	O7	0.033300	0.640800	0.663800
O81	O8	0.272100	0.078300	0.666300
O91	O9	0.743800	0.933200	0.639700
O101	O10	0.873000	0.885100	0.500700
O111	O11	0.997400	0.879400	0.649000
O121	O12	0.801700	0.769200	0.616700
P31	P3	0.851800	0.633430	0.396900
Al31	Al3	0.857400	0.847000	0.385000
O131	O13	0.033300	0.859200	0.336200
O141	O14	0.272100	0.421700	0.333700
O151	O15	0.743800	0.566800	0.360300
O161	O16	0.873000	0.614900	0.499300
O171	O17	0.997400	0.620600	0.351000
O181	O18	0.801700	0.730800	0.383300
P41	P4	0.148200	0.366570	0.896900
Al41	Al4	0.142600	0.153000	0.885000
O191	O19	0.966700	0.140800	0.836200
O201	O20	0.727900	0.578300	0.833700
O211	O21	0.256200	0.433200	0.860300
O221	O22	0.127000	0.385100	0.999300
O231	O23	0.002600	0.379400	0.851000
O241	O24	0.198300	0.269200	0.883300
P51	P5	0.851800	0.866570	0.896900
Al51	Al5	0.857400	0.653000	0.885000
O251	O25	0.033300	0.640800	0.836200
O261	O26	0.272100	0.078300	0.833700
O271	O27	0.743800	0.933200	0.860300
O281	O28	0.873000	0.885100	0.999300
O291	O29	0.997400	0.879400	0.851000
O301	O30	0.801700	0.769200	0.883300
P61	P6	0.148200	0.133430	0.396900
Al61	Al6	0.142600	0.347000	0.385000
O311	O31	0.966700	0.359200	0.336200
O321	O32	0.727900	0.921700	0.333700
O331	O33	0.256200	0.066800	0.360300
O341	O34	0.127000	0.114900	0.499300
O351	O35	0.002600	0.120600	0.351000
O361	O36	0.198300	0.230800	0.383300
P71	P7	0.148200	0.366570	0.603100
Al71	Al7	0.142600	0.153000	0.615000
O371	O37	0.966700	0.140800	0.663800
O381	O38	0.727900	0.578300	0.666300
O391	O39	0.256200	0.433200	0.639700
O401	O40	0.127000	0.385100	0.500700
O411	O41	0.002600	0.379400	0.649000
O421	O42	0.198300	0.269200	0.616700
P81	P8	0.851800	0.633430	0.103100
Al81	Al8	0.857400	0.847000	0.115000
O431	O43	0.033300	0.859200	0.163800
O441	O44	0.272100	0.421700	0.166300
O451	O45	0.743800	0.566800	0.139700
O461	O46	0.873000	0.614900	0.000700
O471	O47	0.997400	0.620600	0.149000
O481	O48	0.801700	0.730800	0.116700
P91	P9	0.876500	0.343000	0.250000
P101	P10	0.682000	0.972100	0.250000
Al91	Al9	0.901500	0.135600	0.250000
Al101	Al10	0.332300	0.020400	0.250000
Mg11	Mg1	0.667700	0.520400	0.250000
O491	O49	0.825600	0.244400	0.250000
O501	O50	0.747100	0.401800	0.250000
O511	O51	0.755900	0.061600	0.250000
O521	O52	0.526500	0.986200	0.250000
O531	O53	0.438500	0.158300	0.250000
O541	O54	0.501900	0.255200	0.250000
P111	P11	0.123500	0.657000	0.750000
P121	P12	0.318000	0.027900	0.750000
Al111	Al11	0.098500	0.864400	0.750000
Al121	Al12	0.667700	0.979600	0.750000
Mg21	Mg2	0.332300	0.479600	0.750000
O551	O55	0.174400	0.755600	0.750000
O561	O56	0.252900	0.598200	0.750000
O571	O57	0.244100	0.938400	0.750000
O581	O58	0.473500	0.013800	0.750000
O591	O59	0.561500	0.841700	0.750000
O601	O60	0.498100	0.744800	0.750000
P131	P13	0.123500	0.843000	0.250000
P141	P14	0.318000	0.472100	0.250000
Al131	Al13	0.098500	0.635600	0.250000
O611	O61	0.174400	0.744400	0.250000
O621	O62	0.252900	0.901800	0.250000
O631	O63	0.244100	0.561600	0.250000
O641	O64	0.473500	0.486200	0.250000
O651	O65	0.561500	0.658300	0.250000
O661	O66	0.498100	0.755200	0.250000
P151	P15	0.876500	0.157000	0.750000
P161	P16	0.682000	0.527900	0.750000
Al141	Al14	0.901500	0.364400	0.750000
O671	O67	0.825600	0.255600	0.750000
O681	O68	0.747100	0.098200	0.750000
O691	O69	0.755900	0.438400	0.750000
O701	O70	0.526500	0.513800	0.750000
O711	O71	0.438500	0.341700	0.750000
O721	O72	0.501900	0.244800	0.750000
