data_QUFGIH_freeONLY_PM
_symmetry_space_group_name_H-M	'P1'
_cell_length_a	9.218700
_cell_length_b	14.865200
_cell_length_c	14.581100
_cell_angle_alpha	90.000000
_cell_angle_beta	90.000000
_cell_angle_gamma	90.000000
_symmetry_Int_Tables_number 1

loop_
_symmetry_equiv_pos_as_xyz
'x,y,z'

loop_
_atom_site_label
_atom_site_type_symbol
_atom_site_fract_x
_atom_site_fract_y
_atom_site_fract_z
P11	P1	0.154800	0.135600	0.104100
Al11	Al1	0.148000	0.347900	0.114500
O11	O1	0.972500	0.359700	0.162800
O21	O2	0.728000	0.926300	0.160200
O31	O3	0.267400	0.069500	0.136400
O41	O4	0.126900	0.111600	0.002600
O51	O5	0.013400	0.119100	0.152600
O61	O6	0.210200	0.232800	0.118700
P21	P2	0.845200	0.864400	0.604100
Al21	Al2	0.852000	0.652100	0.614500
O71	O7	0.027500	0.640300	0.662800
O81	O8	0.272000	0.073700	0.660200
O91	O9	0.732600	0.930500	0.636400
O101	O10	0.873100	0.888400	0.502600
O111	O11	0.986600	0.880900	0.652600
O121	O12	0.789800	0.767200	0.618700
P31	P3	0.845200	0.635600	0.395900
Al31	Al3	0.852000	0.847900	0.385500
O131	O13	0.027500	0.859700	0.337200
O141	O14	0.272000	0.426300	0.339800
O151	O15	0.732600	0.569500	0.363600
O161	O16	0.873100	0.611600	0.497400
O171	O17	0.986600	0.619100	0.347400
O181	O18	0.789800	0.732800	0.381300
P41	P4	0.154800	0.364400	0.895900
Al41	Al4	0.148000	0.152100	0.885500
O191	O19	0.972500	0.140300	0.837200
O201	O20	0.728000	0.573700	0.839800
O211	O21	0.267400	0.430500	0.863600
O221	O22	0.126900	0.388400	0.997400
O231	O23	0.013400	0.380900	0.847400
O241	O24	0.210200	0.267200	0.881300
P51	P5	0.845200	0.864400	0.895900
Al51	Al5	0.852000	0.652100	0.885500
O251	O25	0.027500	0.640300	0.837200
O261	O26	0.272000	0.073700	0.839800
O271	O27	0.732600	0.930500	0.863600
O281	O28	0.873100	0.888400	0.997400
O291	O29	0.986600	0.880900	0.847400
O301	O30	0.789800	0.767200	0.881300
P61	P6	0.154800	0.135600	0.395900
Al61	Al6	0.148000	0.347900	0.385500
O311	O31	0.972500	0.359700	0.337200
O321	O32	0.728000	0.926300	0.339800
O331	O33	0.267400	0.069500	0.363600
O341	O34	0.126900	0.111600	0.497400
O351	O35	0.013400	0.119100	0.347400
O361	O36	0.210200	0.232800	0.381300
P71	P7	0.154800	0.364400	0.604100
Al71	Al7	0.148000	0.152100	0.614500
O371	O37	0.972500	0.140300	0.662800
O381	O38	0.728000	0.573700	0.660200
O391	O39	0.267400	0.430500	0.636400
O401	O40	0.126900	0.388400	0.502600
O411	O41	0.013400	0.380900	0.652600
O421	O42	0.210200	0.267200	0.618700
P81	P8	0.845200	0.635600	0.104100
Al81	Al8	0.852000	0.847900	0.114500
O431	O43	0.027500	0.859700	0.162800
O441	O44	0.272000	0.426300	0.160200
O451	O45	0.732600	0.569500	0.136400
O461	O46	0.873100	0.611600	0.002600
O471	O47	0.986600	0.619100	0.152600
O481	O48	0.789800	0.732800	0.118700
P91	P9	0.889000	0.334700	0.250000
P101	P10	0.685100	0.963800	0.250000
Al91	Al9	0.898900	0.135300	0.250000
Mg11	Mg1	0.670900	0.519000	0.250000
O491	O49	0.814400	0.243000	0.250000
O501	O50	0.757200	0.394600	0.250000
O511	O51	0.756300	0.053700	0.250000
O521	O52	0.531500	0.993900	0.250000
Al101	Al10	0.329100	0.019000	0.250000
P111	P11	0.111000	0.665300	0.750000
P121	P12	0.314900	0.036200	0.750000
Al111	Al11	0.101100	0.864700	0.750000
Mg21	Mg2	0.329100	0.481000	0.750000
O531	O53	0.185600	0.757000	0.750000
O541	O54	0.242800	0.605400	0.750000
O551	O55	0.243700	0.946300	0.750000
O561	O56	0.468500	0.006100	0.750000
Al121	Al12	0.670900	0.981000	0.750000
P131	P13	0.111000	0.834700	0.250000
P141	P14	0.314900	0.463800	0.250000
Al131	Al13	0.101100	0.635300	0.250000
O571	O57	0.185600	0.743000	0.250000
O581	O58	0.242800	0.894600	0.250000
O591	O59	0.243700	0.553700	0.250000
O601	O60	0.468500	0.493900	0.250000
P151	P15	0.889000	0.165300	0.750000
P161	P16	0.685100	0.536200	0.750000
Al141	Al14	0.898900	0.364700	0.750000
O611	O61	0.814400	0.257000	0.750000
O621	O62	0.757200	0.105400	0.750000
O631	O63	0.756300	0.446300	0.750000
O641	O64	0.531500	0.506100	0.750000
