data_QUFXIZ_freeONLY_PM
_symmetry_space_group_name_H-M	'P1'
_cell_length_a	29.511000
_cell_length_b	12.050000
_cell_length_c	13.908000
_cell_angle_alpha	90.000000
_cell_angle_beta	111.457000
_cell_angle_gamma	90.000000
_symmetry_Int_Tables_number 1

loop_
_symmetry_equiv_pos_as_xyz
'x,y,z'

loop_
_atom_site_label
_atom_site_type_symbol
_atom_site_fract_x
_atom_site_fract_y
_atom_site_fract_z
Zn11	Zn1	0.151510	0.952550	0.754280
Zn21	Zn2	0.844380	0.037430	0.828330
C11	C1	0.364800	0.670300	0.019500
H11	H1	0.382500	0.612400	0.060300
C21	C2	0.319700	0.762800	0.892300
H21	H2	0.299700	0.781900	0.825400
C31	C3	0.329600	0.830900	0.974400
H31	H3	0.318700	0.903300	0.975100
C41	C4	0.379400	0.805100	0.165800
H41	H4	0.404600	0.753100	0.204200
H51	H5	0.394400	0.877500	0.170200
C51	C5	0.342700	0.810700	0.213500
H61	H6	0.329600	0.736800	0.213100
H71	H7	0.358700	0.832700	0.285100
C61	C6	0.315500	0.995200	0.187500
H81	H8	0.340800	0.015900	0.161800
H91	H9	0.327900	0.006800	0.261600
C71	C7	0.271400	0.064700	0.137300
H101	H10	0.245400	0.038900	0.158800
H111	H11	0.278600	0.141000	0.160200
C81	C8	0.218800	0.998600	0.962800
H121	H12	0.201100	0.948800	0.986400
C91	C9	0.246100	0.091500	0.863400
H131	H13	0.250300	0.117700	0.804300
C101	C10	0.273700	0.121500	0.963300
H141	H14	0.299300	0.171700	0.985200
C111	C11	0.117300	0.110600	0.607600
C121	C12	0.083800	0.191800	0.534100
C131	C13	0.054500	0.258500	0.565000
H151	H15	0.053000	0.247400	0.630000
C141	C14	0.026000	0.344200	0.501500
C151	C15	0.029000	0.357400	0.404400
H161	H16	0.012500	0.415500	0.361900
C161	C16	0.056500	0.284900	0.370700
H171	H17	0.057300	0.293900	0.304900
C171	C17	0.082800	0.199200	0.432800
C181	C18	0.107600	0.112200	0.386000
C191	C19	0.996500	0.419300	0.544700
C201	C20	0.962300	0.350600	0.583900
C211	C21	0.955100	0.377900	0.675000
H181	H18	0.971900	0.436900	0.715700
C221	C22	0.922400	0.315000	0.703700
H191	H19	0.917500	0.332500	0.764300
C231	C23	0.897100	0.227700	0.644300
C241	C24	0.903500	0.203500	0.554100
C251	C25	0.937700	0.263300	0.524300
H201	H20	0.943400	0.243400	0.465100
C261	C26	0.864600	0.166700	0.686800
C271	C27	0.872400	0.114300	0.480400
C281	C28	0.963100	0.498900	0.459900
C291	C29	0.032700	0.493500	0.628200
C301	C30	0.774800	0.960400	0.630500
H211	H21	0.791500	0.998700	0.595800
C311	C31	0.752500	0.894300	0.749000
H221	H22	0.750900	0.881200	0.813600
C321	C32	0.724900	0.846000	0.663300
H231	H23	0.701400	0.792200	0.656500
C331	C33	0.715700	0.866100	0.472200
H241	H24	0.706100	0.788800	0.460500
H251	H25	0.740000	0.880100	0.441800
C341	C34	0.671600	0.940200	0.421100
H261	H26	0.656900	0.924400	0.347700
H271	H27	0.647400	0.928700	0.452100
C351	C35	0.654800	0.127900	0.383400
C361	C36	0.619100	0.188800	0.420800
C371	C37	0.646100	0.330400	0.562900
H281	H28	0.626300	0.384400	0.520000
C381	C38	0.688700	0.239500	0.698200
H291	H29	0.704400	0.220100	0.767200
C391	C39	0.687000	0.176300	0.616300
H301	H30	0.700800	0.106800	0.617200
N11	N1	0.342200	0.664300	0.918000
N21	N2	0.358900	0.770300	0.056300
N31	N3	0.254800	0.060600	0.023600
N41	N4	0.211100	0.016000	0.865200
N51	N5	0.783500	0.966100	0.730100
N61	N6	0.737200	0.889100	0.586600
N71	N7	0.659500	0.239800	0.530000
N81	N8	0.664000	0.336100	0.663900
O11	O1	0.303280	0.884900	0.165600
O21	O2	0.101970	0.055100	0.669300
O31	O3	0.160580	0.104300	0.612500
O41	O4	0.101100	0.015100	0.396600
O51	O5	0.129900	0.156300	0.334500
O61	O6	0.888600	0.076500	0.413300
O71	O7	0.835400	0.083700	0.490500
O81	O8	0.824820	0.205000	0.679300
O91	O9	0.881500	0.077800	0.738200
O101	O10	0.688700	0.045600	0.437000
F11	F1	0.012530	0.579900	0.656900
F21	F2	0.054920	0.435700	0.714300
F31	F3	0.065500	0.535300	0.597000
F41	F4	0.988480	0.575800	0.431000
F51	F5	0.931300	0.553600	0.494400
F61	F6	0.934580	0.445400	0.375800
C401	C40	0.666200	0.226800	0.416700
Zn31	Zn3	0.651510	0.452550	0.754280
Zn41	Zn4	0.344380	0.537430	0.828330
C411	C41	0.864800	0.170300	0.019500
H311	H31	0.882500	0.112400	0.060300
C421	C42	0.819700	0.262800	0.892300
H321	H32	0.799700	0.281900	0.825400
C431	C43	0.829600	0.330900	0.974400
H331	H33	0.818700	0.403300	0.975100
C441	C44	0.879400	0.305100	0.165800
H341	H34	0.904600	0.253100	0.204200
H351	H35	0.894400	0.377500	0.170200
C451	C45	0.842700	0.310700	0.213500
H361	H36	0.829600	0.236800	0.213100
H371	H37	0.858700	0.332700	0.285100
C461	C46	0.815500	0.495200	0.187500
H381	H38	0.840800	0.515900	0.161800
H391	H39	0.827900	0.506800	0.261600
C471	C47	0.771400	0.564700	0.137300
H401	H40	0.745400	0.538900	0.158800
H411	H41	0.778600	0.641000	0.160200
C481	C48	0.718800	0.498600	0.962800
H421	H42	0.701100	0.448800	0.986400
C491	C49	0.746100	0.591500	0.863400
H431	H43	0.750300	0.617700	0.804300
C501	C50	0.773700	0.621500	0.963300
H441	H44	0.799300	0.671700	0.985200
C511	C51	0.617300	0.610600	0.607600
C521	C52	0.583800	0.691800	0.534100
C531	C53	0.554500	0.758500	0.565000
H451	H45	0.553000	0.747400	0.630000
C541	C54	0.526000	0.844200	0.501500
C551	C55	0.529000	0.857400	0.404400
H461	H46	0.512500	0.915500	0.361900
C561	C56	0.556500	0.784900	0.370700
H471	H47	0.557300	0.793900	0.304900
C571	C57	0.582800	0.699200	0.432800
C581	C58	0.607600	0.612200	0.386000
C591	C59	0.496500	0.919300	0.544700
C601	C60	0.462300	0.850600	0.583900
C611	C61	0.455100	0.877900	0.675000
H481	H48	0.471900	0.936900	0.715700
C621	C62	0.422400	0.815000	0.703700
H491	H49	0.417500	0.832500	0.764300
C631	C63	0.397100	0.727700	0.644300
C641	C64	0.403500	0.703500	0.554100
C651	C65	0.437700	0.763300	0.524300
H501	H50	0.443400	0.743400	0.465100
C661	C66	0.364600	0.666700	0.686800
C671	C67	0.372400	0.614300	0.480400
C681	C68	0.463100	0.998900	0.459900
C691	C69	0.532700	0.993500	0.628200
C701	C70	0.274800	0.460400	0.630500
H511	H51	0.291500	0.498700	0.595800
C711	C71	0.252500	0.394300	0.749000
H521	H52	0.250900	0.381200	0.813600
C721	C72	0.224900	0.346000	0.663300
H531	H53	0.201400	0.292200	0.656500
C731	C73	0.215700	0.366100	0.472200
H541	H54	0.206100	0.288800	0.460500
H551	H55	0.240000	0.380100	0.441800
C741	C74	0.171600	0.440200	0.421100
H561	H56	0.156900	0.424400	0.347700
H571	H57	0.147400	0.428700	0.452100
C751	C75	0.154800	0.627900	0.383400
C761	C76	0.119100	0.688800	0.420800
C771	C77	0.146100	0.830400	0.562900
H581	H58	0.126300	0.884400	0.520000
C781	C78	0.188700	0.739500	0.698200
H591	H59	0.204400	0.720100	0.767200
C791	C79	0.187000	0.676300	0.616300
H601	H60	0.200800	0.606800	0.617200
N91	N9	0.842200	0.164300	0.918000
N101	N10	0.858900	0.270300	0.056300
N111	N11	0.754800	0.560600	0.023600
N121	N12	0.711100	0.516000	0.865200
N131	N13	0.283500	0.466100	0.730100
N141	N14	0.237200	0.389100	0.586600
N151	N15	0.159500	0.739800	0.530000
N161	N16	0.164000	0.836100	0.663900
O111	O11	0.803280	0.384900	0.165600
O121	O12	0.601970	0.555100	0.669300
O131	O13	0.660580	0.604300	0.612500
O141	O14	0.601100	0.515100	0.396600
O151	O15	0.629900	0.656300	0.334500
O161	O16	0.388600	0.576500	0.413300
O171	O17	0.335400	0.583700	0.490500
O181	O18	0.324820	0.705000	0.679300
O191	O19	0.381500	0.577800	0.738200
O201	O20	0.188700	0.545600	0.437000
F71	F7	0.512530	0.079900	0.656900
F81	F8	0.554920	0.935700	0.714300
F91	F9	0.565500	0.035300	0.597000
F101	F10	0.488480	0.075800	0.431000
F111	F11	0.431300	0.053600	0.494400
F121	F12	0.434580	0.945400	0.375800
C801	C80	0.166200	0.726800	0.416700
Zn51	Zn5	0.151510	0.047450	0.254280
Zn61	Zn6	0.844380	0.962570	0.328330
C811	C81	0.364800	0.329700	0.519500
H611	H61	0.382500	0.387600	0.560300
C821	C82	0.319700	0.237200	0.392300
H621	H62	0.299700	0.218100	0.325400
C831	C83	0.329600	0.169100	0.474400
H631	H63	0.318700	0.096700	0.475100
C841	C84	0.379400	0.194900	0.665800
H641	H64	0.404600	0.246900	0.704200
H651	H65	0.394400	0.122500	0.670200
C851	C85	0.342700	0.189300	0.713500
H661	H66	0.329600	0.263200	0.713100
H671	H67	0.358700	0.167300	0.785100
C861	C86	0.315500	0.004800	0.687500
H681	H68	0.340800	0.984100	0.661800
H691	H69	0.327900	0.993200	0.761600
C871	C87	0.271400	0.935300	0.637300
H701	H70	0.245400	0.961100	0.658800
H711	H71	0.278600	0.859000	0.660200
C881	C88	0.218800	0.001400	0.462800
H721	H72	0.201100	0.051200	0.486400
C891	C89	0.246100	0.908500	0.363400
H731	H73	0.250300	0.882300	0.304300
C901	C90	0.273700	0.878500	0.463300
H741	H74	0.299300	0.828300	0.485200
C911	C91	0.117300	0.889400	0.107600
C921	C92	0.083800	0.808200	0.034100
C931	C93	0.054500	0.741500	0.065000
H751	H75	0.053000	0.752600	0.130000
C941	C94	0.026000	0.655800	0.001500
C951	C95	0.029000	0.642600	0.904400
H761	H76	0.012500	0.584500	0.861900
C961	C96	0.056500	0.715100	0.870700
H771	H77	0.057300	0.706100	0.804900
C971	C97	0.082800	0.800800	0.932800
C981	C98	0.107600	0.887800	0.886000
C991	C99	0.996500	0.580700	0.044700
C1001	C100	0.962300	0.649400	0.083900
C1011	C101	0.955100	0.622100	0.175000
H781	H78	0.971900	0.563100	0.215700
C1021	C102	0.922400	0.685000	0.203700
H791	H79	0.917500	0.667500	0.264300
C1031	C103	0.897100	0.772300	0.144300
C1041	C104	0.903500	0.796500	0.054100
C1051	C105	0.937700	0.736700	0.024300
H801	H80	0.943400	0.756600	0.965100
C1061	C106	0.864600	0.833300	0.186800
C1071	C107	0.872400	0.885700	0.980400
C1081	C108	0.963100	0.501100	0.959900
C1091	C109	0.032700	0.506500	0.128200
C1101	C110	0.774800	0.039600	0.130500
H811	H81	0.791500	0.001300	0.095800
C1111	C111	0.752500	0.105700	0.249000
H821	H82	0.750900	0.118800	0.313600
C1121	C112	0.724900	0.154000	0.163300
H831	H83	0.701400	0.207800	0.156500
C1131	C113	0.715700	0.133900	0.972200
H841	H84	0.706100	0.211200	0.960500
H851	H85	0.740000	0.119900	0.941800
C1141	C114	0.671600	0.059800	0.921100
H861	H86	0.656900	0.075600	0.847700
H871	H87	0.647400	0.071300	0.952100
C1151	C115	0.654800	0.872100	0.883400
C1161	C116	0.619100	0.811200	0.920800
C1171	C117	0.646100	0.669600	0.062900
H881	H88	0.626300	0.615600	0.020000
C1181	C118	0.688700	0.760500	0.198200
H891	H89	0.704400	0.779900	0.267200
C1191	C119	0.687000	0.823700	0.116300
H901	H90	0.700800	0.893200	0.117200
N171	N17	0.342200	0.335700	0.418000
N181	N18	0.358900	0.229700	0.556300
N191	N19	0.254800	0.939400	0.523600
N201	N20	0.211100	0.984000	0.365200
N211	N21	0.783500	0.033900	0.230100
N221	N22	0.737200	0.110900	0.086600
N231	N23	0.659500	0.760200	0.030000
N241	N24	0.664000	0.663900	0.163900
O211	O21	0.303280	0.115100	0.665600
O221	O22	0.101970	0.944900	0.169300
O231	O23	0.160580	0.895700	0.112500
O241	O24	0.101100	0.984900	0.896600
O251	O25	0.129900	0.843700	0.834500
O261	O26	0.888600	0.923500	0.913300
O271	O27	0.835400	0.916300	0.990500
O281	O28	0.824820	0.795000	0.179300
O291	O29	0.881500	0.922200	0.238200
O301	O30	0.688700	0.954400	0.937000
F131	F13	0.012530	0.420100	0.156900
F141	F14	0.054920	0.564300	0.214300
F151	F15	0.065500	0.464700	0.097000
F161	F16	0.988480	0.424200	0.931000
F171	F17	0.931300	0.446400	0.994400
F181	F18	0.934580	0.554600	0.875800
C1201	C120	0.666200	0.773200	0.916700
Zn71	Zn7	0.651510	0.547450	0.254280
Zn81	Zn8	0.344380	0.462570	0.328330
C1211	C121	0.864800	0.829700	0.519500
H911	H91	0.882500	0.887600	0.560300
C1221	C122	0.819700	0.737200	0.392300
H921	H92	0.799700	0.718100	0.325400
C1231	C123	0.829600	0.669100	0.474400
H931	H93	0.818700	0.596700	0.475100
C1241	C124	0.879400	0.694900	0.665800
H941	H94	0.904600	0.746900	0.704200
H951	H95	0.894400	0.622500	0.670200
C1251	C125	0.842700	0.689300	0.713500
H961	H96	0.829600	0.763200	0.713100
H971	H97	0.858700	0.667300	0.785100
C1261	C126	0.815500	0.504800	0.687500
H981	H98	0.840800	0.484100	0.661800
H991	H99	0.827900	0.493200	0.761600
C1271	C127	0.771400	0.435300	0.637300
H1001	H100	0.745400	0.461100	0.658800
H1011	H101	0.778600	0.359000	0.660200
C1281	C128	0.718800	0.501400	0.462800
H1021	H102	0.701100	0.551200	0.486400
C1291	C129	0.746100	0.408500	0.363400
H1031	H103	0.750300	0.382300	0.304300
C1301	C130	0.773700	0.378500	0.463300
H1041	H104	0.799300	0.328300	0.485200
C1311	C131	0.617300	0.389400	0.107600
C1321	C132	0.583800	0.308200	0.034100
C1331	C133	0.554500	0.241500	0.065000
H1051	H105	0.553000	0.252600	0.130000
C1341	C134	0.526000	0.155800	0.001500
C1351	C135	0.529000	0.142600	0.904400
H1061	H106	0.512500	0.084500	0.861900
C1361	C136	0.556500	0.215100	0.870700
H1071	H107	0.557300	0.206100	0.804900
C1371	C137	0.582800	0.300800	0.932800
C1381	C138	0.607600	0.387800	0.886000
C1391	C139	0.496500	0.080700	0.044700
C1401	C140	0.462300	0.149400	0.083900
C1411	C141	0.455100	0.122100	0.175000
H1081	H108	0.471900	0.063100	0.215700
C1421	C142	0.422400	0.185000	0.203700
H1091	H109	0.417500	0.167500	0.264300
C1431	C143	0.397100	0.272300	0.144300
C1441	C144	0.403500	0.296500	0.054100
C1451	C145	0.437700	0.236700	0.024300
H1101	H110	0.443400	0.256600	0.965100
C1461	C146	0.364600	0.333300	0.186800
C1471	C147	0.372400	0.385700	0.980400
C1481	C148	0.463100	0.001100	0.959900
C1491	C149	0.532700	0.006500	0.128200
C1501	C150	0.274800	0.539600	0.130500
H1111	H111	0.291500	0.501300	0.095800
C1511	C151	0.252500	0.605700	0.249000
H1121	H112	0.250900	0.618800	0.313600
C1521	C152	0.224900	0.654000	0.163300
H1131	H113	0.201400	0.707800	0.156500
C1531	C153	0.215700	0.633900	0.972200
H1141	H114	0.206100	0.711200	0.960500
H1151	H115	0.240000	0.619900	0.941800
C1541	C154	0.171600	0.559800	0.921100
H1161	H116	0.156900	0.575600	0.847700
H1171	H117	0.147400	0.571300	0.952100
C1551	C155	0.154800	0.372100	0.883400
C1561	C156	0.119100	0.311200	0.920800
C1571	C157	0.146100	0.169600	0.062900
H1181	H118	0.126300	0.115600	0.020000
C1581	C158	0.188700	0.260500	0.198200
H1191	H119	0.204400	0.279900	0.267200
C1591	C159	0.187000	0.323700	0.116300
H1201	H120	0.200800	0.393200	0.117200
N251	N25	0.842200	0.835700	0.418000
N261	N26	0.858900	0.729700	0.556300
N271	N27	0.754800	0.439400	0.523600
N281	N28	0.711100	0.484000	0.365200
N291	N29	0.283500	0.533900	0.230100
N301	N30	0.237200	0.610900	0.086600
N311	N31	0.159500	0.260200	0.030000
N321	N32	0.164000	0.163900	0.163900
O311	O31	0.803280	0.615100	0.665600
O321	O32	0.601970	0.444900	0.169300
O331	O33	0.660580	0.395700	0.112500
O341	O34	0.601100	0.484900	0.896600
O351	O35	0.629900	0.343700	0.834500
O361	O36	0.388600	0.423500	0.913300
O371	O37	0.335400	0.416300	0.990500
O381	O38	0.324820	0.295000	0.179300
O391	O39	0.381500	0.422200	0.238200
O401	O40	0.188700	0.454400	0.937000
F191	F19	0.512530	0.920100	0.156900
F201	F20	0.554920	0.064300	0.214300
F211	F21	0.565500	0.964700	0.097000
F221	F22	0.488480	0.924200	0.931000
F231	F23	0.431300	0.946400	0.994400
F241	F24	0.434580	0.054600	0.875800
C1601	C160	0.166200	0.273200	0.916700
