data_QUGBUQ_freeONLY_PM
_symmetry_space_group_name_H-M	'P1'
_cell_length_a	8.772590
_cell_length_b	12.182000
_cell_length_c	21.900700
_cell_angle_alpha	92.175000
_cell_angle_beta	101.553000
_cell_angle_gamma	90.000000
_symmetry_Int_Tables_number 1

loop_
_symmetry_equiv_pos_as_xyz
'x,y,z'

loop_
_atom_site_label
_atom_site_type_symbol
_atom_site_fract_x
_atom_site_fract_y
_atom_site_fract_z
Ag11	Ag1	0.563750	0.431030	0.825940
Ag21	Ag2	0.737810	0.068970	0.174060
Ag31	Ag3	0.436250	0.568970	0.174060
Ag41	Ag4	0.262190	0.931030	0.825940
H11	H1	0.495000	0.147000	0.802600
H21	H2	0.184200	0.158300	0.905000
H31	H3	0.229600	0.430200	0.875200
H41	H4	0.179800	0.366200	0.928800
H51	H5	0.557000	0.328100	0.963400
H61	H6	0.260600	0.572300	0.962600
H71	H7	0.692400	0.353000	0.197400
H81	H8	0.279200	0.341700	0.095000
H91	H9	0.354400	0.069800	0.124800
H101	H10	0.251000	0.133800	0.071200
H111	H11	0.593600	0.171900	0.036600
H121	H12	0.298000	0.927700	0.037400
H131	H13	0.505000	0.853000	0.197400
H141	H14	0.815800	0.841700	0.095000
H151	H15	0.770400	0.569800	0.124800
H161	H16	0.820200	0.633800	0.071200
H171	H17	0.443000	0.671900	0.036600
H181	H18	0.739400	0.427700	0.037400
H191	H19	0.307600	0.647000	0.802600
H201	H20	0.720800	0.658300	0.905000
H211	H21	0.645600	0.930200	0.875200
H221	H22	0.749000	0.866200	0.928800
H231	H23	0.406400	0.828100	0.963400
H241	H24	0.702000	0.072300	0.962600
C11	C1	0.428450	0.173200	0.827900
C21	C2	0.260380	0.177500	0.883160
C31	C3	0.266600	0.381600	0.909000
C41	C4	0.390860	0.440300	0.955720
C51	C5	0.532020	0.397300	0.977640
C61	C6	0.357670	0.542000	0.977540
C71	C7	0.600550	0.326800	0.172100
C81	C8	0.377220	0.322500	0.116840
C91	C9	0.357600	0.118400	0.091000
C101	C10	0.435140	0.059700	0.044280
C111	C11	0.554380	0.102700	0.022360
C121	C12	0.380130	0.958000	0.022460
C131	C13	0.571550	0.826800	0.172100
C141	C14	0.739620	0.822500	0.116840
C151	C15	0.733400	0.618400	0.091000
C161	C16	0.609140	0.559700	0.044280
C171	C17	0.467980	0.602700	0.022360
C181	C18	0.642330	0.458000	0.022460
C191	C19	0.399450	0.673200	0.827900
C201	C20	0.622780	0.677500	0.883160
C211	C21	0.642400	0.881600	0.909000
C221	C22	0.564860	0.940300	0.955720
C231	C23	0.445620	0.897300	0.977640
C241	C24	0.619870	0.042000	0.977540
N11	N1	0.423790	0.277000	0.846380
N21	N2	0.326260	0.108100	0.849320
N31	N3	0.315810	0.277900	0.882420
N41	N4	0.577410	0.223000	0.153620
N51	N5	0.476940	0.391900	0.150680
N61	N6	0.433390	0.222100	0.117580
N71	N7	0.576210	0.723000	0.153620
N81	N8	0.673740	0.891900	0.150680
N91	N9	0.684190	0.722100	0.117580
N101	N10	0.422590	0.777000	0.846380
N111	N11	0.523060	0.608100	0.849320
N121	N12	0.566610	0.777900	0.882420
Ag51	Ag5	0.038770	0.963110	0.672160
Ag61	Ag6	0.961230	0.036890	0.327840
H251	H25	0.941300	0.730400	0.584200
H261	H26	0.660600	0.972200	0.593800
H271	H27	0.807200	0.646700	0.477200
H281	H28	0.662400	0.710700	0.442400
H291	H29	0.509700	0.659400	0.560800
H301	H30	0.656900	0.482200	0.427000
H311	H31	0.247200	0.172900	0.671800
H321	H32	0.869400	0.148700	0.738800
H331	H33	0.090800	0.435300	0.752800
H341	H34	0.058700	0.269600	0.415800
H351	H35	0.339400	0.027800	0.406200
H361	H36	0.192800	0.353300	0.522800
H371	H37	0.337600	0.289300	0.557600
H381	H38	0.490300	0.340600	0.439200
H391	H39	0.343100	0.517800	0.573000
H401	H40	0.752800	0.827100	0.328200
H411	H41	0.130600	0.851300	0.261200
H421	H42	0.909200	0.564700	0.247200
C251	C25	0.857030	0.777800	0.576460
C261	C26	0.702950	0.907700	0.580700
C271	C27	0.707850	0.677600	0.481500
C281	C28	0.601220	0.585100	0.492840
C291	C29	0.506340	0.595200	0.536280
C301	C30	0.594270	0.489900	0.456540
C311	C31	0.329800	0.379500	0.699400
C321	C32	0.192130	0.315400	0.710660
C331	C33	0.173750	0.205200	0.691900
C341	C34	0.951420	0.191200	0.731440
C351	C35	0.959850	0.299800	0.752100
C361	C36	0.082500	0.361300	0.740400
C371	C37	0.838700	0.348000	0.785400
C381	C38	0.142970	0.222200	0.423540
C391	C39	0.297050	0.092300	0.419300
C401	C40	0.292150	0.322400	0.518500
C411	C41	0.398780	0.414900	0.507160
C421	C42	0.493660	0.404800	0.463720
C431	C43	0.405730	0.510100	0.543460
C441	C44	0.670200	0.620500	0.300600
C451	C45	0.807870	0.684600	0.289340
C461	C46	0.826250	0.794800	0.308100
C471	C47	0.048580	0.808800	0.268560
C481	C48	0.040150	0.700200	0.247900
C491	C49	0.917500	0.638700	0.259600
C501	C50	0.161300	0.652000	0.214600
N131	N13	0.843200	0.868600	0.609600
N141	N14	0.631950	0.846300	0.532300
N151	N15	0.734970	0.763400	0.530940
N161	N16	0.054670	0.143100	0.701340
N171	N17	0.156800	0.131400	0.390400
N181	N18	0.368050	0.153700	0.467700
N191	N19	0.265030	0.236600	0.469060
N201	N20	0.945330	0.856900	0.298660
O11	O1	0.338940	0.478700	0.715080
O21	O2	0.431250	0.329700	0.676500
O31	O3	0.826600	0.447300	0.790000
O41	O4	0.753500	0.286500	0.804600
O51	O5	0.661060	0.521300	0.284920
O61	O6	0.568750	0.670300	0.323500
O71	O7	0.173400	0.552700	0.210000
O81	O8	0.246500	0.713500	0.195400
Ag71	Ag7	0.366610	0.536890	0.327840
Ag81	Ag8	0.633390	0.463110	0.672160
H431	H43	0.357100	0.769600	0.415800
H441	H44	0.066800	0.527800	0.406200
H451	H45	0.330000	0.853300	0.522800
H461	H46	0.220000	0.789300	0.557600
H471	H47	0.948900	0.840600	0.439200
H481	H48	0.229900	0.017800	0.573000
H491	H49	0.575400	0.327100	0.328200
H501	H50	0.130600	0.351300	0.261200
H511	H51	0.338000	0.064700	0.247200
H521	H52	0.642900	0.230400	0.584200
H531	H53	0.933200	0.472200	0.593800
H541	H54	0.670000	0.146700	0.477200
H551	H55	0.780000	0.210700	0.442400
H561	H56	0.051100	0.159400	0.560800
H571	H57	0.770100	0.982200	0.427000
H581	H58	0.424600	0.672900	0.671800
H591	H59	0.869400	0.648700	0.738800
H601	H60	0.662000	0.935300	0.752800
C511	C51	0.280570	0.722200	0.423540
C521	C52	0.122250	0.592300	0.419300
C531	C53	0.226350	0.822400	0.518500
C541	C54	0.108380	0.914900	0.507160
C551	C55	0.970060	0.904800	0.463720
C561	C56	0.137730	0.010100	0.543460
C571	C57	0.630400	0.120500	0.300600
C581	C58	0.481470	0.184600	0.289340
C591	C59	0.481850	0.294800	0.308100
C601	C60	0.219980	0.308800	0.268560
C611	C61	0.207750	0.200200	0.247900
C621	C62	0.342100	0.138700	0.259600
C631	C63	0.053300	0.152000	0.214600
C641	C64	0.719430	0.277800	0.576460
C651	C65	0.877750	0.407700	0.580700
C661	C66	0.773650	0.177600	0.481500
C671	C67	0.891620	0.085100	0.492840
C681	C68	0.029940	0.095200	0.536280
C691	C69	0.862270	0.989900	0.456540
C701	C70	0.369600	0.879500	0.699400
C711	C71	0.518530	0.815400	0.710660
C721	C72	0.518150	0.705200	0.691900
C731	C73	0.780020	0.691200	0.731440
C741	C74	0.792250	0.799800	0.752100
C751	C75	0.657900	0.861300	0.740400
C761	C76	0.946700	0.848000	0.785400
N211	N21	0.233600	0.631400	0.390400
N221	N22	0.099650	0.653700	0.467700
N231	N23	0.204030	0.736600	0.469060
N241	N24	0.353330	0.356900	0.298660
N251	N25	0.766400	0.368600	0.609600
N261	N26	0.900350	0.346300	0.532300
N271	N27	0.795970	0.263400	0.530940
N281	N28	0.646670	0.643100	0.701340
O91	O9	0.623860	0.021300	0.284920
O101	O10	0.754750	0.170300	0.323500
O111	O11	0.036600	0.052700	0.210000
O121	O12	0.948900	0.213500	0.195400
O131	O13	0.376140	0.978700	0.715080
O141	O14	0.245250	0.829700	0.676500
O151	O15	0.963400	0.947300	0.790000
O161	O16	0.051100	0.786500	0.804600
