data_QUGNOV_freeONLY_PM
_symmetry_space_group_name_H-M	'P1'
_cell_length_a	6.721000
_cell_length_b	10.156900
_cell_length_c	10.156900
_cell_angle_alpha	90.406900
_cell_angle_beta	93.071200
_cell_angle_gamma	86.928800
_symmetry_Int_Tables_number 1

loop_
_symmetry_equiv_pos_as_xyz
'x,y,z'

loop_
_atom_site_label
_atom_site_type_symbol
_atom_site_fract_x
_atom_site_fract_y
_atom_site_fract_z
Cd11	Cd1	0.750000	0.571750	0.571750
Cd21	Cd2	0.250000	0.428250	0.428250
H11	H1	0.874600	0.357100	0.206700
H21	H2	0.786700	0.738100	0.284100
H31	H3	0.779800	0.396300	0.988900
H41	H4	0.666700	0.779700	0.068700
H51	H5	0.625400	0.206700	0.357100
H61	H6	0.713300	0.284100	0.738100
H71	H7	0.720200	0.988900	0.396300
H81	H8	0.833300	0.068700	0.779700
H91	H9	0.125400	0.642900	0.793300
H101	H10	0.213300	0.261900	0.715900
H111	H11	0.220200	0.603700	0.011100
H121	H12	0.333300	0.220300	0.931300
H131	H13	0.374600	0.793300	0.642900
H141	H14	0.286700	0.715900	0.261900
H151	H15	0.279800	0.011100	0.603700
H161	H16	0.166700	0.931300	0.220300
C11	C1	0.713000	0.591000	0.002200
C21	C2	0.839400	0.442300	0.177500
C31	C3	0.783300	0.669700	0.222900
C41	C4	0.653700	0.619500	0.859700
C51	C5	0.777900	0.466400	0.048200
C61	C6	0.713000	0.695100	0.093900
C71	C7	0.787000	0.002200	0.591000
C81	C8	0.660600	0.177500	0.442300
C91	C9	0.716700	0.222900	0.669700
C101	C10	0.846300	0.859700	0.619500
C111	C11	0.722100	0.048200	0.466400
C121	C12	0.787000	0.093900	0.695100
C131	C13	0.287000	0.409000	0.997800
C141	C14	0.160600	0.557700	0.822500
C151	C15	0.216700	0.330300	0.777100
C161	C16	0.346300	0.380500	0.140300
C171	C17	0.222100	0.533600	0.951800
C181	C18	0.287000	0.304900	0.906100
C191	C19	0.213000	0.997800	0.409000
C201	C20	0.339400	0.822500	0.557700
C211	C21	0.283300	0.777100	0.330300
C221	C22	0.153700	0.140300	0.380500
C231	C23	0.277900	0.951800	0.533600
C241	C24	0.213000	0.906100	0.304900
N11	N1	0.847000	0.545700	0.260300
N21	N2	0.653000	0.260300	0.545700
N31	N3	0.153000	0.454300	0.739700
N41	N4	0.347000	0.739700	0.454300
O11	O1	0.559000	0.721000	0.826800
O21	O2	0.923400	0.523800	0.384600
O31	O3	0.713800	0.528490	0.781170
O41	O4	0.941000	0.826800	0.721000
O51	O5	0.576600	0.384600	0.523800
O61	O6	0.786200	0.781170	0.528490
O71	O7	0.441000	0.279000	0.173200
O81	O8	0.076600	0.476200	0.615400
O91	O9	0.286200	0.471510	0.218830
O101	O10	0.059000	0.173200	0.279000
O111	O11	0.423400	0.615400	0.476200
O121	O12	0.213800	0.218830	0.471510
