data_QUKQAQ_freeONLY_PM
_symmetry_space_group_name_H-M	'P1'
_cell_length_a	12.762300
_cell_length_b	8.383100
_cell_length_c	23.961000
_cell_angle_alpha	90.000000
_cell_angle_beta	104.924000
_cell_angle_gamma	90.000000
_symmetry_Int_Tables_number 1

loop_
_symmetry_equiv_pos_as_xyz
'x,y,z'

loop_
_atom_site_label
_atom_site_type_symbol
_atom_site_fract_x
_atom_site_fract_y
_atom_site_fract_z
La11	La1	0.906420	0.716990	0.125200
La21	La2	0.093600	0.009430	0.383150
C11	C1	0.974200	0.545200	0.265120
H11	H1	0.038200	0.482800	0.261800
H21	H2	0.952500	0.506800	0.299600
C21	C2	0.004500	0.720600	0.272790
C31	C3	0.782500	0.571200	0.226120
H31	H3	0.794200	0.675100	0.246400
H41	H4	0.761300	0.492500	0.252000
C41	C4	0.691700	0.587500	0.171230
C51	C5	0.040200	0.398600	0.088800
H51	H5	0.025400	0.440600	0.048900
H61	H6	0.066900	0.287700	0.088700
C61	C6	0.126600	0.500700	0.128910
C71	C7	0.847800	0.333500	0.063050
H71	H7	0.794800	0.285000	0.081700
H81	H8	0.875800	0.247700	0.042400
C81	C8	0.789600	0.457200	0.019050
C91	C9	0.875800	0.348600	0.196400
H91	H9	0.801400	0.326500	0.172700
H101	H10	0.889000	0.281500	0.231500
C101	C10	0.956800	0.305500	0.162260
H111	H11	0.031200	0.325500	0.186300
H121	H12	0.950500	0.190500	0.152700
N11	N1	0.884700	0.519400	0.213330
N21	N2	0.938600	0.399600	0.108140
N31	N3	0.742400	0.990900	0.113190
N41	N4	0.056400	0.900200	0.065460
O11	O1	0.988500	0.807000	0.228330
O21	O2	0.045400	0.766800	0.323340
O31	O3	0.716900	0.631900	0.125960
O41	O4	0.597800	0.559200	0.174230
O51	O5	0.094600	0.611000	0.156710
O61	O6	0.223200	0.470400	0.132290
O71	O7	0.818300	0.601100	0.028010
O81	O8	0.715900	0.407400	0.978060
O91	O9	0.760000	0.932700	0.067950
O101	O10	0.806900	0.958000	0.160810
O111	O11	0.663800	0.078900	0.111070
O121	O12	0.036000	0.952400	0.112330
O131	O13	0.007000	0.776300	0.044100
O141	O14	0.121500	0.968100	0.044100
O151	O15	0.077300	0.092500	0.278570
H131	H13	0.050900	0.013500	0.255300
O161	O16	0.990300	0.188800	0.443890
H141	H14	0.009000	0.283200	0.447600
H151	H15	0.927800	0.182900	0.425600
O171	O17	0.188500	0.749600	0.434560
H161	H16	0.202900	0.725600	0.410400
H171	H17	0.239300	0.780800	0.467400
O181	O18	0.151500	0.299300	0.378300
H181	H18	0.155600	0.346300	0.411800
O191	O19	0.966800	0.854800	0.434420
H191	H19	0.956600	0.755400	0.421000
H201	H20	0.996400	0.850900	0.472400
H211	H21	0.127000	0.135000	0.265800
H221	H22	0.181000	0.359000	0.358800
La31	La3	0.593580	0.216990	0.374800
La41	La4	0.406400	0.509430	0.116850
C111	C11	0.525800	0.045200	0.234880
H231	H23	0.461800	0.982800	0.238200
H241	H24	0.547500	0.006800	0.200400
C121	C12	0.495500	0.220600	0.227210
C131	C13	0.717500	0.071200	0.273880
H251	H25	0.705800	0.175100	0.253600
H261	H26	0.738700	0.992500	0.248000
C141	C14	0.808300	0.087500	0.328770
C151	C15	0.459800	0.898600	0.411200
H271	H27	0.474600	0.940600	0.451100
H281	H28	0.433100	0.787700	0.411300
C161	C16	0.373400	0.000700	0.371090
C171	C17	0.652200	0.833500	0.436950
H291	H29	0.705200	0.785000	0.418300
H301	H30	0.624200	0.747700	0.457600
C181	C18	0.710400	0.957200	0.480950
C191	C19	0.624200	0.848600	0.303600
H311	H31	0.698600	0.826500	0.327300
H321	H32	0.611000	0.781500	0.268500
C201	C20	0.543200	0.805500	0.337740
H331	H33	0.468800	0.825500	0.313700
H341	H34	0.549500	0.690500	0.347300
N51	N5	0.615300	0.019400	0.286670
N61	N6	0.561400	0.899600	0.391860
N71	N7	0.757600	0.490900	0.386810
N81	N8	0.443600	0.400200	0.434540
O201	O20	0.511500	0.307000	0.271670
O211	O21	0.454600	0.266800	0.176660
O221	O22	0.783100	0.131900	0.374040
O231	O23	0.902200	0.059200	0.325770
O241	O24	0.405400	0.111000	0.343290
O251	O25	0.276800	0.970400	0.367710
O261	O26	0.681700	0.101100	0.471990
O271	O27	0.784100	0.907400	0.521940
O281	O28	0.740000	0.432700	0.432050
O291	O29	0.693100	0.458000	0.339190
O301	O30	0.836200	0.578900	0.388930
O311	O31	0.464000	0.452400	0.387670
O321	O32	0.493000	0.276300	0.455900
O331	O33	0.378500	0.468100	0.455900
O341	O34	0.422700	0.592500	0.221430
H351	H35	0.449100	0.513500	0.244700
O351	O35	0.509700	0.688800	0.056110
H361	H36	0.491000	0.783200	0.052400
H371	H37	0.572200	0.682900	0.074400
O361	O36	0.311500	0.249600	0.065440
H381	H38	0.297100	0.225600	0.089600
H391	H39	0.260700	0.280800	0.032600
O371	O37	0.348500	0.799300	0.121700
H401	H40	0.344400	0.846300	0.088200
O381	O38	0.533200	0.354800	0.065580
H411	H41	0.543400	0.255400	0.079000
H421	H42	0.503600	0.350900	0.027600
H431	H43	0.373000	0.635000	0.234200
H441	H44	0.319000	0.859000	0.141200
La51	La5	0.093580	0.283010	0.874800
La61	La6	0.906400	0.990570	0.616850
C211	C21	0.025800	0.454800	0.734880
H451	H45	0.961800	0.517200	0.738200
H461	H46	0.047500	0.493200	0.700400
C221	C22	0.995500	0.279400	0.727210
C231	C23	0.217500	0.428800	0.773880
H471	H47	0.205800	0.324900	0.753600
H481	H48	0.238700	0.507500	0.748000
C241	C24	0.308300	0.412500	0.828770
C251	C25	0.959800	0.601400	0.911200
H491	H49	0.974600	0.559400	0.951100
H501	H50	0.933100	0.712300	0.911300
C261	C26	0.873400	0.499300	0.871090
C271	C27	0.152200	0.666500	0.936950
H511	H51	0.205200	0.715000	0.918300
H521	H52	0.124200	0.752300	0.957600
C281	C28	0.210400	0.542800	0.980950
C291	C29	0.124200	0.651400	0.803600
H531	H53	0.198600	0.673500	0.827300
H541	H54	0.111000	0.718500	0.768500
C301	C30	0.043200	0.694500	0.837740
H551	H55	0.968800	0.674500	0.813700
H561	H56	0.049500	0.809500	0.847300
N91	N9	0.115300	0.480600	0.786670
N101	N10	0.061400	0.600400	0.891860
N111	N11	0.257600	0.009100	0.886810
N121	N12	0.943600	0.099800	0.934540
O391	O39	0.011500	0.193000	0.771670
O401	O40	0.954600	0.233200	0.676660
O411	O41	0.283100	0.368100	0.874040
O421	O42	0.402200	0.440800	0.825770
O431	O43	0.905400	0.389000	0.843290
O441	O44	0.776800	0.529600	0.867710
O451	O45	0.181700	0.398900	0.971990
O461	O46	0.284100	0.592600	0.021940
O471	O47	0.240000	0.067300	0.932050
O481	O48	0.193100	0.042000	0.839190
O491	O49	0.336200	0.921100	0.888930
O501	O50	0.964000	0.047600	0.887670
O511	O51	0.993000	0.223700	0.955900
O521	O52	0.878500	0.031900	0.955900
O531	O53	0.922700	0.907500	0.721430
H571	H57	0.949100	0.986500	0.744700
O541	O54	0.009700	0.811200	0.556110
H581	H58	0.991000	0.716800	0.552400
H591	H59	0.072200	0.817100	0.574400
O551	O55	0.811500	0.250400	0.565440
H601	H60	0.797100	0.274400	0.589600
H611	H61	0.760700	0.219200	0.532600
O561	O56	0.848500	0.700700	0.621700
H621	H62	0.844400	0.653700	0.588200
O571	O57	0.033200	0.145200	0.565580
H631	H63	0.043400	0.244600	0.579000
H641	H64	0.003600	0.149100	0.527600
H651	H65	0.873000	0.865000	0.734200
H661	H66	0.819000	0.641000	0.641200
La71	La7	0.406420	0.783010	0.625200
La81	La8	0.593600	0.490570	0.883150
C311	C31	0.474200	0.954800	0.765120
H671	H67	0.538200	0.017200	0.761800
H681	H68	0.452500	0.993200	0.799600
C321	C32	0.504500	0.779400	0.772790
C331	C33	0.282500	0.928800	0.726120
H691	H69	0.294200	0.824900	0.746400
H701	H70	0.261300	0.007500	0.752000
C341	C34	0.191700	0.912500	0.671230
C351	C35	0.540200	0.101400	0.588800
H711	H71	0.525400	0.059400	0.548900
H721	H72	0.566900	0.212300	0.588700
C361	C36	0.626600	0.999300	0.628910
C371	C37	0.347800	0.166500	0.563050
H731	H73	0.294800	0.215000	0.581700
H741	H74	0.375800	0.252300	0.542400
C381	C38	0.289600	0.042800	0.519050
C391	C39	0.375800	0.151400	0.696400
H751	H75	0.301400	0.173500	0.672700
H761	H76	0.389000	0.218500	0.731500
C401	C40	0.456800	0.194500	0.662260
H771	H77	0.531200	0.174500	0.686300
H781	H78	0.450500	0.309500	0.652700
N131	N13	0.384700	0.980600	0.713330
N141	N14	0.438600	0.100400	0.608140
N151	N15	0.242400	0.509100	0.613190
N161	N16	0.556400	0.599800	0.565460
O581	O58	0.488500	0.693000	0.728330
O591	O59	0.545400	0.733200	0.823340
O601	O60	0.216900	0.868100	0.625960
O611	O61	0.097800	0.940800	0.674230
O621	O62	0.594600	0.889000	0.656710
O631	O63	0.723200	0.029600	0.632290
O641	O64	0.318300	0.898900	0.528010
O651	O65	0.215900	0.092600	0.478060
O661	O66	0.260000	0.567300	0.567950
O671	O67	0.306900	0.542000	0.660810
O681	O68	0.163800	0.421100	0.611070
O691	O69	0.536000	0.547600	0.612330
O701	O70	0.507000	0.723700	0.544100
O711	O71	0.621500	0.531900	0.544100
O721	O72	0.577300	0.407500	0.778570
H791	H79	0.550900	0.486500	0.755300
O731	O73	0.490300	0.311200	0.943890
H801	H80	0.509000	0.216800	0.947600
H811	H81	0.427800	0.317100	0.925600
O741	O74	0.688500	0.750400	0.934560
H821	H82	0.702900	0.774400	0.910400
H831	H83	0.739300	0.719200	0.967400
O751	O75	0.651500	0.200700	0.878300
H841	H84	0.655600	0.153700	0.911800
O761	O76	0.466800	0.645200	0.934420
H851	H85	0.456600	0.744600	0.921000
H861	H86	0.496400	0.649100	0.972400
H871	H87	0.627000	0.365000	0.765800
H881	H88	0.681000	0.141000	0.858800
