data_QUMFAG_freeONLY_PM
_symmetry_space_group_name_H-M	'P1'
_cell_length_a	10.400000
_cell_length_b	11.480000
_cell_length_c	12.407000
_cell_angle_alpha	112.591000
_cell_angle_beta	107.961000
_cell_angle_gamma	101.658000
_symmetry_Int_Tables_number 1

loop_
_symmetry_equiv_pos_as_xyz
'x,y,z'

loop_
_atom_site_label
_atom_site_type_symbol
_atom_site_fract_x
_atom_site_fract_y
_atom_site_fract_z
Cd11	Cd1	0.936370	0.301620	0.429880
C11	C1	0.928800	0.429000	0.281300
C21	C2	0.920900	0.492100	0.194700
C31	C3	0.793900	0.444200	0.087000
H11	H1	0.715700	0.371300	0.067000
C41	C4	0.781100	0.504600	0.006600
C51	C5	0.899100	0.610800	0.035100
C61	C6	0.026200	0.657800	0.142900
H21	H2	0.105400	0.729000	0.161700
C71	C7	0.038000	0.600200	0.224200
H31	H3	0.123700	0.634100	0.297800
C81	C8	0.535800	0.358100	0.869000
H41	H4	0.517200	0.375700	0.944600
H51	H5	0.553600	0.274000	0.841500
C91	C9	0.404700	0.346000	0.761000
C101	C10	0.275800	0.243300	0.709900
H61	H6	0.270000	0.178700	0.737800
C111	C11	0.155600	0.234500	0.618600
H71	H7	0.068900	0.163400	0.585400
C121	C12	0.282300	0.423300	0.623200
H81	H8	0.285700	0.486600	0.593800
C131	C13	0.409200	0.437800	0.716300
H91	H9	0.495600	0.508600	0.747600
C141	C14	0.985800	0.780500	0.980200
H101	H10	0.969000	0.791400	0.903900
H111	H11	0.081200	0.775100	0.010000
C151	C15	0.982700	0.902200	0.083800
C161	C16	0.849700	0.907800	0.079300
H121	H12	0.764100	0.837400	0.013800
C171	C17	0.845900	0.019400	0.173200
H131	H13	0.756000	0.023300	0.168500
C181	C18	0.094700	0.115400	0.273000
H141	H14	0.179500	0.186600	0.339000
C191	C19	0.106400	0.007800	0.182200
H151	H15	0.197200	0.006600	0.187500
C201	C20	0.710400	0.151100	0.449900
C211	C21	0.599500	0.073100	0.474700
C221	C22	0.629100	0.986300	0.518200
H161	H16	0.718900	0.977100	0.533700
C231	C23	0.471700	0.090100	0.459600
H171	H17	0.450900	0.153100	0.434300
N11	N1	0.157400	0.324700	0.574500
N21	N2	0.966600	0.123000	0.271400
O11	O1	0.826500	0.324400	0.245700
O21	O2	0.037700	0.486200	0.390000
O31	O3	0.659700	0.466700	0.899700
O41	O4	0.878800	0.657400	0.947000
O51	O5	0.825000	0.129300	0.464700
O61	O6	0.691100	0.240400	0.419800
Cd21	Cd2	0.063630	0.698380	0.570120
C241	C24	0.071200	0.571000	0.718700
C251	C25	0.079100	0.507900	0.805300
C261	C26	0.206100	0.555800	0.913000
H181	H18	0.284300	0.628700	0.933000
C271	C27	0.218900	0.495400	0.993400
C281	C28	0.100900	0.389200	0.964900
C291	C29	0.973800	0.342200	0.857100
H191	H19	0.894600	0.271000	0.838300
C301	C30	0.962000	0.399800	0.775800
H201	H20	0.876300	0.365900	0.702200
C311	C31	0.464200	0.641900	0.131000
H211	H21	0.482800	0.624300	0.055400
H221	H22	0.446400	0.726000	0.158500
C321	C32	0.595300	0.654000	0.239000
C331	C33	0.724200	0.756700	0.290100
H231	H23	0.730000	0.821300	0.262200
C341	C34	0.844400	0.765500	0.381400
H241	H24	0.931100	0.836600	0.414600
C351	C35	0.717700	0.576700	0.376800
H251	H25	0.714300	0.513400	0.406200
C361	C36	0.590800	0.562200	0.283700
H261	H26	0.504400	0.491400	0.252400
C371	C37	0.014200	0.219500	0.019800
H271	H27	0.031000	0.208600	0.096100
H281	H28	0.918800	0.224900	0.990000
C381	C38	0.017300	0.097800	0.916200
C391	C39	0.150300	0.092200	0.920700
H291	H29	0.235900	0.162600	0.986200
C401	C40	0.154100	0.980600	0.826800
H301	H30	0.244000	0.976700	0.831500
C411	C41	0.905300	0.884600	0.727000
H311	H31	0.820500	0.813400	0.661000
C421	C42	0.893600	0.992200	0.817800
H321	H32	0.802800	0.993400	0.812500
C431	C43	0.289600	0.848900	0.550100
C441	C44	0.400500	0.926900	0.525300
C451	C45	0.370900	0.013700	0.481800
H331	H33	0.281100	0.022900	0.466300
C461	C46	0.528300	0.909900	0.540400
H341	H34	0.549100	0.846900	0.565700
N31	N3	0.842600	0.675300	0.425500
N41	N4	0.033400	0.877000	0.728600
O71	O7	0.173500	0.675600	0.754300
O81	O8	0.962300	0.513800	0.610000
O91	O9	0.340300	0.533300	0.100300
O101	O10	0.121200	0.342600	0.053000
O111	O11	0.175000	0.870700	0.535300
O121	O12	0.308900	0.759600	0.580200
