data_QUNVIG_freeONLY_PM
_symmetry_space_group_name_H-M	'P1'
_cell_length_a	24.506300
_cell_length_b	24.506300
_cell_length_c	24.506300
_cell_angle_alpha	90.000000
_cell_angle_beta	90.000000
_cell_angle_gamma	90.000000
_symmetry_Int_Tables_number 1

loop_
_symmetry_equiv_pos_as_xyz
'x,y,z'

loop_
_atom_site_label
_atom_site_type_symbol
_atom_site_fract_x
_atom_site_fract_y
_atom_site_fract_z
Co11	Co1	0.896110	0.029060	0.066810
C11	C1	0.813400	0.111500	0.105800
H11	H1	0.790600	0.091000	0.082100
C21	C2	0.790500	0.155100	0.132600
H21	H2	0.752700	0.163100	0.129100
C31	C3	0.824900	0.187700	0.165500
C41	C4	0.878400	0.171900	0.170900
H31	H3	0.902500	0.192300	0.193300
C51	C5	0.897100	0.126100	0.143800
H41	H4	0.934100	0.115600	0.148600
C61	C6	0.793500	0.961300	0.042000
H51	H5	0.807100	0.962300	0.005800
C71	C7	0.745400	0.934700	0.051500
H61	H6	0.726200	0.918400	0.022100
C81	C8	0.724800	0.931600	0.103200
C91	C9	0.753800	0.956900	0.144300
H71	H7	0.740600	0.956600	0.180800
C101	C10	0.802100	0.982500	0.131800
H81	H8	0.822100	0.998600	0.160900
C111	C11	0.802300	0.236300	0.192600
C121	C12	0.674900	0.900800	0.115700
N11	N1	0.822800	0.986200	0.081700
N21	N2	0.865200	0.095800	0.110800
F11	F1	0.865400	0.063700	0.997800
F21	F2	0.932800	0.961700	0.031600
C131	C13	0.756200	0.261400	0.172000
C141	C14	0.644300	0.915000	0.160500
H91	H9	0.738400	0.247100	0.140700
H101	H10	0.654200	0.945900	0.181700
N31	N3	0.828000	0.256200	0.238600
N41	N4	0.660500	0.855700	0.085000
Co21	Co2	0.603890	0.970940	0.566810
C151	C15	0.686600	0.888500	0.605800
H111	H11	0.709400	0.909000	0.582100
C161	C16	0.709500	0.844900	0.632600
H121	H12	0.747300	0.836900	0.629100
C171	C17	0.675100	0.812300	0.665500
C181	C18	0.621600	0.828100	0.670900
H131	H13	0.597500	0.807700	0.693300
C191	C19	0.602900	0.873900	0.643800
H141	H14	0.565900	0.884400	0.648600
C201	C20	0.706500	0.038700	0.542000
H151	H15	0.692900	0.037700	0.505800
C211	C21	0.754600	0.065300	0.551500
H161	H16	0.773800	0.081600	0.522100
C221	C22	0.775200	0.068400	0.603200
C231	C23	0.746200	0.043100	0.644300
H171	H17	0.759400	0.043400	0.680800
C241	C24	0.697900	0.017500	0.631800
H181	H18	0.677900	0.001400	0.660900
C251	C25	0.697700	0.763700	0.692600
C261	C26	0.825100	0.099200	0.615700
N51	N5	0.677200	0.013800	0.581700
N61	N6	0.634800	0.904200	0.610800
F31	F3	0.634600	0.936300	0.497800
F41	F4	0.567200	0.038300	0.531600
C271	C27	0.743800	0.738600	0.672000
C281	C28	0.855700	0.085000	0.660500
H191	H19	0.761600	0.752900	0.640700
H201	H20	0.845800	0.054100	0.681700
N71	N7	0.672000	0.743800	0.738600
N81	N8	0.839500	0.144300	0.585000
Co31	Co3	0.103890	0.529060	0.433190
C291	C29	0.186600	0.611500	0.394200
H211	H21	0.209400	0.591000	0.417900
C301	C30	0.209500	0.655100	0.367400
H221	H22	0.247300	0.663100	0.370900
C311	C31	0.175100	0.687700	0.334500
C321	C32	0.121600	0.671900	0.329100
H231	H23	0.097500	0.692300	0.306700
C331	C33	0.102900	0.626100	0.356200
H241	H24	0.065900	0.615600	0.351400
C341	C34	0.206500	0.461300	0.458000
H251	H25	0.192900	0.462300	0.494200
C351	C35	0.254600	0.434700	0.448500
H261	H26	0.273800	0.418400	0.477900
C361	C36	0.275200	0.431600	0.396800
C371	C37	0.246200	0.456900	0.355700
H271	H27	0.259400	0.456600	0.319200
C381	C38	0.197900	0.482500	0.368200
H281	H28	0.177900	0.498600	0.339100
C391	C39	0.197700	0.736300	0.307400
C401	C40	0.325100	0.400800	0.384300
N91	N9	0.177200	0.486200	0.418300
N101	N10	0.134800	0.595800	0.389200
F51	F5	0.134600	0.563700	0.502200
F61	F6	0.067200	0.461700	0.468400
C411	C41	0.243800	0.761400	0.328000
C421	C42	0.355700	0.415000	0.339500
H291	H29	0.261600	0.747100	0.359300
H301	H30	0.345800	0.445900	0.318300
N111	N11	0.172000	0.756200	0.261400
N121	N12	0.339500	0.355700	0.415000
Co41	Co4	0.396110	0.470940	0.933190
C431	C43	0.313400	0.388500	0.894200
H311	H31	0.290600	0.409000	0.917900
C441	C44	0.290500	0.344900	0.867400
H321	H32	0.252700	0.336900	0.870900
C451	C45	0.324900	0.312300	0.834500
C461	C46	0.378400	0.328100	0.829100
H331	H33	0.402500	0.307700	0.806700
C471	C47	0.397100	0.373900	0.856200
H341	H34	0.434100	0.384400	0.851400
C481	C48	0.293500	0.538700	0.958000
H351	H35	0.307100	0.537700	0.994200
C491	C49	0.245400	0.565300	0.948500
H361	H36	0.226200	0.581600	0.977900
C501	C50	0.224800	0.568400	0.896800
C511	C51	0.253800	0.543100	0.855700
H371	H37	0.240600	0.543400	0.819200
C521	C52	0.302100	0.517500	0.868200
H381	H38	0.322100	0.501400	0.839100
C531	C53	0.302300	0.263700	0.807400
C541	C54	0.174900	0.599200	0.884300
N131	N13	0.322800	0.513800	0.918300
N141	N14	0.365200	0.404200	0.889200
F71	F7	0.365400	0.436300	0.002200
F81	F8	0.432800	0.538300	0.968400
C551	C55	0.256200	0.238600	0.828000
C561	C56	0.144300	0.585000	0.839500
H391	H39	0.238400	0.252900	0.859300
H401	H40	0.154200	0.554100	0.818300
N151	N15	0.328000	0.243800	0.761400
N161	N16	0.160500	0.644300	0.915000
Co51	Co5	0.066810	0.896110	0.029060
C571	C57	0.105800	0.813400	0.111500
H411	H41	0.082100	0.790600	0.091000
C581	C58	0.132600	0.790500	0.155100
H421	H42	0.129100	0.752700	0.163100
C591	C59	0.165500	0.824900	0.187700
C601	C60	0.170900	0.878400	0.171900
H431	H43	0.193300	0.902500	0.192300
C611	C61	0.143800	0.897100	0.126100
H441	H44	0.148600	0.934100	0.115600
C621	C62	0.042000	0.793500	0.961300
H451	H45	0.005800	0.807100	0.962300
C631	C63	0.051500	0.745400	0.934700
H461	H46	0.022100	0.726200	0.918400
C641	C64	0.103200	0.724800	0.931600
C651	C65	0.144300	0.753800	0.956900
H471	H47	0.180800	0.740600	0.956600
C661	C66	0.131800	0.802100	0.982500
H481	H48	0.160900	0.822100	0.998600
C671	C67	0.192600	0.802300	0.236300
C681	C68	0.115700	0.674900	0.900800
N171	N17	0.081700	0.822800	0.986200
N181	N18	0.110800	0.865200	0.095800
F91	F9	0.997800	0.865400	0.063700
F101	F10	0.031600	0.932800	0.961700
H491	H49	0.140700	0.738400	0.247100
H501	H50	0.181700	0.654200	0.945900
N191	N19	0.238600	0.828000	0.256200
N201	N20	0.085000	0.660500	0.855700
Co61	Co6	0.566810	0.603890	0.970940
C691	C69	0.605800	0.686600	0.888500
H511	H51	0.582100	0.709400	0.909000
C701	C70	0.632600	0.709500	0.844900
H521	H52	0.629100	0.747300	0.836900
C711	C71	0.665500	0.675100	0.812300
C721	C72	0.670900	0.621600	0.828100
H531	H53	0.693300	0.597500	0.807700
C731	C73	0.643800	0.602900	0.873900
H541	H54	0.648600	0.565900	0.884400
C741	C74	0.542000	0.706500	0.038700
H551	H55	0.505800	0.692900	0.037700
C751	C75	0.551500	0.754600	0.065300
H561	H56	0.522100	0.773800	0.081600
C761	C76	0.603200	0.775200	0.068400
C771	C77	0.644300	0.746200	0.043100
H571	H57	0.680800	0.759400	0.043400
C781	C78	0.631800	0.697900	0.017500
H581	H58	0.660900	0.677900	0.001400
C791	C79	0.692600	0.697700	0.763700
C801	C80	0.615700	0.825100	0.099200
N211	N21	0.581700	0.677200	0.013800
N221	N22	0.610800	0.634800	0.904200
F111	F11	0.497800	0.634600	0.936300
F121	F12	0.531600	0.567200	0.038300
H591	H59	0.640700	0.761600	0.752900
H601	H60	0.681700	0.845800	0.054100
N231	N23	0.738600	0.672000	0.743800
N241	N24	0.585000	0.839500	0.144300
Co71	Co7	0.433190	0.103890	0.529060
C811	C81	0.394200	0.186600	0.611500
H611	H61	0.417900	0.209400	0.591000
C821	C82	0.367400	0.209500	0.655100
H621	H62	0.370900	0.247300	0.663100
C831	C83	0.334500	0.175100	0.687700
C841	C84	0.329100	0.121600	0.671900
H631	H63	0.306700	0.097500	0.692300
C851	C85	0.356200	0.102900	0.626100
H641	H64	0.351400	0.065900	0.615600
C861	C86	0.458000	0.206500	0.461300
H651	H65	0.494200	0.192900	0.462300
C871	C87	0.448500	0.254600	0.434700
H661	H66	0.477900	0.273800	0.418400
C881	C88	0.396800	0.275200	0.431600
C891	C89	0.355700	0.246200	0.456900
H671	H67	0.319200	0.259400	0.456600
C901	C90	0.368200	0.197900	0.482500
H681	H68	0.339100	0.177900	0.498600
C911	C91	0.307400	0.197700	0.736300
C921	C92	0.384300	0.325100	0.400800
N251	N25	0.418300	0.177200	0.486200
N261	N26	0.389200	0.134800	0.595800
F131	F13	0.502200	0.134600	0.563700
F141	F14	0.468400	0.067200	0.461700
H691	H69	0.359300	0.261600	0.747100
H701	H70	0.318300	0.345800	0.445900
N271	N27	0.261400	0.172000	0.756200
N281	N28	0.415000	0.339500	0.355700
Co81	Co8	0.933190	0.396110	0.470940
C931	C93	0.894200	0.313400	0.388500
H711	H71	0.917900	0.290600	0.409000
C941	C94	0.867400	0.290500	0.344900
H721	H72	0.870900	0.252700	0.336900
C951	C95	0.834500	0.324900	0.312300
C961	C96	0.829100	0.378400	0.328100
H731	H73	0.806700	0.402500	0.307700
C971	C97	0.856200	0.397100	0.373900
H741	H74	0.851400	0.434100	0.384400
C981	C98	0.958000	0.293500	0.538700
H751	H75	0.994200	0.307100	0.537700
C991	C99	0.948500	0.245400	0.565300
H761	H76	0.977900	0.226200	0.581600
C1001	C100	0.896800	0.224800	0.568400
C1011	C101	0.855700	0.253800	0.543100
H771	H77	0.819200	0.240600	0.543400
C1021	C102	0.868200	0.302100	0.517500
H781	H78	0.839100	0.322100	0.501400
C1031	C103	0.807400	0.302300	0.263700
C1041	C104	0.884300	0.174900	0.599200
N291	N29	0.918300	0.322800	0.513800
N301	N30	0.889200	0.365200	0.404200
F151	F15	0.002200	0.365400	0.436300
F161	F16	0.968400	0.432800	0.538300
H791	H79	0.859300	0.238400	0.252900
H801	H80	0.818300	0.154200	0.554100
N311	N31	0.761400	0.328000	0.243800
N321	N32	0.915000	0.160500	0.644300
Co91	Co9	0.029060	0.066810	0.896110
C1051	C105	0.111500	0.105800	0.813400
H811	H81	0.091000	0.082100	0.790600
C1061	C106	0.155100	0.132600	0.790500
H821	H82	0.163100	0.129100	0.752700
C1071	C107	0.187700	0.165500	0.824900
C1081	C108	0.171900	0.170900	0.878400
H831	H83	0.192300	0.193300	0.902500
C1091	C109	0.126100	0.143800	0.897100
H841	H84	0.115600	0.148600	0.934100
C1101	C110	0.961300	0.042000	0.793500
H851	H85	0.962300	0.005800	0.807100
C1111	C111	0.934700	0.051500	0.745400
H861	H86	0.918400	0.022100	0.726200
C1121	C112	0.931600	0.103200	0.724800
C1131	C113	0.956900	0.144300	0.753800
H871	H87	0.956600	0.180800	0.740600
C1141	C114	0.982500	0.131800	0.802100
H881	H88	0.998600	0.160900	0.822100
C1151	C115	0.236300	0.192600	0.802300
C1161	C116	0.900800	0.115700	0.674900
N331	N33	0.986200	0.081700	0.822800
N341	N34	0.095800	0.110800	0.865200
F171	F17	0.063700	0.997800	0.865400
F181	F18	0.961700	0.031600	0.932800
H891	H89	0.247100	0.140700	0.738400
H901	H90	0.945900	0.181700	0.654200
Co101	Co10	0.970940	0.566810	0.603890
C1171	C117	0.888500	0.605800	0.686600
H911	H91	0.909000	0.582100	0.709400
C1181	C118	0.844900	0.632600	0.709500
H921	H92	0.836900	0.629100	0.747300
C1191	C119	0.812300	0.665500	0.675100
C1201	C120	0.828100	0.670900	0.621600
H931	H93	0.807700	0.693300	0.597500
C1211	C121	0.873900	0.643800	0.602900
H941	H94	0.884400	0.648600	0.565900
C1221	C122	0.038700	0.542000	0.706500
H951	H95	0.037700	0.505800	0.692900
C1231	C123	0.065300	0.551500	0.754600
H961	H96	0.081600	0.522100	0.773800
C1241	C124	0.068400	0.603200	0.775200
C1251	C125	0.043100	0.644300	0.746200
H971	H97	0.043400	0.680800	0.759400
C1261	C126	0.017500	0.631800	0.697900
H981	H98	0.001400	0.660900	0.677900
C1271	C127	0.763700	0.692600	0.697700
C1281	C128	0.099200	0.615700	0.825100
N351	N35	0.013800	0.581700	0.677200
N361	N36	0.904200	0.610800	0.634800
F191	F19	0.936300	0.497800	0.634600
F201	F20	0.038300	0.531600	0.567200
H991	H99	0.752900	0.640700	0.761600
H1001	H100	0.054100	0.681700	0.845800
Co111	Co11	0.529060	0.433190	0.103890
C1291	C129	0.611500	0.394200	0.186600
H1011	H101	0.591000	0.417900	0.209400
C1301	C130	0.655100	0.367400	0.209500
H1021	H102	0.663100	0.370900	0.247300
C1311	C131	0.687700	0.334500	0.175100
C1321	C132	0.671900	0.329100	0.121600
H1031	H103	0.692300	0.306700	0.097500
C1331	C133	0.626100	0.356200	0.102900
H1041	H104	0.615600	0.351400	0.065900
C1341	C134	0.461300	0.458000	0.206500
H1051	H105	0.462300	0.494200	0.192900
C1351	C135	0.434700	0.448500	0.254600
H1061	H106	0.418400	0.477900	0.273800
C1361	C136	0.431600	0.396800	0.275200
C1371	C137	0.456900	0.355700	0.246200
H1071	H107	0.456600	0.319200	0.259400
C1381	C138	0.482500	0.368200	0.197900
H1081	H108	0.498600	0.339100	0.177900
C1391	C139	0.736300	0.307400	0.197700
C1401	C140	0.400800	0.384300	0.325100
N371	N37	0.486200	0.418300	0.177200
N381	N38	0.595800	0.389200	0.134800
F211	F21	0.563700	0.502200	0.134600
F221	F22	0.461700	0.468400	0.067200
H1091	H109	0.747100	0.359300	0.261600
H1101	H110	0.445900	0.318300	0.345800
Co121	Co12	0.470940	0.933190	0.396110
C1411	C141	0.388500	0.894200	0.313400
H1111	H111	0.409000	0.917900	0.290600
C1421	C142	0.344900	0.867400	0.290500
H1121	H112	0.336900	0.870900	0.252700
C1431	C143	0.312300	0.834500	0.324900
C1441	C144	0.328100	0.829100	0.378400
H1131	H113	0.307700	0.806700	0.402500
C1451	C145	0.373900	0.856200	0.397100
H1141	H114	0.384400	0.851400	0.434100
C1461	C146	0.538700	0.958000	0.293500
H1151	H115	0.537700	0.994200	0.307100
C1471	C147	0.565300	0.948500	0.245400
H1161	H116	0.581600	0.977900	0.226200
C1481	C148	0.568400	0.896800	0.224800
C1491	C149	0.543100	0.855700	0.253800
H1171	H117	0.543400	0.819200	0.240600
C1501	C150	0.517500	0.868200	0.302100
H1181	H118	0.501400	0.839100	0.322100
C1511	C151	0.263700	0.807400	0.302300
C1521	C152	0.599200	0.884300	0.174900
N391	N39	0.513800	0.918300	0.322800
N401	N40	0.404200	0.889200	0.365200
F231	F23	0.436300	0.002200	0.365400
F241	F24	0.538300	0.968400	0.432800
H1191	H119	0.252900	0.859300	0.238400
H1201	H120	0.554100	0.818300	0.154200
Co131	Co13	0.103890	0.970940	0.933190
C1531	C153	0.186600	0.888500	0.894200
H1211	H121	0.209400	0.909000	0.917900
C1541	C154	0.209500	0.844900	0.867400
H1221	H122	0.247300	0.836900	0.870900
C1551	C155	0.175100	0.812300	0.834500
C1561	C156	0.121600	0.828100	0.829100
H1231	H123	0.097500	0.807700	0.806700
C1571	C157	0.102900	0.873900	0.856200
H1241	H124	0.065900	0.884400	0.851400
C1581	C158	0.206500	0.038700	0.958000
H1251	H125	0.192900	0.037700	0.994200
C1591	C159	0.254600	0.065300	0.948500
H1261	H126	0.273800	0.081600	0.977900
C1601	C160	0.275200	0.068400	0.896800
C1611	C161	0.246200	0.043100	0.855700
H1271	H127	0.259400	0.043400	0.819200
C1621	C162	0.197900	0.017500	0.868200
H1281	H128	0.177900	0.001400	0.839100
C1631	C163	0.197700	0.763700	0.807400
C1641	C164	0.325100	0.099200	0.884300
N411	N41	0.177200	0.013800	0.918300
N421	N42	0.134800	0.904200	0.889200
F251	F25	0.134600	0.936300	0.002200
F261	F26	0.067200	0.038300	0.968400
C1651	C165	0.243800	0.738600	0.828000
C1661	C166	0.355700	0.085000	0.839500
H1291	H129	0.261600	0.752900	0.859300
H1301	H130	0.345800	0.054100	0.818300
N431	N43	0.172000	0.743800	0.761400
N441	N44	0.339500	0.144300	0.915000
Co141	Co14	0.396110	0.029060	0.433190
C1671	C167	0.313400	0.111500	0.394200
H1311	H131	0.290600	0.091000	0.417900
C1681	C168	0.290500	0.155100	0.367400
H1321	H132	0.252700	0.163100	0.370900
C1691	C169	0.324900	0.187700	0.334500
C1701	C170	0.378400	0.171900	0.329100
H1331	H133	0.402500	0.192300	0.306700
C1711	C171	0.397100	0.126100	0.356200
H1341	H134	0.434100	0.115600	0.351400
C1721	C172	0.293500	0.961300	0.458000
H1351	H135	0.307100	0.962300	0.494200
C1731	C173	0.245400	0.934700	0.448500
H1361	H136	0.226200	0.918400	0.477900
C1741	C174	0.224800	0.931600	0.396800
C1751	C175	0.253800	0.956900	0.355700
H1371	H137	0.240600	0.956600	0.319200
C1761	C176	0.302100	0.982500	0.368200
H1381	H138	0.322100	0.998600	0.339100
C1771	C177	0.302300	0.236300	0.307400
C1781	C178	0.174900	0.900800	0.384300
N451	N45	0.322800	0.986200	0.418300
N461	N46	0.365200	0.095800	0.389200
F271	F27	0.365400	0.063700	0.502200
F281	F28	0.432800	0.961700	0.468400
C1791	C179	0.256200	0.261400	0.328000
C1801	C180	0.144300	0.915000	0.339500
H1391	H139	0.238400	0.247100	0.359300
H1401	H140	0.154200	0.945900	0.318300
N471	N47	0.328000	0.256200	0.261400
N481	N48	0.160500	0.855700	0.415000
Co151	Co15	0.896110	0.470940	0.566810
C1811	C181	0.813400	0.388500	0.605800
H1411	H141	0.790600	0.409000	0.582100
C1821	C182	0.790500	0.344900	0.632600
H1421	H142	0.752700	0.336900	0.629100
C1831	C183	0.824900	0.312300	0.665500
C1841	C184	0.878400	0.328100	0.670900
H1431	H143	0.902500	0.307700	0.693300
C1851	C185	0.897100	0.373900	0.643800
H1441	H144	0.934100	0.384400	0.648600
C1861	C186	0.793500	0.538700	0.542000
H1451	H145	0.807100	0.537700	0.505800
C1871	C187	0.745400	0.565300	0.551500
H1461	H146	0.726200	0.581600	0.522100
C1881	C188	0.724800	0.568400	0.603200
C1891	C189	0.753800	0.543100	0.644300
H1471	H147	0.740600	0.543400	0.680800
C1901	C190	0.802100	0.517500	0.631800
H1481	H148	0.822100	0.501400	0.660900
C1911	C191	0.802300	0.263700	0.692600
C1921	C192	0.674900	0.599200	0.615700
N491	N49	0.822800	0.513800	0.581700
N501	N50	0.865200	0.404200	0.610800
F291	F29	0.865400	0.436300	0.497800
F301	F30	0.932800	0.538300	0.531600
C1931	C193	0.756200	0.238600	0.672000
C1941	C194	0.644300	0.585000	0.660500
H1491	H149	0.738400	0.252900	0.640700
H1501	H150	0.654200	0.554100	0.681700
N511	N51	0.828000	0.243800	0.738600
N521	N52	0.660500	0.644300	0.585000
Co161	Co16	0.603890	0.529060	0.066810
C1951	C195	0.686600	0.611500	0.105800
H1511	H151	0.709400	0.591000	0.082100
C1961	C196	0.709500	0.655100	0.132600
H1521	H152	0.747300	0.663100	0.129100
C1971	C197	0.675100	0.687700	0.165500
C1981	C198	0.621600	0.671900	0.170900
H1531	H153	0.597500	0.692300	0.193300
C1991	C199	0.602900	0.626100	0.143800
H1541	H154	0.565900	0.615600	0.148600
C2001	C200	0.706500	0.461300	0.042000
H1551	H155	0.692900	0.462300	0.005800
C2011	C201	0.754600	0.434700	0.051500
H1561	H156	0.773800	0.418400	0.022100
C2021	C202	0.775200	0.431600	0.103200
C2031	C203	0.746200	0.456900	0.144300
H1571	H157	0.759400	0.456600	0.180800
C2041	C204	0.697900	0.482500	0.131800
H1581	H158	0.677900	0.498600	0.160900
C2051	C205	0.697700	0.736300	0.192600
C2061	C206	0.825100	0.400800	0.115700
N531	N53	0.677200	0.486200	0.081700
N541	N54	0.634800	0.595800	0.110800
F311	F31	0.634600	0.563700	0.997800
F321	F32	0.567200	0.461700	0.031600
C2071	C207	0.743800	0.761400	0.172000
C2081	C208	0.855700	0.415000	0.160500
H1591	H159	0.761600	0.747100	0.140700
H1601	H160	0.845800	0.445900	0.181700
N551	N55	0.672000	0.756200	0.238600
N561	N56	0.839500	0.355700	0.085000
Co171	Co17	0.933190	0.103890	0.970940
C2091	C209	0.894200	0.186600	0.888500
H1611	H161	0.917900	0.209400	0.909000
C2101	C210	0.867400	0.209500	0.844900
H1621	H162	0.870900	0.247300	0.836900
C2111	C211	0.834500	0.175100	0.812300
C2121	C212	0.829100	0.121600	0.828100
H1631	H163	0.806700	0.097500	0.807700
C2131	C213	0.856200	0.102900	0.873900
H1641	H164	0.851400	0.065900	0.884400
C2141	C214	0.958000	0.206500	0.038700
H1651	H165	0.994200	0.192900	0.037700
C2151	C215	0.948500	0.254600	0.065300
H1661	H166	0.977900	0.273800	0.081600
C2161	C216	0.896800	0.275200	0.068400
C2171	C217	0.855700	0.246200	0.043100
H1671	H167	0.819200	0.259400	0.043400
C2181	C218	0.868200	0.197900	0.017500
H1681	H168	0.839100	0.177900	0.001400
C2191	C219	0.807400	0.197700	0.763700
C2201	C220	0.884300	0.325100	0.099200
N571	N57	0.918300	0.177200	0.013800
N581	N58	0.889200	0.134800	0.904200
F331	F33	0.002200	0.134600	0.936300
F341	F34	0.968400	0.067200	0.038300
H1691	H169	0.859300	0.261600	0.752900
H1701	H170	0.818300	0.345800	0.054100
N591	N59	0.761400	0.172000	0.743800
N601	N60	0.915000	0.339500	0.144300
Co181	Co18	0.433190	0.396110	0.029060
C2211	C221	0.394200	0.313400	0.111500
H1711	H171	0.417900	0.290600	0.091000
C2221	C222	0.367400	0.290500	0.155100
H1721	H172	0.370900	0.252700	0.163100
C2231	C223	0.334500	0.324900	0.187700
C2241	C224	0.329100	0.378400	0.171900
H1731	H173	0.306700	0.402500	0.192300
C2251	C225	0.356200	0.397100	0.126100
H1741	H174	0.351400	0.434100	0.115600
C2261	C226	0.458000	0.293500	0.961300
H1751	H175	0.494200	0.307100	0.962300
C2271	C227	0.448500	0.245400	0.934700
H1761	H176	0.477900	0.226200	0.918400
C2281	C228	0.396800	0.224800	0.931600
C2291	C229	0.355700	0.253800	0.956900
H1771	H177	0.319200	0.240600	0.956600
C2301	C230	0.368200	0.302100	0.982500
H1781	H178	0.339100	0.322100	0.998600
C2311	C231	0.307400	0.302300	0.236300
C2321	C232	0.384300	0.174900	0.900800
N611	N61	0.418300	0.322800	0.986200
N621	N62	0.389200	0.365200	0.095800
F351	F35	0.502200	0.365400	0.063700
F361	F36	0.468400	0.432800	0.961700
H1791	H179	0.359300	0.238400	0.247100
H1801	H180	0.318300	0.154200	0.945900
N631	N63	0.261400	0.328000	0.256200
N641	N64	0.415000	0.160500	0.855700
Co191	Co19	0.566810	0.896110	0.470940
C2331	C233	0.605800	0.813400	0.388500
H1811	H181	0.582100	0.790600	0.409000
C2341	C234	0.632600	0.790500	0.344900
H1821	H182	0.629100	0.752700	0.336900
C2351	C235	0.665500	0.824900	0.312300
C2361	C236	0.670900	0.878400	0.328100
H1831	H183	0.693300	0.902500	0.307700
C2371	C237	0.643800	0.897100	0.373900
H1841	H184	0.648600	0.934100	0.384400
C2381	C238	0.542000	0.793500	0.538700
H1851	H185	0.505800	0.807100	0.537700
C2391	C239	0.551500	0.745400	0.565300
H1861	H186	0.522100	0.726200	0.581600
C2401	C240	0.603200	0.724800	0.568400
C2411	C241	0.644300	0.753800	0.543100
H1871	H187	0.680800	0.740600	0.543400
C2421	C242	0.631800	0.802100	0.517500
H1881	H188	0.660900	0.822100	0.501400
C2431	C243	0.692600	0.802300	0.263700
C2441	C244	0.615700	0.674900	0.599200
N651	N65	0.581700	0.822800	0.513800
N661	N66	0.610800	0.865200	0.404200
F371	F37	0.497800	0.865400	0.436300
F381	F38	0.531600	0.932800	0.538300
H1891	H189	0.640700	0.738400	0.252900
H1901	H190	0.681700	0.654200	0.554100
N671	N67	0.738600	0.828000	0.243800
N681	N68	0.585000	0.660500	0.644300
Co201	Co20	0.066810	0.603890	0.529060
C2451	C245	0.105800	0.686600	0.611500
H1911	H191	0.082100	0.709400	0.591000
C2461	C246	0.132600	0.709500	0.655100
H1921	H192	0.129100	0.747300	0.663100
C2471	C247	0.165500	0.675100	0.687700
C2481	C248	0.170900	0.621600	0.671900
H1931	H193	0.193300	0.597500	0.692300
C2491	C249	0.143800	0.602900	0.626100
H1941	H194	0.148600	0.565900	0.615600
C2501	C250	0.042000	0.706500	0.461300
H1951	H195	0.005800	0.692900	0.462300
C2511	C251	0.051500	0.754600	0.434700
H1961	H196	0.022100	0.773800	0.418400
C2521	C252	0.103200	0.775200	0.431600
C2531	C253	0.144300	0.746200	0.456900
H1971	H197	0.180800	0.759400	0.456600
C2541	C254	0.131800	0.697900	0.482500
H1981	H198	0.160900	0.677900	0.498600
C2551	C255	0.192600	0.697700	0.736300
C2561	C256	0.115700	0.825100	0.400800
N691	N69	0.081700	0.677200	0.486200
N701	N70	0.110800	0.634800	0.595800
F391	F39	0.997800	0.634600	0.563700
F401	F40	0.031600	0.567200	0.461700
H1991	H199	0.140700	0.761600	0.747100
H2001	H200	0.181700	0.845800	0.445900
N711	N71	0.238600	0.672000	0.756200
N721	N72	0.085000	0.839500	0.355700
Co211	Co21	0.970940	0.933190	0.103890
C2571	C257	0.888500	0.894200	0.186600
H2011	H201	0.909000	0.917900	0.209400
C2581	C258	0.844900	0.867400	0.209500
H2021	H202	0.836900	0.870900	0.247300
C2591	C259	0.812300	0.834500	0.175100
C2601	C260	0.828100	0.829100	0.121600
H2031	H203	0.807700	0.806700	0.097500
C2611	C261	0.873900	0.856200	0.102900
H2041	H204	0.884400	0.851400	0.065900
C2621	C262	0.038700	0.958000	0.206500
H2051	H205	0.037700	0.994200	0.192900
C2631	C263	0.065300	0.948500	0.254600
H2061	H206	0.081600	0.977900	0.273800
C2641	C264	0.068400	0.896800	0.275200
C2651	C265	0.043100	0.855700	0.246200
H2071	H207	0.043400	0.819200	0.259400
C2661	C266	0.017500	0.868200	0.197900
H2081	H208	0.001400	0.839100	0.177900
C2671	C267	0.763700	0.807400	0.197700
C2681	C268	0.099200	0.884300	0.325100
N731	N73	0.013800	0.918300	0.177200
N741	N74	0.904200	0.889200	0.134800
F411	F41	0.936300	0.002200	0.134600
F421	F42	0.038300	0.968400	0.067200
H2091	H209	0.752900	0.859300	0.261600
H2101	H210	0.054100	0.818300	0.345800
Co221	Co22	0.029060	0.433190	0.396110
C2691	C269	0.111500	0.394200	0.313400
H2111	H211	0.091000	0.417900	0.290600
C2701	C270	0.155100	0.367400	0.290500
H2121	H212	0.163100	0.370900	0.252700
C2711	C271	0.187700	0.334500	0.324900
C2721	C272	0.171900	0.329100	0.378400
H2131	H213	0.192300	0.306700	0.402500
C2731	C273	0.126100	0.356200	0.397100
H2141	H214	0.115600	0.351400	0.434100
C2741	C274	0.961300	0.458000	0.293500
H2151	H215	0.962300	0.494200	0.307100
C2751	C275	0.934700	0.448500	0.245400
H2161	H216	0.918400	0.477900	0.226200
C2761	C276	0.931600	0.396800	0.224800
C2771	C277	0.956900	0.355700	0.253800
H2171	H217	0.956600	0.319200	0.240600
C2781	C278	0.982500	0.368200	0.302100
H2181	H218	0.998600	0.339100	0.322100
C2791	C279	0.236300	0.307400	0.302300
C2801	C280	0.900800	0.384300	0.174900
N751	N75	0.986200	0.418300	0.322800
N761	N76	0.095800	0.389200	0.365200
F431	F43	0.063700	0.502200	0.365400
F441	F44	0.961700	0.468400	0.432800
H2191	H219	0.247100	0.359300	0.238400
H2201	H220	0.945900	0.318300	0.154200
Co231	Co23	0.470940	0.566810	0.896110
C2811	C281	0.388500	0.605800	0.813400
H2211	H221	0.409000	0.582100	0.790600
C2821	C282	0.344900	0.632600	0.790500
H2221	H222	0.336900	0.629100	0.752700
C2831	C283	0.312300	0.665500	0.824900
C2841	C284	0.328100	0.670900	0.878400
H2231	H223	0.307700	0.693300	0.902500
C2851	C285	0.373900	0.643800	0.897100
H2241	H224	0.384400	0.648600	0.934100
C2861	C286	0.538700	0.542000	0.793500
H2251	H225	0.537700	0.505800	0.807100
C2871	C287	0.565300	0.551500	0.745400
H2261	H226	0.581600	0.522100	0.726200
C2881	C288	0.568400	0.603200	0.724800
C2891	C289	0.543100	0.644300	0.753800
H2271	H227	0.543400	0.680800	0.740600
C2901	C290	0.517500	0.631800	0.802100
H2281	H228	0.501400	0.660900	0.822100
C2911	C291	0.263700	0.692600	0.802300
C2921	C292	0.599200	0.615700	0.674900
N771	N77	0.513800	0.581700	0.822800
N781	N78	0.404200	0.610800	0.865200
F451	F45	0.436300	0.497800	0.865400
F461	F46	0.538300	0.531600	0.932800
H2291	H229	0.252900	0.640700	0.738400
H2301	H230	0.554100	0.681700	0.654200
Co241	Co24	0.529060	0.066810	0.603890
C2931	C293	0.611500	0.105800	0.686600
H2311	H231	0.591000	0.082100	0.709400
C2941	C294	0.655100	0.132600	0.709500
H2321	H232	0.663100	0.129100	0.747300
C2951	C295	0.687700	0.165500	0.675100
C2961	C296	0.671900	0.170900	0.621600
H2331	H233	0.692300	0.193300	0.597500
C2971	C297	0.626100	0.143800	0.602900
H2341	H234	0.615600	0.148600	0.565900
C2981	C298	0.461300	0.042000	0.706500
H2351	H235	0.462300	0.005800	0.692900
C2991	C299	0.434700	0.051500	0.754600
H2361	H236	0.418400	0.022100	0.773800
C3001	C300	0.431600	0.103200	0.775200
C3011	C301	0.456900	0.144300	0.746200
H2371	H237	0.456600	0.180800	0.759400
C3021	C302	0.482500	0.131800	0.697900
H2381	H238	0.498600	0.160900	0.677900
C3031	C303	0.736300	0.192600	0.697700
C3041	C304	0.400800	0.115700	0.825100
N791	N79	0.486200	0.081700	0.677200
N801	N80	0.595800	0.110800	0.634800
F471	F47	0.563700	0.997800	0.634600
F481	F48	0.461700	0.031600	0.567200
H2391	H239	0.747100	0.140700	0.761600
H2401	H240	0.445900	0.181700	0.845800
Co251	Co25	0.000000	0.000000	0.000000
Co261	Co26	0.500000	0.000000	0.500000
Co271	Co27	0.000000	0.500000	0.500000
Co281	Co28	0.500000	0.500000	0.000000
