data_QUPJAN_freeONLY_PM
_symmetry_space_group_name_H-M	'P1'
_cell_length_a	14.573900
_cell_length_b	20.646600
_cell_length_c	20.646600
_cell_angle_alpha	60.803500
_cell_angle_beta	69.332900
_cell_angle_gamma	69.332900
_symmetry_Int_Tables_number 1

loop_
_symmetry_equiv_pos_as_xyz
'x,y,z'

loop_
_atom_site_label
_atom_site_type_symbol
_atom_site_fract_x
_atom_site_fract_y
_atom_site_fract_z
Cd11	Cd1	0.204780	0.709860	0.084220
Cd21	Cd2	0.001140	0.584220	0.209860
Cd31	Cd3	0.704780	0.084220	0.709860
Cd41	Cd4	0.501140	0.209860	0.584220
H11	H1	0.474500	0.852800	0.926600
H21	H2	0.540500	0.955200	0.828600
H31	H3	0.284300	0.042400	0.755400
H41	H4	0.220400	0.939800	0.851000
H51	H5	0.215800	0.692900	0.936100
H61	H6	0.284600	0.615100	0.872700
H71	H7	0.423600	0.466500	0.041900
H81	H8	0.354700	0.550700	0.096500
H91	H9	0.407200	0.493400	0.820200
H101	H10	0.298400	0.511900	0.867900
H111	H11	0.500500	0.362500	0.847100
H121	H12	0.485900	0.341800	0.933600
H131	H13	0.426500	0.151800	0.924000
H141	H14	0.517500	0.086800	0.849200
H151	H15	0.694600	0.227000	0.735200
H161	H16	0.613100	0.292900	0.809700
H171	H17	0.746100	0.426600	0.352800
H181	H18	0.675700	0.328600	0.455200
H191	H19	0.917900	0.255400	0.542400
H201	H20	0.988800	0.351000	0.439800
H211	H21	0.155200	0.436100	0.192900
H221	H22	0.227600	0.372700	0.115100
H231	H23	0.068000	0.541900	0.966500
H241	H24	0.998100	0.596500	0.050700
H251	H25	0.279200	0.320200	0.993400
H261	H26	0.321800	0.367900	0.011900
H271	H27	0.289900	0.347100	0.862500
H281	H28	0.238700	0.433600	0.841800
H291	H29	0.497700	0.424000	0.651800
H301	H30	0.546500	0.349200	0.586800
H311	H31	0.343200	0.235200	0.727000
H321	H32	0.284300	0.309700	0.792900
H331	H33	0.974500	0.926600	0.852800
H341	H34	0.040500	0.828600	0.955200
H351	H35	0.784300	0.755400	0.042400
H361	H36	0.720400	0.851000	0.939800
H371	H37	0.715800	0.936100	0.692900
H381	H38	0.784600	0.872700	0.615100
H391	H39	0.923600	0.041900	0.466500
H401	H40	0.854700	0.096500	0.550700
H411	H41	0.907200	0.820200	0.493400
H421	H42	0.798400	0.867900	0.511900
H431	H43	0.000500	0.847100	0.362500
H441	H44	0.985900	0.933600	0.341800
H451	H45	0.926500	0.924000	0.151800
H461	H46	0.017500	0.849200	0.086800
H471	H47	0.194600	0.735200	0.227000
H481	H48	0.113100	0.809700	0.292900
H491	H49	0.246100	0.352800	0.426600
H501	H50	0.175700	0.455200	0.328600
H511	H51	0.417900	0.542400	0.255400
H521	H52	0.488800	0.439800	0.351000
H531	H53	0.655200	0.192900	0.436100
H541	H54	0.727600	0.115100	0.372700
H551	H55	0.568000	0.966500	0.541900
H561	H56	0.498100	0.050700	0.596500
H571	H57	0.779200	0.993400	0.320200
H581	H58	0.821800	0.011900	0.367900
H591	H59	0.789900	0.862500	0.347100
H601	H60	0.738700	0.841800	0.433600
H611	H61	0.997700	0.651800	0.424000
H621	H62	0.046500	0.586800	0.349200
H631	H63	0.843200	0.727000	0.235200
H641	H64	0.784300	0.792900	0.309700
C11	C1	0.295730	0.820540	0.964100
C21	C2	0.341230	0.885780	0.898980
C31	C3	0.436360	0.890870	0.891830
C41	C4	0.476040	0.952390	0.833250
C51	C5	0.418830	0.009300	0.782000
C61	C6	0.323020	0.003990	0.789610
C71	C7	0.284430	0.943000	0.846900
C81	C8	0.457440	0.077650	0.718250
C91	C9	0.258790	0.646660	0.957760
C101	C10	0.298870	0.600090	0.919170
C111	C11	0.360200	0.531150	0.952050
C121	C12	0.381360	0.512710	0.018770
C131	C13	0.339060	0.563540	0.051140
C141	C14	0.363770	0.477130	0.870530
C151	C15	0.456620	0.343880	0.896880
C161	C16	0.507590	0.231060	0.873160
C171	C17	0.481300	0.168360	0.885440
C181	C18	0.536670	0.129500	0.840160
C191	C19	0.640170	0.211020	0.774360
C201	C20	0.590660	0.252090	0.817790
C211	C21	0.919630	0.464100	0.320540
C221	C22	0.874010	0.398980	0.385780
C231	C23	0.780940	0.391830	0.390870
C241	C24	0.738320	0.333250	0.452390
C251	C25	0.789870	0.282000	0.509300
C261	C26	0.883380	0.289610	0.503990
C271	C27	0.925670	0.346900	0.443000
C281	C28	0.746660	0.218250	0.577650
C291	C29	0.136790	0.457760	0.146660
C301	C30	0.181870	0.419170	0.100090
C311	C31	0.156600	0.452050	0.031150
C321	C32	0.087160	0.518770	0.012710
C331	C33	0.046260	0.551140	0.063540
C341	C34	0.288570	0.370530	0.977130
C351	C35	0.302620	0.396880	0.843880
C361	C36	0.388190	0.373160	0.731060
C371	C37	0.464900	0.385440	0.668360
C381	C38	0.493670	0.340160	0.629500
C391	C39	0.374450	0.274360	0.711020
C401	C40	0.339460	0.317790	0.752090
C411	C41	0.795730	0.964100	0.820540
C421	C42	0.841230	0.898980	0.885780
C431	C43	0.936360	0.891830	0.890870
C441	C44	0.976040	0.833250	0.952390
C451	C45	0.918830	0.782000	0.009300
C461	C46	0.823020	0.789610	0.003990
C471	C47	0.784430	0.846900	0.943000
C481	C48	0.957440	0.718250	0.077650
C491	C49	0.758790	0.957760	0.646660
C501	C50	0.798870	0.919170	0.600090
C511	C51	0.860200	0.952050	0.531150
C521	C52	0.881360	0.018770	0.512710
C531	C53	0.839060	0.051140	0.563540
C541	C54	0.863770	0.870530	0.477130
C551	C55	0.956620	0.896880	0.343880
C561	C56	0.007590	0.873160	0.231060
C571	C57	0.981300	0.885440	0.168360
C581	C58	0.036670	0.840160	0.129500
C591	C59	0.140170	0.774360	0.211020
C601	C60	0.090660	0.817790	0.252090
C611	C61	0.419630	0.320540	0.464100
C621	C62	0.374010	0.385780	0.398980
C631	C63	0.280940	0.390870	0.391830
C641	C64	0.238320	0.452390	0.333250
C651	C65	0.289870	0.509300	0.282000
C661	C66	0.383380	0.503990	0.289610
C671	C67	0.425670	0.443000	0.346900
C681	C68	0.246660	0.577650	0.218250
C691	C69	0.636790	0.146660	0.457760
C701	C70	0.681870	0.100090	0.419170
C711	C71	0.656600	0.031150	0.452050
C721	C72	0.587160	0.012710	0.518770
C731	C73	0.546260	0.063540	0.551140
C741	C74	0.788570	0.977130	0.370530
C751	C75	0.802620	0.843880	0.396880
C761	C76	0.888190	0.731060	0.373160
C771	C77	0.964900	0.668360	0.385440
C781	C78	0.993670	0.629500	0.340160
C791	C79	0.874450	0.711020	0.274360
C801	C80	0.839460	0.752090	0.317790
C811	C81	0.353140	0.396860	0.896860
C821	C82	0.853140	0.896860	0.396860
N11	N1	0.276920	0.630380	0.022160
N21	N2	0.615160	0.149780	0.784840
N31	N3	0.070540	0.522160	0.130380
N41	N4	0.450220	0.284840	0.649780
N51	N5	0.776920	0.022160	0.630380
N61	N6	0.115160	0.784840	0.149780
N71	N7	0.570540	0.130380	0.522160
N81	N8	0.950220	0.649780	0.284840
O11	O1	0.211250	0.817200	0.965960
O21	O2	0.344020	0.773170	0.013750
O31	O3	0.399590	0.129000	0.677320
O41	O4	0.546390	0.080590	0.707350
O51	O5	0.405340	0.478320	0.922660
O61	O6	0.446720	0.268810	0.916530
O71	O7	0.005590	0.465960	0.317200
O81	O8	0.869060	0.513750	0.273170
O91	O9	0.794090	0.177320	0.629000
O101	O10	0.665670	0.207350	0.580590
O111	O11	0.193680	0.422660	0.978320
O121	O12	0.367940	0.416530	0.768810
O131	O13	0.711250	0.965960	0.817200
O141	O14	0.844020	0.013750	0.773170
O151	O15	0.899590	0.677320	0.129000
O161	O16	0.046390	0.707350	0.080590
O171	O17	0.905340	0.922660	0.478320
O181	O18	0.946720	0.916530	0.268810
O191	O19	0.505590	0.317200	0.465960
O201	O20	0.369060	0.273170	0.513750
O211	O21	0.294090	0.629000	0.177320
O221	O22	0.165670	0.580590	0.207350
O231	O23	0.693680	0.978320	0.422660
O241	O24	0.867940	0.768810	0.416530
Cd51	Cd5	0.295220	0.915780	0.290140
Cd61	Cd6	0.498860	0.790140	0.415780
Cd71	Cd7	0.795220	0.290140	0.915780
Cd81	Cd8	0.998860	0.415780	0.790140
H651	H65	0.025500	0.073400	0.147200
H661	H66	0.959500	0.171400	0.044800
H671	H67	0.215700	0.244600	0.957600
H681	H68	0.279600	0.149000	0.060200
H691	H69	0.284200	0.063900	0.307100
H701	H70	0.215400	0.127300	0.384900
H711	H71	0.076400	0.958100	0.533500
H721	H72	0.145300	0.903500	0.449300
H731	H73	0.092800	0.179800	0.506600
H741	H74	0.201600	0.132100	0.488100
H751	H75	0.999500	0.152900	0.637500
H761	H76	0.014100	0.066400	0.658200
H771	H77	0.073500	0.076000	0.848200
H781	H78	0.982500	0.150800	0.913200
H791	H79	0.805400	0.264800	0.773000
H801	H80	0.886900	0.190300	0.707100
H811	H81	0.753900	0.647200	0.573400
H821	H82	0.824300	0.544800	0.671400
H831	H83	0.582100	0.457600	0.744600
H841	H84	0.511200	0.560200	0.649000
H851	H85	0.344800	0.807100	0.563900
H861	H86	0.272400	0.884900	0.627300
H871	H87	0.432000	0.033500	0.458100
H881	H88	0.501900	0.949300	0.403500
H891	H89	0.220800	0.006600	0.679800
H901	H90	0.178200	0.988100	0.632100
H911	H91	0.210100	0.137500	0.652900
H921	H92	0.261300	0.158200	0.566400
H931	H93	0.002300	0.348200	0.576000
H941	H94	0.953500	0.413200	0.650800
H951	H95	0.156800	0.273000	0.764800
H961	H96	0.215700	0.207100	0.690300
H971	H97	0.525500	0.147200	0.073400
H981	H98	0.459500	0.044800	0.171400
H991	H99	0.715700	0.957600	0.244600
H1001	H100	0.779600	0.060200	0.149000
H1011	H101	0.784200	0.307100	0.063900
H1021	H102	0.715400	0.384900	0.127300
H1031	H103	0.576400	0.533500	0.958100
H1041	H104	0.645300	0.449300	0.903500
H1051	H105	0.592800	0.506600	0.179800
H1061	H106	0.701600	0.488100	0.132100
H1071	H107	0.499500	0.637500	0.152900
H1081	H108	0.514100	0.658200	0.066400
H1091	H109	0.573500	0.848200	0.076000
H1101	H110	0.482500	0.913200	0.150800
H1111	H111	0.305400	0.773000	0.264800
H1121	H112	0.386900	0.707100	0.190300
H1131	H113	0.253900	0.573400	0.647200
H1141	H114	0.324300	0.671400	0.544800
H1151	H115	0.082100	0.744600	0.457600
H1161	H116	0.011200	0.649000	0.560200
H1171	H117	0.844800	0.563900	0.807100
H1181	H118	0.772400	0.627300	0.884900
H1191	H119	0.932000	0.458100	0.033500
H1201	H120	0.001900	0.403500	0.949300
H1211	H121	0.720800	0.679800	0.006600
H1221	H122	0.678200	0.632100	0.988100
H1231	H123	0.710100	0.652900	0.137500
H1241	H124	0.761300	0.566400	0.158200
H1251	H125	0.502300	0.576000	0.348200
H1261	H126	0.453500	0.650800	0.413200
H1271	H127	0.656800	0.764800	0.273000
H1281	H128	0.715700	0.690300	0.207100
C831	C83	0.204270	0.035900	0.179460
C841	C84	0.158770	0.101020	0.114220
C851	C85	0.063640	0.108170	0.109130
C861	C86	0.023960	0.166750	0.047610
C871	C87	0.081170	0.218000	0.990700
C881	C88	0.176980	0.210390	0.996010
C891	C89	0.215570	0.153100	0.057000
C901	C90	0.042560	0.281750	0.922350
C911	C91	0.241210	0.042240	0.353340
C921	C92	0.201130	0.080830	0.399910
C931	C93	0.139800	0.047950	0.468850
C941	C94	0.118640	0.981230	0.487290
C951	C95	0.160940	0.948860	0.436460
C961	C96	0.136230	0.129470	0.522870
C971	C97	0.043380	0.103120	0.656120
C981	C98	0.992410	0.126840	0.768940
C991	C99	0.018700	0.114560	0.831640
C1001	C100	0.963330	0.159840	0.870500
C1011	C101	0.859830	0.225640	0.788980
C1021	C102	0.909340	0.182210	0.747910
C1031	C103	0.580370	0.679460	0.535900
C1041	C104	0.625990	0.614220	0.601020
C1051	C105	0.719060	0.609130	0.608170
C1061	C106	0.761680	0.547610	0.666750
C1071	C107	0.710130	0.490700	0.718000
C1081	C108	0.616620	0.496010	0.710390
C1091	C109	0.574330	0.557000	0.653100
C1101	C110	0.753340	0.422350	0.781750
C1111	C111	0.363210	0.853340	0.542240
C1121	C112	0.318130	0.899910	0.580830
C1131	C113	0.343400	0.968850	0.547950
C1141	C114	0.412840	0.987290	0.481230
C1151	C115	0.453740	0.936460	0.448860
C1161	C116	0.211430	0.022870	0.629470
C1171	C117	0.197380	0.156120	0.603120
C1181	C118	0.111810	0.268940	0.626840
C1191	C119	0.035100	0.331640	0.614560
C1201	C120	0.006330	0.370500	0.659840
C1211	C121	0.125550	0.288980	0.725640
C1221	C122	0.160540	0.247910	0.682210
C1231	C123	0.704270	0.179460	0.035900
C1241	C124	0.658770	0.114220	0.101020
C1251	C125	0.563640	0.109130	0.108170
C1261	C126	0.523960	0.047610	0.166750
C1271	C127	0.581170	0.990700	0.218000
C1281	C128	0.676980	0.996010	0.210390
C1291	C129	0.715570	0.057000	0.153100
C1301	C130	0.542560	0.922350	0.281750
C1311	C131	0.741210	0.353340	0.042240
C1321	C132	0.701130	0.399910	0.080830
C1331	C133	0.639800	0.468850	0.047950
C1341	C134	0.618640	0.487290	0.981230
C1351	C135	0.660940	0.436460	0.948860
C1361	C136	0.636230	0.522870	0.129470
C1371	C137	0.543380	0.656120	0.103120
C1381	C138	0.492410	0.768940	0.126840
C1391	C139	0.518700	0.831640	0.114560
C1401	C140	0.463330	0.870500	0.159840
C1411	C141	0.359830	0.788980	0.225640
C1421	C142	0.409340	0.747910	0.182210
C1431	C143	0.080370	0.535900	0.679460
C1441	C144	0.125990	0.601020	0.614220
C1451	C145	0.219060	0.608170	0.609130
C1461	C146	0.261680	0.666750	0.547610
C1471	C147	0.210130	0.718000	0.490700
C1481	C148	0.116620	0.710390	0.496010
C1491	C149	0.074330	0.653100	0.557000
C1501	C150	0.253340	0.781750	0.422350
C1511	C151	0.863210	0.542240	0.853340
C1521	C152	0.818130	0.580830	0.899910
C1531	C153	0.843400	0.547950	0.968850
C1541	C154	0.912840	0.481230	0.987290
C1551	C155	0.953740	0.448860	0.936460
C1561	C156	0.711430	0.629470	0.022870
C1571	C157	0.697380	0.603120	0.156120
C1581	C158	0.611810	0.626840	0.268940
C1591	C159	0.535100	0.614560	0.331640
C1601	C160	0.506330	0.659840	0.370500
C1611	C161	0.625550	0.725640	0.288980
C1621	C162	0.660540	0.682210	0.247910
C1631	C163	0.146860	0.103140	0.603140
C1641	C164	0.646860	0.603140	0.103140
N91	N9	0.223080	0.977840	0.369620
N101	N10	0.884840	0.215160	0.850220
N111	N11	0.429460	0.869620	0.477840
N121	N12	0.049780	0.350220	0.715160
N131	N13	0.723080	0.369620	0.977840
N141	N14	0.384840	0.850220	0.215160
N151	N15	0.929460	0.477840	0.869620
N161	N16	0.549780	0.715160	0.350220
O251	O25	0.288750	0.034040	0.182800
O261	O26	0.155980	0.986250	0.226830
O271	O27	0.100410	0.322680	0.871000
O281	O28	0.953610	0.292650	0.919410
O291	O29	0.094660	0.077340	0.521680
O301	O30	0.053280	0.083470	0.731190
O311	O31	0.494410	0.682800	0.534040
O321	O32	0.630940	0.726830	0.486250
O331	O33	0.705910	0.371000	0.822680
O341	O34	0.834330	0.419410	0.792650
O351	O35	0.306320	0.021680	0.577340
O361	O36	0.132060	0.231190	0.583470
O371	O37	0.788750	0.182800	0.034040
O381	O38	0.655980	0.226830	0.986250
O391	O39	0.600410	0.871000	0.322680
O401	O40	0.453610	0.919410	0.292650
O411	O41	0.594660	0.521680	0.077340
O421	O42	0.553280	0.731190	0.083470
O431	O43	0.994410	0.534040	0.682800
O441	O44	0.130940	0.486250	0.726830
O451	O45	0.205910	0.822680	0.371000
O461	O46	0.334330	0.792650	0.419410
O471	O47	0.806320	0.577340	0.021680
O481	O48	0.632060	0.583470	0.231190
