data_QUQBAH_freeONLY_PM
_symmetry_space_group_name_H-M	'P1'
_cell_length_a	13.433300
_cell_length_b	13.849300
_cell_length_c	26.747700
_cell_angle_alpha	90.000000
_cell_angle_beta	101.550000
_cell_angle_gamma	90.000000
_symmetry_Int_Tables_number 1

loop_
_symmetry_equiv_pos_as_xyz
'x,y,z'

loop_
_atom_site_label
_atom_site_type_symbol
_atom_site_fract_x
_atom_site_fract_y
_atom_site_fract_z
Fe11	Fe1	0.479250	0.366030	0.229080
Fe21	Fe2	0.488410	0.612440	0.257510
N11	N1	0.470400	0.797100	0.696800
N21	N2	0.497500	0.701700	0.702690
N31	N3	0.501300	0.679700	0.325830
N41	N4	0.614500	0.536500	0.252170
N51	N5	0.604900	0.446500	0.230870
N61	N6	0.519700	0.776700	0.330120
N71	N7	0.351200	0.442600	0.227590
N81	N8	0.361100	0.533200	0.249010
C11	C1	0.267900	0.562000	0.254560
H11	H1	0.253500	0.621900	0.268900
C21	C2	0.195800	0.491300	0.236160
C31	C3	0.253100	0.417100	0.219960
H21	H2	0.226200	0.357500	0.205700
C41	C4	0.085300	0.492800	0.235730
C51	C5	0.043400	0.567500	0.259570
H31	H3	0.085700	0.618500	0.275300
C61	C6	0.940200	0.568300	0.260640
H41	H4	0.912700	0.619800	0.277000
C71	C7	0.876700	0.493600	0.237650
C81	C8	0.919200	0.419300	0.213940
H51	H5	0.877400	0.368000	0.198300
C91	C9	0.022600	0.419200	0.212840
H61	H6	0.050300	0.368100	0.196200
C101	C10	0.697400	0.420200	0.222550
H71	H7	0.712400	0.360900	0.207800
C111	C11	0.766600	0.493200	0.238930
C121	C12	0.711000	0.564600	0.257060
H81	H8	0.737500	0.624600	0.270900
C131	C13	0.487500	0.646600	0.371330
H91	H9	0.474500	0.581200	0.378600
C141	C14	0.495100	0.721600	0.406010
C151	C15	0.516300	0.802300	0.378360
H101	H10	0.526600	0.865900	0.391700
C161	C16	0.485400	0.722000	0.459810
C171	C17	0.510800	0.642500	0.491440
H111	H11	0.532100	0.584500	0.477800
C181	C18	0.505600	0.646400	0.542900
H121	H12	0.524000	0.591300	0.563900
C191	C19	0.473600	0.730500	0.564010
C201	C20	0.443700	0.808900	0.531680
H131	H13	0.418700	0.865800	0.544700
C211	C21	0.450100	0.804400	0.481030
H141	H14	0.430000	0.858900	0.459800
C221	C22	0.455100	0.817900	0.646960
H151	H15	0.434000	0.879100	0.632600
C231	C23	0.474500	0.737000	0.618910
C241	C24	0.500700	0.665900	0.656350
H161	H16	0.518200	0.601300	0.649900
Fe31	Fe3	0.520750	0.866030	0.270920
Fe41	Fe4	0.511590	0.112440	0.242490
N91	N9	0.529600	0.297100	0.803200
N101	N10	0.502500	0.201700	0.797310
N111	N11	0.498700	0.179700	0.174170
N121	N12	0.385500	0.036500	0.247830
N131	N13	0.395100	0.946500	0.269130
N141	N14	0.480300	0.276700	0.169880
N151	N15	0.648800	0.942600	0.272410
N161	N16	0.638900	0.033200	0.250990
C251	C25	0.732100	0.062000	0.245440
H171	H17	0.746500	0.121900	0.231100
C261	C26	0.804200	0.991300	0.263840
C271	C27	0.746900	0.917100	0.280040
H181	H18	0.773800	0.857500	0.294300
C281	C28	0.914700	0.992800	0.264270
C291	C29	0.956600	0.067500	0.240430
H191	H19	0.914300	0.118500	0.224700
C301	C30	0.059800	0.068300	0.239360
H201	H20	0.087300	0.119800	0.223000
C311	C31	0.123300	0.993600	0.262350
C321	C32	0.080800	0.919300	0.286060
H211	H21	0.122600	0.868000	0.301700
C331	C33	0.977400	0.919200	0.287160
H221	H22	0.949700	0.868100	0.303800
C341	C34	0.302600	0.920200	0.277450
H231	H23	0.287600	0.860900	0.292200
C351	C35	0.233400	0.993200	0.261070
C361	C36	0.289000	0.064600	0.242940
H241	H24	0.262500	0.124600	0.229100
C371	C37	0.512500	0.146600	0.128670
H251	H25	0.525500	0.081200	0.121400
C381	C38	0.504900	0.221600	0.093990
C391	C39	0.483700	0.302300	0.121640
H261	H26	0.473400	0.365900	0.108300
C401	C40	0.514600	0.222000	0.040190
C411	C41	0.489200	0.142500	0.008560
H271	H27	0.467900	0.084500	0.022200
C421	C42	0.494400	0.146400	0.957100
H281	H28	0.476000	0.091300	0.936100
C431	C43	0.526400	0.230500	0.935990
C441	C44	0.556300	0.308900	0.968320
H291	H29	0.581300	0.365800	0.955300
C451	C45	0.549900	0.304400	0.018970
H301	H30	0.570000	0.358900	0.040200
C461	C46	0.544900	0.317900	0.853040
H311	H31	0.566000	0.379100	0.867400
C471	C47	0.525500	0.237000	0.881090
C481	C48	0.499300	0.165900	0.843650
H321	H32	0.481800	0.101300	0.850100
Fe51	Fe5	0.520750	0.633970	0.770920
Fe61	Fe6	0.511590	0.387560	0.742490
N171	N17	0.529600	0.202900	0.303200
N181	N18	0.502500	0.298300	0.297310
N191	N19	0.498700	0.320300	0.674170
N201	N20	0.385500	0.463500	0.747830
N211	N21	0.395100	0.553500	0.769130
N221	N22	0.480300	0.223300	0.669880
N231	N23	0.648800	0.557400	0.772410
N241	N24	0.638900	0.466800	0.750990
C491	C49	0.732100	0.438000	0.745440
H331	H33	0.746500	0.378100	0.731100
C501	C50	0.804200	0.508700	0.763840
C511	C51	0.746900	0.582900	0.780040
H341	H34	0.773800	0.642500	0.794300
C521	C52	0.914700	0.507200	0.764270
C531	C53	0.956600	0.432500	0.740430
H351	H35	0.914300	0.381500	0.724700
C541	C54	0.059800	0.431700	0.739360
H361	H36	0.087300	0.380200	0.723000
C551	C55	0.123300	0.506400	0.762350
C561	C56	0.080800	0.580700	0.786060
H371	H37	0.122600	0.632000	0.801700
C571	C57	0.977400	0.580800	0.787160
H381	H38	0.949700	0.631900	0.803800
C581	C58	0.302600	0.579800	0.777450
H391	H39	0.287600	0.639100	0.792200
C591	C59	0.233400	0.506800	0.761070
C601	C60	0.289000	0.435400	0.742940
H401	H40	0.262500	0.375400	0.729100
C611	C61	0.512500	0.353400	0.628670
H411	H41	0.525500	0.418800	0.621400
C621	C62	0.504900	0.278400	0.593990
C631	C63	0.483700	0.197700	0.621640
H421	H42	0.473400	0.134100	0.608300
C641	C64	0.514600	0.278000	0.540190
C651	C65	0.489200	0.357500	0.508560
H431	H43	0.467900	0.415500	0.522200
C661	C66	0.494400	0.353600	0.457100
H441	H44	0.476000	0.408700	0.436100
C671	C67	0.526400	0.269500	0.435990
C681	C68	0.556300	0.191100	0.468320
H451	H45	0.581300	0.134200	0.455300
C691	C69	0.549900	0.195600	0.518970
H461	H46	0.570000	0.141100	0.540200
C701	C70	0.544900	0.182100	0.353040
H471	H47	0.566000	0.120900	0.367400
C711	C71	0.525500	0.263000	0.381090
C721	C72	0.499300	0.334100	0.343650
H481	H48	0.481800	0.398700	0.350100
Fe71	Fe7	0.479250	0.133970	0.729080
Fe81	Fe8	0.488410	0.887560	0.757510
N251	N25	0.470400	0.702900	0.196800
N261	N26	0.497500	0.798300	0.202690
N271	N27	0.501300	0.820300	0.825830
N281	N28	0.614500	0.963500	0.752170
N291	N29	0.604900	0.053500	0.730870
N301	N30	0.519700	0.723300	0.830120
N311	N31	0.351200	0.057400	0.727590
N321	N32	0.361100	0.966800	0.749010
C731	C73	0.267900	0.938000	0.754560
H491	H49	0.253500	0.878100	0.768900
C741	C74	0.195800	0.008700	0.736160
C751	C75	0.253100	0.082900	0.719960
H501	H50	0.226200	0.142500	0.705700
C761	C76	0.085300	0.007200	0.735730
C771	C77	0.043400	0.932500	0.759570
H511	H51	0.085700	0.881500	0.775300
C781	C78	0.940200	0.931700	0.760640
H521	H52	0.912700	0.880200	0.777000
C791	C79	0.876700	0.006400	0.737650
C801	C80	0.919200	0.080700	0.713940
H531	H53	0.877400	0.132000	0.698300
C811	C81	0.022600	0.080800	0.712840
H541	H54	0.050300	0.131900	0.696200
C821	C82	0.697400	0.079800	0.722550
H551	H55	0.712400	0.139100	0.707800
C831	C83	0.766600	0.006800	0.738930
C841	C84	0.711000	0.935400	0.757060
H561	H56	0.737500	0.875400	0.770900
C851	C85	0.487500	0.853400	0.871330
H571	H57	0.474500	0.918800	0.878600
C861	C86	0.495100	0.778400	0.906010
C871	C87	0.516300	0.697700	0.878360
H581	H58	0.526600	0.634100	0.891700
C881	C88	0.485400	0.778000	0.959810
C891	C89	0.510800	0.857500	0.991440
H591	H59	0.532100	0.915500	0.977800
C901	C90	0.505600	0.853600	0.042900
H601	H60	0.524000	0.908700	0.063900
C911	C91	0.473600	0.769500	0.064010
C921	C92	0.443700	0.691100	0.031680
H611	H61	0.418700	0.634200	0.044700
C931	C93	0.450100	0.695600	0.981030
H621	H62	0.430000	0.641100	0.959800
C941	C94	0.455100	0.682100	0.146960
H631	H63	0.434000	0.620900	0.132600
C951	C95	0.474500	0.763000	0.118910
C961	C96	0.500700	0.834100	0.156350
H641	H64	0.518200	0.898700	0.149900
