data_QUSBIP_freeONLY_PM
_symmetry_space_group_name_H-M	'P1'
_cell_length_a	20.330000
_cell_length_b	23.169200
_cell_length_c	32.008100
_cell_angle_alpha	90.000000
_cell_angle_beta	90.000000
_cell_angle_gamma	90.000000
_symmetry_Int_Tables_number 1

loop_
_symmetry_equiv_pos_as_xyz
'x,y,z'

loop_
_atom_site_label
_atom_site_type_symbol
_atom_site_fract_x
_atom_site_fract_y
_atom_site_fract_z
Zn11	Zn1	0.172900	0.474110	0.501510
Zn21	Zn2	0.291860	0.515530	0.449700
Zn31	Zn3	0.253740	0.588360	0.532850
Zn41	Zn4	0.313780	0.457820	0.535140
Zn51	Zn5	0.327100	0.525890	0.001510
Zn61	Zn6	0.208140	0.484470	0.949700
Zn71	Zn7	0.246260	0.411640	0.032850
Zn81	Zn8	0.186220	0.542180	0.035140
Zn91	Zn9	0.827100	0.974110	0.998490
Zn101	Zn10	0.708140	0.015530	0.050300
Zn111	Zn11	0.746260	0.088360	0.967150
Zn121	Zn12	0.686220	0.957820	0.964860
Zn131	Zn13	0.672900	0.025890	0.498490
Zn141	Zn14	0.791860	0.984470	0.550300
Zn151	Zn15	0.753740	0.911640	0.467150
Zn161	Zn16	0.813780	0.042180	0.464860
H11	H1	0.862600	0.569300	0.746200
H21	H2	0.924200	0.600900	0.689000
H31	H3	0.756300	0.650900	0.632800
H41	H4	0.698700	0.625400	0.690000
H51	H5	0.902800	0.544500	0.600500
H61	H6	0.997800	0.500800	0.576300
H71	H7	0.100800	0.648600	0.591500
H81	H8	0.002400	0.693800	0.612700
H91	H9	0.898700	0.686800	0.543800
H101	H10	0.873000	0.773900	0.514800
H111	H11	0.809000	0.833200	0.626500
H121	H12	0.839000	0.747400	0.657700
H131	H13	0.662400	0.509200	0.717100
H141	H14	0.549100	0.505300	0.715800
H151	H15	0.537500	0.631500	0.800300
H161	H16	0.651900	0.639500	0.801400
H171	H17	0.395400	0.475100	0.733600
H181	H18	0.342500	0.460900	0.668900
H191	H19	0.400900	0.617400	0.632500
H201	H20	0.455200	0.632300	0.695100
H211	H21	0.337800	0.576500	0.776400
H221	H22	0.284100	0.559500	0.837400
H231	H23	0.454700	0.521100	0.894400
H241	H24	0.509600	0.531700	0.831600
H251	H25	0.798500	0.671800	0.785000
H261	H26	0.841500	0.694600	0.852000
H271	H27	0.779500	0.540400	0.894100
H281	H28	0.743300	0.514900	0.827400
H291	H29	0.918000	0.713400	0.950700
H301	H30	0.889500	0.805600	0.971800
H311	H31	0.699800	0.775600	0.946100
H321	H32	0.724700	0.681700	0.926100
H331	H33	0.884000	0.619200	0.994900
H341	H34	0.985300	0.584800	0.016000
H351	H35	0.027500	0.538200	0.897500
H361	H36	0.925700	0.574400	0.875700
H371	H37	0.637400	0.430700	0.246200
H381	H38	0.575800	0.399100	0.189000
H391	H39	0.743700	0.349100	0.132800
H401	H40	0.801300	0.374600	0.190000
H411	H41	0.597200	0.455500	0.100500
H421	H42	0.502200	0.499200	0.076300
H431	H43	0.399200	0.351400	0.091500
H441	H44	0.497600	0.306200	0.112700
H451	H45	0.601300	0.313200	0.043800
H461	H46	0.627000	0.226100	0.014800
H471	H47	0.691000	0.166800	0.126500
H481	H48	0.661000	0.252600	0.157700
H491	H49	0.837600	0.490800	0.217100
H501	H50	0.950900	0.494700	0.215800
H511	H51	0.962500	0.368500	0.300300
H521	H52	0.848100	0.360500	0.301400
H531	H53	0.104600	0.524900	0.233600
H541	H54	0.157500	0.539100	0.168900
H551	H55	0.099100	0.382600	0.132500
H561	H56	0.044800	0.367700	0.195100
H571	H57	0.162200	0.423500	0.276400
H581	H58	0.215900	0.440500	0.337400
H591	H59	0.045300	0.478900	0.394400
H601	H60	0.990400	0.468300	0.331600
H611	H61	0.701500	0.328200	0.285000
H621	H62	0.658500	0.305400	0.352000
H631	H63	0.720500	0.459600	0.394100
H641	H64	0.756700	0.485100	0.327400
H651	H65	0.582000	0.286600	0.450700
H661	H66	0.610500	0.194400	0.471800
H671	H67	0.800200	0.224400	0.446100
H681	H68	0.775300	0.318300	0.426100
H691	H69	0.616000	0.380800	0.494900
H701	H70	0.514700	0.415200	0.516000
H711	H71	0.472500	0.461800	0.397500
H721	H72	0.574300	0.425600	0.375700
H731	H73	0.137400	0.069300	0.753800
H741	H74	0.075800	0.100900	0.811000
H751	H75	0.243700	0.150900	0.867200
H761	H76	0.301300	0.125400	0.810000
H771	H77	0.097200	0.044500	0.899500
H781	H78	0.002200	0.000800	0.923700
H791	H79	0.899200	0.148600	0.908500
H801	H80	0.997600	0.193800	0.887300
H811	H81	0.101300	0.186800	0.956200
H821	H82	0.127000	0.273900	0.985200
H831	H83	0.191000	0.333200	0.873500
H841	H84	0.161000	0.247400	0.842300
H851	H85	0.337600	0.009200	0.782900
H861	H86	0.450900	0.005300	0.784200
H871	H87	0.462500	0.131500	0.699700
H881	H88	0.348100	0.139500	0.698600
H891	H89	0.604600	0.975100	0.766400
H901	H90	0.657500	0.960900	0.831100
H911	H91	0.599100	0.117400	0.867500
H921	H92	0.544800	0.132300	0.804900
H931	H93	0.662200	0.076500	0.723600
H941	H94	0.715900	0.059500	0.662600
H951	H95	0.545300	0.021100	0.605600
H961	H96	0.490400	0.031700	0.668400
H971	H97	0.201500	0.171800	0.715000
H981	H98	0.158500	0.194600	0.648000
H991	H99	0.220500	0.040400	0.605900
H1001	H100	0.256700	0.014900	0.672600
H1011	H101	0.082000	0.213400	0.549300
H1021	H102	0.110500	0.305600	0.528200
H1031	H103	0.300200	0.275600	0.553900
H1041	H104	0.275300	0.181700	0.573900
H1051	H105	0.116000	0.119200	0.505100
H1061	H106	0.014700	0.084800	0.484000
H1071	H107	0.972500	0.038200	0.602500
H1081	H108	0.074300	0.074400	0.624300
H1091	H109	0.362600	0.930700	0.253800
H1101	H110	0.424200	0.899100	0.311000
H1111	H111	0.256300	0.849100	0.367200
H1121	H112	0.198700	0.874600	0.310000
H1131	H113	0.402800	0.955500	0.399500
H1141	H114	0.497800	0.999200	0.423700
H1151	H115	0.600800	0.851400	0.408500
H1161	H116	0.502400	0.806200	0.387300
H1171	H117	0.398700	0.813200	0.456200
H1181	H118	0.373000	0.726100	0.485200
H1191	H119	0.309000	0.666800	0.373500
H1201	H120	0.339000	0.752600	0.342300
H1211	H121	0.162400	0.990800	0.282900
H1221	H122	0.049100	0.994700	0.284200
H1231	H123	0.037500	0.868500	0.199700
H1241	H124	0.151900	0.860500	0.198600
H1251	H125	0.895400	0.024900	0.266400
H1261	H126	0.842500	0.039100	0.331100
H1271	H127	0.900900	0.882600	0.367500
H1281	H128	0.955200	0.867700	0.304900
H1291	H129	0.837800	0.923500	0.223600
H1301	H130	0.784100	0.940500	0.162600
H1311	H131	0.954700	0.978900	0.105600
H1321	H132	0.009600	0.968300	0.168400
H1331	H133	0.298500	0.828200	0.215000
H1341	H134	0.341500	0.805400	0.148000
H1351	H135	0.279500	0.959600	0.105900
H1361	H136	0.243300	0.985100	0.172600
H1371	H137	0.418000	0.786600	0.049300
H1381	H138	0.389500	0.694400	0.028200
H1391	H139	0.199800	0.724400	0.053900
H1401	H140	0.224700	0.818300	0.073900
H1411	H141	0.384000	0.880800	0.005100
H1421	H142	0.485300	0.915200	0.984000
H1431	H143	0.527500	0.961800	0.102500
H1441	H144	0.425700	0.925600	0.124300
C11	C1	0.774400	0.593600	0.723500
C21	C2	0.841100	0.586900	0.723100
C31	C3	0.877800	0.605700	0.688800
C41	C4	0.848600	0.630900	0.655100
C51	C5	0.778900	0.635700	0.656300
C61	C6	0.744900	0.619300	0.689600
C71	C7	0.944700	0.624700	0.609200
C81	C8	0.942500	0.565900	0.598200
C91	C9	0.999100	0.540300	0.584200
C101	C10	0.057300	0.569300	0.581200
C111	C11	0.060600	0.627700	0.592600
C121	C12	0.001900	0.653900	0.605900
C131	C13	0.871000	0.706300	0.604200
C141	C14	0.881000	0.716500	0.560900
C151	C15	0.865400	0.768100	0.543800
C161	C16	0.838300	0.813500	0.567500
C171	C17	0.828100	0.803600	0.609900
C181	C18	0.844900	0.752300	0.628400
C191	C19	0.669300	0.575200	0.759000
C201	C20	0.637500	0.534900	0.734000
C211	C21	0.570400	0.532400	0.733600
C221	C22	0.533000	0.568000	0.758200
C231	C23	0.563200	0.606900	0.783100
C241	C24	0.631300	0.611700	0.784000
C251	C25	0.429200	0.556000	0.720000
C261	C26	0.396500	0.504300	0.712800
C271	C27	0.365300	0.495900	0.674300
C281	C28	0.367500	0.538200	0.644500
C291	C29	0.400100	0.587900	0.653100
C301	C30	0.431900	0.597400	0.690300
C311	C31	0.430200	0.553900	0.797400
C321	C32	0.361600	0.563700	0.800200
C331	C33	0.330500	0.554700	0.836600
C341	C34	0.362200	0.539100	0.872500
C351	C35	0.430800	0.531200	0.870000
C361	C36	0.463500	0.538100	0.832800
C371	C37	0.767100	0.590100	0.800200
C381	C38	0.795900	0.644500	0.807100
C391	C39	0.820900	0.658400	0.847000
C401	C40	0.814800	0.618800	0.878100
C411	C41	0.784800	0.566600	0.871500
C421	C42	0.762200	0.551800	0.832100
C431	C43	0.825000	0.687700	0.934800
C441	C44	0.873400	0.725500	0.949400
C451	C45	0.856300	0.780300	0.961800
C461	C46	0.791700	0.799600	0.960100
C471	C47	0.744200	0.762800	0.946900
C481	C48	0.758900	0.707100	0.934600
C491	C49	0.899000	0.606500	0.932000
C501	C50	0.914500	0.605200	0.974800
C511	C51	0.973900	0.583700	0.987300
C521	C52	0.019000	0.559700	0.958200
C531	C53	0.999400	0.556200	0.917300
C541	C54	0.939000	0.578600	0.904000
C551	C55	0.116500	0.542000	0.562400
C561	C56	0.819900	0.868900	0.548200
C571	C57	0.337400	0.527600	0.602200
C581	C58	0.327300	0.529000	0.911700
C591	C59	0.775700	0.862000	0.971300
C601	C60	0.084300	0.541500	0.971500
C611	C61	0.257000	0.674000	0.602000
C621	C62	0.224000	0.656800	0.644600
C631	C63	0.314000	0.726000	0.644100
C641	C64	0.373000	0.720100	0.571700
C651	C65	0.725600	0.406400	0.223500
C661	C66	0.658900	0.413100	0.223100
C671	C67	0.622200	0.394300	0.188800
C681	C68	0.651400	0.369100	0.155100
C691	C69	0.721100	0.364300	0.156300
C701	C70	0.755100	0.380700	0.189600
C711	C71	0.555300	0.375300	0.109200
C721	C72	0.557500	0.434100	0.098200
C731	C73	0.500900	0.459700	0.084200
C741	C74	0.442700	0.430700	0.081200
C751	C75	0.439400	0.372300	0.092600
C761	C76	0.498100	0.346100	0.105900
C771	C77	0.629000	0.293700	0.104200
C781	C78	0.619000	0.283500	0.060900
C791	C79	0.634600	0.231900	0.043800
C801	C80	0.661700	0.186500	0.067500
C811	C81	0.671900	0.196400	0.109900
C821	C82	0.655100	0.247700	0.128400
C831	C83	0.830700	0.424800	0.259000
C841	C84	0.862500	0.465100	0.234000
C851	C85	0.929600	0.467600	0.233600
C861	C86	0.967000	0.432000	0.258200
C871	C87	0.936800	0.393100	0.283100
C881	C88	0.868700	0.388300	0.284000
C891	C89	0.070800	0.444000	0.220000
C901	C90	0.103500	0.495700	0.212800
C911	C91	0.134700	0.504100	0.174300
C921	C92	0.132500	0.461800	0.144500
C931	C93	0.099900	0.412100	0.153100
C941	C94	0.068100	0.402600	0.190300
C951	C95	0.069800	0.446100	0.297400
C961	C96	0.138400	0.436300	0.300200
C971	C97	0.169500	0.445300	0.336600
C981	C98	0.137800	0.460900	0.372500
C991	C99	0.069200	0.468800	0.370000
C1001	C100	0.036500	0.461900	0.332800
C1011	C101	0.732900	0.409900	0.300200
C1021	C102	0.704100	0.355500	0.307100
C1031	C103	0.679100	0.341600	0.347000
C1041	C104	0.685200	0.381200	0.378100
C1051	C105	0.715200	0.433400	0.371500
C1061	C106	0.737800	0.448200	0.332100
C1071	C107	0.675000	0.312300	0.434800
C1081	C108	0.626600	0.274500	0.449400
C1091	C109	0.643700	0.219700	0.461800
C1101	C110	0.708300	0.200400	0.460100
C1111	C111	0.755800	0.237200	0.446900
C1121	C112	0.741100	0.292900	0.434600
C1131	C113	0.601000	0.393500	0.432000
C1141	C114	0.585500	0.394800	0.474800
C1151	C115	0.526100	0.416300	0.487300
C1161	C116	0.481000	0.440300	0.458200
C1171	C117	0.500600	0.443800	0.417300
C1181	C118	0.561000	0.421400	0.404000
C1191	C119	0.383500	0.458000	0.062400
C1201	C120	0.680100	0.131100	0.048200
C1211	C121	0.162600	0.472400	0.102200
C1221	C122	0.172700	0.471000	0.411700
C1231	C123	0.724300	0.138000	0.471300
C1241	C124	0.415700	0.458500	0.471500
C1251	C125	0.243000	0.326000	0.102000
C1261	C126	0.276000	0.343200	0.144600
C1271	C127	0.186000	0.274000	0.144100
C1281	C128	0.127000	0.279900	0.071700
C1291	C129	0.225600	0.093600	0.776500
C1301	C130	0.158900	0.086900	0.776900
C1311	C131	0.122200	0.105700	0.811200
C1321	C132	0.151400	0.130900	0.844900
C1331	C133	0.221100	0.135700	0.843700
C1341	C134	0.255100	0.119300	0.810400
C1351	C135	0.055300	0.124700	0.890800
C1361	C136	0.057500	0.065900	0.901800
C1371	C137	0.000900	0.040300	0.915800
C1381	C138	0.942700	0.069300	0.918800
C1391	C139	0.939400	0.127700	0.907400
C1401	C140	0.998100	0.153900	0.894100
C1411	C141	0.129000	0.206300	0.895800
C1421	C142	0.119000	0.216500	0.939100
C1431	C143	0.134600	0.268100	0.956200
C1441	C144	0.161700	0.313500	0.932500
C1451	C145	0.171900	0.303600	0.890100
C1461	C146	0.155100	0.252300	0.871600
C1471	C147	0.330700	0.075200	0.741000
C1481	C148	0.362500	0.034900	0.766000
C1491	C149	0.429600	0.032400	0.766400
C1501	C150	0.467000	0.068000	0.741800
C1511	C151	0.436800	0.106900	0.716900
C1521	C152	0.368700	0.111700	0.716000
C1531	C153	0.570800	0.056000	0.780000
C1541	C154	0.603500	0.004300	0.787200
C1551	C155	0.634700	0.995900	0.825700
C1561	C156	0.632500	0.038200	0.855500
C1571	C157	0.599900	0.087900	0.846900
C1581	C158	0.568100	0.097400	0.809700
C1591	C159	0.569800	0.053900	0.702600
C1601	C160	0.638400	0.063700	0.699800
C1611	C161	0.669500	0.054700	0.663400
C1621	C162	0.637800	0.039100	0.627500
C1631	C163	0.569200	0.031200	0.630000
C1641	C164	0.536500	0.038100	0.667200
C1651	C165	0.232900	0.090100	0.699800
C1661	C166	0.204100	0.144500	0.692900
C1671	C167	0.179100	0.158400	0.653000
C1681	C168	0.185200	0.118800	0.621900
C1691	C169	0.215200	0.066600	0.628500
C1701	C170	0.237800	0.051800	0.667900
C1711	C171	0.175000	0.187700	0.565200
C1721	C172	0.126600	0.225500	0.550600
C1731	C173	0.143700	0.280300	0.538200
C1741	C174	0.208300	0.299600	0.539900
C1751	C175	0.255800	0.262800	0.553100
C1761	C176	0.241100	0.207100	0.565400
C1771	C177	0.101000	0.106500	0.568000
C1781	C178	0.085500	0.105200	0.525200
C1791	C179	0.026100	0.083700	0.512700
C1801	C180	0.981000	0.059700	0.541800
C1811	C181	0.000600	0.056200	0.582700
C1821	C182	0.061000	0.078600	0.596000
C1831	C183	0.883500	0.042000	0.937600
C1841	C184	0.180100	0.368900	0.951800
C1851	C185	0.662600	0.027600	0.897800
C1861	C186	0.672700	0.029000	0.588300
C1871	C187	0.224300	0.362000	0.528700
C1881	C188	0.915700	0.041500	0.528500
C1891	C189	0.743000	0.174000	0.898000
C1901	C190	0.776000	0.156800	0.855400
C1911	C191	0.686000	0.226000	0.855900
C1921	C192	0.627000	0.220100	0.928300
C1931	C193	0.274400	0.906400	0.276500
C1941	C194	0.341100	0.913100	0.276900
C1951	C195	0.377800	0.894300	0.311200
C1961	C196	0.348600	0.869100	0.344900
C1971	C197	0.278900	0.864300	0.343700
C1981	C198	0.244900	0.880700	0.310400
C1991	C199	0.444700	0.875300	0.390800
C2001	C200	0.442500	0.934100	0.401800
C2011	C201	0.499100	0.959700	0.415800
C2021	C202	0.557300	0.930700	0.418800
C2031	C203	0.560600	0.872300	0.407400
C2041	C204	0.501900	0.846100	0.394100
C2051	C205	0.371000	0.793700	0.395800
C2061	C206	0.381000	0.783500	0.439100
C2071	C207	0.365400	0.731900	0.456200
C2081	C208	0.338300	0.686500	0.432500
C2091	C209	0.328100	0.696400	0.390100
C2101	C210	0.344900	0.747700	0.371600
C2111	C211	0.169300	0.924800	0.241000
C2121	C212	0.137500	0.965100	0.266000
C2131	C213	0.070400	0.967600	0.266400
C2141	C214	0.033000	0.932000	0.241800
C2151	C215	0.063200	0.893100	0.216900
C2161	C216	0.131300	0.888300	0.216000
C2171	C217	0.929200	0.944000	0.280000
C2181	C218	0.896500	0.995700	0.287200
C2191	C219	0.865300	0.004100	0.325700
C2201	C220	0.867500	0.961800	0.355500
C2211	C221	0.900100	0.912100	0.346900
C2221	C222	0.931900	0.902600	0.309700
C2231	C223	0.930200	0.946100	0.202600
C2241	C224	0.861600	0.936300	0.199800
C2251	C225	0.830500	0.945300	0.163400
C2261	C226	0.862200	0.960900	0.127500
C2271	C227	0.930800	0.968800	0.130000
C2281	C228	0.963500	0.961900	0.167200
C2291	C229	0.267100	0.909900	0.199800
C2301	C230	0.295900	0.855500	0.192900
C2311	C231	0.320900	0.841600	0.153000
C2321	C232	0.314800	0.881200	0.121900
C2331	C233	0.284800	0.933400	0.128500
C2341	C234	0.262200	0.948200	0.167900
C2351	C235	0.325000	0.812300	0.065200
C2361	C236	0.373400	0.774500	0.050600
C2371	C237	0.356300	0.719700	0.038200
C2381	C238	0.291700	0.700400	0.039900
C2391	C239	0.244200	0.737200	0.053100
C2401	C240	0.258900	0.792900	0.065400
C2411	C241	0.399000	0.893500	0.068000
C2421	C242	0.414500	0.894800	0.025200
C2431	C243	0.473900	0.916300	0.012700
C2441	C244	0.519000	0.940300	0.041800
C2451	C245	0.499400	0.943800	0.082700
C2461	C246	0.439000	0.921400	0.096000
C2471	C247	0.616500	0.958000	0.437600
C2481	C248	0.319900	0.631100	0.451800
C2491	C249	0.837400	0.972400	0.397800
C2501	C250	0.827300	0.971000	0.088300
C2511	C251	0.275700	0.638000	0.028700
C2521	C252	0.584300	0.958500	0.028500
C2531	C253	0.757000	0.826000	0.398000
C2541	C254	0.724000	0.843200	0.355400
C2551	C255	0.814000	0.774000	0.355900
C2561	C256	0.873000	0.779900	0.428300
N11	N1	0.738800	0.578000	0.760100
N21	N2	0.884300	0.653500	0.620500
N31	N3	0.461900	0.564300	0.759100
N41	N4	0.840000	0.633900	0.919400
N51	N5	0.320000	0.706000	0.600700
N61	N6	0.761200	0.422000	0.260100
N71	N7	0.615700	0.346500	0.120500
N81	N8	0.038100	0.435700	0.259100
N91	N9	0.660000	0.366100	0.419400
N101	N10	0.180000	0.294000	0.100700
N111	N11	0.261200	0.078000	0.739900
N121	N12	0.115700	0.153500	0.879500
N131	N13	0.538100	0.064300	0.740900
N141	N14	0.160000	0.133900	0.580600
N151	N15	0.680000	0.206000	0.899300
N161	N16	0.238800	0.922000	0.239900
N171	N17	0.384300	0.846500	0.379500
N181	N18	0.961900	0.935700	0.240900
N191	N19	0.340000	0.866100	0.080600
N201	N20	0.820000	0.794000	0.399300
O11	O1	0.257600	0.510200	0.505590
O21	O2	0.105700	0.499800	0.538890
O31	O3	0.173300	0.562700	0.571600
O41	O4	0.821800	0.874700	0.509140
O51	O5	0.802800	0.908500	0.572700
O61	O6	0.325400	0.474000	0.593830
O71	O7	0.328500	0.567800	0.577900
O81	O8	0.265900	0.527700	0.910940
O91	O9	0.362000	0.523200	0.945000
O101	O10	0.718200	0.877200	0.964800
O111	O11	0.820800	0.890400	0.986930
O121	O12	0.098300	0.546700	0.009890
O131	O13	0.121200	0.521000	0.943980
O141	O14	0.251600	0.665400	0.564800
O151	O15	0.242400	0.489800	0.005590
O161	O16	0.394300	0.500200	0.038890
O171	O17	0.326700	0.437300	0.071600
O181	O18	0.678200	0.125300	0.009140
O191	O19	0.697200	0.091500	0.072700
O201	O20	0.174600	0.526000	0.093830
O211	O21	0.171500	0.432200	0.077900
O221	O22	0.234100	0.472300	0.410940
O231	O23	0.138000	0.476800	0.445000
O241	O24	0.781800	0.122800	0.464800
O251	O25	0.679200	0.109600	0.486930
O261	O26	0.401700	0.453300	0.509890
O271	O27	0.378800	0.479000	0.443980
O281	O28	0.248400	0.334600	0.064800
O291	O29	0.742400	0.010200	0.994410
O301	O30	0.894300	0.999800	0.961110
O311	O31	0.826700	0.062700	0.928400
O321	O32	0.178200	0.374700	0.990860
O331	O33	0.197200	0.408500	0.927300
O341	O34	0.674600	0.974000	0.906170
O351	O35	0.671500	0.067800	0.922100
O361	O36	0.734100	0.027700	0.589060
O371	O37	0.638000	0.023200	0.555000
O381	O38	0.281800	0.377200	0.535200
O391	O39	0.179200	0.390400	0.513070
O401	O40	0.901700	0.046700	0.490110
O411	O41	0.878800	0.021000	0.556020
O421	O42	0.748400	0.165400	0.935200
O431	O43	0.757600	0.989800	0.494410
O441	O44	0.605700	0.000200	0.461110
O451	O45	0.673300	0.937300	0.428400
O461	O46	0.321800	0.625300	0.490860
O471	O47	0.302800	0.591500	0.427300
O481	O48	0.825400	0.026000	0.406170
O491	O49	0.828500	0.932200	0.422100
O501	O50	0.765900	0.972300	0.089060
O511	O51	0.862000	0.976800	0.055000
O521	O52	0.218200	0.622800	0.035200
O531	O53	0.320800	0.609600	0.013070
O541	O54	0.598300	0.953300	0.990110
O551	O55	0.621200	0.979000	0.056020
O561	O56	0.751600	0.834600	0.435200
