data_QUSBEM_charged_PM
_symmetry_space_group_name_H-M	'P1'
_cell_length_a	6.590900
_cell_length_b	10.382100
_cell_length_c	17.692100
_cell_angle_alpha	92.278700
_cell_angle_beta	100.735000
_cell_angle_gamma	77.674900
_symmetry_Int_Tables_number 1

loop_
_symmetry_equiv_pos_as_xyz
'x,y,z'

loop_
_atom_site_label
_atom_site_type_symbol
_atom_site_fract_x
_atom_site_fract_y
_atom_site_fract_z
Li11	Li1	0.377070	0.750000	0.754140
Li21	Li2	0.622930	0.250000	0.245860
Cd11	Cd1	0.879920	0.750000	0.759840
Cd21	Cd2	0.120080	0.250000	0.240160
H11	H1	0.293400	0.605400	0.580600
H21	H2	0.875300	0.470900	0.534000
H31	H3	0.314200	0.884800	0.905800
H41	H4	0.826800	0.039800	0.988600
H51	H5	0.287200	0.894600	0.580600
H61	H6	0.658700	0.029100	0.534000
H71	H7	0.591600	0.615200	0.905800
H81	H8	0.161800	0.460200	0.988600
H91	H9	0.706600	0.394600	0.419400
H101	H10	0.124700	0.529100	0.466000
H111	H11	0.685800	0.115200	0.094200
H121	H12	0.173200	0.960200	0.011400
H131	H13	0.712800	0.105400	0.419400
H141	H14	0.341300	0.970900	0.466000
H151	H15	0.408400	0.384800	0.094200
H161	H16	0.838200	0.539800	0.011400
C11	C1	0.680940	0.602400	0.646080
C21	C2	0.585030	0.548900	0.570260
C31	C3	0.368580	0.565000	0.548760
C41	C4	0.716890	0.483900	0.520980
C51	C5	0.688020	0.895300	0.869240
C61	C6	0.588310	0.950710	0.936220
C71	C7	0.394150	0.927200	0.944700
C81	C8	0.692720	0.024500	0.991840
C91	C9	0.965140	0.897600	0.646080
C101	C10	0.985230	0.951100	0.570260
C111	C11	0.180180	0.935000	0.548760
C121	C12	0.804090	0.016100	0.520980
C131	C13	0.181220	0.604700	0.869240
C141	C14	0.347910	0.549290	0.936220
C151	C15	0.550550	0.572800	0.944700
C161	C16	0.299120	0.475500	0.991840
C171	C17	0.319060	0.397600	0.353920
C181	C18	0.414970	0.451100	0.429740
C191	C19	0.631420	0.435000	0.451240
C201	C20	0.283110	0.516100	0.479020
C211	C21	0.311980	0.104700	0.130760
C221	C22	0.411690	0.049290	0.063780
C231	C23	0.605850	0.072800	0.055300
C241	C24	0.307280	0.975500	0.008160
C251	C25	0.034860	0.102400	0.353920
C261	C26	0.014770	0.048900	0.429740
C271	C27	0.819820	0.065000	0.451240
C281	C28	0.195910	0.983900	0.479020
C291	C29	0.818780	0.395300	0.130760
C301	C30	0.652090	0.450710	0.063780
C311	C31	0.449450	0.427200	0.055300
C321	C32	0.700880	0.524500	0.008160
O11	O1	0.875810	0.597500	0.660020
O21	O2	0.561860	0.650800	0.691320
O31	O3	0.585720	0.832970	0.818240
O41	O4	0.868500	0.909920	0.865000
O51	O5	0.784210	0.902500	0.660020
O61	O6	0.129460	0.849200	0.691320
O71	O7	0.232520	0.667030	0.818240
O81	O8	0.996500	0.590080	0.865000
O91	O9	0.124190	0.402500	0.339980
O101	O10	0.438140	0.349200	0.308680
O111	O11	0.414280	0.167030	0.181760
O121	O12	0.131500	0.090080	0.135000
O131	O13	0.215790	0.097500	0.339980
O141	O14	0.870540	0.150800	0.308680
O151	O15	0.767480	0.332970	0.181760
O161	O16	0.003500	0.409920	0.135000
H171	H17	0.737000	0.882600	0.239600
H181	H18	0.601700	0.933400	0.303000
H191	H19	0.491700	0.894200	0.221400
H201	H20	0.502600	0.617400	0.239600
H211	H21	0.701300	0.566600	0.303000
H221	H22	0.729700	0.605800	0.221400
C331	C33	0.616200	0.873800	0.260400
C341	C34	0.644200	0.626200	0.260400
N11	N1	0.642380	0.750000	0.284760
H231	H23	0.263000	0.117400	0.760400
H241	H24	0.398300	0.066600	0.697000
H251	H25	0.508300	0.105800	0.778600
H261	H26	0.497400	0.382600	0.760400
H271	H27	0.298700	0.433400	0.697000
H281	H28	0.270300	0.394200	0.778600
C351	C35	0.383800	0.126200	0.739600
C361	C36	0.355800	0.373800	0.739600
N21	N2	0.357620	0.250000	0.715240
