data_QUSRUT_freeONLY_PM
_symmetry_space_group_name_H-M	'P1'
_cell_length_a	14.533000
_cell_length_b	15.479000
_cell_length_c	15.666000
_cell_angle_alpha	74.643000
_cell_angle_beta	74.576000
_cell_angle_gamma	81.431000
_symmetry_Int_Tables_number 1

loop_
_symmetry_equiv_pos_as_xyz
'x,y,z'

loop_
_atom_site_label
_atom_site_type_symbol
_atom_site_fract_x
_atom_site_fract_y
_atom_site_fract_z
U11	U1	0.455850	0.343300	0.762940
U21	U2	0.521060	0.858950	0.820520
U31	U3	0.268240	0.921170	0.584510
U41	U4	0.841900	0.497010	0.807620
U51	U5	0.813480	0.521010	0.432920
C11	C1	0.382200	0.535800	0.608500
C21	C2	0.453400	0.603900	0.591800
H11	H1	0.499500	0.602100	0.534600
H21	H2	0.419400	0.663300	0.584600
C31	C3	0.642400	0.479700	0.635500
C41	C4	0.610200	0.573000	0.637300
H31	H3	0.636600	0.610900	0.578100
H41	H4	0.635700	0.589100	0.681700
C51	C5	0.668500	0.660100	0.867300
C61	C6	0.600600	0.591200	0.935000
H51	H5	0.612500	0.536000	0.914200
H61	H6	0.616000	0.577700	0.994000
C71	C7	0.463300	0.726500	0.049400
C81	C8	0.443400	0.638000	0.035600
H71	H7	0.459900	0.589200	0.083900
H81	H8	0.375500	0.638800	0.039800
C91	C9	0.192600	0.770600	0.714500
C101	C10	0.173500	0.677400	0.774600
H91	H9	0.104900	0.673900	0.797800
H101	H10	0.197300	0.633300	0.738300
C111	C11	0.166600	0.620400	0.018200
C121	C12	0.170900	0.691900	0.930000
H111	H11	0.106400	0.715600	0.925100
H121	H12	0.204900	0.741000	0.930600
C131	C13	0.882200	0.614600	0.582200
C141	C14	0.921100	0.703400	0.540900
H131	H13	0.875100	0.749200	0.563600
H141	H14	0.979300	0.703400	0.560000
C151	C15	0.027400	0.627900	0.336600
C161	C16	0.029700	0.698900	0.388900
H151	H15	0.072500	0.674600	0.429300
H161	H16	0.056900	0.751300	0.345200
C171	C17	0.634200	0.896900	0.590400
C181	C18	0.608200	0.828500	0.548900
H171	H17	0.640500	0.770300	0.570200
H181	H18	0.539700	0.823100	0.569300
C191	C19	0.573200	0.982700	0.338700
C201	C20	0.558500	0.895300	0.401900
H191	H19	0.549200	0.854100	0.368300
H201	H20	0.499400	0.901300	0.447400
C211	C21	0.690000	0.775300	0.164100
C221	C22	0.759500	0.848600	0.136500
H211	H21	0.783300	0.861700	0.070800
H221	H22	0.723900	0.902800	0.151800
C231	C23	0.317800	0.637400	0.834600
C241	C24	0.456700	0.605200	0.744300
C251	C25	0.450200	0.619600	0.881400
C261	C26	0.869900	0.770300	0.399600
C271	C27	0.720100	0.828900	0.402600
C281	C28	0.821900	0.820600	0.267500
C291	C29	0.929400	0.802300	0.130100
H231	H23	0.929300	0.788400	0.073300
H241	H24	0.960200	0.752000	0.167400
C301	C30	0.973000	0.890000	0.115000
N11	N1	0.504700	0.600500	0.805400
N21	N2	0.355300	0.635300	0.902200
N31	N3	0.361200	0.623800	0.752700
N41	N4	0.504100	0.592600	0.659800
N51	N5	0.219000	0.655300	0.851300
N61	N6	0.498100	0.621300	0.946400
N71	N7	0.787000	0.791400	0.448200
N81	N8	0.732600	0.844300	0.311400
N91	N9	0.895400	0.788500	0.305200
N101	N10	0.634600	0.853100	0.450100
N111	N11	0.942400	0.726600	0.440200
N121	N12	0.838500	0.829000	0.176200
O11	O1	0.403700	0.408300	0.843600
O21	O2	0.502700	0.276600	0.685900
O31	O3	0.591500	0.924600	0.848900
O41	O4	0.449600	0.798700	0.787300
O51	O5	0.173100	0.998200	0.623300
O61	O6	0.362200	0.841200	0.549200
O71	O7	0.728400	0.469500	0.810200
O81	O8	0.955700	0.522000	0.805000
O91	O9	0.740100	0.621200	0.423500
O101	O10	0.885000	0.419400	0.437900
O111	O11	0.308900	0.559900	0.578600
O121	O12	0.401100	0.455900	0.651100
O131	O13	0.596200	0.416000	0.697800
O141	O14	0.718500	0.460300	0.582400
O151	O15	0.755600	0.629900	0.846500
O161	O16	0.638400	0.737000	0.838600
O171	O17	0.486400	0.789300	0.984300
O181	O18	0.447600	0.728700	0.132900
O191	O19	0.237800	0.821800	0.737600
O201	O20	0.168000	0.792700	0.640700
O211	O21	0.185600	0.540900	0.025500
O221	O22	0.138000	0.650000	0.091200
O231	O23	0.856900	0.596100	0.665900
O241	O24	0.879300	0.559500	0.536300
O251	O25	0.955500	0.589500	0.348400
O261	O26	0.105700	0.611700	0.280800
O271	O27	0.629700	0.873100	0.674700
O281	O28	0.662000	0.972000	0.543000
O291	O29	0.625300	0.031200	0.350400
O301	O30	0.527300	0.006300	0.280000
O311	O31	0.708100	0.701700	0.214200
O321	O32	0.613400	0.794200	0.135300
O331	O33	0.377100	0.925200	0.899700
H251	H25	0.352600	0.966200	0.862000
H261	H26	0.338200	0.885000	0.926000
O341	O34	0.190200	0.908700	0.467900
H271	H27	0.205200	0.950800	0.420500
H281	H28	0.208700	0.858200	0.454400
O351	O35	0.826400	0.540200	0.270300
H291	H29	0.875200	0.568400	0.240100
H301	H30	0.832800	0.488700	0.258600
O361	O36	0.016100	0.953300	0.114100
O371	O37	0.053000	0.860000	0.071000
H311	H31	0.052400	0.806200	0.076200
U61	U6	0.544150	0.656700	0.237060
U71	U7	0.478940	0.141050	0.179480
U81	U8	0.731760	0.078830	0.415490
U91	U9	0.158100	0.502990	0.192380
U101	U10	0.186520	0.478990	0.567080
C311	C31	0.617800	0.464200	0.391500
C321	C32	0.546600	0.396100	0.408200
H321	H32	0.500500	0.397900	0.465400
H331	H33	0.580600	0.336700	0.415400
C331	C33	0.357600	0.520300	0.364500
C341	C34	0.389800	0.427000	0.362700
H341	H34	0.363400	0.389100	0.421900
H351	H35	0.364300	0.410900	0.318300
C351	C35	0.331500	0.339900	0.132700
C361	C36	0.399400	0.408800	0.065000
H361	H36	0.387500	0.464000	0.085800
H371	H37	0.384000	0.422300	0.006000
C371	C37	0.536700	0.273500	0.950600
C381	C38	0.556600	0.362000	0.964400
H381	H38	0.540100	0.410800	0.916100
H391	H39	0.624500	0.361200	0.960200
C391	C39	0.807400	0.229400	0.285500
C401	C40	0.826500	0.322600	0.225400
H401	H40	0.895100	0.326100	0.202200
H411	H41	0.802700	0.366700	0.261700
C411	C41	0.833400	0.379600	0.981800
C421	C42	0.829100	0.308100	0.070000
H421	H42	0.893600	0.284400	0.074900
H431	H43	0.795100	0.259000	0.069400
C431	C43	0.117800	0.385400	0.417800
C441	C44	0.078900	0.296600	0.459100
H441	H44	0.124900	0.250800	0.436400
H451	H45	0.020700	0.296600	0.440000
C451	C45	0.972600	0.372100	0.663400
C461	C46	0.970300	0.301100	0.611100
H461	H46	0.927500	0.325400	0.570700
H471	H47	0.943100	0.248700	0.654800
C471	C47	0.365800	0.103100	0.409600
C481	C48	0.391800	0.171500	0.451100
H481	H48	0.359500	0.229700	0.429800
H491	H49	0.460300	0.176900	0.430700
C491	C49	0.426800	0.017300	0.661300
C501	C50	0.441500	0.104700	0.598100
H501	H50	0.450800	0.145900	0.631700
H511	H51	0.500600	0.098700	0.552600
C511	C51	0.310000	0.224700	0.835900
C521	C52	0.240500	0.151400	0.863500
H521	H52	0.216700	0.138300	0.929200
H531	H53	0.276100	0.097200	0.848200
C531	C53	0.682200	0.362600	0.165400
C541	C54	0.543300	0.394800	0.255700
C551	C55	0.549800	0.380400	0.118600
C561	C56	0.130100	0.229700	0.600400
C571	C57	0.279900	0.171100	0.597400
C581	C58	0.178100	0.179400	0.732500
C591	C59	0.070600	0.197700	0.869900
H541	H54	0.070700	0.211600	0.926700
H551	H55	0.039800	0.248000	0.832600
C601	C60	0.027000	0.110000	0.885000
N131	N13	0.495300	0.399500	0.194600
N141	N14	0.644700	0.364700	0.097800
N151	N15	0.638800	0.376200	0.247300
N161	N16	0.495900	0.407400	0.340200
N171	N17	0.781000	0.344700	0.148700
N181	N18	0.501900	0.378700	0.053600
N191	N19	0.213000	0.208600	0.551800
N201	N20	0.267400	0.155700	0.688600
N211	N21	0.104600	0.211500	0.694800
N221	N22	0.365400	0.146900	0.549900
N231	N23	0.057600	0.273400	0.559800
N241	N24	0.161500	0.171000	0.823800
O381	O38	0.596300	0.591700	0.156400
O391	O39	0.497300	0.723400	0.314100
O401	O40	0.408500	0.075400	0.151100
O411	O41	0.550400	0.201300	0.212700
O421	O42	0.826900	0.001800	0.376700
O431	O43	0.637800	0.158800	0.450800
O441	O44	0.271600	0.530500	0.189800
O451	O45	0.044300	0.478000	0.195000
O461	O46	0.259900	0.378800	0.576500
O471	O47	0.115000	0.580600	0.562100
O481	O48	0.691100	0.440100	0.421400
O491	O49	0.598900	0.544100	0.348900
O501	O50	0.403800	0.584000	0.302200
O511	O51	0.281500	0.539700	0.417600
O521	O52	0.244400	0.370100	0.153500
O531	O53	0.361600	0.263000	0.161400
O541	O54	0.513600	0.210700	0.015700
O551	O55	0.552400	0.271300	0.867100
O561	O56	0.762200	0.178200	0.262400
O571	O57	0.832000	0.207300	0.359300
O581	O58	0.814400	0.459100	0.974500
O591	O59	0.862000	0.350000	0.908800
O601	O60	0.143100	0.403900	0.334100
O611	O61	0.120700	0.440500	0.463700
O621	O62	0.044500	0.410500	0.651600
O631	O63	0.894300	0.388300	0.719200
O641	O64	0.370300	0.126900	0.325300
O651	O65	0.338000	0.028000	0.457000
O661	O66	0.374700	0.968800	0.649600
O671	O67	0.472700	0.993700	0.720000
O681	O68	0.291900	0.298300	0.785800
O691	O69	0.386600	0.205800	0.864700
O701	O70	0.622900	0.074800	0.100300
H561	H56	0.647400	0.033800	0.138000
H571	H57	0.661800	0.115000	0.074000
O711	O71	0.809800	0.091300	0.532100
H581	H58	0.794800	0.049200	0.579500
H591	H59	0.791300	0.141800	0.545600
O721	O72	0.173600	0.459800	0.729700
H601	H60	0.124800	0.431600	0.759900
H611	H61	0.167200	0.511300	0.741400
O731	O73	0.983900	0.046700	0.885900
O741	O74	0.947000	0.140000	0.929000
H621	H62	0.947600	0.193800	0.923800
