data_QUTVIM_freeONLY_PM
_symmetry_space_group_name_H-M	'P1'
_cell_length_a	15.380500
_cell_length_b	8.433500
_cell_length_c	13.896900
_cell_angle_alpha	90.000000
_cell_angle_beta	107.583000
_cell_angle_gamma	90.000000
_symmetry_Int_Tables_number 1

loop_
_symmetry_equiv_pos_as_xyz
'x,y,z'

loop_
_atom_site_label
_atom_site_type_symbol
_atom_site_fract_x
_atom_site_fract_y
_atom_site_fract_z
C11	C1	0.686960	0.438780	0.430540
N11	N1	0.646090	0.547780	0.391340
C21	C2	0.664910	0.120160	0.398490
N21	N2	0.613840	0.045060	0.337940
N31	N3	0.889110	0.245580	0.378800
C31	C3	0.836350	0.248250	0.422310
C41	C4	0.186960	0.938780	0.430540
N41	N4	0.146090	0.047780	0.391340
C51	C5	0.164910	0.620160	0.398490
N51	N5	0.113840	0.545060	0.337940
N61	N6	0.389110	0.745580	0.378800
C61	C6	0.336350	0.748250	0.422310
C71	C7	0.313040	0.438780	0.069460
N71	N7	0.353910	0.547780	0.108660
C81	C8	0.335090	0.120160	0.101510
N81	N8	0.386160	0.045060	0.162060
N91	N9	0.110890	0.245580	0.121200
C91	C9	0.163650	0.248250	0.077690
C101	C10	0.813040	0.938780	0.069460
N101	N10	0.853910	0.047780	0.108660
C111	C11	0.835090	0.620160	0.101510
N111	N11	0.886160	0.545060	0.162060
N121	N12	0.610890	0.745580	0.121200
C121	C12	0.663650	0.748250	0.077690
C131	C13	0.313040	0.561220	0.569460
N131	N13	0.353910	0.452220	0.608660
C141	C14	0.335090	0.879840	0.601510
N141	N14	0.386160	0.954940	0.662060
N151	N15	0.110890	0.754420	0.621200
C151	C15	0.163650	0.751750	0.577690
C161	C16	0.813040	0.061220	0.569460
N161	N16	0.853910	0.952220	0.608660
C171	C17	0.835090	0.379840	0.601510
N171	N17	0.886160	0.454940	0.662060
N181	N18	0.610890	0.254420	0.621200
C181	C18	0.663650	0.251750	0.577690
C191	C19	0.686960	0.561220	0.930540
N191	N19	0.646090	0.452220	0.891340
C201	C20	0.664910	0.879840	0.898490
N201	N20	0.613840	0.954940	0.837940
N211	N21	0.889110	0.754420	0.878800
C211	C21	0.836350	0.751750	0.922310
C221	C22	0.186960	0.061220	0.930540
N221	N22	0.146090	0.952220	0.891340
C231	C23	0.164910	0.379840	0.898490
N231	N23	0.113840	0.454940	0.837940
N241	N24	0.389110	0.254420	0.878800
C241	C24	0.336350	0.251750	0.922310
K11	K1	0.500000	0.780050	0.250000
K21	K2	0.000000	0.280050	0.250000
K31	K3	0.500000	0.219950	0.750000
K41	K4	0.000000	0.719950	0.750000
Fe11	Fe1	0.750000	0.250000	0.500000
Fe21	Fe2	0.250000	0.250000	0.000000
Fe31	Fe3	0.250000	0.750000	0.500000
Fe41	Fe4	0.750000	0.750000	0.000000
