data_QUXRUY_freeONLY_PM
_symmetry_space_group_name_H-M	'P1'
_cell_length_a	11.642600
_cell_length_b	5.557400
_cell_length_c	22.844600
_cell_angle_alpha	90.000000
_cell_angle_beta	100.681000
_cell_angle_gamma	90.000000
_symmetry_Int_Tables_number 1

loop_
_symmetry_equiv_pos_as_xyz
'x,y,z'

loop_
_atom_site_label
_atom_site_type_symbol
_atom_site_fract_x
_atom_site_fract_y
_atom_site_fract_z
Ca11	Ca1	0.637250	0.741450	0.221250
S11	S1	0.397390	0.532990	0.106090
O11	O1	0.259560	0.587730	0.808920
O21	O2	0.263330	0.979210	0.828170
O31	O3	0.987260	0.974350	0.246900
O41	O4	0.958390	0.578910	0.256340
O51	O5	0.414230	0.276720	0.109670
O61	O6	0.494530	0.691090	0.129070
C11	C1	0.273130	0.764300	0.844640
C21	C2	0.297300	0.709700	0.910110
C31	C3	0.265260	0.489100	0.931150
H11	H1	0.225300	0.373700	0.904100
C41	C4	0.291700	0.438000	0.991680
H21	H2	0.269000	0.289000	0.006500
C51	C5	0.351950	0.608300	0.030310
C61	C6	0.381140	0.832100	0.010290
H31	H3	0.419600	0.948800	0.037400
C71	C7	0.352910	0.881700	0.949730
H41	H4	0.371700	0.034200	0.935300
C81	C8	0.280030	0.606800	0.141470
C91	C9	0.190840	0.438600	0.140170
H51	H5	0.191200	0.292700	0.118500
C101	C10	0.101350	0.487900	0.171070
H61	H6	0.041000	0.373300	0.171500
C111	C11	0.100160	0.705200	0.201370
C121	C12	0.006770	0.756700	0.237660
C131	C13	0.188320	0.874300	0.200360
H71	H7	0.185700	0.024300	0.220000
C141	C14	0.280060	0.825500	0.170880
H81	H8	0.341100	0.938800	0.170900
Ca21	Ca2	0.862750	0.241450	0.278740
S21	S2	0.102610	0.032990	0.393910
O71	O7	0.240440	0.087730	0.691080
O81	O8	0.236670	0.479210	0.671830
O91	O9	0.512740	0.474350	0.253100
O101	O10	0.541610	0.078910	0.243660
O111	O11	0.085770	0.776720	0.390330
O121	O12	0.005470	0.191090	0.370930
C151	C15	0.226870	0.264300	0.655360
C161	C16	0.202700	0.209700	0.589890
C171	C17	0.234740	0.989100	0.568850
H91	H9	0.274700	0.873700	0.595900
C181	C18	0.208300	0.938000	0.508320
H101	H10	0.231000	0.789000	0.493500
C191	C19	0.148050	0.108300	0.469690
C201	C20	0.118860	0.332100	0.489710
H111	H11	0.080400	0.448800	0.462600
C211	C21	0.147090	0.381700	0.550270
H121	H12	0.128300	0.534200	0.564700
C221	C22	0.219970	0.106800	0.358530
C231	C23	0.309160	0.938600	0.359830
H131	H13	0.308800	0.792700	0.381500
C241	C24	0.398650	0.987900	0.328930
H141	H14	0.459000	0.873300	0.328500
C251	C25	0.399840	0.205200	0.298630
C261	C26	0.493230	0.256700	0.262340
C271	C27	0.311680	0.374300	0.299640
H151	H15	0.314300	0.524300	0.280000
C281	C28	0.219940	0.325500	0.329120
H161	H16	0.158900	0.438800	0.329100
Ca31	Ca3	0.362750	0.258550	0.778740
S31	S3	0.602610	0.467010	0.893910
O131	O13	0.740440	0.412270	0.191080
O141	O14	0.736670	0.020790	0.171830
O151	O15	0.012740	0.025650	0.753100
O161	O16	0.041610	0.421090	0.743660
O171	O17	0.585770	0.723280	0.890330
O181	O18	0.505470	0.308910	0.870930
C291	C29	0.726870	0.235700	0.155360
C301	C30	0.702700	0.290300	0.089890
C311	C31	0.734740	0.510900	0.068850
H171	H17	0.774700	0.626300	0.095900
C321	C32	0.708300	0.562000	0.008320
H181	H18	0.731000	0.711000	0.993500
C331	C33	0.648050	0.391700	0.969690
C341	C34	0.618860	0.167900	0.989710
H191	H19	0.580400	0.051200	0.962600
C351	C35	0.647090	0.118300	0.050270
H201	H20	0.628300	0.965800	0.064700
C361	C36	0.719970	0.393200	0.858530
C371	C37	0.809160	0.561400	0.859830
H211	H21	0.808800	0.707300	0.881500
C381	C38	0.898650	0.512100	0.828930
H221	H22	0.959000	0.626700	0.828500
C391	C39	0.899840	0.294800	0.798630
C401	C40	0.993230	0.243300	0.762340
C411	C41	0.811680	0.125700	0.799640
H231	H23	0.814300	0.975700	0.780000
C421	C42	0.719940	0.174500	0.829120
H241	H24	0.658900	0.061200	0.829100
Ca41	Ca4	0.137250	0.758550	0.721250
S41	S4	0.897390	0.967010	0.606090
O191	O19	0.759560	0.912270	0.308920
O201	O20	0.763330	0.520790	0.328170
O211	O21	0.487260	0.525650	0.746900
O221	O22	0.458390	0.921090	0.756340
O231	O23	0.914230	0.223280	0.609670
O241	O24	0.994530	0.808910	0.629070
C431	C43	0.773130	0.735700	0.344640
C441	C44	0.797300	0.790300	0.410110
C451	C45	0.765260	0.010900	0.431150
H251	H25	0.725300	0.126300	0.404100
C461	C46	0.791700	0.062000	0.491680
H261	H26	0.769000	0.211000	0.506500
C471	C47	0.851950	0.891700	0.530310
C481	C48	0.881140	0.667900	0.510290
H271	H27	0.919600	0.551200	0.537400
C491	C49	0.852910	0.618300	0.449730
H281	H28	0.871700	0.465800	0.435300
C501	C50	0.780030	0.893200	0.641470
C511	C51	0.690840	0.061400	0.640170
H291	H29	0.691200	0.207300	0.618500
C521	C52	0.601350	0.012100	0.671070
H301	H30	0.541000	0.126700	0.671500
C531	C53	0.600160	0.794800	0.701370
C541	C54	0.506770	0.743300	0.737660
C551	C55	0.688320	0.625700	0.700360
H311	H31	0.685700	0.475700	0.720000
C561	C56	0.780060	0.674500	0.670880
H321	H32	0.841100	0.561200	0.670900
