data_QUXROS_freeONLY_PM
_symmetry_space_group_name_H-M	'P1'
_cell_length_a	11.707300
_cell_length_b	5.564700
_cell_length_c	22.830000
_cell_angle_alpha	90.000000
_cell_angle_beta	100.586000
_cell_angle_gamma	90.000000
_symmetry_Int_Tables_number 1

loop_
_symmetry_equiv_pos_as_xyz
'x,y,z'

loop_
_atom_site_label
_atom_site_type_symbol
_atom_site_fract_x
_atom_site_fract_y
_atom_site_fract_z
Ca11	Ca1	0.637290	0.256660	0.221920
S11	S1	0.398460	0.464930	0.106740
O11	O1	0.264260	0.023100	0.827920
O21	O2	0.260530	0.414900	0.809110
O31	O3	0.415390	0.720900	0.110510
O41	O4	0.494800	0.306100	0.129650
O51	O5	0.987110	0.024100	0.246390
O61	O6	0.958040	0.419600	0.255350
C11	C1	0.100830	0.292500	0.201100
C21	C2	0.298680	0.291500	0.910410
C31	C3	0.192340	0.559600	0.140510
H11	H1	0.193200	0.705500	0.119000
C41	C4	0.267600	0.512000	0.931650
H21	H2	0.228300	0.628100	0.904700
C51	C5	0.102620	0.510300	0.171000
H31	H3	0.042600	0.624800	0.171400
C61	C6	0.294240	0.562100	0.992370
H41	H4	0.272200	0.710900	0.007400
C71	C7	0.382100	0.167400	0.010420
H51	H5	0.420100	0.050200	0.037400
C81	C8	0.188570	0.124200	0.200440
H61	H6	0.185600	0.974500	0.220100
C91	C9	0.280460	0.172200	0.171320
H71	H7	0.341100	0.058600	0.171400
C101	C10	0.274200	0.238200	0.844620
C111	C11	0.353960	0.119100	0.949830
H81	H8	0.372600	0.967100	0.935200
C121	C12	0.006590	0.241000	0.236990
C131	C13	0.353530	0.390800	0.030670
C141	C14	0.281170	0.391300	0.142030
Ca21	Ca2	0.862710	0.756660	0.278080
S21	S2	0.101540	0.964930	0.393260
O71	O7	0.235740	0.523100	0.672080
O81	O8	0.239470	0.914900	0.690890
O91	O9	0.084610	0.220900	0.389490
O101	O10	0.005200	0.806100	0.370350
O111	O11	0.512890	0.524100	0.253610
O121	O12	0.541960	0.919600	0.244650
C151	C15	0.399170	0.792500	0.298900
C161	C16	0.201320	0.791500	0.589590
C171	C17	0.307660	0.059600	0.359490
H91	H9	0.306800	0.205500	0.381000
C181	C18	0.232400	0.012000	0.568350
H101	H10	0.271700	0.128100	0.595300
C191	C19	0.397380	0.010300	0.329000
H111	H11	0.457400	0.124800	0.328600
C201	C20	0.205760	0.062100	0.507630
H121	H12	0.227800	0.210900	0.492600
C211	C21	0.117900	0.667400	0.489580
H131	H13	0.079900	0.550200	0.462600
C221	C22	0.311430	0.624200	0.299560
H141	H14	0.314400	0.474500	0.279900
C231	C23	0.219540	0.672200	0.328680
H151	H15	0.158900	0.558600	0.328600
C241	C24	0.225800	0.738200	0.655380
C251	C25	0.146040	0.619100	0.550170
H161	H16	0.127400	0.467100	0.564800
C261	C26	0.493410	0.741000	0.263010
C271	C27	0.146470	0.890800	0.469330
C281	C28	0.218830	0.891300	0.357970
Ca31	Ca3	0.362710	0.743340	0.778080
S31	S3	0.601540	0.535070	0.893260
O131	O13	0.735740	0.976900	0.172080
O141	O14	0.739470	0.585100	0.190890
O151	O15	0.584610	0.279100	0.889490
O161	O16	0.505200	0.693900	0.870350
O171	O17	0.012890	0.975900	0.753610
O181	O18	0.041960	0.580400	0.744650
C291	C29	0.899170	0.707500	0.798900
C301	C30	0.701320	0.708500	0.089590
C311	C31	0.807660	0.440400	0.859490
H171	H17	0.806800	0.294500	0.881000
C321	C32	0.732400	0.488000	0.068350
H181	H18	0.771700	0.371900	0.095300
C331	C33	0.897380	0.489700	0.829000
H191	H19	0.957400	0.375200	0.828600
C341	C34	0.705760	0.437900	0.007630
H201	H20	0.727800	0.289100	0.992600
C351	C35	0.617900	0.832600	0.989580
H211	H21	0.579900	0.949800	0.962600
C361	C36	0.811430	0.875800	0.799560
H221	H22	0.814400	0.025500	0.779900
C371	C37	0.719540	0.827800	0.828680
H231	H23	0.658900	0.941400	0.828600
C381	C38	0.725800	0.761800	0.155380
C391	C39	0.646040	0.880900	0.050170
H241	H24	0.627400	0.032900	0.064800
C401	C40	0.993410	0.759000	0.763010
C411	C41	0.646470	0.609200	0.969330
C421	C42	0.718830	0.608700	0.857970
Ca41	Ca4	0.137290	0.243340	0.721920
S41	S4	0.898460	0.035070	0.606740
O191	O19	0.764260	0.476900	0.327920
O201	O20	0.760530	0.085100	0.309110
O211	O21	0.915390	0.779100	0.610510
O221	O22	0.994800	0.193900	0.629650
O231	O23	0.487110	0.475900	0.746390
O241	O24	0.458040	0.080400	0.755350
C431	C43	0.600830	0.207500	0.701100
C441	C44	0.798680	0.208500	0.410410
C451	C45	0.692340	0.940400	0.640510
H251	H25	0.693200	0.794500	0.619000
C461	C46	0.767600	0.988000	0.431650
H261	H26	0.728300	0.871900	0.404700
C471	C47	0.602620	0.989700	0.671000
H271	H27	0.542600	0.875200	0.671400
C481	C48	0.794240	0.937900	0.492370
H281	H28	0.772200	0.789100	0.507400
C491	C49	0.882100	0.332600	0.510420
H291	H29	0.920100	0.449800	0.537400
C501	C50	0.688570	0.375800	0.700440
H301	H30	0.685600	0.525500	0.720100
C511	C51	0.780460	0.327800	0.671320
H311	H31	0.841100	0.441400	0.671400
C521	C52	0.774200	0.261800	0.344620
C531	C53	0.853960	0.380900	0.449830
H321	H32	0.872600	0.532900	0.435200
C541	C54	0.506590	0.259000	0.736990
C551	C55	0.853530	0.109200	0.530670
C561	C56	0.781170	0.108700	0.642030
