data_QUXRAE_freeONLY_PM
_symmetry_space_group_name_H-M	'P1'
_cell_length_a	11.729200
_cell_length_b	5.568500
_cell_length_c	22.792000
_cell_angle_alpha	90.000000
_cell_angle_beta	100.493000
_cell_angle_gamma	90.000000
_symmetry_Int_Tables_number 1

loop_
_symmetry_equiv_pos_as_xyz
'x,y,z'

loop_
_atom_site_label
_atom_site_type_symbol
_atom_site_fract_x
_atom_site_fract_y
_atom_site_fract_z
Ca11	Ca1	0.637490	0.756200	0.222220
S11	S1	0.399170	0.964510	0.107140
O11	O1	0.260840	0.915570	0.809240
O21	O2	0.264610	0.524200	0.827970
O31	O3	0.957670	0.919150	0.254820
O41	O4	0.986430	0.523630	0.245850
O51	O5	0.416210	0.220420	0.111080
O61	O6	0.495140	0.805480	0.130200
C11	C1	0.354550	0.891500	0.031110
C21	C2	0.382410	0.667400	0.010670
H11	H1	0.420000	0.549800	0.037600
C31	C3	0.353880	0.619800	0.949930
H21	H2	0.372000	0.467600	0.935200
C41	C4	0.299380	0.791800	0.910590
C51	C5	0.268980	0.012200	0.932020
H31	H3	0.230100	0.128600	0.905100
C61	C6	0.295390	0.062100	0.992580
H41	H4	0.273300	0.210900	0.007600
C71	C7	0.274570	0.738600	0.844700
C81	C8	0.281740	0.891200	0.142230
C91	C9	0.193040	0.059500	0.140800
H51	H5	0.194200	0.205800	0.119500
C101	C10	0.102970	0.009800	0.171020
H61	H6	0.043000	0.124200	0.171300
C111	C11	0.100790	0.792000	0.200920
C121	C12	0.188330	0.623600	0.200400
H71	H7	0.185100	0.474000	0.220100
C131	C13	0.280730	0.671800	0.171390
H81	H8	0.341200	0.558200	0.171500
C141	C14	0.006060	0.740600	0.236710
Ca21	Ca2	0.862510	0.256200	0.277780
S21	S2	0.100830	0.464510	0.392860
O71	O7	0.239160	0.415570	0.690760
O81	O8	0.235390	0.024200	0.672030
O91	O9	0.542330	0.419150	0.245180
O101	O10	0.513570	0.023630	0.254150
O111	O11	0.083790	0.720420	0.388920
O121	O12	0.004860	0.305480	0.369800
C151	C15	0.145450	0.391500	0.468890
C161	C16	0.117590	0.167400	0.489330
H91	H9	0.080000	0.049800	0.462400
C171	C17	0.146120	0.119800	0.550070
H101	H10	0.128000	0.967600	0.564800
C181	C18	0.200620	0.291800	0.589410
C191	C19	0.231020	0.512200	0.567980
H111	H11	0.269900	0.628600	0.594900
C201	C20	0.204610	0.562100	0.507420
H121	H12	0.226700	0.710900	0.492400
C211	C21	0.225430	0.238600	0.655300
C221	C22	0.218260	0.391200	0.357770
C231	C23	0.306960	0.559500	0.359200
H131	H13	0.305800	0.705800	0.380500
C241	C24	0.397030	0.509800	0.328980
H141	H14	0.457000	0.624200	0.328700
C251	C25	0.399210	0.292000	0.299080
C261	C26	0.311670	0.123600	0.299600
H151	H15	0.314900	0.974000	0.279900
C271	C27	0.219270	0.171800	0.328610
H161	H16	0.158800	0.058200	0.328500
C281	C28	0.493940	0.240600	0.263290
Ca31	Ca3	0.362510	0.243800	0.777780
S31	S3	0.600830	0.035490	0.892860
O131	O13	0.739160	0.084430	0.190760
O141	O14	0.735390	0.475800	0.172030
O151	O15	0.042330	0.080850	0.745180
O161	O16	0.013570	0.476370	0.754150
O171	O17	0.583790	0.779580	0.888920
O181	O18	0.504860	0.194520	0.869800
C291	C29	0.645450	0.108500	0.968890
C301	C30	0.617590	0.332600	0.989330
H171	H17	0.580000	0.450200	0.962400
C311	C31	0.646120	0.380200	0.050070
H181	H18	0.628000	0.532400	0.064800
C321	C32	0.700620	0.208200	0.089410
C331	C33	0.731020	0.987800	0.067980
H191	H19	0.769900	0.871400	0.094900
C341	C34	0.704610	0.937900	0.007420
H201	H20	0.726700	0.789100	0.992400
C351	C35	0.725430	0.261400	0.155300
C361	C36	0.718260	0.108800	0.857770
C371	C37	0.806960	0.940500	0.859200
H211	H21	0.805800	0.794200	0.880500
C381	C38	0.897030	0.990200	0.828980
H221	H22	0.957000	0.875800	0.828700
C391	C39	0.899210	0.208000	0.799080
C401	C40	0.811670	0.376400	0.799600
H231	H23	0.814900	0.526000	0.779900
C411	C41	0.719270	0.328200	0.828610
H241	H24	0.658800	0.441800	0.828500
C421	C42	0.993940	0.259400	0.763290
Ca41	Ca4	0.137490	0.743800	0.722220
S41	S4	0.899170	0.535490	0.607140
O191	O19	0.760840	0.584430	0.309240
O201	O20	0.764610	0.975800	0.327970
O211	O21	0.457670	0.580850	0.754820
O221	O22	0.486430	0.976370	0.745850
O231	O23	0.916210	0.279580	0.611080
O241	O24	0.995140	0.694520	0.630200
C431	C43	0.854550	0.608500	0.531110
C441	C44	0.882410	0.832600	0.510670
H251	H25	0.920000	0.950200	0.537600
C451	C45	0.853880	0.880200	0.449930
H261	H26	0.872000	0.032400	0.435200
C461	C46	0.799380	0.708200	0.410590
C471	C47	0.768980	0.487800	0.432020
H271	H27	0.730100	0.371400	0.405100
C481	C48	0.795390	0.437900	0.492580
H281	H28	0.773300	0.289100	0.507600
C491	C49	0.774570	0.761400	0.344700
C501	C50	0.781740	0.608800	0.642230
C511	C51	0.693040	0.440500	0.640800
H291	H29	0.694200	0.294200	0.619500
C521	C52	0.602970	0.490200	0.671020
H301	H30	0.543000	0.375800	0.671300
C531	C53	0.600790	0.708000	0.700920
C541	C54	0.688330	0.876400	0.700400
H311	H31	0.685100	0.026000	0.720100
C551	C55	0.780730	0.828200	0.671390
H321	H32	0.841200	0.941800	0.671500
C561	C56	0.506060	0.759400	0.736710
