data_QUZZES_freeONLY_PM
_symmetry_space_group_name_H-M	'P1'
_cell_length_a	16.469000
_cell_length_b	15.538600
_cell_length_c	14.540000
_cell_angle_alpha	90.000000
_cell_angle_beta	117.500000
_cell_angle_gamma	90.000000
_symmetry_Int_Tables_number 1

loop_
_symmetry_equiv_pos_as_xyz
'x,y,z'

loop_
_atom_site_label
_atom_site_type_symbol
_atom_site_fract_x
_atom_site_fract_y
_atom_site_fract_z
O11	O1	0.587990	0.584150	0.755180
O21	O2	0.575630	0.593570	0.597740
O31	O3	0.917060	0.905330	0.914900
O41	O4	0.919030	0.898500	0.763380
O51	O5	0.415530	0.481610	0.577550
H11	H1	0.364300	0.507600	0.543000
H21	H2	0.407000	0.431200	0.574000
C11	C1	0.606180	0.617230	0.688900
C21	C2	0.673750	0.689760	0.723400
C31	C3	0.756300	0.676620	0.809800
H31	H3	0.766400	0.625800	0.847300
C41	C4	0.825050	0.738840	0.841500
H41	H4	0.880600	0.728700	0.899900
C51	C5	0.812370	0.813950	0.788720
C61	C6	0.726470	0.832080	0.701900
C71	C7	0.707700	0.912550	0.650200
H51	H5	0.753300	0.954300	0.671400
C81	C8	0.624100	0.929500	0.570100
H61	H6	0.612600	0.982700	0.537100
C91	C9	0.555100	0.867100	0.537000
H71	H7	0.498000	0.879100	0.481800
C101	C10	0.570600	0.788900	0.584600
H81	H8	0.523900	0.748200	0.561400
C111	C11	0.656710	0.768710	0.668800
C121	C12	0.888570	0.878170	0.824700
O61	O6	0.087990	0.084150	0.755180
O71	O7	0.075630	0.093570	0.597740
O81	O8	0.417060	0.405330	0.914900
O91	O9	0.419030	0.398500	0.763380
O101	O10	0.915530	0.981610	0.577550
H91	H9	0.864300	0.007600	0.543000
H101	H10	0.907000	0.931200	0.574000
C131	C13	0.106180	0.117230	0.688900
C141	C14	0.173750	0.189760	0.723400
C151	C15	0.256300	0.176620	0.809800
H111	H11	0.266400	0.125800	0.847300
C161	C16	0.325050	0.238840	0.841500
H121	H12	0.380600	0.228700	0.899900
C171	C17	0.312370	0.313950	0.788720
C181	C18	0.226470	0.332080	0.701900
C191	C19	0.207700	0.412550	0.650200
H131	H13	0.253300	0.454300	0.671400
C201	C20	0.124100	0.429500	0.570100
H141	H14	0.112600	0.482700	0.537100
C211	C21	0.055100	0.367100	0.537000
H151	H15	0.998000	0.379100	0.481800
C221	C22	0.070600	0.288900	0.584600
H161	H16	0.023900	0.248200	0.561400
C231	C23	0.156710	0.268710	0.668800
C241	C24	0.388570	0.378170	0.824700
O111	O11	0.412010	0.584150	0.744820
O121	O12	0.424370	0.593570	0.902260
O131	O13	0.082940	0.905330	0.585100
O141	O14	0.080970	0.898500	0.736620
O151	O15	0.584470	0.481610	0.922450
H171	H17	0.635700	0.507600	0.957000
H181	H18	0.593000	0.431200	0.926000
C251	C25	0.393820	0.617230	0.811100
C261	C26	0.326250	0.689760	0.776600
C271	C27	0.243700	0.676620	0.690200
H191	H19	0.233600	0.625800	0.652700
C281	C28	0.174950	0.738840	0.658500
H201	H20	0.119400	0.728700	0.600100
C291	C29	0.187630	0.813950	0.711280
C301	C30	0.273530	0.832080	0.798100
C311	C31	0.292300	0.912550	0.849800
H211	H21	0.246700	0.954300	0.828600
C321	C32	0.375900	0.929500	0.929900
H221	H22	0.387400	0.982700	0.962900
C331	C33	0.444900	0.867100	0.963000
H231	H23	0.502000	0.879100	0.018200
C341	C34	0.429400	0.788900	0.915400
H241	H24	0.476100	0.748200	0.938600
C351	C35	0.343290	0.768710	0.831200
C361	C36	0.111430	0.878170	0.675300
O161	O16	0.912010	0.084150	0.744820
O171	O17	0.924370	0.093570	0.902260
O181	O18	0.582940	0.405330	0.585100
O191	O19	0.580970	0.398500	0.736620
O201	O20	0.084470	0.981610	0.922450
H251	H25	0.135700	0.007600	0.957000
H261	H26	0.093000	0.931200	0.926000
C371	C37	0.893820	0.117230	0.811100
C381	C38	0.826250	0.189760	0.776600
C391	C39	0.743700	0.176620	0.690200
H271	H27	0.733600	0.125800	0.652700
C401	C40	0.674950	0.238840	0.658500
H281	H28	0.619400	0.228700	0.600100
C411	C41	0.687630	0.313950	0.711280
C421	C42	0.773530	0.332080	0.798100
C431	C43	0.792300	0.412550	0.849800
H291	H29	0.746700	0.454300	0.828600
C441	C44	0.875900	0.429500	0.929900
H301	H30	0.887400	0.482700	0.962900
C451	C45	0.944900	0.367100	0.963000
H311	H31	0.002000	0.379100	0.018200
C461	C46	0.929400	0.288900	0.915400
H321	H32	0.976100	0.248200	0.938600
C471	C47	0.843290	0.268710	0.831200
C481	C48	0.611430	0.378170	0.675300
O211	O21	0.412010	0.415850	0.244820
O221	O22	0.424370	0.406430	0.402260
O231	O23	0.082940	0.094670	0.085100
O241	O24	0.080970	0.101500	0.236620
O251	O25	0.584470	0.518390	0.422450
H331	H33	0.635700	0.492400	0.457000
H341	H34	0.593000	0.568800	0.426000
C491	C49	0.393820	0.382770	0.311100
C501	C50	0.326250	0.310240	0.276600
C511	C51	0.243700	0.323380	0.190200
H351	H35	0.233600	0.374200	0.152700
C521	C52	0.174950	0.261160	0.158500
H361	H36	0.119400	0.271300	0.100100
C531	C53	0.187630	0.186050	0.211280
C541	C54	0.273530	0.167920	0.298100
C551	C55	0.292300	0.087450	0.349800
H371	H37	0.246700	0.045700	0.328600
C561	C56	0.375900	0.070500	0.429900
H381	H38	0.387400	0.017300	0.462900
C571	C57	0.444900	0.132900	0.463000
H391	H39	0.502000	0.120900	0.518200
C581	C58	0.429400	0.211100	0.415400
H401	H40	0.476100	0.251800	0.438600
C591	C59	0.343290	0.231290	0.331200
C601	C60	0.111430	0.121830	0.175300
O261	O26	0.912010	0.915850	0.244820
O271	O27	0.924370	0.906430	0.402260
O281	O28	0.582940	0.594670	0.085100
O291	O29	0.580970	0.601500	0.236620
O301	O30	0.084470	0.018390	0.422450
H411	H41	0.135700	0.992400	0.457000
H421	H42	0.093000	0.068800	0.426000
C611	C61	0.893820	0.882770	0.311100
C621	C62	0.826250	0.810240	0.276600
C631	C63	0.743700	0.823380	0.190200
H431	H43	0.733600	0.874200	0.152700
C641	C64	0.674950	0.761160	0.158500
H441	H44	0.619400	0.771300	0.100100
C651	C65	0.687630	0.686050	0.211280
C661	C66	0.773530	0.667920	0.298100
C671	C67	0.792300	0.587450	0.349800
H451	H45	0.746700	0.545700	0.328600
C681	C68	0.875900	0.570500	0.429900
H461	H46	0.887400	0.517300	0.462900
C691	C69	0.944900	0.632900	0.463000
H471	H47	0.002000	0.620900	0.518200
C701	C70	0.929400	0.711100	0.415400
H481	H48	0.976100	0.751800	0.438600
C711	C71	0.843290	0.731290	0.331200
C721	C72	0.611430	0.621830	0.175300
O311	O31	0.587990	0.415850	0.255180
O321	O32	0.575630	0.406430	0.097740
O331	O33	0.917060	0.094670	0.414900
O341	O34	0.919030	0.101500	0.263380
O351	O35	0.415530	0.518390	0.077550
H491	H49	0.364300	0.492400	0.043000
H501	H50	0.407000	0.568800	0.074000
C731	C73	0.606180	0.382770	0.188900
C741	C74	0.673750	0.310240	0.223400
C751	C75	0.756300	0.323380	0.309800
H511	H51	0.766400	0.374200	0.347300
C761	C76	0.825050	0.261160	0.341500
H521	H52	0.880600	0.271300	0.399900
C771	C77	0.812370	0.186050	0.288720
C781	C78	0.726470	0.167920	0.201900
C791	C79	0.707700	0.087450	0.150200
H531	H53	0.753300	0.045700	0.171400
C801	C80	0.624100	0.070500	0.070100
H541	H54	0.612600	0.017300	0.037100
C811	C81	0.555100	0.132900	0.037000
H551	H55	0.498000	0.120900	0.981800
C821	C82	0.570600	0.211100	0.084600
H561	H56	0.523900	0.251800	0.061400
C831	C83	0.656710	0.231290	0.168800
C841	C84	0.888570	0.121830	0.324700
O361	O36	0.087990	0.915850	0.255180
O371	O37	0.075630	0.906430	0.097740
O381	O38	0.417060	0.594670	0.414900
O391	O39	0.419030	0.601500	0.263380
O401	O40	0.915530	0.018390	0.077550
H571	H57	0.864300	0.992400	0.043000
H581	H58	0.907000	0.068800	0.074000
C851	C85	0.106180	0.882770	0.188900
C861	C86	0.173750	0.810240	0.223400
C871	C87	0.256300	0.823380	0.309800
H591	H59	0.266400	0.874200	0.347300
C881	C88	0.325050	0.761160	0.341500
H601	H60	0.380600	0.771300	0.399900
C891	C89	0.312370	0.686050	0.288720
C901	C90	0.226470	0.667920	0.201900
C911	C91	0.207700	0.587450	0.150200
H611	H61	0.253300	0.545700	0.171400
C921	C92	0.124100	0.570500	0.070100
H621	H62	0.112600	0.517300	0.037100
C931	C93	0.055100	0.632900	0.037000
H631	H63	0.998000	0.620900	0.981800
C941	C94	0.070600	0.711100	0.084600
H641	H64	0.023900	0.751800	0.061400
C951	C95	0.156710	0.731290	0.168800
C961	C96	0.388570	0.621830	0.324700
Mg11	Mg1	0.500000	0.491690	0.750000
Mg21	Mg2	0.000000	0.991690	0.750000
Mg31	Mg3	0.500000	0.508310	0.250000
Mg41	Mg4	0.000000	0.008310	0.250000
Mg51	Mg5	0.500000	0.500000	0.500000
Mg61	Mg6	0.000000	0.000000	0.500000
Mg71	Mg7	0.500000	0.500000	0.000000
Mg81	Mg8	0.000000	0.000000	0.000000
