data_RAFMUH_freeONLY_PM
_symmetry_space_group_name_H-M	'P1'
_cell_length_a	9.667300
_cell_length_b	9.667300
_cell_length_c	14.860000
_cell_angle_alpha	90.000000
_cell_angle_beta	90.000000
_cell_angle_gamma	120.000000
_symmetry_Int_Tables_number 1

loop_
_symmetry_equiv_pos_as_xyz
'x,y,z'

loop_
_atom_site_label
_atom_site_type_symbol
_atom_site_fract_x
_atom_site_fract_y
_atom_site_fract_z
P11	P1	0.608430	0.763310	0.239800
O11	O1	0.776100	0.780900	0.226780
O21	O2	0.479400	0.615200	0.192880
O31	O3	0.705600	0.621900	0.037670
O41	O4	0.565800	0.745100	0.342080
P21	P2	0.236690	0.845120	0.906470
O51	O5	0.219100	0.995200	0.893450
O61	O6	0.384800	0.864200	0.859550
O71	O7	0.378100	0.083700	0.704340
O81	O8	0.254900	0.820700	0.008750
P31	P3	0.154880	0.391570	0.573130
O91	O9	0.004800	0.223900	0.560110
O101	O10	0.135800	0.520600	0.526210
O111	O11	0.916300	0.294400	0.371000
O121	O12	0.179300	0.434200	0.675410
P41	P4	0.391570	0.236690	0.739800
O131	O13	0.223900	0.219100	0.726780
O141	O14	0.520600	0.384800	0.692880
O151	O15	0.294400	0.378100	0.537670
O161	O16	0.434200	0.254900	0.842080
P51	P5	0.763310	0.154880	0.406470
O171	O17	0.780900	0.004800	0.393450
O181	O18	0.615200	0.135800	0.359550
O191	O19	0.621900	0.916300	0.204340
O201	O20	0.745100	0.179300	0.508750
P61	P6	0.845120	0.608430	0.073130
O211	O21	0.995200	0.776100	0.060110
O221	O22	0.864200	0.479400	0.026210
O231	O23	0.083700	0.705600	0.871000
O241	O24	0.820700	0.565800	0.175410
P71	P7	0.763310	0.608430	0.426870
O251	O25	0.780900	0.776100	0.439890
O261	O26	0.615200	0.479400	0.473790
O271	O27	0.621900	0.705600	0.629000
O281	O28	0.745100	0.565800	0.324590
P81	P8	0.845120	0.236690	0.760200
O291	O29	0.995200	0.219100	0.773220
O301	O30	0.864200	0.384800	0.807120
O311	O31	0.083700	0.378100	0.962330
O321	O32	0.820700	0.254900	0.657920
P91	P9	0.391570	0.154880	0.093530
O331	O33	0.223900	0.004800	0.106550
O341	O34	0.520600	0.135800	0.140450
O351	O35	0.294400	0.916300	0.295660
O361	O36	0.434200	0.179300	0.991250
P101	P10	0.236690	0.391570	0.926870
O371	O37	0.219100	0.223900	0.939890
O381	O38	0.384800	0.520600	0.973790
O391	O39	0.378100	0.294400	0.129000
O401	O40	0.254900	0.434200	0.824590
P111	P11	0.154880	0.763310	0.260200
O411	O41	0.004800	0.780900	0.273220
O421	O42	0.135800	0.615200	0.307120
O431	O43	0.916300	0.621900	0.462330
O441	O44	0.179300	0.745100	0.157920
P121	P12	0.608430	0.845120	0.593530
O451	O45	0.776100	0.995200	0.606550
O461	O46	0.479400	0.864200	0.640450
O471	O47	0.705600	0.083700	0.795660
O481	O48	0.565800	0.820700	0.491250
Zn11	Zn1	0.489810	0.510190	0.083330
Zn21	Zn2	0.489810	0.979620	0.750000
Zn31	Zn3	0.020380	0.510190	0.416670
Zn41	Zn4	0.510190	0.489810	0.583330
Zn51	Zn5	0.510190	0.020380	0.250000
Zn61	Zn6	0.979620	0.489810	0.916670
B11	B1	0.836100	0.672200	0.250000
B21	B2	0.327800	0.163900	0.916670
B31	B3	0.836100	0.163900	0.583330
B41	B4	0.163900	0.327800	0.750000
B51	B5	0.672200	0.836100	0.416670
B61	B6	0.163900	0.836100	0.083330
