data_RAFNUH_freeONLY_PM
_symmetry_space_group_name_H-M	'P1'
_cell_length_a	5.771600
_cell_length_b	29.451700
_cell_length_c	30.511900
_cell_angle_alpha	90.000000
_cell_angle_beta	90.000000
_cell_angle_gamma	90.000000
_symmetry_Int_Tables_number 1

loop_
_symmetry_equiv_pos_as_xyz
'x,y,z'

loop_
_atom_site_label
_atom_site_type_symbol
_atom_site_fract_x
_atom_site_fract_y
_atom_site_fract_z
N11	N1	0.397100	0.165700	0.086200
C11	C1	0.763800	0.200000	0.051300
C21	C2	0.864100	0.238300	0.069300
H11	H1	0.803600	0.251300	0.095400
C31	C3	0.055900	0.257700	0.048600
H21	H2	0.123800	0.284200	0.060800
C41	C4	0.148700	0.239600	0.011200
C51	C5	0.049700	0.200100	0.994600
H31	H3	0.114200	0.186200	0.969300
C61	C6	0.860100	0.181000	0.014500
H41	H4	0.794200	0.154200	0.002600
C71	C7	0.560800	0.180700	0.071000
N21	N2	0.397100	0.665700	0.586200
C81	C8	0.763800	0.700000	0.551300
C91	C9	0.864100	0.738300	0.569300
H51	H5	0.803600	0.751300	0.595400
C101	C10	0.055900	0.757700	0.548600
H61	H6	0.123800	0.784200	0.560800
C111	C11	0.148700	0.739600	0.511200
C121	C12	0.049700	0.700100	0.494600
H71	H7	0.114200	0.686200	0.469300
C131	C13	0.860100	0.681000	0.514500
H81	H8	0.794200	0.654200	0.502600
C141	C14	0.560800	0.680700	0.571000
N31	N3	0.897100	0.165700	0.586200
C151	C15	0.263800	0.200000	0.551300
C161	C16	0.364100	0.238300	0.569300
H91	H9	0.303600	0.251300	0.595400
C171	C17	0.555900	0.257700	0.548600
H101	H10	0.623800	0.284200	0.560800
C181	C18	0.648700	0.239600	0.511200
C191	C19	0.549700	0.200100	0.494600
H111	H11	0.614200	0.186200	0.469300
C201	C20	0.360100	0.181000	0.514500
H121	H12	0.294200	0.154200	0.502600
C211	C21	0.060800	0.180700	0.571000
N41	N4	0.897100	0.665700	0.086200
C221	C22	0.263800	0.700000	0.051300
C231	C23	0.364100	0.738300	0.069300
H131	H13	0.303600	0.751300	0.095400
C241	C24	0.555900	0.757700	0.048600
H141	H14	0.623800	0.784200	0.060800
C251	C25	0.648700	0.739600	0.011200
C261	C26	0.549700	0.700100	0.994600
H151	H15	0.614200	0.686200	0.969300
C271	C27	0.360100	0.681000	0.014500
H161	H16	0.294200	0.654200	0.002600
C281	C28	0.060800	0.680700	0.071000
N51	N5	0.352900	0.584300	0.086200
C291	C29	0.986200	0.550000	0.051300
C301	C30	0.885900	0.511700	0.069300
H171	H17	0.946400	0.498700	0.095400
C311	C31	0.694100	0.492300	0.048600
H181	H18	0.626200	0.465800	0.060800
C321	C32	0.601300	0.510400	0.011200
C331	C33	0.700300	0.549900	0.994600
H191	H19	0.635800	0.563800	0.969300
C341	C34	0.889900	0.569000	0.014500
H201	H20	0.955800	0.595800	0.002600
C351	C35	0.189200	0.569300	0.071000
N61	N6	0.352900	0.084300	0.586200
C361	C36	0.986200	0.050000	0.551300
C371	C37	0.885900	0.011700	0.569300
H211	H21	0.946400	0.998700	0.595400
C381	C38	0.694100	0.992300	0.548600
H221	H22	0.626200	0.965800	0.560800
C391	C39	0.601300	0.010400	0.511200
C401	C40	0.700300	0.049900	0.494600
H231	H23	0.635800	0.063800	0.469300
C411	C41	0.889900	0.069000	0.514500
H241	H24	0.955800	0.095800	0.502600
C421	C42	0.189200	0.069300	0.571000
N71	N7	0.852900	0.584300	0.586200
C431	C43	0.486200	0.550000	0.551300
C441	C44	0.385900	0.511700	0.569300
H251	H25	0.446400	0.498700	0.595400
C451	C45	0.194100	0.492300	0.548600
H261	H26	0.126200	0.465800	0.560800
C461	C46	0.101300	0.510400	0.511200
C471	C47	0.200300	0.549900	0.494600
H271	H27	0.135800	0.563800	0.469300
C481	C48	0.389900	0.569000	0.514500
H281	H28	0.455800	0.595800	0.502600
C491	C49	0.689200	0.569300	0.571000
N81	N8	0.852900	0.084300	0.086200
C501	C50	0.486200	0.050000	0.051300
C511	C51	0.385900	0.011700	0.069300
H291	H29	0.446400	0.998700	0.095400
C521	C52	0.194100	0.992300	0.048600
H301	H30	0.126200	0.965800	0.060800
C531	C53	0.101300	0.010400	0.011200
C541	C54	0.200300	0.049900	0.994600
H311	H31	0.135800	0.063800	0.969300
C551	C55	0.389900	0.069000	0.014500
H321	H32	0.455800	0.095800	0.002600
C561	C56	0.689200	0.069300	0.071000
N91	N9	0.352900	0.165700	0.663800
C571	C57	0.986200	0.200000	0.698700
C581	C58	0.885900	0.238300	0.680700
H331	H33	0.946400	0.251300	0.654600
C591	C59	0.694100	0.257700	0.701400
H341	H34	0.626200	0.284200	0.689200
C601	C60	0.601300	0.239600	0.738800
C611	C61	0.700300	0.200100	0.755400
H351	H35	0.635800	0.186200	0.780700
C621	C62	0.889900	0.181000	0.735500
H361	H36	0.955800	0.154200	0.747400
C631	C63	0.189200	0.180700	0.679000
N101	N10	0.352900	0.665700	0.163800
C641	C64	0.986200	0.700000	0.198700
C651	C65	0.885900	0.738300	0.180700
H371	H37	0.946400	0.751300	0.154600
C661	C66	0.694100	0.757700	0.201400
H381	H38	0.626200	0.784200	0.189200
C671	C67	0.601300	0.739600	0.238800
C681	C68	0.700300	0.700100	0.255400
H391	H39	0.635800	0.686200	0.280700
C691	C69	0.889900	0.681000	0.235500
H401	H40	0.955800	0.654200	0.247400
C701	C70	0.189200	0.680700	0.179000
N111	N11	0.852900	0.165700	0.163800
C711	C71	0.486200	0.200000	0.198700
C721	C72	0.385900	0.238300	0.180700
H411	H41	0.446400	0.251300	0.154600
C731	C73	0.194100	0.257700	0.201400
H421	H42	0.126200	0.284200	0.189200
C741	C74	0.101300	0.239600	0.238800
C751	C75	0.200300	0.200100	0.255400
H431	H43	0.135800	0.186200	0.280700
C761	C76	0.389900	0.181000	0.235500
H441	H44	0.455800	0.154200	0.247400
C771	C77	0.689200	0.180700	0.179000
N121	N12	0.852900	0.665700	0.663800
C781	C78	0.486200	0.700000	0.698700
C791	C79	0.385900	0.738300	0.680700
H451	H45	0.446400	0.751300	0.654600
C801	C80	0.194100	0.757700	0.701400
H461	H46	0.126200	0.784200	0.689200
C811	C81	0.101300	0.739600	0.738800
C821	C82	0.200300	0.700100	0.755400
H471	H47	0.135800	0.686200	0.780700
C831	C83	0.389900	0.681000	0.735500
H481	H48	0.455800	0.654200	0.747400
C841	C84	0.689200	0.680700	0.679000
N131	N13	0.397100	0.584300	0.663800
C851	C85	0.763800	0.550000	0.698700
C861	C86	0.864100	0.511700	0.680700
H491	H49	0.803600	0.498700	0.654600
C871	C87	0.055900	0.492300	0.701400
H501	H50	0.123800	0.465800	0.689200
C881	C88	0.148700	0.510400	0.738800
C891	C89	0.049700	0.549900	0.755400
H511	H51	0.114200	0.563800	0.780700
C901	C90	0.860100	0.569000	0.735500
H521	H52	0.794200	0.595800	0.747400
C911	C91	0.560800	0.569300	0.679000
N141	N14	0.397100	0.084300	0.163800
C921	C92	0.763800	0.050000	0.198700
C931	C93	0.864100	0.011700	0.180700
H531	H53	0.803600	0.998700	0.154600
C941	C94	0.055900	0.992300	0.201400
H541	H54	0.123800	0.965800	0.189200
C951	C95	0.148700	0.010400	0.238800
C961	C96	0.049700	0.049900	0.255400
H551	H55	0.114200	0.063800	0.280700
C971	C97	0.860100	0.069000	0.235500
H561	H56	0.794200	0.095800	0.247400
C981	C98	0.560800	0.069300	0.179000
N151	N15	0.897100	0.584300	0.163800
C991	C99	0.263800	0.550000	0.198700
C1001	C100	0.364100	0.511700	0.180700
H571	H57	0.303600	0.498700	0.154600
C1011	C101	0.555900	0.492300	0.201400
H581	H58	0.623800	0.465800	0.189200
C1021	C102	0.648700	0.510400	0.238800
C1031	C103	0.549700	0.549900	0.255400
H591	H59	0.614200	0.563800	0.280700
C1041	C104	0.360100	0.569000	0.235500
H601	H60	0.294200	0.595800	0.247400
C1051	C105	0.060800	0.569300	0.179000
N161	N16	0.897100	0.084300	0.663800
C1061	C106	0.263800	0.050000	0.698700
C1071	C107	0.364100	0.011700	0.680700
H611	H61	0.303600	0.998700	0.654600
C1081	C108	0.555900	0.992300	0.701400
H621	H62	0.623800	0.965800	0.689200
C1091	C109	0.648700	0.010400	0.738800
C1101	C110	0.549700	0.049900	0.755400
H631	H63	0.614200	0.063800	0.780700
C1111	C111	0.360100	0.069000	0.735500
H641	H64	0.294200	0.095800	0.747400
C1121	C112	0.060800	0.069300	0.679000
N171	N17	0.602900	0.834300	0.913800
C1131	C113	0.236200	0.800000	0.948700
C1141	C114	0.135900	0.761700	0.930700
H651	H65	0.196400	0.748700	0.904600
C1151	C115	0.944100	0.742300	0.951400
H661	H66	0.876200	0.715800	0.939200
C1161	C116	0.851300	0.760400	0.988800
C1171	C117	0.950300	0.799900	0.005400
H671	H67	0.885800	0.813800	0.030700
C1181	C118	0.139900	0.819000	0.985500
H681	H68	0.205800	0.845800	0.997400
C1191	C119	0.439200	0.819300	0.929000
N181	N18	0.602900	0.334300	0.413800
C1201	C120	0.236200	0.300000	0.448700
C1211	C121	0.135900	0.261700	0.430700
H691	H69	0.196400	0.248700	0.404600
C1221	C122	0.944100	0.242300	0.451400
H701	H70	0.876200	0.215800	0.439200
C1231	C123	0.851300	0.260400	0.488800
C1241	C124	0.950300	0.299900	0.505400
H711	H71	0.885800	0.313800	0.530700
C1251	C125	0.139900	0.319000	0.485500
H721	H72	0.205800	0.345800	0.497400
C1261	C126	0.439200	0.319300	0.429000
N191	N19	0.102900	0.834300	0.413800
C1271	C127	0.736200	0.800000	0.448700
C1281	C128	0.635900	0.761700	0.430700
H731	H73	0.696400	0.748700	0.404600
C1291	C129	0.444100	0.742300	0.451400
H741	H74	0.376200	0.715800	0.439200
C1301	C130	0.351300	0.760400	0.488800
C1311	C131	0.450300	0.799900	0.505400
H751	H75	0.385800	0.813800	0.530700
C1321	C132	0.639900	0.819000	0.485500
H761	H76	0.705800	0.845800	0.497400
C1331	C133	0.939200	0.819300	0.429000
N201	N20	0.102900	0.334300	0.913800
C1341	C134	0.736200	0.300000	0.948700
C1351	C135	0.635900	0.261700	0.930700
H771	H77	0.696400	0.248700	0.904600
C1361	C136	0.444100	0.242300	0.951400
H781	H78	0.376200	0.215800	0.939200
C1371	C137	0.351300	0.260400	0.988800
C1381	C138	0.450300	0.299900	0.005400
H791	H79	0.385800	0.313800	0.030700
C1391	C139	0.639900	0.319000	0.985500
H801	H80	0.705800	0.345800	0.997400
C1401	C140	0.939200	0.319300	0.929000
N211	N21	0.647100	0.415700	0.913800
C1411	C141	0.013800	0.450000	0.948700
C1421	C142	0.114100	0.488300	0.930700
H811	H81	0.053600	0.501300	0.904600
C1431	C143	0.305900	0.507700	0.951400
H821	H82	0.373800	0.534200	0.939200
C1441	C144	0.398700	0.489600	0.988800
C1451	C145	0.299700	0.450100	0.005400
H831	H83	0.364200	0.436200	0.030700
C1461	C146	0.110100	0.431000	0.985500
H841	H84	0.044200	0.404200	0.997400
C1471	C147	0.810800	0.430700	0.929000
N221	N22	0.647100	0.915700	0.413800
C1481	C148	0.013800	0.950000	0.448700
C1491	C149	0.114100	0.988300	0.430700
H851	H85	0.053600	0.001300	0.404600
C1501	C150	0.305900	0.007700	0.451400
H861	H86	0.373800	0.034200	0.439200
C1511	C151	0.398700	0.989600	0.488800
C1521	C152	0.299700	0.950100	0.505400
H871	H87	0.364200	0.936200	0.530700
C1531	C153	0.110100	0.931000	0.485500
H881	H88	0.044200	0.904200	0.497400
C1541	C154	0.810800	0.930700	0.429000
N231	N23	0.147100	0.415700	0.413800
C1551	C155	0.513800	0.450000	0.448700
C1561	C156	0.614100	0.488300	0.430700
H891	H89	0.553600	0.501300	0.404600
C1571	C157	0.805900	0.507700	0.451400
H901	H90	0.873800	0.534200	0.439200
C1581	C158	0.898700	0.489600	0.488800
C1591	C159	0.799700	0.450100	0.505400
H911	H91	0.864200	0.436200	0.530700
C1601	C160	0.610100	0.431000	0.485500
H921	H92	0.544200	0.404200	0.497400
C1611	C161	0.310800	0.430700	0.429000
N241	N24	0.147100	0.915700	0.913800
C1621	C162	0.513800	0.950000	0.948700
C1631	C163	0.614100	0.988300	0.930700
H931	H93	0.553600	0.001300	0.904600
C1641	C164	0.805900	0.007700	0.951400
H941	H94	0.873800	0.034200	0.939200
C1651	C165	0.898700	0.989600	0.988800
C1661	C166	0.799700	0.950100	0.005400
H951	H95	0.864200	0.936200	0.030700
C1671	C167	0.610100	0.931000	0.985500
H961	H96	0.544200	0.904200	0.997400
C1681	C168	0.310800	0.930700	0.929000
N251	N25	0.647100	0.834300	0.336200
C1691	C169	0.013800	0.800000	0.301300
C1701	C170	0.114100	0.761700	0.319300
H971	H97	0.053600	0.748700	0.345400
C1711	C171	0.305900	0.742300	0.298600
H981	H98	0.373800	0.715800	0.310800
C1721	C172	0.398700	0.760400	0.261200
C1731	C173	0.299700	0.799900	0.244600
H991	H99	0.364200	0.813800	0.219300
C1741	C174	0.110100	0.819000	0.264500
H1001	H100	0.044200	0.845800	0.252600
C1751	C175	0.810800	0.819300	0.321000
N261	N26	0.647100	0.334300	0.836200
C1761	C176	0.013800	0.300000	0.801300
C1771	C177	0.114100	0.261700	0.819300
H1011	H101	0.053600	0.248700	0.845400
C1781	C178	0.305900	0.242300	0.798600
H1021	H102	0.373800	0.215800	0.810800
C1791	C179	0.398700	0.260400	0.761200
C1801	C180	0.299700	0.299900	0.744600
H1031	H103	0.364200	0.313800	0.719300
C1811	C181	0.110100	0.319000	0.764500
H1041	H104	0.044200	0.345800	0.752600
C1821	C182	0.810800	0.319300	0.821000
N271	N27	0.147100	0.834300	0.836200
C1831	C183	0.513800	0.800000	0.801300
C1841	C184	0.614100	0.761700	0.819300
H1051	H105	0.553600	0.748700	0.845400
C1851	C185	0.805900	0.742300	0.798600
H1061	H106	0.873800	0.715800	0.810800
C1861	C186	0.898700	0.760400	0.761200
C1871	C187	0.799700	0.799900	0.744600
H1071	H107	0.864200	0.813800	0.719300
C1881	C188	0.610100	0.819000	0.764500
H1081	H108	0.544200	0.845800	0.752600
C1891	C189	0.310800	0.819300	0.821000
N281	N28	0.147100	0.334300	0.336200
C1901	C190	0.513800	0.300000	0.301300
C1911	C191	0.614100	0.261700	0.319300
H1091	H109	0.553600	0.248700	0.345400
C1921	C192	0.805900	0.242300	0.298600
H1101	H110	0.873800	0.215800	0.310800
C1931	C193	0.898700	0.260400	0.261200
C1941	C194	0.799700	0.299900	0.244600
H1111	H111	0.864200	0.313800	0.219300
C1951	C195	0.610100	0.319000	0.264500
H1121	H112	0.544200	0.345800	0.252600
C1961	C196	0.310800	0.319300	0.321000
N291	N29	0.602900	0.415700	0.336200
C1971	C197	0.236200	0.450000	0.301300
C1981	C198	0.135900	0.488300	0.319300
H1131	H113	0.196400	0.501300	0.345400
C1991	C199	0.944100	0.507700	0.298600
H1141	H114	0.876200	0.534200	0.310800
C2001	C200	0.851300	0.489600	0.261200
C2011	C201	0.950300	0.450100	0.244600
H1151	H115	0.885800	0.436200	0.219300
C2021	C202	0.139900	0.431000	0.264500
H1161	H116	0.205800	0.404200	0.252600
C2031	C203	0.439200	0.430700	0.321000
N301	N30	0.602900	0.915700	0.836200
C2041	C204	0.236200	0.950000	0.801300
C2051	C205	0.135900	0.988300	0.819300
H1171	H117	0.196400	0.001300	0.845400
C2061	C206	0.944100	0.007700	0.798600
H1181	H118	0.876200	0.034200	0.810800
C2071	C207	0.851300	0.989600	0.761200
C2081	C208	0.950300	0.950100	0.744600
H1191	H119	0.885800	0.936200	0.719300
C2091	C209	0.139900	0.931000	0.764500
H1201	H120	0.205800	0.904200	0.752600
C2101	C210	0.439200	0.930700	0.821000
N311	N31	0.102900	0.415700	0.836200
C2111	C211	0.736200	0.450000	0.801300
C2121	C212	0.635900	0.488300	0.819300
H1211	H121	0.696400	0.501300	0.845400
C2131	C213	0.444100	0.507700	0.798600
H1221	H122	0.376200	0.534200	0.810800
C2141	C214	0.351300	0.489600	0.761200
C2151	C215	0.450300	0.450100	0.744600
H1231	H123	0.385800	0.436200	0.719300
C2161	C216	0.639900	0.431000	0.764500
H1241	H124	0.705800	0.404200	0.752600
C2171	C217	0.939200	0.430700	0.821000
N321	N32	0.102900	0.915700	0.336200
C2181	C218	0.736200	0.950000	0.301300
C2191	C219	0.635900	0.988300	0.319300
H1251	H125	0.696400	0.001300	0.345400
C2201	C220	0.444100	0.007700	0.298600
H1261	H126	0.376200	0.034200	0.310800
C2211	C221	0.351300	0.989600	0.261200
C2221	C222	0.450300	0.950100	0.244600
H1271	H127	0.385800	0.936200	0.219300
C2231	C223	0.639900	0.931000	0.264500
H1281	H128	0.705800	0.904200	0.252600
C2241	C224	0.939200	0.930700	0.321000
Ag11	Ag1	0.125000	0.125000	0.125000
Ag21	Ag2	0.125000	0.625000	0.625000
Ag31	Ag3	0.625000	0.125000	0.625000
Ag41	Ag4	0.625000	0.625000	0.125000
Ag51	Ag5	0.875000	0.875000	0.875000
Ag61	Ag6	0.875000	0.375000	0.375000
Ag71	Ag7	0.375000	0.875000	0.375000
Ag81	Ag8	0.375000	0.375000	0.875000
