data_RAGREY_charged_PM
_symmetry_space_group_name_H-M	'P1'
_cell_length_a	7.320100
_cell_length_b	21.101000
_cell_length_c	22.207000
_cell_angle_alpha	90.000000
_cell_angle_beta	90.000000
_cell_angle_gamma	90.000000
_symmetry_Int_Tables_number 1

loop_
_symmetry_equiv_pos_as_xyz
'x,y,z'

loop_
_atom_site_label
_atom_site_type_symbol
_atom_site_fract_x
_atom_site_fract_y
_atom_site_fract_z
Cu11	Cu1	0.750000	0.750000	0.003080
Cu21	Cu2	0.250000	0.250000	0.496920
Cu31	Cu3	0.250000	0.250000	0.996920
Cu41	Cu4	0.750000	0.750000	0.503080
H11	H1	0.501400	0.717700	0.103200
H21	H2	0.487300	0.719800	0.207400
H31	H3	0.608000	0.667600	0.298500
H41	H4	0.622200	0.668500	0.401800
H51	H5	0.045800	0.827300	0.939700
H61	H6	0.157300	0.930200	0.938300
H71	H7	0.807000	0.972300	0.072100
H81	H8	0.699000	0.869500	0.071200
H91	H9	0.998600	0.782300	0.103200
H101	H10	0.012700	0.780200	0.207400
H111	H11	0.892000	0.832400	0.298500
H121	H12	0.877800	0.831500	0.401800
H131	H13	0.454200	0.672700	0.939700
H141	H14	0.342700	0.569800	0.938300
H151	H15	0.693000	0.527700	0.072100
H161	H16	0.801000	0.630500	0.071200
H171	H17	0.498600	0.217700	0.396800
H181	H18	0.512700	0.219800	0.292600
H191	H19	0.392000	0.167600	0.201500
H201	H20	0.377800	0.168500	0.098200
H211	H21	0.954200	0.327300	0.560300
H221	H22	0.842700	0.430200	0.561700
H231	H23	0.193000	0.472300	0.427900
H241	H24	0.301000	0.369500	0.428800
H251	H25	0.001400	0.282300	0.396800
H261	H26	0.987300	0.280200	0.292600
H271	H27	0.108000	0.332400	0.201500
H281	H28	0.122200	0.331500	0.098200
H291	H29	0.545800	0.172700	0.560300
H301	H30	0.657300	0.069800	0.561700
H311	H31	0.307000	0.027700	0.427900
H321	H32	0.199000	0.130500	0.428800
H331	H33	0.498600	0.282300	0.896800
H341	H34	0.512700	0.280200	0.792600
H351	H35	0.392000	0.332400	0.701500
H361	H36	0.377800	0.331500	0.598200
H371	H37	0.954200	0.172700	0.060300
H381	H38	0.842700	0.069800	0.061700
H391	H39	0.193000	0.027700	0.927900
H401	H40	0.301000	0.130500	0.928800
H411	H41	0.001400	0.217700	0.896800
H421	H42	0.987300	0.219800	0.792600
H431	H43	0.108000	0.167600	0.701500
H441	H44	0.122200	0.168500	0.598200
H451	H45	0.545800	0.327300	0.060300
H461	H46	0.657300	0.430200	0.061700
H471	H47	0.307000	0.472300	0.927900
H481	H48	0.199000	0.369500	0.928800
H491	H49	0.501400	0.782300	0.603200
H501	H50	0.487300	0.780200	0.707400
H511	H51	0.608000	0.832400	0.798500
H521	H52	0.622200	0.831500	0.901800
H531	H53	0.045800	0.672700	0.439700
H541	H54	0.157300	0.569800	0.438300
H551	H55	0.807000	0.527700	0.572100
H561	H56	0.699000	0.630500	0.571200
H571	H57	0.998600	0.717700	0.603200
H581	H58	0.012700	0.719800	0.707400
H591	H59	0.892000	0.667600	0.798500
H601	H60	0.877800	0.668500	0.901800
H611	H61	0.454200	0.827300	0.439700
H621	H62	0.342700	0.930200	0.438300
H631	H63	0.693000	0.972300	0.572100
H641	H64	0.801000	0.869500	0.571200
C11	C1	0.605200	0.731720	0.125210
C21	C2	0.596300	0.731850	0.187240
C31	C3	0.667800	0.701410	0.318720
C41	C4	0.674500	0.702950	0.380360
C51	C5	0.996300	0.857400	0.967000
C61	C6	0.063500	0.918800	0.965800
C71	C7	0.992000	0.963500	0.005300
C81	C8	0.857300	0.943000	0.044200
C91	C9	0.793000	0.881500	0.044100
C101	C10	0.894800	0.768280	0.125210
C111	C11	0.903700	0.768150	0.187240
C121	C12	0.832200	0.798590	0.318720
C131	C13	0.825500	0.797050	0.380360
C141	C14	0.503700	0.642600	0.967000
C151	C15	0.436500	0.581200	0.965800
C161	C16	0.508000	0.536500	0.005300
C171	C17	0.642700	0.557000	0.044200
C181	C18	0.707000	0.618500	0.044100
C191	C19	0.394800	0.231720	0.374790
C201	C20	0.403700	0.231850	0.312760
C211	C21	0.332200	0.201410	0.181280
C221	C22	0.325500	0.202950	0.119640
C231	C23	0.003700	0.357400	0.533000
C241	C24	0.936500	0.418800	0.534200
C251	C25	0.008000	0.463500	0.494700
C261	C26	0.142700	0.443000	0.455800
C271	C27	0.207000	0.381500	0.455900
C281	C28	0.105200	0.268280	0.374790
C291	C29	0.096300	0.268150	0.312760
C301	C30	0.167800	0.298590	0.181280
C311	C31	0.174500	0.297050	0.119640
C321	C32	0.496300	0.142600	0.533000
C331	C33	0.563500	0.081200	0.534200
C341	C34	0.492000	0.036500	0.494700
C351	C35	0.357300	0.057000	0.455800
C361	C36	0.293000	0.118500	0.455900
C371	C37	0.394800	0.268280	0.874790
C381	C38	0.403700	0.268150	0.812760
C391	C39	0.332200	0.298590	0.681280
C401	C40	0.325500	0.297050	0.619640
C411	C41	0.003700	0.142600	0.033000
C421	C42	0.936500	0.081200	0.034200
C431	C43	0.008000	0.036500	0.994700
C441	C44	0.142700	0.057000	0.955800
C451	C45	0.207000	0.118500	0.955900
C461	C46	0.105200	0.231720	0.874790
C471	C47	0.096300	0.231850	0.812760
C481	C48	0.167800	0.201410	0.681280
C491	C49	0.174500	0.202950	0.619640
C501	C50	0.496300	0.357400	0.033000
C511	C51	0.563500	0.418800	0.034200
C521	C52	0.492000	0.463500	0.994700
C531	C53	0.357300	0.443000	0.955800
C541	C54	0.293000	0.381500	0.955900
C551	C55	0.605200	0.768280	0.625210
C561	C56	0.596300	0.768150	0.687240
C571	C57	0.667800	0.798590	0.818720
C581	C58	0.674500	0.797050	0.880360
C591	C59	0.996300	0.642600	0.467000
C601	C60	0.063500	0.581200	0.465800
C611	C61	0.992000	0.536500	0.505300
C621	C62	0.857300	0.557000	0.544200
C631	C63	0.793000	0.618500	0.544100
C641	C64	0.894800	0.731720	0.625210
C651	C65	0.903700	0.731850	0.687240
C661	C66	0.832200	0.701410	0.818720
C671	C67	0.825500	0.702950	0.880360
C681	C68	0.503700	0.857400	0.467000
C691	C69	0.436500	0.918800	0.465800
C701	C70	0.508000	0.963500	0.505300
C711	C71	0.642700	0.943000	0.544200
C721	C72	0.707000	0.881500	0.544100
C731	C73	0.750000	0.750000	0.219700
C741	C74	0.750000	0.750000	0.286300
C751	C75	0.250000	0.250000	0.280300
C761	C76	0.250000	0.250000	0.213700
C771	C77	0.250000	0.250000	0.780300
C781	C78	0.250000	0.250000	0.713700
C791	C79	0.750000	0.750000	0.719700
C801	C80	0.750000	0.750000	0.786300
N11	N1	0.863100	0.838300	0.005400
N21	N2	0.636900	0.661700	0.005400
N31	N3	0.136900	0.338300	0.494600
N41	N4	0.363100	0.161700	0.494600
N51	N5	0.136900	0.161700	0.994600
N61	N6	0.363100	0.338300	0.994600
N71	N7	0.863100	0.661700	0.505400
N81	N8	0.636900	0.838300	0.505400
N91	N9	0.750000	0.750000	0.095090
N101	N10	0.750000	0.750000	0.412150
N111	N11	0.250000	0.250000	0.404910
N121	N12	0.250000	0.250000	0.087850
N131	N13	0.250000	0.250000	0.904910
N141	N14	0.250000	0.250000	0.587850
N151	N15	0.750000	0.750000	0.595090
N161	N16	0.750000	0.750000	0.912150
