data_RAKDAJ_freeONLY_PM
_symmetry_space_group_name_H-M	'P1'
_cell_length_a	27.865000
_cell_length_b	13.711700
_cell_length_c	45.650000
_cell_angle_alpha	90.000000
_cell_angle_beta	90.000000
_cell_angle_gamma	90.000000
_symmetry_Int_Tables_number 1

loop_
_symmetry_equiv_pos_as_xyz
'x,y,z'

loop_
_atom_site_label
_atom_site_type_symbol
_atom_site_fract_x
_atom_site_fract_y
_atom_site_fract_z
C11	C1	0.055300	0.005100	0.531500
H11	H1	0.037600	0.034400	0.546900
C21	C2	0.066800	0.061700	0.507400
H21	H2	0.056500	0.127600	0.506200
C31	C3	0.093700	0.020500	0.485200
C41	C4	0.105900	0.923400	0.487600
H31	H3	0.123700	0.892500	0.472500
C51	C5	0.092200	0.871200	0.512200
H41	H4	0.100700	0.804300	0.513500
C61	C6	0.108000	0.077900	0.459000
C71	C7	0.108300	0.217900	0.433400
C81	C8	0.141100	0.083200	0.413800
C91	C9	0.092400	0.322200	0.429800
C101	C10	0.066900	0.366700	0.451700
H51	H5	0.060900	0.334300	0.469700
C111	C11	0.049800	0.461200	0.446700
H61	H6	0.032600	0.493200	0.461900
C121	C12	0.081500	0.463200	0.400500
H71	H7	0.086600	0.496600	0.382600
C131	C13	0.100100	0.369900	0.403700
H81	H8	0.117700	0.339900	0.388300
C141	C14	0.163400	0.031300	0.389000
C151	C15	0.185100	0.079000	0.366000
H91	H9	0.185900	0.148300	0.365600
C161	C16	0.205500	0.027800	0.343700
H101	H10	0.220100	0.062700	0.328000
C171	C17	0.184200	0.882500	0.364500
H111	H11	0.183000	0.813300	0.364100
C181	C18	0.163000	0.932500	0.388100
H121	H12	0.148200	0.896700	0.403500
C191	C19	0.308700	0.061600	0.762500
H131	H13	0.336000	0.079300	0.773700
C201	C20	0.316100	0.027400	0.734200
H141	H14	0.347600	0.022300	0.726300
C211	C21	0.276600	0.001300	0.718200
C221	C22	0.232100	0.005600	0.730800
H151	H15	0.204600	0.984900	0.720200
C231	C23	0.227700	0.040700	0.759400
H161	H16	0.196900	0.043400	0.768300
C241	C24	0.281300	0.970300	0.686700
C251	C25	0.326500	0.935800	0.647100
C261	C26	0.245100	0.932900	0.643960
C271	C27	0.373600	0.923500	0.632800
C281	C28	0.415600	0.929200	0.648400
H171	H17	0.415200	0.943800	0.668800
C291	C29	0.459000	0.913300	0.633800
H181	H18	0.488000	0.917300	0.644700
C301	C30	0.421000	0.888600	0.590200
H191	H19	0.422500	0.875200	0.569800
C311	C31	0.376200	0.903200	0.602900
H201	H20	0.347800	0.899400	0.591400
C321	C32	0.201700	0.916100	0.626700
C331	C33	0.204100	0.885400	0.597500
H211	H21	0.234100	0.877600	0.587900
C341	C34	0.161500	0.867000	0.583100
H221	H22	0.163000	0.844700	0.563400
C351	C35	0.116400	0.911900	0.622700
H231	H23	0.085800	0.923900	0.631100
C361	C36	0.156500	0.929600	0.639300
H241	H24	0.153600	0.950700	0.659100
I11	I1	0.988450	0.917990	0.600260
I21	I2	0.071290	0.656100	0.563780
I31	I3	0.195860	0.691840	0.304490
I41	I4	0.330900	0.843460	0.326080
I51	I5	0.073410	0.728800	0.374070
I61	I6	0.008990	0.719160	0.464230
N11	N1	0.067600	0.911400	0.534130
N21	N2	0.096000	0.171900	0.457770
N31	N3	0.131900	0.178700	0.410680
N41	N4	0.130100	0.029600	0.437110
N51	N5	0.056800	0.507900	0.421610
N61	N6	0.205900	0.929100	0.342810
N71	N7	0.266300	0.070900	0.774570
N81	N8	0.325600	0.960600	0.675440
N91	N9	0.287800	0.920900	0.630770
N101	N10	0.240500	0.957500	0.671940
N111	N11	0.461800	0.892500	0.605130
N121	N12	0.118500	0.878600	0.595120
Zn11	Zn1	0.056780	0.837350	0.572890
Zn21	Zn2	0.242510	0.850010	0.312450
Zn31	Zn3	0.026280	0.643090	0.414300
C371	C37	0.444700	0.994900	0.031500
H251	H25	0.462400	0.965600	0.046900
C381	C38	0.433200	0.938300	0.007400
H261	H26	0.443500	0.872400	0.006200
C391	C39	0.406300	0.979500	0.985200
C401	C40	0.394100	0.076600	0.987600
H271	H27	0.376300	0.107500	0.972500
C411	C41	0.407800	0.128800	0.012200
H281	H28	0.399300	0.195700	0.013500
C421	C42	0.392000	0.922100	0.959000
C431	C43	0.391700	0.782100	0.933400
C441	C44	0.358900	0.916800	0.913800
C451	C45	0.407600	0.677800	0.929800
C461	C46	0.433100	0.633300	0.951700
H291	H29	0.439100	0.665700	0.969700
C471	C47	0.450200	0.538800	0.946700
H301	H30	0.467400	0.506800	0.961900
C481	C48	0.418500	0.536800	0.900500
H311	H31	0.413400	0.503400	0.882600
C491	C49	0.399900	0.630100	0.903700
H321	H32	0.382300	0.660100	0.888300
C501	C50	0.336600	0.968700	0.889000
C511	C51	0.314900	0.921000	0.866000
H331	H33	0.314100	0.851700	0.865600
C521	C52	0.294500	0.972200	0.843700
H341	H34	0.279900	0.937300	0.828000
C531	C53	0.315800	0.117500	0.864500
H351	H35	0.317000	0.186700	0.864100
C541	C54	0.337000	0.067500	0.888100
H361	H36	0.351800	0.103300	0.903500
C551	C55	0.191300	0.938400	0.262500
H371	H37	0.164000	0.920700	0.273700
C561	C56	0.183900	0.972600	0.234200
H381	H38	0.152400	0.977700	0.226300
C571	C57	0.223400	0.998700	0.218200
C581	C58	0.267900	0.994400	0.230800
H391	H39	0.295400	0.015100	0.220200
C591	C59	0.272300	0.959300	0.259400
H401	H40	0.303100	0.956600	0.268300
C601	C60	0.218700	0.029700	0.186700
C611	C61	0.173500	0.064200	0.147100
C621	C62	0.254900	0.067100	0.143960
C631	C63	0.126400	0.076500	0.132800
C641	C64	0.084400	0.070800	0.148400
H411	H41	0.084800	0.056200	0.168800
C651	C65	0.041000	0.086700	0.133800
H421	H42	0.012000	0.082700	0.144700
C661	C66	0.079000	0.111400	0.090200
H431	H43	0.077500	0.124800	0.069800
C671	C67	0.123800	0.096800	0.102900
H441	H44	0.152200	0.100600	0.091400
C681	C68	0.298300	0.083900	0.126700
C691	C69	0.295900	0.114600	0.097500
H451	H45	0.265900	0.122400	0.087900
C701	C70	0.338500	0.133000	0.083100
H461	H46	0.337000	0.155300	0.063400
C711	C71	0.383600	0.088100	0.122700
H471	H47	0.414200	0.076100	0.131100
C721	C72	0.343500	0.070400	0.139300
H481	H48	0.346400	0.049300	0.159100
I71	I7	0.511550	0.082010	0.100260
I81	I8	0.428710	0.343900	0.063780
I91	I9	0.304140	0.308160	0.804490
I101	I10	0.169100	0.156540	0.826080
I111	I11	0.426590	0.271200	0.874070
I121	I12	0.491010	0.280840	0.964230
N131	N13	0.432400	0.088600	0.034130
N141	N14	0.404000	0.828100	0.957770
N151	N15	0.368100	0.821300	0.910680
N161	N16	0.369900	0.970400	0.937110
N171	N17	0.443200	0.492100	0.921610
N181	N18	0.294100	0.070900	0.842810
N191	N19	0.233700	0.929100	0.274570
N201	N20	0.174400	0.039400	0.175440
N211	N21	0.212200	0.079100	0.130770
N221	N22	0.259500	0.042500	0.171940
N231	N23	0.038200	0.107500	0.105130
N241	N24	0.381500	0.121400	0.095120
Zn41	Zn4	0.443220	0.162650	0.072890
Zn51	Zn5	0.257490	0.149990	0.812450
Zn61	Zn6	0.473720	0.356910	0.914300
C731	C73	0.944700	0.505100	0.968500
H491	H49	0.962400	0.534400	0.953100
C741	C74	0.933200	0.561700	0.992600
H501	H50	0.943500	0.627600	0.993800
C751	C75	0.906300	0.520500	0.014800
C761	C76	0.894100	0.423400	0.012400
H511	H51	0.876300	0.392500	0.027500
C771	C77	0.907800	0.371200	0.987800
H521	H52	0.899300	0.304300	0.986500
C781	C78	0.892000	0.577900	0.041000
C791	C79	0.891700	0.717900	0.066600
C801	C80	0.858900	0.583200	0.086200
C811	C81	0.907600	0.822200	0.070200
C821	C82	0.933100	0.866700	0.048300
H531	H53	0.939100	0.834300	0.030300
C831	C83	0.950200	0.961200	0.053300
H541	H54	0.967400	0.993200	0.038100
C841	C84	0.918500	0.963200	0.099500
H551	H55	0.913400	0.996600	0.117400
C851	C85	0.899900	0.869900	0.096300
H561	H56	0.882300	0.839900	0.111700
C861	C86	0.836600	0.531300	0.111000
C871	C87	0.814900	0.579000	0.134000
H571	H57	0.814100	0.648300	0.134400
C881	C88	0.794500	0.527800	0.156300
H581	H58	0.779900	0.562700	0.172000
C891	C89	0.815800	0.382500	0.135500
H591	H59	0.817000	0.313300	0.135900
C901	C90	0.837000	0.432500	0.111900
H601	H60	0.851800	0.396700	0.096500
C911	C91	0.691300	0.561600	0.737500
H611	H61	0.664000	0.579300	0.726300
C921	C92	0.683900	0.527400	0.765800
H621	H62	0.652400	0.522300	0.773700
C931	C93	0.723400	0.501300	0.781800
C941	C94	0.767900	0.505600	0.769200
H631	H63	0.795400	0.484900	0.779800
C951	C95	0.772300	0.540700	0.740600
H641	H64	0.803100	0.543400	0.731700
C961	C96	0.718700	0.470300	0.813300
C971	C97	0.673500	0.435800	0.852900
C981	C98	0.754900	0.432900	0.856040
C991	C99	0.626400	0.423500	0.867200
C1001	C100	0.584400	0.429200	0.851600
H651	H65	0.584800	0.443800	0.831200
C1011	C101	0.541000	0.413300	0.866200
H661	H66	0.512000	0.417300	0.855300
C1021	C102	0.579000	0.388600	0.909800
H671	H67	0.577500	0.375200	0.930200
C1031	C103	0.623800	0.403200	0.897100
H681	H68	0.652200	0.399400	0.908600
C1041	C104	0.798300	0.416100	0.873300
C1051	C105	0.795900	0.385400	0.902500
H691	H69	0.765900	0.377600	0.912100
C1061	C106	0.838500	0.367000	0.916900
H701	H70	0.837000	0.344700	0.936600
C1071	C107	0.883600	0.411900	0.877300
H711	H71	0.914200	0.423900	0.868900
C1081	C108	0.843500	0.429600	0.860700
H721	H72	0.846400	0.450700	0.840900
I131	I13	0.011550	0.417990	0.899740
I141	I14	0.928710	0.156100	0.936220
I151	I15	0.804140	0.191840	0.195510
I161	I16	0.669100	0.343460	0.173920
I171	I17	0.926590	0.228800	0.125930
I181	I18	0.991010	0.219160	0.035770
N251	N25	0.932400	0.411400	0.965870
N261	N26	0.904000	0.671900	0.042230
N271	N27	0.868100	0.678700	0.089320
N281	N28	0.869900	0.529600	0.062890
N291	N29	0.943200	0.007900	0.078390
N301	N30	0.794100	0.429100	0.157190
N311	N31	0.733700	0.570900	0.725430
N321	N32	0.674400	0.460600	0.824560
N331	N33	0.712200	0.420900	0.869230
N341	N34	0.759500	0.457500	0.828060
N351	N35	0.538200	0.392500	0.894870
N361	N36	0.881500	0.378600	0.904880
Zn71	Zn7	0.943220	0.337350	0.927110
Zn81	Zn8	0.757490	0.350010	0.187550
Zn91	Zn9	0.973720	0.143090	0.085700
C1091	C109	0.555300	0.494900	0.468500
H731	H73	0.537600	0.465600	0.453100
C1101	C110	0.566800	0.438300	0.492600
H741	H74	0.556500	0.372400	0.493800
C1111	C111	0.593700	0.479500	0.514800
C1121	C112	0.605900	0.576600	0.512400
H751	H75	0.623700	0.607500	0.527500
C1131	C113	0.592200	0.628800	0.487800
H761	H76	0.600700	0.695700	0.486500
C1141	C114	0.608000	0.422100	0.541000
C1151	C115	0.608300	0.282100	0.566600
C1161	C116	0.641100	0.416800	0.586200
C1171	C117	0.592400	0.177800	0.570200
C1181	C118	0.566900	0.133300	0.548300
H771	H77	0.560900	0.165700	0.530300
C1191	C119	0.549800	0.038800	0.553300
H781	H78	0.532600	0.006800	0.538100
C1201	C120	0.581500	0.036800	0.599500
H791	H79	0.586600	0.003400	0.617400
C1211	C121	0.600100	0.130100	0.596300
H801	H80	0.617700	0.160100	0.611700
C1221	C122	0.663400	0.468700	0.611000
C1231	C123	0.685100	0.421000	0.634000
H811	H81	0.685900	0.351700	0.634400
C1241	C124	0.705500	0.472200	0.656300
H821	H82	0.720100	0.437300	0.672000
C1251	C125	0.684200	0.617500	0.635500
H831	H83	0.683000	0.686700	0.635900
C1261	C126	0.663000	0.567500	0.611900
H841	H84	0.648200	0.603300	0.596500
C1271	C127	0.808700	0.438400	0.237500
H851	H85	0.836000	0.420700	0.226300
C1281	C128	0.816100	0.472600	0.265800
H861	H86	0.847600	0.477700	0.273700
C1291	C129	0.776600	0.498700	0.281800
C1301	C130	0.732100	0.494400	0.269200
H871	H87	0.704600	0.515100	0.279800
C1311	C131	0.727700	0.459300	0.240600
H881	H88	0.696900	0.456600	0.231700
C1321	C132	0.781300	0.529700	0.313300
C1331	C133	0.826500	0.564200	0.352900
C1341	C134	0.745100	0.567100	0.356040
C1351	C135	0.873600	0.576500	0.367200
C1361	C136	0.915600	0.570800	0.351600
H891	H89	0.915200	0.556200	0.331200
C1371	C137	0.959000	0.586700	0.366200
H901	H90	0.988000	0.582700	0.355300
C1381	C138	0.921000	0.611400	0.409800
H911	H91	0.922500	0.624800	0.430200
C1391	C139	0.876200	0.596800	0.397100
H921	H92	0.847800	0.600600	0.408600
C1401	C140	0.701700	0.583900	0.373300
C1411	C141	0.704100	0.614600	0.402500
H931	H93	0.734100	0.622400	0.412100
C1421	C142	0.661500	0.633000	0.416900
H941	H94	0.663000	0.655300	0.436600
C1431	C143	0.616400	0.588100	0.377300
H951	H95	0.585800	0.576100	0.368900
C1441	C144	0.656500	0.570400	0.360700
H961	H96	0.653600	0.549300	0.340900
I191	I19	0.488450	0.582010	0.399740
I201	I20	0.571290	0.843900	0.436220
I211	I21	0.695860	0.808160	0.695510
I221	I22	0.830900	0.656540	0.673920
I231	I23	0.573410	0.771200	0.625930
I241	I24	0.508990	0.780840	0.535770
N371	N37	0.567600	0.588600	0.465870
N381	N38	0.596000	0.328100	0.542230
N391	N39	0.631900	0.321300	0.589320
N401	N40	0.630100	0.470400	0.562890
N411	N41	0.556800	0.992100	0.578390
N421	N42	0.705900	0.570900	0.657190
N431	N43	0.766300	0.429100	0.225430
N441	N44	0.825600	0.539400	0.324560
N451	N45	0.787800	0.579100	0.369230
N461	N46	0.740500	0.542500	0.328060
N471	N47	0.961800	0.607500	0.394870
N481	N48	0.618500	0.621400	0.404880
Zn101	Zn10	0.556780	0.662650	0.427110
Zn111	Zn11	0.742510	0.649990	0.687550
Zn121	Zn12	0.526280	0.856910	0.585700
C1451	C145	0.944700	0.994900	0.468500
H971	H97	0.962400	0.965600	0.453100
C1461	C146	0.933200	0.938300	0.492600
H981	H98	0.943500	0.872400	0.493800
C1471	C147	0.906300	0.979500	0.514800
C1481	C148	0.894100	0.076600	0.512400
H991	H99	0.876300	0.107500	0.527500
C1491	C149	0.907800	0.128800	0.487800
H1001	H100	0.899300	0.195700	0.486500
C1501	C150	0.892000	0.922100	0.541000
C1511	C151	0.891700	0.782100	0.566600
C1521	C152	0.858900	0.916800	0.586200
C1531	C153	0.907600	0.677800	0.570200
C1541	C154	0.933100	0.633300	0.548300
H1011	H101	0.939100	0.665700	0.530300
C1551	C155	0.950200	0.538800	0.553300
H1021	H102	0.967400	0.506800	0.538100
C1561	C156	0.918500	0.536800	0.599500
H1031	H103	0.913400	0.503400	0.617400
C1571	C157	0.899900	0.630100	0.596300
H1041	H104	0.882300	0.660100	0.611700
C1581	C158	0.836600	0.968700	0.611000
C1591	C159	0.814900	0.921000	0.634000
H1051	H105	0.814100	0.851700	0.634400
C1601	C160	0.794500	0.972200	0.656300
H1061	H106	0.779900	0.937300	0.672000
C1611	C161	0.815800	0.117500	0.635500
H1071	H107	0.817000	0.186700	0.635900
C1621	C162	0.837000	0.067500	0.611900
H1081	H108	0.851800	0.103300	0.596500
C1631	C163	0.691300	0.938400	0.237500
H1091	H109	0.664000	0.920700	0.226300
C1641	C164	0.683900	0.972600	0.265800
H1101	H110	0.652400	0.977700	0.273700
C1651	C165	0.723400	0.998700	0.281800
C1661	C166	0.767900	0.994400	0.269200
H1111	H111	0.795400	0.015100	0.279800
C1671	C167	0.772300	0.959300	0.240600
H1121	H112	0.803100	0.956600	0.231700
C1681	C168	0.718700	0.029700	0.313300
C1691	C169	0.673500	0.064200	0.352900
C1701	C170	0.754900	0.067100	0.356040
C1711	C171	0.626400	0.076500	0.367200
C1721	C172	0.584400	0.070800	0.351600
H1131	H113	0.584800	0.056200	0.331200
C1731	C173	0.541000	0.086700	0.366200
H1141	H114	0.512000	0.082700	0.355300
C1741	C174	0.579000	0.111400	0.409800
H1151	H115	0.577500	0.124800	0.430200
C1751	C175	0.623800	0.096800	0.397100
H1161	H116	0.652200	0.100600	0.408600
C1761	C176	0.798300	0.083900	0.373300
C1771	C177	0.795900	0.114600	0.402500
H1171	H117	0.765900	0.122400	0.412100
C1781	C178	0.838500	0.133000	0.416900
H1181	H118	0.837000	0.155300	0.436600
C1791	C179	0.883600	0.088100	0.377300
H1191	H119	0.914200	0.076100	0.368900
C1801	C180	0.843500	0.070400	0.360700
H1201	H120	0.846400	0.049300	0.340900
I251	I25	0.011550	0.082010	0.399740
I261	I26	0.928710	0.343900	0.436220
I271	I27	0.804140	0.308160	0.695510
I281	I28	0.669100	0.156540	0.673920
I291	I29	0.926590	0.271200	0.625930
I301	I30	0.991010	0.280840	0.535770
N491	N49	0.932400	0.088600	0.465870
N501	N50	0.904000	0.828100	0.542230
N511	N51	0.868100	0.821300	0.589320
N521	N52	0.869900	0.970400	0.562890
N531	N53	0.943200	0.492100	0.578390
N541	N54	0.794100	0.070900	0.657190
N551	N55	0.733700	0.929100	0.225430
N561	N56	0.674400	0.039400	0.324560
N571	N57	0.712200	0.079100	0.369230
N581	N58	0.759500	0.042500	0.328060
N591	N59	0.538200	0.107500	0.394870
N601	N60	0.881500	0.121400	0.404880
Zn131	Zn13	0.943220	0.162650	0.427110
Zn141	Zn14	0.757490	0.149990	0.687550
Zn151	Zn15	0.973720	0.356910	0.585700
C1811	C181	0.555300	0.005100	0.968500
H1211	H121	0.537600	0.034400	0.953100
C1821	C182	0.566800	0.061700	0.992600
H1221	H122	0.556500	0.127600	0.993800
C1831	C183	0.593700	0.020500	0.014800
C1841	C184	0.605900	0.923400	0.012400
H1231	H123	0.623700	0.892500	0.027500
C1851	C185	0.592200	0.871200	0.987800
H1241	H124	0.600700	0.804300	0.986500
C1861	C186	0.608000	0.077900	0.041000
C1871	C187	0.608300	0.217900	0.066600
C1881	C188	0.641100	0.083200	0.086200
C1891	C189	0.592400	0.322200	0.070200
C1901	C190	0.566900	0.366700	0.048300
H1251	H125	0.560900	0.334300	0.030300
C1911	C191	0.549800	0.461200	0.053300
H1261	H126	0.532600	0.493200	0.038100
C1921	C192	0.581500	0.463200	0.099500
H1271	H127	0.586600	0.496600	0.117400
C1931	C193	0.600100	0.369900	0.096300
H1281	H128	0.617700	0.339900	0.111700
C1941	C194	0.663400	0.031300	0.111000
C1951	C195	0.685100	0.079000	0.134000
H1291	H129	0.685900	0.148300	0.134400
C1961	C196	0.705500	0.027800	0.156300
H1301	H130	0.720100	0.062700	0.172000
C1971	C197	0.684200	0.882500	0.135500
H1311	H131	0.683000	0.813300	0.135900
C1981	C198	0.663000	0.932500	0.111900
H1321	H132	0.648200	0.896700	0.096500
C1991	C199	0.808700	0.061600	0.737500
H1331	H133	0.836000	0.079300	0.726300
C2001	C200	0.816100	0.027400	0.765800
H1341	H134	0.847600	0.022300	0.773700
C2011	C201	0.776600	0.001300	0.781800
C2021	C202	0.732100	0.005600	0.769200
H1351	H135	0.704600	0.984900	0.779800
C2031	C203	0.727700	0.040700	0.740600
H1361	H136	0.696900	0.043400	0.731700
C2041	C204	0.781300	0.970300	0.813300
C2051	C205	0.826500	0.935800	0.852900
C2061	C206	0.745100	0.932900	0.856040
C2071	C207	0.873600	0.923500	0.867200
C2081	C208	0.915600	0.929200	0.851600
H1371	H137	0.915200	0.943800	0.831200
C2091	C209	0.959000	0.913300	0.866200
H1381	H138	0.988000	0.917300	0.855300
C2101	C210	0.921000	0.888600	0.909800
H1391	H139	0.922500	0.875200	0.930200
C2111	C211	0.876200	0.903200	0.897100
H1401	H140	0.847800	0.899400	0.908600
C2121	C212	0.701700	0.916100	0.873300
C2131	C213	0.704100	0.885400	0.902500
H1411	H141	0.734100	0.877600	0.912100
C2141	C214	0.661500	0.867000	0.916900
H1421	H142	0.663000	0.844700	0.936600
C2151	C215	0.616400	0.911900	0.877300
H1431	H143	0.585800	0.923900	0.868900
C2161	C216	0.656500	0.929600	0.860700
H1441	H144	0.653600	0.950700	0.840900
I311	I31	0.488450	0.917990	0.899740
I321	I32	0.571290	0.656100	0.936220
I331	I33	0.695860	0.691840	0.195510
I341	I34	0.830900	0.843460	0.173920
I351	I35	0.573410	0.728800	0.125930
I361	I36	0.508990	0.719160	0.035770
N611	N61	0.567600	0.911400	0.965870
N621	N62	0.596000	0.171900	0.042230
N631	N63	0.631900	0.178700	0.089320
N641	N64	0.630100	0.029600	0.062890
N651	N65	0.556800	0.507900	0.078390
N661	N66	0.705900	0.929100	0.157190
N671	N67	0.766300	0.070900	0.725430
N681	N68	0.825600	0.960600	0.824560
N691	N69	0.787800	0.920900	0.869230
N701	N70	0.740500	0.957500	0.828060
N711	N71	0.961800	0.892500	0.894870
N721	N72	0.618500	0.878600	0.904880
Zn161	Zn16	0.556780	0.837350	0.927110
Zn171	Zn17	0.742510	0.850010	0.187550
Zn181	Zn18	0.526280	0.643090	0.085700
C2171	C217	0.055300	0.494900	0.031500
H1451	H145	0.037600	0.465600	0.046900
C2181	C218	0.066800	0.438300	0.007400
H1461	H146	0.056500	0.372400	0.006200
C2191	C219	0.093700	0.479500	0.985200
C2201	C220	0.105900	0.576600	0.987600
H1471	H147	0.123700	0.607500	0.972500
C2211	C221	0.092200	0.628800	0.012200
H1481	H148	0.100700	0.695700	0.013500
C2221	C222	0.108000	0.422100	0.959000
C2231	C223	0.108300	0.282100	0.933400
C2241	C224	0.141100	0.416800	0.913800
C2251	C225	0.092400	0.177800	0.929800
C2261	C226	0.066900	0.133300	0.951700
H1491	H149	0.060900	0.165700	0.969700
C2271	C227	0.049800	0.038800	0.946700
H1501	H150	0.032600	0.006800	0.961900
C2281	C228	0.081500	0.036800	0.900500
H1511	H151	0.086600	0.003400	0.882600
C2291	C229	0.100100	0.130100	0.903700
H1521	H152	0.117700	0.160100	0.888300
C2301	C230	0.163400	0.468700	0.889000
C2311	C231	0.185100	0.421000	0.866000
H1531	H153	0.185900	0.351700	0.865600
C2321	C232	0.205500	0.472200	0.843700
H1541	H154	0.220100	0.437300	0.828000
C2331	C233	0.184200	0.617500	0.864500
H1551	H155	0.183000	0.686700	0.864100
C2341	C234	0.163000	0.567500	0.888100
H1561	H156	0.148200	0.603300	0.903500
C2351	C235	0.308700	0.438400	0.262500
H1571	H157	0.336000	0.420700	0.273700
C2361	C236	0.316100	0.472600	0.234200
H1581	H158	0.347600	0.477700	0.226300
C2371	C237	0.276600	0.498700	0.218200
C2381	C238	0.232100	0.494400	0.230800
H1591	H159	0.204600	0.515100	0.220200
C2391	C239	0.227700	0.459300	0.259400
H1601	H160	0.196900	0.456600	0.268300
C2401	C240	0.281300	0.529700	0.186700
C2411	C241	0.326500	0.564200	0.147100
C2421	C242	0.245100	0.567100	0.143960
C2431	C243	0.373600	0.576500	0.132800
C2441	C244	0.415600	0.570800	0.148400
H1611	H161	0.415200	0.556200	0.168800
C2451	C245	0.459000	0.586700	0.133800
H1621	H162	0.488000	0.582700	0.144700
C2461	C246	0.421000	0.611400	0.090200
H1631	H163	0.422500	0.624800	0.069800
C2471	C247	0.376200	0.596800	0.102900
H1641	H164	0.347800	0.600600	0.091400
C2481	C248	0.201700	0.583900	0.126700
C2491	C249	0.204100	0.614600	0.097500
H1651	H165	0.234100	0.622400	0.087900
C2501	C250	0.161500	0.633000	0.083100
H1661	H166	0.163000	0.655300	0.063400
C2511	C251	0.116400	0.588100	0.122700
H1671	H167	0.085800	0.576100	0.131100
C2521	C252	0.156500	0.570400	0.139300
H1681	H168	0.153600	0.549300	0.159100
I371	I37	0.988450	0.582010	0.100260
I381	I38	0.071290	0.843900	0.063780
I391	I39	0.195860	0.808160	0.804490
I401	I40	0.330900	0.656540	0.826080
I411	I41	0.073410	0.771200	0.874070
I421	I42	0.008990	0.780840	0.964230
N731	N73	0.067600	0.588600	0.034130
N741	N74	0.096000	0.328100	0.957770
N751	N75	0.131900	0.321300	0.910680
N761	N76	0.130100	0.470400	0.937110
N771	N77	0.056800	0.992100	0.921610
N781	N78	0.205900	0.570900	0.842810
N791	N79	0.266300	0.429100	0.274570
N801	N80	0.325600	0.539400	0.175440
N811	N81	0.287800	0.579100	0.130770
N821	N82	0.240500	0.542500	0.171940
N831	N83	0.461800	0.607500	0.105130
N841	N84	0.118500	0.621400	0.095120
Zn191	Zn19	0.056780	0.662650	0.072890
Zn201	Zn20	0.242510	0.649990	0.812450
Zn211	Zn21	0.026280	0.856910	0.914300
C2531	C253	0.444700	0.505100	0.531500
H1691	H169	0.462400	0.534400	0.546900
C2541	C254	0.433200	0.561700	0.507400
H1701	H170	0.443500	0.627600	0.506200
C2551	C255	0.406300	0.520500	0.485200
C2561	C256	0.394100	0.423400	0.487600
H1711	H171	0.376300	0.392500	0.472500
C2571	C257	0.407800	0.371200	0.512200
H1721	H172	0.399300	0.304300	0.513500
C2581	C258	0.392000	0.577900	0.459000
C2591	C259	0.391700	0.717900	0.433400
C2601	C260	0.358900	0.583200	0.413800
C2611	C261	0.407600	0.822200	0.429800
C2621	C262	0.433100	0.866700	0.451700
H1731	H173	0.439100	0.834300	0.469700
C2631	C263	0.450200	0.961200	0.446700
H1741	H174	0.467400	0.993200	0.461900
C2641	C264	0.418500	0.963200	0.400500
H1751	H175	0.413400	0.996600	0.382600
C2651	C265	0.399900	0.869900	0.403700
H1761	H176	0.382300	0.839900	0.388300
C2661	C266	0.336600	0.531300	0.389000
C2671	C267	0.314900	0.579000	0.366000
H1771	H177	0.314100	0.648300	0.365600
C2681	C268	0.294500	0.527800	0.343700
H1781	H178	0.279900	0.562700	0.328000
C2691	C269	0.315800	0.382500	0.364500
H1791	H179	0.317000	0.313300	0.364100
C2701	C270	0.337000	0.432500	0.388100
H1801	H180	0.351800	0.396700	0.403500
C2711	C271	0.191300	0.561600	0.762500
H1811	H181	0.164000	0.579300	0.773700
C2721	C272	0.183900	0.527400	0.734200
H1821	H182	0.152400	0.522300	0.726300
C2731	C273	0.223400	0.501300	0.718200
C2741	C274	0.267900	0.505600	0.730800
H1831	H183	0.295400	0.484900	0.720200
C2751	C275	0.272300	0.540700	0.759400
H1841	H184	0.303100	0.543400	0.768300
C2761	C276	0.218700	0.470300	0.686700
C2771	C277	0.173500	0.435800	0.647100
C2781	C278	0.254900	0.432900	0.643960
C2791	C279	0.126400	0.423500	0.632800
C2801	C280	0.084400	0.429200	0.648400
H1851	H185	0.084800	0.443800	0.668800
C2811	C281	0.041000	0.413300	0.633800
H1861	H186	0.012000	0.417300	0.644700
C2821	C282	0.079000	0.388600	0.590200
H1871	H187	0.077500	0.375200	0.569800
C2831	C283	0.123800	0.403200	0.602900
H1881	H188	0.152200	0.399400	0.591400
C2841	C284	0.298300	0.416100	0.626700
C2851	C285	0.295900	0.385400	0.597500
H1891	H189	0.265900	0.377600	0.587900
C2861	C286	0.338500	0.367000	0.583100
H1901	H190	0.337000	0.344700	0.563400
C2871	C287	0.383600	0.411900	0.622700
H1911	H191	0.414200	0.423900	0.631100
C2881	C288	0.343500	0.429600	0.639300
H1921	H192	0.346400	0.450700	0.659100
I431	I43	0.511550	0.417990	0.600260
I441	I44	0.428710	0.156100	0.563780
I451	I45	0.304140	0.191840	0.304490
I461	I46	0.169100	0.343460	0.326080
I471	I47	0.426590	0.228800	0.374070
I481	I48	0.491010	0.219160	0.464230
N851	N85	0.432400	0.411400	0.534130
N861	N86	0.404000	0.671900	0.457770
N871	N87	0.368100	0.678700	0.410680
N881	N88	0.369900	0.529600	0.437110
N891	N89	0.443200	0.007900	0.421610
N901	N90	0.294100	0.429100	0.342810
N911	N91	0.233700	0.570900	0.774570
N921	N92	0.174400	0.460600	0.675440
N931	N93	0.212200	0.420900	0.630770
N941	N94	0.259500	0.457500	0.671940
N951	N95	0.038200	0.392500	0.605130
N961	N96	0.381500	0.378600	0.595120
Zn221	Zn22	0.443220	0.337350	0.572890
Zn231	Zn23	0.257490	0.350010	0.312450
Zn241	Zn24	0.473720	0.143090	0.414300
