data_RAQVEM_freeONLY_PM
_symmetry_space_group_name_H-M	'P1'
_cell_length_a	9.810030
_cell_length_b	18.571000
_cell_length_c	20.230900
_cell_angle_alpha	80.764800
_cell_angle_beta	75.968700
_cell_angle_gamma	74.685200
_symmetry_Int_Tables_number 1

loop_
_symmetry_equiv_pos_as_xyz
'x,y,z'

loop_
_atom_site_label
_atom_site_type_symbol
_atom_site_fract_x
_atom_site_fract_y
_atom_site_fract_z
Zn11	Zn1	0.662140	0.599890	0.821010
Zn21	Zn2	0.083040	0.900110	0.678990
Zn31	Zn3	0.337860	0.400110	0.178990
Zn41	Zn4	0.916960	0.099890	0.321010
Zn51	Zn5	0.008890	0.750000	0.250000
Zn61	Zn6	0.991110	0.250000	0.750000
H11	H1	0.166600	0.237000	0.888200
H21	H2	0.900600	0.549100	0.199300
H31	H3	0.892700	0.421600	0.207400
H41	H4	0.741400	0.472800	0.236000
H51	H5	0.787100	0.363700	0.313100
H61	H6	0.929800	0.382300	0.320100
H71	H7	0.747600	0.419000	0.414200
H81	H8	0.649000	0.469700	0.365700
H91	H9	0.909000	0.496300	0.383100
H101	H10	0.754100	0.546800	0.407000
H111	H11	0.731100	0.583200	0.294600
H121	H12	0.426400	0.558400	0.936600
H131	H13	0.283200	0.475500	0.967500
H141	H14	0.487100	0.381100	0.795100
H151	H15	0.629600	0.464300	0.770900
H161	H16	0.018500	0.183400	0.976600
H171	H17	0.842800	0.146900	0.063500
H181	H18	0.782500	0.324600	0.153600
H191	H19	0.957700	0.367200	0.071200
H201	H20	0.134800	0.651700	0.140300
H211	H21	0.304300	0.639300	0.040700
H221	H22	0.438000	0.811800	0.078400
H231	H23	0.258100	0.822100	0.175700
H241	H24	0.762100	0.851900	0.906700
H251	H25	0.919100	0.910100	0.828900
H261	H26	0.995300	0.757500	0.703900
H271	H27	0.836000	0.696300	0.779100
H281	H28	0.291800	0.263000	0.611800
H291	H29	0.649000	0.950900	0.300700
H301	H30	0.521700	0.078400	0.292600
H311	H31	0.450200	0.027200	0.264000
H321	H32	0.463900	0.136300	0.186900
H331	H33	0.632200	0.117700	0.179900
H341	H34	0.580800	0.081000	0.085800
H351	H35	0.484400	0.030300	0.134300
H361	H36	0.788400	0.003700	0.116900
H371	H37	0.707900	0.953200	0.093000
H381	H38	0.608900	0.916800	0.205400
H391	H39	0.921400	0.941600	0.563400
H401	H40	0.726200	0.024500	0.532500
H411	H41	0.663300	0.118900	0.704900
H421	H42	0.864800	0.035700	0.729100
H431	H43	0.178500	0.316600	0.523400
H441	H44	0.053200	0.353100	0.436500
H451	H45	0.260700	0.175400	0.346400
H461	H46	0.396100	0.132800	0.428800
H471	H47	0.926800	0.848300	0.359700
H481	H48	0.984300	0.860700	0.459300
H491	H49	0.328200	0.688200	0.421600
H501	H50	0.255900	0.677900	0.324300
H511	H51	0.520700	0.648100	0.593300
H521	H52	0.658100	0.589900	0.671100
H531	H53	0.456700	0.742500	0.796100
H541	H54	0.311400	0.803700	0.720900
H551	H55	0.833400	0.763000	0.111800
H561	H56	0.099400	0.450900	0.800700
H571	H57	0.107300	0.578400	0.792600
H581	H58	0.258600	0.527200	0.764000
H591	H59	0.212900	0.636300	0.686900
H601	H60	0.070200	0.617700	0.679900
H611	H61	0.252400	0.581000	0.585800
H621	H62	0.351000	0.530300	0.634300
H631	H63	0.091000	0.503700	0.616900
H641	H64	0.245900	0.453200	0.593000
H651	H65	0.268900	0.416800	0.705400
H661	H66	0.573600	0.441600	0.063400
H671	H67	0.716800	0.524500	0.032500
H681	H68	0.512900	0.618900	0.204900
H691	H69	0.370400	0.535700	0.229100
H701	H70	0.981500	0.816600	0.023400
H711	H71	0.157200	0.853100	0.936500
H721	H72	0.217500	0.675400	0.846400
H731	H73	0.042300	0.632800	0.928800
H741	H74	0.865200	0.348300	0.859700
H751	H75	0.695700	0.360700	0.959300
H761	H76	0.562000	0.188200	0.921600
H771	H77	0.741900	0.177900	0.824300
H781	H78	0.237900	0.148100	0.093300
H791	H79	0.080900	0.089900	0.171100
H801	H80	0.004700	0.242500	0.296100
H811	H81	0.164000	0.303700	0.220900
H821	H82	0.708200	0.737000	0.388200
H831	H83	0.351000	0.049100	0.699300
H841	H84	0.478300	0.921600	0.707400
H851	H85	0.549800	0.972800	0.736000
H861	H86	0.536100	0.863700	0.813100
H871	H87	0.367800	0.882300	0.820100
H881	H88	0.419200	0.919000	0.914200
H891	H89	0.515600	0.969700	0.865700
H901	H90	0.211600	0.996300	0.883100
H911	H91	0.292100	0.046800	0.907000
H921	H92	0.391100	0.083200	0.794600
H931	H93	0.078600	0.058400	0.436600
H941	H94	0.273800	0.975500	0.467500
H951	H95	0.336700	0.881100	0.295100
H961	H96	0.135200	0.964300	0.270900
H971	H97	0.821500	0.683400	0.476600
H981	H98	0.946800	0.646900	0.563500
H991	H99	0.739300	0.824600	0.653600
H1001	H100	0.603900	0.867200	0.571200
H1011	H101	0.073200	0.151700	0.640300
H1021	H102	0.015700	0.139300	0.540700
H1031	H103	0.671800	0.311800	0.578400
H1041	H104	0.744100	0.322100	0.675700
H1051	H105	0.479300	0.351900	0.406700
H1061	H106	0.341900	0.410100	0.328900
H1071	H107	0.543300	0.257500	0.203900
H1081	H108	0.688600	0.196300	0.279100
C11	C1	0.069300	0.486900	0.241100
C21	C2	0.910000	0.516600	0.242000
C31	C3	0.838500	0.452600	0.243800
C41	C4	0.832400	0.404200	0.313200
C51	C5	0.748200	0.450500	0.370900
C61	C6	0.814600	0.515600	0.371800
C71	C7	0.830100	0.563900	0.301900
C81	C8	0.882400	0.631500	0.302300
C91	C9	0.438300	0.522000	0.907800
C101	C10	0.351600	0.472400	0.926600
C111	C11	0.365600	0.417400	0.884600
C121	C12	0.472800	0.416600	0.825200
C131	C13	0.557000	0.467200	0.810400
C141	C14	0.275500	0.364100	0.904100
C151	C15	0.121300	0.306900	0.960100
C161	C16	0.008100	0.280200	0.014200
C171	C17	0.972700	0.213000	0.012200
C181	C18	0.866600	0.191800	0.065000
C191	C19	0.831500	0.295500	0.117900
C201	C20	0.936200	0.322200	0.068200
C211	C21	0.195400	0.684800	0.127400
C221	C22	0.297300	0.676900	0.067500
C231	C23	0.389400	0.725000	0.046800
C241	C24	0.376100	0.779400	0.089400
C251	C25	0.268600	0.784400	0.148400
C261	C26	0.500200	0.718500	0.982900
C271	C27	0.666100	0.734800	0.899200
C281	C28	0.776100	0.768100	0.851500
C291	C29	0.806800	0.832100	0.865300
C301	C30	0.902200	0.866700	0.818500
C311	C31	0.946800	0.777300	0.744900
C321	C32	0.850500	0.740100	0.790100
C331	C33	0.797300	0.013100	0.258900
C341	C34	0.668600	0.983400	0.258000
C351	C35	0.534900	0.047400	0.256200
C361	C36	0.549800	0.095800	0.186800
C371	C37	0.569600	0.049500	0.129100
C381	C38	0.702000	0.984400	0.128200
C391	C39	0.695900	0.936100	0.198100
C401	C40	0.816200	0.868500	0.197700
C411	C41	0.868100	0.978000	0.592200
C421	C42	0.750600	0.027600	0.573400
C431	C43	0.667600	0.082600	0.615400
C441	C44	0.714600	0.083400	0.674800
C451	C45	0.834600	0.032800	0.689600
C461	C46	0.543700	0.135900	0.595900
C471	C47	0.388300	0.193100	0.539900
C481	C48	0.302500	0.219800	0.485800
C491	C49	0.197900	0.287000	0.487800
C501	C50	0.123400	0.308200	0.435000
C511	C51	0.244900	0.204500	0.382100
C521	C52	0.326600	0.177800	0.431800
C531	C53	0.007600	0.815200	0.372600
C541	C54	0.041700	0.823100	0.432500
C551	C55	0.161200	0.775000	0.453200
C561	C56	0.244900	0.720600	0.410600
C571	C57	0.201400	0.715600	0.351600
C581	C58	0.201600	0.781500	0.517100
C591	C59	0.300100	0.765200	0.600800
C601	C60	0.395700	0.731900	0.648500
C611	C61	0.504200	0.667900	0.634700
C621	C62	0.587400	0.633300	0.681500
C631	C63	0.469000	0.722700	0.755100
C641	C64	0.380700	0.759900	0.709900
C651	C65	0.930700	0.513100	0.758900
C661	C66	0.090000	0.483400	0.758000
C671	C67	0.161500	0.547400	0.756200
C681	C68	0.167600	0.595800	0.686800
C691	C69	0.251800	0.549500	0.629100
C701	C70	0.185400	0.484400	0.628200
C711	C71	0.169900	0.436100	0.698100
C721	C72	0.117600	0.368500	0.697700
C731	C73	0.561700	0.478000	0.092200
C741	C74	0.648400	0.527600	0.073400
C751	C75	0.634400	0.582600	0.115400
C761	C76	0.527200	0.583400	0.174800
C771	C77	0.443000	0.532800	0.189600
C781	C78	0.724500	0.635900	0.095900
C791	C79	0.878700	0.693100	0.039900
C801	C80	0.991900	0.719800	0.985800
C811	C81	0.027300	0.787000	0.987800
C821	C82	0.133400	0.808200	0.935000
C831	C83	0.168500	0.704500	0.882100
C841	C84	0.063800	0.677800	0.931800
C851	C85	0.804600	0.315200	0.872600
C861	C86	0.702700	0.323100	0.932500
C871	C87	0.610600	0.275000	0.953200
C881	C88	0.623900	0.220600	0.910600
C891	C89	0.731400	0.215600	0.851600
C901	C90	0.499800	0.281500	0.017100
C911	C91	0.333900	0.265200	0.100800
C921	C92	0.223900	0.231900	0.148500
C931	C93	0.193200	0.167900	0.134700
C941	C94	0.097800	0.133300	0.181500
C951	C95	0.053200	0.222700	0.255100
C961	C96	0.149500	0.259900	0.209900
C971	C97	0.202700	0.986900	0.741100
C981	C98	0.331400	0.016600	0.742000
C991	C99	0.465100	0.952600	0.743800
C1001	C100	0.450200	0.904200	0.813200
C1011	C101	0.430400	0.950500	0.870900
C1021	C102	0.298000	0.015600	0.871800
C1031	C103	0.304100	0.063900	0.801900
C1041	C104	0.183800	0.131500	0.802300
C1051	C105	0.131900	0.022000	0.407800
C1061	C106	0.249400	0.972400	0.426600
C1071	C107	0.332400	0.917400	0.384600
C1081	C108	0.285400	0.916600	0.325200
C1091	C109	0.165400	0.967200	0.310400
C1101	C110	0.456300	0.864100	0.404100
C1111	C111	0.611700	0.806900	0.460100
C1121	C112	0.697500	0.780200	0.514200
C1131	C113	0.802100	0.713000	0.512200
C1141	C114	0.876600	0.691800	0.565000
C1151	C115	0.755100	0.795500	0.617900
C1161	C116	0.673400	0.822200	0.568200
C1171	C117	0.992400	0.184800	0.627400
C1181	C118	0.958300	0.176900	0.567500
C1191	C119	0.838800	0.225000	0.546800
C1201	C120	0.755100	0.279400	0.589400
C1211	C121	0.798600	0.284400	0.648400
C1221	C122	0.798400	0.218500	0.482900
C1231	C123	0.699900	0.234800	0.399200
C1241	C124	0.604300	0.268100	0.351500
C1251	C125	0.495800	0.332100	0.365300
C1261	C126	0.412600	0.366700	0.318500
C1271	C127	0.531000	0.277300	0.244900
C1281	C128	0.619300	0.240100	0.290100
N11	N1	0.538800	0.520800	0.850600
N21	N2	0.172200	0.365100	0.962900
N31	N3	0.188300	0.273700	0.903900
N41	N4	0.288200	0.309800	0.866600
N51	N5	0.796400	0.231000	0.117800
N61	N6	0.179200	0.738100	0.168500
N71	N7	0.590100	0.764400	0.957800
N81	N8	0.514700	0.662700	0.944700
N91	N9	0.623700	0.674400	0.889400
N101	N10	0.973000	0.840100	0.757900
N111	N11	0.910200	0.979200	0.649400
N121	N12	0.500200	0.134900	0.537100
N131	N13	0.365900	0.226300	0.596100
N141	N14	0.464600	0.190200	0.633400
N151	N15	0.145200	0.269000	0.382200
N161	N16	0.085800	0.761900	0.331500
N171	N17	0.312300	0.735600	0.542200
N181	N18	0.122100	0.837300	0.555300
N191	N19	0.187500	0.825600	0.610600
N201	N20	0.571000	0.659900	0.742100
N211	N21	0.461200	0.479200	0.149400
N221	N22	0.827800	0.634900	0.037100
N231	N23	0.811700	0.726300	0.096100
N241	N24	0.711800	0.690200	0.133400
N251	N25	0.203600	0.769000	0.882200
N261	N26	0.820800	0.261900	0.831500
N271	N27	0.409900	0.235600	0.042200
N281	N28	0.485300	0.337300	0.055300
N291	N29	0.376300	0.325600	0.110600
N301	N30	0.027000	0.159900	0.242100
N311	N31	0.089800	0.020800	0.350600
N321	N32	0.499800	0.865100	0.462900
N331	N33	0.634100	0.773700	0.403900
N341	N34	0.535400	0.809800	0.366600
N351	N35	0.854800	0.731000	0.617800
N361	N36	0.914200	0.238100	0.668500
N371	N37	0.687700	0.264400	0.457800
N381	N38	0.877900	0.162700	0.444700
N391	N39	0.812500	0.174400	0.389400
N401	N40	0.429000	0.340100	0.257900
O11	O1	0.136400	0.447800	0.190600
O21	O2	0.131200	0.497300	0.282500
O31	O3	0.950830	0.658840	0.244900
O41	O4	0.859300	0.662300	0.355700
O51	O5	0.774800	0.052200	0.309400
O61	O6	0.911000	0.002700	0.217500
O71	O7	0.854570	0.841160	0.255100
O81	O8	0.877300	0.837700	0.144300
O91	O9	0.863600	0.552200	0.809400
O101	O10	0.868800	0.502700	0.717500
O111	O11	0.049170	0.341160	0.755100
O121	O12	0.140700	0.337700	0.644300
O131	O13	0.225200	0.947800	0.690600
O141	O14	0.089000	0.997300	0.782500
O151	O15	0.145430	0.158840	0.744900
O161	O16	0.122700	0.162300	0.855700
