data_RATNIL_charged_PM
_symmetry_space_group_name_H-M	'P1'
_cell_length_a	10.924900
_cell_length_b	12.614800
_cell_length_c	29.957000
_cell_angle_alpha	90.770500
_cell_angle_beta	90.000000
_cell_angle_gamma	90.000000
_symmetry_Int_Tables_number 1

loop_
_symmetry_equiv_pos_as_xyz
'x,y,z'

loop_
_atom_site_label
_atom_site_type_symbol
_atom_site_fract_x
_atom_site_fract_y
_atom_site_fract_z
Cu11	Cu1	0.087810	0.003680	0.318400
Cu21	Cu2	0.587810	0.496320	0.181600
Cu31	Cu3	0.912190	0.996320	0.681600
Cu41	Cu4	0.412190	0.503680	0.818400
Cu51	Cu5	0.500000	0.500000	0.500000
Cu61	Cu6	0.000000	0.000000	0.000000
H11	H1	0.184000	0.860000	0.393400
H21	H2	0.364500	0.616300	0.333100
H31	H3	0.225400	0.861100	0.262800
H41	H4	0.452300	0.597100	0.402700
H51	H5	0.252700	0.632200	0.511700
H61	H6	0.154900	0.740600	0.453400
H71	H7	0.489900	0.598600	0.270900
H81	H8	0.354900	0.632500	0.150200
H91	H9	0.227800	0.738100	0.201400
H101	H10	0.261100	0.110300	0.262100
H111	H11	0.477500	0.306500	0.335100
H121	H12	0.236500	0.107700	0.393800
H131	H13	0.473400	0.406100	0.269500
H141	H14	0.504000	0.258300	0.152600
H151	H15	0.412800	0.131300	0.204400
H161	H16	0.445300	0.406100	0.401500
H171	H17	0.430400	0.257400	0.516300
H181	H18	0.364600	0.129900	0.458200
H191	H19	0.684000	0.640000	0.106600
H201	H20	0.864500	0.883700	0.166900
H211	H21	0.725400	0.638900	0.237200
H221	H22	0.952300	0.902900	0.097300
H231	H23	0.752700	0.867800	0.988300
H241	H24	0.654900	0.759400	0.046600
H251	H25	0.989900	0.901400	0.229100
H261	H26	0.854900	0.867500	0.349800
H271	H27	0.727800	0.761900	0.298600
H281	H28	0.761100	0.389700	0.237900
H291	H29	0.977500	0.193500	0.164900
H301	H30	0.736500	0.392300	0.106200
H311	H31	0.973400	0.093900	0.230500
H321	H32	0.004000	0.241700	0.347400
H331	H33	0.912800	0.368700	0.295600
H341	H34	0.945300	0.093900	0.098500
H351	H35	0.930400	0.242600	0.983700
H361	H36	0.864600	0.370100	0.041800
H371	H37	0.816000	0.140000	0.606600
H381	H38	0.635500	0.383700	0.666900
H391	H39	0.774600	0.138900	0.737200
H401	H40	0.547700	0.402900	0.597300
H411	H41	0.747300	0.367800	0.488300
H421	H42	0.845100	0.259400	0.546600
H431	H43	0.510100	0.401400	0.729100
H441	H44	0.645100	0.367500	0.849800
H451	H45	0.772200	0.261900	0.798600
H461	H46	0.738900	0.889700	0.737900
H471	H47	0.522500	0.693500	0.664900
H481	H48	0.763500	0.892300	0.606200
H491	H49	0.526600	0.593900	0.730500
H501	H50	0.496000	0.741700	0.847400
H511	H51	0.587200	0.868700	0.795600
H521	H52	0.554700	0.593900	0.598500
H531	H53	0.569600	0.742600	0.483700
H541	H54	0.635400	0.870100	0.541800
H551	H55	0.316000	0.360000	0.893400
H561	H56	0.135500	0.116300	0.833100
H571	H57	0.274600	0.361100	0.762800
H581	H58	0.047700	0.097100	0.902700
H591	H59	0.247300	0.132200	0.011700
H601	H60	0.345100	0.240600	0.953400
H611	H61	0.010100	0.098600	0.770900
H621	H62	0.145100	0.132500	0.650200
H631	H63	0.272200	0.238100	0.701400
H641	H64	0.238900	0.610300	0.762100
H651	H65	0.022500	0.806500	0.835100
H661	H66	0.263500	0.607700	0.893800
H671	H67	0.026600	0.906100	0.769500
H681	H68	0.996000	0.758300	0.652600
H691	H69	0.087200	0.631300	0.704400
H701	H70	0.054700	0.906100	0.901500
H711	H71	0.069600	0.757400	0.016300
H721	H72	0.135400	0.629900	0.958200
C11	C1	0.213700	0.826450	0.366950
C21	C2	0.278000	0.731680	0.370080
C31	C3	0.321900	0.681810	0.331810
C41	C4	0.300900	0.731860	0.291660
C51	C5	0.237200	0.827080	0.290580
C61	C6	0.390100	0.619390	0.422890
C71	C7	0.281000	0.639120	0.481920
C81	C8	0.226600	0.698440	0.450240
C91	C9	0.440400	0.620820	0.246720
C101	C10	0.366700	0.639220	0.181520
C111	C11	0.297300	0.697100	0.209200
C121	C12	0.286600	0.137130	0.290330
C131	C13	0.374800	0.214790	0.292390
C141	C14	0.415200	0.254060	0.333260
C151	C15	0.361400	0.213910	0.371110
C161	C16	0.272200	0.135430	0.367530
C171	C17	0.468600	0.353640	0.246440
C181	C18	0.484800	0.272230	0.183030
C191	C19	0.435700	0.202410	0.211110
C201	C20	0.433200	0.353050	0.423250
C211	C21	0.424600	0.271640	0.485340
C221	C22	0.389000	0.201280	0.453780
C231	C23	0.713700	0.673550	0.133050
C241	C24	0.778000	0.768320	0.129920
C251	C25	0.821900	0.818190	0.168190
C261	C26	0.800900	0.768140	0.208340
C271	C27	0.737200	0.672920	0.209420
C281	C28	0.890100	0.880610	0.077110
C291	C29	0.781000	0.860880	0.018080
C301	C30	0.726600	0.801560	0.049760
C311	C31	0.940400	0.879180	0.253280
C321	C32	0.866700	0.860780	0.318480
C331	C33	0.797300	0.802900	0.290800
C341	C34	0.786600	0.362870	0.209670
C351	C35	0.874800	0.285210	0.207610
C361	C36	0.915200	0.245940	0.166740
C371	C37	0.861400	0.286090	0.128890
C381	C38	0.772200	0.364570	0.132470
C391	C39	0.968600	0.146360	0.253560
C401	C40	0.984800	0.227770	0.316970
C411	C41	0.935700	0.297590	0.288890
C421	C42	0.933200	0.146950	0.076750
C431	C43	0.924600	0.228360	0.014660
C441	C44	0.889000	0.298720	0.046220
C451	C45	0.786300	0.173550	0.633050
C461	C46	0.722000	0.268320	0.629920
C471	C47	0.678100	0.318190	0.668190
C481	C48	0.699100	0.268140	0.708340
C491	C49	0.762800	0.172920	0.709420
C501	C50	0.609900	0.380610	0.577110
C511	C51	0.719000	0.360880	0.518080
C521	C52	0.773400	0.301560	0.549760
C531	C53	0.559600	0.379180	0.753280
C541	C54	0.633300	0.360780	0.818480
C551	C55	0.702700	0.302900	0.790800
C561	C56	0.713400	0.862870	0.709670
C571	C57	0.625200	0.785210	0.707610
C581	C58	0.584800	0.745940	0.666740
C591	C59	0.638600	0.786090	0.628890
C601	C60	0.727800	0.864570	0.632470
C611	C61	0.531400	0.646360	0.753560
C621	C62	0.515200	0.727770	0.816970
C631	C63	0.564300	0.797590	0.788890
C641	C64	0.566800	0.646950	0.576750
C651	C65	0.575400	0.728360	0.514660
C661	C66	0.611000	0.798720	0.546220
C671	C67	0.286300	0.326450	0.866950
C681	C68	0.222000	0.231680	0.870080
C691	C69	0.178100	0.181810	0.831810
C701	C70	0.199100	0.231860	0.791660
C711	C71	0.262800	0.327080	0.790580
C721	C72	0.109900	0.119390	0.922890
C731	C73	0.219000	0.139120	0.981920
C741	C74	0.273400	0.198440	0.950240
C751	C75	0.059600	0.120820	0.746720
C761	C76	0.133300	0.139220	0.681520
C771	C77	0.202700	0.197100	0.709200
C781	C78	0.213400	0.637130	0.790330
C791	C79	0.125200	0.714790	0.792390
C801	C80	0.084800	0.754060	0.833260
C811	C81	0.138600	0.713910	0.871110
C821	C82	0.227800	0.635430	0.867530
C831	C83	0.031400	0.853640	0.746440
C841	C84	0.015200	0.772230	0.683030
C851	C85	0.064300	0.702410	0.711110
C861	C86	0.066800	0.853050	0.923250
C871	C87	0.075400	0.771640	0.985340
C881	C88	0.111000	0.701280	0.953780
S11	S1	0.000200	0.009100	0.433900
S21	S2	0.500200	0.490900	0.066100
S31	S3	0.999800	0.990900	0.566100
S41	S4	0.499800	0.509100	0.933900
N11	N1	0.192800	0.871490	0.327390
N21	N2	0.297400	0.684900	0.412400
N31	N3	0.383100	0.590520	0.464620
N41	N4	0.345400	0.686100	0.250900
N51	N5	0.457200	0.591120	0.205120
N61	N6	0.236100	0.098450	0.327550
N71	N7	0.425100	0.254250	0.251850
N81	N8	0.503200	0.367610	0.205010
N91	N9	0.394900	0.253220	0.413820
N101	N10	0.451200	0.367450	0.465950
N111	N11	0.692800	0.628510	0.172610
N121	N12	0.797400	0.815100	0.087600
N131	N13	0.883100	0.909480	0.035380
N141	N14	0.845400	0.813900	0.249100
N151	N15	0.957200	0.908880	0.294880
N161	N16	0.736100	0.401550	0.172450
N171	N17	0.925100	0.245750	0.248150
N181	N18	0.003200	0.132390	0.294990
N191	N19	0.894900	0.246780	0.086180
N201	N20	0.951200	0.132550	0.034050
N211	N21	0.807200	0.128510	0.672610
N221	N22	0.702600	0.315100	0.587600
N231	N23	0.616900	0.409480	0.535380
N241	N24	0.654600	0.313900	0.749100
N251	N25	0.542800	0.408880	0.794880
N261	N26	0.763900	0.901550	0.672450
N271	N27	0.574900	0.745750	0.748150
N281	N28	0.496800	0.632390	0.794990
N291	N29	0.605100	0.746780	0.586180
N301	N30	0.548800	0.632550	0.534050
N311	N31	0.307200	0.371490	0.827390
N321	N32	0.202600	0.184900	0.912400
N331	N33	0.116900	0.090520	0.964620
N341	N34	0.154600	0.186100	0.750900
N351	N35	0.042800	0.091120	0.705120
N361	N36	0.263900	0.598450	0.827550
N371	N37	0.074900	0.754250	0.751850
N381	N38	0.996800	0.867610	0.705010
N391	N39	0.105100	0.753220	0.913820
N401	N40	0.048800	0.867450	0.965950
O11	O1	0.018900	0.016990	0.386490
O21	O2	0.099500	0.090000	0.461200
O31	O3	0.034800	0.909300	0.454600
O41	O4	0.518900	0.483010	0.113510
O51	O5	0.599500	0.410000	0.038800
O61	O6	0.534800	0.590700	0.045400
O71	O7	0.981100	0.983010	0.613510
O81	O8	0.900500	0.910000	0.538800
O91	O9	0.965200	0.090700	0.545400
O101	O10	0.481100	0.516990	0.886490
O111	O11	0.400500	0.590000	0.961200
O121	O12	0.465200	0.409300	0.954600
S51	S5	0.667200	0.479710	0.328110
O131	O13	0.530300	0.490620	0.339220
O141	O14	0.690100	0.512520	0.284820
O151	O15	0.672200	0.364400	0.324900
O161	O16	0.750000	0.525500	0.359500
S61	S6	0.167200	0.020290	0.171890
O171	O17	0.030300	0.009380	0.160780
O181	O18	0.190100	0.987480	0.215180
O191	O19	0.172200	0.135600	0.175100
O201	O20	0.250000	0.974500	0.140500
S71	S7	0.332800	0.520290	0.671890
O211	O21	0.469700	0.509380	0.660780
O221	O22	0.309900	0.487480	0.715180
O231	O23	0.327800	0.635600	0.675100
O241	O24	0.250000	0.474500	0.640500
S81	S8	0.832800	0.979710	0.828110
O251	O25	0.969700	0.990620	0.839220
O261	O26	0.809900	0.012520	0.784820
O271	O27	0.827800	0.864400	0.824900
O281	O28	0.750000	0.025500	0.859500
