data_RAVVIU_freeONLY_PM
_symmetry_space_group_name_H-M	'P1'
_cell_length_a	9.811900
_cell_length_b	11.247000
_cell_length_c	14.413900
_cell_angle_alpha	91.155300
_cell_angle_beta	90.000000
_cell_angle_gamma	90.000000
_symmetry_Int_Tables_number 1

loop_
_symmetry_equiv_pos_as_xyz
'x,y,z'

loop_
_atom_site_label
_atom_site_type_symbol
_atom_site_fract_x
_atom_site_fract_y
_atom_site_fract_z
Co11	Co1	0.920270	0.755110	0.133040
Co21	Co2	0.890380	0.259780	0.688860
Co31	Co3	0.420270	0.744890	0.366960
Co41	Co4	0.390380	0.240220	0.811140
Co51	Co5	0.079730	0.244890	0.866960
Co61	Co6	0.109620	0.740220	0.311140
Co71	Co7	0.579730	0.255110	0.633040
Co81	Co8	0.609620	0.759780	0.188860
Co91	Co9	0.000000	0.500000	0.000000
Co101	Co10	0.500000	0.000000	0.500000
Co111	Co11	0.000000	0.000000	0.000000
Co121	Co12	0.500000	0.500000	0.500000
H11	H1	0.756000	0.865000	0.368000
H21	H2	0.035000	0.477000	0.266000
H31	H3	0.617000	0.555000	0.038000
H41	H4	0.705000	0.989000	0.007000
H51	H5	0.161000	0.695000	0.929000
H61	H6	0.193000	0.988000	0.238000
H71	H7	0.256000	0.635000	0.132000
H81	H8	0.535000	0.023000	0.234000
H91	H9	0.117000	0.945000	0.462000
H101	H10	0.205000	0.511000	0.493000
H111	H11	0.661000	0.805000	0.571000
H121	H12	0.693000	0.512000	0.262000
H131	H13	0.244000	0.135000	0.632000
H141	H14	0.965000	0.523000	0.734000
H151	H15	0.383000	0.445000	0.962000
H161	H16	0.295000	0.011000	0.993000
H171	H17	0.839000	0.305000	0.071000
H181	H18	0.807000	0.012000	0.762000
H191	H19	0.744000	0.365000	0.868000
H201	H20	0.465000	0.977000	0.766000
H211	H21	0.883000	0.055000	0.538000
H221	H22	0.795000	0.489000	0.507000
H231	H23	0.339000	0.195000	0.429000
H241	H24	0.307000	0.488000	0.738000
C11	C1	0.826900	0.831600	0.330100
C21	C2	0.012100	0.516200	0.212400
C31	C3	0.710700	0.576100	0.046500
C41	C4	0.128900	0.955100	0.187700
C51	C5	0.107900	0.743000	0.969900
C61	C6	0.721200	0.927800	0.048900
C71	C7	0.326900	0.668400	0.169900
C81	C8	0.512100	0.983800	0.287600
C91	C9	0.210700	0.923900	0.453500
C101	C10	0.628900	0.544900	0.312300
C111	C11	0.607900	0.757000	0.530100
C121	C12	0.221200	0.572200	0.451100
C131	C13	0.173100	0.168400	0.669900
C141	C14	0.987900	0.483800	0.787600
C151	C15	0.289300	0.423900	0.953500
C161	C16	0.871100	0.044900	0.812300
C171	C17	0.892100	0.257000	0.030100
C181	C18	0.278800	0.072200	0.951100
C191	C19	0.673100	0.331600	0.830100
C201	C20	0.487900	0.016200	0.712400
C211	C21	0.789300	0.076100	0.546500
C221	C22	0.371100	0.455100	0.687700
C231	C23	0.392100	0.243000	0.469900
C241	C24	0.778800	0.427800	0.548900
O11	O1	0.799020	0.809290	0.244990
O21	O2	0.939300	0.816900	0.368100
O31	O3	0.003940	0.628610	0.219810
O41	O4	0.994700	0.456800	0.140600
O51	O5	0.742200	0.652900	0.108400
O61	O6	0.790700	0.517890	0.997090
O71	O7	0.083700	0.850110	0.195310
O81	O8	0.104200	0.023970	0.124170
O91	O9	0.027700	0.684440	0.023440
O101	O10	0.116400	0.851400	0.966700
O111	O11	0.845000	0.897080	0.059880
O121	O12	0.620900	0.886710	0.089910
O131	O13	0.299020	0.690710	0.255010
O141	O14	0.439300	0.683100	0.131900
O151	O15	0.503940	0.871390	0.280190
O161	O16	0.494700	0.043200	0.359400
O171	O17	0.242200	0.847100	0.391600
O181	O18	0.290700	0.982110	0.502910
O191	O19	0.583700	0.649890	0.304690
O201	O20	0.604200	0.476030	0.375830
O211	O21	0.527700	0.815560	0.476560
O221	O22	0.616400	0.648600	0.533300
O231	O23	0.345000	0.602920	0.440120
O241	O24	0.120900	0.613290	0.410090
O251	O25	0.200980	0.190710	0.755010
O261	O26	0.060700	0.183100	0.631900
O271	O27	0.996060	0.371390	0.780190
O281	O28	0.005300	0.543200	0.859400
O291	O29	0.257800	0.347100	0.891600
O301	O30	0.209300	0.482110	0.002910
O311	O31	0.916300	0.149890	0.804690
O321	O32	0.895800	0.976030	0.875830
O331	O33	0.972300	0.315560	0.976560
O341	O34	0.883600	0.148600	0.033300
O351	O35	0.155000	0.102920	0.940120
O361	O36	0.379100	0.113290	0.910090
O371	O37	0.700980	0.309290	0.744990
O381	O38	0.560700	0.316900	0.868100
O391	O39	0.496060	0.128610	0.719810
O401	O40	0.505300	0.956800	0.640600
O411	O41	0.757800	0.152900	0.608400
O421	O42	0.709300	0.017890	0.497090
O431	O43	0.416300	0.350110	0.695310
O441	O44	0.395800	0.523970	0.624170
O451	O45	0.472300	0.184440	0.523440
O461	O46	0.383600	0.351400	0.466700
O471	O47	0.655000	0.397080	0.559880
O481	O48	0.879100	0.386710	0.589910
