data_RAVVIU01_freeONLY_PM
_symmetry_space_group_name_H-M	'P1'
_cell_length_a	9.832100
_cell_length_b	11.253900
_cell_length_c	14.422500
_cell_angle_alpha	91.193000
_cell_angle_beta	90.000000
_cell_angle_gamma	90.000000
_symmetry_Int_Tables_number 1

loop_
_symmetry_equiv_pos_as_xyz
'x,y,z'

loop_
_atom_site_label
_atom_site_type_symbol
_atom_site_fract_x
_atom_site_fract_y
_atom_site_fract_z
Co11	Co1	0.420560	0.744860	0.366930
Co21	Co2	0.110280	0.740210	0.310900
Co31	Co3	0.920560	0.755140	0.133070
Co41	Co4	0.610280	0.759790	0.189100
Co51	Co5	0.579440	0.255140	0.633070
Co61	Co6	0.889720	0.259790	0.689100
Co71	Co7	0.079440	0.244860	0.866930
Co81	Co8	0.389720	0.240210	0.810900
Co91	Co9	0.500000	0.000000	0.500000
Co101	Co10	0.000000	0.500000	0.000000
Co111	Co11	0.500000	0.500000	0.500000
Co121	Co12	0.000000	0.000000	0.000000
H11	H1	0.758000	0.861000	0.369000
H21	H2	0.038000	0.475000	0.261000
H31	H3	0.879000	0.055000	0.536000
H41	H4	0.212000	0.509000	0.491000
H51	H5	0.342000	0.201000	0.429000
H61	H6	0.698000	0.516000	0.267000
H71	H7	0.258000	0.639000	0.131000
H81	H8	0.538000	0.025000	0.239000
H91	H9	0.379000	0.445000	0.964000
H101	H10	0.712000	0.991000	0.009000
H111	H11	0.842000	0.299000	0.071000
H121	H12	0.198000	0.984000	0.233000
H131	H13	0.242000	0.139000	0.631000
H141	H14	0.962000	0.525000	0.739000
H151	H15	0.121000	0.945000	0.464000
H161	H16	0.788000	0.491000	0.509000
H171	H17	0.658000	0.799000	0.571000
H181	H18	0.302000	0.484000	0.733000
H191	H19	0.742000	0.361000	0.869000
H201	H20	0.462000	0.975000	0.761000
H211	H21	0.621000	0.555000	0.036000
H221	H22	0.288000	0.009000	0.991000
H231	H23	0.158000	0.701000	0.929000
H241	H24	0.802000	0.016000	0.767000
C11	C1	0.828400	0.830800	0.330100
C21	C2	0.013500	0.517000	0.212000
C31	C3	0.788100	0.075800	0.547200
C41	C4	0.628600	0.544800	0.312600
C51	C5	0.393100	0.243500	0.469900
C61	C6	0.221200	0.572000	0.450500
C71	C7	0.328400	0.669200	0.169900
C81	C8	0.513500	0.983000	0.288000
C91	C9	0.288100	0.424200	0.952800
C101	C10	0.128600	0.955200	0.187400
C111	C11	0.893100	0.256500	0.030100
C121	C12	0.721200	0.928000	0.049500
C131	C13	0.171600	0.169200	0.669900
C141	C14	0.986500	0.483000	0.788000
C151	C15	0.211900	0.924200	0.452800
C161	C16	0.371400	0.455200	0.687400
C171	C17	0.606900	0.756500	0.530100
C181	C18	0.778800	0.428000	0.549500
C191	C19	0.671600	0.330800	0.830100
C201	C20	0.486500	0.017000	0.712000
C211	C21	0.711900	0.575800	0.047200
C221	C22	0.871400	0.044800	0.812600
C231	C23	0.106900	0.743500	0.969900
C241	C24	0.278800	0.072000	0.950500
O11	O1	0.800170	0.808670	0.245470
O21	O2	0.939700	0.816170	0.368270
O31	O3	0.004850	0.628740	0.219540
O41	O4	0.995600	0.456970	0.140470
O51	O5	0.242870	0.847000	0.391500
O61	O6	0.708900	0.017820	0.497720
O71	O7	0.583560	0.649680	0.304780
O81	O8	0.604300	0.476670	0.376170
O91	O9	0.472600	0.184530	0.523430
O101	O10	0.384700	0.351150	0.466650
O111	O11	0.345200	0.602740	0.439940
O121	O12	0.122080	0.613310	0.409610
O131	O13	0.300170	0.691330	0.254530
O141	O14	0.439700	0.683830	0.131730
O151	O15	0.504850	0.871260	0.280460
O161	O16	0.495600	0.043030	0.359530
O171	O17	0.742870	0.653000	0.108500
O181	O18	0.208900	0.482180	0.002280
O191	O19	0.083560	0.850320	0.195220
O201	O20	0.104300	0.023330	0.123830
O211	O21	0.972600	0.315470	0.976570
O221	O22	0.884700	0.148850	0.033350
O231	O23	0.845200	0.897260	0.060060
O241	O24	0.622080	0.886690	0.090390
O251	O25	0.199830	0.191330	0.754530
O261	O26	0.060300	0.183830	0.631730
O271	O27	0.995150	0.371260	0.780460
O281	O28	0.004400	0.543030	0.859530
O291	O29	0.757130	0.153000	0.608500
O301	O30	0.291100	0.982180	0.502280
O311	O31	0.416440	0.350320	0.695220
O321	O32	0.395700	0.523330	0.623830
O331	O33	0.527400	0.815470	0.476570
O341	O34	0.615300	0.648850	0.533350
O351	O35	0.654800	0.397260	0.560060
O361	O36	0.877920	0.386690	0.590390
O371	O37	0.699830	0.308670	0.745470
O381	O38	0.560300	0.316170	0.868270
O391	O39	0.495150	0.128740	0.719540
O401	O40	0.504400	0.956970	0.640470
O411	O41	0.257130	0.347000	0.891500
O421	O42	0.791100	0.517820	0.997720
O431	O43	0.916440	0.149680	0.804780
O441	O44	0.895700	0.976670	0.876170
O451	O45	0.027400	0.684530	0.023430
O461	O46	0.115300	0.851150	0.966650
O471	O47	0.154800	0.102740	0.939940
O481	O48	0.377920	0.113310	0.909610
