data_RAVWAO_freeONLY_PM
_symmetry_space_group_name_H-M	'P1'
_cell_length_a	6.473860
_cell_length_b	26.553300
_cell_length_c	26.553300
_cell_angle_alpha	60.653300
_cell_angle_beta	85.338500
_cell_angle_gamma	94.661500
_symmetry_Int_Tables_number 1

loop_
_symmetry_equiv_pos_as_xyz
'x,y,z'

loop_
_atom_site_label
_atom_site_type_symbol
_atom_site_fract_x
_atom_site_fract_y
_atom_site_fract_z
Mg11	Mg1	0.914500	0.698760	0.623730
Mg21	Mg2	0.538230	0.623730	0.677510
Mg31	Mg3	0.215740	0.677510	0.698760
Mg41	Mg4	0.085500	0.301240	0.376270
Mg51	Mg5	0.461770	0.376270	0.322490
Mg61	Mg6	0.784260	0.322490	0.301240
H11	H1	0.940960	0.840850	0.602950
H21	H2	0.696330	0.859630	0.532870
H31	H3	0.514280	0.944730	0.494670
H41	H4	0.082770	0.952470	0.600690
H51	H5	0.035770	0.907100	0.446180
H61	H6	0.052310	0.977210	0.382940
H71	H7	0.283970	0.954930	0.417150
H81	H8	0.543910	0.602950	0.556200
H91	H9	0.229200	0.532870	0.607500
H101	H10	0.008950	0.494670	0.560600
H111	H11	0.683460	0.600690	0.446840
H121	H12	0.481950	0.446180	0.646720
H131	H13	0.435250	0.382940	0.639850
H141	H14	0.701120	0.417150	0.627920
H151	H15	0.100110	0.556200	0.840850
H161	H16	0.836700	0.607500	0.859630
H171	H17	0.569550	0.560600	0.944730
H181	H18	0.130300	0.446840	0.952470
H191	H19	0.128670	0.646720	0.907100
H201	H20	0.075100	0.639850	0.977210
H211	H21	0.329040	0.627920	0.954930
H221	H22	0.059040	0.159150	0.397050
H231	H23	0.303670	0.140370	0.467130
H241	H24	0.485720	0.055270	0.505330
H251	H25	0.917230	0.047530	0.399310
H261	H26	0.964230	0.092900	0.553820
H271	H27	0.947690	0.022790	0.617060
H281	H28	0.716030	0.045070	0.582850
H291	H29	0.456090	0.397050	0.443800
H301	H30	0.770800	0.467130	0.392500
H311	H31	0.991050	0.505330	0.439400
H321	H32	0.316540	0.399310	0.553160
H331	H33	0.518050	0.553820	0.353280
H341	H34	0.564750	0.617060	0.360150
H351	H35	0.298880	0.582850	0.372080
H361	H36	0.899890	0.443800	0.159150
H371	H37	0.163300	0.392500	0.140370
H381	H38	0.430450	0.439400	0.055270
H391	H39	0.869700	0.553160	0.047530
H401	H40	0.871330	0.353280	0.092900
H411	H41	0.924900	0.360150	0.022790
H421	H42	0.670960	0.372080	0.045070
C11	C1	0.544370	0.748940	0.613130
C21	C2	0.423440	0.799200	0.591180
C31	C3	0.205300	0.794750	0.609410
C41	C4	0.105270	0.844550	0.587180
C51	C5	0.213550	0.898530	0.545280
C61	C6	0.427250	0.903080	0.526550
C71	C7	0.530790	0.854250	0.548970
C81	C8	0.103510	0.950360	0.521420
C91	C9	0.056820	0.977220	0.464040
C101	C10	0.045510	0.973250	0.556790
C111	C11	0.110220	0.952790	0.425330
C121	C12	0.157500	0.613130	0.637930
C131	C13	0.014620	0.591180	0.609620
C141	C14	0.814710	0.609410	0.595840
C151	C15	0.692450	0.587180	0.568270
C161	C16	0.758830	0.545280	0.556190
C171	C17	0.953800	0.526550	0.570370
C181	C18	0.079760	0.548970	0.596780
C191	C19	0.624930	0.521420	0.528220
C201	C20	0.520860	0.464040	0.558740
C211	C21	0.602300	0.556790	0.469960
C221	C22	0.535550	0.425330	0.621880
C231	C23	0.795430	0.637930	0.748940
C241	C24	0.624240	0.609620	0.799200
C251	C25	0.410550	0.595840	0.794750
C261	C26	0.260720	0.568270	0.844550
C271	C27	0.315020	0.556190	0.898530
C281	C28	0.524170	0.570370	0.903080
C291	C29	0.676540	0.596780	0.854250
C301	C30	0.153150	0.528220	0.950360
C311	C31	0.079600	0.558740	0.977220
C321	C32	0.072260	0.469960	0.973250
C331	C33	0.157430	0.621880	0.952790
C341	C34	0.455630	0.251060	0.386870
C351	C35	0.576560	0.200800	0.408820
C361	C36	0.794700	0.205250	0.390590
C371	C37	0.894730	0.155450	0.412820
C381	C38	0.786450	0.101470	0.454720
C391	C39	0.572750	0.096920	0.473450
C401	C40	0.469210	0.145750	0.451030
C411	C41	0.896490	0.049640	0.478580
C421	C42	0.943180	0.022780	0.535960
C431	C43	0.954490	0.026750	0.443210
C441	C44	0.889780	0.047210	0.574670
C451	C45	0.842500	0.386870	0.362070
C461	C46	0.985380	0.408820	0.390380
C471	C47	0.185290	0.390590	0.404160
C481	C48	0.307550	0.412820	0.431730
C491	C49	0.241170	0.454720	0.443810
C501	C50	0.046200	0.473450	0.429630
C511	C51	0.920240	0.451030	0.403220
C521	C52	0.375070	0.478580	0.471780
C531	C53	0.479140	0.535960	0.441260
C541	C54	0.397700	0.443210	0.530040
C551	C55	0.464450	0.574670	0.378120
C561	C56	0.204570	0.362070	0.251060
C571	C57	0.375760	0.390380	0.200800
C581	C58	0.589450	0.404160	0.205250
C591	C59	0.739280	0.431730	0.155450
C601	C60	0.684980	0.443810	0.101470
C611	C61	0.475830	0.429630	0.096920
C621	C62	0.323460	0.403220	0.145750
C631	C63	0.846850	0.471780	0.049640
C641	C64	0.920400	0.441260	0.022780
C651	C65	0.927740	0.530040	0.026750
C661	C66	0.842570	0.378120	0.047210
O11	O1	0.738930	0.757640	0.593990
O21	O2	0.459490	0.698640	0.650190
O31	O3	0.081680	0.743360	0.650420
O41	O4	0.074430	0.728710	0.548590
O51	O5	0.332920	0.593990	0.648370
O61	O6	0.109680	0.650190	0.651170
O71	O7	0.732100	0.650420	0.606220
O81	O8	0.623020	0.548590	0.722700
O91	O9	0.981290	0.648370	0.757640
O101	O10	0.760850	0.651170	0.698640
O111	O11	0.338320	0.606220	0.743360
O121	O12	0.345720	0.722700	0.728710
O131	O13	0.261070	0.242360	0.406010
O141	O14	0.540510	0.301360	0.349810
O151	O15	0.918320	0.256640	0.349580
O161	O16	0.925570	0.271290	0.451410
O171	O17	0.667080	0.406010	0.351630
O181	O18	0.890320	0.349810	0.348830
O191	O19	0.267900	0.349580	0.393780
O201	O20	0.376980	0.451410	0.277300
O211	O21	0.018710	0.351630	0.242360
O221	O22	0.239150	0.348830	0.301360
O231	O23	0.661680	0.393780	0.256640
O241	O24	0.654280	0.277300	0.271290
