data_RAXCAW_charged_PM
_symmetry_space_group_name_H-M	'P1'
_cell_length_a	10.242000
_cell_length_b	13.143600
_cell_length_c	13.143600
_cell_angle_alpha	94.736000
_cell_angle_beta	109.488000
_cell_angle_gamma	109.488000
_symmetry_Int_Tables_number 1

loop_
_symmetry_equiv_pos_as_xyz
'x,y,z'

loop_
_atom_site_label
_atom_site_type_symbol
_atom_site_fract_x
_atom_site_fract_y
_atom_site_fract_z
Zn11	Zn1	0.522280	0.940230	0.838410
Zn21	Zn2	0.977720	0.161590	0.059770
Zn31	Zn3	0.477720	0.059770	0.161590
Zn41	Zn4	0.022280	0.838410	0.940230
P11	P1	0.654480	0.164550	0.022110
P21	P2	0.845520	0.977890	0.835450
P31	P3	0.345520	0.835450	0.977890
P41	P4	0.154480	0.022110	0.164550
H11	H1	0.636300	0.232700	0.817300
H21	H2	0.728200	0.400700	0.765900
H31	H3	0.875800	0.560900	0.075700
H41	H4	0.798100	0.393500	0.131100
H51	H5	0.863700	0.182700	0.767300
H61	H6	0.771800	0.234100	0.599300
H71	H7	0.624200	0.924300	0.439100
H81	H8	0.701900	0.868900	0.606500
H91	H9	0.363700	0.767300	0.182700
H101	H10	0.271800	0.599300	0.234100
H111	H11	0.124200	0.439100	0.924300
H121	H12	0.201900	0.606500	0.868900
H131	H13	0.136300	0.817300	0.232700
H141	H14	0.228200	0.765900	0.400700
H151	H15	0.375800	0.075700	0.560900
H161	H16	0.298100	0.131100	0.393500
C11	C1	0.710800	0.295000	0.979800
C21	C2	0.687400	0.298200	0.871000
C31	C3	0.740300	0.400000	0.839200
C41	C4	0.808400	0.496000	0.916000
C51	C5	0.829400	0.494500	0.023500
C61	C6	0.781600	0.393400	0.057000
C71	C7	0.864800	0.605300	0.882100
C81	C8	0.789200	0.020200	0.705000
C91	C9	0.812600	0.129000	0.701800
C101	C10	0.759700	0.160800	0.600000
C111	C11	0.691600	0.084000	0.504000
C121	C12	0.670600	0.976500	0.505500
C131	C13	0.718400	0.943000	0.606600
C141	C14	0.635200	0.117900	0.394700
C151	C15	0.289200	0.705000	0.020200
C161	C16	0.312600	0.701800	0.129000
C171	C17	0.259700	0.600000	0.160800
C181	C18	0.191600	0.504000	0.084000
C191	C19	0.170600	0.505500	0.976500
C201	C20	0.218400	0.606600	0.943000
C211	C21	0.135200	0.394700	0.117900
C221	C22	0.210800	0.979800	0.295000
C231	C23	0.187400	0.871000	0.298200
C241	C24	0.240300	0.839200	0.400000
C251	C25	0.308400	0.916000	0.496000
C261	C26	0.329400	0.023500	0.494500
C271	C27	0.281600	0.057000	0.393400
C281	C28	0.364800	0.882100	0.605300
O11	O1	0.542700	0.080790	0.918010
O21	O2	0.791900	0.138880	0.078120
O31	O3	0.582500	0.179510	0.103690
O41	O4	0.864400	0.606100	0.787700
O51	O5	0.914600	0.691300	0.956900
O61	O6	0.957300	0.081990	0.919210
O71	O7	0.708100	0.921880	0.861120
O81	O8	0.917500	0.896310	0.820490
O91	O9	0.635600	0.212300	0.393900
O101	O10	0.585400	0.043100	0.308700
O111	O11	0.457300	0.919210	0.081990
O121	O12	0.208100	0.861120	0.921880
O131	O13	0.417500	0.820490	0.896310
O141	O14	0.135600	0.393900	0.212300
O151	O15	0.085400	0.308700	0.043100
O161	O16	0.042700	0.918010	0.080790
O171	O17	0.291900	0.078120	0.138880
O181	O18	0.082500	0.103690	0.179510
O191	O19	0.364400	0.787700	0.606100
O201	O20	0.414600	0.956900	0.691300
H171	H17	0.174800	0.990900	0.753300
H181	H18	0.114200	0.083600	0.721800
H191	H19	0.280100	0.101900	0.738900
H201	H20	0.326100	0.097800	0.918200
H211	H21	0.325200	0.246700	0.009100
H221	H22	0.385800	0.278200	0.916400
H231	H23	0.219900	0.261100	0.898100
H241	H24	0.173900	0.081800	0.902200
C291	C29	0.200400	0.069300	0.763700
C301	C30	0.299600	0.236300	0.930700
N11	N1	0.250000	0.117700	0.882300
H251	H25	0.825200	0.009100	0.246700
H261	H26	0.885800	0.916400	0.278200
H271	H27	0.719900	0.898100	0.261100
H281	H28	0.673900	0.902200	0.081800
H291	H29	0.674800	0.753300	0.990900
H301	H30	0.614200	0.721800	0.083600
H311	H31	0.780100	0.738900	0.101900
H321	H32	0.826100	0.918200	0.097800
C311	C31	0.799600	0.930700	0.236300
C321	C32	0.700400	0.763700	0.069300
N21	N2	0.750000	0.882300	0.117700
