data_RAXDAX_freeONLY_PM
_symmetry_space_group_name_H-M	'P1'
_cell_length_a	9.267000
_cell_length_b	13.257000
_cell_length_c	16.324000
_cell_angle_alpha	90.000000
_cell_angle_beta	94.975000
_cell_angle_gamma	90.000000
_symmetry_Int_Tables_number 1

loop_
_symmetry_equiv_pos_as_xyz
'x,y,z'

loop_
_atom_site_label
_atom_site_type_symbol
_atom_site_fract_x
_atom_site_fract_y
_atom_site_fract_z
Zn11	Zn1	0.730900	0.155230	0.816760
Zn21	Zn2	0.769100	0.655230	0.683240
Zn31	Zn3	0.269100	0.844770	0.183240
Zn41	Zn4	0.230900	0.344770	0.316760
H11	H1	0.998400	0.197400	0.044100
H21	H2	0.254000	0.025500	0.918500
H31	H3	0.400800	0.134600	0.139800
H41	H4	0.284200	0.324000	0.904100
H51	H5	0.681300	0.247200	0.987500
H61	H6	0.387800	0.222700	0.807400
H71	H7	0.359800	0.376100	0.048000
H81	H8	0.504400	0.333100	0.091500
H91	H9	0.636300	0.460800	0.026900
H101	H10	0.528700	0.507700	0.085400
H111	H11	0.778000	0.891200	0.607500
H121	H12	0.493000	0.829900	0.586000
H131	H13	0.387400	0.919000	0.601800
H141	H14	0.477700	0.024100	0.725200
H151	H15	0.888800	0.989900	0.719000
H161	H16	0.431100	0.916000	0.463700
H171	H17	0.598100	0.923500	0.487100
H181	H18	0.501600	0.697400	0.455900
H191	H19	0.246000	0.525500	0.581500
H201	H20	0.099200	0.634600	0.360200
H211	H21	0.215800	0.824000	0.595900
H221	H22	0.818700	0.747200	0.512500
H231	H23	0.112200	0.722700	0.692600
H241	H24	0.140200	0.876100	0.452000
H251	H25	0.995600	0.833100	0.408500
H261	H26	0.863700	0.960800	0.473100
H271	H27	0.971300	0.007700	0.414600
H281	H28	0.722000	0.391200	0.892500
H291	H29	0.007000	0.329900	0.914000
H301	H30	0.112600	0.419000	0.898200
H311	H31	0.022300	0.524100	0.774800
H321	H32	0.611200	0.489900	0.781000
H331	H33	0.068900	0.416000	0.036300
H341	H34	0.901900	0.423500	0.012900
H351	H35	0.001600	0.802600	0.955900
H361	H36	0.746000	0.974500	0.081500
H371	H37	0.599200	0.865400	0.860200
H381	H38	0.715800	0.676000	0.095900
H391	H39	0.318700	0.752800	0.012500
H401	H40	0.612200	0.777300	0.192600
H411	H41	0.640200	0.623900	0.952000
H421	H42	0.495600	0.666900	0.908500
H431	H43	0.363700	0.539200	0.973100
H441	H44	0.471300	0.492300	0.914600
H451	H45	0.222000	0.108800	0.392500
H461	H46	0.507000	0.170100	0.414000
H471	H47	0.612600	0.081000	0.398200
H481	H48	0.522300	0.975900	0.274800
H491	H49	0.111200	0.010100	0.281000
H501	H50	0.568900	0.084000	0.536300
H511	H51	0.401900	0.076500	0.512900
H521	H52	0.498400	0.302600	0.544100
H531	H53	0.754000	0.474500	0.418500
H541	H54	0.900800	0.365400	0.639800
H551	H55	0.784200	0.176000	0.404100
H561	H56	0.181300	0.252800	0.487500
H571	H57	0.887800	0.277300	0.307400
H581	H58	0.859800	0.123900	0.548000
H591	H59	0.004400	0.166900	0.591500
H601	H60	0.136300	0.039200	0.526900
H611	H61	0.028700	0.992300	0.585400
H621	H62	0.278000	0.608800	0.107500
H631	H63	0.993000	0.670100	0.086000
H641	H64	0.887400	0.581000	0.101800
H651	H65	0.977700	0.475900	0.225200
H661	H66	0.388800	0.510100	0.219000
H671	H67	0.931100	0.584000	0.963700
H681	H68	0.098100	0.576500	0.987100
C11	C1	0.087500	0.166400	0.039900
C21	C2	0.110600	0.111200	0.970300
C31	C3	0.173900	0.237300	0.177300
C41	C4	0.997600	0.107100	0.899000
C51	C5	0.196000	0.175800	0.103500
C61	C6	0.239200	0.063600	0.964900
C71	C7	0.327300	0.128400	0.097600
C81	C8	0.349200	0.071500	0.028600
C91	C9	0.376500	0.295900	0.908600
C101	C10	0.595800	0.252700	0.953500
C111	C11	0.435600	0.241000	0.857600
C121	C12	0.462300	0.366800	0.042400
C131	C13	0.534700	0.470400	0.034700
C141	C14	0.731400	0.929900	0.644800
C151	C15	0.483900	0.902700	0.587100
C161	C16	0.568100	0.003400	0.710800
C171	C17	0.789300	0.984000	0.706700
C181	C18	0.504300	0.944800	0.502900
C191	C19	0.412500	0.666400	0.460100
C201	C20	0.389400	0.611200	0.529700
C211	C21	0.326100	0.737300	0.322700
C221	C22	0.502400	0.607100	0.601000
C231	C23	0.304000	0.675800	0.396500
C241	C24	0.260800	0.563600	0.535100
C251	C25	0.172700	0.628400	0.402400
C261	C26	0.150800	0.571500	0.471400
C271	C27	0.123500	0.795900	0.591400
C281	C28	0.904200	0.752700	0.546500
C291	C29	0.064400	0.741000	0.642400
C301	C30	0.037700	0.866800	0.457600
C311	C31	0.965300	0.970400	0.465300
C321	C32	0.768600	0.429900	0.855200
C331	C33	0.016100	0.402700	0.912900
C341	C34	0.931900	0.503400	0.789200
C351	C35	0.710700	0.484000	0.793300
C361	C36	0.995700	0.444800	0.997100
C371	C37	0.912500	0.833600	0.960100
C381	C38	0.889400	0.888800	0.029700
C391	C39	0.826100	0.762700	0.822700
C401	C40	0.002400	0.892900	0.101000
C411	C41	0.804000	0.824200	0.896500
C421	C42	0.760800	0.936400	0.035100
C431	C43	0.672700	0.871600	0.902400
C441	C44	0.650800	0.928500	0.971400
C451	C45	0.623500	0.704100	0.091400
C461	C46	0.404200	0.747300	0.046500
C471	C47	0.564400	0.759000	0.142400
C481	C48	0.537700	0.633200	0.957600
C491	C49	0.465300	0.529600	0.965300
C501	C50	0.268600	0.070100	0.355200
C511	C51	0.516100	0.097300	0.412900
C521	C52	0.431900	0.996600	0.289200
C531	C53	0.210700	0.016000	0.293300
C541	C54	0.495700	0.055200	0.497100
C551	C55	0.587500	0.333600	0.539900
C561	C56	0.610600	0.388800	0.470300
C571	C57	0.673900	0.262700	0.677300
C581	C58	0.497600	0.392900	0.399000
C591	C59	0.696000	0.324200	0.603500
C601	C60	0.739200	0.436400	0.464900
C611	C61	0.827300	0.371600	0.597600
C621	C62	0.849200	0.428500	0.528600
C631	C63	0.876500	0.204100	0.408600
C641	C64	0.095800	0.247300	0.453500
C651	C65	0.935600	0.259000	0.357600
C661	C66	0.962300	0.133200	0.542400
C671	C67	0.034700	0.029600	0.534700
C681	C68	0.231400	0.570100	0.144800
C691	C69	0.983900	0.597300	0.087100
C701	C70	0.068100	0.496600	0.210800
C711	C71	0.289300	0.516000	0.206700
C721	C72	0.004300	0.555200	0.002900
N11	N1	0.480500	0.303400	0.970900
N21	N2	0.571400	0.210800	0.880300
N31	N3	0.488400	0.025500	0.030500
N41	N4	0.693700	0.029400	0.749900
N51	N5	0.590500	0.943900	0.648400
N61	N6	0.019500	0.803400	0.529100
N71	N7	0.928600	0.710800	0.619700
N81	N8	0.011600	0.525500	0.469500
N91	N9	0.806300	0.529400	0.750100
N101	N10	0.909500	0.443900	0.851600
N111	N11	0.519500	0.696600	0.029100
N121	N12	0.428600	0.789200	0.119700
N131	N13	0.511600	0.974500	0.969500
N141	N14	0.306300	0.970600	0.250100
N151	N15	0.409500	0.056100	0.351600
N161	N16	0.980500	0.196600	0.470900
N171	N17	0.071400	0.289200	0.380300
N181	N18	0.988400	0.474500	0.530500
N191	N19	0.193700	0.470600	0.249900
N201	N20	0.090500	0.556100	0.148400
O11	O1	0.878600	0.152500	0.908900
O21	O2	0.282500	0.252300	0.228400
O31	O3	0.051900	0.272800	0.186300
O41	O4	0.022000	0.064700	0.836200
O51	O5	0.621400	0.652500	0.591100
O61	O6	0.217500	0.752300	0.271600
O71	O7	0.448100	0.772800	0.313700
O81	O8	0.478000	0.564700	0.663800
O91	O9	0.121400	0.847500	0.091100
O101	O10	0.717500	0.747700	0.771600
O111	O11	0.948100	0.727200	0.813700
O121	O12	0.978000	0.935300	0.163800
O131	O13	0.378600	0.347500	0.408900
O141	O14	0.782500	0.247700	0.728400
O151	O15	0.551900	0.227200	0.686300
O161	O16	0.522000	0.435300	0.336200
