data_RAYLOU_freeONLY_PM
_symmetry_space_group_name_H-M	'P1'
_cell_length_a	16.509400
_cell_length_b	16.509400
_cell_length_c	25.701000
_cell_angle_alpha	90.000000
_cell_angle_beta	90.000000
_cell_angle_gamma	120.000000
_symmetry_Int_Tables_number 1

loop_
_symmetry_equiv_pos_as_xyz
'x,y,z'

loop_
_atom_site_label
_atom_site_type_symbol
_atom_site_fract_x
_atom_site_fract_y
_atom_site_fract_z
Zn11	Zn1	0.715340	0.430680	0.166670
Zn21	Zn2	0.715340	0.284660	0.500000
Zn31	Zn3	0.569320	0.284660	0.833330
Zn41	Zn4	0.284660	0.569320	0.166670
Zn51	Zn5	0.284660	0.715340	0.500000
Zn61	Zn6	0.430680	0.715340	0.833330
H11	H1	0.820100	0.228500	0.075600
H21	H2	0.662700	0.497900	0.073500
H31	H3	0.612100	0.595700	0.047500
H41	H4	0.587100	0.643700	0.195200
H51	H5	0.652500	0.555300	0.217400
H61	H6	0.567400	0.835600	0.982700
H71	H7	0.553400	0.967100	0.979500
H81	H8	0.453000	0.915100	0.121200
H91	H9	0.482900	0.791100	0.128000
H101	H10	0.550700	0.719200	0.132600
H111	H11	0.408400	0.179900	0.408930
H121	H12	0.835200	0.337300	0.406830
H131	H13	0.983600	0.387900	0.380830
H141	H14	0.056600	0.412900	0.528530
H151	H15	0.902800	0.347500	0.550730
H161	H16	0.268200	0.432600	0.316030
H171	H17	0.413700	0.446600	0.312830
H181	H18	0.462100	0.547000	0.454530
H191	H19	0.308200	0.517100	0.461330
H201	H20	0.168500	0.449300	0.465930
H211	H21	0.771500	0.591600	0.742270
H221	H22	0.502100	0.164800	0.740170
H231	H23	0.404300	0.016400	0.714170
H241	H24	0.356300	0.943400	0.861870
H251	H25	0.444700	0.097200	0.884070
H261	H26	0.164400	0.731800	0.649370
H271	H27	0.032900	0.586300	0.646170
H281	H28	0.084900	0.537900	0.787870
H291	H29	0.208900	0.691800	0.794670
H301	H30	0.280800	0.831500	0.799270
H311	H31	0.179900	0.771500	0.075600
H321	H32	0.337300	0.502100	0.073500
H331	H33	0.387900	0.404300	0.047500
H341	H34	0.412900	0.356300	0.195200
H351	H35	0.347500	0.444700	0.217400
H361	H36	0.432600	0.164400	0.982700
H371	H37	0.446600	0.032900	0.979500
H381	H38	0.547000	0.084900	0.121200
H391	H39	0.517100	0.208900	0.128000
H401	H40	0.449300	0.280800	0.132600
H411	H41	0.591600	0.820100	0.408930
H421	H42	0.164800	0.662700	0.406830
H431	H43	0.016400	0.612100	0.380830
H441	H44	0.943400	0.587100	0.528530
H451	H45	0.097200	0.652500	0.550730
H461	H46	0.731800	0.567400	0.316030
H471	H47	0.586300	0.553400	0.312830
H481	H48	0.537900	0.453000	0.454530
H491	H49	0.691800	0.482900	0.461330
H501	H50	0.831500	0.550700	0.465930
H511	H51	0.228500	0.408400	0.742270
H521	H52	0.497900	0.835200	0.740170
H531	H53	0.595700	0.983600	0.714170
H541	H54	0.643700	0.056600	0.861870
H551	H55	0.555300	0.902800	0.884070
H561	H56	0.835600	0.268200	0.649370
H571	H57	0.967100	0.413700	0.646170
H581	H58	0.915100	0.462100	0.787870
H591	H59	0.791100	0.308200	0.794670
H601	H60	0.719200	0.168500	0.799270
H611	H61	0.591600	0.771500	0.257730
H621	H62	0.164800	0.502100	0.259830
H631	H63	0.016400	0.404300	0.285830
H641	H64	0.943400	0.356300	0.138130
H651	H65	0.097200	0.444700	0.115930
H661	H66	0.731800	0.164400	0.350630
H671	H67	0.586300	0.032900	0.353830
H681	H68	0.537900	0.084900	0.212130
H691	H69	0.691800	0.208900	0.205330
H701	H70	0.831500	0.280800	0.200730
H711	H71	0.228500	0.820100	0.924400
H721	H72	0.497900	0.662700	0.926500
H731	H73	0.595700	0.612100	0.952500
H741	H74	0.643700	0.587100	0.804800
H751	H75	0.555300	0.652500	0.782600
H761	H76	0.835600	0.567400	0.017300
H771	H77	0.967100	0.553400	0.020500
H781	H78	0.915100	0.453000	0.878800
H791	H79	0.791100	0.482900	0.872000
H801	H80	0.719200	0.550700	0.867400
H811	H81	0.179900	0.408400	0.591070
H821	H82	0.337300	0.835200	0.593170
H831	H83	0.387900	0.983600	0.619170
H841	H84	0.412900	0.056600	0.471470
H851	H85	0.347500	0.902800	0.449270
H861	H86	0.432600	0.268200	0.683970
H871	H87	0.446600	0.413700	0.687170
H881	H88	0.547000	0.462100	0.545470
H891	H89	0.517100	0.308200	0.538670
H901	H90	0.449300	0.168500	0.534070
H911	H91	0.408400	0.228500	0.257730
H921	H92	0.835200	0.497900	0.259830
H931	H93	0.983600	0.595700	0.285830
H941	H94	0.056600	0.643700	0.138130
H951	H95	0.902800	0.555300	0.115930
H961	H96	0.268200	0.835600	0.350630
H971	H97	0.413700	0.967100	0.353830
H981	H98	0.462100	0.915100	0.212130
H991	H99	0.308200	0.791100	0.205330
H1001	H100	0.168500	0.719200	0.200730
H1011	H101	0.771500	0.179900	0.924400
H1021	H102	0.502100	0.337300	0.926500
H1031	H103	0.404300	0.387900	0.952500
H1041	H104	0.356300	0.412900	0.804800
H1051	H105	0.444700	0.347500	0.782600
H1061	H106	0.164400	0.432600	0.017300
H1071	H107	0.032900	0.446600	0.020500
H1081	H108	0.084900	0.547000	0.878800
H1091	H109	0.208900	0.517100	0.872000
H1101	H110	0.280800	0.449300	0.867400
H1111	H111	0.820100	0.591600	0.591070
H1121	H112	0.662700	0.164800	0.593170
H1131	H113	0.612100	0.016400	0.619170
H1141	H114	0.587100	0.943400	0.471470
H1151	H115	0.652500	0.097200	0.449270
H1161	H116	0.567400	0.731800	0.683970
H1171	H117	0.553400	0.586300	0.687170
H1181	H118	0.453000	0.537900	0.545470
H1191	H119	0.482900	0.691800	0.538670
H1201	H120	0.550700	0.831500	0.534070
H1211	H121	0.675050	0.324950	0.000000
H1221	H122	0.649900	0.324950	0.333330
H1231	H123	0.675050	0.350100	0.666670
H1241	H124	0.324950	0.675050	0.000000
H1251	H125	0.350100	0.675050	0.333330
H1261	H126	0.324950	0.649900	0.666670
C11	C1	0.736990	0.325390	0.096540
C21	C2	0.745400	0.283280	0.046400
C31	C3	0.793200	0.235600	0.045460
C41	C4	0.650200	0.530400	0.098840
C51	C5	0.618700	0.588200	0.082810
C61	C6	0.597000	0.635450	0.118540
C71	C7	0.606000	0.617700	0.169150
C81	C8	0.642500	0.561700	0.182360
C91	C9	0.563300	0.733200	0.059660
C101	C10	0.538400	0.807860	0.057770
C111	C11	0.550700	0.855400	0.012600
C121	C12	0.538800	0.932600	0.010150
C131	C13	0.506500	0.958750	0.051180
C141	C14	0.482100	0.903200	0.093640
C151	C15	0.499000	0.827000	0.097830
C161	C16	0.588400	0.263010	0.429870
C171	C17	0.537880	0.254600	0.379730
C181	C18	0.442400	0.206800	0.378790
C191	C19	0.880200	0.349800	0.432170
C201	C20	0.969500	0.381300	0.416140
C211	C21	0.038450	0.403000	0.451870
C221	C22	0.011700	0.394000	0.502480
C231	C23	0.919200	0.357500	0.515690
C241	C24	0.169900	0.436700	0.392990
C251	C25	0.269460	0.461600	0.391100
C261	C26	0.304700	0.449300	0.345930
C271	C27	0.393800	0.461200	0.343480
C281	C28	0.452250	0.493500	0.384510
C291	C29	0.421100	0.517900	0.426970
C301	C30	0.328000	0.501000	0.431160
C311	C31	0.674610	0.411600	0.763210
C321	C32	0.716720	0.462120	0.713070
C331	C33	0.764400	0.557600	0.712130
C341	C34	0.469600	0.119800	0.765510
C351	C35	0.411800	0.030500	0.749480
C361	C36	0.364550	0.961550	0.785210
C371	C37	0.382300	0.988300	0.835820
C381	C38	0.438300	0.080800	0.849030
C391	C39	0.266800	0.830100	0.726330
C401	C40	0.192140	0.730540	0.724440
C411	C41	0.144600	0.695300	0.679270
C421	C42	0.067400	0.606200	0.676820
C431	C43	0.041250	0.547750	0.717850
C441	C44	0.096800	0.578900	0.760310
C451	C45	0.173000	0.672000	0.764500
C461	C46	0.263010	0.674610	0.096540
C471	C47	0.254600	0.716720	0.046400
C481	C48	0.206800	0.764400	0.045460
C491	C49	0.349800	0.469600	0.098840
C501	C50	0.381300	0.411800	0.082810
C511	C51	0.403000	0.364550	0.118540
C521	C52	0.394000	0.382300	0.169150
C531	C53	0.357500	0.438300	0.182360
C541	C54	0.436700	0.266800	0.059660
C551	C55	0.461600	0.192140	0.057770
C561	C56	0.449300	0.144600	0.012600
C571	C57	0.461200	0.067400	0.010150
C581	C58	0.493500	0.041250	0.051180
C591	C59	0.517900	0.096800	0.093640
C601	C60	0.501000	0.173000	0.097830
C611	C61	0.411600	0.736990	0.429870
C621	C62	0.462120	0.745400	0.379730
C631	C63	0.557600	0.793200	0.378790
C641	C64	0.119800	0.650200	0.432170
C651	C65	0.030500	0.618700	0.416140
C661	C66	0.961550	0.597000	0.451870
C671	C67	0.988300	0.606000	0.502480
C681	C68	0.080800	0.642500	0.515690
C691	C69	0.830100	0.563300	0.392990
C701	C70	0.730540	0.538400	0.391100
C711	C71	0.695300	0.550700	0.345930
C721	C72	0.606200	0.538800	0.343480
C731	C73	0.547750	0.506500	0.384510
C741	C74	0.578900	0.482100	0.426970
C751	C75	0.672000	0.499000	0.431160
C761	C76	0.325390	0.588400	0.763210
C771	C77	0.283280	0.537880	0.713070
C781	C78	0.235600	0.442400	0.712130
C791	C79	0.530400	0.880200	0.765510
C801	C80	0.588200	0.969500	0.749480
C811	C81	0.635450	0.038450	0.785210
C821	C82	0.617700	0.011700	0.835820
C831	C83	0.561700	0.919200	0.849030
C841	C84	0.733200	0.169900	0.726330
C851	C85	0.807860	0.269460	0.724440
C861	C86	0.855400	0.304700	0.679270
C871	C87	0.932600	0.393800	0.676820
C881	C88	0.958750	0.452250	0.717850
C891	C89	0.903200	0.421100	0.760310
C901	C90	0.827000	0.328000	0.764500
C911	C91	0.411600	0.674610	0.236790
C921	C92	0.462120	0.716720	0.286930
C931	C93	0.557600	0.764400	0.287870
C941	C94	0.119800	0.469600	0.234490
C951	C95	0.030500	0.411800	0.250520
C961	C96	0.961550	0.364550	0.214790
C971	C97	0.988300	0.382300	0.164180
C981	C98	0.080800	0.438300	0.150970
C991	C99	0.830100	0.266800	0.273670
C1001	C100	0.730540	0.192140	0.275560
C1011	C101	0.695300	0.144600	0.320730
C1021	C102	0.606200	0.067400	0.323180
C1031	C103	0.547750	0.041250	0.282150
C1041	C104	0.578900	0.096800	0.239690
C1051	C105	0.672000	0.173000	0.235500
C1061	C106	0.325390	0.736990	0.903460
C1071	C107	0.283280	0.745400	0.953600
C1081	C108	0.235600	0.793200	0.954540
C1091	C109	0.530400	0.650200	0.901160
C1101	C110	0.588200	0.618700	0.917190
C1111	C111	0.635450	0.597000	0.881460
C1121	C112	0.617700	0.606000	0.830850
C1131	C113	0.561700	0.642500	0.817640
C1141	C114	0.733200	0.563300	0.940340
C1151	C115	0.807860	0.538400	0.942230
C1161	C116	0.855400	0.550700	0.987400
C1171	C117	0.932600	0.538800	0.989850
C1181	C118	0.958750	0.506500	0.948820
C1191	C119	0.903200	0.482100	0.906360
C1201	C120	0.827000	0.499000	0.902170
C1211	C121	0.263010	0.588400	0.570130
C1221	C122	0.254600	0.537880	0.620270
C1231	C123	0.206800	0.442400	0.621210
C1241	C124	0.349800	0.880200	0.567830
C1251	C125	0.381300	0.969500	0.583860
C1261	C126	0.403000	0.038450	0.548130
C1271	C127	0.394000	0.011700	0.497520
C1281	C128	0.357500	0.919200	0.484310
C1291	C129	0.436700	0.169900	0.607010
C1301	C130	0.461600	0.269460	0.608900
C1311	C131	0.449300	0.304700	0.654070
C1321	C132	0.461200	0.393800	0.656520
C1331	C133	0.493500	0.452250	0.615490
C1341	C134	0.517900	0.421100	0.573030
C1351	C135	0.501000	0.328000	0.568840
C1361	C136	0.588400	0.325390	0.236790
C1371	C137	0.537880	0.283280	0.286930
C1381	C138	0.442400	0.235600	0.287870
C1391	C139	0.880200	0.530400	0.234490
C1401	C140	0.969500	0.588200	0.250520
C1411	C141	0.038450	0.635450	0.214790
C1421	C142	0.011700	0.617700	0.164180
C1431	C143	0.919200	0.561700	0.150970
C1441	C144	0.169900	0.733200	0.273670
C1451	C145	0.269460	0.807860	0.275560
C1461	C146	0.304700	0.855400	0.320730
C1471	C147	0.393800	0.932600	0.323180
C1481	C148	0.452250	0.958750	0.282150
C1491	C149	0.421100	0.903200	0.239690
C1501	C150	0.328000	0.827000	0.235500
C1511	C151	0.674610	0.263010	0.903460
C1521	C152	0.716720	0.254600	0.953600
C1531	C153	0.764400	0.206800	0.954540
C1541	C154	0.469600	0.349800	0.901160
C1551	C155	0.411800	0.381300	0.917190
C1561	C156	0.364550	0.403000	0.881460
C1571	C157	0.382300	0.394000	0.830850
C1581	C158	0.438300	0.357500	0.817640
C1591	C159	0.266800	0.436700	0.940340
C1601	C160	0.192140	0.461600	0.942230
C1611	C161	0.144600	0.449300	0.987400
C1621	C162	0.067400	0.461200	0.989850
C1631	C163	0.041250	0.493500	0.948820
C1641	C164	0.096800	0.517900	0.906360
C1651	C165	0.173000	0.501000	0.902170
C1661	C166	0.736990	0.411600	0.570130
C1671	C167	0.745400	0.462120	0.620270
C1681	C168	0.793200	0.557600	0.621210
C1691	C169	0.650200	0.119800	0.567830
C1701	C170	0.618700	0.030500	0.583860
C1711	C171	0.597000	0.961550	0.548130
C1721	C172	0.606000	0.988300	0.497520
C1731	C173	0.642500	0.080800	0.484310
C1741	C174	0.563300	0.830100	0.607010
C1751	C175	0.538400	0.730540	0.608900
C1761	C176	0.550700	0.695300	0.654070
C1771	C177	0.538800	0.606200	0.656520
C1781	C178	0.506500	0.547750	0.615490
C1791	C179	0.482100	0.578900	0.573030
C1801	C180	0.499000	0.672000	0.568840
C1811	C181	0.707550	0.292450	0.000000
C1821	C182	0.800900	0.199100	0.000000
C1831	C183	0.584900	0.292450	0.333330
C1841	C184	0.398200	0.199100	0.333330
C1851	C185	0.707550	0.415100	0.666670
C1861	C186	0.800900	0.601800	0.666670
C1871	C187	0.292450	0.707550	0.000000
C1881	C188	0.199100	0.800900	0.000000
C1891	C189	0.415100	0.707550	0.333330
C1901	C190	0.601800	0.800900	0.333330
C1911	C191	0.292450	0.584900	0.666670
C1921	C192	0.199100	0.398200	0.666670
N11	N1	0.663980	0.517150	0.147800
N21	N2	0.568050	0.698810	0.106570
N31	N3	0.853170	0.336020	0.481130
N41	N4	0.130760	0.431950	0.439900
N51	N5	0.482850	0.146830	0.814470
N61	N6	0.301190	0.869240	0.773240
N71	N7	0.336020	0.482850	0.147800
N81	N8	0.431950	0.301190	0.106570
N91	N9	0.146830	0.663980	0.481130
N101	N10	0.869240	0.568050	0.439900
N111	N11	0.517150	0.853170	0.814470
N121	N12	0.698810	0.130760	0.773240
N131	N13	0.146830	0.482850	0.185530
N141	N14	0.869240	0.301190	0.226760
N151	N15	0.517150	0.663980	0.852200
N161	N16	0.698810	0.568050	0.893430
N171	N17	0.336020	0.853170	0.518870
N181	N18	0.431950	0.130760	0.560100
N191	N19	0.853170	0.517150	0.185530
N201	N20	0.130760	0.698810	0.226760
N211	N21	0.482850	0.336020	0.852200
N221	N22	0.301190	0.431950	0.893430
N231	N23	0.663980	0.146830	0.518870
N241	N24	0.568050	0.869240	0.560100
N251	N25	0.850950	0.149050	0.000000
N261	N26	0.298100	0.149050	0.333330
N271	N27	0.850950	0.701900	0.666670
N281	N28	0.149050	0.850950	0.000000
N291	N29	0.701900	0.850950	0.333330
N301	N30	0.149050	0.298100	0.666670
O11	O1	0.707250	0.380540	0.095430
O21	O2	0.763470	0.303690	0.136600
O31	O3	0.835600	0.090400	0.959800
O41	O4	0.579300	0.703330	0.020430
O51	O5	0.673290	0.292750	0.428760
O61	O6	0.540220	0.236530	0.469930
O71	O7	0.254800	0.164400	0.293130
O81	O8	0.124030	0.420700	0.353760
O91	O9	0.619460	0.326710	0.762100
O101	O10	0.696310	0.459780	0.803270
O111	O11	0.909600	0.745200	0.626470
O121	O12	0.296670	0.875970	0.687100
O131	O13	0.292750	0.619460	0.095430
O141	O14	0.236530	0.696310	0.136600
O151	O15	0.164400	0.909600	0.959800
O161	O16	0.420700	0.296670	0.020430
O171	O17	0.326710	0.707250	0.428760
O181	O18	0.459780	0.763470	0.469930
O191	O19	0.745200	0.835600	0.293130
O201	O20	0.875970	0.579300	0.353760
O211	O21	0.380540	0.673290	0.762100
O221	O22	0.303690	0.540220	0.803270
O231	O23	0.090400	0.254800	0.626470
O241	O24	0.703330	0.124030	0.687100
O251	O25	0.326710	0.619460	0.237900
O261	O26	0.459780	0.696310	0.196730
O271	O27	0.745200	0.909600	0.373530
O281	O28	0.875970	0.296670	0.312900
O291	O29	0.380540	0.707250	0.904570
O301	O30	0.303690	0.763470	0.863400
O311	O31	0.090400	0.835600	0.040200
O321	O32	0.703330	0.579300	0.979570
O331	O33	0.292750	0.673290	0.571240
O341	O34	0.236530	0.540220	0.530070
O351	O35	0.164400	0.254800	0.706870
O361	O36	0.420700	0.124030	0.646240
O371	O37	0.673290	0.380540	0.237900
O381	O38	0.540220	0.303690	0.196730
O391	O39	0.254800	0.090400	0.373530
O401	O40	0.124030	0.703330	0.312900
O411	O41	0.619460	0.292750	0.904570
O421	O42	0.696310	0.236530	0.863400
O431	O43	0.909600	0.164400	0.040200
O441	O44	0.296670	0.420700	0.979570
O451	O45	0.707250	0.326710	0.571240
O461	O46	0.763470	0.459780	0.530070
O471	O47	0.835600	0.745200	0.706870
O481	O48	0.579300	0.875970	0.646240
