data_RAZGOQ_freeONLY_PM
_symmetry_space_group_name_H-M	'P1'
_cell_length_a	4.761110
_cell_length_b	17.666500
_cell_length_c	17.666500
_cell_angle_alpha	88.959600
_cell_angle_beta	82.255900
_cell_angle_gamma	82.255800
_symmetry_Int_Tables_number 1

loop_
_symmetry_equiv_pos_as_xyz
'x,y,z'

loop_
_atom_site_label
_atom_site_type_symbol
_atom_site_fract_x
_atom_site_fract_y
_atom_site_fract_z
Cu11	Cu1	0.972730	0.964210	0.732650
Cu21	Cu2	0.169590	0.535790	0.767350
Cu31	Cu3	0.705390	0.267340	0.464210
Cu41	Cu4	0.936930	0.232660	0.035790
Cu51	Cu5	0.027270	0.035790	0.267350
Cu61	Cu6	0.830410	0.464210	0.232650
Cu71	Cu7	0.294610	0.732660	0.535790
Cu81	Cu8	0.063070	0.767340	0.964210
H11	H1	0.353000	0.063000	0.928600
H21	H2	0.801600	0.047000	0.026600
H31	H3	0.812400	0.077400	0.653200
H41	H4	0.632400	0.081800	0.721800
H51	H5	0.239400	0.868200	0.814000
H61	H6	0.393000	0.879600	0.742200
H71	H7	0.844600	0.437000	0.571400
H81	H8	0.375200	0.453000	0.473400
H91	H9	0.043000	0.422600	0.846800
H101	H10	0.936000	0.418200	0.778200
H111	H11	0.421600	0.631800	0.686000
H121	H12	0.514800	0.620400	0.757800
H131	H13	0.281600	0.071400	0.563000
H141	H14	0.828200	0.973400	0.547000
H151	H15	0.465600	0.346800	0.577400
H161	H16	0.354200	0.278200	0.581800
H171	H17	0.053400	0.186000	0.368200
H181	H18	0.135200	0.257800	0.379600
H191	H19	0.416000	0.428600	0.937000
H201	H20	0.848600	0.526600	0.953000
H211	H21	0.889800	0.153200	0.922600
H221	H22	0.714200	0.221800	0.918200
H231	H23	0.107600	0.314000	0.131800
H241	H24	0.272600	0.242200	0.120400
H251	H25	0.647000	0.937000	0.071400
H261	H26	0.198400	0.953000	0.973400
H271	H27	0.187600	0.922600	0.346800
H281	H28	0.367600	0.918200	0.278200
H291	H29	0.760600	0.131800	0.186000
H301	H30	0.607000	0.120400	0.257800
H311	H31	0.155400	0.563000	0.428600
H321	H32	0.624800	0.547000	0.526600
H331	H33	0.957000	0.577400	0.153200
H341	H34	0.064000	0.581800	0.221800
H351	H35	0.578400	0.368200	0.314000
H361	H36	0.485200	0.379600	0.242200
H371	H37	0.718400	0.928600	0.437000
H381	H38	0.171800	0.026600	0.453000
H391	H39	0.534400	0.653200	0.422600
H401	H40	0.645800	0.721800	0.418200
H411	H41	0.946600	0.814000	0.631800
H421	H42	0.864800	0.742200	0.620400
H431	H43	0.584000	0.571400	0.063000
H441	H44	0.151400	0.473400	0.047000
H451	H45	0.110200	0.846800	0.077400
H461	H46	0.285800	0.778200	0.081800
H471	H47	0.892400	0.686000	0.868200
H481	H48	0.727400	0.757800	0.879600
C11	C1	0.743030	0.018880	0.875060
C21	C2	0.517100	0.025440	0.943560
C31	C3	0.599500	0.048170	0.021830
C41	C4	0.439750	0.123330	0.053170
C51	C5	0.136970	0.481120	0.624940
C61	C6	0.986100	0.474560	0.556440
C71	C7	0.169500	0.451830	0.478170
C81	C8	0.116250	0.376670	0.446830
C91	C9	0.618090	0.124940	0.518880
C101	C10	0.460660	0.056440	0.525440
C111	C11	0.621330	0.978170	0.548170
C121	C12	0.492920	0.946830	0.623330
C131	C13	0.761910	0.375060	0.981120
C141	C14	0.542540	0.443560	0.974560
C151	C15	0.647670	0.521830	0.951830
C161	C16	0.563080	0.553170	0.876670
C171	C17	0.256970	0.981120	0.124940
C181	C18	0.482900	0.974560	0.056440
C191	C19	0.400500	0.951830	0.978170
C201	C20	0.560250	0.876670	0.946830
C211	C21	0.863030	0.518880	0.375060
C221	C22	0.013900	0.525440	0.443560
C231	C23	0.830500	0.548170	0.521830
C241	C24	0.883750	0.623330	0.553170
C251	C25	0.381910	0.875060	0.481120
C261	C26	0.539340	0.943560	0.474560
C271	C27	0.378670	0.021830	0.451830
C281	C28	0.507080	0.053170	0.376670
C291	C29	0.238090	0.624940	0.018880
C301	C30	0.457460	0.556440	0.025440
C311	C31	0.352330	0.478170	0.048170
C321	C32	0.436920	0.446830	0.123330
O11	O1	0.930800	0.062560	0.867840
O21	O2	0.714800	0.969830	0.825570
O31	O3	0.555970	0.165720	0.092740
O41	O4	0.188740	0.138590	0.035330
O51	O5	0.793490	0.066140	0.701480
O61	O6	0.216320	0.876870	0.769690
O71	O7	0.361200	0.437440	0.632160
O81	O8	0.010200	0.530170	0.674430
O91	O9	0.314430	0.334280	0.407260
O101	O10	0.862660	0.361410	0.464670
O111	O11	0.061110	0.433860	0.798520
O121	O12	0.362880	0.623130	0.730310
O131	O13	0.798640	0.132160	0.562560
O141	O14	0.540370	0.174430	0.469830
O151	O15	0.648710	0.907260	0.665720
O161	O16	0.224070	0.964670	0.638590
O171	O17	0.494970	0.298520	0.566140
O181	O18	0.986010	0.230310	0.376870
O191	O19	0.993360	0.367840	0.937440
O201	O20	0.684630	0.325570	0.030170
O211	O21	0.721690	0.592740	0.834280
O221	O22	0.327330	0.535330	0.861410
O231	O23	0.859630	0.201480	0.933860
O241	O24	0.093190	0.269690	0.123130
O251	O25	0.069200	0.937440	0.132160
O261	O26	0.285200	0.030170	0.174430
O271	O27	0.444030	0.834280	0.907260
O281	O28	0.811260	0.861410	0.964670
O291	O29	0.206510	0.933860	0.298520
O301	O30	0.783680	0.123130	0.230310
O311	O31	0.638800	0.562560	0.367840
O321	O32	0.989800	0.469830	0.325570
O331	O33	0.685570	0.665720	0.592740
O341	O34	0.137340	0.638590	0.535330
O351	O35	0.938890	0.566140	0.201480
O361	O36	0.637120	0.376870	0.269690
O371	O37	0.201360	0.867840	0.437440
O381	O38	0.459630	0.825570	0.530170
O391	O39	0.351290	0.092740	0.334280
O401	O40	0.775930	0.035330	0.361410
O411	O41	0.505030	0.701480	0.433860
O421	O42	0.013990	0.769690	0.623130
O431	O43	0.006640	0.632160	0.062560
O441	O44	0.315370	0.674430	0.969830
O451	O45	0.278310	0.407260	0.165720
O461	O46	0.672670	0.464670	0.138590
O471	O47	0.140370	0.798520	0.066140
O481	O48	0.906810	0.730310	0.876870
