data_REBSIB_freeONLY_PM
_symmetry_space_group_name_H-M	'P1'
_cell_length_a	16.837500
_cell_length_b	16.837500
_cell_length_c	16.837500
_cell_angle_alpha	90.000000
_cell_angle_beta	90.000000
_cell_angle_gamma	90.000000
_symmetry_Int_Tables_number 1

loop_
_symmetry_equiv_pos_as_xyz
'x,y,z'

loop_
_atom_site_label
_atom_site_type_symbol
_atom_site_fract_x
_atom_site_fract_y
_atom_site_fract_z
O11	O1	0.804970	0.517830	0.906020
O21	O2	0.304970	0.017830	0.406020
O31	O3	0.195030	0.482170	0.906020
O41	O4	0.695030	0.982170	0.406020
O51	O5	0.195030	0.517830	0.093980
O61	O6	0.695030	0.017830	0.593980
O71	O7	0.804970	0.482170	0.093980
O81	O8	0.304970	0.982170	0.593980
O91	O9	0.906020	0.804970	0.517830
O101	O10	0.406020	0.304970	0.017830
O111	O11	0.906020	0.195030	0.482170
O121	O12	0.406020	0.695030	0.982170
O131	O13	0.093980	0.195030	0.517830
O141	O14	0.593980	0.695030	0.017830
O151	O15	0.093980	0.804970	0.482170
O161	O16	0.593980	0.304970	0.982170
O171	O17	0.517830	0.906020	0.804970
O181	O18	0.017830	0.406020	0.304970
O191	O19	0.482170	0.906020	0.195030
O201	O20	0.982170	0.406020	0.695030
O211	O21	0.517830	0.093980	0.195030
O221	O22	0.017830	0.593980	0.695030
O231	O23	0.482170	0.093980	0.804970
O241	O24	0.982170	0.593980	0.304970
O251	O25	0.517830	0.804970	0.906020
O261	O26	0.017830	0.304970	0.406020
O271	O27	0.482170	0.195030	0.906020
O281	O28	0.982170	0.695030	0.406020
O291	O29	0.517830	0.195030	0.093980
O301	O30	0.017830	0.695030	0.593980
O311	O31	0.482170	0.804970	0.093980
O321	O32	0.982170	0.304970	0.593980
O331	O33	0.804970	0.906020	0.517830
O341	O34	0.304970	0.406020	0.017830
O351	O35	0.195030	0.906020	0.482170
O361	O36	0.695030	0.406020	0.982170
O371	O37	0.195030	0.093980	0.517830
O381	O38	0.695030	0.593980	0.017830
O391	O39	0.804970	0.093980	0.482170
O401	O40	0.304970	0.593980	0.982170
O411	O41	0.906020	0.517830	0.804970
O421	O42	0.406020	0.017830	0.304970
O431	O43	0.906020	0.482170	0.195030
O441	O44	0.406020	0.982170	0.695030
O451	O45	0.093980	0.517830	0.195030
O461	O46	0.593980	0.017830	0.695030
O471	O47	0.093980	0.482170	0.804970
O481	O48	0.593980	0.982170	0.304970
Ga11	Ga1	0.000000	0.500000	0.000000
Ga21	Ga2	0.500000	0.000000	0.500000
Ga31	Ga3	0.000000	0.000000	0.500000
Ga41	Ga4	0.500000	0.500000	0.000000
Ga51	Ga5	0.500000	0.000000	0.000000
Ga61	Ga6	0.000000	0.500000	0.500000
Zn11	Zn1	0.750000	0.500000	0.000000
Zn21	Zn2	0.250000	0.500000	0.000000
Zn31	Zn3	0.000000	0.750000	0.500000
Zn41	Zn4	0.000000	0.250000	0.500000
Zn51	Zn5	0.500000	0.000000	0.750000
Zn61	Zn6	0.500000	0.000000	0.250000
Zn71	Zn7	0.500000	0.750000	0.000000
Zn81	Zn8	0.500000	0.250000	0.000000
Zn91	Zn9	0.750000	0.000000	0.500000
Zn101	Zn10	0.250000	0.000000	0.500000
Zn111	Zn11	0.000000	0.500000	0.750000
Zn121	Zn12	0.000000	0.500000	0.250000
P11	P1	0.876380	0.566480	0.876380
O491	O49	0.852850	0.650020	0.852850
O501	O50	0.940720	0.570990	0.940720
P21	P2	0.376380	0.066480	0.376380
O511	O51	0.352850	0.150020	0.352850
O521	O52	0.440720	0.070990	0.440720
P31	P3	0.123620	0.433520	0.876380
O531	O53	0.147150	0.349980	0.852850
O541	O54	0.059280	0.429010	0.940720
P41	P4	0.623620	0.933520	0.376380
O551	O55	0.647150	0.849980	0.352850
O561	O56	0.559280	0.929010	0.440720
P51	P5	0.123620	0.566480	0.123620
O571	O57	0.147150	0.650020	0.147150
O581	O58	0.059280	0.570990	0.059280
P61	P6	0.623620	0.066480	0.623620
O591	O59	0.647150	0.150020	0.647150
O601	O60	0.559280	0.070990	0.559280
P71	P7	0.876380	0.433520	0.123620
O611	O61	0.852850	0.349980	0.147150
O621	O62	0.940720	0.429010	0.059280
P81	P8	0.376380	0.933520	0.623620
O631	O63	0.352850	0.849980	0.647150
O641	O64	0.440720	0.929010	0.559280
P91	P9	0.876380	0.876380	0.566480
O651	O65	0.852850	0.852850	0.650020
O661	O66	0.940720	0.940720	0.570990
P101	P10	0.376380	0.376380	0.066480
O671	O67	0.352850	0.352850	0.150020
O681	O68	0.440720	0.440720	0.070990
P111	P11	0.876380	0.123620	0.433520
O691	O69	0.852850	0.147150	0.349980
O701	O70	0.940720	0.059280	0.429010
P121	P12	0.376380	0.623620	0.933520
O711	O71	0.352850	0.647150	0.849980
O721	O72	0.440720	0.559280	0.929010
P131	P13	0.123620	0.123620	0.566480
O731	O73	0.147150	0.147150	0.650020
O741	O74	0.059280	0.059280	0.570990
P141	P14	0.623620	0.623620	0.066480
O751	O75	0.647150	0.647150	0.150020
O761	O76	0.559280	0.559280	0.070990
P151	P15	0.123620	0.876380	0.433520
O771	O77	0.147150	0.852850	0.349980
O781	O78	0.059280	0.940720	0.429010
P161	P16	0.623620	0.376380	0.933520
O791	O79	0.647150	0.352850	0.849980
O801	O80	0.559280	0.440720	0.929010
P171	P17	0.566480	0.876380	0.876380
O811	O81	0.650020	0.852850	0.852850
O821	O82	0.570990	0.940720	0.940720
P181	P18	0.066480	0.376380	0.376380
O831	O83	0.150020	0.352850	0.352850
O841	O84	0.070990	0.440720	0.440720
P191	P19	0.433520	0.876380	0.123620
O851	O85	0.349980	0.852850	0.147150
O861	O86	0.429010	0.940720	0.059280
P201	P20	0.933520	0.376380	0.623620
O871	O87	0.849980	0.352850	0.647150
O881	O88	0.929010	0.440720	0.559280
P211	P21	0.566480	0.123620	0.123620
O891	O89	0.650020	0.147150	0.147150
O901	O90	0.570990	0.059280	0.059280
P221	P22	0.066480	0.623620	0.623620
O911	O91	0.150020	0.647150	0.647150
O921	O92	0.070990	0.559280	0.559280
P231	P23	0.433520	0.123620	0.876380
O931	O93	0.349980	0.147150	0.852850
O941	O94	0.429010	0.059280	0.940720
P241	P24	0.933520	0.623620	0.376380
O951	O95	0.849980	0.647150	0.352850
O961	O96	0.929010	0.559280	0.440720
