data_REDROI_freeONLY_PM
_symmetry_space_group_name_H-M	'P1'
_cell_length_a	6.405000
_cell_length_b	14.164000
_cell_length_c	20.098000
_cell_angle_alpha	90.000000
_cell_angle_beta	95.290000
_cell_angle_gamma	90.000000
_symmetry_Int_Tables_number 1

loop_
_symmetry_equiv_pos_as_xyz
'x,y,z'

loop_
_atom_site_label
_atom_site_type_symbol
_atom_site_fract_x
_atom_site_fract_y
_atom_site_fract_z
Zn11	Zn1	0.985540	0.192860	0.941850
Zn21	Zn2	0.514520	0.601970	0.543920
Zn31	Zn3	0.014460	0.692860	0.558150
Zn41	Zn4	0.485480	0.101970	0.956080
Zn51	Zn5	0.014460	0.807140	0.058150
Zn61	Zn6	0.485480	0.398030	0.456080
Zn71	Zn7	0.985540	0.307140	0.441850
Zn81	Zn8	0.514520	0.898030	0.043920
Zn91	Zn9	0.000000	0.500000	0.500000
Zn101	Zn10	0.000000	0.000000	0.000000
H11	H1	0.136200	0.297400	0.675300
H21	H2	0.262300	0.216400	0.771400
H31	H3	0.837100	0.323000	0.754800
H41	H4	0.714800	0.397300	0.656500
H51	H5	0.711300	0.374500	0.973600
H61	H6	0.155300	0.473500	0.019900
H71	H7	0.222000	0.631000	0.472000
H81	H8	0.842000	0.574000	0.598400
H91	H9	0.863800	0.797400	0.824700
H101	H10	0.737700	0.716400	0.728600
H111	H11	0.162900	0.823000	0.745200
H121	H12	0.285200	0.897300	0.843500
H131	H13	0.288700	0.874500	0.526400
H141	H14	0.844700	0.973500	0.480100
H151	H15	0.778000	0.131000	0.028000
H161	H16	0.158000	0.074000	0.901600
H171	H17	0.863800	0.702600	0.324700
H181	H18	0.737700	0.783600	0.228600
H191	H19	0.162900	0.677000	0.245200
H201	H20	0.285200	0.602700	0.343500
H211	H21	0.288700	0.625500	0.026400
H221	H22	0.844700	0.526500	0.980100
H231	H23	0.778000	0.369000	0.528000
H241	H24	0.158000	0.426000	0.401600
H251	H25	0.136200	0.202600	0.175300
H261	H26	0.262300	0.283600	0.271400
H271	H27	0.837100	0.177000	0.254800
H281	H28	0.714800	0.102700	0.156500
H291	H29	0.711300	0.125500	0.473600
H301	H30	0.155300	0.026500	0.519900
H311	H31	0.222000	0.869000	0.972000
H321	H32	0.842000	0.926000	0.098400
C11	C1	0.331200	0.414700	0.596010
C21	C2	0.411700	0.357500	0.655950
C31	C3	0.277100	0.302200	0.690900
C41	C4	0.352500	0.253800	0.749000
C51	C5	0.563600	0.261700	0.773390
C61	C6	0.696900	0.316800	0.738600
C71	C7	0.622500	0.362700	0.680000
C81	C8	0.644500	0.214100	0.837570
C91	C9	0.325900	0.309800	0.989330
C101	C10	0.417900	0.408100	0.995900
C111	C11	0.626200	0.424500	0.984100
C121	C12	0.294000	0.484000	0.011800
C131	C13	0.668800	0.914700	0.903990
C141	C14	0.588300	0.857500	0.844050
C151	C15	0.722900	0.802200	0.809100
C161	C16	0.647500	0.753800	0.751000
C171	C17	0.436400	0.761700	0.726610
C181	C18	0.303100	0.816800	0.761400
C191	C19	0.377500	0.862700	0.820000
C201	C20	0.355500	0.714100	0.662430
C211	C21	0.674100	0.809800	0.510670
C221	C22	0.582100	0.908100	0.504100
C231	C23	0.373800	0.924500	0.515900
C241	C24	0.706000	0.984000	0.488200
C251	C25	0.668800	0.585300	0.403990
C261	C26	0.588300	0.642500	0.344050
C271	C27	0.722900	0.697800	0.309100
C281	C28	0.647500	0.746200	0.251000
C291	C29	0.436400	0.738300	0.226610
C301	C30	0.303100	0.683200	0.261400
C311	C31	0.377500	0.637300	0.320000
C321	C32	0.355500	0.785900	0.162430
C331	C33	0.674100	0.690200	0.010670
C341	C34	0.582100	0.591900	0.004100
C351	C35	0.373800	0.575500	0.015900
C361	C36	0.706000	0.516000	0.988200
C371	C37	0.331200	0.085300	0.096010
C381	C38	0.411700	0.142500	0.155950
C391	C39	0.277100	0.197800	0.190900
C401	C40	0.352500	0.246200	0.249000
C411	C41	0.563600	0.238300	0.273390
C421	C42	0.696900	0.183200	0.238600
C431	C43	0.622500	0.137300	0.180000
C441	C44	0.644500	0.285900	0.337570
C451	C45	0.325900	0.190200	0.489330
C461	C46	0.417900	0.091900	0.495900
C471	C47	0.626200	0.075500	0.484100
C481	C48	0.294000	0.016000	0.511800
O11	O1	0.466900	0.452540	0.561580
O21	O2	0.136800	0.423240	0.583410
O31	O3	0.824400	0.240540	0.862110
O41	O4	0.532900	0.151400	0.861320
O51	O5	0.449800	0.242000	0.992180
O61	O6	0.127000	0.304300	0.980290
O71	O7	0.206300	0.616870	0.508180
O81	O8	0.826400	0.583580	0.566430
O91	O9	0.533100	0.952540	0.938420
O101	O10	0.863200	0.923240	0.916590
O111	O11	0.175600	0.740540	0.637890
O121	O12	0.467100	0.651400	0.638680
O131	O13	0.550200	0.742000	0.507820
O141	O14	0.873000	0.804300	0.519710
O151	O15	0.793700	0.116870	0.991820
O161	O16	0.173600	0.083580	0.933570
O171	O17	0.533100	0.547460	0.438420
O181	O18	0.863200	0.576760	0.416590
O191	O19	0.175600	0.759460	0.137890
O201	O20	0.467100	0.848600	0.138680
O211	O21	0.550200	0.758000	0.007820
O221	O22	0.873000	0.695700	0.019710
O231	O23	0.793700	0.383130	0.491820
O241	O24	0.173600	0.416420	0.433570
O251	O25	0.466900	0.047460	0.061580
O261	O26	0.136800	0.076760	0.083410
O271	O27	0.824400	0.259460	0.362110
O281	O28	0.532900	0.348600	0.361320
O291	O29	0.449800	0.258000	0.492180
O301	O30	0.127000	0.195700	0.480290
O311	O31	0.206300	0.883130	0.008180
O321	O32	0.826400	0.916420	0.066430
