data_REFTUT_freeONLY_PM
_symmetry_space_group_name_H-M	'P1'
_cell_length_a	7.358500
_cell_length_b	18.702900
_cell_length_c	23.596500
_cell_angle_alpha	90.000000
_cell_angle_beta	90.000000
_cell_angle_gamma	90.000000
_symmetry_Int_Tables_number 1

loop_
_symmetry_equiv_pos_as_xyz
'x,y,z'

loop_
_atom_site_label
_atom_site_type_symbol
_atom_site_fract_x
_atom_site_fract_y
_atom_site_fract_z
Ca11	Ca1	0.500000	0.500000	0.000000
Ca21	Ca2	0.000000	0.000000	0.000000
Ca31	Ca3	0.500000	0.500000	0.500000
Ca41	Ca4	0.000000	0.000000	0.500000
Zn11	Zn1	0.858000	0.549150	0.913280
Zn21	Zn2	0.642000	0.049150	0.086720
Zn31	Zn3	0.142000	0.450850	0.413280
Zn41	Zn4	0.358000	0.950850	0.586720
Zn51	Zn5	0.142000	0.450850	0.086720
Zn61	Zn6	0.358000	0.950850	0.913280
Zn71	Zn7	0.858000	0.549150	0.586720
Zn81	Zn8	0.642000	0.049150	0.413280
H11	H1	0.105600	0.598900	0.921500
H21	H2	0.177500	0.562300	0.876000
H31	H3	0.773800	0.296800	0.022400
H41	H4	0.997400	0.330900	0.869800
H51	H5	0.905700	0.130600	0.922700
H61	H6	0.929000	0.188400	0.806500
H71	H7	0.108400	0.232600	0.813600
H81	H8	0.097200	0.154400	0.837100
H91	H9	0.204300	0.455000	0.835000
H101	H10	0.907300	0.443500	0.775200
H111	H11	0.394400	0.098900	0.078500
H121	H12	0.322500	0.062300	0.124000
H131	H13	0.726200	0.796800	0.977600
H141	H14	0.502600	0.830900	0.130200
H151	H15	0.594300	0.630600	0.077300
H161	H16	0.571000	0.688400	0.193500
H171	H17	0.391600	0.732600	0.186400
H181	H18	0.402800	0.654400	0.162900
H191	H19	0.295700	0.955000	0.165000
H201	H20	0.592700	0.943500	0.224800
H211	H21	0.894400	0.401100	0.421500
H221	H22	0.822500	0.437700	0.376000
H231	H23	0.226200	0.703200	0.522400
H241	H24	0.002600	0.669100	0.369800
H251	H25	0.094300	0.869400	0.422700
H261	H26	0.071000	0.811600	0.306500
H271	H27	0.891600	0.767400	0.313600
H281	H28	0.902800	0.845600	0.337100
H291	H29	0.795700	0.545000	0.335000
H301	H30	0.092700	0.556500	0.275200
H311	H31	0.605600	0.901100	0.578500
H321	H32	0.677500	0.937700	0.624000
H331	H33	0.273800	0.203200	0.477600
H341	H34	0.497400	0.169100	0.630200
H351	H35	0.405700	0.369400	0.577300
H361	H36	0.429000	0.311600	0.693500
H371	H37	0.608400	0.267400	0.686400
H381	H38	0.597200	0.345600	0.662900
H391	H39	0.704300	0.045000	0.665000
H401	H40	0.407300	0.056500	0.724800
H411	H41	0.894400	0.401100	0.078500
H421	H42	0.822500	0.437700	0.124000
H431	H43	0.226200	0.703200	0.977600
H441	H44	0.002600	0.669100	0.130200
H451	H45	0.094300	0.869400	0.077300
H461	H46	0.071000	0.811600	0.193500
H471	H47	0.891600	0.767400	0.186400
H481	H48	0.902800	0.845600	0.162900
H491	H49	0.795700	0.545000	0.165000
H501	H50	0.092700	0.556500	0.224800
H511	H51	0.605600	0.901100	0.921500
H521	H52	0.677500	0.937700	0.876000
H531	H53	0.273800	0.203200	0.022400
H541	H54	0.497400	0.169100	0.869800
H551	H55	0.405700	0.369400	0.922700
H561	H56	0.429000	0.311600	0.806500
H571	H57	0.608400	0.267400	0.813600
H581	H58	0.597200	0.345600	0.837100
H591	H59	0.704300	0.045000	0.835000
H601	H60	0.407300	0.056500	0.775200
H611	H61	0.105600	0.598900	0.578500
H621	H62	0.177500	0.562300	0.624000
H631	H63	0.773800	0.296800	0.477600
H641	H64	0.997400	0.330900	0.630200
H651	H65	0.905700	0.130600	0.577300
H661	H66	0.929000	0.188400	0.693500
H671	H67	0.108400	0.232600	0.686400
H681	H68	0.097200	0.154400	0.662900
H691	H69	0.204300	0.455000	0.665000
H701	H70	0.907300	0.443500	0.724800
H711	H71	0.394400	0.098900	0.421500
H721	H72	0.322500	0.062300	0.376000
H731	H73	0.726200	0.796800	0.522400
H741	H74	0.502600	0.830900	0.369800
H751	H75	0.594300	0.630600	0.422700
H761	H76	0.571000	0.688400	0.306500
H771	H77	0.391600	0.732600	0.313600
H781	H78	0.402800	0.654400	0.337100
H791	H79	0.295700	0.955000	0.335000
H801	H80	0.592700	0.943500	0.275200
H811	H81	0.630900	0.534300	0.750000
H821	H82	0.869100	0.034300	0.250000
H831	H83	0.369100	0.465700	0.250000
H841	H84	0.130900	0.965700	0.750000
C11	C1	0.821900	0.279140	0.988730
C21	C2	0.879300	0.325870	0.947070
C31	C3	0.953500	0.299200	0.896920
C41	C4	0.848300	0.404800	0.954240
C51	C5	0.771700	0.157000	0.026490
C61	C6	0.836000	0.205520	0.980420
C71	C7	0.902000	0.179610	0.929020
C81	C8	0.962600	0.226100	0.886990
C91	C9	0.030500	0.197800	0.830920
C101	C10	0.529300	0.513850	0.855330
C111	C11	0.432600	0.497240	0.800980
C121	C12	0.260700	0.465700	0.800700
C131	C13	0.678100	0.779140	0.011270
C141	C14	0.620700	0.825870	0.052930
C151	C15	0.546500	0.799200	0.103080
C161	C16	0.651700	0.904800	0.045760
C171	C17	0.728300	0.657000	0.973510
C181	C18	0.664000	0.705520	0.019580
C191	C19	0.598000	0.679610	0.070980
C201	C20	0.537400	0.726100	0.113010
C211	C21	0.469500	0.697800	0.169080
C221	C22	0.970700	0.013850	0.144670
C231	C23	0.067400	0.997240	0.199020
C241	C24	0.239300	0.965700	0.199300
C251	C25	0.178100	0.720860	0.488730
C261	C26	0.120700	0.674130	0.447070
C271	C27	0.046500	0.700800	0.396920
C281	C28	0.151700	0.595200	0.454240
C291	C29	0.228300	0.843000	0.526490
C301	C30	0.164000	0.794480	0.480420
C311	C31	0.098000	0.820390	0.429020
C321	C32	0.037400	0.773900	0.386990
C331	C33	0.969500	0.802200	0.330920
C341	C34	0.470700	0.486150	0.355330
C351	C35	0.567400	0.502760	0.300980
C361	C36	0.739300	0.534300	0.300700
C371	C37	0.321900	0.220860	0.511270
C381	C38	0.379300	0.174130	0.552930
C391	C39	0.453500	0.200800	0.603080
C401	C40	0.348300	0.095200	0.545760
C411	C41	0.271700	0.343000	0.473510
C421	C42	0.336000	0.294480	0.519580
C431	C43	0.402000	0.320390	0.570980
C441	C44	0.462600	0.273900	0.613010
C451	C45	0.530500	0.302200	0.669080
C461	C46	0.029300	0.986150	0.644670
C471	C47	0.932600	0.002760	0.699020
C481	C48	0.760700	0.034300	0.699300
C491	C49	0.178100	0.720860	0.011270
C501	C50	0.120700	0.674130	0.052930
C511	C51	0.046500	0.700800	0.103080
C521	C52	0.151700	0.595200	0.045760
C531	C53	0.228300	0.843000	0.973510
C541	C54	0.164000	0.794480	0.019580
C551	C55	0.098000	0.820390	0.070980
C561	C56	0.037400	0.773900	0.113010
C571	C57	0.969500	0.802200	0.169080
C581	C58	0.470700	0.486150	0.144670
C591	C59	0.567400	0.502760	0.199020
C601	C60	0.739300	0.534300	0.199300
C611	C61	0.321900	0.220860	0.988730
C621	C62	0.379300	0.174130	0.947070
C631	C63	0.453500	0.200800	0.896920
C641	C64	0.348300	0.095200	0.954240
C651	C65	0.271700	0.343000	0.026490
C661	C66	0.336000	0.294480	0.980420
C671	C67	0.402000	0.320390	0.929020
C681	C68	0.462600	0.273900	0.886990
C691	C69	0.530500	0.302200	0.830920
C701	C70	0.029300	0.986150	0.855330
C711	C71	0.932600	0.002760	0.800980
C721	C72	0.760700	0.034300	0.800700
C731	C73	0.821900	0.279140	0.511270
C741	C74	0.879300	0.325870	0.552930
C751	C75	0.953500	0.299200	0.603080
C761	C76	0.848300	0.404800	0.545760
C771	C77	0.771700	0.157000	0.473510
C781	C78	0.836000	0.205520	0.519580
C791	C79	0.902000	0.179610	0.570980
C801	C80	0.962600	0.226100	0.613010
C811	C81	0.030500	0.197800	0.669080
C821	C82	0.529300	0.513850	0.644670
C831	C83	0.432600	0.497240	0.699020
C841	C84	0.260700	0.465700	0.699300
C851	C85	0.678100	0.779140	0.488730
C861	C86	0.620700	0.825870	0.447070
C871	C87	0.546500	0.799200	0.396920
C881	C88	0.651700	0.904800	0.454240
C891	C89	0.728300	0.657000	0.526490
C901	C90	0.664000	0.705520	0.480420
C911	C91	0.598000	0.679610	0.429020
C921	C92	0.537400	0.726100	0.386990
C931	C93	0.469500	0.697800	0.330920
C941	C94	0.970700	0.013850	0.355330
C951	C95	0.067400	0.997240	0.300980
C961	C96	0.239300	0.965700	0.300700
C971	C97	0.516700	0.512900	0.750000
C981	C98	0.171700	0.449700	0.750000
C991	C99	0.984600	0.417100	0.750000
C1001	C100	0.983300	0.012900	0.250000
C1011	C101	0.328300	0.949700	0.250000
C1021	C102	0.515400	0.917100	0.250000
C1031	C103	0.483300	0.487100	0.250000
C1041	C104	0.828300	0.550300	0.250000
C1051	C105	0.015400	0.582900	0.250000
C1061	C106	0.016700	0.987100	0.750000
C1071	C107	0.671700	0.050300	0.750000
C1081	C108	0.484600	0.082900	0.750000
O11	O1	0.744800	0.425130	0.992690
O21	O2	0.926100	0.446610	0.919430
O31	O3	0.773200	0.088500	0.017770
O41	O4	0.714000	0.181020	0.071760
O51	O5	0.455100	0.500320	0.901720
O61	O6	0.686500	0.541020	0.850090
O71	O7	0.091100	0.589800	0.886140
O81	O8	0.755200	0.925130	0.007310
O91	O9	0.573900	0.946610	0.080570
O101	O10	0.726800	0.588500	0.982230
O111	O11	0.786000	0.681020	0.928240
O121	O12	0.044900	0.000320	0.098280
O131	O13	0.813500	0.041020	0.149910
O141	O14	0.408900	0.089800	0.113860
O151	O15	0.255200	0.574870	0.492690
O161	O16	0.073900	0.553390	0.419430
O171	O17	0.226800	0.911500	0.517770
O181	O18	0.286000	0.818980	0.571760
O191	O19	0.544900	0.499680	0.401720
O201	O20	0.313500	0.458980	0.350090
O211	O21	0.908900	0.410200	0.386140
O221	O22	0.244800	0.074870	0.507310
O231	O23	0.426100	0.053390	0.580570
O241	O24	0.273200	0.411500	0.482230
O251	O25	0.214000	0.318980	0.428240
O261	O26	0.955100	0.999680	0.598280
O271	O27	0.186500	0.958980	0.649910
O281	O28	0.591100	0.910200	0.613860
O291	O29	0.255200	0.574870	0.007310
O301	O30	0.073900	0.553390	0.080570
O311	O31	0.226800	0.911500	0.982230
O321	O32	0.286000	0.818980	0.928240
O331	O33	0.544900	0.499680	0.098280
O341	O34	0.313500	0.458980	0.149910
O351	O35	0.908900	0.410200	0.113860
O361	O36	0.244800	0.074870	0.992690
O371	O37	0.426100	0.053390	0.919430
O381	O38	0.273200	0.411500	0.017770
O391	O39	0.214000	0.318980	0.071760
O401	O40	0.955100	0.999680	0.901720
O411	O41	0.186500	0.958980	0.850090
O421	O42	0.591100	0.910200	0.886140
O431	O43	0.744800	0.425130	0.507310
O441	O44	0.926100	0.446610	0.580570
O451	O45	0.773200	0.088500	0.482230
O461	O46	0.714000	0.181020	0.428240
O471	O47	0.455100	0.500320	0.598280
O481	O48	0.686500	0.541020	0.649910
O491	O49	0.091100	0.589800	0.613860
O501	O50	0.755200	0.925130	0.492690
O511	O51	0.573900	0.946610	0.419430
O521	O52	0.726800	0.588500	0.517770
O531	O53	0.786000	0.681020	0.571760
O541	O54	0.044900	0.000320	0.401720
O551	O55	0.813500	0.041020	0.350090
O561	O56	0.408900	0.089800	0.386140
