data_REGJIW02_freeONLY_PM
_symmetry_space_group_name_H-M	'P1'
_cell_length_a	5.494000
_cell_length_b	7.931600
_cell_length_c	7.931600
_cell_angle_alpha	108.473000
_cell_angle_beta	90.400300
_cell_angle_gamma	90.400300
_symmetry_Int_Tables_number 1

loop_
_symmetry_equiv_pos_as_xyz
'x,y,z'

loop_
_atom_site_label
_atom_site_type_symbol
_atom_site_fract_x
_atom_site_fract_y
_atom_site_fract_z
Co11	Co1	0.500000	0.000000	0.000000
Co21	Co2	0.000000	0.880110	0.119890
Co31	Co3	0.000000	0.119890	0.880110
H11	H1	0.144000	0.808000	0.808000
H21	H2	0.856000	0.192000	0.192000
C11	C1	0.424600	0.008500	0.383900
C21	C2	0.658400	0.947800	0.432600
C31	C3	0.575400	0.616100	0.991500
C41	C4	0.341600	0.567400	0.052200
C51	C5	0.575400	0.991500	0.616100
C61	C6	0.341600	0.052200	0.567400
C71	C7	0.424600	0.383900	0.008500
C81	C8	0.658400	0.432600	0.947800
O11	O1	0.329000	0.020010	0.242990
O21	O2	0.850100	0.881860	0.356140
O31	O3	0.671000	0.757010	0.979990
O41	O4	0.149900	0.643860	0.118140
O51	O5	0.671000	0.979990	0.757010
O61	O6	0.149900	0.118140	0.643860
O71	O7	0.329000	0.242990	0.020010
O81	O8	0.850100	0.356140	0.881860
O91	O9	0.174400	0.897000	0.897000
O101	O10	0.825600	0.103000	0.103000
