data_REJLEY_freeONLY_PM
_symmetry_space_group_name_H-M	'P1'
_cell_length_a	11.448200
_cell_length_b	11.540800
_cell_length_c	11.766300
_cell_angle_alpha	65.370000
_cell_angle_beta	80.540000
_cell_angle_gamma	72.759000
_symmetry_Int_Tables_number 1

loop_
_symmetry_equiv_pos_as_xyz
'x,y,z'

loop_
_atom_site_label
_atom_site_type_symbol
_atom_site_fract_x
_atom_site_fract_y
_atom_site_fract_z
Co11	Co1	0.500000	0.000000	0.500000
Co21	Co2	0.500000	0.500000	0.000000
Co31	Co3	0.500000	0.500000	0.500000
H11	H1	0.545000	0.161800	0.177900
H21	H2	0.701600	0.874300	0.703900
H31	H3	0.909600	0.779900	0.720100
H41	H4	0.945700	0.941800	0.341300
H51	H5	0.736900	0.030000	0.337700
H61	H6	0.076700	0.618600	0.703800
H71	H7	0.278300	0.503200	0.693000
H81	H8	0.339700	0.777000	0.369200
H91	H9	0.141000	0.903100	0.371000
H101	H10	0.657600	0.684600	0.977600
H111	H11	0.856900	0.691900	0.974200
H121	H12	0.961900	0.306100	0.037700
H131	H13	0.758800	0.308600	0.043300
H141	H14	0.455000	0.838200	0.822100
H151	H15	0.298400	0.125700	0.296100
H161	H16	0.090400	0.220100	0.279900
H171	H17	0.054300	0.058200	0.658700
H181	H18	0.263100	0.970000	0.662300
H191	H19	0.923300	0.381400	0.296200
H201	H20	0.721700	0.496800	0.307000
H211	H21	0.660300	0.223000	0.630800
H221	H22	0.859000	0.096900	0.629000
H231	H23	0.342400	0.315400	0.022400
H241	H24	0.143100	0.308100	0.025800
H251	H25	0.038100	0.693900	0.962300
H261	H26	0.241200	0.691400	0.956700
C11	C1	0.524200	0.216400	0.224100
C21	C2	0.477800	0.278700	0.378100
C31	C3	0.481000	0.387800	0.268400
C41	C4	0.447000	0.256600	0.511600
C51	C5	0.461500	0.531600	0.234600
C61	C6	0.751900	0.885900	0.629200
C71	C7	0.876200	0.828800	0.639900
C81	C8	0.952100	0.843800	0.531800
C91	C9	0.897300	0.923800	0.417500
C101	C10	0.772600	0.976400	0.416300
C111	C11	0.083800	0.774100	0.535300
C121	C12	0.128600	0.653000	0.633200
C131	C13	0.249000	0.584500	0.625600
C141	C14	0.285000	0.744100	0.437400
C151	C15	0.166100	0.819900	0.437600
C161	C16	0.720700	0.606100	0.989600
C171	C17	0.839900	0.611600	0.986700
C181	C18	0.934400	0.500000	0.002200
C191	C19	0.900700	0.386300	0.024300
C201	C20	0.779200	0.388300	0.027100
C211	C21	0.475800	0.783600	0.775900
C221	C22	0.522200	0.721300	0.621900
C231	C23	0.519000	0.612200	0.731600
C241	C24	0.553000	0.743400	0.488400
C251	C25	0.538500	0.468400	0.765400
C261	C26	0.248100	0.114100	0.370800
C271	C27	0.123800	0.171200	0.360100
C281	C28	0.047900	0.156200	0.468200
C291	C29	0.102700	0.076200	0.582500
C301	C30	0.227400	0.023600	0.583700
C311	C31	0.916200	0.225900	0.464700
C321	C32	0.871400	0.347000	0.366800
C331	C33	0.751000	0.415500	0.374400
C341	C34	0.715000	0.255900	0.562600
C351	C35	0.833900	0.180100	0.562400
C361	C36	0.279300	0.393900	0.010400
C371	C37	0.160100	0.388400	0.013300
C381	C38	0.065600	0.500000	0.997800
C391	C39	0.099300	0.613700	0.975700
C401	C40	0.220800	0.611700	0.972900
N11	N1	0.505800	0.170700	0.348000
N21	N2	0.510400	0.346600	0.171300
N31	N3	0.698400	0.956300	0.519900
N41	N4	0.326600	0.626200	0.528900
N51	N5	0.688900	0.498500	0.007800
N61	N6	0.494200	0.829300	0.652000
N71	N7	0.489600	0.653400	0.828700
N81	N8	0.301600	0.043700	0.480100
N91	N9	0.673400	0.373800	0.471100
N101	N10	0.311100	0.501500	0.992200
O11	O1	0.414900	0.350500	0.546900
O21	O2	0.452600	0.137800	0.585900
O31	O3	0.457200	0.577600	0.314400
O41	O4	0.451500	0.603500	0.118800
O51	O5	0.585100	0.649500	0.453100
O61	O6	0.547400	0.862200	0.414100
O71	O7	0.542800	0.422400	0.685600
O81	O8	0.548500	0.396500	0.881200
