data_REJLIC_freeONLY_PM
_symmetry_space_group_name_H-M	'P1'
_cell_length_a	11.791400
_cell_length_b	17.050400
_cell_length_c	20.795000
_cell_angle_alpha	104.726000
_cell_angle_beta	106.360000
_cell_angle_gamma	103.481000
_symmetry_Int_Tables_number 1

loop_
_symmetry_equiv_pos_as_xyz
'x,y,z'

loop_
_atom_site_label
_atom_site_type_symbol
_atom_site_fract_x
_atom_site_fract_y
_atom_site_fract_z
Co11	Co1	0.000070	0.251880	0.248350
Co21	Co2	0.999930	0.748120	0.751650
Co31	Co3	0.500000	0.500000	0.500000
Co41	Co4	0.000000	0.500000	0.500000
Co51	Co5	0.000000	0.000000	0.000000
Co61	Co6	0.500000	0.000000	0.000000
H11	H1	0.321800	0.323400	0.345000
H21	H2	0.682800	0.187500	0.146500
H31	H3	0.525100	0.496600	0.653300
H41	H4	0.526300	0.401800	0.717000
H51	H5	0.421700	0.208800	0.533100
H61	H6	0.427300	0.308900	0.476300
H71	H7	0.510300	0.228100	0.881300
H81	H8	0.526800	0.171500	0.973200
H91	H9	0.506900	0.951000	0.847700
H101	H10	0.493300	0.001100	0.753400
H111	H11	0.145900	0.181800	0.358100
H121	H12	0.125200	0.067800	0.398500
H131	H13	0.757200	0.008200	0.310900
H141	H14	0.788500	0.123700	0.273200
H151	H15	0.103700	0.815500	0.515600
H161	H16	0.126300	0.699400	0.549800
H171	H17	0.801200	0.550600	0.404700
H181	H18	0.767800	0.665000	0.370100
H191	H19	0.199700	0.954800	0.099500
H201	H20	0.236600	0.843200	0.135200
H211	H21	0.910000	0.686300	0.982500
H221	H22	0.878700	0.802900	0.952000
H231	H23	0.253200	0.491500	0.185100
H241	H24	0.215600	0.375900	0.224100
H251	H25	0.857000	0.328000	0.141600
H261	H26	0.886300	0.440700	0.101200
H271	H27	0.678200	0.676600	0.655000
H281	H28	0.317200	0.812500	0.853500
H291	H29	0.474900	0.503400	0.346700
H301	H30	0.473700	0.598200	0.283000
H311	H31	0.578300	0.791200	0.466900
H321	H32	0.572700	0.691100	0.523700
H331	H33	0.489700	0.771900	0.118700
H341	H34	0.473200	0.828500	0.026800
H351	H35	0.493100	0.049000	0.152300
H361	H36	0.506700	0.998900	0.246600
H371	H37	0.854100	0.818200	0.641900
H381	H38	0.874800	0.932200	0.601500
H391	H39	0.242800	0.991800	0.689100
H401	H40	0.211500	0.876300	0.726800
H411	H41	0.896300	0.184500	0.484400
H421	H42	0.873700	0.300600	0.450200
H431	H43	0.198800	0.449400	0.595300
H441	H44	0.232200	0.335000	0.629900
H451	H45	0.800300	0.045200	0.900500
H461	H46	0.763400	0.156800	0.864800
H471	H47	0.090000	0.313700	0.017500
H481	H48	0.121300	0.197100	0.048000
H491	H49	0.746800	0.508500	0.814900
H501	H50	0.784400	0.624100	0.775900
H511	H51	0.143000	0.672000	0.858400
H521	H52	0.113700	0.559300	0.898800
C11	C1	0.275800	0.354900	0.364800
C21	C2	0.231900	0.449600	0.433900
C31	C3	0.122900	0.394900	0.379200
C41	C4	0.265100	0.525500	0.499100
C51	C5	0.989000	0.390000	0.358100
C61	C6	0.727700	0.153200	0.128700
C71	C7	0.877900	0.107300	0.117500
C81	C8	0.769300	0.053000	0.063600
C91	C9	0.011800	0.112400	0.141000
C101	C10	0.733700	0.971400	0.004200
C111	C11	0.506300	0.437300	0.628500
C121	C12	0.506400	0.381000	0.666900
C131	C13	0.477200	0.294500	0.630700
C141	C14	0.445900	0.268000	0.559900
C151	C15	0.449400	0.328700	0.526600
C161	C16	0.480800	0.232700	0.669700
C171	C17	0.491400	0.154300	0.748800
C181	C18	0.500100	0.120000	0.807800
C191	C19	0.509300	0.170500	0.873100
C201	C20	0.517100	0.135800	0.927300
C211	C21	0.505900	0.008000	0.854500
C221	C22	0.498900	0.037400	0.798000
C231	C23	0.064000	0.143900	0.345900
C241	C24	0.052800	0.076300	0.371000
C251	C25	0.937700	0.022000	0.355900
C261	C26	0.840100	0.042200	0.320200
C271	C27	0.859400	0.110900	0.297200
C281	C28	0.914700	0.942300	0.374200
C291	C29	0.914200	0.821700	0.410300
C301	C30	0.933700	0.751700	0.437700
C311	C31	0.039700	0.761200	0.491800
C321	C32	0.053100	0.691300	0.511400
C331	C33	0.864300	0.605300	0.427800
C341	C34	0.844100	0.673300	0.406400
C351	C35	0.139000	0.899100	0.075400
C361	C36	0.162000	0.833000	0.096800
C371	C37	0.077300	0.752300	0.062700
C381	C38	0.971000	0.741600	0.007900
C391	C39	0.953200	0.811300	0.989700
C401	C40	0.101000	0.682200	0.089000
C411	C41	0.097800	0.561500	0.124500
C421	C42	0.073500	0.483000	0.144000
C431	C43	0.169800	0.460000	0.177500
C441	C44	0.146600	0.390700	0.200400
C451	C45	0.940200	0.363300	0.152900
C461	C46	0.956900	0.430500	0.128800
C471	C47	0.724200	0.645100	0.635200
C481	C48	0.768100	0.550400	0.566100
C491	C49	0.877100	0.605100	0.620800
C501	C50	0.734900	0.474500	0.500900
C511	C51	0.011000	0.610000	0.641900
C521	C52	0.272300	0.846800	0.871300
C531	C53	0.122100	0.892700	0.882500
C541	C54	0.230700	0.947000	0.936400
C551	C55	0.988200	0.887600	0.859000
C561	C56	0.266300	0.028600	0.995800
C571	C57	0.493700	0.562700	0.371500
C581	C58	0.493600	0.619000	0.333100
C591	C59	0.522800	0.705500	0.369300
C601	C60	0.554100	0.732000	0.440100
C611	C61	0.550600	0.671300	0.473400
C621	C62	0.519200	0.767300	0.330300
C631	C63	0.508600	0.845700	0.251200
C641	C64	0.499900	0.880000	0.192200
C651	C65	0.490700	0.829500	0.126900
C661	C66	0.482900	0.864200	0.072700
C671	C67	0.494100	0.992000	0.145500
C681	C68	0.501100	0.962600	0.202000
C691	C69	0.936000	0.856100	0.654100
C701	C70	0.947200	0.923700	0.629000
C711	C71	0.062300	0.978000	0.644100
C721	C72	0.159900	0.957800	0.679800
C731	C73	0.140600	0.889100	0.702800
C741	C74	0.085300	0.057700	0.625800
C751	C75	0.085800	0.178300	0.589700
C761	C76	0.066300	0.248300	0.562300
C771	C77	0.960300	0.238800	0.508200
C781	C78	0.946900	0.308700	0.488600
C791	C79	0.135700	0.394700	0.572200
C801	C80	0.155900	0.326700	0.593600
C811	C81	0.861000	0.100900	0.924600
C821	C82	0.838000	0.167000	0.903200
C831	C83	0.922700	0.247700	0.937300
C841	C84	0.029000	0.258400	0.992100
C851	C85	0.046800	0.188700	0.010300
C861	C86	0.899000	0.317800	0.911000
C871	C87	0.902200	0.438500	0.875500
C881	C88	0.926500	0.517000	0.856000
C891	C89	0.830200	0.540000	0.822500
C901	C90	0.853400	0.609300	0.799600
C911	C91	0.059800	0.636700	0.847100
C921	C92	0.043100	0.569500	0.871200
S11	S1	0.495300	0.256840	0.756210
S21	S2	0.025900	0.915090	0.427630
S31	S3	0.983800	0.590220	0.073380
S41	S4	0.504700	0.743160	0.243790
S51	S5	0.974100	0.084910	0.572370
S61	S6	0.016200	0.409780	0.926620
N11	N1	0.328300	0.423200	0.423600
N21	N2	0.152600	0.334600	0.336100
N31	N3	0.849800	0.171300	0.159500
N41	N4	0.673000	0.082900	0.070700
N51	N5	0.481200	0.411500	0.559500
N61	N6	0.472600	0.153400	0.639400
N71	N7	0.478900	0.108100	0.684900
N81	N8	0.511300	0.054300	0.917300
N91	N9	0.970400	0.159800	0.306600
N101	N10	0.808500	0.884000	0.347400
N111	N11	0.807500	0.815900	0.369500
N121	N12	0.968600	0.613700	0.479300
N131	N13	0.033100	0.344300	0.191100
N141	N14	0.206300	0.615800	0.147000
N151	N15	0.208600	0.685800	0.126000
N161	N16	0.035700	0.889600	0.022600
N171	N17	0.671700	0.576800	0.576400
N181	N18	0.847400	0.665400	0.663900
N191	N19	0.150200	0.828700	0.840500
N201	N20	0.327000	0.917100	0.929300
N211	N21	0.518800	0.588500	0.440500
N221	N22	0.527400	0.846600	0.360600
N231	N23	0.521100	0.891900	0.315100
N241	N24	0.488700	0.945700	0.082700
N251	N25	0.029600	0.840200	0.693400
N261	N26	0.191500	0.116000	0.652600
N271	N27	0.192500	0.184100	0.630500
N281	N28	0.031400	0.386300	0.520700
N291	N29	0.966900	0.655700	0.808900
N301	N30	0.793700	0.384200	0.853000
N311	N31	0.791400	0.314200	0.874000
N321	N32	0.964300	0.110400	0.977400
O11	O1	0.380200	0.558500	0.536500
O21	O2	0.185100	0.554000	0.514700
O31	O3	0.950400	0.441200	0.392200
O41	O4	0.915600	0.329100	0.300200
O51	O5	0.084300	0.174300	0.197400
O61	O6	0.048700	0.059600	0.107400
O71	O7	0.814400	0.944000	0.987300
O81	O8	0.618200	0.932900	0.972600
O91	O9	0.619800	0.441500	0.463500
O101	O10	0.814900	0.446000	0.485300
O111	O11	0.049600	0.558800	0.607800
O121	O12	0.084400	0.670900	0.699800
O131	O13	0.915700	0.825700	0.802600
O141	O14	0.951300	0.940400	0.892600
O151	O15	0.185600	0.056000	0.012700
O161	O16	0.381800	0.067100	0.027400
