data_REJLAU_freeONLY_PM
_symmetry_space_group_name_H-M	'P1'
_cell_length_a	42.347000
_cell_length_b	8.569000
_cell_length_c	14.490000
_cell_angle_alpha	90.000000
_cell_angle_beta	108.758000
_cell_angle_gamma	90.000000
_symmetry_Int_Tables_number 1

loop_
_symmetry_equiv_pos_as_xyz
'x,y,z'

loop_
_atom_site_label
_atom_site_type_symbol
_atom_site_fract_x
_atom_site_fract_y
_atom_site_fract_z
C11	C1	0.195260	0.243300	0.597300
C21	C2	0.163190	0.161400	0.570300
H11	H1	0.161000	0.096000	0.514800
H21	H2	0.145400	0.236300	0.554400
H31	H3	0.162100	0.098300	0.624000
C31	C3	0.236360	0.396200	0.676000
C41	C4	0.256730	0.506100	0.750400
H41	H4	0.244700	0.535000	0.793800
H51	H5	0.277300	0.456800	0.786800
H61	H6	0.261300	0.597800	0.718900
C51	C5	0.160310	0.889100	0.335500
C61	C6	0.072310	0.533500	0.169000
C71	C7	0.988760	0.193700	0.963300
C81	C8	0.898620	0.863800	0.780600
C91	C9	0.821810	0.727500	0.889400
C101	C10	0.840350	0.597100	0.633500
N11	N1	0.205900	0.344500	0.673000
N21	N2	0.218260	0.233100	0.555000
N31	N3	0.187680	0.384400	0.734800
H71	H7	0.195800	0.449400	0.781700
H81	H8	0.168300	0.344000	0.725900
N41	N4	0.244600	0.331400	0.605200
C111	C11	0.179980	0.982900	0.369200
C121	C12	0.094350	0.612400	0.208500
C131	C13	0.006920	0.275100	0.018000
C141	C14	0.922440	0.936200	0.815100
C151	C15	0.832460	0.753000	0.827600
C161	C16	0.829290	0.493700	0.583700
C171	C17	0.762820	0.728200	0.000100
Cu11	Cu1	0.214580	0.122830	0.430990
Cu21	Cu2	0.130440	0.736380	0.271900
Cu31	Cu3	0.038060	0.403460	0.101730
Cu41	Cu4	0.958500	0.061480	0.879170
Cu51	Cu5	0.856690	0.755160	0.730850
Cu61	Cu6	0.805210	0.667640	0.991460
N51	N5	0.339690	0.610900	0.664500
N61	N6	0.427690	0.966500	0.831000
N71	N7	0.601380	0.636200	0.219400
N81	N8	0.678190	0.772500	0.110600
N91	N9	0.493080	0.224900	0.982000
N101	N10	0.829290	0.506300	0.083700
C181	C18	0.304740	0.743300	0.902700
C191	C19	0.336810	0.661400	0.929700
H91	H9	0.339000	0.596000	0.985200
H101	H10	0.354600	0.736300	0.945600
H111	H11	0.337900	0.598300	0.876000
C201	C20	0.263640	0.896200	0.824000
C211	C21	0.243270	0.006100	0.749600
H121	H12	0.255300	0.035000	0.706200
H131	H13	0.222700	0.956800	0.713200
H141	H14	0.238700	0.097800	0.781100
C221	C22	0.339690	0.389100	0.164500
C231	C23	0.427690	0.033500	0.331000
C241	C24	0.511240	0.693700	0.536700
C251	C25	0.601380	0.363800	0.719400
C261	C26	0.678190	0.227500	0.610600
C271	C27	0.659650	0.097100	0.866500
N111	N11	0.294100	0.844500	0.827000
N121	N12	0.281740	0.733100	0.945000
N131	N13	0.312320	0.884400	0.765200
H151	H15	0.304200	0.949400	0.718300
H161	H16	0.331700	0.844000	0.774100
N141	N14	0.255400	0.831400	0.894800
C281	C28	0.320020	0.482900	0.130800
C291	C29	0.405650	0.112400	0.291500
C301	C30	0.493080	0.775100	0.482000
C311	C31	0.577560	0.436200	0.684900
C321	C32	0.667540	0.253000	0.672400
C331	C33	0.670710	0.993700	0.916300
C341	C34	0.737180	0.228200	0.499900
Cu71	Cu7	0.285420	0.622830	0.069010
Cu81	Cu8	0.369560	0.236380	0.228100
Cu91	Cu9	0.461940	0.903460	0.398270
Cu101	Cu10	0.541500	0.561480	0.620830
Cu111	Cu11	0.643310	0.255160	0.769150
Cu121	Cu12	0.694790	0.167640	0.508540
N151	N15	0.160310	0.110900	0.835500
N161	N16	0.072310	0.466500	0.669000
N171	N17	0.898620	0.136200	0.280600
N181	N18	0.821810	0.272500	0.389400
N191	N19	0.006920	0.724900	0.518000
N201	N20	0.670710	0.006300	0.416300
C351	C35	0.304740	0.256700	0.402700
C361	C36	0.336810	0.338600	0.429700
H171	H17	0.339000	0.404000	0.485200
H181	H18	0.354600	0.263700	0.445600
H191	H19	0.337900	0.401700	0.376000
C371	C37	0.263640	0.103800	0.324000
C381	C38	0.243270	0.993900	0.249600
H201	H20	0.255300	0.965000	0.206200
H211	H21	0.222700	0.043200	0.213200
H221	H22	0.238700	0.902200	0.281100
C391	C39	0.511240	0.306300	0.036700
C401	C40	0.659650	0.902900	0.366500
N211	N21	0.294100	0.155500	0.327000
N221	N22	0.281740	0.266900	0.445000
N231	N23	0.312320	0.115600	0.265200
H231	H23	0.304200	0.050600	0.218300
H241	H24	0.331700	0.156000	0.274100
N241	N24	0.255400	0.168600	0.394800
C411	C41	0.320020	0.517100	0.630800
C421	C42	0.405650	0.887600	0.791500
C431	C43	0.577560	0.563800	0.184900
C441	C44	0.667540	0.747000	0.172400
C451	C45	0.737180	0.771800	0.999900
Cu131	Cu13	0.285420	0.377170	0.569010
Cu141	Cu14	0.369560	0.763620	0.728100
Cu151	Cu15	0.461940	0.096540	0.898270
Cu161	Cu16	0.541500	0.438520	0.120830
Cu171	Cu17	0.643310	0.744840	0.269150
Cu181	Cu18	0.694790	0.832360	0.008540
C461	C46	0.195260	0.756700	0.097300
C471	C47	0.163190	0.838600	0.070300
H251	H25	0.161000	0.904000	0.014800
H261	H26	0.145400	0.763700	0.054400
H271	H27	0.162100	0.901700	0.124000
C481	C48	0.236360	0.603800	0.176000
C491	C49	0.256730	0.493900	0.250400
H281	H28	0.244700	0.465000	0.293800
H291	H29	0.277300	0.543200	0.286800
H301	H30	0.261300	0.402200	0.218900
C501	C50	0.988760	0.806300	0.463300
C511	C51	0.840350	0.402900	0.133500
N251	N25	0.205900	0.655500	0.173000
N261	N26	0.218260	0.766900	0.055000
N271	N27	0.187680	0.615600	0.234800
H311	H31	0.195800	0.550600	0.281700
H321	H32	0.168300	0.656000	0.225900
N281	N28	0.244600	0.668600	0.105200
C521	C52	0.179980	0.017100	0.869200
C531	C53	0.094350	0.387600	0.708500
C541	C54	0.922440	0.063800	0.315100
C551	C55	0.832460	0.247000	0.327600
C561	C56	0.762820	0.271800	0.500100
Cu191	Cu19	0.214580	0.877170	0.930990
Cu201	Cu20	0.130440	0.263620	0.771900
Cu211	Cu21	0.038060	0.596540	0.601730
Cu221	Cu22	0.958500	0.938520	0.379170
Cu231	Cu23	0.856690	0.244840	0.230850
Cu241	Cu24	0.805210	0.332360	0.491460
C571	C57	0.695260	0.743300	0.597300
C581	C58	0.663190	0.661400	0.570300
H331	H33	0.661000	0.596000	0.514800
H341	H34	0.645400	0.736300	0.554400
H351	H35	0.662100	0.598300	0.624000
C591	C59	0.736360	0.896200	0.676000
C601	C60	0.756730	0.006100	0.750400
H361	H36	0.744700	0.035000	0.793800
H371	H37	0.777300	0.956800	0.786800
H381	H38	0.761300	0.097800	0.718900
C611	C61	0.660310	0.389100	0.335500
C621	C62	0.572310	0.033500	0.169000
C631	C63	0.488760	0.693700	0.963300
C641	C64	0.398620	0.363800	0.780600
C651	C65	0.321810	0.227500	0.889400
C661	C66	0.340350	0.097100	0.633500
N291	N29	0.705900	0.844500	0.673000
N301	N30	0.718260	0.733100	0.555000
N311	N31	0.687680	0.884400	0.734800
H391	H39	0.695800	0.949400	0.781700
H401	H40	0.668300	0.844000	0.725900
N321	N32	0.744600	0.831400	0.605200
C671	C67	0.679980	0.482900	0.369200
C681	C68	0.594350	0.112400	0.208500
C691	C69	0.506920	0.775100	0.018000
C701	C70	0.422440	0.436200	0.815100
C711	C71	0.332460	0.253000	0.827600
C721	C72	0.329290	0.993700	0.583700
C731	C73	0.262820	0.228200	0.000100
Cu251	Cu25	0.714580	0.622830	0.430990
Cu261	Cu26	0.630440	0.236380	0.271900
Cu271	Cu27	0.538070	0.903460	0.101730
Cu281	Cu28	0.458500	0.561480	0.879170
Cu291	Cu29	0.356690	0.255160	0.730850
Cu301	Cu30	0.305210	0.167640	0.991460
N331	N33	0.839690	0.110900	0.664500
N341	N34	0.927690	0.466500	0.831000
N351	N35	0.101380	0.136200	0.219400
N361	N36	0.178190	0.272500	0.110600
N371	N37	0.993080	0.724900	0.982000
N381	N38	0.329290	0.006300	0.083700
C741	C74	0.804740	0.243300	0.902700
C751	C75	0.836810	0.161400	0.929700
H411	H41	0.839000	0.096000	0.985200
H421	H42	0.854600	0.236300	0.945600
H431	H43	0.837900	0.098300	0.876000
C761	C76	0.763640	0.396200	0.824000
C771	C77	0.743270	0.506100	0.749600
H441	H44	0.755300	0.535000	0.706200
H451	H45	0.722700	0.456800	0.713200
H461	H46	0.738700	0.597800	0.781100
C781	C78	0.839690	0.889100	0.164500
C791	C79	0.927690	0.533500	0.331000
C801	C80	0.011240	0.193700	0.536700
C811	C81	0.101380	0.863800	0.719400
C821	C82	0.178190	0.727500	0.610600
C831	C83	0.159650	0.597100	0.866500
N391	N39	0.794100	0.344500	0.827000
N401	N40	0.781740	0.233100	0.945000
N411	N41	0.812320	0.384400	0.765200
H471	H47	0.804200	0.449400	0.718300
H481	H48	0.831700	0.344000	0.774100
N421	N42	0.755400	0.331400	0.894800
C841	C84	0.820020	0.982900	0.130800
C851	C85	0.905650	0.612400	0.291500
C861	C86	0.993080	0.275100	0.482000
C871	C87	0.077560	0.936200	0.684900
C881	C88	0.167540	0.753000	0.672400
C891	C89	0.170710	0.493700	0.916300
C901	C90	0.237180	0.728200	0.499900
Cu311	Cu31	0.785420	0.122830	0.069010
Cu321	Cu32	0.869560	0.736380	0.228100
Cu331	Cu33	0.961940	0.403460	0.398270
Cu341	Cu34	0.041500	0.061480	0.620830
Cu351	Cu35	0.143310	0.755160	0.769150
Cu361	Cu36	0.194790	0.667640	0.508540
N431	N43	0.660310	0.610900	0.835500
N441	N44	0.572310	0.966500	0.669000
N451	N45	0.398620	0.636200	0.280600
N461	N46	0.321810	0.772500	0.389400
N471	N47	0.506920	0.224900	0.518000
N481	N48	0.170710	0.506300	0.416300
C911	C91	0.804740	0.756700	0.402700
C921	C92	0.836810	0.838600	0.429700
H491	H49	0.839000	0.904000	0.485200
H501	H50	0.854600	0.763700	0.445600
H511	H51	0.837900	0.901700	0.376000
C931	C93	0.763640	0.603800	0.324000
C941	C94	0.743270	0.493900	0.249600
H521	H52	0.755300	0.465000	0.206200
H531	H53	0.722700	0.543200	0.213200
H541	H54	0.738700	0.402200	0.281100
C951	C95	0.011240	0.806300	0.036700
C961	C96	0.159650	0.402900	0.366500
N491	N49	0.794100	0.655500	0.327000
N501	N50	0.781740	0.766900	0.445000
N511	N51	0.812320	0.615600	0.265200
H551	H55	0.804200	0.550600	0.218300
H561	H56	0.831700	0.656000	0.274100
N521	N52	0.755400	0.668600	0.394800
C971	C97	0.820020	0.017100	0.630800
C981	C98	0.905650	0.387600	0.791500
C991	C99	0.077560	0.063800	0.184900
C1001	C100	0.167540	0.247000	0.172400
C1011	C101	0.237180	0.271800	0.999900
Cu371	Cu37	0.785420	0.877170	0.569010
Cu381	Cu38	0.869560	0.263620	0.728100
Cu391	Cu39	0.961940	0.596540	0.898270
Cu401	Cu40	0.041500	0.938520	0.120830
Cu411	Cu41	0.143310	0.244840	0.269150
Cu421	Cu42	0.194790	0.332360	0.008540
C1021	C102	0.695260	0.256700	0.097300
C1031	C103	0.663190	0.338600	0.070300
H571	H57	0.661000	0.404000	0.014800
H581	H58	0.645400	0.263700	0.054400
H591	H59	0.662100	0.401700	0.124000
C1041	C104	0.736360	0.103800	0.176000
C1051	C105	0.756730	0.993900	0.250400
H601	H60	0.744700	0.965000	0.293800
H611	H61	0.777300	0.043200	0.286800
H621	H62	0.761300	0.902200	0.218900
C1061	C106	0.488760	0.306300	0.463300
C1071	C107	0.340350	0.902900	0.133500
N531	N53	0.705900	0.155500	0.173000
N541	N54	0.718260	0.266900	0.055000
N551	N55	0.687680	0.115600	0.234800
H631	H63	0.695800	0.050600	0.281700
H641	H64	0.668300	0.156000	0.225900
N561	N56	0.744600	0.168600	0.105200
C1081	C108	0.679980	0.517100	0.869200
C1091	C109	0.594350	0.887600	0.708500
C1101	C110	0.422440	0.563800	0.315100
C1111	C111	0.332460	0.747000	0.327600
C1121	C112	0.262820	0.771800	0.500100
Cu431	Cu43	0.714580	0.377170	0.930990
Cu441	Cu44	0.630440	0.763620	0.771900
Cu451	Cu45	0.538070	0.096540	0.601730
Cu461	Cu46	0.458500	0.438520	0.379170
Cu471	Cu47	0.356690	0.744840	0.230850
Cu481	Cu48	0.305210	0.832360	0.491460
