data_RESSAK_freeONLY_PM
_symmetry_space_group_name_H-M	'P1'
_cell_length_a	8.252960
_cell_length_b	11.259000
_cell_length_c	13.221400
_cell_angle_alpha	107.210000
_cell_angle_beta	108.186000
_cell_angle_gamma	90.000000
_symmetry_Int_Tables_number 1

loop_
_symmetry_equiv_pos_as_xyz
'x,y,z'

loop_
_atom_site_label
_atom_site_type_symbol
_atom_site_fract_x
_atom_site_fract_y
_atom_site_fract_z
Ni11	Ni1	0.236030	0.929940	0.372440
Ni21	Ni2	0.863590	0.070060	0.627560
H11	H1	0.737600	0.208200	0.070600
H21	H2	0.662800	0.293100	0.226000
H31	H3	0.711900	0.198100	0.363800
H41	H4	0.227400	0.193200	0.528800
H51	H5	0.220300	0.394300	0.527200
H61	H6	0.268800	0.282200	0.220800
H71	H7	0.280700	0.082400	0.232200
H81	H8	0.357500	0.687500	0.265400
H91	H9	0.374600	0.482200	0.270400
H101	H10	0.080100	0.549000	0.464400
H111	H11	0.073400	0.750300	0.455400
H121	H12	0.503300	0.985700	0.342400
H131	H13	0.454000	0.862400	0.282600
H141	H14	0.667000	0.791800	0.929400
H151	H15	0.436800	0.706900	0.774000
H161	H16	0.348100	0.801900	0.636200
H171	H17	0.698600	0.806800	0.471200
H181	H18	0.693100	0.605700	0.472800
H191	H19	0.048000	0.717800	0.779200
H201	H20	0.048500	0.917600	0.767800
H211	H21	0.092100	0.312500	0.734600
H221	H22	0.104200	0.517800	0.729600
H231	H23	0.615700	0.451000	0.535600
H241	H24	0.618000	0.249700	0.544600
H251	H25	0.160900	0.014300	0.657600
H261	H26	0.171400	0.137600	0.717400
C11	C1	0.835970	0.060400	0.296540
C21	C2	0.876330	0.001000	0.198260
C31	C3	0.842500	0.059900	0.114600
C41	C4	0.761000	0.169900	0.126400
C51	C5	0.716600	0.219900	0.218600
C61	C6	0.749300	0.164400	0.302800
C71	C7	0.883390	0.007800	0.393380
C81	C8	0.948400	0.875000	0.176800
C91	C9	0.236800	0.211800	0.466600
C101	C10	0.230200	0.332100	0.465600
C111	C11	0.238010	0.362500	0.372420
C121	C12	0.259700	0.265900	0.284000
C131	C13	0.267500	0.146300	0.291600
C141	C14	0.301900	0.660200	0.307000
C151	C15	0.311000	0.535000	0.308000
C161	C16	0.221700	0.492700	0.367000
C171	C17	0.137600	0.573900	0.422600
C181	C18	0.135600	0.695900	0.417800
C191	C19	0.539430	0.939600	0.703460
C201	C20	0.678070	0.999000	0.801740
C211	C21	0.727900	0.940100	0.885400
C221	C22	0.634600	0.830100	0.873600
C231	C23	0.498000	0.780100	0.781400
C241	C24	0.446500	0.835600	0.697200
C251	C25	0.490010	0.992200	0.606620
C261	C26	0.771600	0.125000	0.823200
C271	C27	0.770200	0.788200	0.533400
C281	C28	0.764600	0.667900	0.534400
C291	C29	0.865590	0.637500	0.627580
C301	C30	0.975700	0.734100	0.716000
C311	C31	0.975900	0.853700	0.708400
C321	C32	0.994900	0.339800	0.693000
C331	C33	0.003000	0.465000	0.692000
C341	C34	0.854700	0.507300	0.633000
C351	C35	0.715000	0.426100	0.577400
C361	C36	0.717800	0.304100	0.582200
S11	S1	0.919900	0.000000	0.000000
N11	N1	0.256620	0.118600	0.381440
N21	N2	0.220280	0.738400	0.361160
N31	N3	0.875180	0.881400	0.618560
N41	N4	0.859120	0.261600	0.638840
O11	O1	0.007790	0.946400	0.408380
O21	O2	0.798070	0.037700	0.457540
O31	O3	0.106590	0.871500	0.201780
O41	O4	0.838970	0.782700	0.131340
O51	O5	0.466520	0.915500	0.343040
O61	O6	0.599410	0.053600	0.591620
O71	O7	0.340530	0.962300	0.542460
O81	O8	0.904810	0.128500	0.798220
O91	O9	0.707630	0.217300	0.868660
O101	O10	0.123480	0.084500	0.656960
