data_RETBEZ_freeONLY_PM
_symmetry_space_group_name_H-M	'P1'
_cell_length_a	11.253000
_cell_length_b	25.161000
_cell_length_c	18.172000
_cell_angle_alpha	90.000000
_cell_angle_beta	90.000000
_cell_angle_gamma	90.000000
_symmetry_Int_Tables_number 1

loop_
_symmetry_equiv_pos_as_xyz
'x,y,z'

loop_
_atom_site_label
_atom_site_type_symbol
_atom_site_fract_x
_atom_site_fract_y
_atom_site_fract_z
Zn11	Zn1	0.620270	0.025370	0.926410
Zn21	Zn2	0.379730	0.474630	0.926410
Zn31	Zn3	0.620270	0.974630	0.573590
Zn41	Zn4	0.379730	0.525370	0.573590
Zn51	Zn5	0.379730	0.974630	0.073590
Zn61	Zn6	0.620270	0.525370	0.073590
Zn71	Zn7	0.379730	0.025370	0.426410
Zn81	Zn8	0.620270	0.474630	0.426410
Zn91	Zn9	0.000000	0.750000	0.709850
Zn101	Zn10	0.000000	0.250000	0.790150
Zn111	Zn11	0.000000	0.250000	0.290150
Zn121	Zn12	0.000000	0.750000	0.209850
H11	H1	0.510100	0.948700	0.792800
H21	H2	0.295100	0.848000	0.687100
H31	H3	0.274800	0.860800	0.906000
H41	H4	0.735500	0.921900	0.985100
H51	H5	0.873100	0.857000	0.017100
H61	H6	0.072700	0.867500	0.988900
H71	H7	0.140600	0.941100	0.928000
H81	H8	0.952600	0.140200	0.869400
H91	H9	0.734500	0.049200	0.750200
H101	H10	0.709200	0.119800	0.671100
H111	H11	0.810300	0.197500	0.691400
H121	H12	0.163500	0.024300	0.865500
H131	H13	0.101500	0.078800	0.849000
H141	H14	0.035600	0.045800	0.734700
H151	H15	0.174600	0.045100	0.739200
H161	H16	0.059000	0.767800	0.579900
H171	H17	0.489900	0.551300	0.792800
H181	H18	0.704900	0.652000	0.687100
H191	H19	0.725200	0.639200	0.906000
H201	H20	0.264500	0.578100	0.985100
H211	H21	0.126900	0.643000	0.017100
H221	H22	0.927300	0.632500	0.988900
H231	H23	0.859400	0.558900	0.928000
H241	H24	0.047400	0.359800	0.869400
H251	H25	0.265500	0.450800	0.750200
H261	H26	0.290800	0.380200	0.671100
H271	H27	0.189700	0.302500	0.691400
H281	H28	0.836500	0.475700	0.865500
H291	H29	0.898500	0.421200	0.849000
H301	H30	0.964400	0.454200	0.734700
H311	H31	0.825400	0.454900	0.739200
H321	H32	0.941000	0.732200	0.579900
H331	H33	0.510100	0.051300	0.707200
H341	H34	0.295100	0.152000	0.812900
H351	H35	0.274800	0.139200	0.594000
H361	H36	0.735500	0.078100	0.514900
H371	H37	0.873100	0.143000	0.482900
H381	H38	0.072700	0.132500	0.511100
H391	H39	0.140600	0.058900	0.572000
H401	H40	0.952600	0.859800	0.630600
H411	H41	0.734500	0.950800	0.749800
H421	H42	0.709200	0.880200	0.828900
H431	H43	0.810300	0.802500	0.808600
H441	H44	0.163500	0.975700	0.634500
H451	H45	0.101500	0.921200	0.651000
H461	H46	0.035600	0.954200	0.765300
H471	H47	0.174600	0.954900	0.760800
H481	H48	0.059000	0.232200	0.920100
H491	H49	0.489900	0.448700	0.707200
H501	H50	0.704900	0.348000	0.812900
H511	H51	0.725200	0.360800	0.594000
H521	H52	0.264500	0.421900	0.514900
H531	H53	0.126900	0.357000	0.482900
H541	H54	0.927300	0.367500	0.511100
H551	H55	0.859400	0.441100	0.572000
H561	H56	0.047400	0.640200	0.630600
H571	H57	0.265500	0.549200	0.749800
H581	H58	0.290800	0.619800	0.828900
H591	H59	0.189700	0.697500	0.808600
H601	H60	0.836500	0.524300	0.634500
H611	H61	0.898500	0.578800	0.651000
H621	H62	0.964400	0.545800	0.765300
H631	H63	0.825400	0.545100	0.760800
H641	H64	0.941000	0.267800	0.920100
H651	H65	0.489900	0.051300	0.207200
H661	H66	0.704900	0.152000	0.312900
H671	H67	0.725200	0.139200	0.094000
H681	H68	0.264500	0.078100	0.014900
H691	H69	0.126900	0.143000	0.982900
H701	H70	0.927300	0.132500	0.011100
H711	H71	0.859400	0.058900	0.072000
H721	H72	0.047400	0.859800	0.130600
H731	H73	0.265500	0.950800	0.249800
H741	H74	0.290800	0.880200	0.328900
H751	H75	0.189700	0.802500	0.308600
H761	H76	0.836500	0.975700	0.134500
H771	H77	0.898500	0.921200	0.151000
H781	H78	0.964400	0.954200	0.265300
H791	H79	0.825400	0.954900	0.260800
H801	H80	0.941000	0.232200	0.420100
H811	H81	0.510100	0.448700	0.207200
H821	H82	0.295100	0.348000	0.312900
H831	H83	0.274800	0.360800	0.094000
H841	H84	0.735500	0.421900	0.014900
H851	H85	0.873100	0.357000	0.982900
H861	H86	0.072700	0.367500	0.011100
H871	H87	0.140600	0.441100	0.072000
H881	H88	0.952600	0.640200	0.130600
H891	H89	0.734500	0.549200	0.249800
H901	H90	0.709200	0.619800	0.328900
H911	H91	0.810300	0.697500	0.308600
H921	H92	0.163500	0.524300	0.134500
H931	H93	0.101500	0.578800	0.151000
H941	H94	0.035600	0.545800	0.265300
H951	H95	0.174600	0.545100	0.260800
H961	H96	0.059000	0.267800	0.420100
H971	H97	0.489900	0.948700	0.292800
H981	H98	0.704900	0.848000	0.187100
H991	H99	0.725200	0.860800	0.406000
H1001	H100	0.264500	0.921900	0.485100
H1011	H101	0.126900	0.857000	0.517100
H1021	H102	0.927300	0.867500	0.488900
H1031	H103	0.859400	0.941100	0.428000
H1041	H104	0.047400	0.140200	0.369400
H1051	H105	0.265500	0.049200	0.250200
H1061	H106	0.290800	0.119800	0.171100
H1071	H107	0.189700	0.197500	0.191400
H1081	H108	0.836500	0.024300	0.365500
H1091	H109	0.898500	0.078800	0.349000
H1101	H110	0.964400	0.045800	0.234700
H1111	H111	0.825400	0.045100	0.239200
H1121	H112	0.941000	0.767800	0.079900
H1131	H113	0.510100	0.551300	0.292800
H1141	H114	0.295100	0.652000	0.187100
H1151	H115	0.274800	0.639200	0.406000
H1161	H116	0.735500	0.578100	0.485100
H1171	H117	0.873100	0.643000	0.517100
H1181	H118	0.072700	0.632500	0.488900
H1191	H119	0.140600	0.558900	0.428000
H1201	H120	0.952600	0.359800	0.369400
H1211	H121	0.734500	0.450800	0.250200
H1221	H122	0.709200	0.380200	0.171100
H1231	H123	0.810300	0.302500	0.191400
H1241	H124	0.163500	0.475700	0.365500
H1251	H125	0.101500	0.421200	0.349000
H1261	H126	0.035600	0.454200	0.234700
H1271	H127	0.174600	0.454900	0.239200
H1281	H128	0.059000	0.732200	0.079900
C11	C1	0.436400	0.936400	0.929200
C21	C2	0.397700	0.908900	0.860700
C31	C3	0.449400	0.923600	0.793700
C41	C4	0.410600	0.901100	0.729400
C51	C5	0.321400	0.863100	0.730900
C61	C6	0.271200	0.847300	0.796900
C71	C7	0.309100	0.870700	0.861500
C81	C8	0.172700	0.806700	0.796300
C91	C9	0.463800	0.918000	0.657700
C101	C10	0.855800	0.968700	0.932300
C111	C11	0.815100	0.925300	0.972200
C121	C12	0.897800	0.887200	0.992000
C131	C13	0.019100	0.893700	0.974600
C141	C14	0.060100	0.936800	0.937800
C151	C15	0.976100	0.974400	0.915000
C161	C16	0.874100	0.040810	0.866600
C171	C17	0.849200	0.087100	0.819100
C181	C18	0.903700	0.135500	0.828700
C191	C19	0.773900	0.081100	0.758400
C201	C20	0.759400	0.122800	0.711500
C211	C21	0.819500	0.169600	0.724500
C221	C22	0.096200	0.040700	0.841200
C231	C23	0.102800	0.029200	0.758900
C241	C24	0.563600	0.563600	0.929200
C251	C25	0.602300	0.591100	0.860700
C261	C26	0.550600	0.576400	0.793700
C271	C27	0.589400	0.598900	0.729400
C281	C28	0.678600	0.636900	0.730900
C291	C29	0.728800	0.652700	0.796900
C301	C30	0.690900	0.629300	0.861500
C311	C31	0.827300	0.693300	0.796300
C321	C32	0.536200	0.582000	0.657700
C331	C33	0.144200	0.531300	0.932300
C341	C34	0.184900	0.574700	0.972200
C351	C35	0.102200	0.612800	0.992000
C361	C36	0.980900	0.606300	0.974600
C371	C37	0.939900	0.563200	0.937800
C381	C38	0.023900	0.525600	0.915000
C391	C39	0.125900	0.459190	0.866600
C401	C40	0.150800	0.412900	0.819100
C411	C41	0.096300	0.364500	0.828700
C421	C42	0.226100	0.418900	0.758400
C431	C43	0.240600	0.377200	0.711500
C441	C44	0.180500	0.330400	0.724500
C451	C45	0.903800	0.459300	0.841200
C461	C46	0.897200	0.470800	0.758900
C471	C47	0.436400	0.063600	0.570800
C481	C48	0.397700	0.091100	0.639300
C491	C49	0.449400	0.076400	0.706300
C501	C50	0.410600	0.098900	0.770600
C511	C51	0.321400	0.136900	0.769100
C521	C52	0.271200	0.152700	0.703100
C531	C53	0.309100	0.129300	0.638500
C541	C54	0.172700	0.193300	0.703700
C551	C55	0.463800	0.082000	0.842300
C561	C56	0.855800	0.031300	0.567700
C571	C57	0.815100	0.074700	0.527800
C581	C58	0.897800	0.112800	0.508000
C591	C59	0.019100	0.106300	0.525400
C601	C60	0.060100	0.063200	0.562200
C611	C61	0.976100	0.025600	0.585000
C621	C62	0.874100	0.959190	0.633400
C631	C63	0.849200	0.912900	0.680900
C641	C64	0.903700	0.864500	0.671300
C651	C65	0.773900	0.918900	0.741600
C661	C66	0.759400	0.877200	0.788500
C671	C67	0.819500	0.830400	0.775500
C681	C68	0.096200	0.959300	0.658800
C691	C69	0.102800	0.970800	0.741100
C701	C70	0.563600	0.436400	0.570800
C711	C71	0.602300	0.408900	0.639300
C721	C72	0.550600	0.423600	0.706300
C731	C73	0.589400	0.401100	0.770600
C741	C74	0.678600	0.363100	0.769100
C751	C75	0.728800	0.347300	0.703100
C761	C76	0.690900	0.370700	0.638500
C771	C77	0.827300	0.306700	0.703700
C781	C78	0.536200	0.418000	0.842300
C791	C79	0.144200	0.468700	0.567700
C801	C80	0.184900	0.425300	0.527800
C811	C81	0.102200	0.387200	0.508000
C821	C82	0.980900	0.393700	0.525400
C831	C83	0.939900	0.436800	0.562200
C841	C84	0.023900	0.474400	0.585000
C851	C85	0.125900	0.540810	0.633400
C861	C86	0.150800	0.587100	0.680900
C871	C87	0.096300	0.635500	0.671300
C881	C88	0.226100	0.581100	0.741600
C891	C89	0.240600	0.622800	0.788500
C901	C90	0.180500	0.669600	0.775500
C911	C91	0.903800	0.540700	0.658800
C921	C92	0.897200	0.529200	0.741100
C931	C93	0.563600	0.063600	0.070800
C941	C94	0.602300	0.091100	0.139300
C951	C95	0.550600	0.076400	0.206300
C961	C96	0.589400	0.098900	0.270600
C971	C97	0.678600	0.136900	0.269100
C981	C98	0.728800	0.152700	0.203100
C991	C99	0.690900	0.129300	0.138500
C1001	C100	0.827300	0.193300	0.203700
C1011	C101	0.536200	0.082000	0.342300
C1021	C102	0.144200	0.031300	0.067700
C1031	C103	0.184900	0.074700	0.027800
C1041	C104	0.102200	0.112800	0.008000
C1051	C105	0.980900	0.106300	0.025400
C1061	C106	0.939900	0.063200	0.062200
C1071	C107	0.023900	0.025600	0.085000
C1081	C108	0.125900	0.959190	0.133400
C1091	C109	0.150800	0.912900	0.180900
C1101	C110	0.096300	0.864500	0.171300
C1111	C111	0.226100	0.918900	0.241600
C1121	C112	0.240600	0.877200	0.288500
C1131	C113	0.180500	0.830400	0.275500
C1141	C114	0.903800	0.959300	0.158800
C1151	C115	0.897200	0.970800	0.241100
C1161	C116	0.436400	0.436400	0.070800
C1171	C117	0.397700	0.408900	0.139300
C1181	C118	0.449400	0.423600	0.206300
C1191	C119	0.410600	0.401100	0.270600
C1201	C120	0.321400	0.363100	0.269100
C1211	C121	0.271200	0.347300	0.203100
C1221	C122	0.309100	0.370700	0.138500
C1231	C123	0.172700	0.306700	0.203700
C1241	C124	0.463800	0.418000	0.342300
C1251	C125	0.855800	0.468700	0.067700
C1261	C126	0.815100	0.425300	0.027800
C1271	C127	0.897800	0.387200	0.008000
C1281	C128	0.019100	0.393700	0.025400
C1291	C129	0.060100	0.436800	0.062200
C1301	C130	0.976100	0.474400	0.085000
C1311	C131	0.874100	0.540810	0.133400
C1321	C132	0.849200	0.587100	0.180900
C1331	C133	0.903700	0.635500	0.171300
C1341	C134	0.773900	0.581100	0.241600
C1351	C135	0.759400	0.622800	0.288500
C1361	C136	0.819500	0.669600	0.275500
C1371	C137	0.096200	0.540700	0.158800
C1381	C138	0.102800	0.529200	0.241100
C1391	C139	0.563600	0.936400	0.429200
C1401	C140	0.602300	0.908900	0.360700
C1411	C141	0.550600	0.923600	0.293700
C1421	C142	0.589400	0.901100	0.229400
C1431	C143	0.678600	0.863100	0.230900
C1441	C144	0.728800	0.847300	0.296900
C1451	C145	0.690900	0.870700	0.361500
C1461	C146	0.827300	0.806700	0.296300
C1471	C147	0.536200	0.918000	0.157700
C1481	C148	0.144200	0.968700	0.432300
C1491	C149	0.184900	0.925300	0.472200
C1501	C150	0.102200	0.887200	0.492000
C1511	C151	0.980900	0.893700	0.474600
C1521	C152	0.939900	0.936800	0.437800
C1531	C153	0.023900	0.974400	0.415000
C1541	C154	0.125900	0.040810	0.366600
C1551	C155	0.150800	0.087100	0.319100
C1561	C156	0.096300	0.135500	0.328700
C1571	C157	0.226100	0.081100	0.258400
C1581	C158	0.240600	0.122800	0.211500
C1591	C159	0.180500	0.169600	0.224500
C1601	C160	0.903800	0.040700	0.341200
C1611	C161	0.897200	0.029200	0.258900
C1621	C162	0.436400	0.563600	0.429200
C1631	C163	0.397700	0.591100	0.360700
C1641	C164	0.449400	0.576400	0.293700
C1651	C165	0.410600	0.598900	0.229400
C1661	C166	0.321400	0.636900	0.230900
C1671	C167	0.271200	0.652700	0.296900
C1681	C168	0.309100	0.629300	0.361500
C1691	C169	0.172700	0.693300	0.296300
C1701	C170	0.463800	0.582000	0.157700
C1711	C171	0.855800	0.531300	0.432300
C1721	C172	0.815100	0.574700	0.472200
C1731	C173	0.897800	0.612800	0.492000
C1741	C174	0.019100	0.606300	0.474600
C1751	C175	0.060100	0.563200	0.437800
C1761	C176	0.976100	0.525600	0.415000
C1771	C177	0.874100	0.459190	0.366600
C1781	C178	0.849200	0.412900	0.319100
C1791	C179	0.903700	0.364500	0.328700
C1801	C180	0.773900	0.418900	0.258400
C1811	C181	0.759400	0.377200	0.211500
C1821	C182	0.819500	0.330400	0.224500
C1831	C183	0.096200	0.459300	0.341200
C1841	C184	0.102800	0.470800	0.258900
N11	N1	0.793800	0.010810	0.900980
N21	N2	0.985600	0.020830	0.874600
N31	N3	0.889600	0.176390	0.781800
N41	N4	0.206200	0.489190	0.900980
N51	N5	0.014400	0.479170	0.874600
N61	N6	0.110400	0.323610	0.781800
N71	N7	0.793800	0.989190	0.599020
N81	N8	0.985600	0.979170	0.625400
N91	N9	0.889600	0.823610	0.718200
N101	N10	0.206200	0.510810	0.599020
N111	N11	0.014400	0.520830	0.625400
N121	N12	0.110400	0.676390	0.718200
N131	N13	0.206200	0.989190	0.099020
N141	N14	0.014400	0.979170	0.125400
N151	N15	0.110400	0.823610	0.218200
N161	N16	0.793800	0.510810	0.099020
N171	N17	0.985600	0.520830	0.125400
N181	N18	0.889600	0.676390	0.218200
N191	N19	0.206200	0.010810	0.400980
N201	N20	0.014400	0.020830	0.374600
N211	N21	0.110400	0.176390	0.281800
N221	N22	0.793800	0.489190	0.400980
N231	N23	0.985600	0.479170	0.374600
N241	N24	0.889600	0.323610	0.281800
O11	O1	0.538800	0.955910	0.933250
O21	O2	0.360600	0.938750	0.980330
O31	O3	0.137100	0.793790	0.733000
O41	O4	0.135100	0.788270	0.855000
O51	O5	0.420400	0.903800	0.599200
O61	O6	0.552400	0.947770	0.661960
O71	O7	0.461200	0.544090	0.933250
O81	O8	0.639400	0.561250	0.980330
O91	O9	0.862900	0.706210	0.733000
O101	O10	0.864900	0.711730	0.855000
O111	O11	0.579600	0.596200	0.599200
O121	O12	0.447600	0.552230	0.661960
O131	O13	0.538800	0.044090	0.566750
O141	O14	0.360600	0.061250	0.519670
O151	O15	0.137100	0.206210	0.767000
O161	O16	0.135100	0.211730	0.645000
O171	O17	0.420400	0.096200	0.900800
O181	O18	0.552400	0.052230	0.838040
O191	O19	0.461200	0.455910	0.566750
O201	O20	0.639400	0.438750	0.519670
O211	O21	0.862900	0.293790	0.767000
O221	O22	0.864900	0.288270	0.645000
O231	O23	0.579600	0.403800	0.900800
O241	O24	0.447600	0.447770	0.838040
O251	O25	0.461200	0.044090	0.066750
O261	O26	0.639400	0.061250	0.019670
O271	O27	0.862900	0.206210	0.267000
O281	O28	0.864900	0.211730	0.145000
O291	O29	0.579600	0.096200	0.400800
O301	O30	0.447600	0.052230	0.338040
O311	O31	0.538800	0.455910	0.066750
O321	O32	0.360600	0.438750	0.019670
O331	O33	0.137100	0.293790	0.267000
O341	O34	0.135100	0.288270	0.145000
O351	O35	0.420400	0.403800	0.400800
O361	O36	0.552400	0.447770	0.338040
O371	O37	0.461200	0.955910	0.433250
O381	O38	0.639400	0.938750	0.480330
O391	O39	0.862900	0.793790	0.233000
O401	O40	0.864900	0.788270	0.355000
O411	O41	0.579600	0.903800	0.099200
O421	O42	0.447600	0.947770	0.161960
O431	O43	0.538800	0.544090	0.433250
O441	O44	0.360600	0.561250	0.480330
O451	O45	0.137100	0.706210	0.233000
O461	O46	0.135100	0.711730	0.355000
O471	O47	0.420400	0.596200	0.099200
O481	O48	0.552400	0.552230	0.161960
O491	O49	0.000000	0.750000	0.598600
O501	O50	0.000000	0.250000	0.901400
O511	O51	0.000000	0.250000	0.401400
O521	O52	0.000000	0.750000	0.098600
