data_REVYUO_freeONLY_PM
_symmetry_space_group_name_H-M	'P1'
_cell_length_a	20.084300
_cell_length_b	20.084300
_cell_length_c	20.240800
_cell_angle_alpha	90.000000
_cell_angle_beta	90.000000
_cell_angle_gamma	120.000000
_symmetry_Int_Tables_number 1

loop_
_symmetry_equiv_pos_as_xyz
'x,y,z'

loop_
_atom_site_label
_atom_site_type_symbol
_atom_site_fract_x
_atom_site_fract_y
_atom_site_fract_z
N11	N1	0.122100	0.225500	0.108100
N21	N2	0.056600	0.111800	0.066800
N31	N3	0.188900	0.345800	0.058200
C11	C1	0.101300	0.182200	0.052200
H11	H1	0.117200	0.201100	0.009700
N41	N4	0.048700	0.107700	0.134900
C21	C2	0.177300	0.307600	0.114900
C31	C3	0.211300	0.338400	0.174100
H21	H2	0.201000	0.307700	0.211400
C41	C4	0.239700	0.420900	0.062700
C51	C5	0.088700	0.177200	0.158600
H31	H3	0.093100	0.190800	0.203000
C61	C6	0.278000	0.459200	0.118000
H41	H4	0.313800	0.511500	0.116800
C71	C7	0.261700	0.417300	0.176800
H51	H5	0.284000	0.441500	0.216500
N51	N5	0.250300	0.460900	0.002200
C81	C8	0.277000	0.536400	0.992500
H61	H6	0.290800	0.572200	0.026300
C91	C9	0.235500	0.430200	0.939500
H71	H7	0.214700	0.378300	0.929800
N61	N6	0.281200	0.553200	0.930100
N71	N7	0.255200	0.484800	0.895300
N81	N8	0.788770	0.558830	0.441430
N91	N9	0.723270	0.445130	0.400130
N101	N10	0.855570	0.679130	0.391530
C101	C10	0.767970	0.515530	0.385530
H81	H8	0.783870	0.534430	0.343030
N111	N11	0.715370	0.441030	0.468230
C111	C11	0.843970	0.640930	0.448230
C121	C12	0.877970	0.671730	0.507430
H91	H9	0.867670	0.641030	0.544730
C131	C13	0.906370	0.754230	0.396030
C141	C14	0.755370	0.510530	0.491930
H101	H10	0.759770	0.524130	0.536330
C151	C15	0.944670	0.792530	0.451330
H111	H11	0.980470	0.844830	0.450130
C161	C16	0.928370	0.750630	0.510130
H121	H12	0.950670	0.774830	0.549830
N121	N12	0.916970	0.794230	0.335530
C171	C17	0.943670	0.869730	0.325830
H131	H13	0.957470	0.905530	0.359630
C181	C18	0.902170	0.763530	0.272830
H141	H14	0.881370	0.711630	0.263130
N131	N13	0.947870	0.886530	0.263430
N141	N14	0.921870	0.818130	0.228630
N151	N15	0.455430	0.892170	0.774770
N161	N16	0.389930	0.778470	0.733470
N171	N17	0.522230	0.012470	0.724870
C191	C19	0.434630	0.848870	0.718870
H151	H15	0.450530	0.867770	0.676370
N181	N18	0.382030	0.774370	0.801570
C201	C20	0.510630	0.974270	0.781570
C211	C21	0.544630	0.005070	0.840770
H161	H16	0.534330	0.974370	0.878070
C221	C22	0.573030	0.087570	0.729370
C231	C23	0.422030	0.843870	0.825270
H171	H17	0.426430	0.857470	0.869670
C241	C24	0.611330	0.125870	0.784670
H181	H18	0.647130	0.178170	0.783470
C251	C25	0.595030	0.083970	0.843470
H191	H19	0.617330	0.108170	0.883170
N191	N19	0.583630	0.127570	0.668870
C261	C26	0.610330	0.203070	0.659170
H201	H20	0.624130	0.238870	0.692970
C271	C27	0.568830	0.096870	0.606170
H211	H21	0.548030	0.044970	0.596470
N201	N20	0.614530	0.219870	0.596770
N211	N21	0.588530	0.151470	0.561970
N221	N22	0.774500	0.896600	0.108100
N231	N23	0.888200	0.944800	0.066800
N241	N24	0.654200	0.843100	0.058200
C281	C28	0.817800	0.919100	0.052200
H221	H22	0.798900	0.916100	0.009700
N251	N25	0.892300	0.941000	0.134900
C291	C29	0.692400	0.869700	0.114900
C301	C30	0.661600	0.872900	0.174100
H231	H23	0.692300	0.893300	0.211400
C311	C31	0.579100	0.818800	0.062700
C321	C32	0.822800	0.911500	0.158600
H241	H24	0.809200	0.902300	0.203000
C331	C33	0.540800	0.818800	0.118000
H251	H25	0.488500	0.802300	0.116800
C341	C34	0.582700	0.844400	0.176800
H261	H26	0.558500	0.842500	0.216500
N261	N26	0.539100	0.789400	0.002200
C351	C35	0.463600	0.740600	0.992500
H271	H27	0.427800	0.718600	0.026300
C361	C36	0.569800	0.805300	0.939500
H281	H28	0.621700	0.836400	0.929800
N271	N27	0.446800	0.728000	0.930100
N281	N28	0.515200	0.770400	0.895300
N291	N29	0.441170	0.229930	0.441430
N301	N30	0.554870	0.278130	0.400130
N311	N31	0.320870	0.176430	0.391530
C371	C37	0.484470	0.252430	0.385530
H291	H29	0.465570	0.249430	0.343030
N321	N32	0.558970	0.274330	0.468230
C381	C38	0.359070	0.203030	0.448230
C391	C39	0.328270	0.206230	0.507430
H301	H30	0.358970	0.226630	0.544730
C401	C40	0.245770	0.152130	0.396030
C411	C41	0.489470	0.244830	0.491930
H311	H31	0.475870	0.235630	0.536330
C421	C42	0.207470	0.152130	0.451330
H321	H32	0.155170	0.135630	0.450130
C431	C43	0.249370	0.177730	0.510130
H331	H33	0.225170	0.175830	0.549830
N331	N33	0.205770	0.122730	0.335530
C441	C44	0.130270	0.073930	0.325830
H341	H34	0.094470	0.051930	0.359630
C451	C45	0.236470	0.138630	0.272830
H351	H35	0.288370	0.169730	0.263130
N341	N34	0.113470	0.061330	0.263430
N351	N35	0.181870	0.103730	0.228630
N361	N36	0.107830	0.563270	0.774770
N371	N37	0.221530	0.611470	0.733470
N381	N38	0.987530	0.509770	0.724870
C461	C46	0.151130	0.585770	0.718870
H361	H36	0.132230	0.582770	0.676370
N391	N39	0.225630	0.607670	0.801570
C471	C47	0.025730	0.536370	0.781570
C481	C48	0.994930	0.539570	0.840770
H371	H37	0.025630	0.559970	0.878070
C491	C49	0.912430	0.485470	0.729370
C501	C50	0.156130	0.578170	0.825270
H381	H38	0.142530	0.568970	0.869670
C511	C51	0.874130	0.485470	0.784670
H391	H39	0.821830	0.468970	0.783470
C521	C52	0.916030	0.511070	0.843470
H401	H40	0.891830	0.509170	0.883170
N401	N40	0.872430	0.456070	0.668870
C531	C53	0.796930	0.407270	0.659170
H411	H41	0.761130	0.385270	0.692970
C541	C54	0.903130	0.471970	0.606170
H421	H42	0.955030	0.503070	0.596470
N411	N41	0.780130	0.394670	0.596770
N421	N42	0.848530	0.437070	0.561970
N431	N43	0.103400	0.877900	0.108100
N441	N44	0.055200	0.943400	0.066800
N451	N45	0.156900	0.811100	0.058200
C551	C55	0.080900	0.898700	0.052200
H431	H43	0.083900	0.882800	0.009700
N461	N46	0.059000	0.951300	0.134900
C561	C56	0.130300	0.822700	0.114900
C571	C57	0.127100	0.788700	0.174100
H441	H44	0.106700	0.799000	0.211400
C581	C58	0.181200	0.760300	0.062700
C591	C59	0.088500	0.911300	0.158600
H451	H45	0.097700	0.906900	0.203000
C601	C60	0.181200	0.722000	0.118000
H461	H46	0.197700	0.686200	0.116800
C611	C61	0.155600	0.738300	0.176800
H471	H47	0.157500	0.716000	0.216500
N471	N47	0.210600	0.749700	0.002200
C621	C62	0.259400	0.723000	0.992500
H481	H48	0.281400	0.709200	0.026300
C631	C63	0.194700	0.764500	0.939500
H491	H49	0.163600	0.785300	0.929800
N481	N48	0.272000	0.718800	0.930100
N491	N49	0.229600	0.744800	0.895300
N501	N50	0.770070	0.211230	0.441430
N511	N51	0.721870	0.276730	0.400130
N521	N52	0.823570	0.144430	0.391530
C641	C64	0.747570	0.232030	0.385530
H501	H50	0.750570	0.216130	0.343030
N531	N53	0.725670	0.284630	0.468230
C651	C65	0.796970	0.156030	0.448230
C661	C66	0.793770	0.122030	0.507430
H511	H51	0.773370	0.132330	0.544730
C671	C67	0.847870	0.093630	0.396030
C681	C68	0.755170	0.244630	0.491930
H521	H52	0.764370	0.240230	0.536330
C691	C69	0.847870	0.055330	0.451330
H531	H53	0.864370	0.019530	0.450130
C701	C70	0.822270	0.071630	0.510130
H541	H54	0.824170	0.049330	0.549830
N541	N54	0.877270	0.083030	0.335530
C711	C71	0.926070	0.056330	0.325830
H551	H55	0.948070	0.042530	0.359630
C721	C72	0.861370	0.097830	0.272830
H561	H56	0.830270	0.118630	0.263130
N551	N55	0.938670	0.052130	0.263430
N561	N56	0.896270	0.078130	0.228630
N571	N57	0.436730	0.544570	0.774770
N581	N58	0.388530	0.610070	0.733470
N591	N59	0.490230	0.477770	0.724870
C731	C73	0.414230	0.565370	0.718870
H571	H57	0.417230	0.549470	0.676370
N601	N60	0.392330	0.617970	0.801570
C741	C74	0.463630	0.489370	0.781570
C751	C75	0.460430	0.455370	0.840770
H581	H58	0.440030	0.465670	0.878070
C761	C76	0.514530	0.426970	0.729370
C771	C77	0.421830	0.577970	0.825270
H591	H59	0.431030	0.573570	0.869670
C781	C78	0.514530	0.388670	0.784670
H601	H60	0.531030	0.352870	0.783470
C791	C79	0.488930	0.404970	0.843470
H611	H61	0.490830	0.382670	0.883170
N611	N61	0.543930	0.416370	0.668870
C801	C80	0.592730	0.389670	0.659170
H621	H62	0.614730	0.375870	0.692970
C811	C81	0.528030	0.431170	0.606170
H631	H63	0.496930	0.451970	0.596470
N621	N62	0.605330	0.385470	0.596770
N631	N63	0.562930	0.411470	0.561970
N641	N64	0.877900	0.774500	0.891900
N651	N65	0.943400	0.888200	0.933200
N661	N66	0.811100	0.654200	0.941800
C821	C82	0.898700	0.817800	0.947800
H641	H64	0.882800	0.798900	0.990300
N671	N67	0.951300	0.892300	0.865100
C831	C83	0.822700	0.692400	0.885100
C841	C84	0.788700	0.661600	0.825900
H651	H65	0.799000	0.692300	0.788600
C851	C85	0.760300	0.579100	0.937300
C861	C86	0.911300	0.822800	0.841400
H661	H66	0.906900	0.809200	0.797000
C871	C87	0.722000	0.540800	0.882000
H671	H67	0.686200	0.488500	0.883200
C881	C88	0.738300	0.582700	0.823200
H681	H68	0.716000	0.558500	0.783500
N681	N68	0.749700	0.539100	0.997800
C891	C89	0.723000	0.463600	0.007500
H691	H69	0.709200	0.427800	0.973700
C901	C90	0.764500	0.569800	0.060500
H701	H70	0.785300	0.621700	0.070200
N691	N69	0.718800	0.446800	0.069900
N701	N70	0.744800	0.515200	0.104700
N711	N71	0.544570	0.107830	0.225230
N721	N72	0.610070	0.221530	0.266530
N731	N73	0.477770	0.987530	0.275130
C911	C91	0.565370	0.151130	0.281130
H711	H71	0.549470	0.132230	0.323630
N741	N74	0.617970	0.225630	0.198430
C921	C92	0.489370	0.025730	0.218430
C931	C93	0.455370	0.994930	0.159230
H721	H72	0.465670	0.025630	0.121930
C941	C94	0.426970	0.912430	0.270630
C951	C95	0.577970	0.156130	0.174730
H731	H73	0.573570	0.142530	0.130330
C961	C96	0.388670	0.874130	0.215330
H741	H74	0.352870	0.821830	0.216530
C971	C97	0.404970	0.916030	0.156530
H751	H75	0.382670	0.891830	0.116830
N751	N75	0.416370	0.872430	0.331130
C981	C98	0.389670	0.796930	0.340830
H761	H76	0.375870	0.761130	0.307030
C991	C99	0.431170	0.903130	0.393830
H771	H77	0.451970	0.955030	0.403530
N761	N76	0.385470	0.780130	0.403230
N771	N77	0.411470	0.848530	0.438030
N781	N78	0.211230	0.441170	0.558570
N791	N79	0.276730	0.554870	0.599870
N801	N80	0.144430	0.320870	0.608470
C1001	C100	0.232030	0.484470	0.614470
H781	H78	0.216130	0.465570	0.656970
N811	N81	0.284630	0.558970	0.531770
C1011	C101	0.156030	0.359070	0.551770
C1021	C102	0.122030	0.328270	0.492570
H791	H79	0.132330	0.358970	0.455270
C1031	C103	0.093630	0.245770	0.603970
C1041	C104	0.244630	0.489470	0.508070
H801	H80	0.240230	0.475870	0.463670
C1051	C105	0.055330	0.207470	0.548670
H811	H81	0.019530	0.155170	0.549870
C1061	C106	0.071630	0.249370	0.489870
H821	H82	0.049330	0.225170	0.450170
N821	N82	0.083030	0.205770	0.664470
C1071	C107	0.056330	0.130270	0.674170
H831	H83	0.042530	0.094470	0.640370
C1081	C108	0.097830	0.236470	0.727170
H841	H84	0.118630	0.288370	0.736870
N831	N83	0.052130	0.113470	0.736570
N841	N84	0.078130	0.181870	0.771370
N851	N85	0.225500	0.103400	0.891900
N861	N86	0.111800	0.055200	0.933200
N871	N87	0.345800	0.156900	0.941800
C1091	C109	0.182200	0.080900	0.947800
H851	H85	0.201100	0.083900	0.990300
N881	N88	0.107700	0.059000	0.865100
C1101	C110	0.307600	0.130300	0.885100
C1111	C111	0.338400	0.127100	0.825900
H861	H86	0.307700	0.106700	0.788600
C1121	C112	0.420900	0.181200	0.937300
C1131	C113	0.177200	0.088500	0.841400
H871	H87	0.190800	0.097700	0.797000
C1141	C114	0.459200	0.181200	0.882000
H881	H88	0.511500	0.197700	0.883200
C1151	C115	0.417300	0.155600	0.823200
H891	H89	0.441500	0.157500	0.783500
N891	N89	0.460900	0.210600	0.997800
C1161	C116	0.536400	0.259400	0.007500
H901	H90	0.572200	0.281400	0.973700
C1171	C117	0.430200	0.194700	0.060500
H911	H91	0.378300	0.163600	0.070200
N901	N90	0.553200	0.272000	0.069900
N911	N91	0.484800	0.229600	0.104700
N921	N92	0.892170	0.436730	0.225230
N931	N93	0.778470	0.388530	0.266530
N941	N94	0.012470	0.490230	0.275130
C1181	C118	0.848870	0.414230	0.281130
H921	H92	0.867770	0.417230	0.323630
N951	N95	0.774370	0.392330	0.198430
C1191	C119	0.974270	0.463630	0.218430
C1201	C120	0.005070	0.460430	0.159230
H931	H93	0.974370	0.440030	0.121930
C1211	C121	0.087570	0.514530	0.270630
C1221	C122	0.843870	0.421830	0.174730
H941	H94	0.857470	0.431030	0.130330
C1231	C123	0.125870	0.514530	0.215330
H951	H95	0.178170	0.531030	0.216530
C1241	C124	0.083970	0.488930	0.156530
H961	H96	0.108170	0.490830	0.116830
N961	N96	0.127570	0.543930	0.331130
C1251	C125	0.203070	0.592730	0.340830
H971	H97	0.238870	0.614730	0.307030
C1261	C126	0.096870	0.528030	0.393830
H981	H98	0.044970	0.496930	0.403530
N971	N97	0.219870	0.605330	0.403230
N981	N98	0.151470	0.562930	0.438030
N991	N99	0.558830	0.770070	0.558570
N1001	N100	0.445130	0.721870	0.599870
N1011	N101	0.679130	0.823570	0.608470
C1271	C127	0.515530	0.747570	0.614470
H991	H99	0.534430	0.750570	0.656970
N1021	N102	0.441030	0.725670	0.531770
C1281	C128	0.640930	0.796970	0.551770
C1291	C129	0.671730	0.793770	0.492570
H1001	H100	0.641030	0.773370	0.455270
C1301	C130	0.754230	0.847870	0.603970
C1311	C131	0.510530	0.755170	0.508070
H1011	H101	0.524130	0.764370	0.463670
C1321	C132	0.792530	0.847870	0.548670
H1021	H102	0.844830	0.864370	0.549870
C1331	C133	0.750630	0.822270	0.489870
H1031	H103	0.774830	0.824170	0.450170
N1031	N103	0.794230	0.877270	0.664470
C1341	C134	0.869730	0.926070	0.674170
H1041	H104	0.905530	0.948070	0.640370
C1351	C135	0.763530	0.861370	0.727170
H1051	H105	0.711630	0.830270	0.736870
N1041	N104	0.886530	0.938670	0.736570
N1051	N105	0.818130	0.896270	0.771370
N1061	N106	0.896600	0.122100	0.891900
N1071	N107	0.944800	0.056600	0.933200
N1081	N108	0.843100	0.188900	0.941800
C1361	C136	0.919100	0.101300	0.947800
H1061	H106	0.916100	0.117200	0.990300
N1091	N109	0.941000	0.048700	0.865100
C1371	C137	0.869700	0.177300	0.885100
C1381	C138	0.872900	0.211300	0.825900
H1071	H107	0.893300	0.201000	0.788600
C1391	C139	0.818800	0.239700	0.937300
C1401	C140	0.911500	0.088700	0.841400
H1081	H108	0.902300	0.093100	0.797000
C1411	C141	0.818800	0.278000	0.882000
H1091	H109	0.802300	0.313800	0.883200
C1421	C142	0.844400	0.261700	0.823200
H1101	H110	0.842500	0.284000	0.783500
N1101	N110	0.789400	0.250300	0.997800
C1431	C143	0.740600	0.277000	0.007500
H1111	H111	0.718600	0.290800	0.973700
C1441	C144	0.805300	0.235500	0.060500
H1121	H112	0.836400	0.214700	0.070200
N1111	N111	0.728000	0.281200	0.069900
N1121	N112	0.770400	0.255200	0.104700
N1131	N113	0.563270	0.455430	0.225230
N1141	N114	0.611470	0.389930	0.266530
N1151	N115	0.509770	0.522230	0.275130
C1451	C145	0.585770	0.434630	0.281130
H1131	H113	0.582770	0.450530	0.323630
N1161	N116	0.607670	0.382030	0.198430
C1461	C146	0.536370	0.510630	0.218430
C1471	C147	0.539570	0.544630	0.159230
H1141	H114	0.559970	0.534330	0.121930
C1481	C148	0.485470	0.573030	0.270630
C1491	C149	0.578170	0.422030	0.174730
H1151	H115	0.568970	0.426430	0.130330
C1501	C150	0.485470	0.611330	0.215330
H1161	H116	0.468970	0.647130	0.216530
C1511	C151	0.511070	0.595030	0.156530
H1171	H117	0.509170	0.617330	0.116830
N1171	N117	0.456070	0.583630	0.331130
C1521	C152	0.407270	0.610330	0.340830
H1181	H118	0.385270	0.624130	0.307030
C1531	C153	0.471970	0.568830	0.393830
H1191	H119	0.503070	0.548030	0.403530
N1181	N118	0.394670	0.614530	0.403230
N1191	N119	0.437070	0.588530	0.438030
N1201	N120	0.229930	0.788770	0.558570
N1211	N121	0.278130	0.723270	0.599870
N1221	N122	0.176430	0.855570	0.608470
C1541	C154	0.252430	0.767970	0.614470
H1201	H120	0.249430	0.783870	0.656970
N1231	N123	0.274330	0.715370	0.531770
C1551	C155	0.203030	0.843970	0.551770
C1561	C156	0.206230	0.877970	0.492570
H1211	H121	0.226630	0.867670	0.455270
C1571	C157	0.152130	0.906370	0.603970
C1581	C158	0.244830	0.755370	0.508070
H1221	H122	0.235630	0.759770	0.463670
C1591	C159	0.152130	0.944670	0.548670
H1231	H123	0.135630	0.980470	0.549870
C1601	C160	0.177730	0.928370	0.489870
H1241	H124	0.175830	0.950670	0.450170
N1241	N124	0.122730	0.916970	0.664470
C1611	C161	0.073930	0.943670	0.674170
H1251	H125	0.051930	0.957470	0.640370
C1621	C162	0.138630	0.902170	0.727170
H1261	H126	0.169730	0.881370	0.736870
N1251	N125	0.061330	0.947870	0.736570
N1261	N126	0.103730	0.921870	0.771370
Cd11	Cd1	0.000000	0.000000	0.000000
Cd21	Cd2	0.666670	0.333330	0.333330
Cd31	Cd3	0.333330	0.666670	0.666670
Cd41	Cd4	0.000000	0.000000	0.204720
Cd51	Cd5	0.666670	0.333330	0.538050
Cd61	Cd6	0.333330	0.666670	0.871390
Cd71	Cd7	0.000000	0.000000	0.795280
Cd81	Cd8	0.666670	0.333330	0.128610
Cd91	Cd9	0.333330	0.666670	0.461950
