data_REXCII_freeONLY_PM
_symmetry_space_group_name_H-M	'P1'
_cell_length_a	14.767000
_cell_length_b	18.581400
_cell_length_c	30.700000
_cell_angle_alpha	98.987900
_cell_angle_beta	90.000000
_cell_angle_gamma	113.413000
_symmetry_Int_Tables_number 1

loop_
_symmetry_equiv_pos_as_xyz
'x,y,z'

loop_
_atom_site_label
_atom_site_type_symbol
_atom_site_fract_x
_atom_site_fract_y
_atom_site_fract_z
Zn11	Zn1	0.024620	0.258880	0.558460
Zn21	Zn2	0.971130	0.657220	0.731780
Zn31	Zn3	0.294330	0.843340	0.902220
Zn41	Zn4	0.234260	0.258880	0.058460
Zn51	Zn5	0.686090	0.657220	0.231780
Zn61	Zn6	0.549010	0.843340	0.402220
H11	H1	0.045200	0.372400	0.644000
H21	H2	0.165900	0.473800	0.691100
H31	H3	0.371200	0.427000	0.620100
H41	H4	0.241900	0.327000	0.573600
H51	H5	0.465700	0.830400	0.861900
H61	H6	0.513800	0.754600	0.805600
H71	H7	0.223400	0.611200	0.778200
H81	H8	0.184900	0.687800	0.835700
H91	H9	0.781100	0.539800	0.677600
H101	H10	0.616000	0.518800	0.668900
H111	H11	0.670600	0.708200	0.764600
H121	H12	0.832100	0.722000	0.771400
H131	H13	0.348000	0.773000	0.972700
H141	H14	0.481800	0.787400	0.017900
H151	H15	0.641700	0.988600	0.973500
H161	H16	0.502300	0.971600	0.930800
H171	H17	0.843700	0.759800	0.180100
H181	H18	0.863000	0.836600	0.126200
H191	H19	0.569900	0.766000	0.115600
H201	H20	0.557000	0.692400	0.170000
H211	H21	0.057300	0.160200	0.990700
H221	H22	0.904600	0.052000	0.989000
H231	H23	0.962100	0.044600	0.115600
H241	H24	0.113600	0.147000	0.114900
H251	H25	0.327200	0.372400	0.144000
H261	H26	0.307900	0.473800	0.191100
H271	H27	0.055800	0.427000	0.120100
H281	H28	0.085100	0.327000	0.073600
H291	H29	0.364700	0.830400	0.361900
H301	H30	0.240800	0.754600	0.305600
H311	H31	0.387800	0.611200	0.278200
H321	H32	0.502900	0.687800	0.335700
H331	H33	0.758700	0.539800	0.177600
H341	H34	0.902800	0.518800	0.168900
H351	H35	0.037600	0.708200	0.264600
H361	H36	0.889900	0.722000	0.271400
H371	H37	0.425000	0.773000	0.472700
H381	H38	0.305600	0.787400	0.517900
H391	H39	0.346900	0.988600	0.473500
H401	H40	0.469300	0.971600	0.430800
H411	H41	0.916100	0.759800	0.680100
H421	H42	0.973600	0.836600	0.626200
H431	H43	0.196100	0.766000	0.615600
H441	H44	0.135400	0.692400	0.670000
H451	H45	0.102900	0.160200	0.490700
H461	H46	0.147400	0.052000	0.489000
H471	H47	0.082500	0.044600	0.615600
H481	H48	0.033400	0.147000	0.614900
C11	C1	0.112600	0.384600	0.638700
C21	C2	0.183900	0.444400	0.667100
C31	C3	0.280700	0.461000	0.660800
C41	C4	0.304300	0.417200	0.625500
C51	C5	0.226300	0.357800	0.597800
C61	C6	0.359900	0.525800	0.691400
C71	C7	0.401000	0.627600	0.749200
C81	C8	0.519100	0.597400	0.714900
C91	C9	0.416100	0.784200	0.845100
C101	C10	0.446000	0.740200	0.810900
C111	C11	0.372600	0.675200	0.785500
C121	C12	0.274600	0.655800	0.795300
C131	C13	0.252200	0.701200	0.829500
C141	C14	0.758300	0.574800	0.695700
C151	C15	0.659100	0.561400	0.690300
C161	C16	0.624400	0.610200	0.716100
C171	C17	0.691400	0.672200	0.746400
C181	C18	0.787500	0.680400	0.749900
C191	C19	0.408600	0.817800	0.972900
C201	C20	0.487800	0.826200	0.000200
C211	C21	0.574000	0.890600	0.001300
C221	C22	0.581000	0.944200	0.974400
C231	C23	0.498100	0.932600	0.948400
C241	C24	0.662200	0.900600	0.029100
C251	C25	0.727200	0.863200	0.083300
C261	C26	0.821900	0.966400	0.051600
C271	C27	0.786600	0.762000	0.167200
C281	C28	0.798900	0.807800	0.135300
C291	C29	0.716700	0.811800	0.116300
C301	C30	0.628300	0.767000	0.129100
C311	C31	0.621000	0.722600	0.161400
C321	C32	0.037700	0.135800	0.016000
C331	C33	0.947400	0.071200	0.015100
C341	C34	0.919800	0.035400	0.050500
C351	C35	0.981600	0.066400	0.089400
C361	C36	0.069800	0.128200	0.089100
C371	C37	0.272000	0.384600	0.138700
C381	C38	0.260500	0.444400	0.167100
C391	C39	0.180300	0.461000	0.160800
C401	C40	0.112900	0.417200	0.125500
C411	C41	0.131500	0.357800	0.097800
C421	C42	0.165900	0.525800	0.191400
C431	C43	0.226600	0.627600	0.249200
C441	C44	0.078300	0.597400	0.214900
C451	C45	0.368100	0.784200	0.345100
C461	C46	0.294200	0.740200	0.310900
C471	C47	0.302600	0.675200	0.285500
C481	C48	0.381200	0.655800	0.295300
C491	C49	0.449000	0.701200	0.329500
C501	C50	0.816500	0.574800	0.195700
C511	C51	0.902300	0.561400	0.190300
C521	C52	0.985800	0.610200	0.216100
C531	C53	0.980800	0.672200	0.246400
C541	C54	0.892900	0.680400	0.249900
C551	C55	0.409200	0.817800	0.472900
C561	C56	0.338400	0.826200	0.500200
C571	C57	0.316600	0.890600	0.501300
C581	C58	0.363200	0.944200	0.474400
C591	C59	0.434500	0.932600	0.448400
C601	C60	0.238400	0.900600	0.529100
C611	C61	0.136000	0.863200	0.583300
C621	C62	0.144500	0.966400	0.551600
C631	C63	0.975400	0.762000	0.667200
C641	C64	0.008900	0.807800	0.635300
C651	C65	0.095100	0.811800	0.616300
C661	C66	0.138700	0.767000	0.629100
C671	C67	0.101600	0.722600	0.661400
C681	C68	0.098100	0.135800	0.516000
C691	C69	0.123800	0.071200	0.515100
C701	C70	0.115600	0.035400	0.550500
C711	C71	0.084800	0.066400	0.589400
C721	C72	0.058400	0.128200	0.589100
I11	I1	0.865640	0.217780	0.598620
I21	I2	0.053800	0.309220	0.486370
I31	I3	0.998460	0.531340	0.708680
I41	I4	0.036220	0.751420	0.805270
I51	I5	0.141420	0.765900	0.939430
I61	I6	0.331320	0.964940	0.865670
I71	I7	0.352140	0.217780	0.098620
I81	I8	0.255420	0.309220	0.986370
I91	I9	0.532880	0.531340	0.208680
I101	I10	0.715200	0.751420	0.305270
I111	I11	0.624480	0.765900	0.439430
I121	I12	0.633620	0.964940	0.365670
N11	N1	0.133900	0.342800	0.603400
N21	N2	0.327900	0.565600	0.724100
N31	N3	0.496600	0.646600	0.746200
N41	N4	0.454000	0.538600	0.685400
N51	N5	0.324100	0.765200	0.855200
N61	N6	0.821700	0.632800	0.724300
N71	N7	0.413900	0.870200	0.947000
N81	N8	0.647700	0.851600	0.058200
N91	N9	0.817200	0.920200	0.081100
N101	N10	0.748800	0.959000	0.024000
N111	N11	0.097300	0.163200	0.053900
N121	N12	0.698500	0.719600	0.181300
N131	N13	0.208900	0.342800	0.103400
N141	N14	0.237700	0.565600	0.224100
N151	N15	0.150000	0.646600	0.246200
N161	N16	0.084600	0.538600	0.185400
N171	N17	0.441100	0.765200	0.355200
N181	N18	0.811100	0.632800	0.224300
N191	N19	0.456300	0.870200	0.447000
N201	N20	0.203900	0.851600	0.558200
N211	N21	0.103000	0.920200	0.581100
N221	N22	0.210200	0.959000	0.524000
N231	N23	0.065900	0.163200	0.553900
N241	N24	0.021100	0.719600	0.681300
Zn71	Zn7	0.765740	0.741120	0.941540
Zn81	Zn8	0.313910	0.342780	0.768220
Zn91	Zn9	0.450990	0.156660	0.597780
Zn101	Zn10	0.975380	0.741120	0.441540
Zn111	Zn11	0.028870	0.342780	0.268220
Zn121	Zn12	0.705670	0.156660	0.097780
H491	H49	0.672800	0.627600	0.856000
H501	H50	0.692100	0.526200	0.808900
H511	H51	0.944200	0.573000	0.879900
H521	H52	0.914900	0.673000	0.926400
H531	H53	0.635300	0.169600	0.638100
H541	H54	0.759200	0.245400	0.694400
H551	H55	0.612200	0.388800	0.721800
H561	H56	0.497100	0.312200	0.664300
H571	H57	0.241300	0.460200	0.822400
H581	H58	0.097200	0.481200	0.831100
H591	H59	0.962400	0.291800	0.735400
H601	H60	0.110100	0.278000	0.728600
H611	H61	0.575000	0.227000	0.527300
H621	H62	0.694400	0.212600	0.482100
H631	H63	0.653100	0.011400	0.526500
H641	H64	0.530700	0.028400	0.569200
H651	H65	0.083900	0.240200	0.319900
H661	H66	0.026400	0.163400	0.373800
H671	H67	0.803900	0.234000	0.384400
H681	H68	0.864600	0.307600	0.330000
H691	H69	0.897100	0.839800	0.509300
H701	H70	0.852600	0.948000	0.511000
H711	H71	0.917500	0.955400	0.384400
H721	H72	0.966600	0.853000	0.385100
H731	H73	0.954800	0.627600	0.356000
H741	H74	0.834100	0.526200	0.308900
H751	H75	0.628800	0.573000	0.379900
H761	H76	0.758100	0.673000	0.426400
H771	H77	0.534300	0.169600	0.138100
H781	H78	0.486200	0.245400	0.194400
H791	H79	0.776600	0.388800	0.221800
H801	H80	0.815100	0.312200	0.164300
H811	H81	0.218900	0.460200	0.322400
H821	H82	0.384000	0.481200	0.331100
H831	H83	0.329400	0.291800	0.235400
H841	H84	0.167900	0.278000	0.228600
H851	H85	0.652000	0.227000	0.027300
H861	H86	0.518200	0.212600	0.982100
H871	H87	0.358300	0.011400	0.026500
H881	H88	0.497700	0.028400	0.069200
H891	H89	0.156300	0.240200	0.819900
H901	H90	0.137000	0.163400	0.873800
H911	H91	0.430100	0.234000	0.884400
H921	H92	0.443000	0.307600	0.830000
H931	H93	0.942700	0.839800	0.009300
H941	H94	0.095400	0.948000	0.011000
H951	H95	0.037900	0.955400	0.884400
H961	H96	0.886400	0.853000	0.885100
C731	C73	0.728000	0.615400	0.861300
C741	C74	0.739500	0.555600	0.832900
C751	C75	0.819700	0.539000	0.839200
C761	C76	0.887100	0.582800	0.874500
C771	C77	0.868500	0.642200	0.902200
C781	C78	0.834100	0.474200	0.808600
C791	C79	0.773400	0.372400	0.750800
C801	C80	0.921700	0.402600	0.785100
C811	C81	0.631900	0.215800	0.654900
C821	C82	0.705800	0.259800	0.689100
C831	C83	0.697400	0.324800	0.714500
C841	C84	0.618800	0.344200	0.704700
C851	C85	0.551000	0.298800	0.670500
C861	C86	0.183500	0.425200	0.804300
C871	C87	0.097700	0.438600	0.809700
C881	C88	0.014200	0.389800	0.783900
C891	C89	0.019200	0.327800	0.753600
C901	C90	0.107100	0.319600	0.750100
C911	C91	0.590800	0.182200	0.527100
C921	C92	0.661600	0.173800	0.499800
C931	C93	0.683400	0.109400	0.498700
C941	C94	0.636800	0.055800	0.525600
C951	C95	0.565500	0.067400	0.551600
C961	C96	0.761600	0.099400	0.470900
C971	C97	0.864000	0.136800	0.416700
C981	C98	0.855500	0.033600	0.448400
C991	C99	0.024600	0.238000	0.332800
C1001	C100	0.991100	0.192200	0.364700
C1011	C101	0.904900	0.188200	0.383700
C1021	C102	0.861300	0.233000	0.370900
C1031	C103	0.898400	0.277400	0.338600
C1041	C104	0.901900	0.864200	0.484000
C1051	C105	0.876200	0.928800	0.484900
C1061	C106	0.884400	0.964600	0.449500
C1071	C107	0.915200	0.933600	0.410600
C1081	C108	0.941600	0.871800	0.410900
C1091	C109	0.887400	0.615400	0.361300
C1101	C110	0.816100	0.555600	0.332900
C1111	C111	0.719300	0.539000	0.339200
C1121	C112	0.695700	0.582800	0.374500
C1131	C113	0.773700	0.642200	0.402200
C1141	C114	0.640100	0.474200	0.308600
C1151	C115	0.599000	0.372400	0.250800
C1161	C116	0.480900	0.402600	0.285100
C1171	C117	0.583900	0.215800	0.154900
C1181	C118	0.554000	0.259800	0.189100
C1191	C119	0.627400	0.324800	0.214500
C1201	C120	0.725400	0.344200	0.204700
C1211	C121	0.747800	0.298800	0.170500
C1221	C122	0.241700	0.425200	0.304300
C1231	C123	0.340900	0.438600	0.309700
C1241	C124	0.375600	0.389800	0.283900
C1251	C125	0.308600	0.327800	0.253600
C1261	C126	0.212500	0.319600	0.250100
C1271	C127	0.591400	0.182200	0.027100
C1281	C128	0.512200	0.173800	0.999800
C1291	C129	0.426000	0.109400	0.998700
C1301	C130	0.419000	0.055800	0.025600
C1311	C131	0.501900	0.067400	0.051600
C1321	C132	0.337800	0.099400	0.970900
C1331	C133	0.272800	0.136800	0.916700
C1341	C134	0.178100	0.033600	0.948400
C1351	C135	0.213400	0.238000	0.832800
C1361	C136	0.201100	0.192200	0.864700
C1371	C137	0.283300	0.188200	0.883700
C1381	C138	0.371700	0.233000	0.870900
C1391	C139	0.379000	0.277400	0.838600
C1401	C140	0.962300	0.864200	0.984000
C1411	C141	0.052600	0.928800	0.984900
C1421	C142	0.080200	0.964600	0.949500
C1431	C143	0.018400	0.933600	0.910600
C1441	C144	0.930200	0.871800	0.910900
I131	I13	0.647860	0.782220	0.901380
I141	I14	0.744580	0.690780	0.013630
I151	I15	0.467120	0.468660	0.791320
I161	I16	0.284800	0.248580	0.694730
I171	I17	0.375520	0.234100	0.560570
I181	I18	0.366380	0.035060	0.634330
I191	I19	0.134360	0.782220	0.401380
I201	I20	0.946200	0.690780	0.513630
I211	I21	0.001540	0.468660	0.291320
I221	I22	0.963780	0.248580	0.194730
I231	I23	0.858580	0.234100	0.060570
I241	I24	0.668680	0.035060	0.134330
N251	N25	0.791100	0.657200	0.896600
N261	N26	0.762300	0.434400	0.775900
N271	N27	0.850000	0.353400	0.753800
N281	N28	0.915400	0.461400	0.814600
N291	N29	0.558900	0.234800	0.644800
N301	N30	0.188900	0.367200	0.775700
N311	N31	0.543700	0.129800	0.553000
N321	N32	0.796100	0.148400	0.441800
N331	N33	0.897000	0.079800	0.418900
N341	N34	0.789800	0.041000	0.476000
N351	N35	0.934100	0.836800	0.446100
N361	N36	0.978900	0.280400	0.318700
N371	N37	0.866100	0.657200	0.396600
N381	N38	0.672100	0.434400	0.275900
N391	N39	0.503400	0.353400	0.253800
N401	N40	0.546000	0.461400	0.314600
N411	N41	0.675900	0.234800	0.144800
N421	N42	0.178300	0.367200	0.275700
N431	N43	0.586100	0.129800	0.053000
N441	N44	0.352300	0.148400	0.941800
N451	N45	0.182800	0.079800	0.918900
N461	N46	0.251200	0.041000	0.976000
N471	N47	0.902700	0.836800	0.946100
N481	N48	0.301500	0.280400	0.818700
