data_REXDUV_freeONLY_PM
_symmetry_space_group_name_H-M	'P1'
_cell_length_a	14.756000
_cell_length_b	18.921200
_cell_length_c	30.740000
_cell_angle_alpha	101.044000
_cell_angle_beta	90.000000
_cell_angle_gamma	112.950000
_symmetry_Int_Tables_number 1

loop_
_symmetry_equiv_pos_as_xyz
'x,y,z'

loop_
_atom_site_label
_atom_site_type_symbol
_atom_site_fract_x
_atom_site_fract_y
_atom_site_fract_z
Zn11	Zn1	0.711520	0.169700	0.591090
Zn21	Zn2	0.978310	0.753240	0.940200
Zn31	Zn3	0.031450	0.346540	0.769090
Zn41	Zn4	0.458180	0.169700	0.091090
Zn51	Zn5	0.774930	0.753240	0.440200
Zn61	Zn6	0.315090	0.346540	0.269090
H11	H1	0.818300	0.323600	0.659900
H21	H2	0.781300	0.398800	0.718600
H31	H3	0.492600	0.258200	0.689000
H41	H4	0.539400	0.182800	0.633400
H51	H5	0.759100	0.671600	0.930400
H61	H6	0.632600	0.575200	0.883700
H71	H7	0.838600	0.543000	0.804600
H81	H8	0.957100	0.639800	0.852700
H91	H9	0.167800	0.276200	0.732600
H101	H10	0.331500	0.296000	0.735100
H111	H11	0.386600	0.485200	0.832700
H121	H12	0.221400	0.465200	0.823600
H131	H13	0.930600	0.351800	0.854200
H141	H14	0.858900	0.272400	0.903600
H151	H15	0.958800	0.113200	0.836100
H161	H16	0.025500	0.201000	0.790200
H171	H17	0.538900	0.041800	0.063000
H181	H18	0.651300	0.019400	0.017200
H191	H19	0.703000	0.221400	0.977500
H201	H20	0.581100	0.235400	0.021000
H211	H21	0.981900	0.861800	0.884800
H221	H22	0.936000	0.965400	0.880200
H231	H23	0.840100	0.952000	0.002800
H241	H24	0.888200	0.849600	0.001800
H251	H25	0.505300	0.323600	0.159900
H261	H26	0.617500	0.398800	0.218600
H271	H27	0.765600	0.258200	0.189000
H281	H28	0.643400	0.182800	0.133400
H291	H29	0.912500	0.671600	0.430400
H301	H30	0.942600	0.575200	0.383700
H311	H31	0.704400	0.543000	0.304600
H321	H32	0.682700	0.639800	0.352700
H331	H33	0.108400	0.276200	0.232600
H341	H34	0.964500	0.296000	0.235100
H351	H35	0.098600	0.485200	0.332700
H361	H36	0.243800	0.465200	0.323600
H371	H37	0.421200	0.351800	0.354200
H381	H38	0.413500	0.272400	0.403600
H391	H39	0.154400	0.113200	0.336100
H401	H40	0.175500	0.201000	0.290200
H411	H41	0.502900	0.041800	0.563000
H421	H42	0.368100	0.019400	0.517200
H431	H43	0.518400	0.221400	0.477500
H441	H44	0.654300	0.235400	0.521000
H451	H45	0.879900	0.861800	0.384800
H461	H46	0.029400	0.965400	0.380200
H471	H47	0.111900	0.952000	0.502800
H481	H48	0.961400	0.849600	0.501800
C11	C1	0.751300	0.309400	0.666400
C21	C2	0.729800	0.354400	0.701100
C31	C3	0.631400	0.335400	0.711200
C41	C4	0.560500	0.272000	0.684500
C51	C5	0.589300	0.228400	0.650800
C61	C6	0.774600	0.644400	0.904100
C71	C7	0.699000	0.586800	0.877000
C81	C8	0.720800	0.545400	0.839000
C91	C9	0.820600	0.568600	0.830700
C101	C10	0.890000	0.626000	0.859000
C111	C11	0.213800	0.320400	0.752700
C121	C12	0.310500	0.331200	0.754400
C131	C13	0.378300	0.394400	0.784400
C141	C14	0.343200	0.442400	0.810900
C151	C15	0.243900	0.429200	0.806000
C161	C16	0.603500	0.382800	0.747700
C171	C17	0.644600	0.482200	0.807200
C181	C18	0.484100	0.409400	0.783700
C191	C19	0.933200	0.301600	0.850000
C201	C20	0.891900	0.255400	0.880000
C211	C21	0.899400	0.182800	0.875000
C221	C22	0.950300	0.161200	0.840500
C231	C23	0.987800	0.214000	0.813000
C241	C24	0.572300	0.078600	0.045200
C251	C25	0.639400	0.065600	0.018400
C261	C26	0.690500	0.118000	0.993000
C271	C27	0.669300	0.183400	0.994500
C281	C28	0.598100	0.192000	0.021200
C291	C29	0.952300	0.880800	0.909200
C301	C30	0.926600	0.943200	0.906000
C311	C31	0.887100	0.970600	0.942200
C321	C32	0.870200	0.934800	0.978000
C331	C33	0.898500	0.873600	0.976700
C341	C34	0.861400	0.133800	0.908400
C351	C35	0.764900	0.103600	0.964500
C361	C36	0.858600	0.038000	0.939900
C371	C37	0.558100	0.309400	0.166400
C381	C38	0.624600	0.354400	0.201100
C391	C39	0.704000	0.335400	0.211200
C401	C40	0.711500	0.272000	0.184500
C411	C41	0.639100	0.228400	0.150800
C421	C42	0.869800	0.644400	0.404100
C431	C43	0.887800	0.586800	0.377000
C441	C44	0.824600	0.545400	0.339000
C451	C45	0.748000	0.568600	0.330700
C461	C46	0.736000	0.626000	0.359000
C471	C47	0.106600	0.320400	0.252700
C481	C48	0.020700	0.331200	0.254400
C491	C49	0.016100	0.394400	0.284400
C501	C50	0.099200	0.442400	0.310900
C511	C51	0.185300	0.429200	0.306000
C521	C52	0.779300	0.382800	0.247700
C531	C53	0.837600	0.482200	0.307200
C541	C54	0.925300	0.409400	0.283700
C551	C55	0.368400	0.301600	0.350000
C561	C56	0.363500	0.255400	0.380000
C571	C57	0.283400	0.182800	0.375000
C581	C58	0.210900	0.161200	0.340500
C591	C59	0.226200	0.214000	0.313000
C601	C60	0.506300	0.078600	0.545200
C611	C61	0.426200	0.065600	0.518400
C621	C62	0.427500	0.118000	0.493000
C631	C63	0.514100	0.183400	0.494500
C641	C64	0.593900	0.192000	0.521200
C651	C65	0.928500	0.880800	0.409200
C661	C66	0.016600	0.943200	0.406000
C671	C67	0.083500	0.970600	0.442200
C681	C68	0.064600	0.934800	0.478000
C691	C69	0.975100	0.873600	0.476700
C701	C70	0.272400	0.133800	0.408400
C711	C71	0.338700	0.103600	0.464500
C721	C72	0.179400	0.038000	0.439900
I11	I1	0.678390	0.054360	0.628780
I21	I2	0.860920	0.244520	0.554770
I31	I3	0.951150	0.713040	0.013470
I41	I4	0.136380	0.785340	0.902020
I51	I5	0.003110	0.470720	0.794680
I61	I6	0.971020	0.260200	0.692130
I71	I7	0.375970	0.054360	0.128780
I81	I8	0.383600	0.244520	0.054770
I91	I9	0.761890	0.713040	0.513470
I101	I10	0.648960	0.785340	0.402020
I111	I11	0.467610	0.470720	0.294680
I121	I12	0.289180	0.260200	0.192130
N11	N1	0.681670	0.245340	0.640800
N21	N2	0.869710	0.665420	0.896200
N31	N3	0.180970	0.369540	0.778200
N41	N4	0.676200	0.442800	0.774150
N51	N5	0.548070	0.467540	0.814300
N61	N6	0.506800	0.361600	0.751510
N71	N7	0.977170	0.279140	0.815000
N81	N8	0.551500	0.143000	0.047200
N91	N9	0.939040	0.845880	0.943100
N101	N10	0.794860	0.149520	0.933800
N111	N11	0.795730	0.050260	0.970340
N121	N12	0.891490	0.077180	0.908500
N131	N13	0.563670	0.245340	0.140800
N141	N14	0.795710	0.665420	0.396200
N151	N15	0.188570	0.369540	0.278200
N161	N16	0.766600	0.442800	0.274150
N171	N17	0.919470	0.467540	0.314300
N181	N18	0.854800	0.361600	0.251510
N191	N19	0.301970	0.279140	0.315000
N201	N20	0.591500	0.143000	0.547200
N211	N21	0.906840	0.845880	0.443100
N221	N22	0.354660	0.149520	0.433800
N231	N23	0.254530	0.050260	0.470340
N241	N24	0.185690	0.077180	0.408500
Zn71	Zn7	0.541820	0.830300	0.908910
Zn81	Zn8	0.225070	0.246760	0.559800
Zn91	Zn9	0.684910	0.653460	0.730910
Zn101	Zn10	0.288480	0.830300	0.408910
Zn111	Zn11	0.021690	0.246760	0.059800
Zn121	Zn12	0.968550	0.653460	0.230910
H491	H49	0.494700	0.676400	0.840100
H501	H50	0.382500	0.601200	0.781400
H511	H51	0.234400	0.741800	0.811000
H521	H52	0.356600	0.817200	0.866600
H531	H53	0.087500	0.328400	0.569600
H541	H54	0.057400	0.424800	0.616300
H551	H55	0.295600	0.457000	0.695400
H561	H56	0.317300	0.360200	0.647300
H571	H57	0.891600	0.723800	0.767400
H581	H58	0.035500	0.704000	0.764900
H591	H59	0.901400	0.514800	0.667300
H601	H60	0.756200	0.534800	0.676400
H611	H61	0.578800	0.648200	0.645800
H621	H62	0.586500	0.727600	0.596400
H631	H63	0.845600	0.886800	0.663900
H641	H64	0.824500	0.799000	0.709800
H651	H65	0.497100	0.958200	0.437000
H661	H66	0.631900	0.980600	0.482800
H671	H67	0.481600	0.778600	0.522500
H681	H68	0.345700	0.764600	0.479000
H691	H69	0.120100	0.138200	0.615200
H701	H70	0.970600	0.034600	0.619800
H711	H71	0.888100	0.048000	0.497200
H721	H72	0.038600	0.150400	0.498200
H731	H73	0.181700	0.676400	0.340100
H741	H74	0.218700	0.601200	0.281400
H751	H75	0.507400	0.741800	0.311000
H761	H76	0.460600	0.817200	0.366600
H771	H77	0.240900	0.328400	0.069600
H781	H78	0.367400	0.424800	0.116300
H791	H79	0.161400	0.457000	0.195400
H801	H80	0.042900	0.360200	0.147300
H811	H81	0.832200	0.723800	0.267400
H821	H82	0.668500	0.704000	0.264900
H831	H83	0.613400	0.514800	0.167300
H841	H84	0.778600	0.534800	0.176400
H851	H85	0.069400	0.648200	0.145800
H861	H86	0.141100	0.727600	0.096400
H871	H87	0.041200	0.886800	0.163900
H881	H88	0.974500	0.799000	0.209800
H891	H89	0.461100	0.958200	0.937000
H901	H90	0.348700	0.980600	0.982800
H911	H91	0.297000	0.778600	0.022500
H921	H92	0.418900	0.764600	0.979000
H931	H93	0.018100	0.138200	0.115200
H941	H94	0.064000	0.034600	0.119800
H951	H95	0.159900	0.048000	0.997200
H961	H96	0.111800	0.150400	0.998200
C731	C73	0.441900	0.690600	0.833600
C741	C74	0.375400	0.645600	0.798900
C751	C75	0.296000	0.664600	0.788800
C761	C76	0.288500	0.728000	0.815500
C771	C77	0.360900	0.771600	0.849200
C781	C78	0.130200	0.355600	0.595900
C791	C79	0.112200	0.413200	0.623000
C801	C80	0.175400	0.454600	0.661000
C811	C81	0.252000	0.431400	0.669300
C821	C82	0.264000	0.374000	0.641000
C831	C83	0.893400	0.679600	0.747300
C841	C84	0.979300	0.668800	0.745600
C851	C85	0.983900	0.605600	0.715600
C861	C86	0.900800	0.557600	0.689100
C871	C87	0.814700	0.570800	0.694000
C881	C88	0.220700	0.617200	0.752300
C891	C89	0.162400	0.517800	0.692800
C901	C90	0.074700	0.590600	0.716300
C911	C91	0.631600	0.698400	0.650000
C921	C92	0.636500	0.744600	0.620000
C931	C93	0.716600	0.817200	0.625000
C941	C94	0.789100	0.838800	0.659500
C951	C95	0.773800	0.786000	0.687000
C961	C96	0.493700	0.921400	0.454800
C971	C97	0.573800	0.934400	0.481600
C981	C98	0.572500	0.882000	0.507000
C991	C99	0.485900	0.816600	0.505500
C1001	C100	0.406100	0.808000	0.478800
C1011	C101	0.071500	0.119200	0.590800
C1021	C102	0.983400	0.056800	0.594000
C1031	C103	0.916500	0.029400	0.557800
C1041	C104	0.935400	0.065200	0.522000
C1051	C105	0.024900	0.126400	0.523300
C1061	C106	0.727600	0.866200	0.591600
C1071	C107	0.661300	0.896400	0.535500
C1081	C108	0.820600	0.962000	0.560100
C1091	C109	0.248700	0.690600	0.333600
C1101	C110	0.270200	0.645600	0.298900
C1111	C111	0.368600	0.664600	0.288800
C1121	C112	0.439500	0.728000	0.315500
C1131	C113	0.410700	0.771600	0.349200
C1141	C114	0.225400	0.355600	0.095900
C1151	C115	0.301000	0.413200	0.123000
C1161	C116	0.279200	0.454600	0.161000
C1171	C117	0.179400	0.431400	0.169300
C1181	C118	0.110000	0.374000	0.141000
C1191	C119	0.786200	0.679600	0.247300
C1201	C120	0.689500	0.668800	0.245600
C1211	C121	0.621700	0.605600	0.215600
C1221	C122	0.656800	0.557600	0.189100
C1231	C123	0.756100	0.570800	0.194000
C1241	C124	0.396500	0.617200	0.252300
C1251	C125	0.355400	0.517800	0.192800
C1261	C126	0.515900	0.590600	0.216300
C1271	C127	0.066800	0.698400	0.150000
C1281	C128	0.108100	0.744600	0.120000
C1291	C129	0.100600	0.817200	0.125000
C1301	C130	0.049700	0.838800	0.159500
C1311	C131	0.012200	0.786000	0.187000
C1321	C132	0.427700	0.921400	0.954800
C1331	C133	0.360600	0.934400	0.981600
C1341	C134	0.309500	0.882000	0.007000
C1351	C135	0.330700	0.816600	0.005500
C1361	C136	0.401900	0.808000	0.978800
C1371	C137	0.047700	0.119200	0.090800
C1381	C138	0.073400	0.056800	0.094000
C1391	C139	0.112900	0.029400	0.057800
C1401	C140	0.129800	0.065200	0.022000
C1411	C141	0.101500	0.126400	0.023300
C1421	C142	0.138600	0.866200	0.091600
C1431	C143	0.235100	0.896400	0.035500
C1441	C144	0.141400	0.962000	0.060100
I131	I13	0.624030	0.945640	0.871220
I141	I14	0.616400	0.755480	0.945230
I151	I15	0.238110	0.286960	0.486530
I161	I16	0.351040	0.214660	0.597980
I171	I17	0.532390	0.529280	0.705320
I181	I18	0.710820	0.739800	0.807870
I191	I19	0.321610	0.945640	0.371220
I201	I20	0.139080	0.755480	0.445230
I211	I21	0.048850	0.286960	0.986530
I221	I22	0.863620	0.214660	0.097980
I231	I23	0.996890	0.529280	0.205320
I241	I24	0.028980	0.739800	0.307870
N251	N25	0.436330	0.754660	0.859200
N261	N26	0.204290	0.334580	0.603800
N271	N27	0.811430	0.630460	0.721800
N281	N28	0.233400	0.557200	0.725850
N291	N29	0.080530	0.532460	0.685700
N301	N30	0.145200	0.638400	0.748490
N311	N31	0.698030	0.720860	0.685000
N321	N32	0.408500	0.857000	0.452800
N331	N33	0.093160	0.154120	0.556900
N341	N34	0.645340	0.850480	0.566200
N351	N35	0.745470	0.949740	0.529660
N361	N36	0.814310	0.922820	0.591500
N371	N37	0.318330	0.754660	0.359200
N381	N38	0.130290	0.334580	0.103800
N391	N39	0.819030	0.630460	0.221800
N401	N40	0.323800	0.557200	0.225850
N411	N41	0.451930	0.532460	0.185700
N421	N42	0.493200	0.638400	0.248490
N431	N43	0.022830	0.720860	0.185000
N441	N44	0.448500	0.857000	0.952800
N451	N45	0.060960	0.154120	0.056900
N461	N46	0.205140	0.850480	0.066200
N471	N47	0.204270	0.949740	0.029660
N481	N48	0.108510	0.922820	0.091500
