data_REYBAA_freeONLY_PM
_symmetry_space_group_name_H-M	'P1'
_cell_length_a	8.158000
_cell_length_b	17.418000
_cell_length_c	17.558000
_cell_angle_alpha	90.000000
_cell_angle_beta	98.280000
_cell_angle_gamma	90.000000
_symmetry_Int_Tables_number 1

loop_
_symmetry_equiv_pos_as_xyz
'x,y,z'

loop_
_atom_site_label
_atom_site_type_symbol
_atom_site_fract_x
_atom_site_fract_y
_atom_site_fract_z
Zn11	Zn1	0.754190	0.305830	0.751740
Zn21	Zn2	0.745810	0.805830	0.748260
Zn31	Zn3	0.245810	0.694170	0.248260
Zn41	Zn4	0.254190	0.194170	0.251740
H11	H1	0.050900	0.272100	0.974700
H21	H2	0.494200	0.333500	0.086300
H31	H3	0.349100	0.402800	0.868300
H41	H4	0.674700	0.434600	0.078400
H51	H5	0.751000	0.360200	0.047100
H61	H6	0.005900	0.437700	0.115400
H71	H7	0.768600	0.493200	0.908800
H81	H8	0.414400	0.240200	0.694700
H91	H9	0.200700	0.178800	0.738600
H101	H10	0.482400	0.165700	0.945900
H111	H11	0.684700	0.231200	0.896200
H121	H12	0.730800	0.090400	0.782400
H131	H13	0.627700	0.969800	0.747300
H141	H14	0.065800	0.879900	0.788900
H151	H15	0.182200	0.996200	0.827300
H161	H16	0.449100	0.772100	0.525300
H171	H17	0.005800	0.833500	0.413700
H181	H18	0.150900	0.902800	0.631700
H191	H19	0.825300	0.934600	0.421600
H201	H20	0.749000	0.860200	0.452900
H211	H21	0.494100	0.937700	0.384600
H221	H22	0.731400	0.993200	0.591200
H231	H23	0.085600	0.740200	0.805300
H241	H24	0.299300	0.678800	0.761400
H251	H25	0.017600	0.665700	0.554100
H261	H26	0.815300	0.731200	0.603800
H271	H27	0.769200	0.590400	0.717600
H281	H28	0.872300	0.469800	0.752700
H291	H29	0.434200	0.379900	0.711100
H301	H30	0.317800	0.496200	0.672700
H311	H31	0.949100	0.727900	0.025300
H321	H32	0.505800	0.666500	0.913700
H331	H33	0.650900	0.597200	0.131700
H341	H34	0.325300	0.565400	0.921600
H351	H35	0.249000	0.639800	0.952900
H361	H36	0.994100	0.562300	0.884600
H371	H37	0.231400	0.506800	0.091200
H381	H38	0.585600	0.759800	0.305300
H391	H39	0.799300	0.821200	0.261400
H401	H40	0.517600	0.834300	0.054100
H411	H41	0.315300	0.768800	0.103800
H421	H42	0.269200	0.909600	0.217600
H431	H43	0.372300	0.030200	0.252700
H441	H44	0.934200	0.120100	0.211100
H451	H45	0.817800	0.003800	0.172700
H461	H46	0.550900	0.227900	0.474700
H471	H47	0.994200	0.166500	0.586300
H481	H48	0.849100	0.097200	0.368300
H491	H49	0.174700	0.065400	0.578400
H501	H50	0.251000	0.139800	0.547100
H511	H51	0.505900	0.062300	0.615400
H521	H52	0.268600	0.006800	0.408800
H531	H53	0.914400	0.259800	0.194700
H541	H54	0.700700	0.321200	0.238600
H551	H55	0.982400	0.334300	0.445900
H561	H56	0.184700	0.268800	0.396200
H571	H57	0.230800	0.409600	0.282400
H581	H58	0.127700	0.530200	0.247300
H591	H59	0.565800	0.620100	0.288900
H601	H60	0.682200	0.503800	0.327300
C11	C1	0.057000	0.338600	0.839600
C21	C2	0.180800	0.337200	0.911500
C31	C3	0.150900	0.297800	0.975200
C41	C4	0.268300	0.295600	0.040400
C51	C5	0.231200	0.252800	0.110800
C61	C6	0.416200	0.333900	0.042100
C71	C7	0.447300	0.373200	0.976800
C81	C8	0.328900	0.375600	0.911500
C91	C9	0.716500	0.412400	0.034300
C101	C10	0.862800	0.458700	0.015800
C111	C11	0.002500	0.463100	0.068500
C121	C12	0.861800	0.496000	0.946000
C131	C13	0.426700	0.226000	0.746200
C141	C14	0.297700	0.188700	0.771900
C151	C15	0.313500	0.165800	0.848600
C161	C16	0.464600	0.181500	0.894800
C171	C17	0.586300	0.220300	0.864300
C181	C18	0.971400	0.057000	0.811300
C191	C19	0.801600	0.048300	0.785400
C201	C20	0.740500	0.975100	0.764000
C211	C21	0.997600	0.922700	0.788800
C221	C22	0.068600	0.992700	0.811700
C231	C23	0.443000	0.838600	0.660400
C241	C24	0.319200	0.837200	0.588500
C251	C25	0.349100	0.797800	0.524800
C261	C26	0.231700	0.795600	0.459600
C271	C27	0.268800	0.752800	0.389200
C281	C28	0.083800	0.833900	0.457900
C291	C29	0.052700	0.873200	0.523200
C301	C30	0.171100	0.875600	0.588500
C311	C31	0.783500	0.912400	0.465700
C321	C32	0.637200	0.958700	0.484200
C331	C33	0.497500	0.963100	0.431500
C341	C34	0.638200	0.996000	0.554000
C351	C35	0.073300	0.726000	0.753800
C361	C36	0.202300	0.688700	0.728100
C371	C37	0.186500	0.665800	0.651400
C381	C38	0.035400	0.681500	0.605200
C391	C39	0.913700	0.720300	0.635700
C401	C40	0.528600	0.557000	0.688700
C411	C41	0.698400	0.548300	0.714600
C421	C42	0.759500	0.475100	0.736000
C431	C43	0.502400	0.422700	0.711200
C441	C44	0.431400	0.492700	0.688300
C451	C45	0.943000	0.661400	0.160400
C461	C46	0.819200	0.662800	0.088500
C471	C47	0.849100	0.702200	0.024800
C481	C48	0.731700	0.704400	0.959600
C491	C49	0.768800	0.747200	0.889200
C501	C50	0.583800	0.666100	0.957900
C511	C51	0.552700	0.626800	0.023200
C521	C52	0.671100	0.624400	0.088500
C531	C53	0.283500	0.587600	0.965700
C541	C54	0.137200	0.541300	0.984200
C551	C55	0.997500	0.536900	0.931500
C561	C56	0.138200	0.504000	0.054000
C571	C57	0.573300	0.774000	0.253800
C581	C58	0.702300	0.811300	0.228100
C591	C59	0.686500	0.834200	0.151400
C601	C60	0.535400	0.818500	0.105200
C611	C61	0.413700	0.779700	0.135700
C621	C62	0.028600	0.943000	0.188700
C631	C63	0.198400	0.951700	0.214600
C641	C64	0.259500	0.024900	0.236000
C651	C65	0.002400	0.077300	0.211200
C661	C66	0.931400	0.007300	0.188300
C671	C67	0.557000	0.161400	0.339600
C681	C68	0.680800	0.162800	0.411500
C691	C69	0.650900	0.202200	0.475200
C701	C70	0.768300	0.204400	0.540400
C711	C71	0.731200	0.247200	0.610800
C721	C72	0.916200	0.166100	0.542100
C731	C73	0.947300	0.126800	0.476800
C741	C74	0.828900	0.124400	0.411500
C751	C75	0.216500	0.087600	0.534300
C761	C76	0.362800	0.041300	0.515800
C771	C77	0.502500	0.036900	0.568500
C781	C78	0.361800	0.004000	0.446000
C791	C79	0.926700	0.274000	0.246200
C801	C80	0.797700	0.311300	0.271900
C811	C81	0.813500	0.334200	0.348600
C821	C82	0.964600	0.318500	0.394800
C831	C83	0.086300	0.279700	0.364300
C841	C84	0.471400	0.443000	0.311300
C851	C85	0.301600	0.451700	0.285400
C861	C86	0.240500	0.524900	0.264000
C871	C87	0.497600	0.577300	0.288800
C881	C88	0.568600	0.507300	0.311700
N11	N1	0.570300	0.243400	0.790600
N21	N2	0.189600	0.129300	0.879300
N31	N3	0.032900	0.126800	0.836700
N41	N4	0.832800	0.914100	0.766400
N51	N5	0.929700	0.743400	0.709400
N61	N6	0.310400	0.629300	0.620700
N71	N7	0.467100	0.626800	0.663300
N81	N8	0.667200	0.414100	0.733600
N91	N9	0.429700	0.756600	0.209400
N101	N10	0.810400	0.870700	0.120700
N111	N11	0.967100	0.873200	0.163300
N121	N12	0.167200	0.085900	0.233600
N131	N13	0.070300	0.256600	0.290600
N141	N14	0.689600	0.370700	0.379300
N151	N15	0.532900	0.373200	0.336700
N161	N16	0.332800	0.585900	0.266400
O11	O1	0.926700	0.296000	0.840700
O21	O2	0.080300	0.377600	0.783700
O31	O3	0.096100	0.218900	0.109800
O41	O4	0.339700	0.253200	0.169900
O51	O5	0.590500	0.412300	0.970300
O61	O6	0.573300	0.796000	0.659300
O71	O7	0.419700	0.877600	0.716300
O81	O8	0.403900	0.718900	0.390200
O91	O9	0.160300	0.753200	0.330100
O101	O10	0.909500	0.912300	0.529700
O111	O11	0.073300	0.704000	0.159300
O121	O12	0.919700	0.622400	0.216300
O131	O13	0.903900	0.781100	0.890200
O141	O14	0.660300	0.746800	0.830100
O151	O15	0.409500	0.587700	0.029700
O161	O16	0.426700	0.204000	0.340700
O171	O17	0.580300	0.122400	0.283700
O181	O18	0.596100	0.281100	0.609800
O191	O19	0.839700	0.246800	0.669900
O201	O20	0.090500	0.087700	0.470300
