data_REYCOP_freeONLY_PM
_symmetry_space_group_name_H-M	'P1'
_cell_length_a	9.389800
_cell_length_b	17.091700
_cell_length_c	19.860100
_cell_angle_alpha	90.000000
_cell_angle_beta	90.000000
_cell_angle_gamma	100.428000
_symmetry_Int_Tables_number 1

loop_
_symmetry_equiv_pos_as_xyz
'x,y,z'

loop_
_atom_site_label
_atom_site_type_symbol
_atom_site_fract_x
_atom_site_fract_y
_atom_site_fract_z
Zn11	Zn1	0.067070	0.278100	0.818700
Zn21	Zn2	0.432930	0.221900	0.318700
Zn31	Zn3	0.932930	0.721900	0.181300
Zn41	Zn4	0.567070	0.778100	0.681300
H11	H1	0.783300	0.058100	0.767000
H21	H2	0.381000	0.942300	0.809400
H31	H3	0.533500	0.153000	0.896500
H41	H4	0.163100	0.969300	0.854000
H51	H5	0.251600	0.930200	0.907800
H61	H6	0.946700	0.015100	0.887200
H71	H7	0.214900	0.963400	0.030500
H81	H8	0.119200	0.125400	0.758200
H91	H9	0.259800	0.077800	0.680300
H101	H10	0.486900	0.296300	0.660000
H111	H11	0.340900	0.338400	0.739400
H121	H12	0.420800	0.155200	0.561200
H131	H13	0.481300	0.099100	0.612100
H141	H14	0.690100	0.133400	0.527800
H151	H15	0.624400	0.203100	0.495800
H161	H16	0.825400	0.294300	0.531000
H171	H17	0.873900	0.230100	0.484000
H181	H18	0.920300	0.217000	0.681700
H191	H19	0.855600	0.287600	0.650800
H201	H20	0.667500	0.191200	0.693500
H211	H21	0.715600	0.126200	0.647200
H221	H22	0.061700	0.321300	0.576500
H231	H23	0.120500	0.256200	0.618100
H241	H24	0.050000	0.141400	0.490700
H251	H25	0.194900	0.122300	0.401800
H261	H26	0.444800	0.324300	0.434900
H271	H27	0.309800	0.349200	0.525100
H281	H28	0.716700	0.441900	0.267000
H291	H29	0.119000	0.557700	0.309400
H301	H30	0.966500	0.347000	0.396500
H311	H31	0.336900	0.530700	0.354000
H321	H32	0.248400	0.569800	0.407800
H331	H33	0.553300	0.484900	0.387200
H341	H34	0.285100	0.536600	0.530500
H351	H35	0.380800	0.374600	0.258200
H361	H36	0.240200	0.422200	0.180300
H371	H37	0.013100	0.203700	0.160000
H381	H38	0.159100	0.161600	0.239400
H391	H39	0.079200	0.344800	0.061200
H401	H40	0.018700	0.400900	0.112100
H411	H41	0.809900	0.366600	0.027800
H421	H42	0.875600	0.296900	0.995800
H431	H43	0.674600	0.205700	0.031000
H441	H44	0.626100	0.269900	0.984000
H451	H45	0.579700	0.283000	0.181700
H461	H46	0.644400	0.212400	0.150800
H471	H47	0.832500	0.308800	0.193500
H481	H48	0.784400	0.373800	0.147200
H491	H49	0.438300	0.178700	0.076500
H501	H50	0.379500	0.243800	0.118100
H511	H51	0.450000	0.358600	0.990700
H521	H52	0.305100	0.377700	0.901800
H531	H53	0.055200	0.175700	0.934900
H541	H54	0.190200	0.150800	0.025100
H551	H55	0.216700	0.941900	0.233000
H561	H56	0.619000	0.057700	0.190600
H571	H57	0.466500	0.847000	0.103500
H581	H58	0.836900	0.030700	0.146000
H591	H59	0.748400	0.069800	0.092200
H601	H60	0.053300	0.984900	0.112800
H611	H61	0.785100	0.036600	0.969500
H621	H62	0.880800	0.874600	0.241800
H631	H63	0.740200	0.922200	0.319700
H641	H64	0.513100	0.703700	0.340000
H651	H65	0.659100	0.661600	0.260600
H661	H66	0.579200	0.844800	0.438800
H671	H67	0.518700	0.900900	0.387900
H681	H68	0.309900	0.866600	0.472200
H691	H69	0.375600	0.796900	0.504200
H701	H70	0.174600	0.705700	0.469000
H711	H71	0.126100	0.769900	0.516000
H721	H72	0.079700	0.783000	0.318300
H731	H73	0.144400	0.712400	0.349200
H741	H74	0.332500	0.808800	0.306500
H751	H75	0.284400	0.873800	0.352800
H761	H76	0.938300	0.678700	0.423500
H771	H77	0.879500	0.743800	0.381900
H781	H78	0.950000	0.858600	0.509300
H791	H79	0.805100	0.877700	0.598200
H801	H80	0.555200	0.675700	0.565100
H811	H81	0.690200	0.650800	0.474900
H821	H82	0.283300	0.558100	0.733000
H831	H83	0.881000	0.442300	0.690600
H841	H84	0.033500	0.653000	0.603500
H851	H85	0.663100	0.469300	0.646000
H861	H86	0.751600	0.430200	0.592200
H871	H87	0.446700	0.515100	0.612800
H881	H88	0.714900	0.463400	0.469500
H891	H89	0.619200	0.625400	0.741800
H901	H90	0.759800	0.577800	0.819700
H911	H91	0.986900	0.796300	0.840000
H921	H92	0.840900	0.838400	0.760600
H931	H93	0.920800	0.655200	0.938800
H941	H94	0.981300	0.599100	0.887900
H951	H95	0.190100	0.633400	0.972200
H961	H96	0.124400	0.703100	0.004200
H971	H97	0.325400	0.794300	0.969000
H981	H98	0.373900	0.730100	0.016000
H991	H99	0.420300	0.717000	0.818300
H1001	H100	0.355600	0.787600	0.849200
H1011	H101	0.167500	0.691200	0.806500
H1021	H102	0.215600	0.626200	0.852800
H1031	H103	0.561700	0.821300	0.923500
H1041	H104	0.620500	0.756200	0.881900
H1051	H105	0.550000	0.641400	0.009300
H1061	H106	0.694900	0.622300	0.098200
H1071	H107	0.944800	0.824300	0.065100
H1081	H108	0.809800	0.849200	0.974900
C11	C1	0.795100	0.188000	0.842500
C21	C2	0.677000	0.117200	0.832900
C31	C3	0.695600	0.055900	0.789400
C41	C4	0.584600	0.991900	0.779200
C51	C5	0.607000	0.927300	0.731500
C61	C6	0.454800	0.986000	0.815200
C71	C7	0.438200	0.046400	0.859400
C81	C8	0.547300	0.112200	0.867600
C91	C9	0.209000	0.976500	0.897800
C101	C10	0.099800	0.987400	0.951000
C111	C11	0.968500	0.009100	0.932400
C121	C12	0.128100	0.978300	0.018000
C131	C13	0.193800	0.160800	0.737900
C141	C14	0.277400	0.131700	0.690700
C151	C15	0.388000	0.182600	0.658700
C161	C16	0.411400	0.260100	0.678700
C171	C17	0.323000	0.285100	0.726800
C181	C18	0.472600	0.153900	0.603300
C191	C19	0.684100	0.189200	0.532200
C201	C20	0.832100	0.238500	0.527500
C211	C21	0.860500	0.231700	0.645700
C221	C22	0.709800	0.182200	0.650300
C231	C23	0.069400	0.265400	0.577300
C241	C24	0.158800	0.248900	0.517900
C251	C25	0.129500	0.180400	0.480100
C261	C26	0.217200	0.169100	0.426400
C271	C27	0.363200	0.287100	0.446000
C281	C28	0.282100	0.302700	0.500300
C291	C29	0.704900	0.312000	0.342500
C301	C30	0.823000	0.382800	0.332900
C311	C31	0.804400	0.444100	0.289400
C321	C32	0.915400	0.508100	0.279200
C331	C33	0.893000	0.572700	0.231500
C341	C34	0.045200	0.514000	0.315200
C351	C35	0.061800	0.453600	0.359400
C361	C36	0.952700	0.387800	0.367600
C371	C37	0.291000	0.523500	0.397800
C381	C38	0.400200	0.512600	0.451000
C391	C39	0.531500	0.490900	0.432400
C401	C40	0.371900	0.521700	0.518000
C411	C41	0.306200	0.339200	0.237900
C421	C42	0.222600	0.368300	0.190700
C431	C43	0.112000	0.317400	0.158700
C441	C44	0.088600	0.239900	0.178700
C451	C45	0.177000	0.214900	0.226800
C461	C46	0.027400	0.346100	0.103300
C471	C47	0.815900	0.310800	0.032200
C481	C48	0.667900	0.261500	0.027500
C491	C49	0.639500	0.268300	0.145700
C501	C50	0.790200	0.317800	0.150300
C511	C51	0.430600	0.234600	0.077300
C521	C52	0.341200	0.251100	0.017900
C531	C53	0.370500	0.319600	0.980100
C541	C54	0.282800	0.330900	0.926400
C551	C55	0.136800	0.212900	0.946000
C561	C56	0.217900	0.197300	0.000300
C571	C57	0.204900	0.812000	0.157500
C581	C58	0.323000	0.882800	0.167100
C591	C59	0.304400	0.944100	0.210600
C601	C60	0.415400	0.008100	0.220800
C611	C61	0.393000	0.072700	0.268500
C621	C62	0.545200	0.014000	0.184800
C631	C63	0.561800	0.953600	0.140600
C641	C64	0.452700	0.887800	0.132400
C651	C65	0.791000	0.023500	0.102200
C661	C66	0.900200	0.012600	0.049000
C671	C67	0.031500	0.990900	0.067600
C681	C68	0.871900	0.021700	0.982000
C691	C69	0.806200	0.839200	0.262100
C701	C70	0.722600	0.868300	0.309300
C711	C71	0.612000	0.817400	0.341300
C721	C72	0.588600	0.739900	0.321300
C731	C73	0.677000	0.714900	0.273200
C741	C74	0.527400	0.846100	0.396700
C751	C75	0.315900	0.810800	0.467800
C761	C76	0.167900	0.761500	0.472500
C771	C77	0.139500	0.768300	0.354300
C781	C78	0.290200	0.817800	0.349700
C791	C79	0.930600	0.734600	0.422700
C801	C80	0.841200	0.751100	0.482100
C811	C81	0.870500	0.819600	0.519900
C821	C82	0.782800	0.830900	0.573600
C831	C83	0.636800	0.712900	0.554000
C841	C84	0.717900	0.697300	0.499700
C851	C85	0.295100	0.688000	0.657500
C861	C86	0.177000	0.617200	0.667100
C871	C87	0.195600	0.555900	0.710600
C881	C88	0.084600	0.491900	0.720800
C891	C89	0.107000	0.427300	0.768500
C901	C90	0.954800	0.486000	0.684800
C911	C91	0.938200	0.546400	0.640600
C921	C92	0.047300	0.612200	0.632400
C931	C93	0.709000	0.476500	0.602200
C941	C94	0.599800	0.487400	0.549000
C951	C95	0.468500	0.509100	0.567600
C961	C96	0.628100	0.478300	0.482000
C971	C97	0.693800	0.660800	0.762100
C981	C98	0.777400	0.631700	0.809300
C991	C99	0.888000	0.682600	0.841300
C1001	C100	0.911400	0.760100	0.821300
C1011	C101	0.823000	0.785100	0.773200
C1021	C102	0.972600	0.653900	0.896700
C1031	C103	0.184100	0.689200	0.967800
C1041	C104	0.332100	0.738500	0.972500
C1051	C105	0.360500	0.731700	0.854300
C1061	C106	0.209800	0.682200	0.849700
C1071	C107	0.569400	0.765400	0.922700
C1081	C108	0.658800	0.748900	0.982100
C1091	C109	0.629500	0.680400	0.019900
C1101	C110	0.717200	0.669100	0.073600
C1111	C111	0.863200	0.787100	0.054000
C1121	C112	0.782100	0.802700	0.999700
N11	N1	0.213500	0.236600	0.756000
N21	N2	0.618500	0.202700	0.596900
N31	N3	0.925500	0.218600	0.580200
N41	N4	0.332000	0.222300	0.408630
N51	N5	0.286500	0.263400	0.256000
N61	N6	0.881500	0.297300	0.096900
N71	N7	0.574500	0.281400	0.080200
N81	N8	0.168000	0.277700	0.908630
N91	N9	0.786500	0.763400	0.244000
N101	N10	0.381500	0.797300	0.403100
N111	N11	0.074500	0.781400	0.419800
N121	N12	0.668000	0.777700	0.591370
N131	N13	0.713500	0.736600	0.744000
N141	N14	0.118500	0.702700	0.903100
N151	N15	0.425500	0.718600	0.919800
N161	N16	0.832000	0.722300	0.091370
O11	O1	0.915310	0.183610	0.814980
O21	O2	0.773800	0.245700	0.875000
O31	O3	0.718900	0.933800	0.697900
O41	O4	0.507970	0.865770	0.729150
O51	O5	0.316600	0.045900	0.898300
O61	O6	0.584690	0.316390	0.314980
O71	O7	0.726200	0.254300	0.375000
O81	O8	0.781100	0.566200	0.197900
O91	O9	0.992030	0.634230	0.229150
O101	O10	0.183400	0.454100	0.398300
O111	O11	0.084690	0.816390	0.185020
O121	O12	0.226200	0.754300	0.125000
O131	O13	0.281100	0.066200	0.302100
O141	O14	0.492030	0.134230	0.270850
O151	O15	0.683400	0.954100	0.101700
O161	O16	0.415310	0.683610	0.685020
O171	O17	0.273800	0.745700	0.625000
O181	O18	0.218900	0.433800	0.802100
O191	O19	0.007970	0.365770	0.770850
O201	O20	0.816600	0.545900	0.601700
