data_REYPIW_freeONLY_PM
_symmetry_space_group_name_H-M	'P1'
_cell_length_a	11.458100
_cell_length_b	11.681900
_cell_length_c	11.869600
_cell_angle_alpha	64.132000
_cell_angle_beta	81.202000
_cell_angle_gamma	72.663000
_symmetry_Int_Tables_number 1

loop_
_symmetry_equiv_pos_as_xyz
'x,y,z'

loop_
_atom_site_label
_atom_site_type_symbol
_atom_site_fract_x
_atom_site_fract_y
_atom_site_fract_z
Zn11	Zn1	0.000000	0.000000	0.500000
Zn21	Zn2	0.000000	0.500000	0.500000
Zn31	Zn3	0.000000	0.000000	0.000000
H11	H1	0.779800	0.999300	0.688000
H21	H2	0.640100	0.401900	0.367400
H31	H3	0.581900	0.117100	0.699600
H41	H4	0.208400	0.372200	0.699800
H51	H5	0.836400	0.276200	0.366200
H61	H6	0.416300	0.277100	0.714800
H71	H7	0.441700	0.441900	0.339100
H81	H8	0.233800	0.529800	0.336300
H91	H9	0.539600	0.194400	0.951400
H101	H10	0.841100	0.813700	0.031600
H111	H11	0.643900	0.807700	0.034700
H121	H12	0.740400	0.190000	0.945700
H131	H13	0.220200	0.000700	0.312000
H141	H14	0.359900	0.598100	0.632600
H151	H15	0.418100	0.882900	0.300400
H161	H16	0.791600	0.627800	0.300200
H171	H17	0.163600	0.723800	0.633800
H181	H18	0.583700	0.722900	0.285200
H191	H19	0.558300	0.558100	0.660900
H201	H20	0.766200	0.470200	0.663700
H211	H21	0.460400	0.805600	0.048600
H221	H22	0.158900	0.186300	0.968400
H231	H23	0.356100	0.192300	0.965300
H241	H24	0.259600	0.810000	0.054300
C11	C1	0.750800	0.080600	0.622300
C21	C2	0.023300	0.220500	0.619500
C31	C3	0.039600	0.966800	0.766600
C41	C4	0.453300	0.343700	0.527500
C51	C5	0.665700	0.319600	0.433000
C61	C6	0.631300	0.150600	0.629800
C71	C7	0.255800	0.384200	0.626600
C81	C8	0.051500	0.247600	0.483900
C91	C9	0.019600	0.111300	0.729800
C101	C10	0.585400	0.272400	0.531400
C111	C11	0.784000	0.243300	0.433100
C121	C12	0.381200	0.326400	0.636600
C131	C13	0.396300	0.423900	0.413900
C141	C14	0.270900	0.476900	0.413200
C151	C15	0.565600	0.000600	0.996700
C161	C16	0.599200	0.115200	0.968400
C171	C17	0.779500	0.891300	0.015200
C181	C18	0.660900	0.886600	0.018300
C191	C19	0.720300	0.111700	0.965500
C201	C20	0.249200	0.919400	0.377700
C211	C21	0.976700	0.779500	0.380500
C221	C22	0.960400	0.033200	0.233400
C231	C23	0.546700	0.656300	0.472500
C241	C24	0.334300	0.680400	0.567000
C251	C25	0.368700	0.849400	0.370200
C261	C26	0.744200	0.615800	0.373400
C271	C27	0.948500	0.752400	0.516100
C281	C28	0.980400	0.888700	0.270200
C291	C29	0.414600	0.727600	0.468600
C301	C30	0.216000	0.756700	0.566900
C311	C31	0.618800	0.673600	0.363400
C321	C32	0.603700	0.576100	0.586100
C331	C33	0.729100	0.523100	0.586800
C341	C34	0.434400	0.999400	0.003300
C351	C35	0.400800	0.884800	0.031600
C361	C36	0.220500	0.108700	0.984800
C371	C37	0.339100	0.113400	0.981700
C381	C38	0.279700	0.888300	0.034500
N11	N1	0.996800	0.324000	0.650500
N21	N2	0.826800	0.124200	0.525100
N31	N3	0.200400	0.455900	0.517200
N41	N4	0.976600	0.282900	0.773500
N51	N5	0.990700	0.153700	0.822500
N61	N6	0.811300	0.001400	0.989800
N71	N7	0.003200	0.676000	0.349500
N81	N8	0.173200	0.875800	0.474900
N91	N9	0.799600	0.544100	0.482800
N101	N10	0.023400	0.717100	0.226500
N111	N11	0.009300	0.846300	0.177500
N121	N12	0.188700	0.998600	0.010200
O11	O1	0.083600	0.154900	0.449600
O21	O2	0.043700	0.367200	0.411500
O31	O3	0.043600	0.922200	0.688300
O41	O4	0.052100	0.895700	0.883500
O51	O5	0.916400	0.845100	0.550400
O61	O6	0.956300	0.632800	0.588500
O71	O7	0.956400	0.077800	0.311700
O81	O8	0.947900	0.104300	0.116500
