data_REZXEA_freeONLY_PM
_symmetry_space_group_name_H-M	'P1'
_cell_length_a	15.626100
_cell_length_b	15.626100
_cell_length_c	15.960400
_cell_angle_alpha	90.000000
_cell_angle_beta	90.000000
_cell_angle_gamma	120.000000
_symmetry_Int_Tables_number 1

loop_
_symmetry_equiv_pos_as_xyz
'x,y,z'

loop_
_atom_site_label
_atom_site_type_symbol
_atom_site_fract_x
_atom_site_fract_y
_atom_site_fract_z
O11	O1	0.655300	0.484500	0.841400
C11	C1	0.441400	0.407500	0.965200
O21	O2	0.515500	0.170800	0.841400
C21	C2	0.592500	0.033900	0.965200
O31	O3	0.829200	0.344700	0.841400
C31	C3	0.966100	0.558600	0.965200
O41	O4	0.344700	0.515500	0.341400
C41	C4	0.558600	0.592500	0.465200
O51	O5	0.484500	0.829200	0.341400
C51	C5	0.407500	0.966100	0.465200
O61	O6	0.170800	0.655300	0.341400
C61	C6	0.033900	0.441400	0.465200
O71	O7	0.484500	0.655300	0.158600
C71	C7	0.407500	0.441400	0.034800
O81	O8	0.170800	0.515500	0.158600
C81	C8	0.033900	0.592500	0.034800
O91	O9	0.344700	0.829200	0.158600
C91	C9	0.558600	0.966100	0.034800
O101	O10	0.515500	0.344700	0.658600
C101	C10	0.592500	0.558600	0.534800
O111	O11	0.829200	0.484500	0.658600
C111	C11	0.966100	0.407500	0.534800
O121	O12	0.655300	0.170800	0.658600
C121	C12	0.441400	0.033900	0.534800
O131	O13	0.344700	0.515500	0.158600
C131	C13	0.558600	0.592500	0.034800
O141	O14	0.484500	0.829200	0.158600
C141	C14	0.407500	0.966100	0.034800
O151	O15	0.170800	0.655300	0.158600
C151	C15	0.033900	0.441400	0.034800
O161	O16	0.655300	0.484500	0.658600
C161	C16	0.441400	0.407500	0.534800
O171	O17	0.515500	0.170800	0.658600
C171	C17	0.592500	0.033900	0.534800
O181	O18	0.829200	0.344700	0.658600
C181	C18	0.966100	0.558600	0.534800
O191	O19	0.515500	0.344700	0.841400
C191	C19	0.592500	0.558600	0.965200
O201	O20	0.829200	0.484500	0.841400
C201	C20	0.966100	0.407500	0.965200
O211	O21	0.655300	0.170800	0.841400
C211	C21	0.441400	0.033900	0.965200
O221	O22	0.484500	0.655300	0.341400
C221	C22	0.407500	0.441400	0.465200
O231	O23	0.170800	0.515500	0.341400
C231	C23	0.033900	0.592500	0.465200
O241	O24	0.344700	0.829200	0.341400
C241	C24	0.558600	0.966100	0.465200
Cr11	Cr1	0.735200	0.470400	0.750000
O251	O25	0.810450	0.620900	0.750000
Cr21	Cr2	0.529600	0.264800	0.750000
O261	O26	0.379100	0.189550	0.750000
Cr31	Cr3	0.735200	0.264800	0.750000
O271	O27	0.810450	0.189550	0.750000
Cr41	Cr4	0.264800	0.529600	0.250000
O281	O28	0.189550	0.379100	0.250000
Cr51	Cr5	0.470400	0.735200	0.250000
O291	O29	0.620900	0.810450	0.250000
Cr61	Cr6	0.264800	0.735200	0.250000
O301	O30	0.189550	0.810450	0.250000
O311	O31	0.666670	0.333330	0.750000
O321	O32	0.333330	0.666670	0.250000
C251	C25	0.575700	0.424300	0.878600
C261	C26	0.542500	0.457500	0.948300
C271	C27	0.575700	0.151400	0.878600
C281	C28	0.542500	0.085000	0.948300
C291	C29	0.848600	0.424300	0.878600
C301	C30	0.915000	0.457500	0.948300
C311	C31	0.424300	0.575700	0.378600
C321	C32	0.457500	0.542500	0.448300
C331	C33	0.424300	0.848600	0.378600
C341	C34	0.457500	0.915000	0.448300
C351	C35	0.151400	0.575700	0.378600
C361	C36	0.085000	0.542500	0.448300
C371	C37	0.424300	0.575700	0.121400
C381	C38	0.457500	0.542500	0.051700
C391	C39	0.151400	0.575700	0.121400
C401	C40	0.085000	0.542500	0.051700
C411	C41	0.424300	0.848600	0.121400
C421	C42	0.457500	0.915000	0.051700
C431	C43	0.575700	0.424300	0.621400
C441	C44	0.542500	0.457500	0.551700
C451	C45	0.848600	0.424300	0.621400
C461	C46	0.915000	0.457500	0.551700
C471	C47	0.575700	0.151400	0.621400
C481	C48	0.542500	0.085000	0.551700
C491	C49	0.842050	0.684100	0.818200
C501	C50	0.315900	0.157950	0.818200
C511	C51	0.842050	0.157950	0.818200
C521	C52	0.157950	0.315900	0.318200
C531	C53	0.684100	0.842050	0.318200
C541	C54	0.157950	0.842050	0.318200
C551	C55	0.684100	0.842050	0.181800
C561	C56	0.157950	0.315900	0.181800
C571	C57	0.157950	0.842050	0.181800
C581	C58	0.315900	0.157950	0.681800
C591	C59	0.842050	0.684100	0.681800
C601	C60	0.842050	0.157950	0.681800
