data_RICHIV_freeONLY_PM
_symmetry_space_group_name_H-M	'P1'
_cell_length_a	9.878500
_cell_length_b	11.198600
_cell_length_c	14.745600
_cell_angle_alpha	93.919000
_cell_angle_beta	97.409000
_cell_angle_gamma	104.517000
_symmetry_Int_Tables_number 1

loop_
_symmetry_equiv_pos_as_xyz
'x,y,z'

loop_
_atom_site_label
_atom_site_type_symbol
_atom_site_fract_x
_atom_site_fract_y
_atom_site_fract_z
La11	La1	0.381970	0.524800	0.882450
La21	La2	0.175820	0.578470	0.614740
La31	La3	0.618030	0.475200	0.117550
La41	La4	0.824180	0.421530	0.385260
H11	H1	0.136000	0.889700	0.807200
H21	H2	0.412100	0.905700	0.880000
H31	H3	0.354000	0.922900	0.779200
H41	H4	0.050100	0.862200	0.932400
H51	H5	0.196500	0.863200	0.988300
H61	H6	0.167700	0.053200	0.026000
H71	H7	0.113800	0.068600	0.924100
H81	H8	0.332900	0.112800	0.818500
H91	H9	0.475200	0.111300	0.878800
H101	H10	0.375300	0.077500	0.001500
H111	H11	0.054700	0.232500	0.808900
H121	H12	0.841100	0.171600	0.700300
H131	H13	0.827000	0.133400	0.799600
H141	H14	0.086500	0.415700	0.911500
H151	H15	0.982000	0.298000	0.938700
H161	H16	0.885200	0.467800	0.951900
H171	H17	0.895400	0.487600	0.848300
H181	H18	0.634800	0.207800	0.752300
H191	H19	0.731600	0.328300	0.723100
H201	H20	0.723500	0.272100	0.906400
H211	H21	0.908200	0.762500	0.638900
H221	H22	0.769500	0.857300	0.544400
H231	H23	0.633200	0.752000	0.550500
H241	H24	0.812700	0.574700	0.697300
H251	H25	0.660300	0.571000	0.649000
H261	H26	0.682100	0.641800	0.803400
H271	H27	0.817400	0.747300	0.795500
H281	H28	0.788300	0.927000	0.699000
H291	H29	0.636300	0.923400	0.650100
H301	H30	0.633600	0.837500	0.793100
H311	H31	0.864000	0.110300	0.192800
H321	H32	0.587900	0.094300	0.120000
H331	H33	0.646000	0.077100	0.220800
H341	H34	0.949900	0.137800	0.067600
H351	H35	0.803500	0.136800	0.011700
H361	H36	0.832300	0.946800	0.974000
H371	H37	0.886200	0.931400	0.075900
H381	H38	0.667100	0.887200	0.181500
H391	H39	0.524800	0.888700	0.121200
H401	H40	0.624700	0.922500	0.998500
H411	H41	0.945300	0.767500	0.191100
H421	H42	0.158900	0.828400	0.299700
H431	H43	0.173000	0.866600	0.200400
H441	H44	0.913500	0.584300	0.088500
H451	H45	0.018000	0.702000	0.061300
H461	H46	0.114800	0.532200	0.048100
H471	H47	0.104600	0.512400	0.151700
H481	H48	0.365200	0.792200	0.247700
H491	H49	0.268400	0.671700	0.276900
H501	H50	0.276500	0.727900	0.093600
H511	H51	0.091800	0.237500	0.361100
H521	H52	0.230500	0.142700	0.455600
H531	H53	0.366800	0.248000	0.449500
H541	H54	0.187300	0.425300	0.302700
H551	H55	0.339700	0.429000	0.351000
H561	H56	0.317900	0.358200	0.196600
H571	H57	0.182600	0.252700	0.204500
H581	H58	0.211700	0.073000	0.301000
H591	H59	0.363700	0.076600	0.349900
H601	H60	0.366400	0.162500	0.206900
C11	C1	0.181300	0.729400	0.828900
C21	C2	0.199100	0.866000	0.855500
C31	C3	0.342800	0.937200	0.843100
C41	C4	0.151300	0.898500	0.938400
C51	C5	0.182100	0.038100	0.962800
C61	C6	0.373600	0.075500	0.869100
C71	C7	0.315800	0.105900	0.953700
C81	C8	0.355600	0.245000	0.980700
C91	C9	0.055100	0.377200	0.733600
C101	C10	0.992100	0.287300	0.798800
C111	C11	0.844300	0.203500	0.763600
C121	C12	0.994800	0.356900	0.893200
C131	C13	0.880300	0.425600	0.891400
C141	C14	0.725600	0.268700	0.768100
C151	C15	0.734000	0.335000	0.862800
C161	C16	0.619000	0.400200	0.869800
C171	C17	0.834100	0.632700	0.528400
C181	C18	0.814700	0.712500	0.609300
C191	C19	0.723700	0.799700	0.584300
C201	C20	0.749900	0.625700	0.678600
C211	C21	0.726700	0.698800	0.762700
C221	C22	0.699000	0.872400	0.668900
C231	C23	0.633600	0.785500	0.736900
C241	C24	0.480500	0.716500	0.701100
C251	C25	0.818700	0.270600	0.171100
C261	C26	0.800900	0.134000	0.144500
C271	C27	0.657200	0.062800	0.156900
C281	C28	0.848700	0.101500	0.061600
C291	C29	0.817900	0.961900	0.037200
C301	C30	0.626400	0.924500	0.130900
C311	C31	0.684200	0.894100	0.046300
C321	C32	0.644400	0.755000	0.019300
C331	C33	0.944900	0.622800	0.266400
C341	C34	0.007900	0.712700	0.201200
C351	C35	0.155700	0.796500	0.236400
C361	C36	0.005200	0.643100	0.106800
C371	C37	0.119700	0.574400	0.108600
C381	C38	0.274400	0.731300	0.231900
C391	C39	0.266000	0.665000	0.137200
C401	C40	0.381000	0.599800	0.130200
C411	C41	0.165900	0.367300	0.471600
C421	C42	0.185300	0.287500	0.390700
C431	C43	0.276300	0.200300	0.415700
C441	C44	0.250100	0.374300	0.321400
C451	C45	0.273300	0.301200	0.237300
C461	C46	0.301000	0.127600	0.331100
C471	C47	0.366400	0.214500	0.263100
C481	C48	0.519500	0.283500	0.298900
O11	O1	0.224700	0.664300	0.886400
O21	O2	0.127000	0.689300	0.747600
O31	O3	0.437000	0.284400	0.054600
O41	O4	0.308500	0.312600	0.926700
O51	O5	0.186800	0.430500	0.751400
O61	O6	0.984600	0.397800	0.665100
O71	O7	0.614400	0.455900	0.947500
O81	O8	0.530600	0.402700	0.801800
O91	O9	0.421100	0.623400	0.739000
O101	O10	0.410800	0.751500	0.637700
O111	O11	0.941100	0.587700	0.535100
O121	O12	0.742900	0.600700	0.456900
O131	O13	0.243400	0.660200	0.467200
O141	O14	0.164800	0.825600	0.580600
O151	O15	0.775300	0.335700	0.113600
O161	O16	0.873000	0.310700	0.252400
O171	O17	0.563000	0.715600	0.945400
O181	O18	0.691500	0.687400	0.073300
O191	O19	0.813200	0.569500	0.248600
O201	O20	0.015400	0.602200	0.334900
O211	O21	0.385600	0.544100	0.052500
O221	O22	0.469400	0.597300	0.198200
O231	O23	0.578900	0.376600	0.261000
O241	O24	0.589200	0.248500	0.362300
O251	O25	0.058900	0.412300	0.464900
O261	O26	0.257100	0.399300	0.543100
O271	O27	0.756600	0.339800	0.532800
O281	O28	0.835200	0.174400	0.419400
