data_RIDCEN_charged_PM
_symmetry_space_group_name_H-M	'P1'
_cell_length_a	22.456700
_cell_length_b	22.456700
_cell_length_c	22.456700
_cell_angle_alpha	90.000000
_cell_angle_beta	90.000000
_cell_angle_gamma	90.000000
_symmetry_Int_Tables_number 1

loop_
_symmetry_equiv_pos_as_xyz
'x,y,z'

loop_
_atom_site_label
_atom_site_type_symbol
_atom_site_fract_x
_atom_site_fract_y
_atom_site_fract_z
In11	In1	0.321900	0.739570	0.806510
In21	In2	0.678100	0.260430	0.806510
In31	In3	0.678100	0.739570	0.193490
In41	In4	0.321900	0.260430	0.193490
In51	In5	0.806510	0.321900	0.739570
In61	In6	0.806510	0.678100	0.260430
In71	In7	0.193490	0.678100	0.739570
In81	In8	0.193490	0.321900	0.260430
In91	In9	0.739570	0.806510	0.321900
In101	In10	0.260430	0.806510	0.678100
In111	In11	0.739570	0.193490	0.678100
In121	In12	0.260430	0.193490	0.321900
In131	In13	0.239570	0.821900	0.306510
In141	In14	0.760430	0.178100	0.306510
In151	In15	0.239570	0.178100	0.693490
In161	In16	0.760430	0.821900	0.693490
In171	In17	0.821900	0.306510	0.239570
In181	In18	0.178100	0.306510	0.760430
In191	In19	0.178100	0.693490	0.239570
In201	In20	0.821900	0.693490	0.760430
In211	In21	0.306510	0.239570	0.821900
In221	In22	0.306510	0.760430	0.178100
In231	In23	0.693490	0.239570	0.178100
In241	In24	0.693490	0.760430	0.821900
H11	H1	0.425200	0.795000	0.583300
H21	H2	0.606600	0.804300	0.592300
H31	H3	0.508200	0.778800	0.741600
H41	H4	0.574800	0.205000	0.583300
H51	H5	0.393400	0.195700	0.592300
H61	H6	0.491800	0.221200	0.741600
H71	H7	0.574800	0.795000	0.416700
H81	H8	0.393400	0.804300	0.407700
H91	H9	0.491800	0.778800	0.258400
H101	H10	0.425200	0.205000	0.416700
H111	H11	0.606600	0.195700	0.407700
H121	H12	0.508200	0.221200	0.258400
H131	H13	0.583300	0.425200	0.795000
H141	H14	0.592300	0.606600	0.804300
H151	H15	0.741600	0.508200	0.778800
H161	H16	0.583300	0.574800	0.205000
H171	H17	0.592300	0.393400	0.195700
H181	H18	0.741600	0.491800	0.221200
H191	H19	0.416700	0.574800	0.795000
H201	H20	0.407700	0.393400	0.804300
H211	H21	0.258400	0.491800	0.778800
H221	H22	0.416700	0.425200	0.205000
H231	H23	0.407700	0.606600	0.195700
H241	H24	0.258400	0.508200	0.221200
H251	H25	0.795000	0.583300	0.425200
H261	H26	0.804300	0.592300	0.606600
H271	H27	0.778800	0.741600	0.508200
H281	H28	0.205000	0.583300	0.574800
H291	H29	0.195700	0.592300	0.393400
H301	H30	0.221200	0.741600	0.491800
H311	H31	0.795000	0.416700	0.574800
H321	H32	0.804300	0.407700	0.393400
H331	H33	0.778800	0.258400	0.491800
H341	H34	0.205000	0.416700	0.425200
H351	H35	0.195700	0.407700	0.606600
H361	H36	0.221200	0.258400	0.508200
H371	H37	0.295000	0.925200	0.083300
H381	H38	0.304300	0.106600	0.092300
H391	H39	0.278800	0.008200	0.241600
H401	H40	0.705000	0.074800	0.083300
H411	H41	0.695700	0.893400	0.092300
H421	H42	0.721200	0.991800	0.241600
H431	H43	0.295000	0.074800	0.916700
H441	H44	0.304300	0.893400	0.907700
H451	H45	0.278800	0.991800	0.758400
H461	H46	0.705000	0.925200	0.916700
H471	H47	0.695700	0.106600	0.907700
H481	H48	0.721200	0.008200	0.758400
H491	H49	0.925200	0.083300	0.295000
H501	H50	0.106600	0.092300	0.304300
H511	H51	0.008200	0.241600	0.278800
H521	H52	0.074800	0.083300	0.705000
H531	H53	0.893400	0.092300	0.695700
H541	H54	0.991800	0.241600	0.721200
H551	H55	0.074800	0.916700	0.295000
H561	H56	0.893400	0.907700	0.304300
H571	H57	0.991800	0.758400	0.278800
H581	H58	0.925200	0.916700	0.705000
H591	H59	0.106600	0.907700	0.695700
H601	H60	0.008200	0.758400	0.721200
H611	H61	0.083300	0.295000	0.925200
H621	H62	0.092300	0.304300	0.106600
H631	H63	0.241600	0.278800	0.008200
H641	H64	0.083300	0.705000	0.074800
H651	H65	0.092300	0.695700	0.893400
H661	H66	0.241600	0.721200	0.991800
H671	H67	0.916700	0.295000	0.074800
H681	H68	0.907700	0.304300	0.893400
H691	H69	0.758400	0.278800	0.991800
H701	H70	0.916700	0.705000	0.925200
H711	H71	0.907700	0.695700	0.106600
H721	H72	0.758400	0.721200	0.008200
C11	C1	0.622900	0.794700	0.706300
C21	C2	0.460700	0.795000	0.606400
C31	C3	0.569000	0.800900	0.611400
C41	C4	0.565500	0.795400	0.671800
C51	C5	0.398700	0.779800	0.697200
C61	C6	0.456600	0.788900	0.665200
C71	C7	0.510100	0.786400	0.700000
C81	C8	0.515700	0.801500	0.577200
C91	C9	0.377100	0.205300	0.706300
C101	C10	0.539300	0.205000	0.606400
C111	C11	0.431000	0.199100	0.611400
C121	C12	0.434500	0.204600	0.671800
C131	C13	0.601300	0.220200	0.697200
C141	C14	0.543400	0.211100	0.665200
C151	C15	0.489900	0.213600	0.700000
C161	C16	0.484300	0.198500	0.577200
C171	C17	0.377100	0.794700	0.293700
C181	C18	0.539300	0.795000	0.393600
C191	C19	0.431000	0.800900	0.388600
C201	C20	0.434500	0.795400	0.328200
C211	C21	0.601300	0.779800	0.302800
C221	C22	0.543400	0.788900	0.334800
C231	C23	0.489900	0.786400	0.300000
C241	C24	0.484300	0.801500	0.422800
C251	C25	0.622900	0.205300	0.293700
C261	C26	0.460700	0.205000	0.393600
C271	C27	0.569000	0.199100	0.388600
C281	C28	0.565500	0.204600	0.328200
C291	C29	0.398700	0.220200	0.302800
C301	C30	0.456600	0.211100	0.334800
C311	C31	0.510100	0.213600	0.300000
C321	C32	0.515700	0.198500	0.422800
C331	C33	0.706300	0.622900	0.794700
C341	C34	0.606400	0.460700	0.795000
C351	C35	0.611400	0.569000	0.800900
C361	C36	0.671800	0.565500	0.795400
C371	C37	0.697200	0.398700	0.779800
C381	C38	0.665200	0.456600	0.788900
C391	C39	0.700000	0.510100	0.786400
C401	C40	0.577200	0.515700	0.801500
C411	C41	0.706300	0.377100	0.205300
C421	C42	0.606400	0.539300	0.205000
C431	C43	0.611400	0.431000	0.199100
C441	C44	0.671800	0.434500	0.204600
C451	C45	0.697200	0.601300	0.220200
C461	C46	0.665200	0.543400	0.211100
C471	C47	0.700000	0.489900	0.213600
C481	C48	0.577200	0.484300	0.198500
C491	C49	0.293700	0.377100	0.794700
C501	C50	0.393600	0.539300	0.795000
C511	C51	0.388600	0.431000	0.800900
C521	C52	0.328200	0.434500	0.795400
C531	C53	0.302800	0.601300	0.779800
C541	C54	0.334800	0.543400	0.788900
C551	C55	0.300000	0.489900	0.786400
C561	C56	0.422800	0.484300	0.801500
C571	C57	0.293700	0.622900	0.205300
C581	C58	0.393600	0.460700	0.205000
C591	C59	0.388600	0.569000	0.199100
C601	C60	0.328200	0.565500	0.204600
C611	C61	0.302800	0.398700	0.220200
C621	C62	0.334800	0.456600	0.211100
C631	C63	0.300000	0.510100	0.213600
C641	C64	0.422800	0.515700	0.198500
C651	C65	0.794700	0.706300	0.622900
C661	C66	0.795000	0.606400	0.460700
C671	C67	0.800900	0.611400	0.569000
C681	C68	0.795400	0.671800	0.565500
C691	C69	0.779800	0.697200	0.398700
C701	C70	0.788900	0.665200	0.456600
C711	C71	0.786400	0.700000	0.510100
C721	C72	0.801500	0.577200	0.515700
C731	C73	0.205300	0.706300	0.377100
C741	C74	0.205000	0.606400	0.539300
C751	C75	0.199100	0.611400	0.431000
C761	C76	0.204600	0.671800	0.434500
C771	C77	0.220200	0.697200	0.601300
C781	C78	0.211100	0.665200	0.543400
C791	C79	0.213600	0.700000	0.489900
C801	C80	0.198500	0.577200	0.484300
C811	C81	0.794700	0.293700	0.377100
C821	C82	0.795000	0.393600	0.539300
C831	C83	0.800900	0.388600	0.431000
C841	C84	0.795400	0.328200	0.434500
C851	C85	0.779800	0.302800	0.601300
C861	C86	0.788900	0.334800	0.543400
C871	C87	0.786400	0.300000	0.489900
C881	C88	0.801500	0.422800	0.484300
C891	C89	0.205300	0.293700	0.622900
C901	C90	0.205000	0.393600	0.460700
C911	C91	0.199100	0.388600	0.569000
C921	C92	0.204600	0.328200	0.565500
C931	C93	0.220200	0.302800	0.398700
C941	C94	0.211100	0.334800	0.456600
C951	C95	0.213600	0.300000	0.510100
C961	C96	0.198500	0.422800	0.515700
C971	C97	0.294700	0.122900	0.206300
C981	C98	0.295000	0.960700	0.106400
C991	C99	0.300900	0.069000	0.111400
C1001	C100	0.295400	0.065500	0.171800
C1011	C101	0.279800	0.898700	0.197200
C1021	C102	0.288900	0.956600	0.165200
C1031	C103	0.286400	0.010100	0.200000
C1041	C104	0.301500	0.015700	0.077200
C1051	C105	0.705300	0.877100	0.206300
C1061	C106	0.705000	0.039300	0.106400
C1071	C107	0.699100	0.931000	0.111400
C1081	C108	0.704600	0.934500	0.171800
C1091	C109	0.720200	0.101300	0.197200
C1101	C110	0.711100	0.043400	0.165200
C1111	C111	0.713600	0.989900	0.200000
C1121	C112	0.698500	0.984300	0.077200
C1131	C113	0.294700	0.877100	0.793700
C1141	C114	0.295000	0.039300	0.893600
C1151	C115	0.300900	0.931000	0.888600
C1161	C116	0.295400	0.934500	0.828200
C1171	C117	0.279800	0.101300	0.802800
C1181	C118	0.288900	0.043400	0.834800
C1191	C119	0.286400	0.989900	0.800000
C1201	C120	0.301500	0.984300	0.922800
C1211	C121	0.705300	0.122900	0.793700
C1221	C122	0.705000	0.960700	0.893600
C1231	C123	0.699100	0.069000	0.888600
C1241	C124	0.704600	0.065500	0.828200
C1251	C125	0.720200	0.898700	0.802800
C1261	C126	0.711100	0.956600	0.834800
C1271	C127	0.713600	0.010100	0.800000
C1281	C128	0.698500	0.015700	0.922800
C1291	C129	0.122900	0.206300	0.294700
C1301	C130	0.960700	0.106400	0.295000
C1311	C131	0.069000	0.111400	0.300900
C1321	C132	0.065500	0.171800	0.295400
C1331	C133	0.898700	0.197200	0.279800
C1341	C134	0.956600	0.165200	0.288900
C1351	C135	0.010100	0.200000	0.286400
C1361	C136	0.015700	0.077200	0.301500
C1371	C137	0.877100	0.206300	0.705300
C1381	C138	0.039300	0.106400	0.705000
C1391	C139	0.931000	0.111400	0.699100
C1401	C140	0.934500	0.171800	0.704600
C1411	C141	0.101300	0.197200	0.720200
C1421	C142	0.043400	0.165200	0.711100
C1431	C143	0.989900	0.200000	0.713600
C1441	C144	0.984300	0.077200	0.698500
C1451	C145	0.877100	0.793700	0.294700
C1461	C146	0.039300	0.893600	0.295000
C1471	C147	0.931000	0.888600	0.300900
C1481	C148	0.934500	0.828200	0.295400
C1491	C149	0.101300	0.802800	0.279800
C1501	C150	0.043400	0.834800	0.288900
C1511	C151	0.989900	0.800000	0.286400
C1521	C152	0.984300	0.922800	0.301500
C1531	C153	0.122900	0.793700	0.705300
C1541	C154	0.960700	0.893600	0.705000
C1551	C155	0.069000	0.888600	0.699100
C1561	C156	0.065500	0.828200	0.704600
C1571	C157	0.898700	0.802800	0.720200
C1581	C158	0.956600	0.834800	0.711100
C1591	C159	0.010100	0.800000	0.713600
C1601	C160	0.015700	0.922800	0.698500
C1611	C161	0.206300	0.294700	0.122900
C1621	C162	0.106400	0.295000	0.960700
C1631	C163	0.111400	0.300900	0.069000
C1641	C164	0.171800	0.295400	0.065500
C1651	C165	0.197200	0.279800	0.898700
C1661	C166	0.165200	0.288900	0.956600
C1671	C167	0.200000	0.286400	0.010100
C1681	C168	0.077200	0.301500	0.015700
C1691	C169	0.206300	0.705300	0.877100
C1701	C170	0.106400	0.705000	0.039300
C1711	C171	0.111400	0.699100	0.931000
C1721	C172	0.171800	0.704600	0.934500
C1731	C173	0.197200	0.720200	0.101300
C1741	C174	0.165200	0.711100	0.043400
C1751	C175	0.200000	0.713600	0.989900
C1761	C176	0.077200	0.698500	0.984300
C1771	C177	0.793700	0.294700	0.877100
C1781	C178	0.893600	0.295000	0.039300
C1791	C179	0.888600	0.300900	0.931000
C1801	C180	0.828200	0.295400	0.934500
C1811	C181	0.802800	0.279800	0.101300
C1821	C182	0.834800	0.288900	0.043400
C1831	C183	0.800000	0.286400	0.989900
C1841	C184	0.922800	0.301500	0.984300
C1851	C185	0.793700	0.705300	0.122900
C1861	C186	0.893600	0.705000	0.960700
C1871	C187	0.888600	0.699100	0.069000
C1881	C188	0.828200	0.704600	0.065500
C1891	C189	0.802800	0.720200	0.898700
C1901	C190	0.834800	0.711100	0.956600
C1911	C191	0.800000	0.713600	0.010100
C1921	C192	0.922800	0.698500	0.015700
N11	N1	0.522500	0.807700	0.515800
N21	N2	0.477500	0.192300	0.515800
N31	N3	0.477500	0.807700	0.484200
N41	N4	0.522500	0.192300	0.484200
N51	N5	0.515800	0.522500	0.807700
N61	N6	0.515800	0.477500	0.192300
N71	N7	0.484200	0.477500	0.807700
N81	N8	0.484200	0.522500	0.192300
N91	N9	0.807700	0.515800	0.522500
N101	N10	0.192300	0.515800	0.477500
N111	N11	0.807700	0.484200	0.477500
N121	N12	0.192300	0.484200	0.522500
N131	N13	0.307700	0.022500	0.015800
N141	N14	0.692300	0.977500	0.015800
N151	N15	0.307700	0.977500	0.984200
N161	N16	0.692300	0.022500	0.984200
N171	N17	0.022500	0.015800	0.307700
N181	N18	0.977500	0.015800	0.692300
N191	N19	0.977500	0.984200	0.307700
N201	N20	0.022500	0.984200	0.692300
N211	N21	0.015800	0.307700	0.022500
N221	N22	0.015800	0.692300	0.977500
N231	N23	0.984200	0.307700	0.977500
N241	N24	0.984200	0.692300	0.022500
O11	O1	0.397000	0.761300	0.748400
O21	O2	0.622200	0.779100	0.758800
O31	O3	0.353600	0.793900	0.663400
O41	O4	0.667300	0.810400	0.676300
O51	O5	0.389200	0.737500	0.876100
O61	O6	0.603000	0.238700	0.748400
O71	O7	0.377800	0.220900	0.758800
O81	O8	0.646400	0.206100	0.663400
O91	O9	0.332700	0.189600	0.676300
O101	O10	0.610800	0.262500	0.876100
O111	O11	0.603000	0.761300	0.251600
O121	O12	0.377800	0.779100	0.241200
O131	O13	0.646400	0.793900	0.336600
O141	O14	0.332700	0.810400	0.323700
O151	O15	0.610800	0.737500	0.123900
O161	O16	0.397000	0.238700	0.251600
O171	O17	0.622200	0.220900	0.241200
O181	O18	0.353600	0.206100	0.336600
O191	O19	0.667300	0.189600	0.323700
O201	O20	0.389200	0.262500	0.123900
O211	O21	0.748400	0.397000	0.761300
O221	O22	0.758800	0.622200	0.779100
O231	O23	0.663400	0.353600	0.793900
O241	O24	0.676300	0.667300	0.810400
O251	O25	0.876100	0.389200	0.737500
O261	O26	0.748400	0.603000	0.238700
O271	O27	0.758800	0.377800	0.220900
O281	O28	0.663400	0.646400	0.206100
O291	O29	0.676300	0.332700	0.189600
O301	O30	0.876100	0.610800	0.262500
O311	O31	0.251600	0.603000	0.761300
O321	O32	0.241200	0.377800	0.779100
O331	O33	0.336600	0.646400	0.793900
O341	O34	0.323700	0.332700	0.810400
O351	O35	0.123900	0.610800	0.737500
O361	O36	0.251600	0.397000	0.238700
O371	O37	0.241200	0.622200	0.220900
O381	O38	0.336600	0.353600	0.206100
O391	O39	0.323700	0.667300	0.189600
O401	O40	0.123900	0.389200	0.262500
O411	O41	0.761300	0.748400	0.397000
O421	O42	0.779100	0.758800	0.622200
O431	O43	0.793900	0.663400	0.353600
O441	O44	0.810400	0.676300	0.667300
O451	O45	0.737500	0.876100	0.389200
O461	O46	0.238700	0.748400	0.603000
O471	O47	0.220900	0.758800	0.377800
O481	O48	0.206100	0.663400	0.646400
O491	O49	0.189600	0.676300	0.332700
O501	O50	0.262500	0.876100	0.610800
O511	O51	0.761300	0.251600	0.603000
O521	O52	0.779100	0.241200	0.377800
O531	O53	0.793900	0.336600	0.646400
O541	O54	0.810400	0.323700	0.332700
O551	O55	0.737500	0.123900	0.610800
O561	O56	0.238700	0.251600	0.397000
O571	O57	0.220900	0.241200	0.622200
O581	O58	0.206100	0.336600	0.353600
O591	O59	0.189600	0.323700	0.667300
O601	O60	0.262500	0.123900	0.389200
O611	O61	0.261300	0.897000	0.248400
O621	O62	0.279100	0.122200	0.258800
O631	O63	0.293900	0.853600	0.163400
O641	O64	0.310400	0.167300	0.176300
O651	O65	0.237500	0.889200	0.376100
O661	O66	0.738700	0.103000	0.248400
O671	O67	0.720900	0.877800	0.258800
O681	O68	0.706100	0.146400	0.163400
O691	O69	0.689600	0.832700	0.176300
O701	O70	0.762500	0.110800	0.376100
O711	O71	0.261300	0.103000	0.751600
O721	O72	0.279100	0.877800	0.741200
O731	O73	0.293900	0.146400	0.836600
O741	O74	0.310400	0.832700	0.823700
O751	O75	0.237500	0.110800	0.623900
O761	O76	0.738700	0.897000	0.751600
O771	O77	0.720900	0.122200	0.741200
O781	O78	0.706100	0.853600	0.836600
O791	O79	0.689600	0.167300	0.823700
O801	O80	0.762500	0.889200	0.623900
O811	O81	0.897000	0.248400	0.261300
O821	O82	0.122200	0.258800	0.279100
O831	O83	0.853600	0.163400	0.293900
O841	O84	0.167300	0.176300	0.310400
O851	O85	0.889200	0.376100	0.237500
O861	O86	0.103000	0.248400	0.738700
O871	O87	0.877800	0.258800	0.720900
O881	O88	0.146400	0.163400	0.706100
O891	O89	0.832700	0.176300	0.689600
O901	O90	0.110800	0.376100	0.762500
O911	O91	0.103000	0.751600	0.261300
O921	O92	0.877800	0.741200	0.279100
O931	O93	0.146400	0.836600	0.293900
O941	O94	0.832700	0.823700	0.310400
O951	O95	0.110800	0.623900	0.237500
O961	O96	0.897000	0.751600	0.738700
O971	O97	0.122200	0.741200	0.720900
O981	O98	0.853600	0.836600	0.706100
O991	O99	0.167300	0.823700	0.689600
O1001	O100	0.889200	0.623900	0.762500
O1011	O101	0.248400	0.261300	0.897000
O1021	O102	0.258800	0.279100	0.122200
O1031	O103	0.163400	0.293900	0.853600
O1041	O104	0.176300	0.310400	0.167300
O1051	O105	0.376100	0.237500	0.889200
O1061	O106	0.248400	0.738700	0.103000
O1071	O107	0.258800	0.720900	0.877800
O1081	O108	0.163400	0.706100	0.146400
O1091	O109	0.176300	0.689600	0.832700
O1101	O110	0.376100	0.762500	0.110800
O1111	O111	0.751600	0.261300	0.103000
O1121	O112	0.741200	0.279100	0.877800
O1131	O113	0.836600	0.293900	0.146400
O1141	O114	0.823700	0.310400	0.832700
O1151	O115	0.623900	0.237500	0.110800
O1161	O116	0.751600	0.738700	0.897000
O1171	O117	0.741200	0.720900	0.122200
O1181	O118	0.836600	0.706100	0.853600
O1191	O119	0.823700	0.689600	0.167300
O1201	O120	0.623900	0.762500	0.889200
O1211	O121	0.259300	0.740700	0.740700
O1221	O122	0.740700	0.259300	0.740700
O1231	O123	0.740700	0.740700	0.259300
O1241	O124	0.259300	0.259300	0.259300
O1251	O125	0.240700	0.759300	0.240700
O1261	O126	0.759300	0.240700	0.240700
O1271	O127	0.240700	0.240700	0.759300
O1281	O128	0.759300	0.759300	0.759300
N251	N25	0.140100	0.859900	0.859900
O1291	O129	0.171000	0.904000	0.847000
O1301	O130	0.153000	0.829000	0.904000
O1311	O131	0.096000	0.847000	0.829000
N261	N26	0.395100	0.604900	0.604900
O1321	O132	0.441300	0.623000	0.632000
O1331	O133	0.368000	0.558700	0.623000
O1341	O134	0.377000	0.632000	0.558700
N271	N27	0.859900	0.140100	0.859900
O1351	O135	0.829000	0.096000	0.847000
O1361	O136	0.847000	0.171000	0.904000
O1371	O137	0.904000	0.153000	0.829000
N281	N28	0.604900	0.395100	0.604900
O1381	O138	0.558700	0.377000	0.632000
O1391	O139	0.632000	0.441300	0.623000
O1401	O140	0.623000	0.368000	0.558700
N291	N29	0.859900	0.859900	0.140100
O1411	O141	0.829000	0.904000	0.153000
O1421	O142	0.847000	0.829000	0.096000
O1431	O143	0.904000	0.847000	0.171000
N301	N30	0.604900	0.604900	0.395100
O1441	O144	0.558700	0.623000	0.368000
O1451	O145	0.632000	0.558700	0.377000
O1461	O146	0.623000	0.632000	0.441300
N311	N31	0.140100	0.140100	0.140100
O1471	O147	0.171000	0.096000	0.153000
O1481	O148	0.153000	0.171000	0.096000
O1491	O149	0.096000	0.153000	0.171000
N321	N32	0.395100	0.395100	0.395100
O1501	O150	0.441300	0.377000	0.368000
O1511	O151	0.368000	0.441300	0.377000
O1521	O152	0.377000	0.368000	0.441300
N331	N33	0.359900	0.640100	0.359900
O1531	O153	0.404000	0.671000	0.347000
O1541	O154	0.329000	0.653000	0.404000
O1551	O155	0.347000	0.596000	0.329000
N341	N34	0.104900	0.895100	0.104900
O1561	O156	0.123000	0.941300	0.132000
O1571	O157	0.058700	0.868000	0.123000
O1581	O158	0.132000	0.877000	0.058700
N351	N35	0.640100	0.359900	0.359900
O1591	O159	0.596000	0.329000	0.347000
O1601	O160	0.671000	0.347000	0.404000
O1611	O161	0.653000	0.404000	0.329000
N361	N36	0.895100	0.104900	0.104900
O1621	O162	0.877000	0.058700	0.132000
O1631	O163	0.941300	0.132000	0.123000
O1641	O164	0.868000	0.123000	0.058700
N371	N37	0.359900	0.359900	0.640100
O1651	O165	0.404000	0.329000	0.653000
O1661	O166	0.329000	0.347000	0.596000
O1671	O167	0.347000	0.404000	0.671000
N381	N38	0.104900	0.104900	0.895100
O1681	O168	0.123000	0.058700	0.868000
O1691	O169	0.058700	0.132000	0.877000
O1701	O170	0.132000	0.123000	0.941300
N391	N39	0.640100	0.640100	0.640100
O1711	O171	0.596000	0.671000	0.653000
O1721	O172	0.671000	0.653000	0.596000
O1731	O173	0.653000	0.596000	0.671000
N401	N40	0.895100	0.895100	0.895100
O1741	O174	0.877000	0.941300	0.868000
O1751	O175	0.941300	0.868000	0.877000
O1761	O176	0.868000	0.877000	0.941300
