data_RIDKOE_charged_PM
_symmetry_space_group_name_H-M	'P1'
_cell_length_a	13.156200
_cell_length_b	13.156200
_cell_length_c	15.912000
_cell_angle_alpha	90.000000
_cell_angle_beta	90.000000
_cell_angle_gamma	101.781000
_symmetry_Int_Tables_number 1

loop_
_symmetry_equiv_pos_as_xyz
'x,y,z'

loop_
_atom_site_label
_atom_site_type_symbol
_atom_site_fract_x
_atom_site_fract_y
_atom_site_fract_z
Cu11	Cu1	0.575670	0.287150	0.503090
Cu21	Cu2	0.596690	0.885770	0.329260
Cu31	Cu3	0.424330	0.712850	0.003090
Cu41	Cu4	0.403310	0.114230	0.829260
Cu51	Cu5	0.712850	0.424330	0.003090
Cu61	Cu6	0.114230	0.403310	0.829260
Cu71	Cu7	0.287150	0.575670	0.503090
Cu81	Cu8	0.885770	0.596690	0.329260
H11	H1	0.594400	0.070600	0.450100
H21	H2	0.611800	0.054600	0.207600
H31	H3	0.615200	0.228600	0.196100
H41	H4	0.586100	0.315900	0.320100
H51	H5	0.470200	0.230200	0.664700
H61	H6	0.722900	0.169300	0.577200
H71	H7	0.747200	0.084600	0.702700
H81	H8	0.384000	0.933600	0.301200
H91	H9	0.774300	0.964700	0.210100
H101	H10	0.731700	0.424500	0.392300
H111	H11	0.639200	0.475800	0.616700
H121	H12	0.755800	0.626200	0.623700
H131	H13	0.674800	0.862800	0.506600
H141	H14	0.361700	0.167100	0.468700
H151	H15	0.405600	0.929400	0.950100
H161	H16	0.388200	0.945400	0.707600
H171	H17	0.384800	0.771400	0.696100
H181	H18	0.413900	0.684100	0.820100
H191	H19	0.529800	0.769800	0.164700
H201	H20	0.277100	0.830700	0.077200
H211	H21	0.252800	0.915400	0.202700
H221	H22	0.616000	0.066400	0.801200
H231	H23	0.225700	0.035300	0.710100
H241	H24	0.268300	0.575500	0.892300
H251	H25	0.360800	0.524200	0.116700
H261	H26	0.244200	0.373800	0.123700
H271	H27	0.325200	0.137200	0.006600
H281	H28	0.638300	0.832900	0.968700
H291	H29	0.929400	0.405600	0.950100
H301	H30	0.945400	0.388200	0.707600
H311	H31	0.771400	0.384800	0.696100
H321	H32	0.684100	0.413900	0.820100
H331	H33	0.769800	0.529800	0.164700
H341	H34	0.830700	0.277100	0.077200
H351	H35	0.915400	0.252800	0.202700
H361	H36	0.066400	0.616000	0.801200
H371	H37	0.035300	0.225700	0.710100
H381	H38	0.575500	0.268300	0.892300
H391	H39	0.524200	0.360800	0.116700
H401	H40	0.373800	0.244200	0.123700
H411	H41	0.137200	0.325200	0.006600
H421	H42	0.832900	0.638300	0.968700
H431	H43	0.070600	0.594400	0.450100
H441	H44	0.054600	0.611800	0.207600
H451	H45	0.228600	0.615200	0.196100
H461	H46	0.315900	0.586100	0.320100
H471	H47	0.230200	0.470200	0.664700
H481	H48	0.169300	0.722900	0.577200
H491	H49	0.084600	0.747200	0.702700
H501	H50	0.933600	0.384000	0.301200
H511	H51	0.964700	0.774300	0.210100
H521	H52	0.424500	0.731700	0.392300
H531	H53	0.475800	0.639200	0.616700
H541	H54	0.626200	0.755800	0.623700
H551	H55	0.862800	0.674800	0.506600
H561	H56	0.167100	0.361700	0.468700
H571	H57	0.197200	0.197200	0.439200
H581	H58	0.455600	0.455600	0.515700
H591	H59	0.802800	0.802800	0.939200
H601	H60	0.544400	0.544400	0.015700
H611	H61	0.720000	0.720000	0.346900
H621	H62	0.922300	0.922300	0.156800
H631	H63	0.280000	0.280000	0.846900
H641	H64	0.077700	0.077700	0.656800
C11	C1	0.598000	0.102800	0.397800
C21	C2	0.609500	0.093100	0.256300
C31	C3	0.607800	0.195400	0.247900
C41	C4	0.594200	0.247400	0.322500
C51	C5	0.526700	0.198700	0.671700
C61	C6	0.674600	0.165000	0.620400
C71	C7	0.688600	0.112600	0.693900
C81	C8	0.388800	0.895600	0.252500
C91	C9	0.792000	0.903400	0.228000
C101	C10	0.736800	0.466200	0.439900
C111	C11	0.682900	0.495300	0.571000
C121	C12	0.750600	0.584600	0.576000
C131	C13	0.612900	0.813900	0.505300
C141	C14	0.349700	0.234100	0.472200
C151	C15	0.402000	0.897200	0.897800
C161	C16	0.390500	0.906900	0.756300
C171	C17	0.392200	0.804600	0.747900
C181	C18	0.405800	0.752600	0.822500
C191	C19	0.473300	0.801300	0.171700
C201	C20	0.325400	0.835000	0.120400
C211	C21	0.311400	0.887400	0.193900
C221	C22	0.611200	0.104400	0.752500
C231	C23	0.208000	0.096600	0.728000
C241	C24	0.263200	0.533800	0.939900
C251	C25	0.317100	0.504700	0.071000
C261	C26	0.249400	0.415400	0.076000
C271	C27	0.387100	0.186100	0.005300
C281	C28	0.650300	0.765900	0.972200
C291	C29	0.897200	0.402000	0.897800
C301	C30	0.906900	0.390500	0.756300
C311	C31	0.804600	0.392200	0.747900
C321	C32	0.752600	0.405800	0.822500
C331	C33	0.801300	0.473300	0.171700
C341	C34	0.835000	0.325400	0.120400
C351	C35	0.887400	0.311400	0.193900
C361	C36	0.104400	0.611200	0.752500
C371	C37	0.096600	0.208000	0.728000
C381	C38	0.533800	0.263200	0.939900
C391	C39	0.504700	0.317100	0.071000
C401	C40	0.415400	0.249400	0.076000
C411	C41	0.186100	0.387100	0.005300
C421	C42	0.765900	0.650300	0.972200
C431	C43	0.102800	0.598000	0.397800
C441	C44	0.093100	0.609500	0.256300
C451	C45	0.195400	0.607800	0.247900
C461	C46	0.247400	0.594200	0.322500
C471	C47	0.198700	0.526700	0.671700
C481	C48	0.165000	0.674600	0.620400
C491	C49	0.112600	0.688600	0.693900
C501	C50	0.895600	0.388800	0.252500
C511	C51	0.903400	0.792000	0.228000
C521	C52	0.466200	0.736800	0.439900
C531	C53	0.495300	0.682900	0.571000
C541	C54	0.584600	0.750600	0.576000
C551	C55	0.813900	0.612900	0.505300
C561	C56	0.234100	0.349700	0.472200
C571	C57	0.250300	0.250300	0.457700
C581	C58	0.401600	0.401600	0.500100
C591	C59	0.749700	0.749700	0.957700
C601	C60	0.598400	0.598400	0.000100
C611	C61	0.761100	0.761100	0.307300
C621	C62	0.881000	0.881000	0.196200
C631	C63	0.238900	0.238900	0.807300
C641	C64	0.119000	0.119000	0.696200
N11	N1	0.592400	0.200400	0.397000
N21	N2	0.672800	0.430800	0.504400
N31	N3	0.593100	0.208900	0.611100
N41	N4	0.426000	0.309600	0.490300
N51	N5	0.608100	0.043900	0.330400
N61	N6	0.468700	0.852500	0.243200
N71	N7	0.729000	0.846400	0.281700
N81	N8	0.555200	0.806600	0.437600
N91	N9	0.407600	0.799600	0.897000
N101	N10	0.327200	0.569200	0.004400
N111	N11	0.406900	0.791100	0.111100
N121	N12	0.574000	0.690400	0.990300
N131	N13	0.391900	0.956100	0.830400
N141	N14	0.531300	0.147500	0.743200
N151	N15	0.271000	0.153600	0.781700
N161	N16	0.444800	0.193400	0.937600
N171	N17	0.799600	0.407600	0.897000
N181	N18	0.569200	0.327200	0.004400
N191	N19	0.791100	0.406900	0.111100
N201	N20	0.690400	0.574000	0.990300
N211	N21	0.956100	0.391900	0.830400
N221	N22	0.147500	0.531300	0.743200
N231	N23	0.153600	0.271000	0.781700
N241	N24	0.193400	0.444800	0.937600
N251	N25	0.200400	0.592400	0.397000
N261	N26	0.430800	0.672800	0.504400
N271	N27	0.208900	0.593100	0.611100
N281	N28	0.309600	0.426000	0.490300
N291	N29	0.043900	0.608100	0.330400
N301	N30	0.852500	0.468700	0.243200
N311	N31	0.846400	0.729000	0.281700
N321	N32	0.806600	0.555200	0.437600
B11	B1	0.636300	0.047500	0.029700
F11	F1	0.619900	0.014700	0.947000
F21	F2	0.686300	0.987300	0.072300
F31	F3	0.528500	0.024900	0.061700
F41	F4	0.671900	0.140500	0.042400
B21	B2	0.363700	0.952500	0.529700
F51	F5	0.380100	0.985300	0.447000
F61	F6	0.313700	0.012700	0.572300
F71	F7	0.471500	0.975100	0.561700
F81	F8	0.328100	0.859500	0.542400
B31	B3	0.952500	0.363700	0.529700
F91	F9	0.985300	0.380100	0.447000
F101	F10	0.012700	0.313700	0.572300
F111	F11	0.975100	0.471500	0.561700
F121	F12	0.859500	0.328100	0.542400
B41	B4	0.047500	0.636300	0.029700
F131	F13	0.014700	0.619900	0.947000
F141	F14	0.987300	0.686300	0.072300
F151	F15	0.024900	0.528500	0.061700
F161	F16	0.140500	0.671900	0.042400
B51	B5	0.471500	0.471500	0.764400
F171	F17	0.534300	0.418700	0.745500
F181	F18	0.418700	0.534300	0.745500
F191	F19	0.400900	0.400900	0.699000
F201	F20	0.556700	0.556700	0.754900
F211	F21	0.440200	0.440200	0.840500
B61	B6	0.528500	0.528500	0.264400
F221	F22	0.465700	0.581300	0.245500
F231	F23	0.581300	0.465700	0.245500
F241	F24	0.599100	0.599100	0.199000
F251	F25	0.443300	0.443300	0.254900
F261	F26	0.559800	0.559800	0.340500
