data_RIFMIE_freeONLY_PM
_symmetry_space_group_name_H-M	'P1'
_cell_length_a	14.291000
_cell_length_b	17.345000
_cell_length_c	19.371000
_cell_angle_alpha	63.737000
_cell_angle_beta	83.571000
_cell_angle_gamma	82.359000
_symmetry_Int_Tables_number 1

loop_
_symmetry_equiv_pos_as_xyz
'x,y,z'

loop_
_atom_site_label
_atom_site_type_symbol
_atom_site_fract_x
_atom_site_fract_y
_atom_site_fract_z
La11	La1	0.176640	0.540130	0.770550
La21	La2	0.071520	0.516840	0.579330
Ni11	Ni1	0.520270	0.011400	0.760960
O11	O1	0.013900	0.372900	0.627100
O21	O2	0.901100	0.532100	0.525300
O31	O3	0.933800	0.351900	0.543800
O41	O4	0.137300	0.431800	0.709800
O51	O5	0.238200	0.380100	0.798900
O61	O6	0.659400	0.473500	0.178300
O71	O7	0.769300	0.542100	0.089000
O81	O8	0.034900	0.472700	0.848300
O91	O9	0.077200	0.611000	0.644500
O101	O10	0.967500	0.730700	0.608700
O111	O11	0.903200	0.533700	0.636300
O121	O12	0.754400	0.516000	0.601300
O131	O13	0.208400	0.696100	0.718400
O141	O14	0.147000	0.642600	0.838000
O151	O15	0.015500	0.652500	0.727400
O161	O16	0.220700	0.292900	0.733800
N11	N1	0.021200	0.663300	0.652600
N21	N2	0.860500	0.526300	0.588700
N31	N3	0.195800	0.373400	0.748000
N41	N4	0.909300	0.461900	0.919500
O171	O17	0.244500	0.528900	0.562100
N51	N5	0.647000	0.947300	0.806100
C11	C1	0.692300	0.992800	0.829600
N61	N6	0.479100	0.903600	0.751800
N71	N7	0.785800	0.966600	0.835500
N81	N8	0.550100	0.092000	0.813300
N91	N9	0.392800	0.081700	0.721600
N101	N10	0.599200	0.101800	0.671800
N111	N11	0.235500	0.082300	0.737000
N121	N12	0.647700	0.233900	0.625700
N131	N13	0.430900	0.773100	0.818000
N141	N14	0.433000	0.953100	0.865900
C21	C2	0.471800	0.869700	0.699100
O181	O18	0.286800	0.555700	0.656300
C31	C3	0.882000	0.090100	0.789500
C41	C4	0.902500	0.184300	0.655800
H11	H1	0.897400	0.195700	0.604700
C51	C5	0.685600	0.200100	0.573300
C61	C6	0.320700	0.048700	0.768700
C71	C7	0.132700	0.805400	0.840700
H21	H2	0.113700	0.759100	0.885700
C81	C8	0.611600	0.564800	0.049500
C91	C9	0.353000	0.140300	0.650100
C101	C10	0.394000	0.471500	0.611000
C111	C11	0.597000	0.173600	0.680700
C121	C12	0.716400	0.887900	0.795400
C131	C13	0.452500	0.845400	0.820400
C141	C14	0.414700	0.429100	0.564300
H31	H3	0.371100	0.434500	0.529800
C151	C15	0.255500	0.141300	0.659900
C161	C16	0.500000	0.378600	0.568300
H41	H4	0.512300	0.349000	0.537800
C171	C17	0.149600	0.955000	0.772900
C181	C18	0.166700	0.792100	0.776800
C191	C19	0.660300	0.318600	0.621400
H51	H5	0.700600	0.349300	0.576100
H61	H6	0.691600	0.310500	0.666400
C201	C20	0.566400	0.372500	0.617500
C211	C21	0.803200	0.899400	0.815200
C221	C22	0.451200	0.859600	0.889600
H71	H7	0.511500	0.838100	0.913100
H81	H8	0.401900	0.829400	0.926900
C231	C23	0.146000	0.045500	0.770200
H91	H9	0.094800	0.082700	0.739400
H101	H10	0.134100	0.041400	0.822000
C241	C24	0.945000	0.225800	0.748000
H111	H11	0.970900	0.264600	0.759800
C251	C25	0.476100	0.648300	0.940500
C261	C26	0.545900	0.180600	0.749500
H121	H12	0.575900	0.218600	0.763100
H131	H13	0.480700	0.203600	0.739000
C271	C27	0.769800	0.181400	0.470900
H141	H14	0.806900	0.202200	0.425000
C281	C28	0.461400	0.984000	0.919100
H151	H15	0.519600	0.951400	0.941800
H161	H16	0.412800	0.975000	0.960400
C291	C29	0.443900	0.786800	0.740200
C301	C30	0.876900	0.108400	0.713400
H171	H17	0.855500	0.068000	0.700900
C311	C31	0.459800	0.462700	0.662000
H181	H18	0.446800	0.490100	0.694300
C321	C32	0.126400	0.885900	0.838600
H191	H19	0.105900	0.893000	0.882900
C331	C33	0.855500	0.005800	0.855600
H201	H20	0.911900	0.965800	0.870600
H211	H21	0.830500	0.016500	0.899500
C341	C34	0.936300	0.245200	0.672900
C351	C35	0.301400	0.522300	0.610700
C361	C36	0.647100	0.065600	0.844000
H221	H22	0.685400	0.113900	0.819200
H231	H23	0.642200	0.049200	0.899000
C371	C37	0.546100	0.412600	0.664800
H241	H24	0.589900	0.406700	0.699300
C381	C38	0.570200	0.651100	0.918600
H251	H25	0.588700	0.680800	0.866700
C391	C39	0.684900	0.525100	0.108800
C401	C40	0.916800	0.150900	0.807200
H261	H26	0.920700	0.140500	0.858200
C411	C41	0.397300	0.189300	0.580900
H271	H27	0.462800	0.188400	0.573700
C421	C42	0.198200	0.188000	0.601000
H281	H28	0.133100	0.185600	0.606800
C431	C43	0.711200	0.823800	0.770600
H291	H29	0.654000	0.814000	0.758700
C441	C44	0.475800	0.077900	0.877300
H301	H30	0.416900	0.110800	0.856500
H311	H31	0.495000	0.097600	0.912800
C451	C45	0.743600	0.233000	0.505500
H321	H32	0.762900	0.288300	0.485500
C461	C46	0.743300	0.096100	0.501600
H331	H33	0.763800	0.062200	0.475700
C471	C47	0.686800	0.062200	0.570200
H341	H34	0.670400	0.005800	0.591700
C481	C48	0.489900	0.903400	0.621400
H351	H35	0.509300	0.958600	0.593300
C491	C49	0.431700	0.735400	0.704200
H361	H36	0.413700	0.679600	0.731600
C501	C50	0.400700	0.693900	0.883300
H371	H37	0.384500	0.654900	0.863800
H381	H38	0.344200	0.708600	0.909500
C511	C51	0.186200	0.942000	0.707400
H391	H39	0.204000	0.988300	0.661900
C521	C52	0.329800	0.983000	0.848400
H401	H40	0.296800	0.934000	0.856800
H411	H41	0.300600	0.006700	0.883400
C531	C53	0.448800	0.603100	0.017500
H421	H42	0.384900	0.601600	0.033200
C541	C54	0.793100	0.776300	0.764700
H431	H43	0.791700	0.734400	0.747400
C551	C55	0.516300	0.559800	0.071900
H441	H44	0.497400	0.527600	0.123300
C561	C56	0.886400	0.850800	0.807900
H451	H45	0.944600	0.859900	0.818900
C571	C57	0.877900	0.789100	0.783800
H461	H46	0.931700	0.754200	0.780200
C581	C58	0.337700	0.241000	0.522000
H471	H47	0.364200	0.277600	0.474400
C591	C59	0.448300	0.772900	0.624400
H481	H48	0.438300	0.742300	0.597200
C601	C60	0.477900	0.850900	0.586100
H491	H49	0.491300	0.871700	0.533200
C611	C61	0.243200	0.239600	0.531700
H501	H50	0.206600	0.274700	0.490200
C621	C62	0.963800	0.330200	0.608100
C631	C63	0.953900	0.446000	0.870000
C641	C64	0.924900	0.535600	0.927700
H511	H51	0.875600	0.546000	0.961400
H521	H52	0.924800	0.584500	0.878100
H531	H53	0.984900	0.526500	0.949300
C651	C65	0.816800	0.440000	0.951100
H541	H54	0.792700	0.472200	0.979900
H551	H55	0.818800	0.379300	0.984700
H561	H56	0.776200	0.453600	0.910200
C661	C66	0.921900	0.389200	0.842600
H571	H57	0.971900	0.375300	0.811300
H581	H58	0.868000	0.417500	0.812500
H591	H59	0.904700	0.337100	0.885900
C671	C67	0.173800	0.704000	0.779200
C681	C68	0.194900	0.861200	0.711900
H601	H60	0.220900	0.852500	0.669400
C691	C69	0.638300	0.611100	0.971700
H611	H61	0.702100	0.615000	0.955600
C701	C70	0.656900	0.117000	0.603900
La31	La3	0.823360	0.459870	0.229450
La41	La4	0.928480	0.483160	0.420670
Ni21	Ni2	0.479730	0.988600	0.239040
O191	O19	0.986100	0.627100	0.372900
O201	O20	0.098900	0.467900	0.474700
O211	O21	0.066200	0.648100	0.456200
O221	O22	0.862700	0.568200	0.290200
O231	O23	0.761800	0.619900	0.201100
O241	O24	0.340600	0.526500	0.821700
O251	O25	0.230700	0.457900	0.911000
O261	O26	0.965100	0.527300	0.151700
O271	O27	0.922800	0.389000	0.355500
O281	O28	0.032500	0.269300	0.391300
O291	O29	0.096800	0.466300	0.363700
O301	O30	0.245600	0.484000	0.398700
O311	O31	0.791600	0.303900	0.281600
O321	O32	0.853000	0.357400	0.162000
O331	O33	0.984500	0.347500	0.272600
O341	O34	0.779300	0.707100	0.266200
N151	N15	0.978800	0.336700	0.347400
N161	N16	0.139500	0.473700	0.411300
N171	N17	0.804200	0.626600	0.252000
N181	N18	0.090700	0.538100	0.080500
O351	O35	0.755500	0.471100	0.437900
N191	N19	0.353000	0.052700	0.193900
C711	C71	0.307700	0.007200	0.170400
N201	N20	0.520900	0.096400	0.248200
N211	N21	0.214200	0.033400	0.164500
N221	N22	0.449900	0.908000	0.186700
N231	N23	0.607200	0.918300	0.278400
N241	N24	0.400800	0.898200	0.328200
N251	N25	0.764500	0.917700	0.263000
N261	N26	0.352300	0.766100	0.374300
N271	N27	0.569100	0.226900	0.182000
N281	N28	0.567000	0.046900	0.134100
C721	C72	0.528200	0.130300	0.300900
O361	O36	0.713200	0.444300	0.343700
C731	C73	0.118000	0.909900	0.210500
C741	C74	0.097500	0.815700	0.344200
H621	H62	0.102600	0.804300	0.395300
C751	C75	0.314400	0.799900	0.426700
C761	C76	0.679300	0.951300	0.231300
C771	C77	0.867300	0.194600	0.159300
H631	H63	0.886300	0.240900	0.114300
C781	C78	0.388400	0.435200	0.950500
C791	C79	0.647000	0.859700	0.349900
C801	C80	0.606000	0.528500	0.389000
C811	C81	0.403000	0.826400	0.319300
C821	C82	0.283600	0.112100	0.204600
C831	C83	0.547500	0.154600	0.179600
C841	C84	0.585300	0.570900	0.435700
H641	H64	0.628900	0.565500	0.470200
C851	C85	0.744500	0.858700	0.340100
C861	C86	0.500000	0.621400	0.431700
H651	H65	0.487700	0.651000	0.462200
C871	C87	0.850400	0.045000	0.227100
C881	C88	0.833300	0.207900	0.223200
C891	C89	0.339700	0.681400	0.378600
H661	H66	0.299400	0.650700	0.423900
H671	H67	0.308400	0.689500	0.333600
C901	C90	0.433600	0.627500	0.382500
C911	C91	0.196800	0.100600	0.184800
C921	C92	0.548800	0.140400	0.110400
H681	H68	0.488500	0.161900	0.086900
H691	H69	0.598100	0.170600	0.073100
C931	C93	0.854000	0.954500	0.229800
H701	H70	0.905200	0.917300	0.260600
H711	H71	0.865900	0.958600	0.178000
C941	C94	0.055000	0.774200	0.252000
H721	H72	0.029100	0.735400	0.240200
C951	C95	0.523900	0.351700	0.059500
C961	C96	0.454100	0.819400	0.250500
H731	H73	0.424100	0.781400	0.236900
H741	H74	0.519300	0.796400	0.261000
C971	C97	0.230200	0.818600	0.529100
H751	H75	0.193100	0.797800	0.575000
C981	C98	0.538600	0.016000	0.080900
H761	H76	0.480400	0.048600	0.058200
H771	H77	0.587200	0.025000	0.039600
C991	C99	0.556100	0.213200	0.259800
C1001	C100	0.123100	0.891600	0.286600
H781	H78	0.144500	0.932000	0.299100
C1011	C101	0.540200	0.537300	0.338000
H791	H79	0.553200	0.509900	0.305700
C1021	C102	0.873600	0.114100	0.161400
H801	H80	0.894100	0.107000	0.117100
C1031	C103	0.144500	0.994200	0.144400
H811	H81	0.088100	0.034200	0.129400
H821	H82	0.169500	0.983500	0.100500
C1041	C104	0.063700	0.754800	0.327100
C1051	C105	0.698600	0.477700	0.389300
C1061	C106	0.352900	0.934400	0.156000
H831	H83	0.314600	0.886100	0.180800
H841	H84	0.357800	0.950800	0.101000
C1071	C107	0.453900	0.587400	0.335200
H851	H85	0.410100	0.593300	0.300700
C1081	C108	0.429800	0.348900	0.081400
H861	H86	0.411300	0.319200	0.133300
C1091	C109	0.315100	0.474900	0.891200
C1101	C110	0.083200	0.849100	0.192800
H871	H87	0.079300	0.859500	0.141800
C1111	C111	0.602700	0.810700	0.419100
H881	H88	0.537200	0.811600	0.426300
C1121	C112	0.801800	0.812000	0.399000
H891	H89	0.866900	0.814400	0.393200
C1131	C113	0.288800	0.176200	0.229400
H901	H90	0.346000	0.186000	0.241300
C1141	C114	0.524200	0.922100	0.122700
H911	H91	0.583100	0.889200	0.143500
H921	H92	0.505000	0.902400	0.087200
C1151	C115	0.256400	0.767000	0.494500
H931	H93	0.237100	0.711700	0.514500
C1161	C116	0.256700	0.903900	0.498400
H941	H94	0.236200	0.937800	0.524300
C1171	C117	0.313200	0.937800	0.429800
H951	H95	0.329600	0.994200	0.408300
C1181	C118	0.510100	0.096600	0.378600
H961	H96	0.490700	0.041400	0.406700
C1191	C119	0.568300	0.264600	0.295800
H971	H97	0.586300	0.320400	0.268400
C1201	C120	0.599300	0.306100	0.116700
H981	H98	0.615500	0.345100	0.136200
H991	H99	0.655800	0.291400	0.090500
C1211	C121	0.813800	0.058000	0.292600
H1001	H100	0.796000	0.011700	0.338100
C1221	C122	0.670200	0.017000	0.151600
H1011	H101	0.703200	0.066000	0.143200
H1021	H102	0.699400	0.993300	0.116600
C1231	C123	0.551200	0.396900	0.982500
H1031	H103	0.615100	0.398400	0.966800
C1241	C124	0.206900	0.223700	0.235300
H1041	H104	0.208300	0.265600	0.252600
C1251	C125	0.483700	0.440200	0.928100
H1051	H105	0.502600	0.472400	0.876700
C1261	C126	0.113600	0.149200	0.192100
H1061	H106	0.055400	0.140100	0.181100
C1271	C127	0.122100	0.210900	0.216200
H1071	H107	0.068300	0.245800	0.219800
C1281	C128	0.662300	0.759000	0.478000
H1081	H108	0.635800	0.722400	0.525600
C1291	C129	0.551700	0.227100	0.375600
H1091	H109	0.561700	0.257700	0.402800
C1301	C130	0.522100	0.149100	0.413900
H1101	H110	0.508700	0.128300	0.466800
C1311	C131	0.756800	0.760400	0.468300
H1111	H111	0.793400	0.725300	0.509800
C1321	C132	0.036200	0.669800	0.391900
C1331	C133	0.046100	0.554000	0.130000
C1341	C134	0.075100	0.464400	0.072300
H1121	H112	0.124400	0.454000	0.038600
H1131	H113	0.075200	0.415500	0.121900
H1141	H114	0.015100	0.473500	0.050700
C1351	C135	0.183200	0.560000	0.048900
H1151	H115	0.207300	0.527800	0.020100
H1161	H116	0.181200	0.620700	0.015300
H1171	H117	0.223800	0.546400	0.089800
C1361	C136	0.078100	0.610800	0.157400
H1181	H118	0.028100	0.624700	0.188700
H1191	H119	0.132000	0.582500	0.187500
H1201	H120	0.095300	0.662900	0.114100
C1371	C137	0.826200	0.296000	0.220800
C1381	C138	0.805100	0.138800	0.288100
H1211	H121	0.779100	0.147500	0.330600
C1391	C139	0.361700	0.388900	0.028300
H1221	H122	0.297900	0.385000	0.044400
C1401	C140	0.343100	0.883000	0.396100
