data_RIFQUT_freeONLY_PM
_symmetry_space_group_name_H-M	'P1'
_cell_length_a	8.266000
_cell_length_b	12.874000
_cell_length_c	15.706200
_cell_angle_alpha	114.195000
_cell_angle_beta	96.616500
_cell_angle_gamma	90.000000
_symmetry_Int_Tables_number 1

loop_
_symmetry_equiv_pos_as_xyz
'x,y,z'

loop_
_atom_site_label
_atom_site_type_symbol
_atom_site_fract_x
_atom_site_fract_y
_atom_site_fract_z
Co11	Co1	0.933390	0.382790	0.494840
Co21	Co2	0.543610	0.380840	0.491860
Co31	Co3	0.856190	0.253860	0.272180
Co41	Co4	0.566610	0.887950	0.505160
Co51	Co5	0.956390	0.888980	0.508140
Co61	Co6	0.643810	0.981680	0.727820
Co71	Co7	0.066610	0.617210	0.505160
Co81	Co8	0.456390	0.619160	0.508140
Co91	Co9	0.143810	0.746140	0.727820
Co101	Co10	0.433390	0.112050	0.494840
Co111	Co11	0.043610	0.111020	0.491860
Co121	Co12	0.356190	0.018320	0.272180
P11	P1	0.723800	0.489530	0.370300
P21	P2	0.205200	0.226220	0.372520
P31	P3	0.776200	0.119230	0.629700
P41	P4	0.294800	0.853700	0.627480
P51	P5	0.276200	0.510470	0.629700
P61	P6	0.794800	0.773780	0.627480
P71	P7	0.223800	0.880770	0.370300
P81	P8	0.705200	0.146300	0.372520
H11	H1	0.664700	0.640100	0.380400
H21	H2	0.086300	0.240100	0.172600
H31	H3	0.977900	0.154100	0.022600
H41	H4	0.717400	0.293600	0.094400
H51	H5	0.865800	0.331200	0.057600
H61	H6	0.858900	0.015100	0.061000
H71	H7	0.709900	0.091400	0.093200
H81	H8	0.835300	0.259700	0.619600
H91	H9	0.413700	0.067500	0.827400
H101	H10	0.522100	0.131500	0.977400
H111	H11	0.782600	0.199200	0.905600
H121	H12	0.634200	0.273600	0.942400
H131	H13	0.641100	0.954100	0.939000
H141	H14	0.790100	0.998200	0.906800
H151	H15	0.335300	0.359900	0.619600
H161	H16	0.913700	0.759900	0.827400
H171	H17	0.022100	0.845900	0.977400
H181	H18	0.282600	0.706400	0.905600
H191	H19	0.134200	0.668800	0.942400
H201	H20	0.141100	0.984900	0.939000
H211	H21	0.290100	0.908600	0.906800
H221	H22	0.164700	0.740300	0.380400
H231	H23	0.586300	0.932500	0.172600
H241	H24	0.477900	0.868500	0.022600
H251	H25	0.217400	0.800800	0.094400
H261	H26	0.365800	0.726400	0.057600
H271	H27	0.358900	0.045900	0.061000
H281	H28	0.209900	0.001800	0.093200
C11	C1	0.896400	0.177000	0.066600
C21	C2	0.795000	0.266700	0.049200
C31	C3	0.791200	0.070900	0.049800
C41	C4	0.603600	0.110400	0.933400
C51	C5	0.705000	0.217500	0.950800
C61	C6	0.708800	0.021100	0.950200
C71	C7	0.103600	0.823000	0.933400
C81	C8	0.205000	0.733300	0.950800
C91	C9	0.208800	0.929100	0.950200
C101	C10	0.396400	0.889600	0.066600
C111	C11	0.295000	0.782500	0.049200
C121	C12	0.291200	0.978900	0.049800
N11	N1	0.982800	0.224700	0.163000
N21	N2	0.517200	0.061700	0.837000
N31	N3	0.017200	0.775300	0.837000
N41	N4	0.482800	0.938300	0.163000
O11	O1	0.578300	0.485950	0.420700
O21	O2	0.882400	0.496400	0.433200
O31	O3	0.720500	0.380300	0.281600
O41	O4	0.718700	0.591200	0.345200
O51	O5	0.036500	0.276610	0.376020
O61	O6	0.221700	0.157600	0.432800
O71	O7	0.333000	0.321800	0.406200
O81	O8	0.223600	0.145800	0.271200
O91	O9	0.762500	0.476450	0.590300
O101	O10	0.008400	0.288800	0.573400
O111	O11	0.921700	0.065250	0.579300
O121	O12	0.617600	0.063200	0.566800
O131	O13	0.779500	0.098700	0.718400
O141	O14	0.781300	0.246000	0.654800
O151	O15	0.463500	0.900590	0.623980
O161	O16	0.278300	0.724800	0.567200
O171	O17	0.167000	0.915600	0.593800
O181	O18	0.276400	0.874600	0.728800
O191	O19	0.737500	0.886150	0.409700
O201	O20	0.491600	0.715400	0.426600
O211	O21	0.421700	0.514050	0.579300
O221	O22	0.117600	0.503600	0.566800
O231	O23	0.279500	0.619700	0.718400
O241	O24	0.281300	0.408800	0.654800
O251	O25	0.963500	0.723390	0.623980
O261	O26	0.778300	0.842400	0.567200
O271	O27	0.667000	0.678200	0.593800
O281	O28	0.776400	0.854200	0.728800
O291	O29	0.237500	0.523550	0.409700
O301	O30	0.991600	0.711200	0.426600
O311	O31	0.078300	0.934750	0.420700
O321	O32	0.382400	0.936800	0.433200
O331	O33	0.220500	0.901300	0.281600
O341	O34	0.218700	0.754000	0.345200
O351	O35	0.536500	0.099410	0.376020
O361	O36	0.721700	0.275200	0.432800
O371	O37	0.833000	0.084400	0.406200
O381	O38	0.723600	0.125400	0.271200
O391	O39	0.262500	0.113850	0.590300
O401	O40	0.508400	0.284600	0.573400
