data_RIGTIL_freeONLY_PM
_symmetry_space_group_name_H-M	'P1'
_cell_length_a	9.411600
_cell_length_b	13.296700
_cell_length_c	14.936500
_cell_angle_alpha	90.000000
_cell_angle_beta	98.019000
_cell_angle_gamma	90.000000
_symmetry_Int_Tables_number 1

loop_
_symmetry_equiv_pos_as_xyz
'x,y,z'

loop_
_atom_site_label
_atom_site_type_symbol
_atom_site_fract_x
_atom_site_fract_y
_atom_site_fract_z
Zn11	Zn1	0.032240	0.868390	0.655800
O11	O1	0.878310	0.939920	0.573460
O21	O2	0.752900	0.883460	0.677710
O31	O3	0.800340	0.074160	0.389060
O41	O4	0.823160	0.160560	0.519500
C11	C1	0.628200	0.970780	0.552410
C21	C2	0.630200	0.044280	0.485540
C31	C3	0.497600	0.928130	0.566510
H11	H1	0.496300	0.879200	0.612700
C41	C4	0.761500	0.929540	0.606360
C51	C5	0.764300	0.097380	0.465760
O51	O5	0.207520	0.670900	0.664240
O61	O6	0.983530	0.728140	0.627500
O71	O7	0.953090	0.376360	0.711490
O81	O8	0.960700	0.540560	0.738440
C61	C6	0.040200	0.575530	0.563670
C71	C7	0.057600	0.589310	0.473420
H21	H2	0.097300	0.650400	0.455200
C81	C8	0.982400	0.485140	0.590290
C91	C9	0.082300	0.662940	0.625960
C101	C10	0.964200	0.466790	0.686870
Zn21	Zn2	0.967760	0.368390	0.844200
O91	O9	0.121690	0.439920	0.926540
O101	O10	0.247100	0.383460	0.822290
O111	O11	0.199660	0.574160	0.110940
O121	O12	0.176840	0.660560	0.980500
C111	C11	0.371800	0.470780	0.947590
C121	C12	0.369800	0.544280	0.014460
C131	C13	0.502400	0.428130	0.933490
H31	H3	0.503700	0.379200	0.887300
C141	C14	0.238500	0.429540	0.893640
C151	C15	0.235700	0.597380	0.034240
O131	O13	0.792480	0.170900	0.835760
O141	O14	0.016470	0.228140	0.872500
O151	O15	0.046910	0.876360	0.788510
O161	O16	0.039300	0.040560	0.761560
C161	C16	0.959800	0.075530	0.936330
C171	C17	0.942400	0.089310	0.026580
H41	H4	0.902700	0.150400	0.044800
C181	C18	0.017600	0.985140	0.909710
C191	C19	0.917700	0.162940	0.874040
C201	C20	0.035800	0.966790	0.813130
Zn31	Zn3	0.967760	0.131610	0.344200
O171	O17	0.121690	0.060080	0.426540
O181	O18	0.247100	0.116540	0.322290
O191	O19	0.199660	0.925840	0.610940
O201	O20	0.176840	0.839440	0.480500
C211	C21	0.371800	0.029220	0.447590
C221	C22	0.369800	0.955720	0.514460
C231	C23	0.502400	0.071870	0.433490
H51	H5	0.503700	0.120800	0.387300
C241	C24	0.238500	0.070460	0.393640
C251	C25	0.235700	0.902620	0.534240
O211	O21	0.792480	0.329100	0.335760
O221	O22	0.016470	0.271860	0.372500
O231	O23	0.046910	0.623640	0.288510
O241	O24	0.039300	0.459440	0.261560
C261	C26	0.959800	0.424470	0.436330
C271	C27	0.942400	0.410690	0.526580
H61	H6	0.902700	0.349600	0.544800
C281	C28	0.017600	0.514860	0.409710
C291	C29	0.917700	0.337060	0.374040
C301	C30	0.035800	0.533210	0.313130
Zn41	Zn4	0.032240	0.631610	0.155800
O251	O25	0.878310	0.560080	0.073460
O261	O26	0.752900	0.616540	0.177710
O271	O27	0.800340	0.425840	0.889060
O281	O28	0.823160	0.339440	0.019500
C311	C31	0.628200	0.529220	0.052410
C321	C32	0.630200	0.455720	0.985540
C331	C33	0.497600	0.571870	0.066510
H71	H7	0.496300	0.620800	0.112700
C341	C34	0.761500	0.570460	0.106360
C351	C35	0.764300	0.402620	0.965760
O291	O29	0.207520	0.829100	0.164240
O301	O30	0.983530	0.771860	0.127500
O311	O31	0.953090	0.123640	0.211490
O321	O32	0.960700	0.959440	0.238440
C361	C36	0.040200	0.924470	0.063670
C371	C37	0.057600	0.910690	0.973420
H81	H8	0.097300	0.849600	0.955200
C381	C38	0.982400	0.014860	0.090290
C391	C39	0.082300	0.837060	0.125960
C401	C40	0.964200	0.033210	0.186870
