data_RINSEM_freeONLY_PM
_symmetry_space_group_name_H-M	'P1'
_cell_length_a	15.210900
_cell_length_b	11.728100
_cell_length_c	14.182100
_cell_angle_alpha	90.000000
_cell_angle_beta	90.000000
_cell_angle_gamma	90.000000
_symmetry_Int_Tables_number 1

loop_
_symmetry_equiv_pos_as_xyz
'x,y,z'

loop_
_atom_site_label
_atom_site_type_symbol
_atom_site_fract_x
_atom_site_fract_y
_atom_site_fract_z
P11	P1	0.168110	0.877800	0.591010
O11	O1	0.087970	0.953670	0.578370
O21	O2	0.222220	0.880390	0.499600
O31	O3	0.221800	0.903440	0.676590
H11	H1	0.135000	0.774000	0.597000
P21	P2	0.168110	0.377800	0.091010
O41	O4	0.087970	0.453670	0.078370
O51	O5	0.222220	0.380390	0.999600
O61	O6	0.221800	0.403440	0.176590
H21	H2	0.135000	0.274000	0.097000
P31	P3	0.668110	0.877800	0.091010
O71	O7	0.587970	0.953670	0.078370
O81	O8	0.722220	0.880390	0.999600
O91	O9	0.721800	0.903440	0.176590
H31	H3	0.635000	0.774000	0.097000
P41	P4	0.668110	0.377800	0.591010
O101	O10	0.587970	0.453670	0.578370
O111	O11	0.722220	0.380390	0.499600
O121	O12	0.721800	0.403440	0.676590
H41	H4	0.635000	0.274000	0.597000
P51	P5	0.831890	0.122200	0.591010
O131	O13	0.912030	0.046330	0.578370
O141	O14	0.777780	0.119610	0.499600
O151	O15	0.778200	0.096560	0.676590
H51	H5	0.865000	0.226000	0.597000
P61	P6	0.831890	0.622200	0.091010
O161	O16	0.912030	0.546330	0.078370
O171	O17	0.777780	0.619610	0.999600
O181	O18	0.778200	0.596560	0.176590
H61	H6	0.865000	0.726000	0.097000
P71	P7	0.331890	0.122200	0.091010
O191	O19	0.412030	0.046330	0.078370
O201	O20	0.277780	0.119610	0.999600
O211	O21	0.278200	0.096560	0.176590
H71	H7	0.365000	0.226000	0.097000
P81	P8	0.331890	0.622200	0.591010
O221	O22	0.412030	0.546330	0.578370
O231	O23	0.277780	0.619610	0.499600
O241	O24	0.278200	0.596560	0.676590
H81	H8	0.365000	0.726000	0.597000
P91	P9	0.418110	0.372200	0.841010
O251	O25	0.337970	0.296330	0.828370
O261	O26	0.472220	0.369610	0.749600
O271	O27	0.471800	0.346560	0.926590
H91	H9	0.385000	0.476000	0.847000
P101	P10	0.418110	0.872200	0.341010
O281	O28	0.337970	0.796330	0.328370
O291	O29	0.472220	0.869610	0.249600
O301	O30	0.471800	0.846560	0.426590
H101	H10	0.385000	0.976000	0.347000
P111	P11	0.918110	0.372200	0.341010
O311	O31	0.837970	0.296330	0.328370
O321	O32	0.972220	0.369610	0.249600
O331	O33	0.971800	0.346560	0.426590
H111	H11	0.885000	0.476000	0.347000
P121	P12	0.918110	0.872200	0.841010
O341	O34	0.837970	0.796330	0.828370
O351	O35	0.972220	0.869610	0.749600
O361	O36	0.971800	0.846560	0.926590
H121	H12	0.885000	0.976000	0.847000
P131	P13	0.081890	0.127800	0.841010
O371	O37	0.162030	0.203670	0.828370
O381	O38	0.027780	0.130390	0.749600
O391	O39	0.028200	0.153440	0.926590
H131	H13	0.115000	0.024000	0.847000
P141	P14	0.081890	0.627800	0.341010
O401	O40	0.162030	0.703670	0.328370
O411	O41	0.027780	0.630390	0.249600
O421	O42	0.028200	0.653440	0.426590
H141	H14	0.115000	0.524000	0.347000
P151	P15	0.581890	0.127800	0.341010
O431	O43	0.662030	0.203670	0.328370
O441	O44	0.527780	0.130390	0.249600
O451	O45	0.528200	0.153440	0.426590
H151	H15	0.615000	0.024000	0.347000
P161	P16	0.581890	0.627800	0.841010
O461	O46	0.662030	0.703670	0.828370
O471	O47	0.527780	0.630390	0.749600
O481	O48	0.528200	0.653440	0.926590
H161	H16	0.615000	0.524000	0.847000
Zn11	Zn1	0.000000	0.000000	0.669380
Zn21	Zn2	0.000000	0.500000	0.169380
Zn31	Zn3	0.500000	0.000000	0.169380
Zn41	Zn4	0.500000	0.500000	0.669380
Zn51	Zn5	0.250000	0.250000	0.919380
Zn61	Zn6	0.250000	0.750000	0.419380
Zn71	Zn7	0.750000	0.250000	0.419380
Zn81	Zn8	0.750000	0.750000	0.919380
