data_RIPKIM01_freeONLY_PM
_symmetry_space_group_name_H-M	'P1'
_cell_length_a	29.135000
_cell_length_b	13.191000
_cell_length_c	8.599000
_cell_angle_alpha	90.000000
_cell_angle_beta	90.247000
_cell_angle_gamma	90.000000
_symmetry_Int_Tables_number 1

loop_
_symmetry_equiv_pos_as_xyz
'x,y,z'

loop_
_atom_site_label
_atom_site_type_symbol
_atom_site_fract_x
_atom_site_fract_y
_atom_site_fract_z
C11	C1	0.376460	0.825400	0.738800
H11	H1	0.376100	0.754900	0.737300
C21	C2	0.411490	0.872500	0.816700
H21	H2	0.433800	0.834000	0.867000
C31	C3	0.413900	0.975800	0.821100
C41	C4	0.378580	0.027100	0.747500
H31	H3	0.377800	0.097500	0.749300
C51	C5	0.344470	0.973800	0.671600
H41	H4	0.321300	0.010200	0.622100
C61	C6	0.452020	0.030400	0.900100
C71	C7	0.452160	0.142500	0.896900
H51	H5	0.478700	0.167300	0.951500
H61	H6	0.424900	0.167600	0.946300
H71	H7	0.452900	0.165500	0.791100
C81	C8	0.211120	0.766600	0.762000
C91	C9	0.188510	0.790000	0.915200
H81	H8	0.195100	0.735800	0.988200
H91	H9	0.155500	0.792900	0.900300
C101	C10	0.205190	0.890500	0.983400
H101	H10	0.190300	0.901900	0.082500
H111	H11	0.238000	0.886500	0.002200
C111	C11	0.195270	0.979000	0.876400
H121	H12	0.162200	0.985600	0.865500
H131	H13	0.207500	0.963300	0.774400
C121	C12	0.214540	0.080800	0.927500
N11	N1	0.343100	0.873600	0.665500
N21	N2	0.481840	0.973500	0.964000
O11	O1	0.251930	0.793000	0.745800
O21	O2	0.187300	0.722200	0.660000
O31	O3	0.190420	0.156700	0.903700
O41	O4	0.253850	0.081200	0.985500
Cu11	Cu1	0.287450	0.795180	0.550660
C131	C13	0.876460	0.325400	0.738800
H141	H14	0.876100	0.254900	0.737300
C141	C14	0.911490	0.372500	0.816700
H151	H15	0.933800	0.334000	0.867000
C151	C15	0.913900	0.475800	0.821100
C161	C16	0.878580	0.527100	0.747500
H161	H16	0.877800	0.597500	0.749300
C171	C17	0.844470	0.473800	0.671600
H171	H17	0.821300	0.510200	0.622100
C181	C18	0.952020	0.530400	0.900100
C191	C19	0.952160	0.642500	0.896900
H181	H18	0.978700	0.667300	0.951500
H191	H19	0.924900	0.667600	0.946300
H201	H20	0.952900	0.665500	0.791100
C201	C20	0.711120	0.266600	0.762000
C211	C21	0.688510	0.290000	0.915200
H211	H21	0.695100	0.235800	0.988200
H221	H22	0.655500	0.292900	0.900300
C221	C22	0.705190	0.390500	0.983400
H231	H23	0.690300	0.401900	0.082500
H241	H24	0.738000	0.386500	0.002200
C231	C23	0.695270	0.479000	0.876400
H251	H25	0.662200	0.485600	0.865500
H261	H26	0.707500	0.463300	0.774400
C241	C24	0.714540	0.580800	0.927500
N31	N3	0.843100	0.373600	0.665500
N41	N4	0.981840	0.473500	0.964000
O51	O5	0.751930	0.293000	0.745800
O61	O6	0.687300	0.222200	0.660000
O71	O7	0.690420	0.656700	0.903700
O81	O8	0.753850	0.581200	0.985500
Cu21	Cu2	0.787450	0.295180	0.550660
C251	C25	0.623540	0.825400	0.761200
H271	H27	0.623900	0.754900	0.762700
C261	C26	0.588510	0.872500	0.683300
H281	H28	0.566200	0.834000	0.633000
C271	C27	0.586100	0.975800	0.678900
C281	C28	0.621420	0.027100	0.752500
H291	H29	0.622200	0.097500	0.750700
C291	C29	0.655530	0.973800	0.828400
H301	H30	0.678700	0.010200	0.877900
C301	C30	0.547980	0.030400	0.599900
C311	C31	0.547840	0.142500	0.603100
H311	H31	0.521300	0.167300	0.548500
H321	H32	0.575100	0.167600	0.553700
H331	H33	0.547100	0.165500	0.708900
C321	C32	0.788880	0.766600	0.738000
C331	C33	0.811490	0.790000	0.584800
H341	H34	0.804900	0.735800	0.511800
H351	H35	0.844500	0.792900	0.599700
C341	C34	0.794810	0.890500	0.516600
H361	H36	0.809700	0.901900	0.417500
H371	H37	0.762000	0.886500	0.497800
C351	C35	0.804730	0.979000	0.623600
H381	H38	0.837800	0.985600	0.634500
H391	H39	0.792500	0.963300	0.725600
C361	C36	0.785460	0.080800	0.572500
N51	N5	0.656900	0.873600	0.834500
N61	N6	0.518160	0.973500	0.536000
O91	O9	0.748070	0.793000	0.754200
O101	O10	0.812700	0.722200	0.840000
O111	O11	0.809580	0.156700	0.596300
O121	O12	0.746150	0.081200	0.514500
Cu31	Cu3	0.712550	0.795180	0.949340
C371	C37	0.123540	0.325400	0.761200
H401	H40	0.123900	0.254900	0.762700
C381	C38	0.088510	0.372500	0.683300
H411	H41	0.066200	0.334000	0.633000
C391	C39	0.086100	0.475800	0.678900
C401	C40	0.121420	0.527100	0.752500
H421	H42	0.122200	0.597500	0.750700
C411	C41	0.155530	0.473800	0.828400
H431	H43	0.178700	0.510200	0.877900
C421	C42	0.047980	0.530400	0.599900
C431	C43	0.047840	0.642500	0.603100
H441	H44	0.021300	0.667300	0.548500
H451	H45	0.075100	0.667600	0.553700
H461	H46	0.047100	0.665500	0.708900
C441	C44	0.288880	0.266600	0.738000
C451	C45	0.311490	0.290000	0.584800
H471	H47	0.304900	0.235800	0.511800
H481	H48	0.344500	0.292900	0.599700
C461	C46	0.294810	0.390500	0.516600
H491	H49	0.309700	0.401900	0.417500
H501	H50	0.262000	0.386500	0.497800
C471	C47	0.304730	0.479000	0.623600
H511	H51	0.337800	0.485600	0.634500
H521	H52	0.292500	0.463300	0.725600
C481	C48	0.285460	0.580800	0.572500
N71	N7	0.156900	0.373600	0.834500
N81	N8	0.018160	0.473500	0.536000
O131	O13	0.248070	0.293000	0.754200
O141	O14	0.312700	0.222200	0.840000
O151	O15	0.309580	0.656700	0.596300
O161	O16	0.246150	0.581200	0.514500
Cu41	Cu4	0.212550	0.295180	0.949340
C491	C49	0.623540	0.174600	0.261200
H531	H53	0.623900	0.245100	0.262700
C501	C50	0.588510	0.127500	0.183300
H541	H54	0.566200	0.166000	0.133000
C511	C51	0.586100	0.024200	0.178900
C521	C52	0.621420	0.972900	0.252500
H551	H55	0.622200	0.902500	0.250700
C531	C53	0.655530	0.026200	0.328400
H561	H56	0.678700	0.989800	0.377900
C541	C54	0.547980	0.969600	0.099900
C551	C55	0.547840	0.857500	0.103100
H571	H57	0.521300	0.832700	0.048500
H581	H58	0.575100	0.832400	0.053700
H591	H59	0.547100	0.834500	0.208900
C561	C56	0.788880	0.233400	0.238000
C571	C57	0.811490	0.210000	0.084800
H601	H60	0.804900	0.264200	0.011800
H611	H61	0.844500	0.207100	0.099700
C581	C58	0.794810	0.109500	0.016600
H621	H62	0.809700	0.098100	0.917500
H631	H63	0.762000	0.113500	0.997800
C591	C59	0.804730	0.021000	0.123600
H641	H64	0.837800	0.014400	0.134500
H651	H65	0.792500	0.036700	0.225600
C601	C60	0.785460	0.919200	0.072500
N91	N9	0.656900	0.126400	0.334500
N101	N10	0.518160	0.026500	0.036000
O171	O17	0.748070	0.207000	0.254200
O181	O18	0.812700	0.277800	0.340000
O191	O19	0.809580	0.843300	0.096300
O201	O20	0.746150	0.918800	0.014500
Cu51	Cu5	0.712550	0.204820	0.449340
C611	C61	0.123540	0.674600	0.261200
H661	H66	0.123900	0.745100	0.262700
C621	C62	0.088510	0.627500	0.183300
H671	H67	0.066200	0.666000	0.133000
C631	C63	0.086100	0.524200	0.178900
C641	C64	0.121420	0.472900	0.252500
H681	H68	0.122200	0.402500	0.250700
C651	C65	0.155530	0.526200	0.328400
H691	H69	0.178700	0.489800	0.377900
C661	C66	0.047980	0.469600	0.099900
C671	C67	0.047840	0.357500	0.103100
H701	H70	0.021300	0.332700	0.048500
H711	H71	0.075100	0.332400	0.053700
H721	H72	0.047100	0.334500	0.208900
C681	C68	0.288880	0.733400	0.238000
C691	C69	0.311490	0.710000	0.084800
H731	H73	0.304900	0.764200	0.011800
H741	H74	0.344500	0.707100	0.099700
C701	C70	0.294810	0.609500	0.016600
H751	H75	0.309700	0.598100	0.917500
H761	H76	0.262000	0.613500	0.997800
C711	C71	0.304730	0.521000	0.123600
H771	H77	0.337800	0.514400	0.134500
H781	H78	0.292500	0.536700	0.225600
C721	C72	0.285460	0.419200	0.072500
N111	N11	0.156900	0.626400	0.334500
N121	N12	0.018160	0.526500	0.036000
O211	O21	0.248070	0.707000	0.254200
O221	O22	0.312700	0.777800	0.340000
O231	O23	0.309580	0.343300	0.096300
O241	O24	0.246150	0.418800	0.014500
Cu61	Cu6	0.212550	0.704820	0.449340
C731	C73	0.376460	0.174600	0.238800
H791	H79	0.376100	0.245100	0.237300
C741	C74	0.411490	0.127500	0.316700
H801	H80	0.433800	0.166000	0.367000
C751	C75	0.413900	0.024200	0.321100
C761	C76	0.378580	0.972900	0.247500
H811	H81	0.377800	0.902500	0.249300
C771	C77	0.344470	0.026200	0.171600
H821	H82	0.321300	0.989800	0.122100
C781	C78	0.452020	0.969600	0.400100
C791	C79	0.452160	0.857500	0.396900
H831	H83	0.478700	0.832700	0.451500
H841	H84	0.424900	0.832400	0.446300
H851	H85	0.452900	0.834500	0.291100
C801	C80	0.211120	0.233400	0.262000
C811	C81	0.188510	0.210000	0.415200
H861	H86	0.195100	0.264200	0.488200
H871	H87	0.155500	0.207100	0.400300
C821	C82	0.205190	0.109500	0.483400
H881	H88	0.190300	0.098100	0.582500
H891	H89	0.238000	0.113500	0.502200
C831	C83	0.195270	0.021000	0.376400
H901	H90	0.162200	0.014400	0.365500
H911	H91	0.207500	0.036700	0.274400
C841	C84	0.214540	0.919200	0.427500
N131	N13	0.343100	0.126400	0.165500
N141	N14	0.481840	0.026500	0.464000
O251	O25	0.251930	0.207000	0.245800
O261	O26	0.187300	0.277800	0.160000
O271	O27	0.190420	0.843300	0.403700
O281	O28	0.253850	0.918800	0.485500
Cu71	Cu7	0.287450	0.204820	0.050660
C851	C85	0.876460	0.674600	0.238800
H921	H92	0.876100	0.745100	0.237300
C861	C86	0.911490	0.627500	0.316700
H931	H93	0.933800	0.666000	0.367000
C871	C87	0.913900	0.524200	0.321100
C881	C88	0.878580	0.472900	0.247500
H941	H94	0.877800	0.402500	0.249300
C891	C89	0.844470	0.526200	0.171600
H951	H95	0.821300	0.489800	0.122100
C901	C90	0.952020	0.469600	0.400100
C911	C91	0.952160	0.357500	0.396900
H961	H96	0.978700	0.332700	0.451500
H971	H97	0.924900	0.332400	0.446300
H981	H98	0.952900	0.334500	0.291100
C921	C92	0.711120	0.733400	0.262000
C931	C93	0.688510	0.710000	0.415200
H991	H99	0.695100	0.764200	0.488200
H1001	H100	0.655500	0.707100	0.400300
C941	C94	0.705190	0.609500	0.483400
H1011	H101	0.690300	0.598100	0.582500
H1021	H102	0.738000	0.613500	0.502200
C951	C95	0.695270	0.521000	0.376400
H1031	H103	0.662200	0.514400	0.365500
H1041	H104	0.707500	0.536700	0.274400
C961	C96	0.714540	0.419200	0.427500
N151	N15	0.843100	0.626400	0.165500
N161	N16	0.981840	0.526500	0.464000
O291	O29	0.751930	0.707000	0.245800
O301	O30	0.687300	0.777800	0.160000
O311	O31	0.690420	0.343300	0.403700
O321	O32	0.753850	0.418800	0.485500
Cu81	Cu8	0.787450	0.704820	0.050660
