data_RIPNOV_freeONLY_PM
_symmetry_space_group_name_H-M	'P1'
_cell_length_a	22.941600
_cell_length_b	22.941600
_cell_length_c	15.748800
_cell_angle_alpha	90.000000
_cell_angle_beta	90.000000
_cell_angle_gamma	120.000000
_symmetry_Int_Tables_number 1

loop_
_symmetry_equiv_pos_as_xyz
'x,y,z'

loop_
_atom_site_label
_atom_site_type_symbol
_atom_site_fract_x
_atom_site_fract_y
_atom_site_fract_z
N11	N1	0.973210	0.323610	0.423120
C11	C1	0.000740	0.365540	0.488410
H11	H1	0.997740	0.404290	0.494190
N21	N2	0.033150	0.348490	0.545520
C21	C2	0.990520	0.273900	0.436660
C31	C3	0.975720	0.217120	0.390750
H21	H2	0.951380	0.206770	0.340460
C41	C4	0.998760	0.176670	0.422270
H31	H3	0.990020	0.138210	0.392350
C51	C5	0.035390	0.191690	0.499490
H41	H4	0.050330	0.163060	0.518830
C61	C6	0.026910	0.288910	0.513310
C71	C7	0.049220	0.247480	0.545880
H51	H5	0.072520	0.257140	0.597080
N31	N3	0.924440	0.411500	0.354730
C81	C8	0.945640	0.473830	0.330740
H61	H6	0.976090	0.493390	0.286430
N41	N4	0.921770	0.507310	0.372140
C91	C9	0.878940	0.461640	0.430740
C101	C10	0.838740	0.467520	0.495750
H71	H7	0.838720	0.507580	0.503790
C111	C11	0.879870	0.402870	0.421410
C121	C12	0.840140	0.344850	0.474290
H81	H8	0.841190	0.305110	0.467630
C131	C13	0.800510	0.413260	0.545520
H91	H9	0.773710	0.416730	0.587210
C141	C14	0.800240	0.351580	0.536070
H101	H10	0.773270	0.315390	0.571160
Zn11	Zn1	0.934510	0.339000	0.331070
N51	N5	0.639880	0.656940	0.756450
C151	C15	0.667410	0.698870	0.821740
H111	H11	0.664410	0.737620	0.827520
N61	N6	0.699820	0.681820	0.878850
C161	C16	0.657190	0.607230	0.769990
C171	C17	0.642390	0.550450	0.724080
H121	H12	0.618050	0.540100	0.673790
C181	C18	0.665430	0.510000	0.755600
H131	H13	0.656690	0.471540	0.725680
C191	C19	0.702060	0.525020	0.832820
H141	H14	0.717000	0.496390	0.852160
C201	C20	0.693580	0.622240	0.846640
C211	C21	0.715890	0.580810	0.879210
H151	H15	0.739190	0.590470	0.930410
N71	N7	0.591110	0.744830	0.688060
C221	C22	0.612310	0.807160	0.664070
H161	H16	0.642760	0.826720	0.619760
N81	N8	0.588440	0.840640	0.705470
C231	C23	0.545610	0.794970	0.764070
C241	C24	0.505410	0.800850	0.829080
H171	H17	0.505390	0.840910	0.837120
C251	C25	0.546540	0.736200	0.754740
C261	C26	0.506810	0.678180	0.807620
H181	H18	0.507860	0.638440	0.800960
C271	C27	0.467180	0.746590	0.878850
H191	H19	0.440380	0.750060	0.920540
C281	C28	0.466910	0.684910	0.869400
H201	H20	0.439940	0.648720	0.904490
Zn21	Zn2	0.601180	0.672330	0.664400
N91	N9	0.306540	0.990280	0.089790
C291	C29	0.334070	0.032210	0.155080
H211	H21	0.331070	0.070960	0.160860
N101	N10	0.366480	0.015160	0.212190
C301	C30	0.323850	0.940570	0.103330
C311	C31	0.309050	0.883790	0.057420
H221	H22	0.284710	0.873440	0.007130
C321	C32	0.332090	0.843340	0.088940
H231	H23	0.323350	0.804880	0.059020
C331	C33	0.368720	0.858360	0.166160
H241	H24	0.383660	0.829730	0.185500
C341	C34	0.360240	0.955580	0.179980
C351	C35	0.382550	0.914150	0.212550
H251	H25	0.405850	0.923810	0.263750
N111	N11	0.257770	0.078170	0.021400
C361	C36	0.278970	0.140500	0.997410
H261	H26	0.309420	0.160060	0.953100
N121	N12	0.255100	0.173980	0.038810
C371	C37	0.212270	0.128310	0.097410
C381	C38	0.172070	0.134190	0.162420
H271	H27	0.172050	0.174250	0.170460
C391	C39	0.213200	0.069540	0.088080
C401	C40	0.173470	0.011520	0.140960
H281	H28	0.174520	0.971780	0.134300
C411	C41	0.133840	0.079930	0.212190
H291	H29	0.107040	0.083400	0.253880
C421	C42	0.133570	0.018250	0.202740
H301	H30	0.106600	0.982060	0.237830
Zn31	Zn3	0.267840	0.005670	0.997740
N131	N13	0.676390	0.649600	0.423120
C431	C43	0.634460	0.635200	0.488410
H311	H31	0.595710	0.593450	0.494190
N141	N14	0.651510	0.684660	0.545520
C441	C44	0.726100	0.716620	0.436660
C451	C45	0.782880	0.758600	0.390750
H321	H32	0.793230	0.744610	0.340460
C461	C46	0.823330	0.822090	0.422270
H331	H33	0.861790	0.851810	0.392350
C471	C47	0.808310	0.843700	0.499490
H341	H34	0.836940	0.887270	0.518830
C481	C48	0.711090	0.738000	0.513310
C491	C49	0.752520	0.801740	0.545880
H351	H35	0.742860	0.815380	0.597080
N151	N15	0.588500	0.512940	0.354730
C501	C50	0.526170	0.471810	0.330740
H361	H36	0.506610	0.482700	0.286430
N161	N16	0.492690	0.414460	0.372140
C511	C51	0.538360	0.417300	0.430740
C521	C52	0.532480	0.371220	0.495750
H371	H37	0.492420	0.331140	0.503790
C531	C53	0.597130	0.477000	0.421410
C541	C54	0.655150	0.495290	0.474290
H381	H38	0.694890	0.536080	0.467630
C551	C55	0.586740	0.387250	0.545520
H391	H39	0.583270	0.356980	0.587210
C561	C56	0.648420	0.448660	0.536070
H401	H40	0.684610	0.457880	0.571160
Zn41	Zn4	0.661000	0.595510	0.331070
N171	N17	0.343060	0.982930	0.756450
C571	C57	0.301130	0.968530	0.821740
H411	H41	0.262380	0.926780	0.827520
N181	N18	0.318180	0.017990	0.878850
C581	C58	0.392770	0.049950	0.769990
C591	C59	0.449550	0.091930	0.724080
H421	H42	0.459900	0.077940	0.673790
C601	C60	0.490000	0.155420	0.755600
H431	H43	0.528460	0.185140	0.725680
C611	C61	0.474980	0.177030	0.832820
H441	H44	0.503610	0.220600	0.852160
C621	C62	0.377760	0.071330	0.846640
C631	C63	0.419190	0.135070	0.879210
H451	H45	0.409530	0.148710	0.930410
N191	N19	0.255170	0.846270	0.688060
C641	C64	0.192840	0.805140	0.664070
H461	H46	0.173280	0.816030	0.619760
N201	N20	0.159360	0.747790	0.705470
C651	C65	0.205030	0.750630	0.764070
C661	C66	0.199150	0.704550	0.829080
H471	H47	0.159090	0.664470	0.837120
C671	C67	0.263800	0.810330	0.754740
C681	C68	0.321820	0.828620	0.807620
H481	H48	0.361560	0.869410	0.800960
C691	C69	0.253410	0.720580	0.878850
H491	H49	0.249940	0.690310	0.920540
C701	C70	0.315090	0.781990	0.869400
H501	H50	0.351280	0.791210	0.904490
Zn51	Zn5	0.327670	0.928840	0.664400
N211	N21	0.009720	0.316270	0.089790
C711	C71	0.967790	0.301870	0.155080
H511	H51	0.929040	0.260120	0.160860
N221	N22	0.984840	0.351330	0.212190
C721	C72	0.059430	0.383290	0.103330
C731	C73	0.116210	0.425270	0.057420
H521	H52	0.126560	0.411280	0.007130
C741	C74	0.156660	0.488760	0.088940
H531	H53	0.195120	0.518480	0.059020
C751	C75	0.141640	0.510370	0.166160
H541	H54	0.170270	0.553940	0.185500
C761	C76	0.044420	0.404670	0.179980
C771	C77	0.085850	0.468410	0.212550
H551	H55	0.076190	0.482050	0.263750
N231	N23	0.921830	0.179610	0.021400
C781	C78	0.859500	0.138480	0.997410
H561	H56	0.839940	0.149370	0.953100
N241	N24	0.826020	0.081130	0.038810
C791	C79	0.871690	0.083970	0.097410
C801	C80	0.865810	0.037890	0.162420
H571	H57	0.825750	0.997810	0.170460
C811	C81	0.930460	0.143670	0.088080
C821	C82	0.988480	0.161960	0.140960
H581	H58	0.028220	0.202750	0.134300
C831	C83	0.920070	0.053920	0.212190
H591	H59	0.916600	0.023650	0.253880
C841	C84	0.981750	0.115330	0.202740
H601	H60	0.017940	0.124550	0.237830
Zn61	Zn6	0.994330	0.262180	0.997740
N251	N25	0.350400	0.026790	0.423120
C851	C85	0.364800	0.999260	0.488410
H611	H61	0.406550	0.002260	0.494190
N261	N26	0.315340	0.966850	0.545520
C861	C86	0.283380	0.009480	0.436660
C871	C87	0.241400	0.024280	0.390750
H621	H62	0.255390	0.048620	0.340460
C881	C88	0.177910	0.001240	0.422270
H631	H63	0.148190	0.009980	0.392350
C891	C89	0.156300	0.964610	0.499490
H641	H64	0.112730	0.949670	0.518830
C901	C90	0.262000	0.973090	0.513310
C911	C91	0.198260	0.950780	0.545880
H651	H65	0.184620	0.927480	0.597080
N271	N27	0.487060	0.075560	0.354730
C921	C92	0.528190	0.054360	0.330740
H661	H66	0.517300	0.023910	0.286430
N281	N28	0.585540	0.078230	0.372140
C931	C93	0.582700	0.121060	0.430740
C941	C94	0.628780	0.161260	0.495750
H671	H67	0.668860	0.161280	0.503790
C951	C95	0.523000	0.120130	0.421410
C961	C96	0.504710	0.159860	0.474290
H681	H68	0.463920	0.158810	0.467630
C971	C97	0.612750	0.199490	0.545520
H691	H69	0.643020	0.226290	0.587210
C981	C98	0.551340	0.199760	0.536070
H701	H70	0.542120	0.226730	0.571160
Zn71	Zn7	0.404490	0.065490	0.331070
N291	N29	0.017070	0.360120	0.756450
C991	C99	0.031470	0.332590	0.821740
H711	H71	0.073220	0.335590	0.827520
N301	N30	0.982010	0.300180	0.878850
C1001	C100	0.950050	0.342810	0.769990
C1011	C101	0.908070	0.357610	0.724080
H721	H72	0.922060	0.381950	0.673790
C1021	C102	0.844580	0.334570	0.755600
H731	H73	0.814860	0.343310	0.725680
C1031	C103	0.822970	0.297940	0.832820
H741	H74	0.779400	0.283000	0.852160
C1041	C104	0.928670	0.306420	0.846640
C1051	C105	0.864930	0.284110	0.879210
H751	H75	0.851290	0.260810	0.930410
N311	N31	0.153730	0.408890	0.688060
C1061	C106	0.194860	0.387690	0.664070
H761	H76	0.183970	0.357240	0.619760
N321	N32	0.252210	0.411560	0.705470
C1071	C107	0.249370	0.454390	0.764070
C1081	C108	0.295450	0.494590	0.829080
H771	H77	0.335530	0.494610	0.837120
C1091	C109	0.189670	0.453460	0.754740
C1101	C110	0.171380	0.493190	0.807620
H781	H78	0.130590	0.492140	0.800960
C1111	C111	0.279420	0.532820	0.878850
H791	H79	0.309690	0.559620	0.920540
C1121	C112	0.218010	0.533090	0.869400
H801	H80	0.208790	0.560060	0.904490
Zn81	Zn8	0.071160	0.398820	0.664400
N331	N33	0.683730	0.693460	0.089790
C1131	C113	0.698130	0.665930	0.155080
H811	H81	0.739880	0.668930	0.160860
N341	N34	0.648670	0.633520	0.212190
C1141	C114	0.616710	0.676150	0.103330
C1151	C115	0.574730	0.690950	0.057420
H821	H82	0.588720	0.715290	0.007130
C1161	C116	0.511240	0.667910	0.088940
H831	H83	0.481520	0.676650	0.059020
C1171	C117	0.489630	0.631280	0.166160
H841	H84	0.446060	0.616340	0.185500
C1181	C118	0.595330	0.639760	0.179980
C1191	C119	0.531590	0.617450	0.212550
H851	H85	0.517950	0.594150	0.263750
N351	N35	0.820390	0.742230	0.021400
C1201	C120	0.861520	0.721030	0.997410
H861	H86	0.850630	0.690580	0.953100
N361	N36	0.918870	0.744900	0.038810
C1211	C121	0.916030	0.787730	0.097410
C1221	C122	0.962110	0.827930	0.162420
H871	H87	0.002190	0.827950	0.170460
C1231	C123	0.856330	0.786800	0.088080
C1241	C124	0.838040	0.826530	0.140960
H881	H88	0.797250	0.825480	0.134300
C1251	C125	0.946080	0.866160	0.212190
H891	H89	0.976350	0.892960	0.253880
C1261	C126	0.884670	0.866430	0.202740
H901	H90	0.875450	0.893400	0.237830
Zn91	Zn9	0.737820	0.732160	0.997740
N371	N37	0.026790	0.676390	0.576880
C1271	C127	0.999260	0.634460	0.511590
H911	H91	0.002260	0.595710	0.505810
N381	N38	0.966850	0.651510	0.454480
C1281	C128	0.009480	0.726100	0.563340
C1291	C129	0.024280	0.782880	0.609250
H921	H92	0.048620	0.793230	0.659540
C1301	C130	0.001240	0.823330	0.577730
H931	H93	0.009980	0.861790	0.607650
C1311	C131	0.964610	0.808310	0.500510
H941	H94	0.949670	0.836940	0.481170
C1321	C132	0.973090	0.711090	0.486690
C1331	C133	0.950780	0.752520	0.454120
H951	H95	0.927480	0.742860	0.402920
N391	N39	0.075560	0.588500	0.645270
C1341	C134	0.054360	0.526170	0.669260
H961	H96	0.023910	0.506610	0.713570
N401	N40	0.078230	0.492690	0.627860
C1351	C135	0.121060	0.538360	0.569260
C1361	C136	0.161260	0.532480	0.504250
H971	H97	0.161280	0.492420	0.496210
C1371	C137	0.120130	0.597130	0.578590
C1381	C138	0.159860	0.655150	0.525710
H981	H98	0.158810	0.694890	0.532370
C1391	C139	0.199490	0.586740	0.454480
H991	H99	0.226290	0.583270	0.412790
C1401	C140	0.199760	0.648420	0.463930
H1001	H100	0.226730	0.684610	0.428840
Zn101	Zn10	0.065490	0.661000	0.668930
N411	N41	0.693460	0.009720	0.910210
C1411	C141	0.665930	0.967790	0.844920
H1011	H101	0.668930	0.929040	0.839140
N421	N42	0.633520	0.984840	0.787810
C1421	C142	0.676150	0.059430	0.896670
C1431	C143	0.690950	0.116210	0.942580
H1021	H102	0.715290	0.126560	0.992870
C1441	C144	0.667910	0.156660	0.911060
H1031	H103	0.676650	0.195120	0.940980
C1451	C145	0.631280	0.141640	0.833840
H1041	H104	0.616340	0.170270	0.814500
C1461	C146	0.639760	0.044420	0.820020
C1471	C147	0.617450	0.085850	0.787450
H1051	H105	0.594150	0.076190	0.736250
N431	N43	0.742230	0.921830	0.978600
C1481	C148	0.721030	0.859500	0.002590
H1061	H106	0.690580	0.839940	0.046900
N441	N44	0.744900	0.826020	0.961190
C1491	C149	0.787730	0.871690	0.902590
C1501	C150	0.827930	0.865810	0.837580
H1071	H107	0.827950	0.825750	0.829540
C1511	C151	0.786800	0.930460	0.911920
C1521	C152	0.826530	0.988480	0.859040
H1081	H108	0.825480	0.028220	0.865700
C1531	C153	0.866160	0.920070	0.787810
H1091	H109	0.892960	0.916600	0.746120
C1541	C154	0.866430	0.981750	0.797260
H1101	H110	0.893400	0.017940	0.762170
Zn111	Zn11	0.732160	0.994330	0.002260
N451	N45	0.360120	0.343060	0.243550
C1551	C155	0.332590	0.301130	0.178260
H1111	H111	0.335590	0.262380	0.172480
N461	N46	0.300180	0.318180	0.121150
C1561	C156	0.342810	0.392770	0.230010
C1571	C157	0.357610	0.449550	0.275920
H1121	H112	0.381950	0.459900	0.326210
C1581	C158	0.334570	0.490000	0.244400
H1131	H113	0.343310	0.528460	0.274320
C1591	C159	0.297940	0.474980	0.167180
H1141	H114	0.283000	0.503610	0.147840
C1601	C160	0.306420	0.377760	0.153360
C1611	C161	0.284110	0.419190	0.120790
H1151	H115	0.260810	0.409530	0.069590
N471	N47	0.408890	0.255170	0.311940
C1621	C162	0.387690	0.192840	0.335930
H1161	H116	0.357240	0.173280	0.380240
N481	N48	0.411560	0.159360	0.294530
C1631	C163	0.454390	0.205030	0.235930
C1641	C164	0.494590	0.199150	0.170920
H1171	H117	0.494610	0.159090	0.162880
C1651	C165	0.453460	0.263800	0.245260
C1661	C166	0.493190	0.321820	0.192380
H1181	H118	0.492140	0.361560	0.199040
C1671	C167	0.532820	0.253410	0.121150
H1191	H119	0.559620	0.249940	0.079460
C1681	C168	0.533090	0.315090	0.130600
H1201	H120	0.560060	0.351280	0.095510
Zn121	Zn12	0.398820	0.327670	0.335600
N491	N49	0.323610	0.350400	0.576880
C1691	C169	0.365540	0.364800	0.511590
H1211	H121	0.404290	0.406550	0.505810
N501	N50	0.348490	0.315340	0.454480
C1701	C170	0.273900	0.283380	0.563340
C1711	C171	0.217120	0.241400	0.609250
H1221	H122	0.206770	0.255390	0.659540
C1721	C172	0.176670	0.177910	0.577730
H1231	H123	0.138210	0.148190	0.607650
C1731	C173	0.191690	0.156300	0.500510
H1241	H124	0.163060	0.112730	0.481170
C1741	C174	0.288910	0.262000	0.486690
C1751	C175	0.247480	0.198260	0.454120
H1251	H125	0.257140	0.184620	0.402920
N511	N51	0.411500	0.487060	0.645270
C1761	C176	0.473830	0.528190	0.669260
H1261	H126	0.493390	0.517300	0.713570
N521	N52	0.507310	0.585540	0.627860
C1771	C177	0.461640	0.582700	0.569260
C1781	C178	0.467520	0.628780	0.504250
H1271	H127	0.507580	0.668860	0.496210
C1791	C179	0.402870	0.523000	0.578590
C1801	C180	0.344850	0.504710	0.525710
H1281	H128	0.305110	0.463920	0.532370
C1811	C181	0.413260	0.612750	0.454480
H1291	H129	0.416730	0.643020	0.412790
C1821	C182	0.351580	0.551340	0.463930
H1301	H130	0.315390	0.542120	0.428840
Zn131	Zn13	0.339000	0.404490	0.668930
N531	N53	0.990280	0.683730	0.910210
C1831	C183	0.032210	0.698130	0.844920
H1311	H131	0.070960	0.739880	0.839140
N541	N54	0.015160	0.648670	0.787810
C1841	C184	0.940570	0.616710	0.896670
C1851	C185	0.883790	0.574730	0.942580
H1321	H132	0.873440	0.588720	0.992870
C1861	C186	0.843340	0.511240	0.911060
H1331	H133	0.804880	0.481520	0.940980
C1871	C187	0.858360	0.489630	0.833840
H1341	H134	0.829730	0.446060	0.814500
C1881	C188	0.955580	0.595330	0.820020
C1891	C189	0.914150	0.531590	0.787450
H1351	H135	0.923810	0.517950	0.736250
N551	N55	0.078170	0.820390	0.978600
C1901	C190	0.140500	0.861520	0.002590
H1361	H136	0.160060	0.850630	0.046900
N561	N56	0.173980	0.918870	0.961190
C1911	C191	0.128310	0.916030	0.902590
C1921	C192	0.134190	0.962110	0.837580
H1371	H137	0.174250	0.002190	0.829540
C1931	C193	0.069540	0.856330	0.911920
C1941	C194	0.011520	0.838040	0.859040
H1381	H138	0.971780	0.797250	0.865700
C1951	C195	0.079930	0.946080	0.787810
H1391	H139	0.083400	0.976350	0.746120
C1961	C196	0.018250	0.884670	0.797260
H1401	H140	0.982060	0.875450	0.762170
Zn141	Zn14	0.005670	0.737820	0.002260
N571	N57	0.656940	0.017070	0.243550
C1971	C197	0.698870	0.031470	0.178260
H1411	H141	0.737620	0.073220	0.172480
N581	N58	0.681820	0.982010	0.121150
C1981	C198	0.607230	0.950050	0.230010
C1991	C199	0.550450	0.908070	0.275920
H1421	H142	0.540100	0.922060	0.326210
C2001	C200	0.510000	0.844580	0.244400
H1431	H143	0.471540	0.814860	0.274320
C2011	C201	0.525020	0.822970	0.167180
H1441	H144	0.496390	0.779400	0.147840
C2021	C202	0.622240	0.928670	0.153360
C2031	C203	0.580810	0.864930	0.120790
H1451	H145	0.590470	0.851290	0.069590
N591	N59	0.744830	0.153730	0.311940
C2041	C204	0.807160	0.194860	0.335930
H1461	H146	0.826720	0.183970	0.380240
N601	N60	0.840640	0.252210	0.294530
C2051	C205	0.794970	0.249370	0.235930
C2061	C206	0.800850	0.295450	0.170920
H1471	H147	0.840910	0.335530	0.162880
C2071	C207	0.736200	0.189670	0.245260
C2081	C208	0.678180	0.171380	0.192380
H1481	H148	0.638440	0.130590	0.199040
C2091	C209	0.746590	0.279420	0.121150
H1491	H149	0.750060	0.309690	0.079460
C2101	C210	0.684910	0.218010	0.130600
H1501	H150	0.648720	0.208790	0.095510
Zn151	Zn15	0.672330	0.071160	0.335600
N611	N61	0.649600	0.973210	0.576880
C2111	C211	0.635200	0.000740	0.511590
H1511	H151	0.593450	0.997740	0.505810
N621	N62	0.684660	0.033150	0.454480
C2121	C212	0.716620	0.990520	0.563340
C2131	C213	0.758600	0.975720	0.609250
H1521	H152	0.744610	0.951380	0.659540
C2141	C214	0.822090	0.998760	0.577730
H1531	H153	0.851810	0.990020	0.607650
C2151	C215	0.843700	0.035390	0.500510
H1541	H154	0.887270	0.050330	0.481170
C2161	C216	0.738000	0.026910	0.486690
C2171	C217	0.801740	0.049220	0.454120
H1551	H155	0.815380	0.072520	0.402920
N631	N63	0.512940	0.924440	0.645270
C2181	C218	0.471810	0.945640	0.669260
H1561	H156	0.482700	0.976090	0.713570
N641	N64	0.414460	0.921770	0.627860
C2191	C219	0.417300	0.878940	0.569260
C2201	C220	0.371220	0.838740	0.504250
H1571	H157	0.331140	0.838720	0.496210
C2211	C221	0.477000	0.879870	0.578590
C2221	C222	0.495290	0.840140	0.525710
H1581	H158	0.536080	0.841190	0.532370
C2231	C223	0.387250	0.800510	0.454480
H1591	H159	0.356980	0.773710	0.412790
C2241	C224	0.448660	0.800240	0.463930
H1601	H160	0.457880	0.773270	0.428840
Zn161	Zn16	0.595510	0.934510	0.668930
N651	N65	0.316270	0.306540	0.910210
C2251	C225	0.301870	0.334070	0.844920
H1611	H161	0.260120	0.331070	0.839140
N661	N66	0.351330	0.366480	0.787810
C2261	C226	0.383290	0.323850	0.896670
C2271	C227	0.425270	0.309050	0.942580
H1621	H162	0.411280	0.284710	0.992870
C2281	C228	0.488760	0.332090	0.911060
H1631	H163	0.518480	0.323350	0.940980
C2291	C229	0.510370	0.368720	0.833840
H1641	H164	0.553940	0.383660	0.814500
C2301	C230	0.404670	0.360240	0.820020
C2311	C231	0.468410	0.382550	0.787450
H1651	H165	0.482050	0.405850	0.736250
N671	N67	0.179610	0.257770	0.978600
C2321	C232	0.138480	0.278970	0.002590
H1661	H166	0.149370	0.309420	0.046900
N681	N68	0.081130	0.255100	0.961190
C2331	C233	0.083970	0.212270	0.902590
C2341	C234	0.037890	0.172070	0.837580
H1671	H167	0.997810	0.172050	0.829540
C2351	C235	0.143670	0.213200	0.911920
C2361	C236	0.161960	0.173470	0.859040
H1681	H168	0.202750	0.174520	0.865700
C2371	C237	0.053920	0.133840	0.787810
H1691	H169	0.023650	0.107040	0.746120
C2381	C238	0.115330	0.133570	0.797260
H1701	H170	0.124550	0.106600	0.762170
Zn171	Zn17	0.262180	0.267840	0.002260
N691	N69	0.982930	0.639880	0.243550
C2391	C239	0.968530	0.667410	0.178260
H1711	H171	0.926780	0.664410	0.172480
N701	N70	0.017990	0.699820	0.121150
C2401	C240	0.049950	0.657190	0.230010
C2411	C241	0.091930	0.642390	0.275920
H1721	H172	0.077940	0.618050	0.326210
C2421	C242	0.155420	0.665430	0.244400
H1731	H173	0.185140	0.656690	0.274320
C2431	C243	0.177030	0.702060	0.167180
H1741	H174	0.220600	0.717000	0.147840
C2441	C244	0.071330	0.693580	0.153360
C2451	C245	0.135070	0.715890	0.120790
H1751	H175	0.148710	0.739190	0.069590
N711	N71	0.846270	0.591110	0.311940
C2461	C246	0.805140	0.612310	0.335930
H1761	H176	0.816030	0.642760	0.380240
N721	N72	0.747790	0.588440	0.294530
C2471	C247	0.750630	0.545610	0.235930
C2481	C248	0.704550	0.505410	0.170920
H1771	H177	0.664470	0.505390	0.162880
C2491	C249	0.810330	0.546540	0.245260
C2501	C250	0.828620	0.506810	0.192380
H1781	H178	0.869410	0.507860	0.199040
C2511	C251	0.720580	0.467180	0.121150
H1791	H179	0.690310	0.440380	0.079460
C2521	C252	0.781990	0.466910	0.130600
H1801	H180	0.791210	0.439940	0.095510
Zn181	Zn18	0.928840	0.601180	0.335600
