data_RIRDED_freeONLY_PM
_symmetry_space_group_name_H-M	'P1'
_cell_length_a	26.113000
_cell_length_b	26.113000
_cell_length_c	19.645900
_cell_angle_alpha	90.000000
_cell_angle_beta	90.000000
_cell_angle_gamma	120.000000
_symmetry_Int_Tables_number 1

loop_
_symmetry_equiv_pos_as_xyz
'x,y,z'

loop_
_atom_site_label
_atom_site_type_symbol
_atom_site_fract_x
_atom_site_fract_y
_atom_site_fract_z
Co11	Co1	0.667160	0.102610	0.401790
N11	N1	0.741150	0.173090	0.436300
N21	N2	0.659540	0.037200	0.461600
N31	N3	0.680000	0.079800	0.308100
N41	N4	0.603400	0.121900	0.432400
C11	C1	0.758200	0.186300	0.503400
C21	C2	0.703200	0.023100	0.474800
C31	C3	0.680700	0.032600	0.285000
C41	C4	0.607200	0.159500	0.474700
C51	C5	0.734300	0.156200	0.564900
C61	C6	0.760500	0.045500	0.449900
H11	H1	0.681100	0.003700	0.312100
H21	H2	0.640000	0.183300	0.501500
H31	H3	0.698900	0.120300	0.565000
C71	C7	0.762600	0.179700	0.622900
C81	C8	0.793600	0.021000	0.474000
H41	H4	0.776100	0.075900	0.418100
O11	O1	0.673290	0.179520	0.305820
O21	O2	0.553500	0.025400	0.355200
Cl11	Cl1	0.719700	0.134800	0.695000
Cl21	Cl2	0.856200	0.030200	0.439900
Co21	Co2	0.897390	0.564550	0.401790
N51	N5	0.826910	0.568060	0.436300
N61	N6	0.962800	0.622340	0.461600
N71	N7	0.920200	0.600200	0.308100
N81	N8	0.878100	0.481500	0.432400
C91	C9	0.813700	0.571900	0.503400
C101	C10	0.976900	0.680100	0.474800
C111	C11	0.967400	0.648100	0.285000
C121	C12	0.840500	0.447700	0.474700
C131	C13	0.843800	0.578100	0.564900
C141	C14	0.954500	0.715000	0.449900
H51	H5	0.996300	0.677400	0.312100
H61	H6	0.816700	0.456700	0.501500
H71	H7	0.879700	0.578600	0.565000
C151	C15	0.820300	0.582900	0.622900
C161	C16	0.979000	0.772600	0.474000
H81	H8	0.924100	0.700200	0.418100
O31	O3	0.820480	0.493770	0.305820
O41	O4	0.974600	0.528100	0.355200
Cl31	Cl3	0.865200	0.584900	0.695000
Cl41	Cl4	0.969800	0.826000	0.439900
Co31	Co3	0.435450	0.332840	0.401790
N91	N9	0.431940	0.258850	0.436300
N101	N10	0.377660	0.340460	0.461600
N111	N11	0.399800	0.320000	0.308100
N121	N12	0.518500	0.396600	0.432400
C171	C17	0.428100	0.241800	0.503400
C181	C18	0.319900	0.296800	0.474800
C191	C19	0.351900	0.319300	0.285000
C201	C20	0.552300	0.392800	0.474700
C211	C21	0.421900	0.265700	0.564900
C221	C22	0.285000	0.239500	0.449900
H91	H9	0.322600	0.318900	0.312100
H101	H10	0.543300	0.360000	0.501500
H111	H11	0.421400	0.301100	0.565000
C231	C23	0.417100	0.237400	0.622900
C241	C24	0.227400	0.206400	0.474000
H121	H12	0.299800	0.223900	0.418100
O51	O5	0.506230	0.326710	0.305820
O61	O6	0.471900	0.446500	0.355200
Cl51	Cl5	0.415100	0.280300	0.695000
Cl61	Cl6	0.174000	0.143800	0.439900
Co41	Co4	0.332840	0.897390	0.901790
N131	N13	0.258850	0.826910	0.936300
N141	N14	0.340460	0.962800	0.961600
N151	N15	0.320000	0.920200	0.808100
N161	N16	0.396600	0.878100	0.932400
C251	C25	0.241800	0.813700	0.003400
C261	C26	0.296800	0.976900	0.974800
C271	C27	0.319300	0.967400	0.785000
C281	C28	0.392800	0.840500	0.974700
C291	C29	0.265700	0.843800	0.064900
C301	C30	0.239500	0.954500	0.949900
H131	H13	0.318900	0.996300	0.812100
H141	H14	0.360000	0.816700	0.001500
H151	H15	0.301100	0.879700	0.065000
C311	C31	0.237400	0.820300	0.122900
C321	C32	0.206400	0.979000	0.974000
H161	H16	0.223900	0.924100	0.918100
O71	O7	0.326710	0.820480	0.805820
O81	O8	0.446500	0.974600	0.855200
Cl71	Cl7	0.280300	0.865200	0.195000
Cl81	Cl8	0.143800	0.969800	0.939900
Co51	Co5	0.102610	0.435450	0.901790
N171	N17	0.173090	0.431940	0.936300
N181	N18	0.037200	0.377660	0.961600
N191	N19	0.079800	0.399800	0.808100
N201	N20	0.121900	0.518500	0.932400
C331	C33	0.186300	0.428100	0.003400
C341	C34	0.023100	0.319900	0.974800
C351	C35	0.032600	0.351900	0.785000
C361	C36	0.159500	0.552300	0.974700
C371	C37	0.156200	0.421900	0.064900
C381	C38	0.045500	0.285000	0.949900
H171	H17	0.003700	0.322600	0.812100
H181	H18	0.183300	0.543300	0.001500
H191	H19	0.120300	0.421400	0.065000
C391	C39	0.179700	0.417100	0.122900
C401	C40	0.021000	0.227400	0.974000
H201	H20	0.075900	0.299800	0.918100
O91	O9	0.179520	0.506230	0.805820
O101	O10	0.025400	0.471900	0.855200
Cl91	Cl9	0.134800	0.415100	0.195000
Cl101	Cl10	0.030200	0.174000	0.939900
Co61	Co6	0.564550	0.667160	0.901790
N211	N21	0.568060	0.741150	0.936300
N221	N22	0.622340	0.659540	0.961600
N231	N23	0.600200	0.680000	0.808100
N241	N24	0.481500	0.603400	0.932400
C411	C41	0.571900	0.758200	0.003400
C421	C42	0.680100	0.703200	0.974800
C431	C43	0.648100	0.680700	0.785000
C441	C44	0.447700	0.607200	0.974700
C451	C45	0.578100	0.734300	0.064900
C461	C46	0.715000	0.760500	0.949900
H211	H21	0.677400	0.681100	0.812100
H221	H22	0.456700	0.640000	0.001500
H231	H23	0.578600	0.698900	0.065000
C471	C47	0.582900	0.762600	0.122900
C481	C48	0.772600	0.793600	0.974000
H241	H24	0.700200	0.776100	0.918100
O111	O11	0.493770	0.673290	0.805820
O121	O12	0.528100	0.553500	0.855200
Cl111	Cl11	0.584900	0.719700	0.195000
Cl121	Cl12	0.826000	0.856200	0.939900
Co71	Co7	0.102610	0.667160	0.598210
N251	N25	0.173090	0.741150	0.563700
N261	N26	0.037200	0.659540	0.538400
N271	N27	0.079800	0.680000	0.691900
N281	N28	0.121900	0.603400	0.567600
C491	C49	0.186300	0.758200	0.496600
C501	C50	0.023100	0.703200	0.525200
C511	C51	0.032600	0.680700	0.715000
C521	C52	0.159500	0.607200	0.525300
C531	C53	0.156200	0.734300	0.435100
C541	C54	0.045500	0.760500	0.550100
H251	H25	0.003700	0.681100	0.687900
H261	H26	0.183300	0.640000	0.498500
H271	H27	0.120300	0.698900	0.435000
C551	C55	0.179700	0.762600	0.377100
C561	C56	0.021000	0.793600	0.526000
H281	H28	0.075900	0.776100	0.581900
O131	O13	0.179520	0.673290	0.694180
O141	O14	0.025400	0.553500	0.644800
Cl131	Cl13	0.134800	0.719700	0.305000
Cl141	Cl14	0.030200	0.856200	0.560100
Co81	Co8	0.564550	0.897390	0.598210
N291	N29	0.568060	0.826910	0.563700
N301	N30	0.622340	0.962800	0.538400
N311	N31	0.600200	0.920200	0.691900
N321	N32	0.481500	0.878100	0.567600
C571	C57	0.571900	0.813700	0.496600
C581	C58	0.680100	0.976900	0.525200
C591	C59	0.648100	0.967400	0.715000
C601	C60	0.447700	0.840500	0.525300
C611	C61	0.578100	0.843800	0.435100
C621	C62	0.715000	0.954500	0.550100
H291	H29	0.677400	0.996300	0.687900
H301	H30	0.456700	0.816700	0.498500
H311	H31	0.578600	0.879700	0.435000
C631	C63	0.582900	0.820300	0.377100
C641	C64	0.772600	0.979000	0.526000
H321	H32	0.700200	0.924100	0.581900
O151	O15	0.493770	0.820480	0.694180
O161	O16	0.528100	0.974600	0.644800
Cl151	Cl15	0.584900	0.865200	0.305000
Cl161	Cl16	0.826000	0.969800	0.560100
Co91	Co9	0.332840	0.435450	0.598210
N331	N33	0.258850	0.431940	0.563700
N341	N34	0.340460	0.377660	0.538400
N351	N35	0.320000	0.399800	0.691900
N361	N36	0.396600	0.518500	0.567600
C651	C65	0.241800	0.428100	0.496600
C661	C66	0.296800	0.319900	0.525200
C671	C67	0.319300	0.351900	0.715000
C681	C68	0.392800	0.552300	0.525300
C691	C69	0.265700	0.421900	0.435100
C701	C70	0.239500	0.285000	0.550100
H331	H33	0.318900	0.322600	0.687900
H341	H34	0.360000	0.543300	0.498500
H351	H35	0.301100	0.421400	0.435000
C711	C71	0.237400	0.417100	0.377100
C721	C72	0.206400	0.227400	0.526000
H361	H36	0.223900	0.299800	0.581900
O171	O17	0.326710	0.506230	0.694180
O181	O18	0.446500	0.471900	0.644800
Cl171	Cl17	0.280300	0.415100	0.305000
Cl181	Cl18	0.143800	0.174000	0.560100
Co101	Co10	0.897390	0.332840	0.098210
N371	N37	0.826910	0.258850	0.063700
N381	N38	0.962800	0.340460	0.038400
N391	N39	0.920200	0.320000	0.191900
N401	N40	0.878100	0.396600	0.067600
C731	C73	0.813700	0.241800	0.996600
C741	C74	0.976900	0.296800	0.025200
C751	C75	0.967400	0.319300	0.215000
C761	C76	0.840500	0.392800	0.025300
C771	C77	0.843800	0.265700	0.935100
C781	C78	0.954500	0.239500	0.050100
H371	H37	0.996300	0.318900	0.187900
H381	H38	0.816700	0.360000	0.998500
H391	H39	0.879700	0.301100	0.935000
C791	C79	0.820300	0.237400	0.877100
C801	C80	0.979000	0.206400	0.026000
H401	H40	0.924100	0.223900	0.081900
O191	O19	0.820480	0.326710	0.194180
O201	O20	0.974600	0.446500	0.144800
Cl191	Cl19	0.865200	0.280300	0.805000
Cl201	Cl20	0.969800	0.143800	0.060100
Co111	Co11	0.435450	0.102610	0.098210
N411	N41	0.431940	0.173090	0.063700
N421	N42	0.377660	0.037200	0.038400
N431	N43	0.399800	0.079800	0.191900
N441	N44	0.518500	0.121900	0.067600
C811	C81	0.428100	0.186300	0.996600
C821	C82	0.319900	0.023100	0.025200
C831	C83	0.351900	0.032600	0.215000
C841	C84	0.552300	0.159500	0.025300
C851	C85	0.421900	0.156200	0.935100
C861	C86	0.285000	0.045500	0.050100
H411	H41	0.322600	0.003700	0.187900
H421	H42	0.543300	0.183300	0.998500
H431	H43	0.421400	0.120300	0.935000
C871	C87	0.417100	0.179700	0.877100
C881	C88	0.227400	0.021000	0.026000
H441	H44	0.299800	0.075900	0.081900
O211	O21	0.506230	0.179520	0.194180
O221	O22	0.471900	0.025400	0.144800
Cl211	Cl21	0.415100	0.134800	0.805000
Cl221	Cl22	0.174000	0.030200	0.060100
Co121	Co12	0.667160	0.564550	0.098210
N451	N45	0.741150	0.568060	0.063700
N461	N46	0.659540	0.622340	0.038400
N471	N47	0.680000	0.600200	0.191900
N481	N48	0.603400	0.481500	0.067600
C891	C89	0.758200	0.571900	0.996600
C901	C90	0.703200	0.680100	0.025200
C911	C91	0.680700	0.648100	0.215000
C921	C92	0.607200	0.447700	0.025300
C931	C93	0.734300	0.578100	0.935100
C941	C94	0.760500	0.715000	0.050100
H451	H45	0.681100	0.677400	0.187900
H461	H46	0.640000	0.456700	0.998500
H471	H47	0.698900	0.578600	0.935000
C951	C95	0.762600	0.582900	0.877100
C961	C96	0.793600	0.772600	0.026000
H481	H48	0.776100	0.700200	0.081900
O231	O23	0.673290	0.493770	0.194180
O241	O24	0.553500	0.528100	0.144800
Cl231	Cl23	0.719700	0.584900	0.805000
Cl241	Cl24	0.856200	0.826000	0.060100
Co131	Co13	0.332840	0.897390	0.598210
N491	N49	0.258850	0.826910	0.563700
N501	N50	0.340460	0.962800	0.538400
N511	N51	0.320000	0.920200	0.691900
N521	N52	0.396600	0.878100	0.567600
C971	C97	0.241800	0.813700	0.496600
C981	C98	0.296800	0.976900	0.525200
C991	C99	0.319300	0.967400	0.715000
C1001	C100	0.392800	0.840500	0.525300
C1011	C101	0.265700	0.843800	0.435100
C1021	C102	0.239500	0.954500	0.550100
H491	H49	0.318900	0.996300	0.687900
H501	H50	0.360000	0.816700	0.498500
H511	H51	0.301100	0.879700	0.435000
C1031	C103	0.237400	0.820300	0.377100
C1041	C104	0.206400	0.979000	0.526000
H521	H52	0.223900	0.924100	0.581900
O251	O25	0.326710	0.820480	0.694180
O261	O26	0.446500	0.974600	0.644800
Cl251	Cl25	0.280300	0.865200	0.305000
Cl261	Cl26	0.143800	0.969800	0.560100
Co141	Co14	0.102610	0.435450	0.598210
N531	N53	0.173090	0.431940	0.563700
N541	N54	0.037200	0.377660	0.538400
N551	N55	0.079800	0.399800	0.691900
N561	N56	0.121900	0.518500	0.567600
C1051	C105	0.186300	0.428100	0.496600
C1061	C106	0.023100	0.319900	0.525200
C1071	C107	0.032600	0.351900	0.715000
C1081	C108	0.159500	0.552300	0.525300
C1091	C109	0.156200	0.421900	0.435100
C1101	C110	0.045500	0.285000	0.550100
H531	H53	0.003700	0.322600	0.687900
H541	H54	0.183300	0.543300	0.498500
H551	H55	0.120300	0.421400	0.435000
C1111	C111	0.179700	0.417100	0.377100
C1121	C112	0.021000	0.227400	0.526000
H561	H56	0.075900	0.299800	0.581900
O271	O27	0.179520	0.506230	0.694180
O281	O28	0.025400	0.471900	0.644800
Cl271	Cl27	0.134800	0.415100	0.305000
Cl281	Cl28	0.030200	0.174000	0.560100
Co151	Co15	0.564550	0.667160	0.598210
N571	N57	0.568060	0.741150	0.563700
N581	N58	0.622340	0.659540	0.538400
N591	N59	0.600200	0.680000	0.691900
N601	N60	0.481500	0.603400	0.567600
C1131	C113	0.571900	0.758200	0.496600
C1141	C114	0.680100	0.703200	0.525200
C1151	C115	0.648100	0.680700	0.715000
C1161	C116	0.447700	0.607200	0.525300
C1171	C117	0.578100	0.734300	0.435100
C1181	C118	0.715000	0.760500	0.550100
H571	H57	0.677400	0.681100	0.687900
H581	H58	0.456700	0.640000	0.498500
H591	H59	0.578600	0.698900	0.435000
C1191	C119	0.582900	0.762600	0.377100
C1201	C120	0.772600	0.793600	0.526000
H601	H60	0.700200	0.776100	0.581900
O291	O29	0.493770	0.673290	0.694180
O301	O30	0.528100	0.553500	0.644800
Cl291	Cl29	0.584900	0.719700	0.305000
Cl301	Cl30	0.826000	0.856200	0.560100
Co161	Co16	0.667160	0.102610	0.098210
N611	N61	0.741150	0.173090	0.063700
N621	N62	0.659540	0.037200	0.038400
N631	N63	0.680000	0.079800	0.191900
N641	N64	0.603400	0.121900	0.067600
C1211	C121	0.758200	0.186300	0.996600
C1221	C122	0.703200	0.023100	0.025200
C1231	C123	0.680700	0.032600	0.215000
C1241	C124	0.607200	0.159500	0.025300
C1251	C125	0.734300	0.156200	0.935100
C1261	C126	0.760500	0.045500	0.050100
H611	H61	0.681100	0.003700	0.187900
H621	H62	0.640000	0.183300	0.998500
H631	H63	0.698900	0.120300	0.935000
C1271	C127	0.762600	0.179700	0.877100
C1281	C128	0.793600	0.021000	0.026000
H641	H64	0.776100	0.075900	0.081900
O311	O31	0.673290	0.179520	0.194180
O321	O32	0.553500	0.025400	0.144800
Cl311	Cl31	0.719700	0.134800	0.805000
Cl321	Cl32	0.856200	0.030200	0.060100
Co171	Co17	0.897390	0.564550	0.098210
N651	N65	0.826910	0.568060	0.063700
N661	N66	0.962800	0.622340	0.038400
N671	N67	0.920200	0.600200	0.191900
N681	N68	0.878100	0.481500	0.067600
C1291	C129	0.813700	0.571900	0.996600
C1301	C130	0.976900	0.680100	0.025200
C1311	C131	0.967400	0.648100	0.215000
C1321	C132	0.840500	0.447700	0.025300
C1331	C133	0.843800	0.578100	0.935100
C1341	C134	0.954500	0.715000	0.050100
H651	H65	0.996300	0.677400	0.187900
H661	H66	0.816700	0.456700	0.998500
H671	H67	0.879700	0.578600	0.935000
C1351	C135	0.820300	0.582900	0.877100
C1361	C136	0.979000	0.772600	0.026000
H681	H68	0.924100	0.700200	0.081900
O331	O33	0.820480	0.493770	0.194180
O341	O34	0.974600	0.528100	0.144800
Cl331	Cl33	0.865200	0.584900	0.805000
Cl341	Cl34	0.969800	0.826000	0.060100
Co181	Co18	0.435450	0.332840	0.098210
N691	N69	0.431940	0.258850	0.063700
N701	N70	0.377660	0.340460	0.038400
N711	N71	0.399800	0.320000	0.191900
N721	N72	0.518500	0.396600	0.067600
C1371	C137	0.428100	0.241800	0.996600
C1381	C138	0.319900	0.296800	0.025200
C1391	C139	0.351900	0.319300	0.215000
C1401	C140	0.552300	0.392800	0.025300
C1411	C141	0.421900	0.265700	0.935100
C1421	C142	0.285000	0.239500	0.050100
H691	H69	0.322600	0.318900	0.187900
H701	H70	0.543300	0.360000	0.998500
H711	H71	0.421400	0.301100	0.935000
C1431	C143	0.417100	0.237400	0.877100
C1441	C144	0.227400	0.206400	0.026000
H721	H72	0.299800	0.223900	0.081900
O351	O35	0.506230	0.326710	0.194180
O361	O36	0.471900	0.446500	0.144800
Cl351	Cl35	0.415100	0.280300	0.805000
Cl361	Cl36	0.174000	0.143800	0.060100
Co191	Co19	0.897390	0.332840	0.401790
N731	N73	0.826910	0.258850	0.436300
N741	N74	0.962800	0.340460	0.461600
N751	N75	0.920200	0.320000	0.308100
N761	N76	0.878100	0.396600	0.432400
C1451	C145	0.813700	0.241800	0.503400
C1461	C146	0.976900	0.296800	0.474800
C1471	C147	0.967400	0.319300	0.285000
C1481	C148	0.840500	0.392800	0.474700
C1491	C149	0.843800	0.265700	0.564900
C1501	C150	0.954500	0.239500	0.449900
H731	H73	0.996300	0.318900	0.312100
H741	H74	0.816700	0.360000	0.501500
H751	H75	0.879700	0.301100	0.565000
C1511	C151	0.820300	0.237400	0.622900
C1521	C152	0.979000	0.206400	0.474000
H761	H76	0.924100	0.223900	0.418100
O371	O37	0.820480	0.326710	0.305820
O381	O38	0.974600	0.446500	0.355200
Cl371	Cl37	0.865200	0.280300	0.695000
Cl381	Cl38	0.969800	0.143800	0.439900
Co201	Co20	0.435450	0.102610	0.401790
N771	N77	0.431940	0.173090	0.436300
N781	N78	0.377660	0.037200	0.461600
N791	N79	0.399800	0.079800	0.308100
N801	N80	0.518500	0.121900	0.432400
C1531	C153	0.428100	0.186300	0.503400
C1541	C154	0.319900	0.023100	0.474800
C1551	C155	0.351900	0.032600	0.285000
C1561	C156	0.552300	0.159500	0.474700
C1571	C157	0.421900	0.156200	0.564900
C1581	C158	0.285000	0.045500	0.449900
H771	H77	0.322600	0.003700	0.312100
H781	H78	0.543300	0.183300	0.501500
H791	H79	0.421400	0.120300	0.565000
C1591	C159	0.417100	0.179700	0.622900
C1601	C160	0.227400	0.021000	0.474000
H801	H80	0.299800	0.075900	0.418100
O391	O39	0.506230	0.179520	0.305820
O401	O40	0.471900	0.025400	0.355200
Cl391	Cl39	0.415100	0.134800	0.695000
Cl401	Cl40	0.174000	0.030200	0.439900
Co211	Co21	0.667160	0.564550	0.401790
N811	N81	0.741150	0.568060	0.436300
N821	N82	0.659540	0.622340	0.461600
N831	N83	0.680000	0.600200	0.308100
N841	N84	0.603400	0.481500	0.432400
C1611	C161	0.758200	0.571900	0.503400
C1621	C162	0.703200	0.680100	0.474800
C1631	C163	0.680700	0.648100	0.285000
C1641	C164	0.607200	0.447700	0.474700
C1651	C165	0.734300	0.578100	0.564900
C1661	C166	0.760500	0.715000	0.449900
H811	H81	0.681100	0.677400	0.312100
H821	H82	0.640000	0.456700	0.501500
H831	H83	0.698900	0.578600	0.565000
C1671	C167	0.762600	0.582900	0.622900
C1681	C168	0.793600	0.772600	0.474000
H841	H84	0.776100	0.700200	0.418100
O411	O41	0.673290	0.493770	0.305820
O421	O42	0.553500	0.528100	0.355200
Cl411	Cl41	0.719700	0.584900	0.695000
Cl421	Cl42	0.856200	0.826000	0.439900
Co221	Co22	0.102610	0.667160	0.901790
N851	N85	0.173090	0.741150	0.936300
N861	N86	0.037200	0.659540	0.961600
N871	N87	0.079800	0.680000	0.808100
N881	N88	0.121900	0.603400	0.932400
C1691	C169	0.186300	0.758200	0.003400
C1701	C170	0.023100	0.703200	0.974800
C1711	C171	0.032600	0.680700	0.785000
C1721	C172	0.159500	0.607200	0.974700
C1731	C173	0.156200	0.734300	0.064900
C1741	C174	0.045500	0.760500	0.949900
H851	H85	0.003700	0.681100	0.812100
H861	H86	0.183300	0.640000	0.001500
H871	H87	0.120300	0.698900	0.065000
C1751	C175	0.179700	0.762600	0.122900
C1761	C176	0.021000	0.793600	0.974000
H881	H88	0.075900	0.776100	0.918100
O431	O43	0.179520	0.673290	0.805820
O441	O44	0.025400	0.553500	0.855200
Cl431	Cl43	0.134800	0.719700	0.195000
Cl441	Cl44	0.030200	0.856200	0.939900
Co231	Co23	0.564550	0.897390	0.901790
N891	N89	0.568060	0.826910	0.936300
N901	N90	0.622340	0.962800	0.961600
N911	N91	0.600200	0.920200	0.808100
N921	N92	0.481500	0.878100	0.932400
C1771	C177	0.571900	0.813700	0.003400
C1781	C178	0.680100	0.976900	0.974800
C1791	C179	0.648100	0.967400	0.785000
C1801	C180	0.447700	0.840500	0.974700
C1811	C181	0.578100	0.843800	0.064900
C1821	C182	0.715000	0.954500	0.949900
H891	H89	0.677400	0.996300	0.812100
H901	H90	0.456700	0.816700	0.001500
H911	H91	0.578600	0.879700	0.065000
C1831	C183	0.582900	0.820300	0.122900
C1841	C184	0.772600	0.979000	0.974000
H921	H92	0.700200	0.924100	0.918100
O451	O45	0.493770	0.820480	0.805820
O461	O46	0.528100	0.974600	0.855200
Cl451	Cl45	0.584900	0.865200	0.195000
Cl461	Cl46	0.826000	0.969800	0.939900
Co241	Co24	0.332840	0.435450	0.901790
N931	N93	0.258850	0.431940	0.936300
N941	N94	0.340460	0.377660	0.961600
N951	N95	0.320000	0.399800	0.808100
N961	N96	0.396600	0.518500	0.932400
C1851	C185	0.241800	0.428100	0.003400
C1861	C186	0.296800	0.319900	0.974800
C1871	C187	0.319300	0.351900	0.785000
C1881	C188	0.392800	0.552300	0.974700
C1891	C189	0.265700	0.421900	0.064900
C1901	C190	0.239500	0.285000	0.949900
H931	H93	0.318900	0.322600	0.812100
H941	H94	0.360000	0.543300	0.001500
H951	H95	0.301100	0.421400	0.065000
C1911	C191	0.237400	0.417100	0.122900
C1921	C192	0.206400	0.227400	0.974000
H961	H96	0.223900	0.299800	0.918100
O471	O47	0.326710	0.506230	0.805820
O481	O48	0.446500	0.471900	0.855200
Cl471	Cl47	0.280300	0.415100	0.195000
Cl481	Cl48	0.143800	0.174000	0.939900
C1931	C193	0.782850	0.217150	0.401000
H971	H97	0.781300	0.218700	0.353800
C1941	C194	0.782850	0.565700	0.401000
H981	H98	0.781300	0.562600	0.353800
C1951	C195	0.434300	0.217150	0.401000
H991	H99	0.437400	0.218700	0.353800
C1961	C196	0.217150	0.782850	0.901000
H1001	H100	0.218700	0.781300	0.853800
C1971	C197	0.217150	0.434300	0.901000
H1011	H101	0.218700	0.437400	0.853800
C1981	C198	0.565700	0.782850	0.901000
H1021	H102	0.562600	0.781300	0.853800
C1991	C199	0.217150	0.782850	0.599000
H1031	H103	0.218700	0.781300	0.646200
C2001	C200	0.565700	0.782850	0.599000
H1041	H104	0.562600	0.781300	0.646200
C2011	C201	0.217150	0.434300	0.599000
H1051	H105	0.218700	0.437400	0.646200
C2021	C202	0.782850	0.217150	0.099000
H1061	H106	0.781300	0.218700	0.146200
C2031	C203	0.434300	0.217150	0.099000
H1071	H107	0.437400	0.218700	0.146200
C2041	C204	0.782850	0.565700	0.099000
H1081	H108	0.781300	0.562600	0.146200
C2051	C205	0.613700	0.000000	0.500000
H1091	H109	0.578100	0.000000	0.500000
C2061	C206	0.000000	0.613700	0.500000
H1101	H110	0.000000	0.578100	0.500000
C2071	C207	0.386300	0.386300	0.500000
H1111	H111	0.421900	0.421900	0.500000
C2081	C208	0.386300	0.000000	0.000000
H1121	H112	0.421900	0.000000	0.000000
C2091	C209	0.000000	0.386300	0.000000
H1131	H113	0.000000	0.421900	0.000000
C2101	C210	0.613700	0.613700	0.000000
H1141	H114	0.578100	0.578100	0.000000
C2111	C211	0.386300	0.000000	0.500000
H1151	H115	0.421900	0.000000	0.500000
C2121	C212	0.000000	0.386300	0.500000
H1161	H116	0.000000	0.421900	0.500000
C2131	C213	0.613700	0.613700	0.500000
H1171	H117	0.578100	0.578100	0.500000
C2141	C214	0.613700	0.000000	0.000000
H1181	H118	0.578100	0.000000	0.000000
C2151	C215	0.000000	0.613700	0.000000
H1191	H119	0.000000	0.578100	0.000000
C2161	C216	0.386300	0.386300	0.000000
H1201	H120	0.421900	0.421900	0.000000
C2171	C217	0.677400	0.106300	0.250000
N971	N97	0.676200	0.159200	0.250000
C2181	C218	0.893700	0.571100	0.250000
N981	N98	0.840800	0.517000	0.250000
C2191	C219	0.428900	0.322600	0.250000
N991	N99	0.483000	0.323800	0.250000
C2201	C220	0.322600	0.893700	0.750000
N1001	N100	0.323800	0.840800	0.750000
C2211	C221	0.106300	0.428900	0.750000
N1011	N101	0.159200	0.483000	0.750000
C2221	C222	0.571100	0.677400	0.750000
N1021	N102	0.517000	0.676200	0.750000
C2231	C223	0.106300	0.677400	0.750000
N1031	N103	0.159200	0.676200	0.750000
C2241	C224	0.571100	0.893700	0.750000
N1041	N104	0.517000	0.840800	0.750000
C2251	C225	0.322600	0.428900	0.750000
N1051	N105	0.323800	0.483000	0.750000
C2261	C226	0.893700	0.322600	0.250000
N1061	N106	0.840800	0.323800	0.250000
C2271	C227	0.428900	0.106300	0.250000
N1071	N107	0.483000	0.159200	0.250000
C2281	C228	0.677400	0.571100	0.250000
N1081	N108	0.676200	0.517000	0.250000
C2291	C229	0.548050	0.096100	0.411000
N1091	N109	0.521650	0.043300	0.374200
C2301	C230	0.903900	0.451950	0.411000
N1101	N110	0.956700	0.478350	0.374200
C2311	C231	0.548050	0.451950	0.411000
N1111	N111	0.521650	0.478350	0.374200
C2321	C232	0.451950	0.903900	0.911000
N1121	N112	0.478350	0.956700	0.874200
C2331	C233	0.096100	0.548050	0.911000
N1131	N113	0.043300	0.521650	0.874200
C2341	C234	0.451950	0.548050	0.911000
N1141	N114	0.478350	0.521650	0.874200
C2351	C235	0.096100	0.548050	0.589000
N1151	N115	0.043300	0.521650	0.625800
C2361	C236	0.451950	0.903900	0.589000
N1161	N116	0.478350	0.956700	0.625800
C2371	C237	0.451950	0.548050	0.589000
N1171	N117	0.478350	0.521650	0.625800
C2381	C238	0.903900	0.451950	0.089000
N1181	N118	0.956700	0.478350	0.125800
C2391	C239	0.548050	0.096100	0.089000
N1191	N119	0.521650	0.043300	0.125800
C2401	C240	0.548050	0.451950	0.089000
N1201	N120	0.521650	0.478350	0.125800
