data_RIYBIM_freeONLY_PM
_symmetry_space_group_name_H-M	'P1'
_cell_length_a	13.798100
_cell_length_b	27.677500
_cell_length_c	44.341500
_cell_angle_alpha	90.000000
_cell_angle_beta	90.000000
_cell_angle_gamma	90.000000
_symmetry_Int_Tables_number 1

loop_
_symmetry_equiv_pos_as_xyz
'x,y,z'

loop_
_atom_site_label
_atom_site_type_symbol
_atom_site_fract_x
_atom_site_fract_y
_atom_site_fract_z
Zn11	Zn1	0.370000	0.479150	0.082950
Zn21	Zn2	0.656920	0.546340	0.583280
Zn31	Zn3	0.342590	0.752080	0.820860
Zn41	Zn4	0.630000	0.020850	0.582950
Zn51	Zn5	0.843080	0.046340	0.416720
Zn61	Zn6	0.343080	0.953660	0.083280
Zn71	Zn7	0.130000	0.979150	0.917050
Zn81	Zn8	0.156920	0.453660	0.916720
Zn91	Zn9	0.157410	0.252080	0.179140
Zn101	Zn10	0.870000	0.520850	0.417050
Zn111	Zn11	0.657410	0.747920	0.320860
Zn121	Zn12	0.842590	0.247920	0.679140
H11	H1	0.366000	0.683600	0.373500
H21	H2	0.485800	0.079900	0.615500
H31	H3	0.959800	0.150500	0.333300
H41	H4	0.675000	0.390500	0.109000
H51	H5	0.989000	0.968900	0.967000
H61	H6	0.603000	0.724900	0.589100
H71	H7	0.045900	0.194200	0.224500
H81	H8	0.958500	0.154300	0.768000
H91	H9	0.116900	0.367100	0.095200
H101	H10	0.459800	0.849500	0.166700
H111	H11	0.894500	0.413700	0.430500
H121	H12	0.399100	0.833800	0.780800
H131	H13	0.014200	0.579900	0.384500
H141	H14	0.461600	0.529700	0.557400
H151	H15	0.952000	0.415700	0.328400
H161	H16	0.576100	0.581300	0.640700
H171	H17	0.454100	0.694200	0.775500
H181	H18	0.798600	0.067000	0.481500
H191	H19	0.912200	0.343500	0.407800
H201	H20	0.985800	0.920100	0.884500
H211	H21	0.508000	0.701800	0.727200
H221	H22	0.992000	0.201800	0.272800
H231	H23	0.928900	0.487500	0.354800
H241	H24	0.634000	0.816400	0.873500
H251	H25	0.412200	0.656500	0.092200
H261	H26	0.100900	0.333800	0.219200
H271	H27	0.045000	0.219700	0.665800
H281	H28	0.452000	0.584300	0.171600
H291	H29	0.201400	0.433000	0.981500
H301	H30	0.071100	0.012500	0.854800
H311	H31	0.325000	0.109500	0.609000
H321	H32	0.428900	0.512500	0.145200
H331	H33	0.514200	0.420100	0.115500
H341	H34	0.825000	0.890500	0.891000
H351	H35	0.455000	0.719700	0.334200
H361	H36	0.954100	0.305800	0.724500
H371	H37	0.866000	0.316400	0.126500
H381	H38	0.175500	0.553600	0.476100
H391	H39	0.492000	0.798200	0.227200
H401	H40	0.489000	0.031100	0.533000
H411	H41	0.955000	0.280300	0.165800
H421	H42	0.458500	0.845700	0.732000
H431	H43	0.196300	0.332100	0.133200
H441	H44	0.545900	0.805800	0.275500
H451	H45	0.571100	0.987500	0.645200
H461	H46	0.324500	0.053600	0.523900
H471	H47	0.545000	0.780300	0.834200
H481	H48	0.139300	0.349600	0.931900
H491	H49	0.008000	0.298200	0.772800
H501	H50	0.675500	0.446400	0.023900
H511	H51	0.541500	0.654300	0.232000
H521	H52	0.383100	0.867100	0.904800
H531	H53	0.040200	0.349500	0.833300
H541	H54	0.639300	0.650400	0.568100
H551	H55	0.883100	0.132900	0.595200
H561	H56	0.372900	0.909600	0.974600
H571	H57	0.041500	0.345700	0.268000
H581	H58	0.394500	0.586300	0.069500
H591	H59	0.011000	0.531100	0.467000
H601	H60	0.803700	0.167900	0.633200
H611	H61	0.540200	0.650500	0.666700
H621	H62	0.127200	0.052000	0.485500
H631	H63	0.105500	0.086300	0.930500
H641	H64	0.860700	0.150400	0.431900
H651	H65	0.076100	0.418700	0.859300
H661	H66	0.961600	0.470300	0.942600
H671	H67	0.103000	0.275100	0.910900
H681	H68	0.605500	0.913700	0.569500
H691	H69	0.303700	0.832100	0.866800
H701	H70	0.127100	0.409600	0.025400
H711	H71	0.423900	0.918700	0.140700
H721	H72	0.397000	0.775100	0.089100
H731	H73	0.696300	0.667900	0.366800
H741	H74	0.548000	0.915700	0.671600
H751	H75	0.175000	0.609500	0.391000
H761	H76	0.087800	0.156500	0.907800
H771	H77	0.038400	0.029700	0.442600
H781	H78	0.872800	0.448000	0.985500
H791	H79	0.372800	0.552000	0.514500
H801	H80	0.538400	0.970300	0.057400
H811	H81	0.048000	0.084300	0.828400
H821	H82	0.616900	0.632900	0.404800
H831	H83	0.897000	0.224900	0.410900
H841	H84	0.701400	0.567000	0.518500
H851	H85	0.923900	0.081300	0.359300
H861	H86	0.587800	0.843500	0.592200
H871	H87	0.899100	0.166200	0.719200
H881	H88	0.824500	0.946400	0.976100
H891	H89	0.134000	0.183600	0.626500
H901	H90	0.298600	0.933000	0.018500
H911	H91	0.627100	0.590400	0.474600
H921	H92	0.872900	0.090400	0.525400
H931	H93	0.360700	0.849600	0.068100
H941	H94	0.600900	0.666200	0.280800
H951	H95	0.511000	0.468900	0.033000
H961	H96	0.627200	0.948000	0.014500
C11	C1	0.692700	0.418000	0.067100
C21	C2	0.516500	0.846200	0.894500
C31	C3	0.494200	0.543100	0.540400
C41	C4	0.702200	0.903000	0.937100
C51	C5	0.055300	0.257900	0.851800
C61	C6	0.441300	0.555300	0.514700
C71	C7	0.980300	0.278800	0.307900
C81	C8	0.563700	0.869900	0.635500
C91	C9	0.511500	0.795900	0.850200
C101	C10	0.439800	0.585300	0.150500
C111	C11	0.905100	0.413700	0.409400
C121	C12	0.939800	0.414700	0.349500
C131	C13	0.919200	0.151700	0.609200
C141	C14	0.016500	0.153800	0.605500
C151	C15	0.307300	0.082000	0.567100
C161	C16	0.645000	0.440600	0.042700
C171	C17	0.428900	0.802400	0.131700
C181	C18	0.578300	0.693000	0.269400
C191	C19	0.425500	0.542400	0.134800
C201	C20	0.855700	0.908300	0.906700
C211	C21	0.953500	0.954200	0.951100
C221	C22	0.046700	0.225000	0.233900
C231	C23	0.560200	0.914700	0.650500
C241	C24	0.598600	0.696200	0.600800
C251	C25	0.571100	0.697600	0.631700
C261	C26	0.401400	0.803800	0.100800
C271	C27	0.083300	0.127600	0.896300
C281	C28	0.488400	0.571700	0.490300
C291	C29	0.483500	0.653800	0.394500
C301	C30	0.434200	0.588800	0.462300
C311	C31	0.941300	0.444700	0.985300
C321	C32	0.480300	0.721200	0.192100
C331	C33	0.916700	0.372400	0.396300
C341	C34	0.145000	0.559400	0.457300
C351	C35	0.855000	0.940600	0.957300
C361	C36	0.118700	0.348700	0.911500
C371	C37	0.082500	0.388400	0.869200
C381	C38	0.192700	0.582000	0.432900
C391	C39	0.448100	0.676700	0.150500
C401	C40	0.546700	0.775000	0.266100
C411	C41	0.558700	0.944700	0.014700
C421	C42	0.438700	0.847700	0.146400
C431	C43	0.901400	0.196200	0.399200
C441	C44	0.132800	0.435100	0.982300
C451	C45	0.983500	0.346200	0.105500
C461	C46	0.444700	0.757900	0.148200
C471	C47	0.019700	0.221200	0.807900
C481	C48	0.565500	0.819200	0.872900
C491	C49	0.202200	0.097000	0.562900
C501	C50	0.955700	0.185800	0.759600
C511	C51	0.985300	0.270700	0.762100
C521	C52	0.591000	0.578000	0.491200
C531	C53	0.988500	0.295900	0.149800
C541	C54	0.367200	0.935100	0.017700
C551	C55	0.381300	0.848700	0.088500
C561	C56	0.453500	0.045800	0.548900
C571	C57	0.098600	0.303800	0.899200
C581	C58	0.561300	0.652300	0.646400
C591	C59	0.546500	0.454200	0.048900
C601	C60	0.985100	0.225100	0.775900
C611	C61	0.436300	0.630100	0.135500
C621	C62	0.060200	0.085300	0.849500
C631	C63	0.580800	0.651700	0.390800
C641	C64	0.371100	0.826300	0.869200
C651	C65	0.934200	0.411200	0.037700
C661	C66	0.583300	0.872400	0.603700
C671	C67	0.434500	0.680800	0.372900
C681	C68	0.417500	0.888400	0.130800
C691	C69	0.514900	0.725100	0.224100
C701	C70	0.416700	0.627600	0.103700
C711	C71	0.797800	0.403000	0.062900
C721	C72	0.044300	0.314200	0.259600
C731	C73	0.094900	0.086300	0.909400
C741	C74	0.453300	0.725000	0.766100
C751	C75	0.953300	0.275000	0.733900
C761	C76	0.565800	0.911200	0.962300
C771	C77	0.944700	0.242100	0.351800
C781	C78	0.932100	0.372400	0.081500
C791	C79	0.994200	0.456900	0.959600
C801	C80	0.505800	0.956900	0.040400
C811	C81	0.046700	0.574700	0.403100
C821	C82	0.297800	0.597000	0.437100
C831	C83	0.544300	0.685800	0.240400
C841	C84	0.067900	0.127600	0.581500
C851	C85	0.058700	0.055300	0.485300
C861	C86	0.632800	0.564900	0.517700
C871	C87	0.071100	0.302400	0.868300
C881	C88	0.485100	0.774900	0.724100
C891	C89	0.618700	0.651300	0.588500
C901	C90	0.065800	0.088800	0.537700
C911	C91	0.594900	0.913700	0.590600
C921	C92	0.934500	0.319200	0.127100
C931	C93	0.555300	0.742100	0.648200
C941	C94	0.091000	0.422000	0.008800
C951	C95	0.355700	0.091700	0.593300
C961	C96	0.909000	0.078000	0.508800
C971	C97	0.078300	0.307000	0.230600
C981	C98	0.061300	0.347700	0.853600
C991	C99	0.574500	0.957600	0.634800
C1001	C100	0.074500	0.042400	0.865200
C1011	C101	0.953300	0.925300	0.903100
C1021	C102	0.807300	0.918000	0.932900
C1031	C103	0.867200	0.064900	0.482300
C1041	C104	0.519700	0.778800	0.692100
C1051	C105	0.925500	0.457600	0.365200
C1061	C106	0.511600	0.928300	0.990300
C1071	C107	0.551900	0.823300	0.650500
C1081	C108	0.567900	0.872400	0.918500
C1091	C109	0.881300	0.151300	0.411500
C1101	C110	0.014900	0.274900	0.275900
C1111	C111	0.938700	0.152300	0.353600
C1121	C112	0.921700	0.193000	0.730600
C1131	C113	0.011600	0.071700	0.509700
C1141	C114	0.063700	0.130100	0.864500
C1151	C115	0.917500	0.111600	0.369200
C1161	C116	0.628900	0.673700	0.369200
C1171	C117	0.582500	0.611600	0.630800
C1181	C118	0.409000	0.922000	0.991200
C1191	C119	0.080800	0.348300	0.109200
C1201	C120	0.432100	0.627600	0.418500
C1211	C121	0.144300	0.591700	0.406700
C1221	C122	0.936300	0.369900	0.364500
C1231	C123	0.455700	0.814200	0.740400
C1241	C124	0.546700	0.425300	0.096900
C1251	C125	0.355000	0.059400	0.542700
C1261	C126	0.128900	0.326300	0.130800
C1271	C127	0.046500	0.545800	0.451100
C1281	C128	0.065500	0.180800	0.627100
C1291	C129	0.485300	0.729300	0.737900
C1301	C130	0.453300	0.074700	0.596900
C1311	C131	0.011500	0.204100	0.649800
C1321	C132	0.488500	0.704100	0.350200
C1331	C133	0.014700	0.229300	0.262100
C1341	C134	0.405100	0.586300	0.090600
C1351	C135	0.644300	0.408300	0.093300
C1361	C136	0.419200	0.848300	0.890800
C1371	C137	0.051900	0.176700	0.849500
C1381	C138	0.928900	0.197600	0.368300
C1391	C139	0.948100	0.323300	0.349500
C1401	C140	0.871100	0.173700	0.630800
C1411	C141	0.421700	0.807000	0.769400
C1421	C142	0.514700	0.770700	0.237900
C1431	C143	0.005800	0.043100	0.459600
C1441	C144	0.988400	0.428300	0.009700
I11	I1	0.417980	0.014330	0.112190
I21	I2	0.789950	0.569360	0.381500
I31	I3	0.814390	0.716010	0.314970
I41	I4	0.196110	0.999810	0.964600
I51	I5	0.289950	0.430640	0.118500
I61	I6	0.861100	0.328500	0.663250
I71	I7	0.314390	0.283990	0.185030
I81	I8	0.824660	0.555120	0.576550
I91	I9	0.138900	0.171500	0.163250
I101	I10	0.582020	0.485670	0.612190
I111	I11	0.675340	0.055120	0.423450
I121	I12	0.324660	0.444880	0.923450
I131	I13	0.175340	0.944880	0.076550
I141	I14	0.361100	0.671500	0.836750
I151	I15	0.803890	0.500190	0.464600
I161	I16	0.696110	0.000190	0.535400
I171	I17	0.710050	0.069360	0.618500
I181	I18	0.303890	0.499810	0.035400
I191	I19	0.210050	0.930640	0.881500
I201	I20	0.685610	0.216010	0.685030
I211	I21	0.185610	0.783990	0.814970
I221	I22	0.917980	0.985670	0.387810
I231	I23	0.082020	0.514330	0.887810
I241	I24	0.638900	0.828500	0.336750
N11	N1	0.887900	0.111900	0.397800
N21	N2	0.919900	0.236700	0.718300
N31	N3	0.917400	0.204800	0.649600
N41	N4	0.066700	0.215100	0.865900
N51	N5	0.660100	0.920100	0.961300
N61	N6	0.093200	0.042600	0.895100
N71	N7	0.972500	0.323600	0.320100
N81	N8	0.933300	0.284900	0.365900
N91	N9	0.336200	0.622200	0.415200
N101	N10	0.527500	0.823600	0.679900
N111	N11	0.090600	0.450100	0.958200
N121	N12	0.663800	0.877800	0.915200
N131	N13	0.001200	0.552000	0.425200
N141	N14	0.566700	0.784900	0.634100
N151	N15	0.470700	0.763500	0.177500
N161	N16	0.970700	0.236500	0.322500
N171	N17	0.998800	0.948000	0.925200
N181	N18	0.339900	0.579900	0.461300
N191	N19	0.593200	0.957400	0.604900
N201	N20	0.580100	0.736700	0.281700
N211	N21	0.582600	0.704800	0.350400
N221	N22	0.080100	0.263300	0.218300
N231	N23	0.839900	0.420100	0.038700
N241	N24	0.483000	0.612300	0.442200
N251	N25	0.163800	0.122200	0.584800
N261	N26	0.590600	0.549900	0.541800
N271	N27	0.529300	0.736500	0.677500
N281	N28	0.472500	0.676400	0.179900
N291	N29	0.836200	0.377800	0.084800
N301	N30	0.433300	0.715100	0.134100
N311	N31	0.517000	0.887700	0.942200
N321	N32	0.406800	0.542600	0.104900
N331	N33	0.027500	0.176400	0.820100
N341	N34	0.112100	0.388100	0.897800
N351	N35	0.417400	0.795200	0.850400
N361	N36	0.612100	0.611900	0.602200
N371	N37	0.160100	0.079900	0.538700
N381	N38	0.082600	0.295200	0.149600
N391	N39	0.419900	0.763300	0.781700
N401	N40	0.501200	0.448000	0.074800
N411	N41	0.906800	0.457400	0.395100
N421	N42	0.909400	0.049900	0.458200
N431	N43	0.387900	0.888100	0.102200
N441	N44	0.409400	0.950100	0.041800
N451	N45	0.029300	0.263500	0.822500
N461	N46	0.017000	0.112300	0.557800
N471	N47	0.498800	0.052000	0.574800
N481	N48	0.983000	0.387700	0.057800
Zn131	Zn13	0.157410	0.752080	0.320860
Zn141	Zn14	0.656920	0.046340	0.916720
Zn151	Zn15	0.156920	0.953660	0.583280
Zn161	Zn16	0.342590	0.252080	0.679140
Zn171	Zn17	0.842590	0.747920	0.820860
Zn181	Zn18	0.630000	0.520850	0.917050
Zn191	Zn19	0.343080	0.453660	0.416720
Zn201	Zn20	0.370000	0.979150	0.417050
Zn211	Zn21	0.130000	0.479150	0.582950
Zn221	Zn22	0.870000	0.020850	0.082950
Zn231	Zn23	0.657410	0.247920	0.179140
Zn241	Zn24	0.843080	0.546340	0.083280
H971	H97	0.616900	0.132900	0.095200
H981	H98	0.600900	0.166200	0.219200
H991	H99	0.571100	0.487500	0.854800
H1001	H100	0.105500	0.586300	0.569500
H1011	H101	0.175000	0.109500	0.109000
H1021	H102	0.627200	0.448000	0.485500
H1031	H103	0.454100	0.194200	0.724500
H1041	H104	0.008000	0.798200	0.727200
H1051	H105	0.627100	0.090400	0.025400
H1061	H106	0.298600	0.433000	0.481500
H1071	H107	0.798600	0.567000	0.018500
H1081	H108	0.127200	0.552000	0.014500
H1091	H109	0.100900	0.833800	0.280800
H1101	H110	0.540200	0.150500	0.833300
H1111	H111	0.541500	0.154300	0.268000
H1121	H112	0.038400	0.529700	0.057400
H1131	H113	0.897000	0.724900	0.089100
H1141	H114	0.325000	0.609500	0.891000
H1151	H115	0.696300	0.167900	0.133200
H1161	H116	0.011000	0.031100	0.033000
H1171	H117	0.412200	0.156500	0.407800
H1181	H118	0.883100	0.632900	0.904800
H1191	H119	0.899100	0.666200	0.780800
H1201	H120	0.399100	0.333800	0.719200
H1211	H121	0.511000	0.968900	0.467000
H1221	H122	0.545900	0.305800	0.224500
H1231	H123	0.514200	0.920100	0.384500
H1241	H124	0.576100	0.081300	0.859300
H1251	H125	0.992000	0.701800	0.227200
H1261	H126	0.912200	0.843500	0.092200
H1271	H127	0.372800	0.052000	0.985500
H1281	H128	0.955000	0.780300	0.334200
H1291	H129	0.605500	0.413700	0.930500
H1301	H130	0.489000	0.531100	0.967000
H1311	H131	0.045000	0.719700	0.834200
H1321	H132	0.603000	0.224900	0.910900
H1331	H133	0.196300	0.832100	0.366800
H1341	H134	0.201400	0.933000	0.518500
H1351	H135	0.366000	0.183600	0.126500
H1361	H136	0.701400	0.067000	0.981500
H1371	H137	0.928900	0.987500	0.145200
H1381	H138	0.961600	0.970300	0.557400
H1391	H139	0.360700	0.349600	0.431900
H1401	H140	0.383100	0.367100	0.595200
H1411	H141	0.175500	0.053600	0.023900
H1421	H142	0.014200	0.079900	0.115500
H1431	H143	0.548000	0.415700	0.828400
H1441	H144	0.461600	0.029700	0.942600
H1451	H145	0.139300	0.849600	0.568100
H1461	H146	0.872800	0.948000	0.514500
H1471	H147	0.459800	0.349500	0.333300
H1481	H148	0.954100	0.805800	0.775500
H1491	H149	0.423900	0.418700	0.359300
H1501	H150	0.397000	0.275100	0.410900
H1511	H151	0.860700	0.650400	0.068100
H1521	H152	0.872900	0.590400	0.974600
H1531	H153	0.894500	0.913700	0.069500
H1541	H154	0.458500	0.345700	0.768000
H1551	H155	0.041500	0.845700	0.232000
H1561	H156	0.303700	0.332100	0.633200
H1571	H157	0.985800	0.420100	0.615500
H1581	H158	0.538400	0.470300	0.442600
H1591	H159	0.675000	0.890500	0.391000
H1601	H160	0.428900	0.012500	0.354800
H1611	H161	0.634000	0.316400	0.626500
H1621	H162	0.071100	0.512500	0.645200
H1631	H163	0.127100	0.909600	0.474600
H1641	H164	0.134000	0.683600	0.873500
H1651	H165	0.040200	0.849500	0.666700
H1661	H166	0.076100	0.918700	0.640700
H1671	H167	0.485800	0.579900	0.884500
H1681	H168	0.455000	0.219700	0.165800
H1691	H169	0.394500	0.086300	0.430500
H1701	H170	0.866000	0.816400	0.373500
H1711	H171	0.952000	0.915700	0.171600
H1721	H172	0.103000	0.775100	0.589100
H1731	H173	0.372900	0.409600	0.525400
H1741	H174	0.587800	0.343500	0.907800
H1751	H175	0.452000	0.084300	0.328400
H1761	H176	0.639300	0.150400	0.931900
H1771	H177	0.045900	0.694200	0.275500
H1781	H178	0.545000	0.280300	0.665800
H1791	H179	0.989000	0.468900	0.533000
H1801	H180	0.508000	0.201800	0.772800
H1811	H181	0.324500	0.553600	0.976100
H1821	H182	0.675500	0.946400	0.476100
H1831	H183	0.959800	0.650500	0.166700
H1841	H184	0.087800	0.656500	0.592200
H1851	H185	0.803700	0.667900	0.866800
H1861	H186	0.824500	0.446400	0.523900
H1871	H187	0.492000	0.298200	0.272800
H1881	H188	0.116900	0.867100	0.404800
H1891	H189	0.825000	0.390500	0.609000
H1901	H190	0.048000	0.584300	0.671600
H1911	H191	0.958500	0.654300	0.732000
H1921	H192	0.923900	0.581300	0.140700
C1451	C145	0.988500	0.795900	0.350200
C1461	C146	0.046700	0.725000	0.266100
C1471	C147	0.453500	0.545800	0.951100
C1481	C148	0.409000	0.422000	0.508800
C1491	C149	0.934500	0.819200	0.372900
C1501	C150	0.551900	0.323300	0.849500
C1511	C151	0.453300	0.574700	0.903100
C1521	C152	0.505800	0.456900	0.459600
C1531	C153	0.919200	0.651700	0.890800
C1541	C154	0.118700	0.848700	0.588500
C1551	C155	0.192700	0.082000	0.067100
C1561	C156	0.797800	0.903000	0.437100
C1571	C157	0.953500	0.454200	0.548900
C1581	C158	0.488400	0.071700	0.009700
C1591	C159	0.098600	0.803800	0.600800
C1601	C160	0.371100	0.326300	0.630800
C1611	C161	0.519700	0.278800	0.807900
C1621	C162	0.544300	0.185800	0.259600
C1631	C163	0.901400	0.696200	0.100800
C1641	C164	0.485300	0.229300	0.762100
C1651	C165	0.618700	0.151300	0.911500
C1661	C166	0.571100	0.197600	0.868300
C1671	C167	0.060200	0.585300	0.650500
C1681	C168	0.948100	0.823300	0.150500
C1691	C169	0.439800	0.085300	0.349500
C1701	C170	0.455700	0.314200	0.759600
C1711	C171	0.953300	0.775000	0.766100
C1721	C172	0.355700	0.591700	0.906700
C1731	C173	0.932100	0.872400	0.418500
C1741	C174	0.307300	0.582000	0.932900
C1751	C175	0.514900	0.225100	0.275900
C1761	C176	0.065500	0.680800	0.872900
C1771	C177	0.591000	0.078000	0.008800
C1781	C178	0.574500	0.457600	0.865200
C1791	C179	0.546500	0.954200	0.451100
C1801	C180	0.065800	0.588800	0.962300
C1811	C181	0.091000	0.922000	0.491200
C1821	C182	0.546700	0.925300	0.403100
C1831	C183	0.855000	0.440600	0.542700
C1841	C184	0.563700	0.369900	0.864500
C1851	C185	0.583300	0.372400	0.896300
C1861	C186	0.019700	0.721200	0.692100
C1871	C187	0.936300	0.869900	0.135500
C1881	C188	0.561300	0.152300	0.853600
C1891	C189	0.419200	0.348300	0.609200
C1901	C190	0.580800	0.151700	0.109200
C1911	C191	0.080800	0.848300	0.390800
C1921	C192	0.909000	0.578000	0.991200
C1931	C193	0.058700	0.555300	0.014700
C1941	C194	0.980300	0.778800	0.192100
C1951	C195	0.438700	0.347700	0.353600
C1961	C196	0.063700	0.630100	0.635500
C1971	C197	0.488500	0.204100	0.149800
C1981	C198	0.448100	0.176700	0.349500
C1991	C199	0.416700	0.127600	0.396300
C2001	C200	0.441300	0.055300	0.985300
C2011	C201	0.939800	0.914700	0.150500
C2021	C202	0.145000	0.059400	0.042700
C2031	C203	0.941300	0.944700	0.514700
C2041	C204	0.925500	0.957600	0.134800
C2051	C205	0.016500	0.653800	0.894500
C2061	C206	0.082500	0.888400	0.630800
C2071	C207	0.916700	0.872400	0.103700
C2081	C208	0.381300	0.348700	0.411500
C2091	C209	0.480300	0.221200	0.307900
C2101	C210	0.994200	0.956900	0.540400
C2111	C211	0.005800	0.543100	0.040400
C2121	C212	0.071100	0.802400	0.631700
C2131	C213	0.644300	0.908300	0.406700
C2141	C214	0.983500	0.846200	0.394500
C2151	C215	0.094900	0.586300	0.590600
C2161	C216	0.702200	0.403000	0.562900
C2171	C217	0.928900	0.697600	0.131700
C2181	C218	0.074500	0.542400	0.634800
C2191	C219	0.011500	0.704100	0.850200
C2201	C220	0.367200	0.435100	0.482300
C2211	C221	0.428900	0.302400	0.368300
C2221	C222	0.917500	0.611600	0.130800
C2231	C223	0.582500	0.111600	0.869200
C2241	C224	0.905100	0.913700	0.090600
C2251	C225	0.560200	0.414700	0.849500
C2261	C226	0.511600	0.428300	0.509700
C2271	C227	0.632800	0.064900	0.982300
C2281	C228	0.014900	0.774900	0.224100
C2291	C229	0.988400	0.928300	0.490300
C2301	C230	0.434200	0.088800	0.037700
C2311	C231	0.144300	0.091700	0.093300
C2321	C232	0.985300	0.770700	0.737900
C2331	C233	0.061300	0.847700	0.646400
C2341	C234	0.421700	0.307000	0.730600
C2351	C235	0.202200	0.597000	0.937100
C2361	C236	0.628900	0.173700	0.130800
C2371	C237	0.921700	0.693000	0.769400
C2381	C238	0.485100	0.274900	0.775900
C2391	C239	0.938700	0.652300	0.146400
C2401	C240	0.881300	0.651300	0.088500
C2411	C241	0.514700	0.270700	0.262100
C2421	C242	0.425500	0.042400	0.365200
C2431	C243	0.645000	0.940600	0.457300
C2441	C244	0.871100	0.673700	0.869200
C2451	C245	0.405100	0.086300	0.409400
C2461	C246	0.434500	0.180800	0.127100
C2471	C247	0.417500	0.388400	0.369200
C2481	C248	0.546700	0.275000	0.233900
C2491	C249	0.132800	0.935100	0.517700
C2501	C250	0.014700	0.729300	0.237900
C2511	C251	0.516500	0.346200	0.605500
C2521	C252	0.067900	0.627600	0.918500
C2531	C253	0.985100	0.725100	0.724100
C2541	C254	0.011600	0.571700	0.990300
C2551	C255	0.511500	0.295900	0.649800
C2561	C256	0.953300	0.425300	0.596900
C2571	C257	0.867200	0.564900	0.017700
C2581	C258	0.567900	0.372400	0.581500
C2591	C259	0.558700	0.444700	0.485300
C2601	C260	0.436300	0.130100	0.364500
C2611	C261	0.565800	0.411200	0.537700
C2621	C262	0.297800	0.097000	0.062900
C2631	C263	0.955700	0.685800	0.740400
C2641	C264	0.692700	0.918000	0.432900
C2651	C265	0.453300	0.225000	0.733900
C2661	C266	0.807300	0.418000	0.567100
C2671	C267	0.483500	0.153800	0.105500
C2681	C268	0.934200	0.911200	0.462300
C2691	C269	0.855700	0.408300	0.593300
C2701	C270	0.444700	0.257900	0.351800
C2711	C271	0.432100	0.127600	0.081500
C2721	C272	0.046700	0.074700	0.096900
C2731	C273	0.565500	0.319200	0.627100
C2741	C274	0.401400	0.303800	0.399200
C2751	C275	0.598600	0.196200	0.899200
C2761	C276	0.044300	0.814200	0.240400
C2771	C277	0.944700	0.742100	0.148200
C2781	C278	0.555300	0.242100	0.851800
C2791	C279	0.594900	0.413700	0.909400
C2801	C280	0.494200	0.043100	0.959600
C2811	C281	0.128900	0.826300	0.369200
C2821	C282	0.078300	0.807000	0.269400
C2831	C283	0.046500	0.045800	0.048900
C2841	C284	0.355000	0.559400	0.957300
C2851	C285	0.083300	0.627600	0.603700
C2861	C286	0.055300	0.757900	0.648200
C2871	C287	0.051900	0.676700	0.650500
C2881	C288	0.578300	0.193000	0.230600
I251	I25	0.303890	0.999810	0.464600
I261	I26	0.210050	0.430640	0.618500
I271	I27	0.803890	0.000190	0.035400
I281	I28	0.324660	0.944880	0.576550
I291	I29	0.675340	0.555120	0.076550
I301	I30	0.789950	0.069360	0.118500
I311	I31	0.185610	0.283990	0.685030
I321	I32	0.638900	0.328500	0.163250
I331	I33	0.696110	0.500190	0.964600
I341	I34	0.685610	0.716010	0.814970
I351	I35	0.314390	0.783990	0.314970
I361	I36	0.814390	0.216010	0.185030
I371	I37	0.289950	0.930640	0.381500
I381	I38	0.196110	0.499810	0.535400
I391	I39	0.082020	0.014330	0.612190
I401	I40	0.361100	0.171500	0.663250
I411	I41	0.582020	0.985670	0.887810
I421	I42	0.710050	0.569360	0.881500
I431	I43	0.861100	0.828500	0.836750
I441	I44	0.175340	0.444880	0.423450
I451	I45	0.417980	0.514330	0.387810
I461	I46	0.824660	0.055120	0.923450
I471	I47	0.917980	0.485670	0.112190
I481	I48	0.138900	0.671500	0.336750
N491	N49	0.336200	0.122200	0.084800
N501	N50	0.663800	0.377800	0.584800
N511	N51	0.501200	0.948000	0.425200
N521	N52	0.093200	0.542600	0.604900
N531	N53	0.529300	0.236500	0.822500
N541	N54	0.580100	0.236700	0.218300
N551	N55	0.590600	0.049900	0.958200
N561	N56	0.080100	0.763300	0.281700
N571	N57	0.112100	0.888100	0.602200
N581	N58	0.887900	0.611900	0.102200
N591	N59	0.517000	0.387700	0.557800
N601	N60	0.983000	0.887700	0.442200
N611	N61	0.339900	0.079900	0.038700
N621	N62	0.906800	0.957400	0.104900
N631	N63	0.836200	0.877800	0.415200
N641	N64	0.090600	0.950100	0.541800
N651	N65	0.409400	0.450100	0.458200
N661	N66	0.919900	0.736700	0.781700
N671	N67	0.839900	0.920100	0.461300
N681	N68	0.417400	0.295200	0.649600
N691	N69	0.066700	0.715100	0.634100
N701	N70	0.933300	0.784900	0.134100
N711	N71	0.029300	0.763500	0.677500
N721	N72	0.909400	0.549900	0.041800
N731	N73	0.387900	0.388100	0.397800
N741	N74	0.593200	0.457400	0.895100
N751	N75	0.470700	0.263500	0.322500
N761	N76	0.406800	0.042600	0.395100
N771	N77	0.998800	0.448000	0.574800
N781	N78	0.612100	0.111900	0.897800
N791	N79	0.498800	0.552000	0.925200
N801	N80	0.527500	0.323600	0.820100
N811	N81	0.972500	0.823600	0.179900
N821	N82	0.970700	0.736500	0.177500
N831	N83	0.027500	0.676400	0.679900
N841	N84	0.660100	0.420100	0.538700
N851	N85	0.160100	0.579900	0.961300
N861	N86	0.566700	0.284900	0.865900
N871	N87	0.017000	0.612300	0.942200
N881	N88	0.082600	0.795200	0.350400
N891	N89	0.472500	0.176400	0.320100
N901	N90	0.917400	0.704800	0.850400
N911	N91	0.001200	0.052000	0.074800
N921	N92	0.582600	0.204800	0.149600
N931	N93	0.483000	0.112300	0.057800
N941	N94	0.419900	0.263300	0.718300
N951	N95	0.163800	0.622200	0.915200
N961	N96	0.433300	0.215100	0.365900
