data_ROCZEQ_freeONLY_PM
_symmetry_space_group_name_H-M	'P1'
_cell_length_a	9.628000
_cell_length_b	21.337000
_cell_length_c	13.208000
_cell_angle_alpha	90.000000
_cell_angle_beta	91.953000
_cell_angle_gamma	90.000000
_symmetry_Int_Tables_number 1

loop_
_symmetry_equiv_pos_as_xyz
'x,y,z'

loop_
_atom_site_label
_atom_site_type_symbol
_atom_site_fract_x
_atom_site_fract_y
_atom_site_fract_z
Cd11	Cd1	0.405540	0.908410	0.725770
C11	C1	0.475100	0.732950	0.290500
H11	H1	0.515600	0.731600	0.227600
C21	C2	0.480400	0.788230	0.344900
H21	H2	0.524700	0.823200	0.319000
C31	C3	0.419700	0.791230	0.437700
C41	C4	0.358200	0.738030	0.472100
H31	H3	0.317800	0.738000	0.535100
C51	C5	0.355700	0.684620	0.414200
H41	H4	0.311400	0.649200	0.438400
C61	C6	0.420000	0.850980	0.499200
C71	C7	0.098800	0.917790	0.619000
H51	H5	0.157200	0.921700	0.564800
C81	C8	0.958500	0.925950	0.601500
H61	H6	0.923900	0.936500	0.537200
C91	C9	0.870000	0.918470	0.679900
C101	C10	0.928100	0.902900	0.772800
H71	H7	0.871600	0.896300	0.827500
C111	C11	0.069800	0.897000	0.784900
H81	H8	0.107100	0.887400	0.848800
C121	C12	0.716100	0.929100	0.664000
C131	C13	0.360100	0.014700	0.900900
C141	C14	0.274200	0.106700	0.979500
C151	C15	0.379000	0.124400	0.907400
N11	N1	0.414400	0.681740	0.324500
N21	N2	0.155300	0.904530	0.710000
N31	N3	0.377400	0.000250	0.641900
N41	N4	0.298900	0.041010	0.658700
N51	N5	0.223400	0.080600	0.675400
O11	O1	0.430300	0.900740	0.451500
O21	O2	0.405800	0.844110	0.591440
O31	O3	0.680100	0.953620	0.583000
O41	O4	0.640200	0.912370	0.733900
O51	O5	0.376600	0.959500	0.879740
C161	C16	0.246900	0.039100	0.954000
C171	C17	0.445100	0.063600	0.881800
C181	C18	0.561900	0.059300	0.840900
C191	C19	0.175200	0.009900	0.007700
N61	N6	0.554900	0.936400	0.118200
Cd21	Cd2	0.594460	0.408410	0.774230
C201	C20	0.524900	0.232950	0.209500
H91	H9	0.484400	0.231600	0.272400
C211	C21	0.519600	0.288230	0.155100
H101	H10	0.475300	0.323200	0.181000
C221	C22	0.580300	0.291230	0.062300
C231	C23	0.641800	0.238030	0.027900
H111	H11	0.682200	0.238000	0.964900
C241	C24	0.644300	0.184620	0.085800
H121	H12	0.688600	0.149200	0.061600
C251	C25	0.580000	0.350980	0.000800
C261	C26	0.901200	0.417790	0.881000
H131	H13	0.842800	0.421700	0.935200
C271	C27	0.041500	0.425950	0.898500
H141	H14	0.076100	0.436500	0.962800
C281	C28	0.130000	0.418470	0.820100
C291	C29	0.071900	0.402900	0.727200
H151	H15	0.128400	0.396300	0.672500
C301	C30	0.930200	0.397000	0.715100
H161	H16	0.892900	0.387400	0.651200
C311	C31	0.283900	0.429100	0.836000
C321	C32	0.639900	0.514700	0.599100
C331	C33	0.725800	0.606700	0.520500
C341	C34	0.621000	0.624400	0.592600
N71	N7	0.585600	0.181740	0.175500
N81	N8	0.844700	0.404530	0.790000
N91	N9	0.622600	0.500250	0.858100
N101	N10	0.701100	0.541010	0.841300
N111	N11	0.776600	0.580600	0.824600
O61	O6	0.569700	0.400740	0.048500
O71	O7	0.594200	0.344110	0.908560
O81	O8	0.319900	0.453620	0.917000
O91	O9	0.359800	0.412370	0.766100
O101	O10	0.623400	0.459500	0.620260
C351	C35	0.753100	0.539100	0.546000
C361	C36	0.554900	0.563600	0.618200
C371	C37	0.438100	0.559300	0.659100
C381	C38	0.824800	0.509900	0.492300
N121	N12	0.445100	0.436400	0.381800
Cd31	Cd3	0.594460	0.091590	0.274230
C391	C39	0.524900	0.267050	0.709500
H171	H17	0.484400	0.268400	0.772400
C401	C40	0.519600	0.211770	0.655100
H181	H18	0.475300	0.176800	0.681000
C411	C41	0.580300	0.208770	0.562300
C421	C42	0.641800	0.261970	0.527900
H191	H19	0.682200	0.262000	0.464900
C431	C43	0.644300	0.315380	0.585800
H201	H20	0.688600	0.350800	0.561600
C441	C44	0.580000	0.149020	0.500800
C451	C45	0.901200	0.082210	0.381000
H211	H21	0.842800	0.078300	0.435200
C461	C46	0.041500	0.074050	0.398500
H221	H22	0.076100	0.063500	0.462800
C471	C47	0.130000	0.081530	0.320100
C481	C48	0.071900	0.097100	0.227200
H231	H23	0.128400	0.103700	0.172500
C491	C49	0.930200	0.103000	0.215100
H241	H24	0.892900	0.112600	0.151200
C501	C50	0.283900	0.070900	0.336000
C511	C51	0.639900	0.985300	0.099100
C521	C52	0.725800	0.893300	0.020500
C531	C53	0.621000	0.875600	0.092600
N131	N13	0.585600	0.318260	0.675500
N141	N14	0.844700	0.095470	0.290000
N151	N15	0.622600	0.999750	0.358100
N161	N16	0.701100	0.958990	0.341300
N171	N17	0.776600	0.919400	0.324600
O111	O11	0.569700	0.099260	0.548500
O121	O12	0.594200	0.155890	0.408560
O131	O13	0.319900	0.046380	0.417000
O141	O14	0.359800	0.087630	0.266100
O151	O15	0.623400	0.040500	0.120260
C541	C54	0.753100	0.960900	0.046000
C551	C55	0.438100	0.940700	0.159100
C561	C56	0.824800	0.990100	0.992300
Cd41	Cd4	0.405540	0.591590	0.225770
C571	C57	0.475100	0.767050	0.790500
H251	H25	0.515600	0.768400	0.727600
C581	C58	0.480400	0.711770	0.844900
H261	H26	0.524700	0.676800	0.819000
C591	C59	0.419700	0.708770	0.937700
C601	C60	0.358200	0.761970	0.972100
H271	H27	0.317800	0.762000	0.035100
C611	C61	0.355700	0.815380	0.914200
H281	H28	0.311400	0.850800	0.938400
C621	C62	0.420000	0.649020	0.999200
C631	C63	0.098800	0.582210	0.119000
H291	H29	0.157200	0.578300	0.064800
C641	C64	0.958500	0.574050	0.101500
H301	H30	0.923900	0.563500	0.037200
C651	C65	0.870000	0.581530	0.179900
C661	C66	0.928100	0.597100	0.272800
H311	H31	0.871600	0.603700	0.327500
C671	C67	0.069800	0.603000	0.284900
H321	H32	0.107100	0.612600	0.348800
C681	C68	0.716100	0.570900	0.164000
C691	C69	0.360100	0.485300	0.400900
C701	C70	0.274200	0.393300	0.479500
C711	C71	0.379000	0.375600	0.407400
N181	N18	0.414400	0.818260	0.824500
N191	N19	0.155300	0.595470	0.210000
N201	N20	0.377400	0.499750	0.141900
N211	N21	0.298900	0.458990	0.158700
N221	N22	0.223400	0.419400	0.175400
O161	O16	0.430300	0.599260	0.951500
O171	O17	0.405800	0.655890	0.091440
O181	O18	0.680100	0.546380	0.083000
O191	O19	0.640200	0.587630	0.233900
O201	O20	0.376600	0.540500	0.379740
C721	C72	0.246900	0.460900	0.454000
C731	C73	0.561900	0.440700	0.340900
C741	C74	0.175200	0.490100	0.507700
Cd51	Cd5	0.500000	0.000000	0.500000
Cd61	Cd6	0.500000	0.500000	0.000000
