data_ROCZUG_freeONLY_PM
_symmetry_space_group_name_H-M	'P1'
_cell_length_a	11.029000
_cell_length_b	22.762000
_cell_length_c	14.480000
_cell_angle_alpha	90.000000
_cell_angle_beta	97.147000
_cell_angle_gamma	90.000000
_symmetry_Int_Tables_number 1

loop_
_symmetry_equiv_pos_as_xyz
'x,y,z'

loop_
_atom_site_label
_atom_site_type_symbol
_atom_site_fract_x
_atom_site_fract_y
_atom_site_fract_z
Cd11	Cd1	0.635830	0.925550	0.216340
C11	C1	0.937500	0.905200	0.274700
H11	H1	0.914600	0.891600	0.330500
C21	C2	0.059600	0.907700	0.266000
H21	H2	0.117200	0.895800	0.314800
C31	C3	0.096600	0.928120	0.184000
C41	C4	0.005500	0.943400	0.113400
H31	H3	0.025700	0.956400	0.056400
C51	C5	0.886200	0.939300	0.128000
H41	H4	0.826800	0.949700	0.079400
C61	C6	0.225000	0.935700	0.169300
C71	C7	0.582100	0.709100	0.762600
H51	H5	0.552200	0.708300	0.699700
C81	C8	0.577300	0.760900	0.809200
H61	H6	0.546200	0.794400	0.778100
C91	C9	0.619200	0.763150	0.903200
C101	C10	0.665800	0.712050	0.945300
H71	H7	0.695400	0.711600	0.008300
C111	C11	0.667800	0.661630	0.892500
H81	H8	0.699400	0.627500	0.921700
C121	C12	0.612300	0.817170	0.956600
C131	C13	0.623500	0.019600	0.386200
C141	C14	0.520400	0.056300	0.342200
H91	H9	0.535200	0.069200	0.280800
H101	H10	0.444300	0.034400	0.336700
C151	C15	0.516000	0.106700	0.405500
H111	H11	0.544300	0.141900	0.377000
H121	H12	0.432700	0.113300	0.418100
C161	C16	0.594200	0.093900	0.491900
H131	H13	0.648900	0.126400	0.510000
H141	H14	0.546100	0.085600	0.542000
C171	C17	0.761200	0.018200	0.529300
H151	H15	0.774100	0.041100	0.585300
H161	H16	0.833900	0.018900	0.499000
H171	H17	0.742600	0.978400	0.544400
N11	N1	0.849300	0.921220	0.207600
N21	N2	0.256700	0.960940	0.092600
N31	N3	0.376900	0.960080	0.104700
N41	N4	0.417600	0.934780	0.186000
N51	N5	0.322000	0.918960	0.228400
N61	N6	0.627100	0.659220	0.802100
N71	N7	0.573300	0.868700	0.919100
N81	N8	0.577700	0.905110	0.991100
N91	N9	0.616700	0.876610	0.069100
N101	N10	0.639500	0.820860	0.048900
N111	N11	0.636100	0.011830	0.131900
N121	N12	0.697800	0.052540	0.152200
N131	N13	0.757200	0.092800	0.173100
N141	N14	0.661600	0.042300	0.468500
O11	O1	0.664900	0.973960	0.355500
Cd21	Cd2	0.364170	0.425550	0.283660
C181	C18	0.062500	0.405200	0.225300
H181	H18	0.085400	0.391600	0.169500
C191	C19	0.940400	0.407700	0.234000
H191	H19	0.882800	0.395800	0.185200
C201	C20	0.903400	0.428120	0.316000
C211	C21	0.994500	0.443400	0.386600
H201	H20	0.974300	0.456400	0.443600
C221	C22	0.113800	0.439300	0.372000
H211	H21	0.173200	0.449700	0.420600
C231	C23	0.775000	0.435700	0.330700
C241	C24	0.417900	0.209100	0.737400
H221	H22	0.447800	0.208300	0.800300
C251	C25	0.422700	0.260900	0.690800
H231	H23	0.453800	0.294400	0.721900
C261	C26	0.380800	0.263150	0.596800
C271	C27	0.334200	0.212050	0.554700
H241	H24	0.304600	0.211600	0.491700
C281	C28	0.332200	0.161630	0.607500
H251	H25	0.300600	0.127500	0.578300
C291	C29	0.387700	0.317170	0.543400
C301	C30	0.376500	0.519600	0.113800
C311	C31	0.479600	0.556300	0.157800
H261	H26	0.464800	0.569200	0.219200
H271	H27	0.555700	0.534400	0.163300
C321	C32	0.484000	0.606700	0.094500
H281	H28	0.455700	0.641900	0.123000
H291	H29	0.567300	0.613300	0.081900
C331	C33	0.405800	0.593900	0.008100
H301	H30	0.351100	0.626400	0.990000
H311	H31	0.453900	0.585600	0.958000
C341	C34	0.238800	0.518200	0.970700
H321	H32	0.225900	0.541100	0.914700
H331	H33	0.166100	0.518900	0.001000
H341	H34	0.257400	0.478400	0.955600
N151	N15	0.150700	0.421220	0.292400
N161	N16	0.743300	0.460940	0.407400
N171	N17	0.623100	0.460080	0.395300
N181	N18	0.582400	0.434780	0.314000
N191	N19	0.678000	0.418960	0.271600
N201	N20	0.372900	0.159220	0.697900
N211	N21	0.426700	0.368700	0.580900
N221	N22	0.422300	0.405110	0.508900
N231	N23	0.383300	0.376610	0.430900
N241	N24	0.360500	0.320860	0.451100
N251	N25	0.363900	0.511830	0.368100
N261	N26	0.302200	0.552540	0.347800
N271	N27	0.242800	0.592800	0.326900
N281	N28	0.338400	0.542300	0.031500
O21	O2	0.335100	0.473960	0.144500
Cd31	Cd3	0.364170	0.074450	0.783660
C351	C35	0.062500	0.094800	0.725300
H351	H35	0.085400	0.108400	0.669500
C361	C36	0.940400	0.092300	0.734000
H361	H36	0.882800	0.104200	0.685200
C371	C37	0.903400	0.071880	0.816000
C381	C38	0.994500	0.056600	0.886600
H371	H37	0.974300	0.043600	0.943600
C391	C39	0.113800	0.060700	0.872000
H381	H38	0.173200	0.050300	0.920600
C401	C40	0.775000	0.064300	0.830700
C411	C41	0.417900	0.290900	0.237400
H391	H39	0.447800	0.291700	0.300300
C421	C42	0.422700	0.239100	0.190800
H401	H40	0.453800	0.205600	0.221900
C431	C43	0.380800	0.236850	0.096800
C441	C44	0.334200	0.287950	0.054700
H411	H41	0.304600	0.288400	0.991700
C451	C45	0.332200	0.338370	0.107500
H421	H42	0.300600	0.372500	0.078300
C461	C46	0.387700	0.182830	0.043400
C471	C47	0.376500	0.980400	0.613800
C481	C48	0.479600	0.943700	0.657800
H431	H43	0.464800	0.930800	0.719200
H441	H44	0.555700	0.965600	0.663300
C491	C49	0.484000	0.893300	0.594500
H451	H45	0.455700	0.858100	0.623000
H461	H46	0.567300	0.886700	0.581900
C501	C50	0.405800	0.906100	0.508100
H471	H47	0.351100	0.873600	0.490000
H481	H48	0.453900	0.914400	0.458000
C511	C51	0.238800	0.981800	0.470700
H491	H49	0.225900	0.958900	0.414700
H501	H50	0.166100	0.981100	0.501000
H511	H51	0.257400	0.021600	0.455600
N291	N29	0.150700	0.078780	0.792400
N301	N30	0.743300	0.039060	0.907400
N311	N31	0.623100	0.039920	0.895300
N321	N32	0.582400	0.065220	0.814000
N331	N33	0.678000	0.081040	0.771600
N341	N34	0.372900	0.340780	0.197900
N351	N35	0.426700	0.131300	0.080900
N361	N36	0.422300	0.094890	0.008900
N371	N37	0.383300	0.123390	0.930900
N381	N38	0.360500	0.179140	0.951100
N391	N39	0.363900	0.988170	0.868100
N401	N40	0.302200	0.947460	0.847800
N411	N41	0.242800	0.907200	0.826900
N421	N42	0.338400	0.957700	0.531500
O31	O3	0.335100	0.026040	0.644500
Cd41	Cd4	0.635830	0.574450	0.716340
C521	C52	0.937500	0.594800	0.774700
H521	H52	0.914600	0.608400	0.830500
C531	C53	0.059600	0.592300	0.766000
H531	H53	0.117200	0.604200	0.814800
C541	C54	0.096600	0.571880	0.684000
C551	C55	0.005500	0.556600	0.613400
H541	H54	0.025700	0.543600	0.556400
C561	C56	0.886200	0.560700	0.628000
H551	H55	0.826800	0.550300	0.579400
C571	C57	0.225000	0.564300	0.669300
C581	C58	0.582100	0.790900	0.262600
H561	H56	0.552200	0.791700	0.199700
C591	C59	0.577300	0.739100	0.309200
H571	H57	0.546200	0.705600	0.278100
C601	C60	0.619200	0.736850	0.403200
C611	C61	0.665800	0.787950	0.445300
H581	H58	0.695400	0.788400	0.508300
C621	C62	0.667800	0.838370	0.392500
H591	H59	0.699400	0.872500	0.421700
C631	C63	0.612300	0.682830	0.456600
C641	C64	0.623500	0.480400	0.886200
C651	C65	0.520400	0.443700	0.842200
H601	H60	0.535200	0.430800	0.780800
H611	H61	0.444300	0.465600	0.836700
C661	C66	0.516000	0.393300	0.905500
H621	H62	0.544300	0.358100	0.877000
H631	H63	0.432700	0.386700	0.918100
C671	C67	0.594200	0.406100	0.991900
H641	H64	0.648900	0.373600	0.010000
H651	H65	0.546100	0.414400	0.042000
C681	C68	0.761200	0.481800	0.029300
H661	H66	0.774100	0.458900	0.085300
H671	H67	0.833900	0.481100	0.999000
H681	H68	0.742600	0.521600	0.044400
N431	N43	0.849300	0.578780	0.707600
N441	N44	0.256700	0.539060	0.592600
N451	N45	0.376900	0.539920	0.604700
N461	N46	0.417600	0.565220	0.686000
N471	N47	0.322000	0.581040	0.728400
N481	N48	0.627100	0.840780	0.302100
N491	N49	0.573300	0.631300	0.419100
N501	N50	0.577700	0.594890	0.491100
N511	N51	0.616700	0.623390	0.569100
N521	N52	0.639500	0.679140	0.548900
N531	N53	0.636100	0.488170	0.631900
N541	N54	0.697800	0.447460	0.652200
N551	N55	0.757200	0.407200	0.673100
N561	N56	0.661600	0.457700	0.968500
O41	O4	0.664900	0.526040	0.855500
Cd51	Cd5	0.500000	0.000000	0.000000
Cd61	Cd6	0.500000	0.500000	0.500000
