data_RODBAP_freeONLY_PM
_symmetry_space_group_name_H-M	'P1'
_cell_length_a	11.054000
_cell_length_b	22.723000
_cell_length_c	14.666000
_cell_angle_alpha	90.000000
_cell_angle_beta	96.800000
_cell_angle_gamma	90.000000
_symmetry_Int_Tables_number 1

loop_
_symmetry_equiv_pos_as_xyz
'x,y,z'

loop_
_atom_site_label
_atom_site_type_symbol
_atom_site_fract_x
_atom_site_fract_y
_atom_site_fract_z
Cd11	Cd1	0.139250	0.924550	0.211060
C11	C1	0.105700	0.711430	0.757300
H11	H1	0.090800	0.712500	0.693600
C21	C2	0.096700	0.763000	0.805300
H21	H2	0.076700	0.798000	0.774300
C31	C3	0.117600	0.762100	0.900130
C41	C4	0.150000	0.709110	0.942100
H31	H3	0.166600	0.706900	0.005600
C51	C5	0.157400	0.659680	0.889000
H41	H4	0.179200	0.624300	0.918200
C61	C6	0.107200	0.815980	0.953160
C71	C7	0.390300	0.932550	0.120400
H51	H5	0.331900	0.940300	0.070900
C81	C8	0.510100	0.935960	0.107200
H61	H6	0.531700	0.946300	0.049900
C91	C9	0.600200	0.923980	0.179600
C101	C10	0.562000	0.907160	0.261700
H71	H7	0.618700	0.896900	0.311100
C111	C11	0.438500	0.905600	0.270400
H81	H8	0.414600	0.895000	0.326800
C121	C12	0.728400	0.931670	0.165360
C131	C13	0.144100	0.013790	0.402400
C141	C14	0.142100	0.067000	0.535800
H91	H9	0.204400	0.096100	0.554300
H101	H10	0.106200	0.054100	0.589600
C151	C15	0.049100	0.091000	0.466300
H111	H11	0.968500	0.087200	0.485600
H121	H12	0.064500	0.132200	0.454900
C161	C16	0.296700	0.983900	0.527100
H131	H13	0.316700	0.993400	0.590900
H141	H14	0.364600	0.993300	0.494500
H151	H15	0.278600	0.942700	0.520800
C171	C17	0.987100	0.065400	0.300200
H161	H16	0.933800	0.098200	0.305500
H171	H17	0.939600	0.030800	0.283800
H181	H18	0.038900	0.073400	0.253600
N11	N1	0.134800	0.659960	0.797920
N21	N2	0.069600	0.867420	0.916890
N31	N3	0.073400	0.903210	0.987990
N41	N4	0.112900	0.874530	0.064170
N51	N5	0.134200	0.819010	0.043780
N61	N6	0.352100	0.918560	0.201820
N71	N7	0.761200	0.959160	0.092300
N81	N8	0.881200	0.958990	0.104830
N91	N9	0.920200	0.931920	0.182430
N101	N10	0.824600	0.914040	0.222940
N111	N11	0.142700	0.008620	0.125260
N121	N12	0.219000	0.045150	0.134700
N131	N13	0.293100	0.080100	0.143400
N141	N14	0.059800	0.056020	0.385600
N151	N15	0.193100	0.017290	0.490200
O11	O1	0.172300	0.976440	0.347610
Cd21	Cd2	0.860750	0.424550	0.288940
C181	C18	0.894300	0.211430	0.742700
H191	H19	0.909200	0.212500	0.806400
C191	C19	0.903300	0.263000	0.694700
H201	H20	0.923300	0.298000	0.725700
C201	C20	0.882400	0.262100	0.599870
C211	C21	0.850000	0.209110	0.557900
H211	H21	0.833400	0.206900	0.494400
C221	C22	0.842600	0.159680	0.611000
H221	H22	0.820800	0.124300	0.581800
C231	C23	0.892800	0.315980	0.546840
C241	C24	0.609700	0.432550	0.379600
H231	H23	0.668100	0.440300	0.429100
C251	C25	0.489900	0.435960	0.392800
H241	H24	0.468300	0.446300	0.450100
C261	C26	0.399800	0.423980	0.320400
C271	C27	0.438000	0.407160	0.238300
H251	H25	0.381300	0.396900	0.188900
C281	C28	0.561500	0.405600	0.229600
H261	H26	0.585400	0.395000	0.173200
C291	C29	0.271600	0.431670	0.334640
C301	C30	0.855900	0.513790	0.097600
C311	C31	0.857900	0.567000	0.964200
H271	H27	0.795600	0.596100	0.945700
H281	H28	0.893800	0.554100	0.910400
C321	C32	0.950900	0.591000	0.033700
H291	H29	0.031500	0.587200	0.014400
H301	H30	0.935500	0.632200	0.045100
C331	C33	0.703300	0.483900	0.972900
H311	H31	0.683300	0.493400	0.909100
H321	H32	0.635400	0.493300	0.005500
H331	H33	0.721400	0.442700	0.979200
C341	C34	0.012900	0.565400	0.199800
H341	H34	0.066200	0.598200	0.194500
H351	H35	0.060400	0.530800	0.216200
H361	H36	0.961100	0.573400	0.246400
N161	N16	0.865200	0.159960	0.702080
N171	N17	0.930400	0.367420	0.583110
N181	N18	0.926600	0.403210	0.512010
N191	N19	0.887100	0.374530	0.435830
N201	N20	0.865800	0.319010	0.456220
N211	N21	0.647900	0.418560	0.298180
N221	N22	0.238800	0.459160	0.407700
N231	N23	0.118800	0.458990	0.395170
N241	N24	0.079800	0.431920	0.317570
N251	N25	0.175400	0.414040	0.277060
N261	N26	0.857300	0.508620	0.374740
N271	N27	0.781000	0.545150	0.365300
N281	N28	0.706900	0.580100	0.356600
N291	N29	0.940200	0.556020	0.114400
N301	N30	0.806900	0.517290	0.009800
O21	O2	0.827700	0.476440	0.152390
Cd31	Cd3	0.860750	0.075450	0.788940
C351	C35	0.894300	0.288570	0.242700
H371	H37	0.909200	0.287500	0.306400
C361	C36	0.903300	0.237000	0.194700
H381	H38	0.923300	0.202000	0.225700
C371	C37	0.882400	0.237900	0.099870
C381	C38	0.850000	0.290890	0.057900
H391	H39	0.833400	0.293100	0.994400
C391	C39	0.842600	0.340320	0.111000
H401	H40	0.820800	0.375700	0.081800
C401	C40	0.892800	0.184020	0.046840
C411	C41	0.609700	0.067450	0.879600
H411	H41	0.668100	0.059700	0.929100
C421	C42	0.489900	0.064040	0.892800
H421	H42	0.468300	0.053700	0.950100
C431	C43	0.399800	0.076020	0.820400
C441	C44	0.438000	0.092840	0.738300
H431	H43	0.381300	0.103100	0.688900
C451	C45	0.561500	0.094400	0.729600
H441	H44	0.585400	0.105000	0.673200
C461	C46	0.271600	0.068330	0.834640
C471	C47	0.855900	0.986210	0.597600
C481	C48	0.857900	0.933000	0.464200
H451	H45	0.795600	0.903900	0.445700
H461	H46	0.893800	0.945900	0.410400
C491	C49	0.950900	0.909000	0.533700
H471	H47	0.031500	0.912800	0.514400
H481	H48	0.935500	0.867800	0.545100
C501	C50	0.703300	0.016100	0.472900
H491	H49	0.683300	0.006600	0.409100
H501	H50	0.635400	0.006700	0.505500
H511	H51	0.721400	0.057300	0.479200
C511	C51	0.012900	0.934600	0.699800
H521	H52	0.066200	0.901800	0.694500
H531	H53	0.060400	0.969200	0.716200
H541	H54	0.961100	0.926600	0.746400
N311	N31	0.865200	0.340040	0.202080
N321	N32	0.930400	0.132580	0.083110
N331	N33	0.926600	0.096790	0.012010
N341	N34	0.887100	0.125470	0.935830
N351	N35	0.865800	0.180990	0.956220
N361	N36	0.647900	0.081440	0.798180
N371	N37	0.238800	0.040840	0.907700
N381	N38	0.118800	0.041010	0.895170
N391	N39	0.079800	0.068080	0.817570
N401	N40	0.175400	0.085960	0.777060
N411	N41	0.857300	0.991380	0.874740
N421	N42	0.781000	0.954850	0.865300
N431	N43	0.706900	0.919900	0.856600
N441	N44	0.940200	0.943980	0.614400
N451	N45	0.806900	0.982710	0.509800
O31	O3	0.827700	0.023560	0.652390
Cd41	Cd4	0.139250	0.575450	0.711060
C521	C52	0.105700	0.788570	0.257300
H551	H55	0.090800	0.787500	0.193600
C531	C53	0.096700	0.737000	0.305300
H561	H56	0.076700	0.702000	0.274300
C541	C54	0.117600	0.737900	0.400130
C551	C55	0.150000	0.790890	0.442100
H571	H57	0.166600	0.793100	0.505600
C561	C56	0.157400	0.840320	0.389000
H581	H58	0.179200	0.875700	0.418200
C571	C57	0.107200	0.684020	0.453160
C581	C58	0.390300	0.567450	0.620400
H591	H59	0.331900	0.559700	0.570900
C591	C59	0.510100	0.564040	0.607200
H601	H60	0.531700	0.553700	0.549900
C601	C60	0.600200	0.576020	0.679600
C611	C61	0.562000	0.592840	0.761700
H611	H61	0.618700	0.603100	0.811100
C621	C62	0.438500	0.594400	0.770400
H621	H62	0.414600	0.605000	0.826800
C631	C63	0.728400	0.568330	0.665360
C641	C64	0.144100	0.486210	0.902400
C651	C65	0.142100	0.433000	0.035800
H631	H63	0.204400	0.403900	0.054300
H641	H64	0.106200	0.445900	0.089600
C661	C66	0.049100	0.409000	0.966300
H651	H65	0.968500	0.412800	0.985600
H661	H66	0.064500	0.367800	0.954900
C671	C67	0.296700	0.516100	0.027100
H671	H67	0.316700	0.506600	0.090900
H681	H68	0.364600	0.506700	0.994500
H691	H69	0.278600	0.557300	0.020800
C681	C68	0.987100	0.434600	0.800200
H701	H70	0.933800	0.401800	0.805500
H711	H71	0.939600	0.469200	0.783800
H721	H72	0.038900	0.426600	0.753600
N461	N46	0.134800	0.840040	0.297920
N471	N47	0.069600	0.632580	0.416890
N481	N48	0.073400	0.596790	0.487990
N491	N49	0.112900	0.625470	0.564170
N501	N50	0.134200	0.680990	0.543780
N511	N51	0.352100	0.581440	0.701820
N521	N52	0.761200	0.540840	0.592300
N531	N53	0.881200	0.541010	0.604830
N541	N54	0.920200	0.568080	0.682430
N551	N55	0.824600	0.585960	0.722940
N561	N56	0.142700	0.491380	0.625260
N571	N57	0.219000	0.454850	0.634700
N581	N58	0.293100	0.419900	0.643400
N591	N59	0.059800	0.443980	0.885600
N601	N60	0.193100	0.482710	0.990200
O41	O4	0.172300	0.523560	0.847610
Cd51	Cd5	0.000000	0.000000	0.000000
Cd61	Cd6	0.000000	0.500000	0.500000
