data_ROLCEC13_freeONLY_PM
_symmetry_space_group_name_H-M	'P1'
_cell_length_a	7.319200
_cell_length_b	7.319200
_cell_length_c	24.381000
_cell_angle_alpha	90.000000
_cell_angle_beta	90.000000
_cell_angle_gamma	120.000000
_symmetry_Int_Tables_number 1

loop_
_symmetry_equiv_pos_as_xyz
'x,y,z'

loop_
_atom_site_label
_atom_site_type_symbol
_atom_site_fract_x
_atom_site_fract_y
_atom_site_fract_z
O11	O1	0.338100	0.451400	0.132460
O21	O2	0.921200	0.297900	0.964400
O31	O3	0.140900	0.419500	0.034230
C11	C1	0.031400	0.431100	0.999000
H11	H1	0.029600	0.557200	0.997800
O41	O4	0.548600	0.886700	0.465790
O51	O5	0.702100	0.623300	0.297730
O61	O6	0.580500	0.721400	0.367560
C21	C2	0.568900	0.600300	0.332330
H21	H2	0.442800	0.472400	0.331130
O71	O7	0.113300	0.661900	0.799130
O81	O8	0.376700	0.078800	0.631070
O91	O9	0.278600	0.859100	0.700900
C31	C3	0.399700	0.968600	0.665670
H31	H3	0.527600	0.970400	0.664470
O101	O10	0.661900	0.548600	0.632460
O111	O11	0.078800	0.702100	0.464400
O121	O12	0.859100	0.580500	0.534230
C41	C4	0.968600	0.568900	0.499000
H41	H4	0.970400	0.442800	0.497800
O131	O13	0.451400	0.113300	0.965790
O141	O14	0.297900	0.376700	0.797730
O151	O15	0.419500	0.278600	0.867560
C51	C5	0.431100	0.399700	0.832330
H51	H5	0.557200	0.527600	0.831130
O161	O16	0.886700	0.338100	0.299130
O171	O17	0.623300	0.921200	0.131070
O181	O18	0.721400	0.140900	0.200900
C61	C6	0.600300	0.031400	0.165670
H61	H6	0.472400	0.029600	0.164470
O191	O19	0.451400	0.338100	0.200870
O201	O20	0.297900	0.921200	0.368930
O211	O21	0.419500	0.140900	0.299100
C71	C7	0.431100	0.031400	0.334330
H71	H7	0.557200	0.029600	0.335530
O221	O22	0.886700	0.548600	0.867540
O231	O23	0.623300	0.702100	0.035600
O241	O24	0.721400	0.580500	0.965770
C81	C8	0.600300	0.568900	0.001000
H81	H8	0.472400	0.442800	0.002200
O251	O25	0.661900	0.113300	0.534210
O261	O26	0.078800	0.376700	0.702270
O271	O27	0.859100	0.278600	0.632440
C91	C9	0.968600	0.399700	0.667670
H91	H9	0.970400	0.527600	0.668870
O281	O28	0.548600	0.661900	0.700870
O291	O29	0.702100	0.078800	0.868930
O301	O30	0.580500	0.859100	0.799100
C101	C10	0.568900	0.968600	0.834330
H101	H10	0.442800	0.970400	0.835530
O311	O31	0.113300	0.451400	0.367540
O321	O32	0.376700	0.297900	0.535600
O331	O33	0.278600	0.419500	0.465770
C111	C11	0.399700	0.431100	0.501000
H111	H11	0.527600	0.557200	0.502200
O341	O34	0.338100	0.886700	0.034210
O351	O35	0.921200	0.623300	0.202270
O361	O36	0.140900	0.721400	0.132440
C121	C12	0.031400	0.600300	0.167670
H121	H12	0.029600	0.472400	0.168870
Cu11	Cu1	0.364590	0.682300	0.083330
Cu21	Cu2	0.317700	0.682290	0.416670
Cu31	Cu3	0.317710	0.635410	0.750000
Cu41	Cu4	0.635410	0.317700	0.583330
Cu51	Cu5	0.682300	0.317700	0.916670
Cu61	Cu6	0.682290	0.364590	0.250000
C131	C13	0.472700	0.472700	0.166670
H131	H13	0.599700	0.599700	0.166670
C141	C14	0.527300	0.000000	0.500000
H141	H14	0.400300	0.000000	0.500000
C151	C15	0.000000	0.527300	0.833330
H151	H15	0.000000	0.400300	0.833330
C161	C16	0.527300	0.527300	0.666670
H161	H16	0.400300	0.400300	0.666670
C171	C17	0.472700	0.000000	0.000000
H171	H17	0.599700	0.000000	0.000000
C181	C18	0.000000	0.472700	0.333330
H181	H18	0.000000	0.599700	0.333330
