data_ROLCEC16_freeONLY_PM
_symmetry_space_group_name_H-M	'P1'
_cell_length_a	7.333800
_cell_length_b	7.333800
_cell_length_c	24.410000
_cell_angle_alpha	90.000000
_cell_angle_beta	90.000000
_cell_angle_gamma	120.000000
_symmetry_Int_Tables_number 1

loop_
_symmetry_equiv_pos_as_xyz
'x,y,z'

loop_
_atom_site_label
_atom_site_type_symbol
_atom_site_fract_x
_atom_site_fract_y
_atom_site_fract_z
O11	O1	0.337200	0.451000	0.132300
O21	O2	0.920000	0.299500	0.964600
O31	O3	0.142600	0.420100	0.033900
C11	C1	0.031700	0.433500	0.999300
H11	H1	0.029900	0.559300	0.998500
O41	O4	0.549000	0.886200	0.465630
O51	O5	0.700500	0.620500	0.297930
O61	O6	0.579900	0.722500	0.367230
C21	C2	0.566500	0.598200	0.332630
H21	H2	0.440700	0.470600	0.331830
O71	O7	0.113800	0.662800	0.798970
O81	O8	0.379500	0.080000	0.631270
O91	O9	0.277500	0.857400	0.700570
C31	C3	0.401800	0.968300	0.665970
H31	H3	0.529400	0.970100	0.665170
O101	O10	0.662800	0.549000	0.632300
O111	O11	0.080000	0.700500	0.464600
O121	O12	0.857400	0.579900	0.533900
C41	C4	0.968300	0.566500	0.499300
H41	H4	0.970100	0.440700	0.498500
O131	O13	0.451000	0.113800	0.965630
O141	O14	0.299500	0.379500	0.797930
O151	O15	0.420100	0.277500	0.867230
C51	C5	0.433500	0.401800	0.832630
H51	H5	0.559300	0.529400	0.831830
O161	O16	0.886200	0.337200	0.298970
O171	O17	0.620500	0.920000	0.131270
O181	O18	0.722500	0.142600	0.200570
C61	C6	0.598200	0.031700	0.165970
H61	H6	0.470600	0.029900	0.165170
O191	O19	0.451000	0.337200	0.201030
O201	O20	0.299500	0.920000	0.368730
O211	O21	0.420100	0.142600	0.299430
C71	C7	0.433500	0.031700	0.334030
H71	H7	0.559300	0.029900	0.334830
O221	O22	0.886200	0.549000	0.867700
O231	O23	0.620500	0.700500	0.035400
O241	O24	0.722500	0.579900	0.966100
C81	C8	0.598200	0.566500	0.000700
H81	H8	0.470600	0.440700	0.001500
O251	O25	0.662800	0.113800	0.534370
O261	O26	0.080000	0.379500	0.702070
O271	O27	0.857400	0.277500	0.632770
C91	C9	0.968300	0.401800	0.667370
H91	H9	0.970100	0.529400	0.668170
O281	O28	0.549000	0.662800	0.701030
O291	O29	0.700500	0.080000	0.868730
O301	O30	0.579900	0.857400	0.799430
C101	C10	0.566500	0.968300	0.834030
H101	H10	0.440700	0.970100	0.834830
O311	O31	0.113800	0.451000	0.367700
O321	O32	0.379500	0.299500	0.535400
O331	O33	0.277500	0.420100	0.466100
C111	C11	0.401800	0.433500	0.500700
H111	H11	0.529400	0.559300	0.501500
O341	O34	0.337200	0.886200	0.034370
O351	O35	0.920000	0.620500	0.202070
O361	O36	0.142600	0.722500	0.132770
C121	C12	0.031700	0.598200	0.167370
H121	H12	0.029900	0.470600	0.168170
Cu11	Cu1	0.363980	0.681990	0.083330
Cu21	Cu2	0.318010	0.681990	0.416670
Cu31	Cu3	0.318010	0.636020	0.750000
Cu41	Cu4	0.636020	0.318010	0.583330
Cu51	Cu5	0.681990	0.318010	0.916670
Cu61	Cu6	0.681990	0.363980	0.250000
C131	C13	0.474000	0.474000	0.166670
H131	H13	0.600800	0.600800	0.166670
C141	C14	0.526000	0.000000	0.500000
H141	H14	0.399200	0.000000	0.500000
C151	C15	0.000000	0.526000	0.833330
H151	H15	0.000000	0.399200	0.833330
C161	C16	0.526000	0.526000	0.666670
H161	H16	0.399200	0.399200	0.666670
C171	C17	0.474000	0.000000	0.000000
H171	H17	0.600800	0.000000	0.000000
C181	C18	0.000000	0.474000	0.333330
H181	H18	0.000000	0.600800	0.333330
