data_ROMQER_freeONLY_PM
_symmetry_space_group_name_H-M	'P1'
_cell_length_a	15.519000
_cell_length_b	16.102000
_cell_length_c	22.982000
_cell_angle_alpha	90.000000
_cell_angle_beta	90.000000
_cell_angle_gamma	100.200000
_symmetry_Int_Tables_number 1

loop_
_symmetry_equiv_pos_as_xyz
'x,y,z'

loop_
_atom_site_label
_atom_site_type_symbol
_atom_site_fract_x
_atom_site_fract_y
_atom_site_fract_z
Zn11	Zn1	0.156640	0.353940	0.877500
Zn21	Zn2	0.825420	0.246680	0.248980
Zn31	Zn3	0.825420	0.746680	0.251020
Zn41	Zn4	0.168140	0.689420	0.876510
Zn51	Zn5	0.174580	0.753320	0.751020
Zn61	Zn6	0.843360	0.146060	0.377500
Zn71	Zn7	0.831860	0.810580	0.376510
Zn81	Zn8	0.352400	0.383020	0.837170
Zn91	Zn9	0.663750	0.151010	0.471930
Zn101	Zn10	0.663750	0.651010	0.028070
Zn111	Zn11	0.336250	0.348990	0.971930
Zn121	Zn12	0.831860	0.310580	0.123480
Zn131	Zn13	0.843360	0.646060	0.122500
Zn141	Zn14	0.174580	0.253320	0.748980
Zn151	Zn15	0.647600	0.116980	0.337170
Zn161	Zn16	0.647600	0.616980	0.162830
Zn171	Zn17	0.352400	0.883020	0.662830
Zn181	Zn18	0.156640	0.853940	0.622500
Zn191	Zn19	0.336250	0.848990	0.528070
Zn201	Zn20	0.168140	0.189420	0.623490
H11	H1	0.399000	0.581300	0.984100
H21	H2	0.058600	0.099800	0.162200
H31	H3	0.170100	0.515000	0.666500
H41	H4	0.613200	0.150800	0.770900
H51	H5	0.788800	0.896400	0.825900
H61	H6	0.344200	0.246300	0.370600
H71	H7	0.417900	0.919600	0.129800
H81	H8	0.108400	0.291400	0.271000
H91	H9	0.562500	0.155700	0.958400
H101	H10	0.170100	0.015000	0.833500
H111	H11	0.426000	0.989900	0.032200
H121	H12	0.676000	0.536700	0.523700
H131	H13	0.631100	0.455500	0.843700
H141	H14	0.839200	0.935400	0.557000
H151	H15	0.048700	0.003700	0.147800
H161	H16	0.558200	0.215800	0.855500
H171	H17	0.107200	0.989700	0.250200
H181	H18	0.625000	0.749900	0.732700
H191	H19	0.117400	0.087800	0.256400
H201	H20	0.601000	0.418700	0.015900
H211	H21	0.193900	0.505200	0.333100
H221	H22	0.128300	0.639000	0.521700
H231	H23	0.128300	0.139000	0.978300
H241	H24	0.655800	0.253700	0.870600
H251	H25	0.806100	0.994800	0.833100
H261	H26	0.160800	0.064600	0.443000
H271	H27	0.368900	0.544500	0.156300
H281	H28	0.633800	0.367900	0.295700
H291	H29	0.335300	0.819700	0.035800
H301	H30	0.941400	0.400200	0.662200
H311	H31	0.437500	0.344300	0.458400
H321	H32	0.441800	0.784200	0.144500
H331	H33	0.324000	0.463300	0.476300
H341	H34	0.806100	0.494800	0.666900
H351	H35	0.731400	0.905100	0.723700
H361	H36	0.324000	0.963300	0.023700
H371	H37	0.254300	0.995600	0.273700
H381	H38	0.668800	0.184600	0.679000
H391	H39	0.655800	0.753700	0.629400
H401	H40	0.574000	0.510100	0.532200
H411	H41	0.601000	0.918700	0.484100
H421	H42	0.839200	0.435400	0.943000
H431	H43	0.335300	0.319700	0.464200
H441	H44	0.107200	0.489700	0.249800
H451	H45	0.683600	0.611500	0.624700
H461	H46	0.562500	0.655700	0.541600
H471	H47	0.375300	0.090700	0.965700
H481	H48	0.193900	0.005200	0.166900
H491	H49	0.268600	0.594900	0.223700
H501	H50	0.951300	0.996300	0.852200
H511	H51	0.395500	0.904900	0.853100
H521	H52	0.613200	0.650800	0.729100
H531	H53	0.582100	0.580400	0.629800
H541	H54	0.829900	0.485000	0.333500
H551	H55	0.331200	0.315400	0.179000
H561	H56	0.941400	0.900200	0.837800
H571	H57	0.895100	0.676400	0.901600
H581	H58	0.891600	0.208600	0.771000
H591	H59	0.951300	0.496300	0.647800
H601	H60	0.664700	0.180300	0.964200
H611	H61	0.664700	0.680300	0.535800
H621	H62	0.745700	0.504400	0.773700
H631	H63	0.108400	0.791400	0.229000
H641	H64	0.211200	0.603600	0.325900
H651	H65	0.375000	0.750100	0.232700
H661	H66	0.254300	0.495600	0.226300
H671	H67	0.853100	0.871900	0.921900
H681	H68	0.951600	0.409800	0.565300
H691	H69	0.829900	0.985000	0.166500
H701	H70	0.395500	0.404900	0.646900
H711	H71	0.624700	0.909300	0.034300
H721	H72	0.891600	0.708600	0.729000
H731	H73	0.386800	0.349200	0.270900
H741	H74	0.604500	0.595100	0.353100
H751	H75	0.268600	0.094900	0.276300
H761	H76	0.631100	0.955500	0.656300
H771	H77	0.048400	0.590200	0.434700
H781	H78	0.160800	0.564600	0.057000
H791	H79	0.624700	0.409300	0.465700
H801	H80	0.048700	0.503700	0.352200
H811	H81	0.316400	0.888500	0.124700
H821	H82	0.331200	0.815400	0.321000
H831	H83	0.399000	0.081300	0.515900
H841	H84	0.104900	0.823600	0.401600
H851	H85	0.788800	0.396400	0.674100
H861	H86	0.426000	0.489900	0.467800
H871	H87	0.683600	0.111500	0.875300
H881	H88	0.892800	0.510300	0.750200
H891	H89	0.871700	0.861000	0.021700
H901	H90	0.417900	0.419600	0.370200
H911	H91	0.574000	0.010100	0.967800
H921	H92	0.146900	0.628100	0.421900
H931	H93	0.951600	0.909800	0.934700
H941	H94	0.117400	0.587800	0.243600
H951	H95	0.441800	0.284200	0.355500
H961	H96	0.211200	0.103600	0.174100
H971	H97	0.437500	0.844300	0.041600
H981	H98	0.344200	0.746300	0.129400
H991	H99	0.668800	0.684600	0.821000
H1001	H100	0.366200	0.632100	0.704300
H1011	H101	0.604500	0.095100	0.146900
H1021	H102	0.153400	0.395900	0.513000
H1031	H103	0.731400	0.405100	0.776300
H1041	H104	0.366200	0.132100	0.795700
H1051	H105	0.871700	0.361000	0.478300
H1061	H106	0.882600	0.912200	0.743600
H1071	H107	0.316400	0.388500	0.375300
H1081	H108	0.146900	0.128100	0.078100
H1091	H109	0.676000	0.036700	0.976300
H1101	H110	0.582100	0.080400	0.870200
H1111	H111	0.375000	0.250100	0.267300
H1121	H112	0.104900	0.323600	0.098400
H1131	H113	0.368900	0.044500	0.343700
H1141	H114	0.153400	0.895900	0.987000
H1151	H115	0.846600	0.104100	0.013000
H1161	H116	0.882600	0.412200	0.756400
H1171	H117	0.386800	0.849200	0.229100
H1181	H118	0.058600	0.599800	0.337800
H1191	H119	0.853100	0.371900	0.578100
H1201	H120	0.846600	0.604100	0.487000
H1211	H121	0.558200	0.715800	0.644500
H1221	H122	0.895100	0.176400	0.598400
H1231	H123	0.625000	0.249900	0.767300
H1241	H124	0.745700	0.004400	0.726300
H1251	H125	0.048400	0.090200	0.065300
H1261	H126	0.375300	0.590700	0.534300
H1271	H127	0.633800	0.867900	0.204300
H1281	H128	0.892800	0.010300	0.749800
C11	C1	0.628500	0.375400	0.382280
C21	C2	0.838100	0.057100	0.094540
C31	C3	0.618100	0.706500	0.647720
C41	C4	0.776200	0.182300	0.629910
C51	C5	0.848500	0.055700	0.034740
C61	C6	0.161900	0.942900	0.905460
C71	C7	0.863500	0.410500	0.459960
C81	C8	0.362900	0.575100	0.016670
C91	C9	0.088000	0.057500	0.144800
C101	C10	0.779600	0.436300	0.939840
C111	C11	0.379400	0.514100	0.685680
C121	C12	0.161000	0.515100	0.626500
C131	C13	0.005600	0.198100	0.687470
C141	C14	0.237800	0.093000	0.547700
C151	C15	0.612800	0.011800	0.083030
C161	C16	0.176100	0.863100	0.875690
C171	C17	0.617400	0.137300	0.950220
C181	C18	0.897800	0.422000	0.582060
C191	C19	0.005600	0.698100	0.812530
C201	C20	0.994400	0.301900	0.187470
C211	C21	0.642300	0.203200	0.788240
C221	C22	0.255600	0.550900	0.113650
C231	C23	0.379400	0.014100	0.814320
C241	C24	0.779600	0.936300	0.560160
C251	C25	0.727200	0.924700	0.510830
C261	C26	0.161900	0.442900	0.594540
C271	C27	0.602500	0.434400	0.928850
C281	C28	0.147200	0.042600	0.244340
C291	C29	0.226500	0.543500	0.217440
C301	C30	0.387200	0.488200	0.583030
C311	C31	0.138400	0.517200	0.507220
C321	C32	0.226500	0.043500	0.282560
C331	C33	0.377600	0.071500	0.927630
C341	C34	0.373600	0.979700	0.753140
C351	C35	0.744400	0.449100	0.886350
C361	C36	0.852800	0.457400	0.744340
C371	C37	0.495700	0.577800	0.077470
C381	C38	0.626900	0.626100	0.616220
C391	C39	0.151500	0.944300	0.965260
C401	C40	0.908000	0.195800	0.685080
C411	C41	0.373600	0.479700	0.746860
C421	C42	0.381900	0.293500	0.352280
C431	C43	0.371500	0.624600	0.617720
C441	C44	0.382600	0.862700	0.049780
C451	C45	0.618100	0.206500	0.852280
C461	C46	0.168400	0.052700	0.180050
C471	C47	0.831600	0.947300	0.819950
C481	C48	0.654900	0.947700	0.620060
C491	C49	0.852800	0.957400	0.755660
C501	C50	0.223800	0.817700	0.370090
C511	C51	0.994400	0.801900	0.312530
C521	C52	0.620600	0.985900	0.185680
C531	C53	0.377600	0.571500	0.572370
C541	C54	0.602500	0.934400	0.571150
C551	C55	0.637100	0.424900	0.983330
C561	C56	0.226800	0.799100	0.266810
C571	C57	0.387200	0.988200	0.916970
C581	C58	0.388500	0.960100	0.860540
C591	C59	0.270700	0.311400	0.180430
C601	C60	0.773200	0.700900	0.766810
C611	C61	0.773500	0.956500	0.717440
C621	C62	0.272000	0.328700	0.072880
C631	C63	0.762200	0.907000	0.452300
C641	C64	0.137500	0.297300	0.235490
C651	C65	0.345100	0.552300	0.120060
C661	C66	0.852200	0.333200	0.366520
C671	C67	0.626400	0.520300	0.253140
C681	C68	0.237800	0.593000	0.952300
C691	C69	0.135700	0.316300	0.132250
C701	C70	0.823900	0.636900	0.375690
C711	C71	0.863500	0.910500	0.040040
C721	C72	0.628400	0.404400	0.326270
C731	C73	0.138400	0.017200	0.992780
C741	C74	0.504300	0.922200	0.577470
C751	C75	0.220400	0.563700	0.060160
C761	C76	0.176100	0.363100	0.624310
C771	C77	0.272800	0.575300	0.010830
C781	C78	0.612800	0.511800	0.416970
C791	C79	0.371600	0.095600	0.826270
C801	C80	0.161000	0.015100	0.873500
C811	C81	0.853500	0.912000	0.098900
C821	C82	0.397500	0.065600	0.428850
C831	C83	0.151500	0.444300	0.534740
C841	C84	0.495700	0.077800	0.422530
C851	C85	0.744400	0.949100	0.613650
C861	C86	0.147800	0.666800	0.633480
C871	C87	0.146500	0.588000	0.598900
C881	C88	0.102200	0.578000	0.417940
C891	C89	0.622400	0.428500	0.427630
C901	C90	0.388500	0.460100	0.639460
C911	C91	0.773500	0.456500	0.782560
C921	C92	0.362900	0.075100	0.483330
C931	C93	0.622400	0.928500	0.072370
C941	C94	0.626400	0.020300	0.246860
C951	C95	0.727200	0.424700	0.989170
C961	C96	0.359900	0.714000	0.607020
C971	C97	0.773200	0.200900	0.733190
C981	C98	0.373100	0.873900	0.116220
C991	C99	0.728000	0.671300	0.927120
C1001	C100	0.626900	0.126100	0.883780
C1011	C101	0.380100	0.945700	0.017990
C1021	C102	0.168400	0.552700	0.319950
C1031	C103	0.823900	0.136900	0.124310
C1041	C104	0.838100	0.557100	0.405460
C1051	C105	0.897800	0.922000	0.917940
C1061	C106	0.729300	0.188600	0.680430
C1071	C107	0.371600	0.595600	0.673730
C1081	C108	0.147200	0.542600	0.255660
C1091	C109	0.852200	0.833200	0.133480
C1101	C110	0.504300	0.422200	0.922530
C1111	C111	0.381900	0.793500	0.147720
C1121	C112	0.223800	0.317700	0.129910
C1131	C113	0.861600	0.482800	0.492780
C1141	C114	0.642300	0.703200	0.711760
C1151	C115	0.637100	0.924900	0.516670
C1161	C116	0.092000	0.304200	0.185080
C1171	C117	0.373100	0.373900	0.383780
C1181	C118	0.397500	0.565600	0.071150
C1191	C119	0.640100	0.786000	0.107020
C1201	C120	0.620600	0.485900	0.314320
C1211	C121	0.908000	0.695800	0.814920
C1221	C122	0.853500	0.412000	0.401100
C1231	C123	0.619900	0.054300	0.982010
C1241	C124	0.226800	0.299100	0.233190
C1251	C125	0.147800	0.166800	0.866520
C1261	C126	0.839000	0.984900	0.126500
C1271	C127	0.272800	0.075300	0.489170
C1281	C128	0.861600	0.982800	0.007220
C1291	C129	0.371500	0.124600	0.882280
C1301	C130	0.654900	0.447700	0.879940
C1311	C131	0.088000	0.557500	0.355200
C1321	C132	0.136500	0.089500	0.959960
C1331	C133	0.619900	0.554300	0.517990
C1341	C134	0.380100	0.445700	0.482010
C1351	C135	0.776200	0.682300	0.870090
C1361	C136	0.628400	0.904400	0.173730
C1371	C137	0.357700	0.796800	0.211760
C1381	C138	0.092000	0.804200	0.314920
C1391	C139	0.220400	0.063700	0.439840
C1401	C140	0.382600	0.362700	0.450220
C1411	C141	0.762200	0.407000	0.047700
C1421	C142	0.102200	0.078000	0.082060
C1431	C143	0.864300	0.683700	0.867750
C1441	C144	0.839000	0.484900	0.373500
C1451	C145	0.728000	0.171300	0.572880
C1461	C146	0.848500	0.555700	0.465260
C1471	C147	0.359900	0.214000	0.892980
C1481	C148	0.864300	0.183700	0.632250
C1491	C149	0.270700	0.811400	0.319570
C1501	C150	0.137500	0.797300	0.264510
C1511	C151	0.255600	0.050900	0.386350
C1521	C152	0.640100	0.286000	0.392980
C1531	C153	0.729300	0.688600	0.819570
C1541	C154	0.136500	0.589500	0.540040
C1551	C155	0.611500	0.039900	0.139460
C1561	C156	0.611500	0.539900	0.360540
C1571	C157	0.617400	0.637300	0.549780
C1581	C158	0.831600	0.447300	0.680050
C1591	C159	0.146500	0.088000	0.901100
C1601	C160	0.862500	0.702700	0.764510
C1611	C161	0.135700	0.816300	0.367750
C1621	C162	0.272000	0.828700	0.427120
C1631	C163	0.357700	0.296800	0.288240
C1641	C164	0.345100	0.052300	0.379940
C1651	C165	0.628500	0.875400	0.117720
C1661	C166	0.912000	0.442500	0.644800
C1671	C167	0.912000	0.942500	0.855200
C1681	C168	0.862500	0.202700	0.735490
O11	O1	0.216690	0.350450	0.798400
O21	O2	0.656570	0.478840	0.213770
O31	O3	0.769040	0.660900	0.972480
O41	O4	0.045340	0.229900	0.731830
O51	O5	0.279950	0.403660	0.906680
O61	O6	0.734730	0.208600	0.785830
O71	O7	0.196580	0.539300	0.158690
O81	O8	0.343430	0.521160	0.786230
O91	O9	0.350880	0.825700	0.429790
O101	O10	0.898420	0.621200	0.041680
O111	O11	0.933400	0.084900	0.344900
O121	O12	0.459590	0.902810	0.532200
O131	O13	0.345640	0.734670	0.555170
O141	O14	0.066600	0.915100	0.655100
O151	O15	0.041190	0.171130	0.643060
O161	O16	0.160190	0.663970	0.687630
O171	O17	0.232020	0.685310	0.804830
O181	O18	0.605300	0.091770	0.255700
O191	O19	0.822700	0.140190	0.178680
O201	O20	0.656570	0.978840	0.286230
O211	O21	0.279950	0.903660	0.593320
O221	O22	0.066600	0.415100	0.844900
O231	O23	0.230960	0.839100	0.472480
O241	O24	0.041190	0.671130	0.856940
O251	O25	0.171560	0.628630	0.950910
O261	O26	0.898420	0.121200	0.458320
O271	O27	0.954660	0.270100	0.231830
O281	O28	0.045340	0.729900	0.768170
O291	O29	0.364330	0.762750	0.650060
O301	O30	0.393100	0.429190	0.541110
O311	O31	0.364330	0.262750	0.849940
O321	O32	0.839810	0.336030	0.312370
O331	O33	0.160190	0.163970	0.812370
O341	O34	0.459590	0.402810	0.967800
O351	O35	0.954660	0.770100	0.268170
O361	O36	0.189400	0.302260	0.591440
O371	O37	0.171560	0.128630	0.549090
O381	O38	0.265270	0.291400	0.285830
O391	O39	0.393100	0.929190	0.958890
O401	O40	0.767980	0.814690	0.304830
O411	O41	0.540410	0.097190	0.467800
O421	O42	0.864400	0.268300	0.393280
O431	O43	0.839810	0.836030	0.187630
O441	O44	0.649120	0.674300	0.929790
O451	O45	0.526820	0.066960	0.373540
O461	O46	0.649120	0.174300	0.570210
O471	O47	0.177300	0.859810	0.821320
O481	O48	0.345640	0.234670	0.944830
O491	O49	0.473180	0.933040	0.626460
O501	O50	0.135600	0.731700	0.606720
O511	O51	0.828440	0.371370	0.049090
O521	O52	0.343430	0.021160	0.713770
O531	O53	0.350880	0.325700	0.070210
O541	O54	0.177300	0.359810	0.678680
O551	O55	0.216690	0.850450	0.701600
O561	O56	0.828440	0.871370	0.450910
O571	O57	0.135600	0.231700	0.893280
O581	O58	0.783310	0.149550	0.298400
O591	O59	0.872200	0.488300	0.552140
O601	O60	0.783310	0.649550	0.201600
O611	O61	0.127800	0.011700	0.052140
O621	O62	0.635670	0.737250	0.150060
O631	O63	0.230960	0.339100	0.027520
O641	O64	0.473180	0.433040	0.873540
O651	O65	0.101580	0.878800	0.541680
O661	O66	0.958810	0.328870	0.143060
O671	O67	0.605300	0.591770	0.244300
O681	O68	0.810600	0.197740	0.091440
O691	O69	0.810600	0.697740	0.408560
O701	O70	0.864400	0.768300	0.106720
O711	O71	0.275460	0.073420	0.592920
O721	O72	0.606900	0.570810	0.458890
O731	O73	0.101580	0.378800	0.958320
O741	O74	0.189400	0.802260	0.908560
O751	O75	0.196580	0.039300	0.341310
O761	O76	0.635670	0.237250	0.349940
O771	O77	0.724540	0.426580	0.092920
O781	O78	0.767980	0.314690	0.195170
O791	O79	0.734730	0.708600	0.714170
O801	O80	0.606900	0.070810	0.041110
O811	O81	0.769040	0.160900	0.527520
O821	O82	0.822700	0.640190	0.321320
O831	O83	0.127800	0.511700	0.447860
O841	O84	0.394700	0.908230	0.744300
O851	O85	0.724540	0.926580	0.407080
O861	O86	0.265270	0.791400	0.214170
O871	O87	0.933400	0.584900	0.155100
O881	O88	0.526820	0.566960	0.126460
O891	O89	0.540410	0.597190	0.032200
O901	O90	0.654360	0.765330	0.055170
O911	O91	0.803420	0.460700	0.841310
O921	O92	0.872200	0.988300	0.947860
O931	O93	0.958810	0.828870	0.356940
O941	O94	0.803420	0.960700	0.658690
O951	O95	0.654360	0.265330	0.444830
O961	O96	0.394700	0.408230	0.755700
O971	O97	0.720050	0.096340	0.406680
O981	O98	0.232020	0.185310	0.695170
O991	O99	0.275460	0.573420	0.907080
O1001	O100	0.720050	0.596340	0.093320
