data_ROQDIM04_freeONLY_PM
_symmetry_space_group_name_H-M	'P1'
_cell_length_a	12.914700
_cell_length_b	12.914700
_cell_length_c	12.914700
_cell_angle_alpha	90.000000
_cell_angle_beta	90.000000
_cell_angle_gamma	90.000000
_symmetry_Int_Tables_number 1

loop_
_symmetry_equiv_pos_as_xyz
'x,y,z'

loop_
_atom_site_label
_atom_site_type_symbol
_atom_site_fract_x
_atom_site_fract_y
_atom_site_fract_z
N11	N1	0.643110	0.940680	0.956660
N21	N2	0.725500	0.981550	0.966280
N31	N3	0.806850	0.016920	0.972850
N41	N4	0.856890	0.059320	0.456660
N51	N5	0.774500	0.018450	0.466280
N61	N6	0.693150	0.983080	0.472850
N71	N7	0.356890	0.440680	0.543340
N81	N8	0.274500	0.481550	0.533720
N91	N9	0.193150	0.516920	0.527150
N101	N10	0.143110	0.559320	0.043340
N111	N11	0.225500	0.518450	0.033720
N121	N12	0.306850	0.483080	0.027150
N131	N13	0.956660	0.643110	0.940680
N141	N14	0.966280	0.725500	0.981550
N151	N15	0.972850	0.806850	0.016920
N161	N16	0.456660	0.856890	0.059320
N171	N17	0.466280	0.774500	0.018450
N181	N18	0.472850	0.693150	0.983080
N191	N19	0.543340	0.356890	0.440680
N201	N20	0.533720	0.274500	0.481550
N211	N21	0.527150	0.193150	0.516920
N221	N22	0.043340	0.143110	0.559320
N231	N23	0.033720	0.225500	0.518450
N241	N24	0.027150	0.306850	0.483080
N251	N25	0.940680	0.956660	0.643110
N261	N26	0.981550	0.966280	0.725500
N271	N27	0.016920	0.972850	0.806850
N281	N28	0.059320	0.456660	0.856890
N291	N29	0.018450	0.466280	0.774500
N301	N30	0.983080	0.472850	0.693150
N311	N31	0.440680	0.543340	0.356890
N321	N32	0.481550	0.533720	0.274500
N331	N33	0.516920	0.527150	0.193150
N341	N34	0.559320	0.043340	0.143110
N351	N35	0.518450	0.033720	0.225500
N361	N36	0.483080	0.027150	0.306850
N371	N37	0.356890	0.059320	0.043340
N381	N38	0.274500	0.018450	0.033720
N391	N39	0.193150	0.983080	0.027150
N401	N40	0.143110	0.940680	0.543340
N411	N41	0.225500	0.981550	0.533720
N421	N42	0.306850	0.016920	0.527150
N431	N43	0.643110	0.559320	0.456660
N441	N44	0.725500	0.518450	0.466280
N451	N45	0.806850	0.483080	0.472850
N461	N46	0.856890	0.440680	0.956660
N471	N47	0.774500	0.481550	0.966280
N481	N48	0.693150	0.516920	0.972850
N491	N49	0.043340	0.356890	0.059320
N501	N50	0.033720	0.274500	0.018450
N511	N51	0.027150	0.193150	0.983080
N521	N52	0.543340	0.143110	0.940680
N531	N53	0.533720	0.225500	0.981550
N541	N54	0.527150	0.306850	0.016920
N551	N55	0.456660	0.643110	0.559320
N561	N56	0.466280	0.725500	0.518450
N571	N57	0.472850	0.806850	0.483080
N581	N58	0.956660	0.856890	0.440680
N591	N59	0.966280	0.774500	0.481550
N601	N60	0.972850	0.693150	0.516920
N611	N61	0.059320	0.043340	0.356890
N621	N62	0.018450	0.033720	0.274500
N631	N63	0.983080	0.027150	0.193150
N641	N64	0.940680	0.543340	0.143110
N651	N65	0.981550	0.533720	0.225500
N661	N66	0.016920	0.527150	0.306850
N671	N67	0.559320	0.456660	0.643110
N681	N68	0.518450	0.466280	0.725500
N691	N69	0.483080	0.472850	0.806850
N701	N70	0.440680	0.956660	0.856890
N711	N71	0.481550	0.966280	0.774500
N721	N72	0.516920	0.972850	0.693150
Fe11	Fe1	0.500000	0.000000	0.000000
Fe21	Fe2	0.000000	0.000000	0.500000
Fe31	Fe3	0.500000	0.500000	0.500000
Fe41	Fe4	0.000000	0.500000	0.000000
Na11	Na1	0.000000	0.000000	0.000000
Na21	Na2	0.500000	0.000000	0.500000
Na31	Na3	0.000000	0.500000	0.500000
Na41	Na4	0.500000	0.500000	0.000000
