data_ROQFUA_freeONLY_PM
_symmetry_space_group_name_H-M	'P1'
_cell_length_a	13.102600
_cell_length_b	13.102600
_cell_length_c	13.102600
_cell_angle_alpha	90.000000
_cell_angle_beta	90.000000
_cell_angle_gamma	90.000000
_symmetry_Int_Tables_number 1

loop_
_symmetry_equiv_pos_as_xyz
'x,y,z'

loop_
_atom_site_label
_atom_site_type_symbol
_atom_site_fract_x
_atom_site_fract_y
_atom_site_fract_z
N11	N1	0.636600	0.933000	0.953820
N21	N2	0.715290	0.979010	0.958630
N31	N3	0.792810	0.021780	0.961910
N41	N4	0.863400	0.067000	0.453820
N51	N5	0.784710	0.020990	0.458630
N61	N6	0.707190	0.978220	0.461910
N71	N7	0.363400	0.433000	0.546180
N81	N8	0.284710	0.479010	0.541370
N91	N9	0.207190	0.521780	0.538090
N101	N10	0.136600	0.567000	0.046180
N111	N11	0.215290	0.520990	0.041370
N121	N12	0.292810	0.478220	0.038090
N131	N13	0.953820	0.636600	0.933000
N141	N14	0.958630	0.715290	0.979010
N151	N15	0.961910	0.792810	0.021780
N161	N16	0.453820	0.863400	0.067000
N171	N17	0.458630	0.784710	0.020990
N181	N18	0.461910	0.707190	0.978220
N191	N19	0.546180	0.363400	0.433000
N201	N20	0.541370	0.284710	0.479010
N211	N21	0.538090	0.207190	0.521780
N221	N22	0.046180	0.136600	0.567000
N231	N23	0.041370	0.215290	0.520990
N241	N24	0.038090	0.292810	0.478220
N251	N25	0.933000	0.953820	0.636600
N261	N26	0.979010	0.958630	0.715290
N271	N27	0.021780	0.961910	0.792810
N281	N28	0.067000	0.453820	0.863400
N291	N29	0.020990	0.458630	0.784710
N301	N30	0.978220	0.461910	0.707190
N311	N31	0.433000	0.546180	0.363400
N321	N32	0.479010	0.541370	0.284710
N331	N33	0.521780	0.538090	0.207190
N341	N34	0.567000	0.046180	0.136600
N351	N35	0.520990	0.041370	0.215290
N361	N36	0.478220	0.038090	0.292810
N371	N37	0.363400	0.067000	0.046180
N381	N38	0.284710	0.020990	0.041370
N391	N39	0.207190	0.978220	0.038090
N401	N40	0.136600	0.933000	0.546180
N411	N41	0.215290	0.979010	0.541370
N421	N42	0.292810	0.021780	0.538090
N431	N43	0.636600	0.567000	0.453820
N441	N44	0.715290	0.520990	0.458630
N451	N45	0.792810	0.478220	0.461910
N461	N46	0.863400	0.433000	0.953820
N471	N47	0.784710	0.479010	0.958630
N481	N48	0.707190	0.521780	0.961910
N491	N49	0.046180	0.363400	0.067000
N501	N50	0.041370	0.284710	0.020990
N511	N51	0.038090	0.207190	0.978220
N521	N52	0.546180	0.136600	0.933000
N531	N53	0.541370	0.215290	0.979010
N541	N54	0.538090	0.292810	0.021780
N551	N55	0.453820	0.636600	0.567000
N561	N56	0.458630	0.715290	0.520990
N571	N57	0.461910	0.792810	0.478220
N581	N58	0.953820	0.863400	0.433000
N591	N59	0.958630	0.784710	0.479010
N601	N60	0.961910	0.707190	0.521780
N611	N61	0.067000	0.046180	0.363400
N621	N62	0.020990	0.041370	0.284710
N631	N63	0.978220	0.038090	0.207190
N641	N64	0.933000	0.546180	0.136600
N651	N65	0.979010	0.541370	0.215290
N661	N66	0.021780	0.538090	0.292810
N671	N67	0.567000	0.453820	0.636600
N681	N68	0.520990	0.458630	0.715290
N691	N69	0.478220	0.461910	0.792810
N701	N70	0.433000	0.953820	0.863400
N711	N71	0.479010	0.958630	0.784710
N721	N72	0.521780	0.961910	0.707190
Fe11	Fe1	0.500000	0.000000	0.000000
Fe21	Fe2	0.000000	0.000000	0.500000
Fe31	Fe3	0.500000	0.500000	0.500000
Fe41	Fe4	0.000000	0.500000	0.000000
K11	K1	0.000000	0.000000	0.000000
K21	K2	0.500000	0.000000	0.500000
K31	K3	0.000000	0.500000	0.500000
K41	K4	0.500000	0.500000	0.000000
