data_ROQFUA05_freeONLY_PM
_symmetry_space_group_name_H-M	'P1'
_cell_length_a	13.240000
_cell_length_b	13.240000
_cell_length_c	13.240000
_cell_angle_alpha	90.000000
_cell_angle_beta	90.000000
_cell_angle_gamma	90.000000
_symmetry_Int_Tables_number 1

loop_
_symmetry_equiv_pos_as_xyz
'x,y,z'

loop_
_atom_site_label
_atom_site_type_symbol
_atom_site_fract_x
_atom_site_fract_y
_atom_site_fract_z
N11	N1	0.636990	0.936960	0.955810
N21	N2	0.715690	0.980820	0.962360
N31	N3	0.792400	0.020400	0.966300
N41	N4	0.863010	0.063040	0.455810
N51	N5	0.784310	0.019180	0.462360
N61	N6	0.707600	0.979600	0.466300
N71	N7	0.363010	0.436960	0.544190
N81	N8	0.284310	0.480820	0.537640
N91	N9	0.207600	0.520400	0.533700
N101	N10	0.136990	0.563040	0.044190
N111	N11	0.215690	0.519180	0.037640
N121	N12	0.292400	0.479600	0.033700
N131	N13	0.955810	0.636990	0.936960
N141	N14	0.962360	0.715690	0.980820
N151	N15	0.966300	0.792400	0.020400
N161	N16	0.455810	0.863010	0.063040
N171	N17	0.462360	0.784310	0.019180
N181	N18	0.466300	0.707600	0.979600
N191	N19	0.544190	0.363010	0.436960
N201	N20	0.537640	0.284310	0.480820
N211	N21	0.533700	0.207600	0.520400
N221	N22	0.044190	0.136990	0.563040
N231	N23	0.037640	0.215690	0.519180
N241	N24	0.033700	0.292400	0.479600
N251	N25	0.936960	0.955810	0.636990
N261	N26	0.980820	0.962360	0.715690
N271	N27	0.020400	0.966300	0.792400
N281	N28	0.063040	0.455810	0.863010
N291	N29	0.019180	0.462360	0.784310
N301	N30	0.979600	0.466300	0.707600
N311	N31	0.436960	0.544190	0.363010
N321	N32	0.480820	0.537640	0.284310
N331	N33	0.520400	0.533700	0.207600
N341	N34	0.563040	0.044190	0.136990
N351	N35	0.519180	0.037640	0.215690
N361	N36	0.479600	0.033700	0.292400
N371	N37	0.363010	0.063040	0.044190
N381	N38	0.284310	0.019180	0.037640
N391	N39	0.207600	0.979600	0.033700
N401	N40	0.136990	0.936960	0.544190
N411	N41	0.215690	0.980820	0.537640
N421	N42	0.292400	0.020400	0.533700
N431	N43	0.636990	0.563040	0.455810
N441	N44	0.715690	0.519180	0.462360
N451	N45	0.792400	0.479600	0.466300
N461	N46	0.863010	0.436960	0.955810
N471	N47	0.784310	0.480820	0.962360
N481	N48	0.707600	0.520400	0.966300
N491	N49	0.044190	0.363010	0.063040
N501	N50	0.037640	0.284310	0.019180
N511	N51	0.033700	0.207600	0.979600
N521	N52	0.544190	0.136990	0.936960
N531	N53	0.537640	0.215690	0.980820
N541	N54	0.533700	0.292400	0.020400
N551	N55	0.455810	0.636990	0.563040
N561	N56	0.462360	0.715690	0.519180
N571	N57	0.466300	0.792400	0.479600
N581	N58	0.955810	0.863010	0.436960
N591	N59	0.962360	0.784310	0.480820
N601	N60	0.966300	0.707600	0.520400
N611	N61	0.063040	0.044190	0.363010
N621	N62	0.019180	0.037640	0.284310
N631	N63	0.979600	0.033700	0.207600
N641	N64	0.936960	0.544190	0.136990
N651	N65	0.980820	0.537640	0.215690
N661	N66	0.020400	0.533700	0.292400
N671	N67	0.563040	0.455810	0.636990
N681	N68	0.519180	0.462360	0.715690
N691	N69	0.479600	0.466300	0.792400
N701	N70	0.436960	0.955810	0.863010
N711	N71	0.480820	0.962360	0.784310
N721	N72	0.520400	0.966300	0.707600
Fe11	Fe1	0.500000	0.000000	0.000000
Fe21	Fe2	0.000000	0.000000	0.500000
Fe31	Fe3	0.500000	0.500000	0.500000
Fe41	Fe4	0.000000	0.500000	0.000000
K11	K1	0.000000	0.000000	0.000000
K21	K2	0.500000	0.000000	0.500000
K31	K3	0.000000	0.500000	0.500000
K41	K4	0.500000	0.500000	0.000000
