data_ROQMER_freeONLY_PM
_symmetry_space_group_name_H-M	'P1'
_cell_length_a	12.746000
_cell_length_b	12.746000
_cell_length_c	12.746000
_cell_angle_alpha	90.000000
_cell_angle_beta	90.000000
_cell_angle_gamma	90.000000
_symmetry_Int_Tables_number 1

loop_
_symmetry_equiv_pos_as_xyz
'x,y,z'

loop_
_atom_site_label
_atom_site_type_symbol
_atom_site_fract_x
_atom_site_fract_y
_atom_site_fract_z
N11	N1	0.061870	0.044180	0.358930
N21	N2	0.020080	0.035110	0.275750
N31	N3	0.983160	0.029540	0.192690
N41	N4	0.438130	0.955820	0.858930
N51	N5	0.479920	0.964890	0.775750
N61	N6	0.516840	0.970460	0.692690
N71	N7	0.938130	0.544180	0.141070
N81	N8	0.979920	0.535110	0.224250
N91	N9	0.016840	0.529540	0.307310
N101	N10	0.561870	0.455820	0.641070
N111	N11	0.520080	0.464890	0.724250
N121	N12	0.483160	0.470460	0.807310
N131	N13	0.358930	0.061870	0.044180
N141	N14	0.275750	0.020080	0.035110
N151	N15	0.192690	0.983160	0.029540
N161	N16	0.858930	0.438130	0.955820
N171	N17	0.775750	0.479920	0.964890
N181	N18	0.692690	0.516840	0.970460
N191	N19	0.141070	0.938130	0.544180
N201	N20	0.224250	0.979920	0.535110
N211	N21	0.307310	0.016840	0.529540
N221	N22	0.641070	0.561870	0.455820
N231	N23	0.724250	0.520080	0.464890
N241	N24	0.807310	0.483160	0.470460
N251	N25	0.044180	0.358930	0.061870
N261	N26	0.035110	0.275750	0.020080
N271	N27	0.029540	0.192690	0.983160
N281	N28	0.955820	0.858930	0.438130
N291	N29	0.964890	0.775750	0.479920
N301	N30	0.970460	0.692690	0.516840
N311	N31	0.544180	0.141070	0.938130
N321	N32	0.535110	0.224250	0.979920
N331	N33	0.529540	0.307310	0.016840
N341	N34	0.455820	0.641070	0.561870
N351	N35	0.464890	0.724250	0.520080
N361	N36	0.470460	0.807310	0.483160
N371	N37	0.938130	0.955820	0.641070
N381	N38	0.979920	0.964890	0.724250
N391	N39	0.016840	0.970460	0.807310
N401	N40	0.561870	0.044180	0.141070
N411	N41	0.520080	0.035110	0.224250
N421	N42	0.483160	0.029540	0.307310
N431	N43	0.061870	0.455820	0.858930
N441	N44	0.020080	0.464890	0.775750
N451	N45	0.983160	0.470460	0.692690
N461	N46	0.438130	0.544180	0.358930
N471	N47	0.479920	0.535110	0.275750
N481	N48	0.516840	0.529540	0.192690
N491	N49	0.641070	0.938130	0.955820
N501	N50	0.724250	0.979920	0.964890
N511	N51	0.807310	0.016840	0.970460
N521	N52	0.141070	0.561870	0.044180
N531	N53	0.224250	0.520080	0.035110
N541	N54	0.307310	0.483160	0.029540
N551	N55	0.858930	0.061870	0.455820
N561	N56	0.775750	0.020080	0.464890
N571	N57	0.692690	0.983160	0.470460
N581	N58	0.358930	0.438130	0.544180
N591	N59	0.275750	0.479920	0.535110
N601	N60	0.192690	0.516840	0.529540
N611	N61	0.955820	0.641070	0.938130
N621	N62	0.964890	0.724250	0.979920
N631	N63	0.970460	0.807310	0.016840
N641	N64	0.044180	0.141070	0.561870
N651	N65	0.035110	0.224250	0.520080
N661	N66	0.029540	0.307310	0.483160
N671	N67	0.455820	0.858930	0.061870
N681	N68	0.464890	0.775750	0.020080
N691	N69	0.470460	0.692690	0.983160
N701	N70	0.544180	0.358930	0.438130
N711	N71	0.535110	0.275750	0.479920
N721	N72	0.529540	0.192690	0.516840
Cr11	Cr1	0.000000	0.000000	0.500000
Cr21	Cr2	0.500000	0.000000	0.000000
Cr31	Cr3	0.000000	0.500000	0.000000
Cr41	Cr4	0.500000	0.500000	0.500000
Na11	Na1	0.000000	0.000000	0.000000
Na21	Na2	0.500000	0.000000	0.500000
Na31	Na3	0.000000	0.500000	0.500000
Na41	Na4	0.500000	0.500000	0.000000
