data_ROQNES_freeONLY_PM
_symmetry_space_group_name_H-M	'P1'
_cell_length_a	13.048400
_cell_length_b	13.048400
_cell_length_c	13.048400
_cell_angle_alpha	90.000000
_cell_angle_beta	90.000000
_cell_angle_gamma	90.000000
_symmetry_Int_Tables_number 1

loop_
_symmetry_equiv_pos_as_xyz
'x,y,z'

loop_
_atom_site_label
_atom_site_type_symbol
_atom_site_fract_x
_atom_site_fract_y
_atom_site_fract_z
N11	N1	0.434160	0.454780	0.134900
N21	N2	0.479620	0.459460	0.214050
N31	N3	0.520980	0.462140	0.292800
N41	N4	0.065840	0.545220	0.634900
N51	N5	0.020380	0.540540	0.714050
N61	N6	0.979020	0.537860	0.792800
N71	N7	0.565840	0.954780	0.365100
N81	N8	0.520380	0.959460	0.285950
N91	N9	0.479020	0.962140	0.207200
N101	N10	0.934160	0.045220	0.865100
N111	N11	0.979620	0.040540	0.785950
N121	N12	0.020980	0.037860	0.707200
N131	N13	0.134900	0.434160	0.454780
N141	N14	0.214050	0.479620	0.459460
N151	N15	0.292800	0.520980	0.462140
N161	N16	0.634900	0.065840	0.545220
N171	N17	0.714050	0.020380	0.540540
N181	N18	0.792800	0.979020	0.537860
N191	N19	0.365100	0.565840	0.954780
N201	N20	0.285950	0.520380	0.959460
N211	N21	0.207200	0.479020	0.962140
N221	N22	0.865100	0.934160	0.045220
N231	N23	0.785950	0.979620	0.040540
N241	N24	0.707200	0.020980	0.037860
N251	N25	0.454780	0.134900	0.434160
N261	N26	0.459460	0.214050	0.479620
N271	N27	0.462140	0.292800	0.520980
N281	N28	0.545220	0.634900	0.065840
N291	N29	0.540540	0.714050	0.020380
N301	N30	0.537860	0.792800	0.979020
N311	N31	0.954780	0.365100	0.565840
N321	N32	0.959460	0.285950	0.520380
N331	N33	0.962140	0.207200	0.479020
N341	N34	0.045220	0.865100	0.934160
N351	N35	0.040540	0.785950	0.979620
N361	N36	0.037860	0.707200	0.020980
N371	N37	0.565840	0.545220	0.865100
N381	N38	0.520380	0.540540	0.785950
N391	N39	0.479020	0.537860	0.707200
N401	N40	0.934160	0.454780	0.365100
N411	N41	0.979620	0.459460	0.285950
N421	N42	0.020980	0.462140	0.207200
N431	N43	0.434160	0.045220	0.634900
N441	N44	0.479620	0.040540	0.714050
N451	N45	0.520980	0.037860	0.792800
N461	N46	0.065840	0.954780	0.134900
N471	N47	0.020380	0.959460	0.214050
N481	N48	0.979020	0.962140	0.292800
N491	N49	0.865100	0.565840	0.545220
N501	N50	0.785950	0.520380	0.540540
N511	N51	0.707200	0.479020	0.537860
N521	N52	0.365100	0.934160	0.454780
N531	N53	0.285950	0.979620	0.459460
N541	N54	0.207200	0.020980	0.462140
N551	N55	0.634900	0.434160	0.045220
N561	N56	0.714050	0.479620	0.040540
N571	N57	0.792800	0.520980	0.037860
N581	N58	0.134900	0.065840	0.954780
N591	N59	0.214050	0.020380	0.959460
N601	N60	0.292800	0.979020	0.962140
N611	N61	0.545220	0.865100	0.565840
N621	N62	0.540540	0.785950	0.520380
N631	N63	0.537860	0.707200	0.479020
N641	N64	0.454780	0.365100	0.934160
N651	N65	0.459460	0.285950	0.979620
N661	N66	0.462140	0.207200	0.020980
N671	N67	0.045220	0.634900	0.434160
N681	N68	0.040540	0.714050	0.479620
N691	N69	0.037860	0.792800	0.520980
N701	N70	0.954780	0.134900	0.065840
N711	N71	0.959460	0.214050	0.020380
N721	N72	0.962140	0.292800	0.979020
Cr11	Cr1	0.500000	0.500000	0.000000
Cr21	Cr2	0.000000	0.500000	0.500000
Cr31	Cr3	0.500000	0.000000	0.500000
Cr41	Cr4	0.000000	0.000000	0.000000
K11	K1	0.500000	0.500000	0.500000
K21	K2	0.000000	0.500000	0.000000
K31	K3	0.500000	0.000000	0.000000
K41	K4	0.000000	0.000000	0.500000
