data_ROQNES04_freeONLY_PM
_symmetry_space_group_name_H-M	'P1'
_cell_length_a	13.164200
_cell_length_b	13.164200
_cell_length_c	13.164200
_cell_angle_alpha	90.000000
_cell_angle_beta	90.000000
_cell_angle_gamma	90.000000
_symmetry_Int_Tables_number 1

loop_
_symmetry_equiv_pos_as_xyz
'x,y,z'

loop_
_atom_site_label
_atom_site_type_symbol
_atom_site_fract_x
_atom_site_fract_y
_atom_site_fract_z
N11	N1	0.438400	0.457500	0.135300
N21	N2	0.482200	0.464400	0.214400
N31	N3	0.518500	0.468300	0.292200
N41	N4	0.061600	0.542500	0.635300
N51	N5	0.017800	0.535600	0.714400
N61	N6	0.981500	0.531700	0.792200
N71	N7	0.561600	0.957500	0.364700
N81	N8	0.517800	0.964400	0.285600
N91	N9	0.481500	0.968300	0.207800
N101	N10	0.938400	0.042500	0.864700
N111	N11	0.982200	0.035600	0.785600
N121	N12	0.018500	0.031700	0.707800
N131	N13	0.135300	0.438400	0.457500
N141	N14	0.214400	0.482200	0.464400
N151	N15	0.292200	0.518500	0.468300
N161	N16	0.635300	0.061600	0.542500
N171	N17	0.714400	0.017800	0.535600
N181	N18	0.792200	0.981500	0.531700
N191	N19	0.364700	0.561600	0.957500
N201	N20	0.285600	0.517800	0.964400
N211	N21	0.207800	0.481500	0.968300
N221	N22	0.864700	0.938400	0.042500
N231	N23	0.785600	0.982200	0.035600
N241	N24	0.707800	0.018500	0.031700
N251	N25	0.457500	0.135300	0.438400
N261	N26	0.464400	0.214400	0.482200
N271	N27	0.468300	0.292200	0.518500
N281	N28	0.542500	0.635300	0.061600
N291	N29	0.535600	0.714400	0.017800
N301	N30	0.531700	0.792200	0.981500
N311	N31	0.957500	0.364700	0.561600
N321	N32	0.964400	0.285600	0.517800
N331	N33	0.968300	0.207800	0.481500
N341	N34	0.042500	0.864700	0.938400
N351	N35	0.035600	0.785600	0.982200
N361	N36	0.031700	0.707800	0.018500
N371	N37	0.561600	0.542500	0.864700
N381	N38	0.517800	0.535600	0.785600
N391	N39	0.481500	0.531700	0.707800
N401	N40	0.938400	0.457500	0.364700
N411	N41	0.982200	0.464400	0.285600
N421	N42	0.018500	0.468300	0.207800
N431	N43	0.438400	0.042500	0.635300
N441	N44	0.482200	0.035600	0.714400
N451	N45	0.518500	0.031700	0.792200
N461	N46	0.061600	0.957500	0.135300
N471	N47	0.017800	0.964400	0.214400
N481	N48	0.981500	0.968300	0.292200
N491	N49	0.864700	0.561600	0.542500
N501	N50	0.785600	0.517800	0.535600
N511	N51	0.707800	0.481500	0.531700
N521	N52	0.364700	0.938400	0.457500
N531	N53	0.285600	0.982200	0.464400
N541	N54	0.207800	0.018500	0.468300
N551	N55	0.635300	0.438400	0.042500
N561	N56	0.714400	0.482200	0.035600
N571	N57	0.792200	0.518500	0.031700
N581	N58	0.135300	0.061600	0.957500
N591	N59	0.214400	0.017800	0.964400
N601	N60	0.292200	0.981500	0.968300
N611	N61	0.542500	0.864700	0.561600
N621	N62	0.535600	0.785600	0.517800
N631	N63	0.531700	0.707800	0.481500
N641	N64	0.457500	0.364700	0.938400
N651	N65	0.464400	0.285600	0.982200
N661	N66	0.468300	0.207800	0.018500
N671	N67	0.042500	0.635300	0.438400
N681	N68	0.035600	0.714400	0.482200
N691	N69	0.031700	0.792200	0.518500
N701	N70	0.957500	0.135300	0.061600
N711	N71	0.964400	0.214400	0.017800
N721	N72	0.968300	0.292200	0.981500
Cr11	Cr1	0.500000	0.500000	0.000000
Cr21	Cr2	0.000000	0.500000	0.500000
Cr31	Cr3	0.500000	0.000000	0.500000
Cr41	Cr4	0.000000	0.000000	0.000000
K11	K1	0.500000	0.500000	0.500000
K21	K2	0.000000	0.500000	0.000000
K31	K3	0.500000	0.000000	0.000000
K41	K4	0.000000	0.000000	0.500000
