data_RORLIV_freeONLY_PM
_symmetry_space_group_name_H-M	'P1'
_cell_length_a	8.869400
_cell_length_b	17.827000
_cell_length_c	9.406200
_cell_angle_alpha	90.000000
_cell_angle_beta	107.250000
_cell_angle_gamma	90.000000
_symmetry_Int_Tables_number 1

loop_
_symmetry_equiv_pos_as_xyz
'x,y,z'

loop_
_atom_site_label
_atom_site_type_symbol
_atom_site_fract_x
_atom_site_fract_y
_atom_site_fract_z
Cd11	Cd1	0.422820	0.572940	0.849540
Cl11	Cl1	0.697920	0.514160	0.987700
N11	N1	0.456300	0.668320	0.022900
N21	N2	0.493600	0.770580	0.200700
N31	N3	0.677800	0.874200	0.228000
N41	N4	0.377400	0.484350	0.660800
N51	N5	0.335200	0.381700	0.487800
N61	N6	0.458200	0.353080	0.296700
C11	C1	0.479000	0.717070	0.103800
C21	C2	0.593700	0.824070	0.210300
C31	C3	0.367200	0.437610	0.578800
C41	C4	0.404900	0.369660	0.387800
Cd21	Cd2	0.077180	0.072940	0.650460
Cl21	Cl2	0.802080	0.014160	0.512300
N71	N7	0.043700	0.168320	0.477100
N81	N8	0.006400	0.270580	0.299300
N91	N9	0.822200	0.374200	0.272000
N101	N10	0.122600	0.984350	0.839200
N111	N11	0.164800	0.881700	0.012200
N121	N12	0.041800	0.853080	0.203300
C51	C5	0.021000	0.217070	0.396200
C61	C6	0.906300	0.324070	0.289700
C71	C7	0.132800	0.937610	0.921200
C81	C8	0.095100	0.869660	0.112200
Cd31	Cd3	0.577180	0.427060	0.150460
Cl31	Cl3	0.302080	0.485840	0.012300
N131	N13	0.543700	0.331680	0.977100
N141	N14	0.506400	0.229420	0.799300
N151	N15	0.322200	0.125800	0.772000
N161	N16	0.622600	0.515650	0.339200
N171	N17	0.664800	0.618300	0.512200
N181	N18	0.541800	0.646920	0.703300
C91	C9	0.521000	0.282930	0.896200
C101	C10	0.406300	0.175930	0.789700
C111	C11	0.632800	0.562390	0.421200
C121	C12	0.595100	0.630340	0.612200
Cd41	Cd4	0.922820	0.927060	0.349540
Cl41	Cl4	0.197920	0.985840	0.487700
N191	N19	0.956300	0.831680	0.522900
N201	N20	0.993600	0.729420	0.700700
N211	N21	0.177800	0.625800	0.728000
N221	N22	0.877400	0.015650	0.160800
N231	N23	0.835200	0.118300	0.987800
N241	N24	0.958200	0.146920	0.796700
C131	C13	0.979000	0.782930	0.603800
C141	C14	0.093700	0.675930	0.710300
C151	C15	0.867200	0.062390	0.078800
C161	C16	0.904900	0.130340	0.887800
