data_ROYJUM_freeONLY_PM
_symmetry_space_group_name_H-M	'P1'
_cell_length_a	16.744600
_cell_length_b	16.744600
_cell_length_c	15.196400
_cell_angle_alpha	90.000000
_cell_angle_beta	90.000000
_cell_angle_gamma	120.000000
_symmetry_Int_Tables_number 1

loop_
_symmetry_equiv_pos_as_xyz
'x,y,z'

loop_
_atom_site_label
_atom_site_type_symbol
_atom_site_fract_x
_atom_site_fract_y
_atom_site_fract_z
O11	O1	0.478000	0.824300	0.346000
C11	C1	0.411900	0.963800	0.469800
N11	N1	0.321200	0.930600	0.443000
H11	H1	0.296400	0.886500	0.405300
H21	H2	0.289900	0.954200	0.464100
O21	O2	0.175700	0.653700	0.346000
C21	C2	0.036200	0.448100	0.469800
N21	N2	0.069400	0.390600	0.443000
H31	H3	0.113500	0.409900	0.405300
H41	H4	0.045800	0.335700	0.464100
O31	O3	0.346300	0.522000	0.346000
C31	C3	0.551900	0.588100	0.469800
N31	N3	0.609400	0.678800	0.443000
H51	H5	0.590100	0.703600	0.405300
H61	H6	0.664300	0.710100	0.464100
O41	O4	0.522000	0.175700	0.846000
C41	C4	0.588100	0.036200	0.969800
N41	N4	0.678800	0.069400	0.943000
H71	H7	0.703600	0.113500	0.905300
H81	H8	0.710100	0.045800	0.964100
O51	O5	0.824300	0.346300	0.846000
C51	C5	0.963800	0.551900	0.969800
N51	N5	0.930600	0.609400	0.943000
H91	H9	0.886500	0.590100	0.905300
H101	H10	0.954200	0.664300	0.964100
O61	O6	0.653700	0.478000	0.846000
C61	C6	0.448100	0.411900	0.969800
N61	N6	0.390600	0.321200	0.943000
H111	H11	0.409900	0.296400	0.905300
H121	H12	0.335700	0.289900	0.964100
O71	O7	0.824300	0.478000	0.654000
C71	C7	0.963800	0.411900	0.530200
N71	N7	0.930600	0.321200	0.557000
H131	H13	0.886500	0.296400	0.594700
H141	H14	0.954200	0.289900	0.535900
O81	O8	0.653700	0.175700	0.654000
C81	C8	0.448100	0.036200	0.530200
N81	N8	0.390600	0.069400	0.557000
H151	H15	0.409900	0.113500	0.594700
H161	H16	0.335700	0.045800	0.535900
O91	O9	0.522000	0.346300	0.654000
C91	C9	0.588100	0.551900	0.530200
N91	N9	0.678800	0.609400	0.557000
H171	H17	0.703600	0.590100	0.594700
H181	H18	0.710100	0.664300	0.535900
O101	O10	0.175700	0.522000	0.154000
C101	C10	0.036200	0.588100	0.030200
N101	N10	0.069400	0.678800	0.057000
H191	H19	0.113500	0.703600	0.094700
H201	H20	0.045800	0.710100	0.035900
O111	O11	0.346300	0.824300	0.154000
C111	C11	0.551900	0.963800	0.030200
N111	N11	0.609400	0.930600	0.057000
H211	H21	0.590100	0.886500	0.094700
H221	H22	0.664300	0.954200	0.035900
O121	O12	0.478000	0.653700	0.154000
C121	C12	0.411900	0.448100	0.030200
N121	N12	0.321200	0.390600	0.057000
H231	H23	0.296400	0.409900	0.094700
H241	H24	0.289900	0.335700	0.035900
O131	O13	0.522000	0.175700	0.654000
C131	C13	0.588100	0.036200	0.530200
N131	N13	0.678800	0.069400	0.557000
H251	H25	0.703600	0.113500	0.594700
H261	H26	0.710100	0.045800	0.535900
O141	O14	0.824300	0.346300	0.654000
C141	C14	0.963800	0.551900	0.530200
N141	N14	0.930600	0.609400	0.557000
H271	H27	0.886500	0.590100	0.594700
H281	H28	0.954200	0.664300	0.535900
O151	O15	0.653700	0.478000	0.654000
C151	C15	0.448100	0.411900	0.530200
N151	N15	0.390600	0.321200	0.557000
H291	H29	0.409900	0.296400	0.594700
H301	H30	0.335700	0.289900	0.535900
O161	O16	0.478000	0.824300	0.154000
C161	C16	0.411900	0.963800	0.030200
N161	N16	0.321200	0.930600	0.057000
H311	H31	0.296400	0.886500	0.094700
H321	H32	0.289900	0.954200	0.035900
O171	O17	0.175700	0.653700	0.154000
C171	C17	0.036200	0.448100	0.030200
N171	N17	0.069400	0.390600	0.057000
H331	H33	0.113500	0.409900	0.094700
H341	H34	0.045800	0.335700	0.035900
O181	O18	0.346300	0.522000	0.154000
C181	C18	0.551900	0.588100	0.030200
N181	N18	0.609400	0.678800	0.057000
H351	H35	0.590100	0.703600	0.094700
H361	H36	0.664300	0.710100	0.035900
O191	O19	0.175700	0.522000	0.346000
C191	C19	0.036200	0.588100	0.469800
N191	N19	0.069400	0.678800	0.443000
H371	H37	0.113500	0.703600	0.405300
H381	H38	0.045800	0.710100	0.464100
O201	O20	0.346300	0.824300	0.346000
C201	C20	0.551900	0.963800	0.469800
N201	N20	0.609400	0.930600	0.443000
H391	H39	0.590100	0.886500	0.405300
H401	H40	0.664300	0.954200	0.464100
O211	O21	0.478000	0.653700	0.346000
C211	C21	0.411900	0.448100	0.469800
N211	N21	0.321200	0.390600	0.443000
H411	H41	0.296400	0.409900	0.405300
H421	H42	0.289900	0.335700	0.464100
O221	O22	0.824300	0.478000	0.846000
C221	C22	0.963800	0.411900	0.969800
N221	N22	0.930600	0.321200	0.943000
H431	H43	0.886500	0.296400	0.905300
H441	H44	0.954200	0.289900	0.964100
O231	O23	0.653700	0.175700	0.846000
C231	C23	0.448100	0.036200	0.969800
N231	N23	0.390600	0.069400	0.943000
H451	H45	0.409900	0.113500	0.905300
H461	H46	0.335700	0.045800	0.964100
O241	O24	0.522000	0.346300	0.846000
C241	C24	0.588100	0.551900	0.969800
N241	N24	0.678800	0.609400	0.943000
H471	H47	0.703600	0.590100	0.905300
H481	H48	0.710100	0.664300	0.964100
Ni11	Ni1	0.470550	0.735280	0.250000
N251	N25	0.615600	0.807800	0.250000
C251	C25	0.910300	0.955150	0.250000
C261	C26	0.806900	0.903450	0.250000
Ni21	Ni2	0.264720	0.735280	0.250000
N261	N26	0.192200	0.807800	0.250000
C271	C27	0.044850	0.955150	0.250000
C281	C28	0.096550	0.903450	0.250000
Ni31	Ni3	0.264720	0.529450	0.250000
N271	N27	0.192200	0.384400	0.250000
C291	C29	0.044850	0.089700	0.250000
C301	C30	0.096550	0.193100	0.250000
Ni41	Ni4	0.529450	0.264720	0.750000
N281	N28	0.384400	0.192200	0.750000
C311	C31	0.089700	0.044850	0.750000
C321	C32	0.193100	0.096550	0.750000
Ni51	Ni5	0.735280	0.264720	0.750000
N291	N29	0.807800	0.192200	0.750000
C331	C33	0.955150	0.044850	0.750000
C341	C34	0.903450	0.096550	0.750000
Ni61	Ni6	0.735280	0.470550	0.750000
N301	N30	0.807800	0.615600	0.750000
C351	C35	0.955150	0.910300	0.750000
C361	C36	0.903450	0.806900	0.750000
O251	O25	0.333330	0.666670	0.250000
O261	O26	0.666670	0.333330	0.750000
C371	C37	0.426550	0.853100	0.371300
C381	C38	0.464200	0.928400	0.438000
C391	C39	0.146900	0.573450	0.371300
C401	C40	0.071600	0.535800	0.438000
C411	C41	0.426550	0.573450	0.371300
C421	C42	0.464200	0.535800	0.438000
C431	C43	0.573450	0.146900	0.871300
C441	C44	0.535800	0.071600	0.938000
C451	C45	0.853100	0.426550	0.871300
C461	C46	0.928400	0.464200	0.938000
C471	C47	0.573450	0.426550	0.871300
C481	C48	0.535800	0.464200	0.938000
C491	C49	0.853100	0.426550	0.628700
C501	C50	0.928400	0.464200	0.562000
C511	C51	0.573450	0.146900	0.628700
C521	C52	0.535800	0.071600	0.562000
C531	C53	0.573450	0.426550	0.628700
C541	C54	0.535800	0.464200	0.562000
C551	C55	0.146900	0.573450	0.128700
C561	C56	0.071600	0.535800	0.062000
C571	C57	0.426550	0.853100	0.128700
C581	C58	0.464200	0.928400	0.062000
C591	C59	0.426550	0.573450	0.128700
C601	C60	0.464200	0.535800	0.062000
N311	N31	0.953200	0.046800	0.250000
N321	N32	0.953200	0.906400	0.250000
N331	N33	0.093600	0.046800	0.250000
N341	N34	0.046800	0.953200	0.750000
N351	N35	0.046800	0.093600	0.750000
N361	N36	0.906400	0.953200	0.750000
C611	C61	0.759100	0.949600	0.250000
H491	H49	0.790200	0.013700	0.250000
C621	C62	0.664500	0.900100	0.250000
H501	H50	0.632700	0.932400	0.250000
C631	C63	0.050400	0.809500	0.250000
H511	H51	0.986300	0.776500	0.250000
C641	C64	0.099900	0.764400	0.250000
H521	H52	0.067600	0.700300	0.250000
C651	C65	0.190500	0.240900	0.250000
H531	H53	0.223500	0.209800	0.250000
C661	C66	0.235600	0.335500	0.250000
H541	H54	0.299700	0.367300	0.250000
C671	C67	0.240900	0.050400	0.750000
H551	H55	0.209800	0.986300	0.750000
C681	C68	0.335500	0.099900	0.750000
H561	H56	0.367300	0.067600	0.750000
C691	C69	0.949600	0.190500	0.750000
H571	H57	0.013700	0.223500	0.750000
C701	C70	0.900100	0.235600	0.750000
H581	H58	0.932400	0.299700	0.750000
C711	C71	0.809500	0.759100	0.750000
H591	H59	0.776500	0.790200	0.750000
C721	C72	0.764400	0.664500	0.750000
H601	H60	0.700300	0.632700	0.750000
C731	C73	0.949600	0.759100	0.750000
H611	H61	0.013700	0.790200	0.750000
C741	C74	0.900100	0.664500	0.750000
H621	H62	0.932400	0.632700	0.750000
C751	C75	0.809500	0.050400	0.750000
H631	H63	0.776500	0.986300	0.750000
C761	C76	0.764400	0.099900	0.750000
H641	H64	0.700300	0.067600	0.750000
C771	C77	0.240900	0.190500	0.750000
H651	H65	0.209800	0.223500	0.750000
C781	C78	0.335500	0.235600	0.750000
H661	H66	0.367300	0.299700	0.750000
C791	C79	0.050400	0.240900	0.250000
H671	H67	0.986300	0.209800	0.250000
C801	C80	0.099900	0.335500	0.250000
H681	H68	0.067600	0.367300	0.250000
C811	C81	0.190500	0.949600	0.250000
H691	H69	0.223500	0.013700	0.250000
C821	C82	0.235600	0.900100	0.250000
H701	H70	0.299700	0.932400	0.250000
C831	C83	0.759100	0.809500	0.250000
H711	H71	0.790200	0.776500	0.250000
C841	C84	0.664500	0.764400	0.250000
H721	H72	0.632700	0.700300	0.250000
