data_RUCGOM_freeONLY_PM
_symmetry_space_group_name_H-M	'P1'
_cell_length_a	12.458000
_cell_length_b	12.458000
_cell_length_c	24.673000
_cell_angle_alpha	90.000000
_cell_angle_beta	90.000000
_cell_angle_gamma	120.000000
_symmetry_Int_Tables_number 1

loop_
_symmetry_equiv_pos_as_xyz
'x,y,z'

loop_
_atom_site_label
_atom_site_type_symbol
_atom_site_fract_x
_atom_site_fract_y
_atom_site_fract_z
Zn11	Zn1	0.000000	0.000000	0.666670
Zn21	Zn2	0.000000	0.000000	0.333330
Zn31	Zn3	0.000000	0.000000	0.000000
H11	H1	0.352200	0.077100	0.755300
H21	H2	0.328300	0.025100	0.699600
H31	H3	0.233000	0.891300	0.795000
H41	H4	0.133600	0.665700	0.794500
H51	H5	0.118500	0.590900	0.739600
H61	H6	0.037200	0.656000	0.749200
H71	H7	0.207100	0.705700	0.652400
H81	H8	0.270800	0.853500	0.651500
H91	H9	0.123700	0.769600	0.658000
H101	H10	0.724900	0.647800	0.421970
H111	H11	0.696800	0.671700	0.366270
H121	H12	0.658300	0.767000	0.461670
H131	H13	0.532100	0.866400	0.461170
H141	H14	0.472400	0.881500	0.406270
H151	H15	0.618800	0.962800	0.415870
H161	H16	0.498600	0.792900	0.319070
H171	H17	0.582700	0.729200	0.318170
H181	H18	0.645900	0.876300	0.324670
H191	H19	0.922900	0.275100	0.088630
H201	H20	0.974900	0.303200	0.032930
H211	H21	0.108700	0.341700	0.128330
H221	H22	0.334300	0.467900	0.127830
H231	H23	0.409100	0.527600	0.072930
H241	H24	0.344000	0.381200	0.082530
H251	H25	0.294300	0.501400	0.985730
H261	H26	0.146500	0.417300	0.984830
H271	H27	0.230400	0.354100	0.991330
H281	H28	0.647800	0.922900	0.755300
H291	H29	0.671700	0.974900	0.699600
H301	H30	0.767000	0.108700	0.795000
H311	H31	0.866400	0.334300	0.794500
H321	H32	0.881500	0.409100	0.739600
H331	H33	0.962800	0.344000	0.749200
H341	H34	0.792900	0.294300	0.652400
H351	H35	0.729200	0.146500	0.651500
H361	H36	0.876300	0.230400	0.658000
H371	H37	0.275100	0.352200	0.421970
H381	H38	0.303200	0.328300	0.366270
H391	H39	0.341700	0.233000	0.461670
H401	H40	0.467900	0.133600	0.461170
H411	H41	0.527600	0.118500	0.406270
H421	H42	0.381200	0.037200	0.415870
H431	H43	0.501400	0.207100	0.319070
H441	H44	0.417300	0.270800	0.318170
H451	H45	0.354100	0.123700	0.324670
H461	H46	0.077100	0.724900	0.088630
H471	H47	0.025100	0.696800	0.032930
H481	H48	0.891300	0.658300	0.128330
H491	H49	0.665700	0.532100	0.127830
H501	H50	0.590900	0.472400	0.072930
H511	H51	0.656000	0.618800	0.082530
H521	H52	0.705700	0.498600	0.985730
H531	H53	0.853500	0.582700	0.984830
H541	H54	0.769600	0.645900	0.991330
H551	H55	0.275100	0.922900	0.911370
H561	H56	0.303200	0.974900	0.967070
H571	H57	0.341700	0.108700	0.871670
H581	H58	0.467900	0.334300	0.872170
H591	H59	0.527600	0.409100	0.927070
H601	H60	0.381200	0.344000	0.917470
H611	H61	0.501400	0.294300	0.014270
H621	H62	0.417300	0.146500	0.015170
H631	H63	0.354100	0.230400	0.008670
H641	H64	0.077100	0.352200	0.244700
H651	H65	0.025100	0.328300	0.300400
H661	H66	0.891300	0.233000	0.205000
H671	H67	0.665700	0.133600	0.205500
H681	H68	0.590900	0.118500	0.260400
H691	H69	0.656000	0.037200	0.250800
H701	H70	0.705700	0.207100	0.347600
H711	H71	0.853500	0.270800	0.348500
H721	H72	0.769600	0.123700	0.342000
H731	H73	0.647800	0.724900	0.578030
H741	H74	0.671700	0.696800	0.633730
H751	H75	0.767000	0.658300	0.538330
H761	H76	0.866400	0.532100	0.538830
H771	H77	0.881500	0.472400	0.593730
H781	H78	0.962800	0.618800	0.584130
H791	H79	0.792900	0.498600	0.680930
H801	H80	0.729200	0.582700	0.681830
H811	H81	0.876300	0.645900	0.675330
H821	H82	0.724900	0.077100	0.911370
H831	H83	0.696800	0.025100	0.967070
H841	H84	0.658300	0.891300	0.871670
H851	H85	0.532100	0.665700	0.872170
H861	H86	0.472400	0.590900	0.927070
H871	H87	0.618800	0.656000	0.917470
H881	H88	0.498600	0.705700	0.014270
H891	H89	0.582700	0.853500	0.015170
H901	H90	0.645900	0.769600	0.008670
H911	H91	0.922900	0.647800	0.244700
H921	H92	0.974900	0.671700	0.300400
H931	H93	0.108700	0.767000	0.205000
H941	H94	0.334300	0.866400	0.205500
H951	H95	0.409100	0.881500	0.260400
H961	H96	0.344000	0.962800	0.250800
H971	H97	0.294300	0.792900	0.347600
H981	H98	0.146500	0.729200	0.348500
H991	H99	0.230400	0.876300	0.342000
H1001	H100	0.352200	0.275100	0.578030
H1011	H101	0.328300	0.303200	0.633730
H1021	H102	0.233000	0.341700	0.538330
H1031	H103	0.133600	0.467900	0.538830
H1041	H104	0.118500	0.527600	0.593730
H1051	H105	0.037200	0.381200	0.584130
H1061	H106	0.207100	0.501400	0.680930
H1071	H107	0.270800	0.417300	0.681830
H1081	H108	0.123700	0.354100	0.675330
Pt11	Pt1	0.500000	0.000000	0.738340
Pt21	Pt2	0.500000	0.500000	0.405010
Pt31	Pt3	0.000000	0.500000	0.071670
Pt41	Pt4	0.500000	0.000000	0.928330
Pt51	Pt5	0.000000	0.500000	0.261660
Pt61	Pt6	0.500000	0.500000	0.594990
Au11	Au1	0.393110	0.786220	0.833330
Au21	Au2	0.393110	0.606900	0.500000
Au31	Au3	0.213790	0.606900	0.166670
Au41	Au4	0.606890	0.213780	0.833330
Au51	Au5	0.606890	0.393100	0.500000
Au61	Au6	0.786210	0.393100	0.166670
C11	C1	0.218300	0.780100	0.729200
C21	C2	0.227400	0.896400	0.754700
C31	C3	0.118100	0.662900	0.755500
C41	C4	0.203600	0.776900	0.667100
C51	C5	0.112400	0.906400	0.741000
C61	C6	0.561800	0.781700	0.395870
C71	C7	0.669000	0.772600	0.421370
C81	C8	0.544800	0.881900	0.422170
C91	C9	0.573300	0.796400	0.333770
C101	C10	0.794000	0.887600	0.407670
C111	C11	0.219900	0.438200	0.062530
C121	C12	0.103600	0.331000	0.088030
C131	C13	0.337100	0.455200	0.088830
C141	C14	0.223100	0.426700	0.000430
C151	C15	0.093600	0.206000	0.074330
C161	C16	0.781700	0.219900	0.729200
C171	C17	0.772600	0.103600	0.754700
C181	C18	0.881900	0.337100	0.755500
C191	C19	0.796400	0.223100	0.667100
C201	C20	0.887600	0.093600	0.741000
C211	C21	0.438200	0.218300	0.395870
C221	C22	0.331000	0.227400	0.421370
C231	C23	0.455200	0.118100	0.422170
C241	C24	0.426700	0.203600	0.333770
C251	C25	0.206000	0.112400	0.407670
C261	C26	0.780100	0.561800	0.062530
C271	C27	0.896400	0.669000	0.088030
C281	C28	0.662900	0.544800	0.088830
C291	C29	0.776900	0.573300	0.000430
C301	C30	0.906400	0.794000	0.074330
C311	C31	0.438200	0.219900	0.937470
C321	C32	0.331000	0.103600	0.911970
C331	C33	0.455200	0.337100	0.911170
C341	C34	0.426700	0.223100	0.999570
C351	C35	0.206000	0.093600	0.925670
C361	C36	0.780100	0.218300	0.270800
C371	C37	0.896400	0.227400	0.245300
C381	C38	0.662900	0.118100	0.244500
C391	C39	0.776900	0.203600	0.332900
C401	C40	0.906400	0.112400	0.259000
C411	C41	0.781700	0.561800	0.604130
C421	C42	0.772600	0.669000	0.578630
C431	C43	0.881900	0.544800	0.577830
C441	C44	0.796400	0.573300	0.666230
C451	C45	0.887600	0.794000	0.592330
C461	C46	0.561800	0.780100	0.937470
C471	C47	0.669000	0.896400	0.911970
C481	C48	0.544800	0.662900	0.911170
C491	C49	0.573300	0.776900	0.999570
C501	C50	0.794000	0.906400	0.925670
C511	C51	0.219900	0.781700	0.270800
C521	C52	0.103600	0.772600	0.245300
C531	C53	0.337100	0.881900	0.244500
C541	C54	0.223100	0.796400	0.332900
C551	C55	0.093600	0.887600	0.259000
C561	C56	0.218300	0.438200	0.604130
C571	C57	0.227400	0.331000	0.578630
C581	C58	0.118100	0.455200	0.577830
C591	C59	0.203600	0.426700	0.666230
C601	C60	0.112400	0.206000	0.592330
S11	S1	0.370510	0.788420	0.741100
S21	S2	0.417910	0.629490	0.407770
S31	S3	0.211580	0.582090	0.074430
S41	S4	0.629490	0.211580	0.741100
S51	S5	0.582090	0.370510	0.407770
S61	S6	0.788420	0.417910	0.074430
S71	S7	0.582090	0.211580	0.925570
S81	S8	0.788420	0.370510	0.258900
S91	S9	0.629490	0.417910	0.592230
S101	S10	0.417910	0.788420	0.925570
S111	S11	0.211580	0.629490	0.258900
S121	S12	0.370510	0.582090	0.592230
N11	N1	0.341200	0.010600	0.734900
N21	N2	0.669400	0.658800	0.401570
N31	N3	0.989400	0.330600	0.068230
N41	N4	0.658800	0.989400	0.734900
N51	N5	0.330600	0.341200	0.401570
N61	N6	0.010600	0.669400	0.068230
N71	N7	0.330600	0.989400	0.931770
N81	N8	0.010600	0.341200	0.265100
N91	N9	0.658800	0.669400	0.598430
N101	N10	0.669400	0.010600	0.931770
N111	N11	0.989400	0.658800	0.265100
N121	N12	0.341200	0.330600	0.598430
O11	O1	0.124400	0.972000	0.699400
O21	O2	0.018800	0.849400	0.768500
O31	O3	0.847600	0.875600	0.366070
O41	O4	0.830600	0.981200	0.435170
O51	O5	0.028000	0.152400	0.032730
O61	O6	0.150600	0.169400	0.101830
O71	O7	0.875600	0.028000	0.699400
O81	O8	0.981200	0.150600	0.768500
O91	O9	0.152400	0.124400	0.366070
O101	O10	0.169400	0.018800	0.435170
O111	O11	0.972000	0.847600	0.032730
O121	O12	0.849400	0.830600	0.101830
O131	O13	0.152400	0.028000	0.967270
O141	O14	0.169400	0.150600	0.898170
O151	O15	0.972000	0.124400	0.300600
O161	O16	0.849400	0.018800	0.231500
O171	O17	0.875600	0.847600	0.633930
O181	O18	0.981200	0.830600	0.564830
O191	O19	0.847600	0.972000	0.967270
O201	O20	0.830600	0.849400	0.898170
O211	O21	0.028000	0.875600	0.300600
O221	O22	0.150600	0.981200	0.231500
O231	O23	0.124400	0.152400	0.633930
O241	O24	0.018800	0.169400	0.564830
