data_RUFTET_freeONLY_PM
_symmetry_space_group_name_H-M	'P1'
_cell_length_a	11.340700
_cell_length_b	11.384700
_cell_length_c	13.190800
_cell_angle_alpha	88.868000
_cell_angle_beta	69.339000
_cell_angle_gamma	85.726000
_symmetry_Int_Tables_number 1

loop_
_symmetry_equiv_pos_as_xyz
'x,y,z'

loop_
_atom_site_label
_atom_site_type_symbol
_atom_site_fract_x
_atom_site_fract_y
_atom_site_fract_z
Co11	Co1	0.990620	0.116580	0.251750
O11	O1	0.045500	0.976800	0.333000
N11	N1	0.123100	0.886900	0.277000
C11	C1	0.247800	0.886500	0.261200
H11	H1	0.280300	0.946900	0.290200
C21	C2	0.326000	0.793700	0.200700
H21	H2	0.414000	0.791600	0.187900
C31	C3	0.281700	0.706700	0.159700
H31	H3	0.337500	0.644200	0.119100
C41	C4	0.152900	0.709500	0.177400
H41	H4	0.120400	0.648500	0.149200
C51	C5	0.071600	0.801800	0.236600
C61	C6	0.931900	0.806500	0.264100
C71	C7	0.862700	0.719700	0.322700
H51	H5	0.901000	0.658000	0.352700
C81	C8	0.734600	0.722800	0.338100
H61	H6	0.684300	0.662400	0.377500
C91	C9	0.682900	0.813400	0.296000
H71	H7	0.595300	0.817900	0.306600
C101	C10	0.758400	0.899900	0.237200
H81	H8	0.722700	0.962800	0.206400
N21	N2	0.878400	0.895100	0.224200
O21	O2	0.948500	0.980000	0.167800
O31	O3	0.998700	0.817800	0.001100
C111	C11	0.033300	0.741200	0.928000
O41	O4	0.084600	0.759300	0.827700
C121	C12	0.017800	0.615500	0.964300
C131	C13	0.084900	0.522600	0.897500
H91	H9	0.143400	0.537200	0.827200
C141	C14	0.934200	0.592300	0.065600
H101	H10	0.888400	0.656000	0.111500
O51	O5	0.816500	0.007000	0.009600
C151	C15	0.771300	0.957800	0.949300
O61	O6	0.828600	0.893400	0.868400
C161	C16	0.630600	0.977000	0.977300
C171	C17	0.558700	0.056200	0.059700
H111	H11	0.598800	0.094900	0.100500
C181	C18	0.569000	0.921000	0.917500
H121	H12	0.616100	0.867200	0.861100
O71	O7	0.051000	0.241300	0.325500
C191	C19	0.013900	0.259400	0.428100
O81	O8	0.984900	0.183100	0.499500
C201	C20	0.006500	0.385400	0.463900
C211	C21	0.084700	0.465000	0.398500
H131	H13	0.141600	0.442000	0.328400
C221	C22	0.079700	0.579800	0.436100
H141	H14	0.135700	0.634100	0.392700
O91	O9	0.814100	0.003300	0.515100
C231	C23	0.758800	0.050600	0.454100
O101	O10	0.812100	0.111000	0.370500
C241	C24	0.623100	0.027300	0.480300
C251	C25	0.554900	0.084400	0.424600
H151	H15	0.592300	0.142500	0.373000
C261	C26	0.569300	0.941700	0.557000
H161	H16	0.616500	0.902100	0.596000
Co21	Co2	0.009380	0.883420	0.748250
O111	O11	0.954500	0.023200	0.667000
N31	N3	0.876900	0.113100	0.723000
C271	C27	0.752200	0.113500	0.738800
H171	H17	0.719700	0.053100	0.709800
C281	C28	0.674000	0.206300	0.799300
H181	H18	0.586000	0.208400	0.812100
C291	C29	0.718300	0.293300	0.840300
H191	H19	0.662500	0.355800	0.880900
C301	C30	0.847100	0.290500	0.822600
H201	H20	0.879600	0.351500	0.850800
C311	C31	0.928400	0.198200	0.763400
C321	C32	0.068100	0.193500	0.735900
C331	C33	0.137300	0.280300	0.677300
H211	H21	0.099000	0.342000	0.647300
C341	C34	0.265400	0.277200	0.661900
H221	H22	0.315700	0.337600	0.622500
C351	C35	0.317100	0.186600	0.704000
H231	H23	0.404700	0.182100	0.693400
C361	C36	0.241600	0.100100	0.762800
H241	H24	0.277300	0.037200	0.793600
N41	N4	0.121600	0.104900	0.775800
O121	O12	0.051500	0.020000	0.832200
O131	O13	0.001300	0.182200	0.998900
C371	C37	0.966700	0.258800	0.072000
O141	O14	0.915400	0.240700	0.172300
C381	C38	0.982200	0.384500	0.035700
C391	C39	0.915100	0.477400	0.102500
H251	H25	0.856600	0.462800	0.172800
C401	C40	0.065800	0.407700	0.934400
H261	H26	0.111600	0.344000	0.888500
O151	O15	0.183500	0.993000	0.990400
C411	C41	0.228700	0.042200	0.050700
O161	O16	0.171400	0.106600	0.131600
C421	C42	0.369400	0.023000	0.022700
C431	C43	0.441300	0.943800	0.940300
H271	H27	0.401200	0.905100	0.899500
C441	C44	0.431000	0.079000	0.082500
H281	H28	0.383900	0.132800	0.138900
O171	O17	0.949000	0.758700	0.674500
C451	C45	0.986100	0.740600	0.571900
O181	O18	0.015100	0.816900	0.500500
C461	C46	0.993500	0.614600	0.536100
C471	C47	0.915300	0.535000	0.601500
H291	H29	0.858400	0.558000	0.671600
C481	C48	0.920300	0.420200	0.563900
H301	H30	0.864300	0.365900	0.607300
O191	O19	0.185900	0.996700	0.484900
C491	C49	0.241200	0.949400	0.545900
O201	O20	0.187900	0.889000	0.629500
C501	C50	0.376900	0.972700	0.519700
C511	C51	0.445100	0.915600	0.575400
H311	H31	0.407700	0.857500	0.627000
C521	C52	0.430700	0.058300	0.443000
H321	H32	0.383500	0.097900	0.404000
Co31	Co3	0.000000	0.000000	0.500000
Co41	Co4	0.000000	0.000000	0.000000
