data_RUHFIL_freeONLY_PM
_symmetry_space_group_name_H-M	'P1'
_cell_length_a	17.618000
_cell_length_b	17.618000
_cell_length_c	17.618000
_cell_angle_alpha	90.000000
_cell_angle_beta	90.000000
_cell_angle_gamma	90.000000
_symmetry_Int_Tables_number 1

loop_
_symmetry_equiv_pos_as_xyz
'x,y,z'

loop_
_atom_site_label
_atom_site_type_symbol
_atom_site_fract_x
_atom_site_fract_y
_atom_site_fract_z
C11	C1	0.487000	0.259200	0.496900
C21	C2	0.490400	0.234100	0.413200
C31	C3	0.410900	0.208400	0.386400
O11	O1	0.403190	0.141500	0.367200
O21	O2	0.544040	0.177050	0.403560
O31	O3	0.360560	0.257130	0.387400
O41	O4	0.507820	0.299300	0.371200
O51	O5	0.450600	0.319000	0.509400
O61	O6	0.518300	0.218500	0.545700
Cu11	Cu1	0.499980	0.092040	0.349450
C41	C4	0.013000	0.740800	0.996900
C51	C5	0.009600	0.765900	0.913200
C61	C6	0.089100	0.791600	0.886400
O71	O7	0.096810	0.858500	0.867200
O81	O8	0.955960	0.822950	0.903560
O91	O9	0.139440	0.742870	0.887400
O101	O10	0.992180	0.700700	0.871200
O111	O11	0.049400	0.681000	0.009400
O121	O12	0.981700	0.781500	0.045700
Cu21	Cu2	0.000020	0.907960	0.849450
C71	C7	0.513000	0.759200	0.003100
C81	C8	0.509600	0.734100	0.086800
C91	C9	0.589100	0.708400	0.113600
O131	O13	0.596810	0.641500	0.132800
O141	O14	0.455960	0.677050	0.096440
O151	O15	0.639440	0.757130	0.112600
O161	O16	0.492180	0.799300	0.128800
O171	O17	0.549400	0.819000	0.990600
O181	O18	0.481700	0.718500	0.954300
Cu31	Cu3	0.500020	0.592040	0.150550
C101	C10	0.987000	0.240800	0.503100
C111	C11	0.990400	0.265900	0.586800
C121	C12	0.910900	0.291600	0.613600
O191	O19	0.903190	0.358500	0.632800
O201	O20	0.044040	0.322950	0.596440
O211	O21	0.860560	0.242870	0.612600
O221	O22	0.007820	0.200700	0.628800
O231	O23	0.950600	0.181000	0.490600
O241	O24	0.018300	0.281500	0.454300
Cu41	Cu4	0.999980	0.407960	0.650550
C131	C13	0.496900	0.487000	0.259200
C141	C14	0.413200	0.490400	0.234100
C151	C15	0.386400	0.410900	0.208400
O251	O25	0.367200	0.403190	0.141500
O261	O26	0.403560	0.544040	0.177050
O271	O27	0.387400	0.360560	0.257130
O281	O28	0.371200	0.507820	0.299300
O291	O29	0.509400	0.450600	0.319000
O301	O30	0.545700	0.518300	0.218500
Cu51	Cu5	0.349450	0.499980	0.092040
C161	C16	0.996900	0.013000	0.740800
C171	C17	0.913200	0.009600	0.765900
C181	C18	0.886400	0.089100	0.791600
O311	O31	0.867200	0.096810	0.858500
O321	O32	0.903560	0.955960	0.822950
O331	O33	0.887400	0.139440	0.742870
O341	O34	0.871200	0.992180	0.700700
O351	O35	0.009400	0.049400	0.681000
O361	O36	0.045700	0.981700	0.781500
Cu61	Cu6	0.849450	0.000020	0.907960
C191	C19	0.003100	0.513000	0.759200
C201	C20	0.086800	0.509600	0.734100
C211	C21	0.113600	0.589100	0.708400
O371	O37	0.132800	0.596810	0.641500
O381	O38	0.096440	0.455960	0.677050
O391	O39	0.112600	0.639440	0.757130
O401	O40	0.128800	0.492180	0.799300
O411	O41	0.990600	0.549400	0.819000
O421	O42	0.954300	0.481700	0.718500
Cu71	Cu7	0.150550	0.500020	0.592040
C221	C22	0.503100	0.987000	0.240800
C231	C23	0.586800	0.990400	0.265900
C241	C24	0.613600	0.910900	0.291600
O431	O43	0.632800	0.903190	0.358500
O441	O44	0.596440	0.044040	0.322950
O451	O45	0.612600	0.860560	0.242870
O461	O46	0.628800	0.007820	0.200700
O471	O47	0.490600	0.950600	0.181000
O481	O48	0.454300	0.018300	0.281500
Cu81	Cu8	0.650550	0.999980	0.407960
C251	C25	0.259200	0.496900	0.487000
C261	C26	0.234100	0.413200	0.490400
C271	C27	0.208400	0.386400	0.410900
O491	O49	0.141500	0.367200	0.403190
O501	O50	0.177050	0.403560	0.544040
O511	O51	0.257130	0.387400	0.360560
O521	O52	0.299300	0.371200	0.507820
O531	O53	0.319000	0.509400	0.450600
O541	O54	0.218500	0.545700	0.518300
Cu91	Cu9	0.092040	0.349450	0.499980
C281	C28	0.740800	0.996900	0.013000
C291	C29	0.765900	0.913200	0.009600
C301	C30	0.791600	0.886400	0.089100
O551	O55	0.858500	0.867200	0.096810
O561	O56	0.822950	0.903560	0.955960
O571	O57	0.742870	0.887400	0.139440
O581	O58	0.700700	0.871200	0.992180
O591	O59	0.681000	0.009400	0.049400
O601	O60	0.781500	0.045700	0.981700
Cu101	Cu10	0.907960	0.849450	0.000020
C311	C31	0.759200	0.003100	0.513000
C321	C32	0.734100	0.086800	0.509600
C331	C33	0.708400	0.113600	0.589100
O611	O61	0.641500	0.132800	0.596810
O621	O62	0.677050	0.096440	0.455960
O631	O63	0.757130	0.112600	0.639440
O641	O64	0.799300	0.128800	0.492180
O651	O65	0.819000	0.990600	0.549400
O661	O66	0.718500	0.954300	0.481700
Cu111	Cu11	0.592040	0.150550	0.500020
C341	C34	0.240800	0.503100	0.987000
C351	C35	0.265900	0.586800	0.990400
C361	C36	0.291600	0.613600	0.910900
O671	O67	0.358500	0.632800	0.903190
O681	O68	0.322950	0.596440	0.044040
O691	O69	0.242870	0.612600	0.860560
O701	O70	0.200700	0.628800	0.007820
O711	O71	0.181000	0.490600	0.950600
O721	O72	0.281500	0.454300	0.018300
Cu121	Cu12	0.407960	0.650550	0.999980
O731	O73	0.478900	0.478900	0.478900
Ce11	Ce1	0.397260	0.397260	0.397260
O741	O74	0.021100	0.521100	0.978900
Ce21	Ce2	0.102740	0.602740	0.897260
O751	O75	0.521100	0.978900	0.021100
Ce31	Ce3	0.602740	0.897260	0.102740
O761	O76	0.978900	0.021100	0.521100
Ce41	Ce4	0.897260	0.102740	0.602740
