data_RUHFUX_freeONLY_PM
_symmetry_space_group_name_H-M	'P1'
_cell_length_a	17.515400
_cell_length_b	17.515400
_cell_length_c	17.515400
_cell_angle_alpha	90.000000
_cell_angle_beta	90.000000
_cell_angle_gamma	90.000000
_symmetry_Int_Tables_number 1

loop_
_symmetry_equiv_pos_as_xyz
'x,y,z'

loop_
_atom_site_label
_atom_site_type_symbol
_atom_site_fract_x
_atom_site_fract_y
_atom_site_fract_z
C11	C1	0.741800	0.997100	0.014500
C21	C2	0.765300	0.912800	0.008900
C31	C3	0.790900	0.885900	0.090300
O11	O1	0.859300	0.867200	0.097900
O21	O2	0.741000	0.886900	0.140300
O31	O3	0.821800	0.902900	0.955200
O41	O4	0.699300	0.870700	0.992400
O51	O5	0.680200	0.008300	0.049600
O61	O6	0.780100	0.046300	0.981800
Cu11	Cu1	0.907720	0.848750	0.000060
C41	C4	0.758200	0.002900	0.514500
C51	C5	0.734700	0.087200	0.508900
C61	C6	0.709100	0.114100	0.590300
O71	O7	0.640700	0.132800	0.597900
O81	O8	0.759000	0.113100	0.640300
O91	O9	0.678200	0.097100	0.455200
O101	O10	0.800700	0.129300	0.492400
O111	O11	0.819800	0.991700	0.549600
O121	O12	0.719900	0.953700	0.481800
Cu21	Cu2	0.592280	0.151250	0.500060
C71	C7	0.258200	0.497100	0.485500
C81	C8	0.234700	0.412800	0.491100
C91	C9	0.209100	0.385900	0.409700
O131	O13	0.140700	0.367200	0.402100
O141	O14	0.259000	0.386900	0.359700
O151	O15	0.178200	0.402900	0.544800
O161	O16	0.300700	0.370700	0.507600
O171	O17	0.319800	0.508300	0.450400
O181	O18	0.219900	0.546300	0.518200
Cu31	Cu3	0.092280	0.348750	0.499940
C101	C10	0.241800	0.502900	0.985500
C111	C11	0.265300	0.587200	0.991100
C121	C12	0.290900	0.614100	0.909700
O191	O19	0.359300	0.632800	0.902100
O201	O20	0.241000	0.613100	0.859700
O211	O21	0.321800	0.597100	0.044800
O221	O22	0.199300	0.629300	0.007600
O231	O23	0.180200	0.491700	0.950400
O241	O24	0.280100	0.453700	0.018200
Cu41	Cu4	0.407720	0.651250	0.999940
C131	C13	0.014500	0.741800	0.997100
C141	C14	0.008900	0.765300	0.912800
C151	C15	0.090300	0.790900	0.885900
O251	O25	0.097900	0.859300	0.867200
O261	O26	0.140300	0.741000	0.886900
O271	O27	0.955200	0.821800	0.902900
O281	O28	0.992400	0.699300	0.870700
O291	O29	0.049600	0.680200	0.008300
O301	O30	0.981800	0.780100	0.046300
Cu51	Cu5	0.000060	0.907720	0.848750
C161	C16	0.514500	0.758200	0.002900
C171	C17	0.508900	0.734700	0.087200
C181	C18	0.590300	0.709100	0.114100
O311	O31	0.597900	0.640700	0.132800
O321	O32	0.640300	0.759000	0.113100
O331	O33	0.455200	0.678200	0.097100
O341	O34	0.492400	0.800700	0.129300
O351	O35	0.549600	0.819800	0.991700
O361	O36	0.481800	0.719900	0.953700
Cu61	Cu6	0.500060	0.592280	0.151250
C191	C19	0.485500	0.258200	0.497100
C201	C20	0.491100	0.234700	0.412800
C211	C21	0.409700	0.209100	0.385900
O371	O37	0.402100	0.140700	0.367200
O381	O38	0.359700	0.259000	0.386900
O391	O39	0.544800	0.178200	0.402900
O401	O40	0.507600	0.300700	0.370700
O411	O41	0.450400	0.319800	0.508300
O421	O42	0.518200	0.219900	0.546300
Cu71	Cu7	0.499940	0.092280	0.348750
C221	C22	0.985500	0.241800	0.502900
C231	C23	0.991100	0.265300	0.587200
C241	C24	0.909700	0.290900	0.614100
O431	O43	0.902100	0.359300	0.632800
O441	O44	0.859700	0.241000	0.613100
O451	O45	0.044800	0.321800	0.597100
O461	O46	0.007600	0.199300	0.629300
O471	O47	0.950400	0.180200	0.491700
O481	O48	0.018200	0.280100	0.453700
Cu81	Cu8	0.999940	0.407720	0.651250
C251	C25	0.997100	0.014500	0.741800
C261	C26	0.912800	0.008900	0.765300
C271	C27	0.885900	0.090300	0.790900
O491	O49	0.867200	0.097900	0.859300
O501	O50	0.886900	0.140300	0.741000
O511	O51	0.902900	0.955200	0.821800
O521	O52	0.870700	0.992400	0.699300
O531	O53	0.008300	0.049600	0.680200
O541	O54	0.046300	0.981800	0.780100
Cu91	Cu9	0.848750	0.000060	0.907720
C281	C28	0.002900	0.514500	0.758200
C291	C29	0.087200	0.508900	0.734700
C301	C30	0.114100	0.590300	0.709100
O551	O55	0.132800	0.597900	0.640700
O561	O56	0.113100	0.640300	0.759000
O571	O57	0.097100	0.455200	0.678200
O581	O58	0.129300	0.492400	0.800700
O591	O59	0.991700	0.549600	0.819800
O601	O60	0.953700	0.481800	0.719900
Cu101	Cu10	0.151250	0.500060	0.592280
C311	C31	0.497100	0.485500	0.258200
C321	C32	0.412800	0.491100	0.234700
C331	C33	0.385900	0.409700	0.209100
O611	O61	0.367200	0.402100	0.140700
O621	O62	0.386900	0.359700	0.259000
O631	O63	0.402900	0.544800	0.178200
O641	O64	0.370700	0.507600	0.300700
O651	O65	0.508300	0.450400	0.319800
O661	O66	0.546300	0.518200	0.219900
Cu111	Cu11	0.348750	0.499940	0.092280
C341	C34	0.502900	0.985500	0.241800
C351	C35	0.587200	0.991100	0.265300
C361	C36	0.614100	0.909700	0.290900
O671	O67	0.632800	0.902100	0.359300
O681	O68	0.613100	0.859700	0.241000
O691	O69	0.597100	0.044800	0.321800
O701	O70	0.629300	0.007600	0.199300
O711	O71	0.491700	0.950400	0.180200
O721	O72	0.453700	0.018200	0.280100
Cu121	Cu12	0.651250	0.999940	0.407720
O731	O73	0.521300	0.978700	0.021300
Nd11	Nd1	0.603240	0.896760	0.103240
O741	O74	0.978700	0.021300	0.521300
Nd21	Nd2	0.896760	0.103240	0.603240
O751	O75	0.478700	0.478700	0.478700
Nd31	Nd3	0.396760	0.396760	0.396760
O761	O76	0.021300	0.521300	0.978700
Nd41	Nd4	0.103240	0.603240	0.896760
