data_RUMROI_freeONLY_PM
_symmetry_space_group_name_H-M	'P1'
_cell_length_a	13.292800
_cell_length_b	6.570000
_cell_length_c	13.646100
_cell_angle_alpha	90.000000
_cell_angle_beta	119.069000
_cell_angle_gamma	90.000000
_symmetry_Int_Tables_number 1

loop_
_symmetry_equiv_pos_as_xyz
'x,y,z'

loop_
_atom_site_label
_atom_site_type_symbol
_atom_site_fract_x
_atom_site_fract_y
_atom_site_fract_z
Fe11	Fe1	0.247390	0.245480	0.495700
Fe21	Fe2	0.494830	0.591550	0.994510
Zn11	Zn1	0.950270	0.401710	0.996720
F11	F1	0.107600	0.148900	0.486200
F21	F2	0.186800	0.517800	0.464600
F31	F3	0.307700	0.977000	0.523300
F41	F4	0.386700	0.344700	0.503300
F51	F5	0.970100	0.156000	0.922900
F61	F6	0.475800	0.343600	0.071400
N11	N1	0.175500	0.187200	0.318800
N21	N2	0.124600	0.342000	0.243100
N31	N3	0.077100	0.263900	0.143900
N41	N4	0.091900	0.055400	0.149300
N51	N5	0.189200	0.826900	0.301300
H11	H1	0.174000	0.724300	0.257200
H21	H2	0.228000	0.810000	0.372800
C11	C1	0.152500	0.013800	0.258600
N61	N6	0.803100	0.356400	0.001300
N71	N7	0.737800	0.515500	0.999600
N81	N8	0.649000	0.444900	0.005000
N91	N9	0.651900	0.239700	0.009100
N101	N10	0.784300	0.991200	0.012400
H31	H3	0.745200	0.892600	0.018700
H41	H4	0.846600	0.966300	0.010100
C21	C2	0.747000	0.189300	0.006100
N111	N11	0.315200	0.304300	0.668200
N121	N12	0.354700	0.152500	0.744700
N131	N13	0.403300	0.233000	0.844100
N141	N14	0.399100	0.437400	0.838800
N151	N15	0.318300	0.669800	0.683500
H51	H5	0.338100	0.774500	0.726700
H61	H6	0.282500	0.685300	0.611900
C31	C3	0.343500	0.480200	0.728300
Zn21	Zn2	0.505170	0.091550	0.005490
Fe31	Fe3	0.752610	0.745480	0.504300
Zn31	Zn3	0.049730	0.901710	0.003280
F71	F7	0.892400	0.648900	0.513800
F81	F8	0.813200	0.017800	0.535400
F91	F9	0.692300	0.477000	0.476700
F101	F10	0.613300	0.844700	0.496700
F111	F11	0.029900	0.656000	0.077100
F121	F12	0.524200	0.843600	0.928600
N161	N16	0.824500	0.687200	0.681200
N171	N17	0.875400	0.842000	0.756900
N181	N18	0.922900	0.763900	0.856100
N191	N19	0.908100	0.555400	0.850700
N201	N20	0.810800	0.326900	0.698700
H71	H7	0.826000	0.224300	0.742800
H81	H8	0.772000	0.310000	0.627200
C41	C4	0.847500	0.513800	0.741400
N211	N21	0.196900	0.856400	0.998700
N221	N22	0.262200	0.015500	0.000400
N231	N23	0.351000	0.944900	0.995000
N241	N24	0.348100	0.739700	0.990900
N251	N25	0.215700	0.491200	0.987600
H91	H9	0.254800	0.392600	0.981300
H101	H10	0.153400	0.466300	0.989900
C51	C5	0.253000	0.689300	0.993900
N261	N26	0.684800	0.804300	0.331800
N271	N27	0.645300	0.652500	0.255300
N281	N28	0.596700	0.733000	0.155900
N291	N29	0.600900	0.937400	0.161200
N301	N30	0.681700	0.169800	0.316500
H111	H11	0.661900	0.274500	0.273300
H121	H12	0.717500	0.185300	0.388100
C61	C6	0.656500	0.980200	0.271700
