data_RUPTED_freeONLY_PM
_symmetry_space_group_name_H-M	'P1'
_cell_length_a	7.668100
_cell_length_b	31.909000
_cell_length_c	15.426800
_cell_angle_alpha	90.000000
_cell_angle_beta	90.000000
_cell_angle_gamma	90.000000
_symmetry_Int_Tables_number 1

loop_
_symmetry_equiv_pos_as_xyz
'x,y,z'

loop_
_atom_site_label
_atom_site_type_symbol
_atom_site_fract_x
_atom_site_fract_y
_atom_site_fract_z
Cu11	Cu1	0.085710	0.061920	0.326110
Cu21	Cu2	0.078300	0.034220	0.029950
Cu31	Cu3	0.249110	0.229110	0.873330
I11	I1	0.262070	0.023770	0.450580
I21	I2	0.255450	0.047870	0.178880
C11	C1	0.483400	0.169500	0.929600
C21	C2	0.305500	0.148600	0.935500
C31	C3	0.280300	0.108100	0.964900
H11	H1	0.375800	0.092400	0.983000
C41	C4	0.987900	0.114200	0.939200
H21	H2	0.876300	0.102800	0.938800
C51	C5	0.012500	0.155000	0.910200
H31	H3	0.917000	0.170600	0.891600
C61	C6	0.486700	0.205700	0.360900
C71	C7	0.310700	0.185100	0.359900
C81	C8	0.286200	0.142000	0.350300
H41	H4	0.382500	0.124400	0.345400
C91	C9	0.990900	0.152400	0.358100
H51	H5	0.878100	0.141600	0.358400
C101	C10	0.013900	0.195040	0.367900
H61	H6	0.917300	0.212400	0.374400
N11	N1	0.120900	0.091120	0.967700
N21	N2	0.171200	0.172260	0.908800
N31	N3	0.126100	0.125760	0.348100
N41	N4	0.174300	0.211590	0.368100
O11	O1	0.478900	0.207150	0.899300
O21	O2	0.255100	0.218700	0.730900
H71	H7	0.253600	0.192600	0.720400
H81	H8	0.348900	0.228900	0.710300
O31	O3	0.612200	0.151150	0.954600
O41	O4	0.618900	0.184900	0.355500
O51	O5	0.483400	0.246000	0.365900
Cu41	Cu4	0.414290	0.438080	0.826110
Cu51	Cu5	0.421700	0.465780	0.529950
Cu61	Cu6	0.250890	0.270890	0.373330
I31	I3	0.237930	0.476230	0.950580
I41	I4	0.244550	0.452130	0.678880
C111	C11	0.016600	0.330500	0.429600
C121	C12	0.194500	0.351400	0.435500
C131	C13	0.219700	0.391900	0.464900
H91	H9	0.124200	0.407600	0.483000
C141	C14	0.512100	0.385800	0.439200
H101	H10	0.623700	0.397200	0.438800
C151	C15	0.487500	0.345000	0.410200
H111	H11	0.583000	0.329400	0.391600
C161	C16	0.013300	0.294300	0.860900
C171	C17	0.189300	0.314900	0.859900
C181	C18	0.213800	0.358000	0.850300
H121	H12	0.117500	0.375600	0.845400
C191	C19	0.509100	0.347600	0.858100
H131	H13	0.621900	0.358400	0.858400
C201	C20	0.486100	0.304960	0.867900
H141	H14	0.582700	0.287600	0.874400
N51	N5	0.379100	0.408880	0.467700
N61	N6	0.328800	0.327740	0.408800
N71	N7	0.373900	0.374240	0.848100
N81	N8	0.325700	0.288410	0.868100
O61	O6	0.021100	0.292850	0.399300
O71	O7	0.244900	0.281300	0.230900
H151	H15	0.246400	0.307400	0.220400
H161	H16	0.151100	0.271100	0.210300
O81	O8	0.887800	0.348850	0.454600
O91	O9	0.881100	0.315100	0.855500
O101	O10	0.016600	0.254000	0.865900
Cu71	Cu7	0.914290	0.061920	0.173890
Cu81	Cu8	0.921700	0.034220	0.470050
Cu91	Cu9	0.750890	0.229110	0.626670
I51	I5	0.737930	0.023770	0.049420
I61	I6	0.744550	0.047870	0.321120
C211	C21	0.516600	0.169500	0.570400
C221	C22	0.694500	0.148600	0.564500
C231	C23	0.719700	0.108100	0.535100
H171	H17	0.624200	0.092400	0.517000
C241	C24	0.012100	0.114200	0.560800
H181	H18	0.123700	0.102800	0.561200
C251	C25	0.987500	0.155000	0.589800
H191	H19	0.083000	0.170600	0.608400
C261	C26	0.513300	0.205700	0.139100
C271	C27	0.689300	0.185100	0.140100
C281	C28	0.713800	0.142000	0.149700
H201	H20	0.617500	0.124400	0.154600
C291	C29	0.009100	0.152400	0.141900
H211	H21	0.121900	0.141600	0.141600
C301	C30	0.986100	0.195040	0.132100
H221	H22	0.082700	0.212400	0.125600
N91	N9	0.879100	0.091120	0.532300
N101	N10	0.828800	0.172260	0.591200
N111	N11	0.873900	0.125760	0.151900
N121	N12	0.825700	0.211590	0.131900
O111	O11	0.521100	0.207150	0.600700
O121	O12	0.744900	0.218700	0.769100
H231	H23	0.746400	0.192600	0.779600
H241	H24	0.651100	0.228900	0.789700
O131	O13	0.387800	0.151150	0.545400
O141	O14	0.381100	0.184900	0.144500
O151	O15	0.516600	0.246000	0.134100
Cu101	Cu10	0.585710	0.438080	0.673890
Cu111	Cu11	0.578300	0.465780	0.970050
Cu121	Cu12	0.749110	0.270890	0.126670
I71	I7	0.762070	0.476230	0.549420
I81	I8	0.755450	0.452130	0.821120
C311	C31	0.983400	0.330500	0.070400
C321	C32	0.805500	0.351400	0.064500
C331	C33	0.780300	0.391900	0.035100
H251	H25	0.875800	0.407600	0.017000
C341	C34	0.487900	0.385800	0.060800
H261	H26	0.376300	0.397200	0.061200
C351	C35	0.512500	0.345000	0.089800
H271	H27	0.417000	0.329400	0.108400
C361	C36	0.986700	0.294300	0.639100
C371	C37	0.810700	0.314900	0.640100
C381	C38	0.786200	0.358000	0.649700
H281	H28	0.882500	0.375600	0.654600
C391	C39	0.490900	0.347600	0.641900
H291	H29	0.378100	0.358400	0.641600
C401	C40	0.513900	0.304960	0.632100
H301	H30	0.417300	0.287600	0.625600
N131	N13	0.620900	0.408880	0.032300
N141	N14	0.671200	0.327740	0.091200
N151	N15	0.626100	0.374240	0.651900
N161	N16	0.674300	0.288410	0.631900
O161	O16	0.978900	0.292850	0.100700
O171	O17	0.755100	0.281300	0.269100
H311	H31	0.753600	0.307400	0.279600
H321	H32	0.848900	0.271100	0.289700
O181	O18	0.112200	0.348850	0.045400
O191	O19	0.118900	0.315100	0.644500
O201	O20	0.983400	0.254000	0.634100
Cu131	Cu13	0.914290	0.938080	0.673890
Cu141	Cu14	0.921700	0.965780	0.970050
Cu151	Cu15	0.750890	0.770890	0.126670
I91	I9	0.737930	0.976230	0.549420
I101	I10	0.744550	0.952130	0.821120
C411	C41	0.516600	0.830500	0.070400
C421	C42	0.694500	0.851400	0.064500
C431	C43	0.719700	0.891900	0.035100
H331	H33	0.624200	0.907600	0.017000
C441	C44	0.012100	0.885800	0.060800
H341	H34	0.123700	0.897200	0.061200
C451	C45	0.987500	0.845000	0.089800
H351	H35	0.083000	0.829400	0.108400
C461	C46	0.513300	0.794300	0.639100
C471	C47	0.689300	0.814900	0.640100
C481	C48	0.713800	0.858000	0.649700
H361	H36	0.617500	0.875600	0.654600
C491	C49	0.009100	0.847600	0.641900
H371	H37	0.121900	0.858400	0.641600
C501	C50	0.986100	0.804960	0.632100
H381	H38	0.082700	0.787600	0.625600
N171	N17	0.879100	0.908880	0.032300
N181	N18	0.828800	0.827740	0.091200
N191	N19	0.873900	0.874240	0.651900
N201	N20	0.825700	0.788410	0.631900
O211	O21	0.521100	0.792850	0.100700
O221	O22	0.744900	0.781300	0.269100
H391	H39	0.746400	0.807400	0.279600
H401	H40	0.651100	0.771100	0.289700
O231	O23	0.387800	0.848850	0.045400
O241	O24	0.381100	0.815100	0.644500
O251	O25	0.516600	0.754000	0.634100
Cu161	Cu16	0.585710	0.561920	0.173890
Cu171	Cu17	0.578300	0.534220	0.470050
Cu181	Cu18	0.749110	0.729110	0.626670
I111	I11	0.762070	0.523770	0.049420
I121	I12	0.755450	0.547870	0.321120
C511	C51	0.983400	0.669500	0.570400
C521	C52	0.805500	0.648600	0.564500
C531	C53	0.780300	0.608100	0.535100
H411	H41	0.875800	0.592400	0.517000
C541	C54	0.487900	0.614200	0.560800
H421	H42	0.376300	0.602800	0.561200
C551	C55	0.512500	0.655000	0.589800
H431	H43	0.417000	0.670600	0.608400
C561	C56	0.986700	0.705700	0.139100
C571	C57	0.810700	0.685100	0.140100
C581	C58	0.786200	0.642000	0.149700
H441	H44	0.882500	0.624400	0.154600
C591	C59	0.490900	0.652400	0.141900
H451	H45	0.378100	0.641600	0.141600
C601	C60	0.513900	0.695040	0.132100
H461	H46	0.417300	0.712400	0.125600
N211	N21	0.620900	0.591120	0.532300
N221	N22	0.671200	0.672260	0.591200
N231	N23	0.626100	0.625760	0.151900
N241	N24	0.674300	0.711590	0.131900
O261	O26	0.978900	0.707150	0.600700
O271	O27	0.755100	0.718700	0.769100
H471	H47	0.753600	0.692600	0.779600
H481	H48	0.848900	0.728900	0.789700
O281	O28	0.112200	0.651150	0.545400
O291	O29	0.118900	0.684900	0.144500
O301	O30	0.983400	0.746000	0.134100
Cu191	Cu19	0.085710	0.938080	0.826110
Cu201	Cu20	0.078300	0.965780	0.529950
Cu211	Cu21	0.249110	0.770890	0.373330
I131	I13	0.262070	0.976230	0.950580
I141	I14	0.255450	0.952130	0.678880
C611	C61	0.483400	0.830500	0.429600
C621	C62	0.305500	0.851400	0.435500
C631	C63	0.280300	0.891900	0.464900
H491	H49	0.375800	0.907600	0.483000
C641	C64	0.987900	0.885800	0.439200
H501	H50	0.876300	0.897200	0.438800
C651	C65	0.012500	0.845000	0.410200
H511	H51	0.917000	0.829400	0.391600
C661	C66	0.486700	0.794300	0.860900
C671	C67	0.310700	0.814900	0.859900
C681	C68	0.286200	0.858000	0.850300
H521	H52	0.382500	0.875600	0.845400
C691	C69	0.990900	0.847600	0.858100
H531	H53	0.878100	0.858400	0.858400
C701	C70	0.013900	0.804960	0.867900
H541	H54	0.917300	0.787600	0.874400
N251	N25	0.120900	0.908880	0.467700
N261	N26	0.171200	0.827740	0.408800
N271	N27	0.126100	0.874240	0.848100
N281	N28	0.174300	0.788410	0.868100
O311	O31	0.478900	0.792850	0.399300
O321	O32	0.255100	0.781300	0.230900
H551	H55	0.253600	0.807400	0.220400
H561	H56	0.348900	0.771100	0.210300
O331	O33	0.612200	0.848850	0.454600
O341	O34	0.618900	0.815100	0.855500
O351	O35	0.483400	0.754000	0.865900
Cu221	Cu22	0.414290	0.561920	0.326110
Cu231	Cu23	0.421700	0.534220	0.029950
Cu241	Cu24	0.250890	0.729110	0.873330
I151	I15	0.237930	0.523770	0.450580
I161	I16	0.244550	0.547870	0.178880
C711	C71	0.016600	0.669500	0.929600
C721	C72	0.194500	0.648600	0.935500
C731	C73	0.219700	0.608100	0.964900
H571	H57	0.124200	0.592400	0.983000
C741	C74	0.512100	0.614200	0.939200
H581	H58	0.623700	0.602800	0.938800
C751	C75	0.487500	0.655000	0.910200
H591	H59	0.583000	0.670600	0.891600
C761	C76	0.013300	0.705700	0.360900
C771	C77	0.189300	0.685100	0.359900
C781	C78	0.213800	0.642000	0.350300
H601	H60	0.117500	0.624400	0.345400
C791	C79	0.509100	0.652400	0.358100
H611	H61	0.621900	0.641600	0.358400
C801	C80	0.486100	0.695040	0.367900
H621	H62	0.582700	0.712400	0.374400
N291	N29	0.379100	0.591120	0.967700
N301	N30	0.328800	0.672260	0.908800
N311	N31	0.373900	0.625760	0.348100
N321	N32	0.325700	0.711590	0.368100
O361	O36	0.021100	0.707150	0.899300
O371	O37	0.244900	0.718700	0.730900
H631	H63	0.246400	0.692600	0.720400
H641	H64	0.151100	0.728900	0.710300
O381	O38	0.887800	0.651150	0.954600
O391	O39	0.881100	0.684900	0.355500
O401	O40	0.016600	0.746000	0.365900
