data_RURPAW_freeONLY_PM
_symmetry_space_group_name_H-M	'P1'
_cell_length_a	6.737000
_cell_length_b	7.122000
_cell_length_c	7.175000
_cell_angle_alpha	90.000000
_cell_angle_beta	90.000000
_cell_angle_gamma	90.000000
_symmetry_Int_Tables_number 1

loop_
_symmetry_equiv_pos_as_xyz
'x,y,z'

loop_
_atom_site_label
_atom_site_type_symbol
_atom_site_fract_x
_atom_site_fract_y
_atom_site_fract_z
Pt11	Pt1	0.500000	0.500000	0.500000
Fe11	Fe1	0.500000	0.000000	0.000000
N11	N1	0.500000	0.191300	0.810100
C11	C1	0.500000	0.303700	0.695200
N21	N2	0.500000	0.808700	0.810100
C21	C2	0.500000	0.696300	0.695200
N31	N3	0.500000	0.191300	0.189900
C31	C3	0.500000	0.303700	0.304800
N41	N4	0.500000	0.808700	0.189900
C41	C4	0.500000	0.696300	0.304800
N51	N5	0.207400	0.000000	0.000000
N61	N6	0.792600	0.000000	0.000000
C51	C5	0.102000	0.840800	0.000000
H11	H1	0.170400	0.724200	0.000000
C61	C6	0.898000	0.159200	0.000000
H21	H2	0.829600	0.275800	0.000000
C71	C7	0.898000	0.840800	0.000000
H31	H3	0.829600	0.724200	0.000000
C81	C8	0.102000	0.159200	0.000000
H41	H4	0.170400	0.275800	0.000000
