data_RUTNOK_manual_PM
_symmetry_space_group_name_H-M	'P1'
_cell_length_a	30.352200
_cell_length_b	30.352200
_cell_length_c	30.352200
_cell_angle_alpha	60.000000
_cell_angle_beta	60.000000
_cell_angle_gamma	60.000000
_symmetry_Int_Tables_number 1

loop_
_symmetry_equiv_pos_as_xyz
'x,y,z'

loop_
_atom_site_label
_atom_site_type_symbol
_atom_site_fract_x
_atom_site_fract_y
_atom_site_fract_z
Zn11	Zn1	0.223830	0.328510	0.223830
Zn21	Zn2	0.328510	0.223830	0.223830
Zn31	Zn3	0.223830	0.223830	0.223830
Zn41	Zn4	0.223830	0.223830	0.328510
Zn51	Zn5	0.671490	0.776170	0.776170
Zn61	Zn6	0.776170	0.671490	0.776170
Zn71	Zn7	0.776170	0.776170	0.776170
Zn81	Zn8	0.776170	0.776170	0.671490
H91	H9	0.958630	0.397450	0.180120
H101	H10	0.464390	0.957660	0.397460
H111	H11	0.966820	0.177040	0.457910
H121	H12	0.408020	0.438210	0.171080
H131	H13	0.181310	0.397580	0.465640
H141	H14	0.401590	0.975650	0.173720
H151	H15	0.539420	0.798970	0.097000
H161	H16	0.585480	0.528020	0.081830
H171	H17	0.810570	0.066130	0.527120
H181	H18	0.576770	0.801630	0.531680
H191	H19	0.830000	0.569290	0.014450
H201	H20	0.802900	0.529750	0.086540
H211	H21	0.809670	0.594910	0.068540
H221	H22	0.527490	0.811490	0.597330
H231	H23	0.589700	0.829450	0.564940
H241	H24	0.802250	0.088290	0.578810
H251	H25	0.829750	0.015120	0.588030
H261	H26	0.526810	0.591390	0.074290
H271	H27	0.581660	0.574550	0.013400
H281	H28	0.035300	0.540390	0.602150
H291	H29	0.034400	0.602000	0.541100
H301	H30	0.099830	0.551560	0.550700
H311	H31	0.552780	0.826820	0.022910
H321	H32	0.601760	0.816780	0.049620
H331	H33	0.174510	0.451460	0.400470
H341	H34	0.201620	0.457010	0.439940
H351	H35	0.467150	0.952550	0.182410
H361	H36	0.437310	0.902270	0.201300
H371	H37	0.900210	0.202080	0.450450
H381	H38	0.963440	0.178310	0.397690
H391	H39	0.426260	0.466650	0.199190
H401	H40	0.471760	0.401180	0.187170
H411	H41	0.900770	0.454550	0.201870
H421	H42	0.971080	0.454050	0.175440
H431	H43	0.399730	0.971860	0.453260
H441	H44	0.441930	0.900950	0.455320
H451	H45	0.127950	0.301040	0.127950
H461	H46	0.069130	0.362350	0.069130
H471	H47	0.301040	0.127950	0.443060
H481	H48	0.357910	0.071660	0.498770
H491	H49	0.127950	0.443060	0.127950
H501	H50	0.071660	0.498770	0.071660
H511	H51	0.443060	0.127950	0.301040
H521	H52	0.498770	0.071660	0.357910
H531	H53	0.127950	0.127950	0.443060
H541	H54	0.069130	0.069130	0.499390
H551	H55	0.301040	0.443060	0.127950
H561	H56	0.357910	0.498770	0.071660
H571	H57	0.127950	0.127950	0.301040
H581	H58	0.069130	0.069130	0.362350
H591	H59	0.443060	0.301040	0.127950
H601	H60	0.498770	0.357910	0.071660
H611	H61	0.127950	0.443060	0.301040
H621	H62	0.071660	0.498770	0.357910
H631	H63	0.301040	0.127950	0.127950
H641	H64	0.357910	0.071660	0.071660
H651	H65	0.127950	0.301040	0.443060
H661	H66	0.069130	0.362350	0.499390
H671	H67	0.443060	0.127950	0.127950
H681	H68	0.498770	0.071660	0.071660
H691	H69	0.698960	0.872050	0.872050
H701	H70	0.642090	0.928340	0.928340
H711	H71	0.872050	0.698960	0.556940
H721	H72	0.928340	0.642090	0.501230
H731	H73	0.556940	0.872050	0.872050
H741	H74	0.500610	0.930870	0.930870
H751	H75	0.872050	0.556940	0.698960
H761	H76	0.928340	0.501230	0.642090
H771	H77	0.872050	0.872050	0.556940
H781	H78	0.930870	0.930870	0.500610
H791	H79	0.556940	0.698960	0.872050
H801	H80	0.501230	0.642090	0.928340
H811	H81	0.872050	0.872050	0.698960
H821	H82	0.928340	0.928340	0.642090
H831	H83	0.698960	0.556940	0.872050
H841	H84	0.642090	0.501230	0.928340
H851	H85	0.556940	0.872050	0.698960
H861	H86	0.501230	0.928340	0.642090
H871	H87	0.872050	0.698960	0.872050
H881	H88	0.928340	0.642090	0.928340
H891	H89	0.698960	0.872050	0.556940
H901	H90	0.642090	0.928340	0.501230
H911	H91	0.872050	0.556940	0.872050
H921	H92	0.930870	0.500610	0.930870
H931	H93	0.850070	0.496660	0.156600
H941	H94	0.496660	0.850070	0.496660
H951	H95	0.850070	0.156600	0.496660
H961	H96	0.496660	0.496660	0.156600
H971	H97	0.156600	0.496660	0.496660
H981	H98	0.496660	0.850070	0.156600
C991	C99	0.166300	0.333700	0.166300
C1001	C100	0.133600	0.366400	0.133600
C1011	C101	0.064900	0.435100	0.064900
C1021	C102	0.032800	0.467200	0.032800
C1031	C103	0.333700	0.166300	0.333700
C1041	C104	0.366400	0.133600	0.366400
C1051	C105	0.435100	0.064900	0.435100
C1061	C106	0.467200	0.032800	0.467200
C1071	C107	0.166300	0.166300	0.333700
C1081	C108	0.133600	0.133600	0.366400
C1091	C109	0.064900	0.064900	0.435100
C1101	C110	0.032800	0.032800	0.467200
C1111	C111	0.333700	0.333700	0.166300
C1121	C112	0.366400	0.366400	0.133600
C1131	C113	0.435100	0.435100	0.064900
C1141	C114	0.467200	0.467200	0.032800
C1151	C115	0.166300	0.333700	0.333700
C1161	C116	0.133600	0.366400	0.366400
C1171	C117	0.064900	0.435100	0.435100
C1181	C118	0.032800	0.467200	0.467200
C1191	C119	0.333700	0.166300	0.166300
C1201	C120	0.366400	0.133600	0.133600
C1211	C121	0.435100	0.064900	0.064900
C1221	C122	0.467200	0.032800	0.032800
C1231	C123	0.666300	0.833700	0.833700
C1241	C124	0.633600	0.866400	0.866400
C1251	C125	0.564900	0.935100	0.935100
C1261	C126	0.532800	0.967200	0.967200
C1271	C127	0.833700	0.666300	0.666300
C1281	C128	0.866400	0.633600	0.633600
C1291	C129	0.935100	0.564900	0.564900
C1301	C130	0.967200	0.532800	0.532800
C1311	C131	0.833700	0.833700	0.666300
C1321	C132	0.866400	0.866400	0.633600
C1331	C133	0.935100	0.935100	0.564900
C1341	C134	0.967200	0.967200	0.532800
C1351	C135	0.666300	0.666300	0.833700
C1361	C136	0.633600	0.633600	0.866400
C1371	C137	0.564900	0.564900	0.935100
C1381	C138	0.532800	0.532800	0.967200
C1391	C139	0.666300	0.833700	0.666300
C1401	C140	0.633600	0.866400	0.633600
C1411	C141	0.564900	0.935100	0.564900
C1421	C142	0.532800	0.967200	0.532800
C1431	C143	0.833700	0.666300	0.833700
C1441	C144	0.866400	0.633600	0.866400
C1451	C145	0.935100	0.564900	0.935100
C1461	C146	0.967200	0.532800	0.967200
C1471	C147	0.116100	0.346500	0.116100
C1481	C148	0.082900	0.380700	0.082900
C1491	C149	0.346500	0.116100	0.421300
C1501	C150	0.380700	0.082900	0.453500
C1511	C151	0.116100	0.421300	0.116100
C1521	C152	0.082900	0.453500	0.082900
C1531	C153	0.421300	0.116100	0.346500
C1541	C154	0.453500	0.082900	0.380700
C1551	C155	0.116100	0.116100	0.421300
C1561	C156	0.082900	0.082900	0.453500
C1571	C157	0.346500	0.421300	0.116100
C1581	C158	0.380700	0.453500	0.082900
C1591	C159	0.116100	0.116100	0.346500
C1601	C160	0.082900	0.082900	0.380700
C1611	C161	0.421300	0.346500	0.116100
C1621	C162	0.453500	0.380700	0.082900
C1631	C163	0.116100	0.421300	0.346500
C1641	C164	0.082900	0.453500	0.380700
C1651	C165	0.346500	0.116100	0.116100
C1661	C166	0.380700	0.082900	0.082900
C1671	C167	0.116100	0.346500	0.421300
C1681	C168	0.082900	0.380700	0.453500
C1691	C169	0.421300	0.116100	0.116100
C1701	C170	0.453500	0.082900	0.082900
C1711	C171	0.653500	0.883900	0.883900
C1721	C172	0.619300	0.917100	0.917100
C1731	C173	0.883900	0.653500	0.578700
C1741	C174	0.917100	0.619300	0.546500
C1751	C175	0.578700	0.883900	0.883900
C1761	C176	0.546500	0.917100	0.917100
C1771	C177	0.883900	0.578700	0.653500
C1781	C178	0.917100	0.546500	0.619300
C1791	C179	0.883900	0.883900	0.578700
C1801	C180	0.917100	0.917100	0.546500
C1811	C181	0.578700	0.653500	0.883900
C1821	C182	0.546500	0.619300	0.917100
C1831	C183	0.883900	0.883900	0.653500
C1841	C184	0.917100	0.917100	0.619300
C1851	C185	0.653500	0.578700	0.883900
C1861	C186	0.619300	0.546500	0.917100
C1871	C187	0.578700	0.883900	0.653500
C1881	C188	0.546500	0.917100	0.619300
C1891	C189	0.883900	0.653500	0.883900
C1901	C190	0.917100	0.619300	0.917100
C1911	C191	0.653500	0.883900	0.578700
C1921	C192	0.619300	0.917100	0.546500
C1931	C193	0.883900	0.578700	0.883900
C1941	C194	0.917100	0.546500	0.917100
C1951	C195	0.055400	0.483400	0.977800
C1961	C196	0.483400	0.055400	0.483400
C1971	C197	0.977800	0.483400	0.055400
C1981	C198	0.942800	0.442800	0.171600
C1991	C199	0.483400	0.977800	0.483400
C2001	C200	0.442800	0.942800	0.442800
C2011	C201	0.055400	0.977800	0.483400
C2021	C202	0.483400	0.483400	0.977800
C2031	C203	0.977800	0.055400	0.483400
C2041	C204	0.942800	0.171600	0.442800
C2051	C205	0.483400	0.483400	0.055400
C2061	C206	0.442800	0.442800	0.171600
C2071	C207	0.055400	0.483400	0.483400
C2081	C208	0.171600	0.442800	0.442800
C2091	C209	0.483400	0.977800	0.055400
C2101	C210	0.442800	0.942800	0.171600
C2111	C211	0.977800	0.483400	0.483400
C2121	C212	0.483400	0.055400	0.977800
C2131	C213	0.516600	0.944600	0.022200
C2141	C214	0.557200	0.828400	0.057200
C2151	C215	0.944600	0.516600	0.516600
C2161	C216	0.516600	0.022200	0.944600
C2171	C217	0.022200	0.516600	0.516600
C2181	C218	0.057200	0.557200	0.557200
C2191	C219	0.022200	0.944600	0.516600
C2201	C220	0.516600	0.516600	0.022200
C2211	C221	0.557200	0.557200	0.057200
C2221	C222	0.944600	0.022200	0.516600
C2231	C223	0.828400	0.057200	0.557200
C2241	C224	0.516600	0.516600	0.944600
C2251	C225	0.516600	0.944600	0.516600
C2261	C226	0.557200	0.828400	0.557200
C2271	C227	0.022200	0.516600	0.944600
C2281	C228	0.516600	0.022200	0.516600
C2291	C229	0.944600	0.516600	0.022200
C2301	C230	0.828400	0.557200	0.057200
C2311	C231	0.884000	0.500000	0.116000
C2321	C232	0.500000	0.884000	0.500000
C2331	C233	0.884000	0.116000	0.500000
C2341	C234	0.500000	0.500000	0.116000
C2351	C235	0.116000	0.500000	0.500000
C2361	C236	0.500000	0.884000	0.116000
N2371	N237	0.940000	0.473000	0.114000
N2381	N238	0.473000	0.940000	0.473000
N2391	N239	0.940000	0.114000	0.473000
N2401	N240	0.473000	0.473000	0.114000
N2411	N241	0.114000	0.473000	0.473000
N2421	N242	0.473000	0.940000	0.114000
N2431	N243	0.527000	0.886000	0.060000
N2441	N244	0.060000	0.527000	0.527000
N2451	N245	0.527000	0.527000	0.060000
N2461	N246	0.886000	0.060000	0.527000
N2471	N247	0.527000	0.886000	0.527000
N2481	N248	0.886000	0.527000	0.060000
O2491	O249	0.180800	0.357400	0.180800
O2501	O250	0.357400	0.180800	0.281000
O2511	O251	0.180800	0.281000	0.180800
O2521	O252	0.281000	0.180800	0.357400
O2531	O253	0.180800	0.180800	0.281000
O2541	O254	0.357400	0.281000	0.180800
O2551	O255	0.180800	0.180800	0.357400
O2561	O256	0.281000	0.357400	0.180800
O2571	O257	0.180800	0.281000	0.357400
O2581	O258	0.357400	0.180800	0.180800
O2591	O259	0.180800	0.357400	0.281000
O2601	O260	0.281000	0.180800	0.180800
O2611	O261	0.642600	0.819200	0.819200
O2621	O262	0.819200	0.642600	0.719000
O2631	O263	0.719000	0.819200	0.819200
O2641	O264	0.819200	0.719000	0.642600
O2651	O265	0.819200	0.819200	0.719000
O2661	O266	0.719000	0.642600	0.819200
O2671	O267	0.819200	0.819200	0.642600
O2681	O268	0.642600	0.719000	0.819200
O2691	O269	0.719000	0.819200	0.642600
O2701	O270	0.819200	0.642600	0.819200
O2711	O271	0.642600	0.819200	0.719000
O2721	O272	0.819200	0.719000	0.819200
O2731	O273	0.250000	0.250000	0.250000
O2741	O274	0.750000	0.750000	0.750000
H2751	H275	0.101160	0.470350	0.958140
H2761	H276	0.470350	0.101160	0.470350
H2771	H277	0.101160	0.958140	0.470350
H2781	H278	0.470350	0.470350	0.958140
H2791	H279	0.958140	0.470350	0.470350
H2801	H280	0.470350	0.101160	0.958140
H2811	H281	0.898790	0.529880	0.529880
H2821	H282	0.529650	0.041860	0.898840
H2831	H283	0.041450	0.898790	0.529880
H2841	H284	0.529880	0.529880	0.898790
H2851	H285	0.041450	0.529880	0.898790
H2861	H286	0.529650	0.041860	0.529650
