data_RUVCES_freeONLY_PM
_symmetry_space_group_name_H-M	'P1'
_cell_length_a	14.421100
_cell_length_b	12.118100
_cell_length_c	14.069200
_cell_angle_alpha	90.000000
_cell_angle_beta	90.000000
_cell_angle_gamma	90.000000
_symmetry_Int_Tables_number 1

loop_
_symmetry_equiv_pos_as_xyz
'x,y,z'

loop_
_atom_site_label
_atom_site_type_symbol
_atom_site_fract_x
_atom_site_fract_y
_atom_site_fract_z
S11	S1	0.163090	0.866260	0.188590
O11	O1	0.221400	0.879000	0.096500
O21	O2	0.223900	0.904400	0.266500
O31	O3	0.091700	0.957300	0.173800
S21	S2	0.163090	0.366260	0.688590
O41	O4	0.221400	0.379000	0.596500
O51	O5	0.223900	0.404400	0.766500
O61	O6	0.091700	0.457300	0.673800
S31	S3	0.663090	0.866260	0.688590
O71	O7	0.721400	0.879000	0.596500
O81	O8	0.723900	0.904400	0.766500
O91	O9	0.591700	0.957300	0.673800
S41	S4	0.663090	0.366260	0.188590
O101	O10	0.721400	0.379000	0.096500
O111	O11	0.723900	0.404400	0.266500
O121	O12	0.591700	0.457300	0.173800
S51	S5	0.836910	0.133740	0.188590
O131	O13	0.778600	0.121000	0.096500
O141	O14	0.776100	0.095600	0.266500
O151	O15	0.908300	0.042700	0.173800
S61	S6	0.836910	0.633740	0.688590
O161	O16	0.778600	0.621000	0.596500
O171	O17	0.776100	0.595600	0.766500
O181	O18	0.908300	0.542700	0.673800
S71	S7	0.336910	0.133740	0.688590
O191	O19	0.278600	0.121000	0.596500
O201	O20	0.276100	0.095600	0.766500
O211	O21	0.408300	0.042700	0.673800
S81	S8	0.336910	0.633740	0.188590
O221	O22	0.278600	0.621000	0.096500
O231	O23	0.276100	0.595600	0.266500
O241	O24	0.408300	0.542700	0.173800
S91	S9	0.413090	0.383740	0.438590
O251	O25	0.471400	0.371000	0.346500
O261	O26	0.473900	0.345600	0.516500
O271	O27	0.341700	0.292700	0.423800
S101	S10	0.413090	0.883740	0.938590
O281	O28	0.471400	0.871000	0.846500
O291	O29	0.473900	0.845600	0.016500
O301	O30	0.341700	0.792700	0.923800
S111	S11	0.913090	0.383740	0.938590
O311	O31	0.971400	0.371000	0.846500
O321	O32	0.973900	0.345600	0.016500
O331	O33	0.841700	0.292700	0.923800
S121	S12	0.913090	0.883740	0.438590
O341	O34	0.971400	0.871000	0.346500
O351	O35	0.973900	0.845600	0.516500
O361	O36	0.841700	0.792700	0.423800
S131	S13	0.086910	0.116260	0.438590
O371	O37	0.028600	0.129000	0.346500
O381	O38	0.026100	0.154400	0.516500
O391	O39	0.158300	0.207300	0.423800
S141	S14	0.086910	0.616260	0.938590
O401	O40	0.028600	0.629000	0.846500
O411	O41	0.026100	0.654400	0.016500
O421	O42	0.158300	0.707300	0.923800
S151	S15	0.586910	0.116260	0.938590
O431	O43	0.528600	0.129000	0.846500
O441	O44	0.526100	0.154400	0.016500
O451	O45	0.658300	0.207300	0.923800
S161	S16	0.586910	0.616260	0.438590
O461	O46	0.528600	0.629000	0.346500
O471	O47	0.526100	0.654400	0.516500
O481	O48	0.658300	0.707300	0.423800
Zn11	Zn1	0.250000	0.750000	0.019000
Zn21	Zn2	0.250000	0.250000	0.519000
Zn31	Zn3	0.750000	0.250000	0.019000
Zn41	Zn4	0.750000	0.750000	0.519000
Zn51	Zn5	0.500000	0.500000	0.269000
Zn61	Zn6	0.500000	0.000000	0.769000
Zn71	Zn7	0.000000	0.000000	0.269000
Zn81	Zn8	0.000000	0.500000	0.769000
