data_RUVKAV_freeONLY_PM
_symmetry_space_group_name_H-M	'P1'
_cell_length_a	17.388400
_cell_length_b	17.388400
_cell_length_c	17.388400
_cell_angle_alpha	65.354400
_cell_angle_beta	65.354400
_cell_angle_gamma	65.354400
_symmetry_Int_Tables_number 1

loop_
_symmetry_equiv_pos_as_xyz
'x,y,z'

loop_
_atom_site_label
_atom_site_type_symbol
_atom_site_fract_x
_atom_site_fract_y
_atom_site_fract_z
Cu11	Cu1	0.573020	0.003880	0.003880
Cu21	Cu2	0.003880	0.573020	0.003880
Cu31	Cu3	0.003880	0.003880	0.573020
Cu41	Cu4	0.996120	0.426980	0.996120
Cu51	Cu5	0.426980	0.996120	0.996120
Cu61	Cu6	0.996120	0.996120	0.426980
H11	H1	0.506400	0.721000	0.020200
H21	H2	0.020200	0.506400	0.721000
H31	H3	0.721000	0.020200	0.506400
H41	H4	0.279000	0.493600	0.979800
H51	H5	0.493600	0.979800	0.279000
H61	H6	0.979800	0.279000	0.493600
H71	H7	0.493600	0.279000	0.979800
H81	H8	0.979800	0.493600	0.279000
H91	H9	0.279000	0.979800	0.493600
H101	H10	0.721000	0.506400	0.020200
H111	H11	0.506400	0.020200	0.721000
H121	H12	0.020200	0.721000	0.506400
H131	H13	0.730500	0.730500	0.027800
H141	H14	0.027800	0.730500	0.730500
H151	H15	0.730500	0.027800	0.730500
H161	H16	0.269500	0.269500	0.972200
H171	H17	0.269500	0.972200	0.269500
H181	H18	0.972200	0.269500	0.269500
C11	C1	0.611750	0.740550	0.024750
C21	C2	0.564830	0.693930	0.021330
C31	C3	0.569020	0.836420	0.021020
C41	C4	0.024750	0.611750	0.740550
C51	C5	0.021330	0.564830	0.693930
C61	C6	0.021020	0.569020	0.836420
C71	C7	0.740550	0.024750	0.611750
C81	C8	0.693930	0.021330	0.564830
C91	C9	0.836420	0.021020	0.569020
C101	C10	0.259450	0.388250	0.975250
C111	C11	0.306070	0.435170	0.978670
C121	C12	0.163580	0.430980	0.978980
C131	C13	0.388250	0.975250	0.259450
C141	C14	0.435170	0.978670	0.306070
C151	C15	0.430980	0.978980	0.163580
C161	C16	0.975250	0.259450	0.388250
C171	C17	0.978670	0.306070	0.435170
C181	C18	0.978980	0.163580	0.430980
C191	C19	0.388250	0.259450	0.975250
C201	C20	0.435170	0.306070	0.978670
C211	C21	0.430980	0.163580	0.978980
C221	C22	0.975250	0.388250	0.259450
C231	C23	0.978670	0.435170	0.306070
C241	C24	0.978980	0.430980	0.163580
C251	C25	0.259450	0.975250	0.388250
C261	C26	0.306070	0.978670	0.435170
C271	C27	0.163580	0.978980	0.430980
C281	C28	0.740550	0.611750	0.024750
C291	C29	0.693930	0.564830	0.021330
C301	C30	0.836420	0.569020	0.021020
C311	C31	0.611750	0.024750	0.740550
C321	C32	0.564830	0.021330	0.693930
C331	C33	0.569020	0.021020	0.836420
C341	C34	0.024750	0.740550	0.611750
C351	C35	0.021330	0.693930	0.564830
C361	C36	0.021020	0.836420	0.569020
C371	C37	0.560200	0.560200	0.014100
C381	C38	0.522600	0.522600	0.004700
C391	C39	0.699220	0.699220	0.026070
C401	C40	0.606400	0.606400	0.019650
C411	C41	0.014100	0.560200	0.560200
C421	C42	0.004700	0.522600	0.522600
C431	C43	0.026070	0.699220	0.699220
C441	C44	0.019650	0.606400	0.606400
C451	C45	0.560200	0.014100	0.560200
C461	C46	0.522600	0.004700	0.522600
C471	C47	0.699220	0.026070	0.699220
C481	C48	0.606400	0.019650	0.606400
C491	C49	0.439800	0.439800	0.985900
C501	C50	0.477400	0.477400	0.995300
C511	C51	0.300780	0.300780	0.973930
C521	C52	0.393600	0.393600	0.980350
C531	C53	0.439800	0.985900	0.439800
C541	C54	0.477400	0.995300	0.477400
C551	C55	0.300780	0.973930	0.300780
C561	C56	0.393600	0.980350	0.393600
C571	C57	0.985900	0.439800	0.439800
C581	C58	0.995300	0.477400	0.477400
C591	C59	0.973930	0.300780	0.300780
C601	C60	0.980350	0.393600	0.393600
O11	O1	0.614820	0.876160	0.021340
O21	O2	0.491650	0.869610	0.015580
O31	O3	0.021340	0.614820	0.876160
O41	O4	0.015580	0.491650	0.869610
O51	O5	0.876160	0.021340	0.614820
O61	O6	0.869610	0.015580	0.491650
O71	O7	0.123840	0.385180	0.978660
O81	O8	0.130390	0.508350	0.984420
O91	O9	0.385180	0.978660	0.123840
O101	O10	0.508350	0.984420	0.130390
O111	O11	0.978660	0.123840	0.385180
O121	O12	0.984420	0.130390	0.508350
O131	O13	0.385180	0.123840	0.978660
O141	O14	0.508350	0.130390	0.984420
O151	O15	0.978660	0.385180	0.123840
O161	O16	0.984420	0.508350	0.130390
O171	O17	0.123840	0.978660	0.385180
O181	O18	0.130390	0.984420	0.508350
O191	O19	0.876160	0.614820	0.021340
O201	O20	0.869610	0.491650	0.015580
O211	O21	0.614820	0.021340	0.876160
O221	O22	0.491650	0.015580	0.869610
O231	O23	0.021340	0.876160	0.614820
O241	O24	0.015580	0.869610	0.491650
O251	O25	0.684520	0.015570	0.015570
O261	O26	0.015570	0.684520	0.015570
O271	O27	0.015570	0.015570	0.684520
O281	O28	0.984430	0.315480	0.984430
O291	O29	0.315480	0.984430	0.984430
O301	O30	0.984430	0.984430	0.315480
