data_RUVMUR_freeONLY_PM
_symmetry_space_group_name_H-M	'P1'
_cell_length_a	7.159900
_cell_length_b	39.159000
_cell_length_c	9.712700
_cell_angle_alpha	90.000000
_cell_angle_beta	90.000000
_cell_angle_gamma	90.000000
_symmetry_Int_Tables_number 1

loop_
_symmetry_equiv_pos_as_xyz
'x,y,z'

loop_
_atom_site_label
_atom_site_type_symbol
_atom_site_fract_x
_atom_site_fract_y
_atom_site_fract_z
C11	C1	0.094900	0.124300	0.692600
C21	C2	0.070800	0.154960	0.626100
H11	H1	0.032800	0.155800	0.534600
C31	C3	0.105500	0.185000	0.701300
C41	C4	0.161700	0.184100	0.837200
H21	H2	0.184700	0.204100	0.885600
C51	C5	0.183000	0.152400	0.899700
C61	C6	0.149700	0.122600	0.829500
H31	H3	0.163800	0.101600	0.873000
C71	C7	0.111700	0.061100	0.664400
H41	H4	0.195300	0.056200	0.735000
C81	C8	0.023700	0.038500	0.582500
H51	H5	0.033500	0.014900	0.588200
C91	C9	0.938700	0.088700	0.514600
H61	H6	0.883700	0.106400	0.465700
C101	C10	0.094500	0.221400	0.488900
H71	H7	0.106200	0.204800	0.421200
C111	C11	0.077800	0.255900	0.471200
H81	H8	0.074600	0.267000	0.386500
C121	C12	0.073200	0.247200	0.691800
H91	H9	0.067200	0.250700	0.786400
C131	C13	0.193000	0.123800	0.129900
H101	H10	0.120600	0.104900	0.108300
C141	C14	0.270700	0.130400	0.251100
H111	H11	0.261900	0.116700	0.328900
C151	C15	0.344300	0.172500	0.112600
H121	H12	0.393700	0.192600	0.077300
C161	C16	0.103600	0.380200	0.264700
C171	C17	0.098500	0.414700	0.248000
H131	H13	0.061100	0.428300	0.321400
C181	C18	0.147800	0.430200	0.124300
C191	C19	0.192400	0.409600	0.011200
C201	C20	0.194100	0.374900	0.031100
H141	H14	0.223500	0.361000	0.956400
C211	C21	0.155000	0.359400	0.155000
H151	H15	0.162800	0.335800	0.165200
C221	C22	0.052900	0.364900	0.405200
C231	C23	0.137700	0.469600	0.124500
C241	C24	0.233000	0.423600	0.869000
Co11	Co1	0.052550	0.322500	0.617940
N11	N1	0.915300	0.056440	0.487500
N21	N2	0.053400	0.092740	0.623000
N31	N3	0.066300	0.272000	0.598800
N41	N4	0.089900	0.216700	0.632800
N51	N5	0.366600	0.160900	0.243500
N61	N6	0.238600	0.149930	0.042500
O11	O1	0.064700	0.333380	0.419500
O21	O2	0.004700	0.384370	0.499600
O31	O3	0.285100	0.486420	0.123900
O41	O4	0.980100	0.481630	0.134100
O51	O5	0.215600	0.454800	0.851900
O61	O6	0.270400	0.402950	0.773700
O71	O7	0.493800	0.049220	0.420400
O81	O8	0.305200	0.337520	0.692700
Zn11	Zn1	0.742310	0.035670	0.347740
C251	C25	0.405100	0.875700	0.192600
C261	C26	0.429200	0.845040	0.126100
H161	H16	0.467200	0.844200	0.034600
C271	C27	0.394500	0.815000	0.201300
C281	C28	0.338300	0.815900	0.337200
H171	H17	0.315300	0.795900	0.385600
C291	C29	0.317000	0.847600	0.399700
C301	C30	0.350300	0.877400	0.329500
H181	H18	0.336200	0.898400	0.373000
C311	C31	0.388300	0.938900	0.164400
H191	H19	0.304700	0.943800	0.235000
C321	C32	0.476300	0.961500	0.082500
H201	H20	0.466500	0.985100	0.088200
C331	C33	0.561300	0.911300	0.014600
H211	H21	0.616300	0.893600	0.965700
C341	C34	0.405500	0.778600	0.988900
H221	H22	0.393800	0.795200	0.921200
C351	C35	0.422200	0.744100	0.971200
H231	H23	0.425400	0.733000	0.886500
C361	C36	0.426800	0.752800	0.191800
H241	H24	0.432800	0.749300	0.286400
C371	C37	0.307000	0.876200	0.629900
H251	H25	0.379400	0.895100	0.608300
C381	C38	0.229300	0.869600	0.751100
H261	H26	0.238100	0.883300	0.828900
C391	C39	0.155700	0.827500	0.612600
H271	H27	0.106300	0.807400	0.577300
C401	C40	0.396400	0.619800	0.764700
C411	C41	0.401500	0.585300	0.748000
H281	H28	0.438900	0.571700	0.821400
C421	C42	0.352200	0.569800	0.624300
C431	C43	0.307600	0.590400	0.511200
C441	C44	0.305900	0.625100	0.531100
H291	H29	0.276500	0.639000	0.456400
C451	C45	0.345000	0.640600	0.655000
H301	H30	0.337200	0.664200	0.665200
C461	C46	0.447100	0.635100	0.905200
C471	C47	0.362300	0.530400	0.624500
C481	C48	0.267000	0.576400	0.369000
Co21	Co2	0.447450	0.677500	0.117940
N71	N7	0.584700	0.943560	0.987500
N81	N8	0.446600	0.907260	0.123000
N91	N9	0.433700	0.728000	0.098800
N101	N10	0.410100	0.783300	0.132800
N111	N11	0.133400	0.839100	0.743500
N121	N12	0.261400	0.850070	0.542500
O91	O9	0.435300	0.666620	0.919500
O101	O10	0.495300	0.615630	0.999600
O111	O11	0.214900	0.513580	0.623900
O121	O12	0.519900	0.518370	0.634100
O131	O13	0.284400	0.545200	0.351900
O141	O14	0.229600	0.597050	0.273700
O151	O15	0.006200	0.950780	0.920400
O161	O16	0.194800	0.662480	0.192700
Zn21	Zn2	0.757690	0.964330	0.847740
C491	C49	0.905100	0.624300	0.807400
C501	C50	0.929200	0.654960	0.873900
H311	H31	0.967200	0.655800	0.965400
C511	C51	0.894500	0.685000	0.798700
C521	C52	0.838300	0.684100	0.662800
H321	H32	0.815300	0.704100	0.614400
C531	C53	0.817000	0.652400	0.600300
C541	C54	0.850300	0.622600	0.670500
H331	H33	0.836200	0.601600	0.627000
C551	C55	0.888300	0.561100	0.835600
H341	H34	0.804700	0.556200	0.765000
C561	C56	0.976300	0.538500	0.917500
H351	H35	0.966500	0.514900	0.911800
C571	C57	0.061300	0.588700	0.985400
H361	H36	0.116300	0.606400	0.034300
C581	C58	0.905500	0.721400	0.011100
H371	H37	0.893800	0.704800	0.078800
C591	C59	0.922200	0.755900	0.028800
H381	H38	0.925400	0.767000	0.113500
C601	C60	0.926800	0.747200	0.808200
H391	H39	0.932800	0.750700	0.713600
C611	C61	0.807000	0.623800	0.370100
H401	H40	0.879400	0.604900	0.391700
C621	C62	0.729300	0.630400	0.248900
H411	H41	0.738100	0.616700	0.171100
C631	C63	0.655700	0.672500	0.387400
H421	H42	0.606300	0.692600	0.422700
C641	C64	0.896400	0.880200	0.235300
C651	C65	0.901500	0.914700	0.252000
H431	H43	0.938900	0.928300	0.178600
C661	C66	0.852200	0.930200	0.375700
C671	C67	0.807600	0.909600	0.488800
C681	C68	0.805900	0.874900	0.468900
H441	H44	0.776500	0.861000	0.543600
C691	C69	0.845000	0.859400	0.345000
H451	H45	0.837200	0.835800	0.334800
C701	C70	0.947100	0.864900	0.094800
C711	C71	0.862300	0.969600	0.375500
C721	C72	0.767000	0.923600	0.631000
Co31	Co3	0.947450	0.822500	0.882060
N131	N13	0.084700	0.556440	0.012500
N141	N14	0.946600	0.592740	0.877000
N151	N15	0.933700	0.772000	0.901200
N161	N16	0.910100	0.716700	0.867200
N171	N17	0.633400	0.660900	0.256500
N181	N18	0.761400	0.649930	0.457500
O171	O17	0.935300	0.833380	0.080500
O181	O18	0.995300	0.884370	0.000400
O191	O19	0.714900	0.986420	0.376100
O201	O20	0.019900	0.981630	0.365900
O211	O21	0.784400	0.954800	0.648100
O221	O22	0.729600	0.902950	0.726300
O231	O23	0.506200	0.549220	0.079600
O241	O24	0.694800	0.837520	0.807300
Zn31	Zn3	0.257690	0.535670	0.152260
C731	C73	0.594900	0.375700	0.307400
C741	C74	0.570800	0.345040	0.373900
H461	H46	0.532800	0.344200	0.465400
C751	C75	0.605500	0.315000	0.298700
C761	C76	0.661700	0.315900	0.162800
H471	H47	0.684700	0.295900	0.114400
C771	C77	0.683000	0.347600	0.100300
C781	C78	0.649700	0.377400	0.170500
H481	H48	0.663800	0.398400	0.127000
C791	C79	0.611700	0.438900	0.335600
H491	H49	0.695300	0.443800	0.265000
C801	C80	0.523700	0.461500	0.417500
H501	H50	0.533500	0.485100	0.411800
C811	C81	0.438700	0.411300	0.485400
H511	H51	0.383700	0.393600	0.534300
C821	C82	0.594500	0.278600	0.511100
H521	H52	0.606200	0.295200	0.578800
C831	C83	0.577800	0.244100	0.528800
H531	H53	0.574600	0.233000	0.613500
C841	C84	0.573200	0.252800	0.308200
H541	H54	0.567200	0.249300	0.213600
C851	C85	0.693000	0.376200	0.870100
H551	H55	0.620600	0.395100	0.891700
C861	C86	0.770700	0.369600	0.748900
H561	H56	0.761900	0.383300	0.671100
C871	C87	0.844300	0.327500	0.887400
H571	H57	0.893700	0.307400	0.922700
C881	C88	0.603600	0.119800	0.735300
C891	C89	0.598500	0.085300	0.752000
H581	H58	0.561100	0.071700	0.678600
C901	C90	0.647800	0.069800	0.875700
C911	C91	0.692400	0.090400	0.988800
C921	C92	0.694100	0.125100	0.968900
H591	H59	0.723500	0.139000	0.043600
C931	C93	0.655000	0.140600	0.845000
H601	H60	0.662800	0.164200	0.834800
C941	C94	0.552900	0.135100	0.594800
C951	C95	0.637700	0.030400	0.875500
C961	C96	0.733000	0.076400	0.131000
Co41	Co4	0.552550	0.177500	0.382060
N191	N19	0.415300	0.443560	0.512500
N201	N20	0.553400	0.407260	0.377000
N211	N21	0.566300	0.228000	0.401200
N221	N22	0.589900	0.283300	0.367200
N231	N23	0.866600	0.339100	0.756500
N241	N24	0.738600	0.350070	0.957500
O251	O25	0.564700	0.166620	0.580500
O261	O26	0.504700	0.115630	0.500400
O271	O27	0.785100	0.013580	0.876100
O281	O28	0.480100	0.018370	0.865900
O291	O29	0.715600	0.045200	0.148100
O301	O30	0.770400	0.097050	0.226300
O311	O31	0.993800	0.450780	0.579600
O321	O32	0.805200	0.162480	0.307300
Zn41	Zn4	0.242310	0.464330	0.652260
