data_RUWWUC_freeONLY_PM
_symmetry_space_group_name_H-M	'P1'
_cell_length_a	9.480000
_cell_length_b	9.968000
_cell_length_c	11.255000
_cell_angle_alpha	92.329000
_cell_angle_beta	98.804000
_cell_angle_gamma	110.796000
_symmetry_Int_Tables_number 1

loop_
_symmetry_equiv_pos_as_xyz
'x,y,z'

loop_
_atom_site_label
_atom_site_type_symbol
_atom_site_fract_x
_atom_site_fract_y
_atom_site_fract_z
La11	La1	0.716300	0.955610	0.015220
La21	La2	0.283700	0.044390	0.984780
H11	H1	0.676000	0.505700	0.957800
H21	H2	0.802800	0.219500	0.783600
H31	H3	0.079800	0.636300	0.841000
H41	H4	0.836900	0.412800	0.569600
H51	H5	0.749500	0.290700	0.376700
H61	H6	0.061200	0.103800	0.434200
H71	H7	0.150800	0.225600	0.627100
H81	H8	0.768000	0.867000	0.791000
H91	H9	0.906000	0.987000	0.796000
H101	H10	0.430000	0.801000	0.829000
H111	H11	0.474000	0.688000	0.852000
H121	H12	0.324000	0.494300	0.042200
H131	H13	0.197200	0.780500	0.216400
H141	H14	0.920200	0.363700	0.159000
H151	H15	0.163100	0.587200	0.430400
H161	H16	0.250500	0.709300	0.623300
H171	H17	0.938800	0.896200	0.565800
H181	H18	0.849200	0.774400	0.372900
H191	H19	0.232000	0.133000	0.209000
H201	H20	0.094000	0.013000	0.204000
H211	H21	0.570000	0.199000	0.171000
H221	H22	0.526000	0.312000	0.148000
C11	C1	0.924000	0.743700	0.970500
C21	C2	0.885200	0.593500	0.912000
C31	C3	0.747700	0.484900	0.920200
C41	C4	0.717500	0.344700	0.872100
C51	C5	0.573200	0.227700	0.891200
C61	C6	0.820900	0.314000	0.812300
C71	C7	0.951700	0.425300	0.795300
C81	C8	0.988000	0.563700	0.848000
C91	C9	0.999400	0.327700	0.617400
C101	C10	0.880900	0.350000	0.543000
C111	C11	0.829000	0.276700	0.427700
C121	C12	0.894800	0.182500	0.387600
C131	C13	0.831500	0.096400	0.264600
C141	C14	0.015500	0.164700	0.461700
C151	C15	0.069200	0.237300	0.577200
C161	C16	0.076000	0.256300	0.029500
C171	C17	0.114800	0.406500	0.088000
C181	C18	0.252300	0.515100	0.079800
C191	C19	0.282500	0.655300	0.127900
C201	C20	0.426800	0.772300	0.108800
C211	C21	0.179100	0.686000	0.187700
C221	C22	0.048300	0.574700	0.204700
C231	C23	0.012000	0.436300	0.152000
C241	C24	0.000600	0.672300	0.382600
C251	C25	0.119100	0.650000	0.457000
C261	C26	0.171000	0.723300	0.572300
C271	C27	0.105200	0.817500	0.612400
C281	C28	0.168500	0.903600	0.735400
C291	C29	0.984500	0.835300	0.538300
C301	C30	0.930800	0.762700	0.422800
O11	O1	0.817800	0.766200	0.015700
O21	O2	0.051900	0.834900	0.972900
O31	O3	0.450600	0.251600	0.879800
O41	O4	0.576900	0.105700	0.919500
O51	O5	0.056700	0.397500	0.733600
O61	O6	0.721900	0.117600	0.197600
O71	O7	0.886800	0.006800	0.232000
O81	O8	0.508700	0.783000	0.847400
O91	O9	0.811600	0.960100	0.808600
O101	O10	0.182200	0.233800	0.984300
O111	O11	0.948100	0.165100	0.027100
O121	O12	0.549400	0.748400	0.120200
O131	O13	0.423100	0.894300	0.080500
O141	O14	0.943300	0.602500	0.266400
O151	O15	0.278100	0.882400	0.802400
O161	O16	0.113200	0.993200	0.768000
O171	O17	0.491300	0.217000	0.152600
O181	O18	0.188400	0.039900	0.191400
