data_RUWXAJ_freeONLY_PM
_symmetry_space_group_name_H-M	'P1'
_cell_length_a	9.491000
_cell_length_b	10.052000
_cell_length_c	11.344000
_cell_angle_alpha	94.429000
_cell_angle_beta	97.914000
_cell_angle_gamma	111.386000
_symmetry_Int_Tables_number 1

loop_
_symmetry_equiv_pos_as_xyz
'x,y,z'

loop_
_atom_site_label
_atom_site_type_symbol
_atom_site_fract_x
_atom_site_fract_y
_atom_site_fract_z
La11	La1	0.214010	0.454090	0.012940
La21	La2	0.785990	0.545910	0.987060
H11	H1	0.819900	0.996700	0.039300
H21	H2	0.688800	0.286800	0.211200
H31	H3	0.416400	0.863800	0.157700
H41	H4	0.654200	0.088900	0.425400
H51	H5	0.744900	0.212000	0.614700
H61	H6	0.437900	0.394300	0.572500
H71	H7	0.352200	0.285000	0.372900
H81	H8	0.960000	0.192000	0.870000
H91	H9	0.070000	0.260000	0.810000
H101	H10	0.234000	0.412000	0.743000
H111	H11	0.389000	0.500000	0.774000
H121	H12	0.180100	0.003300	0.960700
H131	H13	0.311200	0.713200	0.788800
H141	H14	0.583600	0.136200	0.842300
H151	H15	0.345800	0.911100	0.574600
H161	H16	0.255100	0.788000	0.385300
H171	H17	0.562100	0.605700	0.427500
H181	H18	0.647800	0.715000	0.627100
H191	H19	0.040000	0.808000	0.130000
H201	H20	0.930000	0.740000	0.190000
H211	H21	0.766000	0.588000	0.257000
H221	H22	0.611000	0.500000	0.226000
C11	C1	0.580600	0.758600	0.032000
C21	C2	0.612700	0.907800	0.087200
C31	C3	0.748000	0.017600	0.077200
C41	C4	0.777400	0.159700	0.123800
C51	C5	0.923000	0.275800	0.106000
C61	C6	0.672100	0.192000	0.182900
C71	C7	0.542900	0.079700	0.198100
C81	C8	0.507300	0.937000	0.149300
C91	C9	0.495100	0.175800	0.378600
C101	C10	0.612500	0.153300	0.453300
C111	C11	0.665400	0.226100	0.566500
C121	C12	0.604600	0.320000	0.611900
C131	C13	0.665700	0.402100	0.733900
C141	C14	0.484500	0.336300	0.540700
C151	C15	0.429700	0.268500	0.421500
C161	C16	0.419400	0.241400	0.968000
C171	C17	0.387300	0.092200	0.912800
C181	C18	0.252000	0.982400	0.922800
C191	C19	0.222600	0.840300	0.876200
C201	C20	0.077000	0.724200	0.894000
C211	C21	0.327900	0.808000	0.817100
C221	C22	0.457100	0.920300	0.801900
C231	C23	0.492700	0.063000	0.850700
C241	C24	0.504900	0.824200	0.621400
C251	C25	0.387500	0.846700	0.546700
C261	C26	0.334600	0.773900	0.433500
C271	C27	0.395400	0.680000	0.388100
C281	C28	0.334300	0.597900	0.266100
C291	C29	0.515500	0.663700	0.459300
C301	C30	0.570300	0.731500	0.578500
O11	O1	0.447000	0.663400	0.027000
O21	O2	0.685300	0.738900	0.992300
O31	O3	0.044700	0.251900	0.113900
O41	O4	0.919200	0.396600	0.078600
O51	O5	0.437900	0.107700	0.261600
O61	O6	0.773100	0.379400	0.799900
O71	O7	0.617400	0.494500	0.772600
O81	O8	0.307500	0.454800	0.807800
O91	O9	0.002900	0.278400	0.848300
O101	O10	0.553000	0.336600	0.973000
O111	O11	0.314700	0.261100	0.007700
O121	O12	0.955300	0.748100	0.886100
O131	O13	0.080800	0.603400	0.921400
O141	O14	0.562100	0.892300	0.738400
O151	O15	0.226900	0.620600	0.200100
O161	O16	0.382600	0.505500	0.227400
O171	O17	0.692500	0.545200	0.192200
O181	O18	0.997100	0.721600	0.151700
