data_RUYQOT_freeONLY_PM
_symmetry_space_group_name_H-M	'P1'
_cell_length_a	24.200900
_cell_length_b	24.200900
_cell_length_c	12.964800
_cell_angle_alpha	90.000000
_cell_angle_beta	90.000000
_cell_angle_gamma	120.000000
_symmetry_Int_Tables_number 1

loop_
_symmetry_equiv_pos_as_xyz
'x,y,z'

loop_
_atom_site_label
_atom_site_type_symbol
_atom_site_fract_x
_atom_site_fract_y
_atom_site_fract_z
O11	O1	0.569300	0.936600	0.057500
O21	O2	0.618500	0.020500	0.162600
O31	O3	0.322300	0.231200	0.251500
H11	H1	0.686000	0.156000	0.383000
C11	C1	0.391200	0.976200	0.155000
C21	C2	0.448500	0.027600	0.189800
H21	H2	0.448300	0.062300	0.220100
C31	C3	0.505400	0.027900	0.180000
H31	H3	0.542900	0.061900	0.205400
C41	C4	0.506500	0.976800	0.131900
C51	C5	0.450300	0.925600	0.093700
H41	H4	0.451300	0.891900	0.060800
C61	C6	0.392100	0.925100	0.105100
H51	H5	0.354500	0.891100	0.079700
C71	C7	0.567900	0.977400	0.117400
C81	C8	0.363300	0.078700	0.087300
H61	H6	0.383800	0.069600	0.034900
C91	C9	0.362800	0.136600	0.085900
H71	H7	0.381800	0.165300	0.032000
O41	O4	0.235970	0.269930	0.390830
O51	O5	0.285170	0.353830	0.495930
O61	O6	0.988970	0.564530	0.584830
H81	H8	0.352670	0.489330	0.716330
C101	C10	0.057870	0.309530	0.488330
C111	C11	0.115170	0.360930	0.523130
H91	H9	0.114970	0.395630	0.553430
C121	C12	0.172070	0.361230	0.513330
H101	H10	0.209570	0.395230	0.538730
C131	C13	0.173170	0.310130	0.465230
C141	C14	0.116970	0.258930	0.427030
H111	H11	0.117970	0.225230	0.394130
C151	C15	0.058770	0.258430	0.438430
H121	H12	0.021170	0.224430	0.413030
C161	C16	0.234570	0.310730	0.450730
C171	C17	0.029970	0.412030	0.420630
H131	H13	0.050470	0.402930	0.368230
C181	C18	0.029470	0.469930	0.419230
H141	H14	0.048470	0.498630	0.365330
O71	O7	0.902630	0.603270	0.724170
O81	O8	0.951830	0.687170	0.829270
O91	O9	0.655630	0.897870	0.918170
H151	H15	0.019330	0.822670	0.049670
C191	C19	0.724530	0.642870	0.821670
C201	C20	0.781830	0.694270	0.856470
H161	H16	0.781630	0.728970	0.886770
C211	C21	0.838730	0.694570	0.846670
H171	H17	0.876230	0.728570	0.872070
C221	C22	0.839830	0.643470	0.798570
C231	C23	0.783630	0.592270	0.760370
H181	H18	0.784630	0.558570	0.727470
C241	C24	0.725430	0.591770	0.771770
H191	H19	0.687830	0.557770	0.746370
C251	C25	0.901230	0.644070	0.784070
C261	C26	0.696630	0.745370	0.753970
H201	H20	0.717130	0.736270	0.701570
C271	C27	0.696130	0.803270	0.752570
H211	H21	0.715130	0.831970	0.698670
O101	O10	0.063400	0.632700	0.057500
O111	O11	0.979500	0.598000	0.162600
O121	O12	0.768800	0.091100	0.251500
H221	H22	0.844000	0.530000	0.383000
C281	C28	0.023800	0.415000	0.155000
C291	C29	0.972400	0.420900	0.189800
H231	H23	0.937700	0.386000	0.220100
C301	C30	0.972100	0.477500	0.180000
H241	H24	0.938100	0.481000	0.205400
C311	C31	0.023200	0.529700	0.131900
C321	C32	0.074400	0.524700	0.093700
H251	H25	0.108100	0.559400	0.060800
C331	C33	0.074900	0.467000	0.105100
H261	H26	0.108900	0.463400	0.079700
C341	C34	0.022600	0.590500	0.117400
C351	C35	0.921300	0.284600	0.087300
H271	H27	0.930400	0.314200	0.034900
C361	C36	0.863400	0.226200	0.085900
H281	H28	0.834700	0.216500	0.032000
O131	O13	0.730070	0.966030	0.390830
O141	O14	0.646170	0.931330	0.495930
O151	O15	0.435470	0.424430	0.584830
H291	H29	0.510670	0.863330	0.716330
C371	C37	0.690470	0.748330	0.488330
C381	C38	0.639070	0.754230	0.523130
H301	H30	0.604370	0.719330	0.553430
C391	C39	0.638770	0.810830	0.513330
H311	H31	0.604770	0.814330	0.538730
C401	C40	0.689870	0.863030	0.465230
C411	C41	0.741070	0.858030	0.427030
H321	H32	0.774770	0.892730	0.394130
C421	C42	0.741570	0.800330	0.438430
H331	H33	0.775570	0.796730	0.413030
C431	C43	0.689270	0.923830	0.450730
C441	C44	0.587970	0.617930	0.420630
H341	H34	0.597070	0.647530	0.368230
C451	C45	0.530070	0.559530	0.419230
H351	H35	0.501370	0.549830	0.365330
O161	O16	0.396730	0.299370	0.724170
O171	O17	0.312830	0.264670	0.829270
O181	O18	0.102130	0.757770	0.918170
H361	H36	0.177330	0.196670	0.049670
C461	C46	0.357130	0.081670	0.821670
C471	C47	0.305730	0.087570	0.856470
H371	H37	0.271030	0.052670	0.886770
C481	C48	0.305430	0.144170	0.846670
H381	H38	0.271430	0.147670	0.872070
C491	C49	0.356530	0.196370	0.798570
C501	C50	0.407730	0.191370	0.760370
H391	H39	0.441430	0.226070	0.727470
C511	C51	0.408230	0.133670	0.771770
H401	H40	0.442230	0.130070	0.746370
C521	C52	0.355930	0.257170	0.784070
C531	C53	0.254630	0.951270	0.753970
H411	H41	0.263730	0.980870	0.701570
C541	C54	0.196730	0.892870	0.752570
H421	H42	0.168030	0.883170	0.698670
O191	O19	0.367300	0.430700	0.057500
O201	O20	0.402000	0.381500	0.162600
O211	O21	0.908900	0.677700	0.251500
H431	H43	0.470000	0.314000	0.383000
C551	C55	0.585000	0.608800	0.155000
C561	C56	0.579100	0.551500	0.189800
H441	H44	0.614000	0.551700	0.220100
C571	C57	0.522500	0.494600	0.180000
H451	H45	0.519000	0.457100	0.205400
C581	C58	0.470300	0.493500	0.131900
C591	C59	0.475300	0.549700	0.093700
H461	H46	0.440600	0.548700	0.060800
C601	C60	0.533000	0.607900	0.105100
H471	H47	0.536600	0.645500	0.079700
C611	C61	0.409500	0.432100	0.117400
C621	C62	0.715400	0.636700	0.087300
H481	H48	0.685800	0.616200	0.034900
C631	C63	0.773800	0.637200	0.085900
H491	H49	0.783500	0.618200	0.032000
O221	O22	0.033970	0.764030	0.390830
O231	O23	0.068670	0.714830	0.495930
O241	O24	0.575570	0.011030	0.584830
H501	H50	0.136670	0.647330	0.716330
C641	C64	0.251670	0.942130	0.488330
C651	C65	0.245770	0.884830	0.523130
H511	H51	0.280670	0.885030	0.553430
C661	C66	0.189170	0.827930	0.513330
H521	H52	0.185670	0.790430	0.538730
C671	C67	0.136970	0.826830	0.465230
C681	C68	0.141970	0.883030	0.427030
H531	H53	0.107270	0.882030	0.394130
C691	C69	0.199670	0.941230	0.438430
H541	H54	0.203270	0.978830	0.413030
C701	C70	0.076170	0.765430	0.450730
C711	C71	0.382070	0.970030	0.420630
H551	H55	0.352470	0.949530	0.368230
C721	C72	0.440470	0.970530	0.419230
H561	H56	0.450170	0.951530	0.365330
O251	O25	0.700630	0.097370	0.724170
O261	O26	0.735330	0.048170	0.829270
O271	O27	0.242230	0.344370	0.918170
H571	H57	0.803330	0.980670	0.049670
C731	C73	0.918330	0.275470	0.821670
C741	C74	0.912430	0.218170	0.856470
H581	H58	0.947330	0.218370	0.886770
C751	C75	0.855830	0.161270	0.846670
H591	H59	0.852330	0.123770	0.872070
C761	C76	0.803630	0.160170	0.798570
C771	C77	0.808630	0.216370	0.760370
H601	H60	0.773930	0.215370	0.727470
C781	C78	0.866330	0.274570	0.771770
H611	H61	0.869930	0.312170	0.746370
C791	C79	0.742830	0.098770	0.784070
C801	C80	0.048730	0.303370	0.753970
H621	H62	0.019130	0.282870	0.701570
C811	C81	0.107130	0.303870	0.752570
H631	H63	0.116830	0.284870	0.698670
O281	O28	0.936600	0.569300	0.942500
O291	O29	0.020500	0.618500	0.837400
O301	O30	0.231200	0.322300	0.748500
H641	H64	0.156000	0.686000	0.617000
C821	C82	0.976200	0.391200	0.845000
C831	C83	0.027600	0.448500	0.810200
H651	H65	0.062300	0.448300	0.779900
C841	C84	0.027900	0.505400	0.820000
H661	H66	0.061900	0.542900	0.794600
C851	C85	0.976800	0.506500	0.868100
C861	C86	0.925600	0.450300	0.906300
H671	H67	0.891900	0.451300	0.939200
C871	C87	0.925100	0.392100	0.894900
H681	H68	0.891100	0.354500	0.920300
C881	C88	0.977400	0.567900	0.882600
C891	C89	0.078700	0.363300	0.912700
H691	H69	0.069600	0.383800	0.965100
C901	C90	0.136600	0.362800	0.914100
H701	H70	0.165300	0.381800	0.968000
O311	O31	0.603270	0.902630	0.275830
O321	O32	0.687170	0.951830	0.170730
O331	O33	0.897870	0.655630	0.081830
H711	H71	0.822670	0.019330	0.950330
C911	C91	0.642870	0.724530	0.178330
C921	C92	0.694270	0.781830	0.143530
H721	H72	0.728970	0.781630	0.113230
C931	C93	0.694570	0.838730	0.153330
H731	H73	0.728570	0.876230	0.127930
C941	C94	0.643470	0.839830	0.201430
C951	C95	0.592270	0.783630	0.239630
H741	H74	0.558570	0.784630	0.272530
C961	C96	0.591770	0.725430	0.228230
H751	H75	0.557770	0.687830	0.253630
C971	C97	0.644070	0.901230	0.215930
C981	C98	0.745370	0.696630	0.246030
H761	H76	0.736270	0.717130	0.298430
C991	C99	0.803270	0.696130	0.247430
H771	H77	0.831970	0.715130	0.301330
O341	O34	0.269930	0.235970	0.609170
O351	O35	0.353830	0.285170	0.504070
O361	O36	0.564530	0.988970	0.415170
H781	H78	0.489330	0.352670	0.283670
C1001	C100	0.309530	0.057870	0.511670
C1011	C101	0.360930	0.115170	0.476870
H791	H79	0.395630	0.114970	0.446570
C1021	C102	0.361230	0.172070	0.486670
H801	H80	0.395230	0.209570	0.461270
C1031	C103	0.310130	0.173170	0.534770
C1041	C104	0.258930	0.116970	0.572970
H811	H81	0.225230	0.117970	0.605870
C1051	C105	0.258430	0.058770	0.561570
H821	H82	0.224430	0.021170	0.586970
C1061	C106	0.310730	0.234570	0.549270
C1071	C107	0.412030	0.029970	0.579370
H831	H83	0.402930	0.050470	0.631770
C1081	C108	0.469930	0.029470	0.580770
H841	H84	0.498630	0.048470	0.634670
O371	O37	0.632700	0.063400	0.942500
O381	O38	0.598000	0.979500	0.837400
O391	O39	0.091100	0.768800	0.748500
H851	H85	0.530000	0.844000	0.617000
C1091	C109	0.415000	0.023800	0.845000
C1101	C110	0.420900	0.972400	0.810200
H861	H86	0.386000	0.937700	0.779900
C1111	C111	0.477500	0.972100	0.820000
H871	H87	0.481000	0.938100	0.794600
C1121	C112	0.529700	0.023200	0.868100
C1131	C113	0.524700	0.074400	0.906300
H881	H88	0.559400	0.108100	0.939200
C1141	C114	0.467000	0.074900	0.894900
H891	H89	0.463400	0.108900	0.920300
C1151	C115	0.590500	0.022600	0.882600
C1161	C116	0.284600	0.921300	0.912700
H901	H90	0.314200	0.930400	0.965100
C1171	C117	0.226200	0.863400	0.914100
H911	H91	0.216500	0.834700	0.968000
O401	O40	0.299370	0.396730	0.275830
O411	O41	0.264670	0.312830	0.170730
O421	O42	0.757770	0.102130	0.081830
H921	H92	0.196670	0.177330	0.950330
C1181	C118	0.081670	0.357130	0.178330
C1191	C119	0.087570	0.305730	0.143530
H931	H93	0.052670	0.271030	0.113230
C1201	C120	0.144170	0.305430	0.153330
H941	H94	0.147670	0.271430	0.127930
C1211	C121	0.196370	0.356530	0.201430
C1221	C122	0.191370	0.407730	0.239630
H951	H95	0.226070	0.441430	0.272530
C1231	C123	0.133670	0.408230	0.228230
H961	H96	0.130070	0.442230	0.253630
C1241	C124	0.257170	0.355930	0.215930
C1251	C125	0.951270	0.254630	0.246030
H971	H97	0.980870	0.263730	0.298430
C1261	C126	0.892870	0.196730	0.247430
H981	H98	0.883170	0.168030	0.301330
O431	O43	0.966030	0.730070	0.609170
O441	O44	0.931330	0.646170	0.504070
O451	O45	0.424430	0.435470	0.415170
H991	H99	0.863330	0.510670	0.283670
C1271	C127	0.748330	0.690470	0.511670
C1281	C128	0.754230	0.639070	0.476870
H1001	H100	0.719330	0.604370	0.446570
C1291	C129	0.810830	0.638770	0.486670
H1011	H101	0.814330	0.604770	0.461270
C1301	C130	0.863030	0.689870	0.534770
C1311	C131	0.858030	0.741070	0.572970
H1021	H102	0.892730	0.774770	0.605870
C1321	C132	0.800330	0.741570	0.561570
H1031	H103	0.796730	0.775570	0.586970
C1331	C133	0.923830	0.689270	0.549270
C1341	C134	0.617930	0.587970	0.579370
H1041	H104	0.647530	0.597070	0.631770
C1351	C135	0.559530	0.530070	0.580770
H1051	H105	0.549830	0.501370	0.634670
O461	O46	0.430700	0.367300	0.942500
O471	O47	0.381500	0.402000	0.837400
O481	O48	0.677700	0.908900	0.748500
H1061	H106	0.314000	0.470000	0.617000
C1361	C136	0.608800	0.585000	0.845000
C1371	C137	0.551500	0.579100	0.810200
H1071	H107	0.551700	0.614000	0.779900
C1381	C138	0.494600	0.522500	0.820000
H1081	H108	0.457100	0.519000	0.794600
C1391	C139	0.493500	0.470300	0.868100
C1401	C140	0.549700	0.475300	0.906300
H1091	H109	0.548700	0.440600	0.939200
C1411	C141	0.607900	0.533000	0.894900
H1101	H110	0.645500	0.536600	0.920300
C1421	C142	0.432100	0.409500	0.882600
C1431	C143	0.636700	0.715400	0.912700
H1111	H111	0.616200	0.685800	0.965100
C1441	C144	0.637200	0.773800	0.914100
H1121	H112	0.618200	0.783500	0.968000
O491	O49	0.097370	0.700630	0.275830
O501	O50	0.048170	0.735330	0.170730
O511	O51	0.344370	0.242230	0.081830
H1131	H113	0.980670	0.803330	0.950330
C1451	C145	0.275470	0.918330	0.178330
C1461	C146	0.218170	0.912430	0.143530
H1141	H114	0.218370	0.947330	0.113230
C1471	C147	0.161270	0.855830	0.153330
H1151	H115	0.123770	0.852330	0.127930
C1481	C148	0.160170	0.803630	0.201430
C1491	C149	0.216370	0.808630	0.239630
H1161	H116	0.215370	0.773930	0.272530
C1501	C150	0.274570	0.866330	0.228230
H1171	H117	0.312170	0.869930	0.253630
C1511	C151	0.098770	0.742830	0.215930
C1521	C152	0.303370	0.048730	0.246030
H1181	H118	0.282870	0.019130	0.298430
C1531	C153	0.303870	0.107130	0.247430
H1191	H119	0.284870	0.116830	0.301330
O521	O52	0.764030	0.033970	0.609170
O531	O53	0.714830	0.068670	0.504070
O541	O54	0.011030	0.575570	0.415170
H1201	H120	0.647330	0.136670	0.283670
C1541	C154	0.942130	0.251670	0.511670
C1551	C155	0.884830	0.245770	0.476870
H1211	H121	0.885030	0.280670	0.446570
C1561	C156	0.827930	0.189170	0.486670
H1221	H122	0.790430	0.185670	0.461270
C1571	C157	0.826830	0.136970	0.534770
C1581	C158	0.883030	0.141970	0.572970
H1231	H123	0.882030	0.107270	0.605870
C1591	C159	0.941230	0.199670	0.561570
H1241	H124	0.978830	0.203270	0.586970
C1601	C160	0.765430	0.076170	0.549270
C1611	C161	0.970030	0.382070	0.579370
H1251	H125	0.949530	0.352470	0.631770
C1621	C162	0.970530	0.440470	0.580770
H1261	H126	0.951530	0.450170	0.634670
La11	La1	0.666670	0.018880	0.333330
O551	O55	0.666670	0.122480	0.333330
La21	La2	0.981120	0.647780	0.333330
O561	O56	0.877520	0.544180	0.333330
La31	La3	0.352220	0.333330	0.333330
O571	O57	0.455820	0.333330	0.333330
La41	La4	0.018880	0.666670	0.666670
O581	O58	0.122480	0.666670	0.666670
La51	La5	0.685550	0.000000	0.000000
O591	O59	0.789150	0.000000	0.000000
La61	La6	0.647780	0.981120	0.666670
O601	O60	0.544180	0.877520	0.666670
La71	La7	0.314450	0.314450	0.000000
O611	O61	0.210850	0.210850	0.000000
La81	La8	0.333330	0.352220	0.666670
O621	O62	0.333330	0.455820	0.666670
La91	La9	0.000000	0.685550	0.000000
O631	O63	0.000000	0.789150	0.000000
N11	N1	0.333330	0.975720	0.166670
C1631	C163	0.333330	0.034920	0.166670
C1641	C164	0.333330	0.150020	0.166670
C1651	C165	0.333330	0.213220	0.166670
N21	N2	0.000000	0.309050	0.500000
C1661	C166	0.000000	0.368250	0.500000
C1671	C167	0.000000	0.483350	0.500000
C1681	C168	0.000000	0.546550	0.500000
N31	N3	0.024280	0.357620	0.166670
C1691	C169	0.965080	0.298420	0.166670
C1701	C170	0.849980	0.183320	0.166670
C1711	C171	0.786780	0.120120	0.166670
N41	N4	0.690950	0.690950	0.500000
C1721	C172	0.631750	0.631750	0.500000
C1731	C173	0.516650	0.516650	0.500000
C1741	C174	0.453450	0.453450	0.500000
N51	N5	0.642380	0.666670	0.166670
C1751	C175	0.701580	0.666670	0.166670
C1761	C176	0.816680	0.666670	0.166670
C1771	C177	0.879880	0.666670	0.166670
N61	N6	0.309050	0.000000	0.500000
C1781	C178	0.368250	0.000000	0.500000
C1791	C179	0.483350	0.000000	0.500000
C1801	C180	0.546550	0.000000	0.500000
N71	N7	0.975720	0.333330	0.833330
C1811	C181	0.034920	0.333330	0.833330
C1821	C182	0.150020	0.333330	0.833330
C1831	C183	0.213220	0.333330	0.833330
N81	N8	0.357620	0.024280	0.833330
C1841	C184	0.298420	0.965080	0.833330
C1851	C185	0.183320	0.849980	0.833330
C1861	C186	0.120120	0.786780	0.833330
N91	N9	0.666670	0.642380	0.833330
C1871	C187	0.666670	0.701580	0.833330
C1881	C188	0.666670	0.816680	0.833330
C1891	C189	0.666670	0.879880	0.833330
