data_RUZCOF_freeONLY_PM
_symmetry_space_group_name_H-M	'P1'
_cell_length_a	9.909600
_cell_length_b	15.678000
_cell_length_c	13.802200
_cell_angle_alpha	90.000000
_cell_angle_beta	90.000000
_cell_angle_gamma	90.000000
_symmetry_Int_Tables_number 1

loop_
_symmetry_equiv_pos_as_xyz
'x,y,z'

loop_
_atom_site_label
_atom_site_type_symbol
_atom_site_fract_x
_atom_site_fract_y
_atom_site_fract_z
Zn11	Zn1	0.040040	0.582530	0.607350
P11	P1	0.234910	0.613620	0.784430
H11	H1	0.274000	0.533000	0.772900
P21	P2	0.971690	0.383340	0.613920
H21	H2	0.870000	0.395900	0.684000
O11	O1	0.357400	0.664300	0.805200
O21	O2	0.165000	0.640200	0.692200
O31	O3	0.146700	0.616700	0.873700
O41	O4	0.051100	0.303900	0.643700
O51	O5	0.902000	0.370800	0.517100
O61	O6	0.061300	0.460400	0.616200
Zn21	Zn2	0.459960	0.917470	0.107350
P31	P3	0.265090	0.886380	0.284430
H31	H3	0.226000	0.967000	0.272900
P41	P4	0.528310	0.116660	0.113920
H41	H4	0.630000	0.104100	0.184000
O71	O7	0.142600	0.835700	0.305200
O81	O8	0.335000	0.859800	0.192200
O91	O9	0.353300	0.883300	0.373700
O101	O10	0.448900	0.196100	0.143700
O111	O11	0.598000	0.129200	0.017100
O121	O12	0.438700	0.039600	0.116200
Zn31	Zn3	0.959960	0.582530	0.892650
P51	P5	0.765090	0.613620	0.715570
H51	H5	0.726000	0.533000	0.727100
P61	P6	0.028310	0.383340	0.886080
H61	H6	0.130000	0.395900	0.816000
O131	O13	0.642600	0.664300	0.694800
O141	O14	0.835000	0.640200	0.807800
O151	O15	0.853300	0.616700	0.626300
O161	O16	0.948900	0.303900	0.856300
O171	O17	0.098000	0.370800	0.982900
O181	O18	0.938700	0.460400	0.883800
Zn41	Zn4	0.540040	0.917470	0.392650
P71	P7	0.734910	0.886380	0.215570
H71	H7	0.774000	0.967000	0.227100
P81	P8	0.471690	0.116660	0.386080
H81	H8	0.370000	0.104100	0.316000
O191	O19	0.857400	0.835700	0.194800
O201	O20	0.665000	0.859800	0.307800
O211	O21	0.646700	0.883300	0.126300
O221	O22	0.551100	0.196100	0.356300
O231	O23	0.402000	0.129200	0.482900
O241	O24	0.561300	0.039600	0.383800
Zn51	Zn5	0.959960	0.417470	0.392650
P91	P9	0.765090	0.386380	0.215570
H91	H9	0.726000	0.467000	0.227100
P101	P10	0.028310	0.616660	0.386080
H101	H10	0.130000	0.604100	0.316000
O251	O25	0.642600	0.335700	0.194800
O261	O26	0.835000	0.359800	0.307800
O271	O27	0.853300	0.383300	0.126300
O281	O28	0.948900	0.696100	0.356300
O291	O29	0.098000	0.629200	0.482900
O301	O30	0.938700	0.539600	0.383800
Zn61	Zn6	0.540040	0.082530	0.892650
P111	P11	0.734910	0.113620	0.715570
H111	H11	0.774000	0.033000	0.727100
P121	P12	0.471690	0.883340	0.886080
H121	H12	0.370000	0.895900	0.816000
O311	O31	0.857400	0.164300	0.694800
O321	O32	0.665000	0.140200	0.807800
O331	O33	0.646700	0.116700	0.626300
O341	O34	0.551100	0.803900	0.856300
O351	O35	0.402000	0.870800	0.982900
O361	O36	0.561300	0.960400	0.883800
Zn71	Zn7	0.040040	0.417470	0.107350
P131	P13	0.234910	0.386380	0.284430
H131	H13	0.274000	0.467000	0.272900
P141	P14	0.971690	0.616660	0.113920
H141	H14	0.870000	0.604100	0.184000
O371	O37	0.357400	0.335700	0.305200
O381	O38	0.165000	0.359800	0.192200
O391	O39	0.146700	0.383300	0.373700
O401	O40	0.051100	0.696100	0.143700
O411	O41	0.902000	0.629200	0.017100
O421	O42	0.061300	0.539600	0.116200
Zn81	Zn8	0.459960	0.082530	0.607350
P151	P15	0.265090	0.113620	0.784430
H151	H15	0.226000	0.033000	0.772900
P161	P16	0.528310	0.883340	0.613920
H161	H16	0.630000	0.895900	0.684000
O431	O43	0.142600	0.164300	0.805200
O441	O44	0.335000	0.140200	0.692200
O451	O45	0.353300	0.116700	0.873700
O461	O46	0.448900	0.803900	0.643700
O471	O47	0.598000	0.870800	0.517100
O481	O48	0.438700	0.960400	0.616200
Zn91	Zn9	0.000000	0.227880	0.750000
Zn101	Zn10	0.500000	0.272120	0.250000
Zn111	Zn11	0.000000	0.772120	0.250000
Zn121	Zn12	0.500000	0.727880	0.750000
