data_SABVOH_manual_PM
_symmetry_space_group_name_H-M	'P1'
_cell_length_a	17.129000
_cell_length_b	6.628400
_cell_length_c	12.181600
_cell_angle_alpha	90.000000
_cell_angle_beta	90.000000
_cell_angle_gamma	90.000000
_symmetry_Int_Tables_number 1

loop_
_symmetry_equiv_pos_as_xyz
'x,y,z'

loop_
_atom_site_label
_atom_site_type_symbol
_atom_site_fract_x
_atom_site_fract_y
_atom_site_fract_z
O11	O1	0.082950	0.927560	0.081890
O21	O2	0.433120	0.927990	0.393870
C31	C3	0.228720	0.936700	0.195020
C41	C4	0.299440	0.936810	0.254170
H51	H5	0.203440	0.079280	0.171000
H61	H6	0.325730	0.079550	0.275420
O71	O7	0.419580	0.083100	0.578350
O81	O8	0.070250	0.084860	0.894970
C91	C9	0.273180	0.071400	0.692560
C101	C10	0.201920	0.071780	0.750980
H111	H11	0.299060	0.928860	0.670060
H121	H12	0.176100	0.928680	0.773570
O131	O13	0.918680	0.427460	0.916540
O141	O14	0.569640	0.428010	0.603100
C151	C15	0.771420	0.436700	0.806730
C161	C16	0.700820	0.436850	0.747190
H171	H17	0.796740	0.579570	0.830250
H181	H18	0.674860	0.579720	0.724930
O191	O19	0.583520	0.583150	0.416880
O201	O20	0.932500	0.584390	0.099140
C211	C21	0.729870	0.571140	0.302250
C221	C22	0.800870	0.571580	0.243610
H231	H23	0.704770	0.428600	0.326520
H241	H24	0.827310	0.428770	0.222210
O251	O25	0.918290	0.084230	0.919040
O261	O26	0.571710	0.085910	0.598580
C271	C27	0.771550	0.073440	0.806140
C281	C28	0.700970	0.073620	0.746450
H291	H29	0.797090	0.930470	0.829290
H301	H30	0.675140	0.930710	0.723840
O311	O31	0.582930	0.926350	0.412460
O321	O32	0.933370	0.927490	0.102420
C331	C33	0.729940	0.934500	0.302530
C341	C34	0.800900	0.934870	0.244200
H351	H35	0.704890	0.077460	0.327040
H361	H36	0.827340	0.077450	0.223210
O371	O37	0.083480	0.585000	0.079000
O381	O38	0.431360	0.585220	0.397970
C391	C39	0.228570	0.573400	0.195480
C401	C40	0.299260	0.573380	0.254880
H411	H41	0.203140	0.430770	0.171750
H421	H42	0.325340	0.430370	0.276550
O431	O43	0.419980	0.426180	0.582330
O441	O44	0.069160	0.427440	0.891410
C451	C45	0.273130	0.434520	0.692250
C461	C46	0.201910	0.435070	0.750390
H471	H47	0.298970	0.577420	0.669550
H481	H48	0.176170	0.578020	0.772640
Al491	Al49	0.001840	0.008150	0.998910
Al501	Al50	0.502460	0.007000	0.496310
Al511	Al51	0.001800	0.508040	0.996280
Al521	Al52	0.501490	0.508260	0.499950
O531	O53	0.000330	0.759040	0.938240
C541	C54	0.404990	0.755810	0.362760
C551	C55	0.114100	0.755780	0.106470
C561	C56	0.335040	0.755180	0.287380
C571	C57	0.190730	0.755120	0.167570
O581	O58	0.507520	0.259150	0.439970
C591	C59	0.096480	0.255250	0.859410
C601	C60	0.388570	0.253660	0.605740
C611	C61	0.165790	0.253900	0.783010
C621	C62	0.311160	0.253170	0.665100
O631	O63	0.009010	0.259080	0.055890
C641	C64	0.597270	0.255990	0.634820
C651	C65	0.887100	0.255460	0.892950
C661	C66	0.665470	0.255450	0.713000
C671	C67	0.809560	0.254970	0.833930
O681	O68	0.501210	0.759320	0.558040
C691	C69	0.906020	0.755050	0.134390
C701	C70	0.614170	0.753730	0.388940
C711	C71	0.836580	0.753670	0.210890
C721	C72	0.691360	0.753120	0.328910
H731	H73	0.514160	0.260190	0.369790
H741	H74	0.502150	0.760470	0.628870
H751	H75	0.018410	0.260040	0.125430
H761	H76	0.999650	0.760070	0.867450
