data_SADMIV_freeONLY_PM
_symmetry_space_group_name_H-M	'P1'
_cell_length_a	6.830600
_cell_length_b	7.642700
_cell_length_c	10.584400
_cell_angle_alpha	111.164000
_cell_angle_beta	102.975000
_cell_angle_gamma	90.000000
_symmetry_Int_Tables_number 1

loop_
_symmetry_equiv_pos_as_xyz
'x,y,z'

loop_
_atom_site_label
_atom_site_type_symbol
_atom_site_fract_x
_atom_site_fract_y
_atom_site_fract_z
Fe11	Fe1	0.000000	0.000000	0.000000
Fe21	Fe2	0.500000	0.000000	0.000000
H11	H1	0.195000	0.897100	0.334800
H21	H2	0.660500	0.049700	0.430000
H31	H3	0.305000	0.562300	0.665200
H41	H4	0.839500	0.619700	0.570000
H51	H5	0.805000	0.102900	0.665200
H61	H6	0.339500	0.950300	0.570000
H71	H7	0.695000	0.437700	0.334800
H81	H8	0.160500	0.380300	0.430000
C11	C1	0.915800	0.969000	0.363000
C21	C2	0.113500	0.940100	0.403800
C31	C3	0.802300	0.028900	0.459200
C41	C4	0.825500	0.935900	0.216200
C51	C5	0.584200	0.606000	0.637000
C61	C6	0.386500	0.536300	0.596200
C71	C7	0.697700	0.569700	0.540800
C81	C8	0.674500	0.719700	0.783800
C91	C9	0.084200	0.031000	0.637000
C101	C10	0.886500	0.059900	0.596200
C111	C11	0.197700	0.971100	0.540800
C121	C12	0.174500	0.064100	0.783800
C131	C13	0.415800	0.394000	0.363000
C141	C14	0.613500	0.463700	0.403800
C151	C15	0.302300	0.430300	0.459200
C161	C16	0.325500	0.280300	0.216200
O11	O1	0.932400	0.884800	0.127400
O21	O2	0.640500	0.958200	0.177800
O31	O3	0.567600	0.757400	0.872600
O41	O4	0.859500	0.780400	0.822200
O51	O5	0.067600	0.115200	0.872600
O61	O6	0.359500	0.041800	0.822200
O71	O7	0.432400	0.242600	0.127400
O81	O8	0.140500	0.219600	0.177800
O91	O9	0.250000	0.886500	0.000000
O101	O10	0.750000	0.113500	0.000000
