data_SAKRED_freeONLY_PM
_symmetry_space_group_name_H-M	'P1'
_cell_length_a	10.337000
_cell_length_b	11.649000
_cell_length_c	20.464000
_cell_angle_alpha	90.000000
_cell_angle_beta	90.000000
_cell_angle_gamma	90.000000
_symmetry_Int_Tables_number 1

loop_
_symmetry_equiv_pos_as_xyz
'x,y,z'

loop_
_atom_site_label
_atom_site_type_symbol
_atom_site_fract_x
_atom_site_fract_y
_atom_site_fract_z
Zn11	Zn1	0.956460	0.577660	0.006780
Zn21	Zn2	0.643000	0.675210	0.007280
Zn31	Zn3	0.543540	0.422340	0.506780
Zn41	Zn4	0.857000	0.324790	0.507280
Zn51	Zn5	0.043540	0.077660	0.493220
Zn61	Zn6	0.357000	0.175210	0.492720
Zn71	Zn7	0.456460	0.922340	0.993220
Zn81	Zn8	0.143000	0.824790	0.992720
H11	H1	0.940400	0.472600	0.811600
H21	H2	0.565400	0.561500	0.815000
H31	H3	0.922700	0.425700	0.701400
H41	H4	0.546900	0.515600	0.705300
H51	H5	0.736400	0.974600	0.992700
H61	H6	0.649900	0.960800	0.886400
H71	H7	0.801400	0.961500	0.883500
H81	H8	0.725700	0.845900	0.875300
H91	H9	0.959900	0.356500	0.929500
H101	H10	0.172300	0.258400	0.042600
H111	H11	0.131300	0.130000	0.032500
H121	H12	0.243100	0.182800	0.990300
H131	H13	0.973100	0.182900	0.882300
H141	H14	0.114000	0.133700	0.886600
H151	H15	0.004200	0.082100	0.930500
H161	H16	0.559600	0.527400	0.311600
H171	H17	0.934600	0.438500	0.315000
H181	H18	0.577300	0.574300	0.201400
H191	H19	0.953100	0.484400	0.205300
H201	H20	0.763600	0.025400	0.492700
H211	H21	0.850100	0.039200	0.386400
H221	H22	0.698600	0.038500	0.383500
H231	H23	0.774300	0.154100	0.375300
H241	H24	0.540100	0.643500	0.429500
H251	H25	0.327700	0.741600	0.542600
H261	H26	0.368700	0.870000	0.532500
H271	H27	0.256900	0.817200	0.490300
H281	H28	0.526900	0.817100	0.382300
H291	H29	0.386000	0.866300	0.386600
H301	H30	0.495800	0.917900	0.430500
H311	H31	0.059600	0.972600	0.688400
H321	H32	0.434600	0.061500	0.685000
H331	H33	0.077300	0.925700	0.798600
H341	H34	0.453100	0.015600	0.794700
H351	H35	0.263600	0.474600	0.507300
H361	H36	0.350100	0.460800	0.613600
H371	H37	0.198600	0.461500	0.616500
H381	H38	0.274300	0.345900	0.624700
H391	H39	0.040100	0.856500	0.570500
H401	H40	0.827700	0.758400	0.457400
H411	H41	0.868700	0.630000	0.467500
H421	H42	0.756900	0.682800	0.509700
H431	H43	0.026900	0.682900	0.617700
H441	H44	0.886000	0.633700	0.613400
H451	H45	0.995800	0.582100	0.569500
H461	H46	0.440400	0.027400	0.188400
H471	H47	0.065400	0.938500	0.185000
H481	H48	0.422700	0.074300	0.298600
H491	H49	0.046900	0.984400	0.294700
H501	H50	0.236400	0.525400	0.007300
H511	H51	0.149900	0.539200	0.113600
H521	H52	0.301400	0.538500	0.116500
H531	H53	0.225700	0.654100	0.124700
H541	H54	0.459900	0.143500	0.070500
H551	H55	0.672300	0.241600	0.957400
H561	H56	0.631300	0.370000	0.967500
H571	H57	0.743100	0.317200	0.009700
H581	H58	0.473100	0.317100	0.117700
H591	H59	0.614000	0.366300	0.113400
H601	H60	0.504200	0.417900	0.069500
C11	C1	0.767100	0.553300	0.895320
C21	C2	0.754600	0.522200	0.824250
C31	C3	0.861600	0.481300	0.790250
C41	C4	0.637100	0.534600	0.792270
C51	C5	0.851100	0.453300	0.723950
C61	C6	0.626000	0.507100	0.726440
C71	C7	0.733400	0.466800	0.691910
C81	C8	0.722800	0.438000	0.620610
C91	C9	0.854000	0.833000	0.987900
C101	C10	0.732400	0.899600	0.971040
C111	C11	0.726800	0.918700	0.897200
C121	C12	0.016800	0.337200	0.962950
C131	C13	0.161600	0.198200	0.011000
C141	C14	0.037200	0.151100	0.911000
C151	C15	0.732900	0.446700	0.395320
C161	C16	0.745400	0.477800	0.324250
C171	C17	0.638400	0.518700	0.290250
C181	C18	0.862900	0.465400	0.292270
C191	C19	0.648900	0.546700	0.223950
C201	C20	0.874000	0.492900	0.226440
C211	C21	0.766600	0.533200	0.191910
C221	C22	0.777200	0.562000	0.120610
C231	C23	0.646000	0.167000	0.487900
C241	C24	0.767600	0.100400	0.471040
C251	C25	0.773200	0.081300	0.397200
C261	C26	0.483200	0.662800	0.462950
C271	C27	0.338400	0.801800	0.511000
C281	C28	0.462800	0.848900	0.411000
C291	C29	0.232900	0.053300	0.604680
C301	C30	0.245400	0.022200	0.675750
C311	C31	0.138400	0.981300	0.709750
C321	C32	0.362900	0.034600	0.707730
C331	C33	0.148900	0.953300	0.776050
C341	C34	0.374000	0.007100	0.773560
C351	C35	0.266600	0.966800	0.808090
C361	C36	0.277200	0.938000	0.879390
C371	C37	0.146000	0.333000	0.512100
C381	C38	0.267600	0.399600	0.528960
C391	C39	0.273200	0.418700	0.602800
C401	C40	0.983200	0.837200	0.537050
C411	C41	0.838400	0.698200	0.489000
C421	C42	0.962800	0.651100	0.589000
C431	C43	0.267100	0.946700	0.104680
C441	C44	0.254600	0.977800	0.175750
C451	C45	0.361600	0.018700	0.209750
C461	C46	0.137100	0.965400	0.207730
C471	C47	0.351100	0.046700	0.276050
C481	C48	0.126000	0.992900	0.273560
C491	C49	0.233400	0.033200	0.308090
C501	C50	0.222800	0.062000	0.379390
C511	C51	0.354000	0.667000	0.012100
C521	C52	0.232400	0.600400	0.028960
C531	C53	0.226800	0.581300	0.102800
C541	C54	0.516800	0.162800	0.037050
C551	C55	0.661600	0.301800	0.989000
C561	C56	0.537200	0.348900	0.089000
N11	N1	0.067800	0.233700	0.962000
N21	N2	0.432200	0.766300	0.462000
N31	N3	0.932200	0.733700	0.538000
N41	N4	0.567800	0.266300	0.038000
O11	O1	0.667100	0.585900	0.924470
O21	O2	0.878100	0.542100	0.920100
O31	O3	0.618200	0.464700	0.592750
O41	O4	0.820000	0.391200	0.595090
O51	O5	0.841400	0.729200	0.005350
O61	O6	0.959700	0.884400	0.981520
O71	O7	0.619900	0.841200	0.992940
O81	O8	0.039200	0.410800	0.005220
O91	O9	0.832900	0.414100	0.424470
O101	O10	0.621900	0.457900	0.420100
O111	O11	0.881800	0.535300	0.092750
O121	O12	0.680000	0.608800	0.095090
O131	O13	0.658600	0.270800	0.505350
O141	O14	0.540300	0.115600	0.481520
O151	O15	0.880100	0.158800	0.492940
O161	O16	0.460800	0.589200	0.505220
O171	O17	0.332900	0.085900	0.575530
O181	O18	0.121900	0.042100	0.579900
O191	O19	0.381800	0.964700	0.907250
O201	O20	0.180000	0.891200	0.904910
O211	O21	0.158600	0.229200	0.494650
O221	O22	0.040300	0.384400	0.518480
O231	O23	0.380100	0.341200	0.507060
O241	O24	0.960800	0.910800	0.494780
O251	O25	0.167100	0.914100	0.075530
O261	O26	0.378100	0.957900	0.079900
O271	O27	0.118200	0.035300	0.407250
O281	O28	0.320000	0.108800	0.404910
O291	O29	0.341400	0.770800	0.994650
O301	O30	0.459700	0.615600	0.018480
O311	O31	0.119900	0.658800	0.007060
O321	O32	0.539200	0.089200	0.994780
