data_SALLAT_freeONLY_PM
_symmetry_space_group_name_H-M	'P1'
_cell_length_a	8.164990
_cell_length_b	8.841900
_cell_length_c	12.225900
_cell_angle_alpha	75.113100
_cell_angle_beta	70.493100
_cell_angle_gamma	62.501800
_symmetry_Int_Tables_number 1

loop_
_symmetry_equiv_pos_as_xyz
'x,y,z'

loop_
_atom_site_label
_atom_site_type_symbol
_atom_site_fract_x
_atom_site_fract_y
_atom_site_fract_z
Cd11	Cd1	0.425410	0.250000	0.750000
Cd21	Cd2	0.574590	0.750000	0.250000
H11	H1	0.490700	0.524900	0.104900
H21	H2	0.555800	0.335200	0.118200
H31	H3	0.120500	0.975100	0.395100
H41	H4	0.009200	0.164800	0.381800
H51	H5	0.509300	0.475100	0.895100
H61	H6	0.444200	0.664800	0.881800
H71	H7	0.879500	0.024900	0.604900
H81	H8	0.990800	0.835200	0.618200
C11	C1	0.500300	0.419300	0.260900
C21	C2	0.543700	0.256000	0.332000
C31	C3	0.530500	0.248800	0.450600
C41	C4	0.592800	0.104400	0.288600
C51	C5	0.180500	0.080700	0.239100
C61	C6	0.131700	0.244000	0.168000
C71	C7	0.229900	0.251200	0.049400
C81	C8	0.985800	0.395600	0.211400
C91	C9	0.499700	0.580700	0.739100
C101	C10	0.456300	0.744000	0.668000
C111	C11	0.469500	0.751200	0.549400
C121	C12	0.407200	0.895600	0.711400
C131	C13	0.819500	0.919300	0.760900
C141	C14	0.868300	0.756000	0.832000
C151	C15	0.770100	0.748800	0.950600
C161	C16	0.014200	0.604400	0.788600
N11	N1	0.517600	0.427400	0.148200
N21	N2	0.518900	0.241700	0.547700
N31	N3	0.634300	0.980100	0.252700
N41	N4	0.093200	0.072600	0.351800
N51	N5	0.308300	0.258300	0.952300
N61	N6	0.867100	0.519900	0.247300
N71	N7	0.482400	0.572600	0.851800
N81	N8	0.481100	0.758300	0.452300
N91	N9	0.365700	0.019900	0.747300
N101	N10	0.906800	0.927400	0.648200
N111	N11	0.691700	0.741700	0.047700
N121	N12	0.132900	0.480100	0.752700
O11	O1	0.444460	0.553290	0.305990
O21	O2	0.303740	0.946710	0.194010
O31	O3	0.555540	0.446710	0.694010
O41	O4	0.696260	0.053290	0.805990
