data_SARGUP_freeONLY_PM
_symmetry_space_group_name_H-M	'P1'
_cell_length_a	6.855130
_cell_length_b	15.231700
_cell_length_c	15.231700
_cell_angle_alpha	62.209400
_cell_angle_beta	81.372000
_cell_angle_gamma	98.628000
_symmetry_Int_Tables_number 1

loop_
_symmetry_equiv_pos_as_xyz
'x,y,z'

loop_
_atom_site_label
_atom_site_type_symbol
_atom_site_fract_x
_atom_site_fract_y
_atom_site_fract_z
Fe11	Fe1	0.886770	0.679350	0.588840
Fe21	Fe2	0.475610	0.588840	0.731810
Fe31	Fe3	0.207420	0.731810	0.679350
Fe41	Fe4	0.113230	0.320650	0.411160
Fe51	Fe5	0.524390	0.411160	0.268190
Fe61	Fe6	0.792580	0.268190	0.320650
H11	H1	0.656700	0.019600	0.537500
H21	H2	0.194200	0.537500	0.442900
H31	H3	0.637100	0.442900	0.019600
H41	H4	0.343300	0.980400	0.462500
H51	H5	0.805800	0.462500	0.557100
H61	H6	0.362900	0.557100	0.980400
C11	C1	0.651650	0.826090	0.612340
C21	C2	0.834090	0.916700	0.554030
C31	C3	0.032850	0.895550	0.540200
C41	C4	0.801210	0.010210	0.517880
C51	C5	0.263990	0.612340	0.561570
C61	C6	0.388120	0.554030	0.529270
C71	C7	0.573050	0.540200	0.564250
C81	C8	0.319090	0.517880	0.471910
C91	C9	0.825560	0.561570	0.826090
C101	C10	0.917390	0.529270	0.916700
C111	C11	0.137300	0.564250	0.895550
C121	C12	0.791000	0.471910	0.010210
C131	C13	0.348350	0.173910	0.387660
C141	C14	0.165910	0.083300	0.445970
C151	C15	0.967150	0.104450	0.459800
C161	C16	0.198790	0.989790	0.482120
C171	C17	0.736010	0.387660	0.438430
C181	C18	0.611880	0.445970	0.470730
C191	C19	0.426950	0.459800	0.435750
C201	C20	0.680910	0.482120	0.528090
C211	C21	0.174440	0.438430	0.173910
C221	C22	0.082610	0.470730	0.083300
C231	C23	0.862700	0.435750	0.104450
C241	C24	0.209000	0.528090	0.989790
O11	O1	0.677730	0.736530	0.642240
O21	O2	0.482000	0.843600	0.624900
O31	O3	0.065420	0.799740	0.576480
O41	O4	0.319970	0.642240	0.621230
O51	O5	0.106900	0.624900	0.531500
O61	O6	0.641900	0.576480	0.623780
O71	O7	0.941200	0.621230	0.736530
O81	O8	0.638400	0.531500	0.843600
O91	O9	0.265680	0.623780	0.799740
O101	O10	0.322270	0.263470	0.357760
O111	O11	0.518000	0.156400	0.375100
O121	O12	0.934580	0.200260	0.423520
O131	O13	0.680030	0.357760	0.378770
O141	O14	0.893100	0.375100	0.468500
O151	O15	0.358100	0.423520	0.376220
O161	O16	0.058800	0.378770	0.263470
O171	O17	0.361600	0.468500	0.156400
O181	O18	0.734320	0.376220	0.200260
