data_SARHAW_freeONLY_PM
_symmetry_space_group_name_H-M	'P1'
_cell_length_a	6.944820
_cell_length_b	15.130400
_cell_length_c	15.130400
_cell_angle_alpha	62.297100
_cell_angle_beta	81.199200
_cell_angle_gamma	98.800800
_symmetry_Int_Tables_number 1

loop_
_symmetry_equiv_pos_as_xyz
'x,y,z'

loop_
_atom_site_label
_atom_site_type_symbol
_atom_site_fract_x
_atom_site_fract_y
_atom_site_fract_z
Fe11	Fe1	0.876300	0.680300	0.580100
Fe21	Fe2	0.456400	0.580100	0.739600
Fe31	Fe3	0.196000	0.739600	0.680300
Fe41	Fe4	0.123700	0.319700	0.419900
Fe51	Fe5	0.543600	0.419900	0.260400
Fe61	Fe6	0.804000	0.260400	0.319700
H11	H1	0.643900	0.008900	0.547200
H21	H2	0.191100	0.547200	0.443900
H31	H3	0.635000	0.443900	0.008900
H41	H4	0.356100	0.991100	0.452800
H51	H5	0.808900	0.452800	0.556100
H61	H6	0.365000	0.556100	0.991100
C11	C1	0.658700	0.828600	0.603000
C21	C2	0.839400	0.917300	0.552800
C31	C3	0.025800	0.893000	0.545300
C41	C4	0.814900	0.012300	0.519100
C51	C5	0.261700	0.603000	0.568400
C61	C6	0.392200	0.552800	0.529900
C71	C7	0.571100	0.545300	0.561700
C81	C8	0.334000	0.519100	0.468600
C91	C9	0.830100	0.568400	0.828600
C101	C10	0.922100	0.529900	0.917300
C111	C11	0.132800	0.561700	0.893000
C121	C12	0.802600	0.468600	0.012300
C131	C13	0.341300	0.171400	0.397000
C141	C14	0.160600	0.082700	0.447200
C151	C15	0.974200	0.107000	0.454700
C161	C16	0.185100	0.987700	0.480900
C171	C17	0.738300	0.397000	0.431600
C181	C18	0.607800	0.447200	0.470100
C191	C19	0.428900	0.454700	0.438300
C201	C20	0.666000	0.480900	0.531400
C211	C21	0.169900	0.431600	0.171400
C221	C22	0.077900	0.470100	0.082700
C231	C23	0.867200	0.438300	0.107000
C241	C24	0.197400	0.531400	0.987700
O11	O1	0.668300	0.730400	0.658700
O21	O2	0.479800	0.837200	0.624500
O31	O3	0.077100	0.801500	0.565100
O41	O4	0.327000	0.658700	0.610900
O51	O5	0.104300	0.624500	0.538300
O61	O6	0.642200	0.565100	0.633400
O71	O7	0.937900	0.610900	0.730400
O81	O8	0.642600	0.538300	0.837200
O91	O9	0.275600	0.633400	0.801500
O101	O10	0.331700	0.269600	0.341300
O111	O11	0.520200	0.162800	0.375500
O121	O12	0.922900	0.198500	0.434900
O131	O13	0.673000	0.341300	0.389100
O141	O14	0.895700	0.375500	0.461700
O151	O15	0.357800	0.434900	0.366600
O161	O16	0.062100	0.389100	0.269600
O171	O17	0.357400	0.461700	0.162800
O181	O18	0.724400	0.366600	0.198500
