data_SARMII_freeONLY_PM
_symmetry_space_group_name_H-M	'P1'
_cell_length_a	15.747000
_cell_length_b	22.897900
_cell_length_c	22.897900
_cell_angle_alpha	83.209800
_cell_angle_beta	69.888200
_cell_angle_gamma	69.888200
_symmetry_Int_Tables_number 1

loop_
_symmetry_equiv_pos_as_xyz
'x,y,z'

loop_
_atom_site_label
_atom_site_type_symbol
_atom_site_fract_x
_atom_site_fract_y
_atom_site_fract_z
Gd11	Gd1	0.588280	0.253250	0.206780
Gd21	Gd2	0.340750	0.251070	0.193750
Gd31	Gd3	0.048310	0.746750	0.793220
Gd41	Gd4	0.785570	0.748930	0.806250
Gd51	Gd5	0.045060	0.293220	0.753250
Gd61	Gd6	0.784500	0.306250	0.751070
Gd71	Gd7	0.091530	0.706780	0.246750
Gd81	Gd8	0.841820	0.693750	0.248930
Gd91	Gd9	0.548310	0.793220	0.746750
Gd101	Gd10	0.285570	0.806250	0.748930
Gd111	Gd11	0.088280	0.206780	0.253250
Gd121	Gd12	0.840750	0.193750	0.251070
Gd131	Gd13	0.591530	0.246750	0.706780
Gd141	Gd14	0.341820	0.248930	0.693750
Gd151	Gd15	0.545060	0.753250	0.293220
Gd161	Gd16	0.284500	0.751070	0.306250
H11	H1	0.592900	0.322200	0.999200
H21	H2	0.610600	0.316900	0.894300
H31	H3	0.562300	0.130900	0.876100
H41	H4	0.528300	0.053900	0.943900
H51	H5	0.521700	0.056900	0.046100
H61	H6	0.540200	0.137900	0.082300
H71	H7	0.264000	0.295500	0.507700
H81	H8	0.268900	0.294600	0.406000
H91	H9	0.513000	0.117700	0.320900
H101	H10	0.613200	0.037700	0.357100
H111	H11	0.603500	0.029400	0.460600
H121	H12	0.495900	0.109300	0.527700
H131	H13	0.453400	0.450700	0.175300
H141	H14	0.422100	0.553400	0.195200
H151	H15	0.178500	0.591100	0.382300
H161	H16	0.088700	0.536500	0.449900
H171	H17	0.113800	0.433900	0.425700
H181	H18	0.233500	0.387000	0.337200
H191	H19	0.914300	0.677800	0.000800
H201	H20	0.821800	0.683100	0.105700
H211	H21	0.569300	0.869100	0.123900
H221	H22	0.526100	0.946100	0.056100
H231	H23	0.624700	0.943100	0.953900
H241	H24	0.760400	0.862100	0.917700
H251	H25	0.067200	0.704500	0.492300
H261	H26	0.969500	0.705400	0.594000
H271	H27	0.951600	0.882300	0.679100
H281	H28	0.008000	0.962300	0.642900
H291	H29	0.093500	0.970600	0.539400
H301	H30	0.132900	0.890700	0.472300
H311	H31	0.079400	0.549300	0.824700
H321	H32	0.170700	0.446600	0.804800
H331	H33	0.151900	0.408900	0.617700
H341	H34	0.075100	0.463500	0.550100
H351	H35	0.973400	0.566100	0.574300
H361	H36	0.957700	0.613000	0.662800
H371	H37	0.842100	0.500800	0.822200
H381	H38	0.754900	0.605700	0.816900
H391	H39	0.688400	0.623900	0.630900
H401	H40	0.722200	0.556100	0.553900
H411	H41	0.817800	0.453900	0.556900
H421	H42	0.872500	0.417700	0.637900
H431	H43	0.021700	0.992300	0.795500
H441	H44	0.924900	0.094000	0.794600
H451	H45	0.083900	0.179100	0.617700
H461	H46	0.220300	0.142900	0.537700
H471	H47	0.314100	0.039400	0.529400
H481	H48	0.273600	0.972300	0.609300
H491	H49	0.878700	0.324700	0.950700
H501	H50	0.867300	0.304800	0.053400
H511	H51	0.810800	0.117700	0.091100
H521	H52	0.788600	0.050100	0.036500
H531	H53	0.789500	0.074300	0.933900
H541	H54	0.820700	0.162800	0.887000
H551	H55	0.165100	0.499200	0.177800
H561	H56	0.177500	0.394300	0.183100
H571	H57	0.943200	0.376100	0.369100
H581	H58	0.832200	0.443900	0.446100
H591	H59	0.828600	0.546100	0.443100
H601	H60	0.928100	0.582300	0.362100
H611	H61	0.809500	0.007700	0.204500
H621	H62	0.813500	0.906000	0.205400
H631	H63	0.880700	0.820900	0.382300
H641	H64	0.900900	0.857100	0.462300
H651	H65	0.882900	0.960600	0.470600
H661	H66	0.855200	0.027700	0.390700
H671	H67	0.154100	0.675300	0.049300
H681	H68	0.225500	0.695200	0.946600
H691	H69	0.019600	0.882300	0.908900
H701	H70	0.875200	0.949900	0.963500
H711	H71	0.797700	0.925700	0.066100
H721	H72	0.870500	0.837200	0.113000
H731	H73	0.414300	0.000800	0.677800
H741	H74	0.321800	0.105700	0.683100
H751	H75	0.069300	0.123900	0.869100
H761	H76	0.026100	0.056100	0.946100
H771	H77	0.124700	0.953900	0.943100
H781	H78	0.260400	0.917700	0.862100
H791	H79	0.567200	0.492300	0.704500
H801	H80	0.469500	0.594000	0.705400
H811	H81	0.451600	0.679100	0.882300
H821	H82	0.508000	0.642900	0.962300
H831	H83	0.593500	0.539400	0.970600
H841	H84	0.632900	0.472300	0.890700
H851	H85	0.579400	0.824700	0.549300
H861	H86	0.670700	0.804800	0.446600
H871	H87	0.651900	0.617700	0.408900
H881	H88	0.575100	0.550100	0.463500
H891	H89	0.473400	0.574300	0.566100
H901	H90	0.457700	0.662800	0.613000
H911	H91	0.092900	0.999200	0.322200
H921	H92	0.110600	0.894300	0.316900
H931	H93	0.062300	0.876100	0.130900
H941	H94	0.028300	0.943900	0.053900
H951	H95	0.021700	0.046100	0.056900
H961	H96	0.040200	0.082300	0.137900
H971	H97	0.764000	0.507700	0.295500
H981	H98	0.768900	0.406000	0.294600
H991	H99	0.013000	0.320900	0.117700
H1001	H100	0.113200	0.357100	0.037700
H1011	H101	0.103500	0.460600	0.029400
H1021	H102	0.995900	0.527700	0.109300
H1031	H103	0.953400	0.175300	0.450700
H1041	H104	0.922100	0.195200	0.553400
H1051	H105	0.678500	0.382300	0.591100
H1061	H106	0.588700	0.449900	0.536500
H1071	H107	0.613800	0.425700	0.433900
H1081	H108	0.733500	0.337200	0.387000
H1091	H109	0.665100	0.177800	0.499200
H1101	H110	0.677500	0.183100	0.394300
H1111	H111	0.443200	0.369100	0.376100
H1121	H112	0.332200	0.446100	0.443900
H1131	H113	0.328600	0.443100	0.546100
H1141	H114	0.428100	0.362100	0.582300
H1151	H115	0.309500	0.204500	0.007700
H1161	H116	0.313500	0.205400	0.906000
H1171	H117	0.380700	0.382300	0.820900
H1181	H118	0.400900	0.462300	0.857100
H1191	H119	0.382900	0.470600	0.960600
H1201	H120	0.355200	0.390700	0.027700
H1211	H121	0.654100	0.049300	0.675300
H1221	H122	0.725500	0.946600	0.695200
H1231	H123	0.519600	0.908900	0.882300
H1241	H124	0.375200	0.963500	0.949900
H1251	H125	0.297700	0.066100	0.925700
H1261	H126	0.370500	0.113000	0.837200
H1271	H127	0.342100	0.822200	0.500800
H1281	H128	0.254900	0.816900	0.605700
H1291	H129	0.188400	0.630900	0.623900
H1301	H130	0.222200	0.553900	0.556100
H1311	H131	0.317800	0.556900	0.453900
H1321	H132	0.372500	0.637900	0.417700
H1331	H133	0.521700	0.795500	0.992300
H1341	H134	0.424900	0.794600	0.094000
H1351	H135	0.583900	0.617700	0.179100
H1361	H136	0.720300	0.537700	0.142900
H1371	H137	0.814100	0.529400	0.039400
H1381	H138	0.773600	0.609300	0.972300
H1391	H139	0.378700	0.950700	0.324700
H1401	H140	0.367300	0.053400	0.304800
H1411	H141	0.310800	0.091100	0.117700
H1421	H142	0.288600	0.036500	0.050100
H1431	H143	0.289500	0.933900	0.074300
H1441	H144	0.320700	0.887000	0.162800
C11	C1	0.569400	0.241000	0.023400
C21	C2	0.587700	0.287900	0.984300
C31	C3	0.598600	0.284400	0.920600
C41	C4	0.591900	0.235300	0.897100
C51	C5	0.571000	0.185600	0.937000
C61	C6	0.557600	0.133400	0.917400
C71	C7	0.538000	0.086900	0.957700
C81	C8	0.532900	0.089300	0.019300
C91	C9	0.543900	0.137700	0.040900
C101	C10	0.561200	0.188500	0.001700
C111	C11	0.565700	0.247200	0.088800
C121	C12	0.604500	0.236500	0.829700
C131	C13	0.368700	0.213900	0.505500
C141	C14	0.308100	0.262500	0.481900
C151	C15	0.312400	0.262600	0.420200
C161	C16	0.380000	0.216000	0.379600
C171	C17	0.441400	0.165700	0.401500
C181	C18	0.508700	0.117100	0.362500
C191	C19	0.567700	0.068900	0.384500
C201	C20	0.563500	0.064000	0.446400
C211	C21	0.498300	0.111600	0.486400
C221	C22	0.435400	0.163700	0.466300
C231	C23	0.356500	0.220700	0.572900
C241	C24	0.378000	0.222000	0.313800
C251	C25	0.352300	0.434100	0.248100
C261	C26	0.404000	0.469000	0.210800
C271	C27	0.386700	0.530700	0.222900
C281	C28	0.316000	0.558100	0.276900
C291	C29	0.261700	0.522800	0.318600
C301	C30	0.189500	0.550100	0.373300
C311	C31	0.135400	0.518100	0.413500
C321	C32	0.151300	0.456100	0.399100
C331	C33	0.222600	0.428300	0.345500
C341	C34	0.278900	0.461100	0.303300
C351	C35	0.376700	0.368600	0.228400
C361	C36	0.299900	0.623200	0.289800
C371	C37	0.833800	0.759000	0.976600
C381	C38	0.859900	0.712100	0.015700
C391	C39	0.803600	0.715600	0.079400
C401	C40	0.724300	0.764700	0.102900
C411	C41	0.693600	0.814400	0.063000
C421	C42	0.608400	0.866600	0.082600
C431	C43	0.582600	0.913100	0.042300
C441	C44	0.641500	0.910700	0.980700
C451	C45	0.722500	0.862300	0.959100
C461	C46	0.751400	0.811500	0.998300
C471	C47	0.901700	0.752800	0.911200
C481	C48	0.670700	0.763500	0.170300
C491	C49	0.088100	0.786100	0.494500
C501	C50	0.052500	0.737500	0.518100
C511	C51	0.995200	0.737400	0.579800
C521	C52	0.975600	0.784000	0.620400
C531	C53	0.008600	0.834300	0.598500
C541	C54	0.988300	0.882900	0.637500
C551	C55	0.021100	0.931100	0.615500
C561	C56	0.073900	0.936000	0.553600
C571	C57	0.096300	0.888400	0.513600
C581	C58	0.065400	0.836300	0.533700
C591	C59	0.150100	0.779300	0.427100
C601	C60	0.913800	0.778000	0.686200
C611	C61	0.034500	0.565900	0.751900
C621	C62	0.083800	0.531000	0.789200
C631	C63	0.140300	0.469300	0.777100
C641	C64	0.151000	0.441900	0.723100
C651	C65	0.103100	0.477200	0.681400
C661	C66	0.112900	0.449900	0.626700
C671	C67	0.067000	0.481900	0.586500
C681	C68	0.006500	0.543900	0.600900
C691	C69	0.996400	0.571700	0.654500
C701	C70	0.043300	0.538900	0.696700
C711	C71	0.973700	0.631400	0.771600
C721	C72	0.212900	0.376800	0.710200
C731	C73	0.842800	0.476600	0.741000
C741	C74	0.822000	0.515700	0.787900
C751	C75	0.769200	0.579400	0.784400
C761	C76	0.739000	0.602900	0.735300
C771	C77	0.758000	0.563000	0.685600
C781	C78	0.725000	0.582600	0.633400
C791	C79	0.745700	0.542300	0.586900
C801	C80	0.802200	0.480700	0.589300
C811	C81	0.834800	0.459100	0.637700
C821	C82	0.812900	0.498300	0.688500
C831	C83	0.904500	0.411200	0.747200
C841	C84	0.684200	0.670300	0.736500
C851	C85	0.124200	0.994500	0.713900
C861	C86	0.040000	0.018100	0.762500
C871	C87	0.982600	0.079800	0.762600
C881	C88	0.009600	0.120400	0.716000
C891	C89	0.092900	0.098500	0.665700
C901	C90	0.121200	0.137500	0.617100
C911	C91	0.202200	0.115500	0.568900
C921	C92	0.259900	0.053600	0.564000
C931	C93	0.234700	0.013600	0.611600
C941	C94	0.151700	0.033700	0.663700
C951	C95	0.179400	0.927100	0.720700
C961	C96	0.941800	0.186200	0.722000
C971	C97	0.850400	0.251900	0.934100
C981	C98	0.864800	0.289200	0.969000
C991	C99	0.859600	0.277100	0.030700
C1001	C100	0.842900	0.223100	0.058100
C1011	C101	0.830300	0.181400	0.022800
C1021	C102	0.812800	0.126700	0.050100
C1031	C103	0.798900	0.086500	0.018100
C1041	C104	0.800400	0.100900	0.956100
C1051	C105	0.818100	0.154500	0.928300
C1061	C106	0.832200	0.196700	0.961100
C1071	C107	0.855100	0.271600	0.868600
C1081	C108	0.839700	0.210200	0.123200
C1091	C109	0.060400	0.523400	0.259000
C1101	C110	0.125600	0.484300	0.212100
C1111	C111	0.133000	0.420600	0.215600
C1121	C112	0.077200	0.397100	0.264700
C1131	C113	0.006600	0.437000	0.314400
C1141	C114	0.941000	0.417400	0.366600
C1151	C115	0.874900	0.457700	0.413100
C1161	C116	0.872200	0.519300	0.410700
C1171	C117	0.931600	0.540900	0.362300
C1181	C118	0.999700	0.501700	0.311500
C1191	C119	0.062900	0.588800	0.252800
C1201	C120	0.091000	0.329700	0.263500
C1211	C121	0.832600	0.005500	0.286100
C1221	C122	0.820600	0.981900	0.237500
C1231	C123	0.825000	0.920200	0.237400
C1241	C124	0.846000	0.879600	0.284000
C1251	C125	0.857100	0.901500	0.334300
C1261	C126	0.875800	0.862500	0.382900
C1271	C127	0.886600	0.884500	0.431100
C1281	C128	0.877500	0.946400	0.436000
C1291	C129	0.859900	0.986400	0.388400
C1301	C130	0.849100	0.966300	0.336300
C1311	C131	0.827200	0.072900	0.279300
C1321	C132	0.850000	0.813800	0.278000
C1331	C133	0.036400	0.748100	0.065900
C1341	C134	0.123000	0.710800	0.031000
C1351	C135	0.167400	0.722900	0.969300
C1361	C136	0.124100	0.776900	0.941900
C1371	C137	0.034500	0.818600	0.977200
C1381	C138	0.989600	0.873300	0.949900
C1391	C139	0.903500	0.913500	0.981900
C1401	C140	0.857400	0.899100	0.043900
C1411	C141	0.900900	0.845500	0.071700
C1421	C142	0.990000	0.803300	0.038900
C1431	C143	0.995300	0.728400	0.131400
C1441	C144	0.173100	0.789800	0.876800
C1451	C145	0.333800	0.976600	0.759000
C1461	C146	0.359900	0.015700	0.712100
C1471	C147	0.303600	0.079400	0.715600
C1481	C148	0.224300	0.102900	0.764700
C1491	C149	0.193600	0.063000	0.814400
C1501	C150	0.108400	0.082600	0.866600
C1511	C151	0.082600	0.042300	0.913100
C1521	C152	0.141500	0.980700	0.910700
C1531	C153	0.222500	0.959100	0.862300
C1541	C154	0.251400	0.998300	0.811500
C1551	C155	0.401700	0.911200	0.752800
C1561	C156	0.170700	0.170300	0.763500
C1571	C157	0.588100	0.494500	0.786100
C1581	C158	0.552500	0.518100	0.737500
C1591	C159	0.495200	0.579800	0.737400
C1601	C160	0.475600	0.620400	0.784000
C1611	C161	0.508600	0.598500	0.834300
C1621	C162	0.488300	0.637500	0.882900
C1631	C163	0.521100	0.615500	0.931100
C1641	C164	0.573900	0.553600	0.936000
C1651	C165	0.596300	0.513600	0.888400
C1661	C166	0.565400	0.533700	0.836300
C1671	C167	0.650100	0.427100	0.779300
C1681	C168	0.413800	0.686200	0.778000
C1691	C169	0.534500	0.751900	0.565900
C1701	C170	0.583800	0.789200	0.531000
C1711	C171	0.640300	0.777100	0.469300
C1721	C172	0.651000	0.723100	0.441900
C1731	C173	0.603100	0.681400	0.477200
C1741	C174	0.612900	0.626700	0.449900
C1751	C175	0.567000	0.586500	0.481900
C1761	C176	0.506500	0.600900	0.543900
C1771	C177	0.496400	0.654500	0.571700
C1781	C178	0.543300	0.696700	0.538900
C1791	C179	0.473700	0.771600	0.631400
C1801	C180	0.712900	0.710200	0.376800
C1811	C181	0.069400	0.023400	0.241000
C1821	C182	0.087700	0.984300	0.287900
C1831	C183	0.098600	0.920600	0.284400
C1841	C184	0.091900	0.897100	0.235300
C1851	C185	0.071000	0.937000	0.185600
C1861	C186	0.057600	0.917400	0.133400
C1871	C187	0.038000	0.957700	0.086900
C1881	C188	0.032900	0.019300	0.089300
C1891	C189	0.043900	0.040900	0.137700
C1901	C190	0.061200	0.001700	0.188500
C1911	C191	0.065700	0.088800	0.247200
C1921	C192	0.104500	0.829700	0.236500
C1931	C193	0.868700	0.505500	0.213900
C1941	C194	0.808100	0.481900	0.262500
C1951	C195	0.812400	0.420200	0.262600
C1961	C196	0.880000	0.379600	0.216000
C1971	C197	0.941400	0.401500	0.165700
C1981	C198	0.008700	0.362500	0.117100
C1991	C199	0.067700	0.384500	0.068900
C2001	C200	0.063500	0.446400	0.064000
C2011	C201	0.998300	0.486400	0.111600
C2021	C202	0.935400	0.466300	0.163700
C2031	C203	0.856500	0.572900	0.220700
C2041	C204	0.878000	0.313800	0.222000
C2051	C205	0.852300	0.248100	0.434100
C2061	C206	0.904000	0.210800	0.469000
C2071	C207	0.886700	0.222900	0.530700
C2081	C208	0.816000	0.276900	0.558100
C2091	C209	0.761700	0.318600	0.522800
C2101	C210	0.689500	0.373300	0.550100
C2111	C211	0.635400	0.413500	0.518100
C2121	C212	0.651300	0.399100	0.456100
C2131	C213	0.722600	0.345500	0.428300
C2141	C214	0.778900	0.303300	0.461100
C2151	C215	0.876700	0.228400	0.368600
C2161	C216	0.799900	0.289800	0.623200
C2171	C217	0.560400	0.259000	0.523400
C2181	C218	0.625600	0.212100	0.484300
C2191	C219	0.633000	0.215600	0.420600
C2201	C220	0.577200	0.264700	0.397100
C2211	C221	0.506600	0.314400	0.437000
C2221	C222	0.441000	0.366600	0.417400
C2231	C223	0.374900	0.413100	0.457700
C2241	C224	0.372200	0.410700	0.519300
C2251	C225	0.431600	0.362300	0.540900
C2261	C226	0.499700	0.311500	0.501700
C2271	C227	0.562900	0.252800	0.588800
C2281	C228	0.591000	0.263500	0.329700
C2291	C229	0.332600	0.286100	0.005500
C2301	C230	0.320600	0.237500	0.981900
C2311	C231	0.325000	0.237400	0.920200
C2321	C232	0.346000	0.284000	0.879600
C2331	C233	0.357100	0.334300	0.901500
C2341	C234	0.375800	0.382900	0.862500
C2351	C235	0.386600	0.431100	0.884500
C2361	C236	0.377500	0.436000	0.946400
C2371	C237	0.359900	0.388400	0.986400
C2381	C238	0.349100	0.336300	0.966300
C2391	C239	0.327200	0.279300	0.072900
C2401	C240	0.350000	0.278000	0.813800
C2411	C241	0.536400	0.065900	0.748100
C2421	C242	0.623000	0.031000	0.710800
C2431	C243	0.667400	0.969300	0.722900
C2441	C244	0.624100	0.941900	0.776900
C2451	C245	0.534500	0.977200	0.818600
C2461	C246	0.489600	0.949900	0.873300
C2471	C247	0.403500	0.981900	0.913500
C2481	C248	0.357400	0.043900	0.899100
C2491	C249	0.400900	0.071700	0.845500
C2501	C250	0.490000	0.038900	0.803300
C2511	C251	0.495300	0.131400	0.728400
C2521	C252	0.673100	0.876800	0.789800
C2531	C253	0.342800	0.741000	0.476600
C2541	C254	0.322000	0.787900	0.515700
C2551	C255	0.269200	0.784400	0.579400
C2561	C256	0.239000	0.735300	0.602900
C2571	C257	0.258000	0.685600	0.563000
C2581	C258	0.225000	0.633400	0.582600
C2591	C259	0.245700	0.586900	0.542300
C2601	C260	0.302200	0.589300	0.480700
C2611	C261	0.334800	0.637700	0.459100
C2621	C262	0.312900	0.688500	0.498300
C2631	C263	0.404500	0.747200	0.411200
C2641	C264	0.184200	0.736500	0.670300
C2651	C265	0.624200	0.713900	0.994500
C2661	C266	0.540000	0.762500	0.018100
C2671	C267	0.482600	0.762600	0.079800
C2681	C268	0.509600	0.716000	0.120400
C2691	C269	0.592900	0.665700	0.098500
C2701	C270	0.621200	0.617100	0.137500
C2711	C271	0.702200	0.568900	0.115500
C2721	C272	0.759900	0.564000	0.053600
C2731	C273	0.734700	0.611600	0.013600
C2741	C274	0.651700	0.663700	0.033700
C2751	C275	0.679400	0.720700	0.927100
C2761	C276	0.441800	0.722000	0.186200
C2771	C277	0.350400	0.934100	0.251900
C2781	C278	0.364800	0.969000	0.289200
C2791	C279	0.359600	0.030700	0.277100
C2801	C280	0.342900	0.058100	0.223100
C2811	C281	0.330300	0.022800	0.181400
C2821	C282	0.312800	0.050100	0.126700
C2831	C283	0.298900	0.018100	0.086500
C2841	C284	0.300400	0.956100	0.100900
C2851	C285	0.318100	0.928300	0.154500
C2861	C286	0.332200	0.961100	0.196700
C2871	C287	0.355100	0.868600	0.271600
C2881	C288	0.339700	0.123200	0.210200
O11	O1	0.506840	0.228900	0.135220
O21	O2	0.620940	0.269670	0.097650
O31	O3	0.643560	0.273950	0.793530
O41	O4	0.578430	0.200230	0.808110
O51	O5	0.407170	0.181120	0.601140
O61	O6	0.294490	0.269650	0.602370
O71	O7	0.451630	0.221660	0.267880
O81	O8	0.300750	0.229130	0.305770
O91	O9	0.463600	0.340800	0.200600
O101	O10	0.314500	0.344400	0.238600
O111	O11	0.360140	0.636820	0.303900
O121	O12	0.228290	0.666770	0.282850
O131	O13	0.647980	0.142050	0.203190
O141	O14	0.647200	0.344100	0.190900
O151	O15	0.870960	0.771100	0.864780
O161	O16	0.988260	0.730330	0.902350
O171	O17	0.711040	0.726050	0.206470
O181	O18	0.586770	0.799770	0.191890
O191	O19	0.189430	0.818880	0.398860
O201	O20	0.166510	0.730350	0.397630
O211	O21	0.941170	0.778340	0.732120
O221	O22	0.835650	0.770870	0.694230
O231	O23	0.005000	0.659200	0.799400
O241	O24	0.897500	0.655600	0.761400
O251	O25	0.300860	0.363180	0.696100
O261	O26	0.177910	0.333230	0.717150
O271	O27	0.993220	0.857950	0.796810
O281	O28	0.182200	0.655900	0.809100
O291	O29	0.892060	0.364780	0.728900
O301	O30	0.968590	0.402350	0.769670
O311	O31	0.687090	0.706470	0.773950
O321	O32	0.636540	0.691890	0.700230
O331	O33	0.258310	0.898860	0.681120
O341	O34	0.146860	0.897630	0.769650
O351	O35	0.969510	0.232120	0.721660
O361	O36	0.856520	0.194230	0.729130
O371	O37	0.914200	0.299400	0.840800
O381	O38	0.803100	0.261400	0.844400
O391	O39	0.914040	0.196100	0.136820
O401	O40	0.761140	0.217150	0.166770
O411	O41	0.101170	0.296810	0.642050
O421	O42	0.088100	0.309100	0.844100
O431	O43	0.985740	0.635220	0.271100
O441	O44	0.140610	0.597650	0.230330
O451	O45	0.167510	0.293530	0.226050
O461	O46	0.028660	0.308110	0.299770
O471	O47	0.838290	0.101140	0.318880
O481	O48	0.814140	0.102370	0.230350
O491	O49	0.923290	0.767880	0.278340
O501	O50	0.779880	0.805770	0.270870
O511	O51	0.054400	0.700600	0.159200
O521	O52	0.908900	0.738600	0.155600
O531	O53	0.246960	0.803900	0.863180
O541	O54	0.145060	0.782850	0.833230
O551	O55	0.040030	0.703190	0.357950
O561	O56	0.241300	0.690900	0.155900
O571	O57	0.370960	0.864780	0.771100
O581	O58	0.488260	0.902350	0.730330
O591	O59	0.211040	0.206470	0.726050
O601	O60	0.086770	0.191890	0.799770
O611	O61	0.689430	0.398860	0.818880
O621	O62	0.666510	0.397630	0.730350
O631	O63	0.441170	0.732120	0.778340
O641	O64	0.335650	0.694230	0.770870
O651	O65	0.505000	0.799400	0.659200
O661	O66	0.397500	0.761400	0.655600
O671	O67	0.800860	0.696100	0.363180
O681	O68	0.677910	0.717150	0.333230
O691	O69	0.493220	0.796810	0.857950
O701	O70	0.682200	0.809100	0.655900
O711	O71	0.006840	0.135220	0.228900
O721	O72	0.120940	0.097650	0.269670
O731	O73	0.143560	0.793530	0.273950
O741	O74	0.078430	0.808110	0.200230
O751	O75	0.907170	0.601140	0.181120
O761	O76	0.794490	0.602370	0.269650
O771	O77	0.951630	0.267880	0.221660
O781	O78	0.800750	0.305770	0.229130
O791	O79	0.963600	0.200600	0.340800
O801	O80	0.814500	0.238600	0.344400
O811	O81	0.860140	0.303900	0.636820
O821	O82	0.728290	0.282850	0.666770
O831	O83	0.147980	0.203190	0.142050
O841	O84	0.147200	0.190900	0.344100
O851	O85	0.485740	0.271100	0.635220
O861	O86	0.640610	0.230330	0.597650
O871	O87	0.667510	0.226050	0.293530
O881	O88	0.528660	0.299770	0.308110
O891	O89	0.338290	0.318880	0.101140
O901	O90	0.314140	0.230350	0.102370
O911	O91	0.423290	0.278340	0.767880
O921	O92	0.279880	0.270870	0.805770
O931	O93	0.554400	0.159200	0.700600
O941	O94	0.408900	0.155600	0.738600
O951	O95	0.746960	0.863180	0.803900
O961	O96	0.645060	0.833230	0.782850
O971	O97	0.540030	0.357950	0.703190
O981	O98	0.741300	0.155900	0.690900
O991	O99	0.392060	0.728900	0.364780
O1001	O100	0.468590	0.769670	0.402350
O1011	O101	0.187090	0.773950	0.706470
O1021	O102	0.136540	0.700230	0.691890
O1031	O103	0.758310	0.681120	0.898860
O1041	O104	0.646860	0.769650	0.897630
O1051	O105	0.469510	0.721660	0.232120
O1061	O106	0.356520	0.729130	0.194230
O1071	O107	0.414200	0.840800	0.299400
O1081	O108	0.303100	0.844400	0.261400
O1091	O109	0.414040	0.136820	0.196100
O1101	O110	0.261140	0.166770	0.217150
O1111	O111	0.601170	0.642050	0.296810
O1121	O112	0.588100	0.844100	0.309100
