data_SARNOQ_freeONLY_PM
_symmetry_space_group_name_H-M	'P1'
_cell_length_a	14.620600
_cell_length_b	14.620600
_cell_length_c	14.620600
_cell_angle_alpha	109.380000
_cell_angle_beta	109.380000
_cell_angle_gamma	109.380000
_symmetry_Int_Tables_number 1

loop_
_symmetry_equiv_pos_as_xyz
'x,y,z'

loop_
_atom_site_label
_atom_site_type_symbol
_atom_site_fract_x
_atom_site_fract_y
_atom_site_fract_z
Zn11	Zn1	0.199220	0.449640	0.693520
Zn21	Zn2	0.693520	0.199220	0.449640
Zn31	Zn3	0.449640	0.693520	0.199220
Zn41	Zn4	0.800780	0.550360	0.306480
Zn51	Zn5	0.306480	0.800780	0.550360
Zn61	Zn6	0.550360	0.306480	0.800780
H11	H1	0.692800	0.694300	0.060000
H21	H2	0.060000	0.692800	0.694300
H31	H3	0.694300	0.060000	0.692800
H41	H4	0.307200	0.305700	0.940000
H51	H5	0.940000	0.307200	0.305700
H61	H6	0.305700	0.940000	0.307200
C11	C1	0.449520	0.582760	0.949520
C21	C2	0.471430	0.516280	0.875890
C31	C3	0.346090	0.570770	0.947940
C41	C4	0.398480	0.411870	0.770050
C51	C5	0.949520	0.449520	0.582760
C61	C6	0.875890	0.471430	0.516280
C71	C7	0.947940	0.346090	0.570770
C81	C8	0.770050	0.398480	0.411870
C91	C9	0.582760	0.949520	0.449520
C101	C10	0.516280	0.875890	0.471430
C111	C11	0.570770	0.947940	0.346090
C121	C12	0.411870	0.770050	0.398480
C131	C13	0.550480	0.417240	0.050480
C141	C14	0.528570	0.483720	0.124110
C151	C15	0.653910	0.429230	0.052060
C161	C16	0.601520	0.588130	0.229950
C171	C17	0.050480	0.550480	0.417240
C181	C18	0.124110	0.528570	0.483720
C191	C19	0.052060	0.653910	0.429230
C201	C20	0.229950	0.601520	0.588130
C211	C21	0.417240	0.050480	0.550480
C221	C22	0.483720	0.124110	0.528570
C231	C23	0.429230	0.052060	0.653910
C241	C24	0.588130	0.229950	0.601520
N11	N1	0.546510	0.667070	0.038220
N21	N2	0.622300	0.649900	0.015300
N31	N3	0.582290	0.561070	0.920340
N41	N4	0.427200	0.335210	0.734590
N51	N5	0.340500	0.253800	0.631800
N61	N6	0.262700	0.279700	0.606900
N71	N7	0.296330	0.378940	0.693030
N81	N8	0.337550	0.609370	0.038780
N91	N9	0.229730	0.581460	0.003210
N101	N10	0.175010	0.528360	0.895330
N111	N11	0.247040	0.519780	0.857380
N121	N12	0.038220	0.546510	0.667070
N131	N13	0.015300	0.622300	0.649900
N141	N14	0.920340	0.582290	0.561070
N151	N15	0.734590	0.427200	0.335210
N161	N16	0.631800	0.340500	0.253800
N171	N17	0.606900	0.262700	0.279700
N181	N18	0.693030	0.296330	0.378940
N191	N19	0.038780	0.337550	0.609370
N201	N20	0.003210	0.229730	0.581460
N211	N21	0.895330	0.175010	0.528360
N221	N22	0.857380	0.247040	0.519780
N231	N23	0.667070	0.038220	0.546510
N241	N24	0.649900	0.015300	0.622300
N251	N25	0.561070	0.920340	0.582290
N261	N26	0.335210	0.734590	0.427200
N271	N27	0.253800	0.631800	0.340500
N281	N28	0.279700	0.606900	0.262700
N291	N29	0.378940	0.693030	0.296330
N301	N30	0.609370	0.038780	0.337550
N311	N31	0.581460	0.003210	0.229730
N321	N32	0.528360	0.895330	0.175010
N331	N33	0.519780	0.857380	0.247040
N341	N34	0.453490	0.332930	0.961780
N351	N35	0.377700	0.350100	0.984700
N361	N36	0.417710	0.438930	0.079660
N371	N37	0.572800	0.664790	0.265410
N381	N38	0.659500	0.746200	0.368200
N391	N39	0.737300	0.720300	0.393100
N401	N40	0.703670	0.621060	0.306970
N411	N41	0.662450	0.390630	0.961220
N421	N42	0.770270	0.418540	0.996790
N431	N43	0.824990	0.471640	0.104670
N441	N44	0.752960	0.480220	0.142620
N451	N45	0.961780	0.453490	0.332930
N461	N46	0.984700	0.377700	0.350100
N471	N47	0.079660	0.417710	0.438930
N481	N48	0.265410	0.572800	0.664790
N491	N49	0.368200	0.659500	0.746200
N501	N50	0.393100	0.737300	0.720300
N511	N51	0.306970	0.703670	0.621060
N521	N52	0.961220	0.662450	0.390630
N531	N53	0.996790	0.770270	0.418540
N541	N54	0.104670	0.824990	0.471640
N551	N55	0.142620	0.752960	0.480220
N561	N56	0.332930	0.961780	0.453490
N571	N57	0.350100	0.984700	0.377700
N581	N58	0.438930	0.079660	0.417710
N591	N59	0.664790	0.265410	0.572800
N601	N60	0.746200	0.368200	0.659500
N611	N61	0.720300	0.393100	0.737300
N621	N62	0.621060	0.306970	0.703670
N631	N63	0.390630	0.961220	0.662450
N641	N64	0.418540	0.996790	0.770270
N651	N65	0.471640	0.104670	0.824990
N661	N66	0.480220	0.142620	0.752960
