data_SENVIR_freeONLY_PM
_symmetry_space_group_name_H-M	'P1'
_cell_length_a	22.030600
_cell_length_b	22.030600
_cell_length_c	22.030600
_cell_angle_alpha	109.471000
_cell_angle_beta	109.471000
_cell_angle_gamma	109.471000
_symmetry_Int_Tables_number 1

loop_
_symmetry_equiv_pos_as_xyz
'x,y,z'

loop_
_atom_site_label
_atom_site_type_symbol
_atom_site_fract_x
_atom_site_fract_y
_atom_site_fract_z
Co11	Co1	0.407600	0.907600	0.500000
Co21	Co2	0.592400	0.092400	0.500000
Co31	Co3	0.500000	0.592400	0.092400
Co41	Co4	0.500000	0.407600	0.907600
Co51	Co5	0.907600	0.500000	0.407600
Co61	Co6	0.092400	0.500000	0.592400
Co71	Co7	0.092400	0.592400	0.500000
Co81	Co8	0.907600	0.407600	0.500000
Co91	Co9	0.407600	0.500000	0.907600
Co101	Co10	0.592400	0.500000	0.092400
Co111	Co11	0.500000	0.092400	0.592400
Co121	Co12	0.500000	0.907600	0.407600
H11	H1	0.801000	0.562700	0.112100
H21	H2	0.908500	0.573000	0.107100
H31	H3	0.450600	0.688900	0.887900
H41	H4	0.465900	0.801400	0.892900
H51	H5	0.549400	0.437300	0.238300
H61	H6	0.534100	0.427000	0.335500
H71	H7	0.199000	0.311100	0.761700
H81	H8	0.091500	0.198600	0.664500
H91	H9	0.238300	0.549400	0.437300
H101	H10	0.335500	0.534100	0.427000
H111	H11	0.761700	0.199000	0.311100
H121	H12	0.664500	0.091500	0.198600
H131	H13	0.112100	0.801000	0.562700
H141	H14	0.107100	0.908500	0.573000
H151	H15	0.887900	0.450600	0.688900
H161	H16	0.892900	0.465900	0.801400
H171	H17	0.688900	0.887900	0.450600
H181	H18	0.801400	0.892900	0.465900
H191	H19	0.562700	0.112100	0.801000
H201	H20	0.573000	0.107100	0.908500
H211	H21	0.311100	0.761700	0.199000
H221	H22	0.198600	0.664500	0.091500
H231	H23	0.437300	0.238300	0.549400
H241	H24	0.427000	0.335500	0.534100
H251	H25	0.437300	0.199000	0.887900
H261	H26	0.427000	0.091500	0.892900
H271	H27	0.311100	0.549400	0.112100
H281	H28	0.198600	0.534100	0.107100
H291	H29	0.562700	0.450600	0.761700
H301	H30	0.573000	0.465900	0.664500
H311	H31	0.688900	0.801000	0.238300
H321	H32	0.801400	0.908500	0.335500
H331	H33	0.450600	0.761700	0.562700
H341	H34	0.465900	0.664500	0.573000
H351	H35	0.801000	0.238300	0.688900
H361	H36	0.908500	0.335500	0.801400
H371	H37	0.199000	0.887900	0.437300
H381	H38	0.091500	0.892900	0.427000
H391	H39	0.549400	0.112100	0.311100
H401	H40	0.534100	0.107100	0.198600
H411	H41	0.112100	0.311100	0.549400
H421	H42	0.107100	0.198600	0.534100
H431	H43	0.887900	0.437300	0.199000
H441	H44	0.892900	0.427000	0.091500
H451	H45	0.238300	0.688900	0.801000
H461	H46	0.335500	0.801400	0.908500
H471	H47	0.761700	0.562700	0.450600
H481	H48	0.664500	0.573000	0.465900
H491	H49	0.199000	0.437300	0.887900
H501	H50	0.091500	0.427000	0.892900
H511	H51	0.549400	0.311100	0.112100
H521	H52	0.534100	0.198600	0.107100
H531	H53	0.450600	0.562700	0.761700
H541	H54	0.465900	0.573000	0.664500
H551	H55	0.801000	0.688900	0.238300
H561	H56	0.908500	0.801400	0.335500
H571	H57	0.761700	0.450600	0.562700
H581	H58	0.664500	0.465900	0.573000
H591	H59	0.238300	0.801000	0.688900
H601	H60	0.335500	0.908500	0.801400
H611	H61	0.887900	0.199000	0.437300
H621	H62	0.892900	0.091500	0.427000
H631	H63	0.112100	0.549400	0.311100
H641	H64	0.107100	0.534100	0.198600
H651	H65	0.311100	0.112100	0.549400
H661	H66	0.198600	0.107100	0.534100
H671	H67	0.437300	0.887900	0.199000
H681	H68	0.427000	0.892900	0.091500
H691	H69	0.688900	0.238300	0.801000
H701	H70	0.801400	0.335500	0.908500
H711	H71	0.562700	0.761700	0.450600
H721	H72	0.573000	0.664500	0.465900
H731	H73	0.562700	0.801000	0.112100
H741	H74	0.573000	0.908500	0.107100
H751	H75	0.688900	0.450600	0.887900
H761	H76	0.801400	0.465900	0.892900
H771	H77	0.437300	0.549400	0.238300
H781	H78	0.427000	0.534100	0.335500
H791	H79	0.311100	0.199000	0.761700
H801	H80	0.198600	0.091500	0.664500
H811	H81	0.549400	0.238300	0.437300
H821	H82	0.534100	0.335500	0.427000
H831	H83	0.199000	0.761700	0.311100
H841	H84	0.091500	0.664500	0.198600
H851	H85	0.801000	0.112100	0.562700
H861	H86	0.908500	0.107100	0.573000
H871	H87	0.450600	0.887900	0.688900
H881	H88	0.465900	0.892900	0.801400
H891	H89	0.887900	0.688900	0.450600
H901	H90	0.892900	0.801400	0.465900
H911	H91	0.112100	0.562700	0.801000
H921	H92	0.107100	0.573000	0.908500
H931	H93	0.761700	0.311100	0.199000
H941	H94	0.664500	0.198600	0.091500
H951	H95	0.238300	0.437300	0.549400
H961	H96	0.335500	0.427000	0.534100
C11	C1	0.800200	0.543700	0.067100
C21	C2	0.865200	0.554700	0.063700
C31	C3	0.476600	0.733100	0.932900
C41	C4	0.491000	0.801500	0.936300
C51	C5	0.523400	0.456300	0.256500
C61	C6	0.509000	0.445300	0.310500
C71	C7	0.199800	0.266900	0.743500
C81	C8	0.134800	0.198500	0.689500
C91	C9	0.256500	0.523400	0.456300
C101	C10	0.310500	0.509000	0.445300
C111	C11	0.743500	0.199800	0.266900
C121	C12	0.689500	0.134800	0.198500
C131	C13	0.067100	0.800200	0.543700
C141	C14	0.063700	0.865200	0.554700
C151	C15	0.932900	0.476600	0.733100
C161	C16	0.936300	0.491000	0.801500
C171	C17	0.733100	0.932900	0.476600
C181	C18	0.801500	0.936300	0.491000
C191	C19	0.543700	0.067100	0.800200
C201	C20	0.554700	0.063700	0.865200
C211	C21	0.266900	0.743500	0.199800
C221	C22	0.198500	0.689500	0.134800
C231	C23	0.456300	0.256500	0.523400
C241	C24	0.445300	0.310500	0.509000
C251	C25	0.456300	0.199800	0.932900
C261	C26	0.445300	0.134800	0.936300
C271	C27	0.266900	0.523400	0.067100
C281	C28	0.198500	0.509000	0.063700
C291	C29	0.543700	0.476600	0.743500
C301	C30	0.554700	0.491000	0.689500
C311	C31	0.733100	0.800200	0.256500
C321	C32	0.801500	0.865200	0.310500
C331	C33	0.476600	0.743500	0.543700
C341	C34	0.491000	0.689500	0.554700
C351	C35	0.800200	0.256500	0.733100
C361	C36	0.865200	0.310500	0.801500
C371	C37	0.199800	0.932900	0.456300
C381	C38	0.134800	0.936300	0.445300
C391	C39	0.523400	0.067100	0.266900
C401	C40	0.509000	0.063700	0.198500
C411	C41	0.067100	0.266900	0.523400
C421	C42	0.063700	0.198500	0.509000
C431	C43	0.932900	0.456300	0.199800
C441	C44	0.936300	0.445300	0.134800
C451	C45	0.256500	0.733100	0.800200
C461	C46	0.310500	0.801500	0.865200
C471	C47	0.743500	0.543700	0.476600
C481	C48	0.689500	0.554700	0.491000
C491	C49	0.199800	0.456300	0.932900
C501	C50	0.134800	0.445300	0.936300
C511	C51	0.523400	0.266900	0.067100
C521	C52	0.509000	0.198500	0.063700
C531	C53	0.476600	0.543700	0.743500
C541	C54	0.491000	0.554700	0.689500
C551	C55	0.800200	0.733100	0.256500
C561	C56	0.865200	0.801500	0.310500
C571	C57	0.743500	0.476600	0.543700
C581	C58	0.689500	0.491000	0.554700
C591	C59	0.256500	0.800200	0.733100
C601	C60	0.310500	0.865200	0.801500
C611	C61	0.932900	0.199800	0.456300
C621	C62	0.936300	0.134800	0.445300
C631	C63	0.067100	0.523400	0.266900
C641	C64	0.063700	0.509000	0.198500
C651	C65	0.266900	0.067100	0.523400
C661	C66	0.198500	0.063700	0.509000
C671	C67	0.456300	0.932900	0.199800
C681	C68	0.445300	0.936300	0.134800
C691	C69	0.733100	0.256500	0.800200
C701	C70	0.801500	0.310500	0.865200
C711	C71	0.543700	0.743500	0.476600
C721	C72	0.554700	0.689500	0.491000
C731	C73	0.543700	0.800200	0.067100
C741	C74	0.554700	0.865200	0.063700
C751	C75	0.733100	0.476600	0.932900
C761	C76	0.801500	0.491000	0.936300
C771	C77	0.456300	0.523400	0.256500
C781	C78	0.445300	0.509000	0.310500
C791	C79	0.266900	0.199800	0.743500
C801	C80	0.198500	0.134800	0.689500
C811	C81	0.523400	0.256500	0.456300
C821	C82	0.509000	0.310500	0.445300
C831	C83	0.199800	0.743500	0.266900
C841	C84	0.134800	0.689500	0.198500
C851	C85	0.800200	0.067100	0.543700
C861	C86	0.865200	0.063700	0.554700
C871	C87	0.476600	0.932900	0.733100
C881	C88	0.491000	0.936300	0.801500
C891	C89	0.932900	0.733100	0.476600
C901	C90	0.936300	0.801500	0.491000
C911	C91	0.067100	0.543700	0.800200
C921	C92	0.063700	0.554700	0.865200
C931	C93	0.743500	0.266900	0.199800
C941	C94	0.689500	0.198500	0.134800
C951	C95	0.256500	0.456300	0.523400
C961	C96	0.310500	0.445300	0.509000
C971	C97	0.664000	0.480000	0.000000
C981	C98	0.735100	0.503100	0.000000
C991	C99	0.867600	0.539800	0.000000
C1001	C100	0.938400	0.557000	0.000000
C1011	C101	0.480000	0.664000	0.000000
C1021	C102	0.503100	0.735100	0.000000
C1031	C103	0.539800	0.867600	0.000000
C1041	C104	0.557000	0.938400	0.000000
C1051	C105	0.520000	0.520000	0.184000
C1061	C106	0.496900	0.496900	0.232000
C1071	C107	0.460200	0.460200	0.327800
C1081	C108	0.443000	0.443000	0.381400
C1091	C109	0.336000	0.336000	0.816000
C1101	C110	0.264900	0.264900	0.768000
C1111	C111	0.132400	0.132400	0.672200
C1121	C112	0.061600	0.061600	0.618600
C1131	C113	0.184000	0.520000	0.520000
C1141	C114	0.232000	0.496900	0.496900
C1151	C115	0.327800	0.460200	0.460200
C1161	C116	0.381400	0.443000	0.443000
C1171	C117	0.816000	0.336000	0.336000
C1181	C118	0.768000	0.264900	0.264900
C1191	C119	0.672200	0.132400	0.132400
C1201	C120	0.618600	0.061600	0.061600
C1211	C121	0.000000	0.664000	0.480000
C1221	C122	0.000000	0.735100	0.503100
C1231	C123	0.000000	0.867600	0.539800
C1241	C124	0.000000	0.938400	0.557000
C1251	C125	0.000000	0.480000	0.664000
C1261	C126	0.000000	0.503100	0.735100
C1271	C127	0.000000	0.539800	0.867600
C1281	C128	0.000000	0.557000	0.938400
C1291	C129	0.664000	0.000000	0.480000
C1301	C130	0.735100	0.000000	0.503100
C1311	C131	0.867600	0.000000	0.539800
C1321	C132	0.938400	0.000000	0.557000
C1331	C133	0.480000	0.000000	0.664000
C1341	C134	0.503100	0.000000	0.735100
C1351	C135	0.539800	0.000000	0.867600
C1361	C136	0.557000	0.000000	0.938400
C1371	C137	0.336000	0.816000	0.336000
C1381	C138	0.264900	0.768000	0.264900
C1391	C139	0.132400	0.672200	0.132400
C1401	C140	0.061600	0.618600	0.061600
C1411	C141	0.520000	0.184000	0.520000
C1421	C142	0.496900	0.232000	0.496900
C1431	C143	0.460200	0.327800	0.460200
C1441	C144	0.443000	0.381400	0.443000
C1451	C145	0.520000	0.336000	0.000000
C1461	C146	0.496900	0.264900	0.000000
C1471	C147	0.460200	0.132400	0.000000
C1481	C148	0.443000	0.061600	0.000000
C1491	C149	0.336000	0.520000	0.000000
C1501	C150	0.264900	0.496900	0.000000
C1511	C151	0.132400	0.460200	0.000000
C1521	C152	0.061600	0.443000	0.000000
C1531	C153	0.480000	0.480000	0.816000
C1541	C154	0.503100	0.503100	0.768000
C1551	C155	0.539800	0.539800	0.672200
C1561	C156	0.557000	0.557000	0.618600
C1571	C157	0.664000	0.664000	0.184000
C1581	C158	0.735100	0.735100	0.232000
C1591	C159	0.867600	0.867600	0.327800
C1601	C160	0.938400	0.938400	0.381400
C1611	C161	0.480000	0.816000	0.480000
C1621	C162	0.503100	0.768000	0.503100
C1631	C163	0.539800	0.672200	0.539800
C1641	C164	0.557000	0.618600	0.557000
C1651	C165	0.664000	0.184000	0.664000
C1661	C166	0.735100	0.232000	0.735100
C1671	C167	0.867600	0.327800	0.867600
C1681	C168	0.938400	0.381400	0.938400
C1691	C169	0.336000	0.000000	0.520000
C1701	C170	0.264900	0.000000	0.496900
C1711	C171	0.132400	0.000000	0.460200
C1721	C172	0.061600	0.000000	0.443000
C1731	C173	0.520000	0.000000	0.336000
C1741	C174	0.496900	0.000000	0.264900
C1751	C175	0.460200	0.000000	0.132400
C1761	C176	0.443000	0.000000	0.061600
C1771	C177	0.000000	0.336000	0.520000
C1781	C178	0.000000	0.264900	0.496900
C1791	C179	0.000000	0.132400	0.460200
C1801	C180	0.000000	0.061600	0.443000
C1811	C181	0.000000	0.520000	0.336000
C1821	C182	0.000000	0.496900	0.264900
C1831	C183	0.000000	0.460200	0.132400
C1841	C184	0.000000	0.443000	0.061600
C1851	C185	0.184000	0.664000	0.664000
C1861	C186	0.232000	0.735100	0.735100
C1871	C187	0.327800	0.867600	0.867600
C1881	C188	0.381400	0.938400	0.938400
C1891	C189	0.816000	0.480000	0.480000
C1901	C190	0.768000	0.503100	0.503100
C1911	C191	0.672200	0.539800	0.539800
C1921	C192	0.618600	0.557000	0.557000
N11	N1	0.000000	0.601100	0.064700
N21	N2	0.536400	0.935300	0.935300
N31	N3	0.463600	0.398900	0.398900
N41	N4	0.000000	0.064700	0.601100
N51	N5	0.398900	0.463600	0.398900
N61	N6	0.601100	0.000000	0.064700
N71	N7	0.064700	0.000000	0.601100
N81	N8	0.935300	0.536400	0.935300
N91	N9	0.935300	0.935300	0.536400
N101	N10	0.601100	0.064700	0.000000
N111	N11	0.064700	0.601100	0.000000
N121	N12	0.398900	0.398900	0.463600
N131	N13	0.398900	0.000000	0.935300
N141	N14	0.064700	0.463600	0.064700
N151	N15	0.601100	0.536400	0.601100
N161	N16	0.935300	0.000000	0.398900
N171	N17	0.536400	0.601100	0.601100
N181	N18	0.000000	0.398900	0.935300
N191	N19	0.000000	0.935300	0.398900
N201	N20	0.463600	0.064700	0.064700
N211	N21	0.064700	0.064700	0.463600
N221	N22	0.935300	0.398900	0.000000
N231	N23	0.398900	0.935300	0.000000
N241	N24	0.601100	0.601100	0.536400
O11	O1	0.663000	0.499200	0.056800
O21	O2	0.442400	0.606200	0.943200
O31	O3	0.557600	0.500800	0.163800
O41	O4	0.337000	0.393800	0.836200
O51	O5	0.163800	0.557600	0.500800
O61	O6	0.836200	0.337000	0.393800
O71	O7	0.056800	0.663000	0.499200
O81	O8	0.943200	0.442400	0.606200
O91	O9	0.606200	0.943200	0.442400
O101	O10	0.499200	0.056800	0.663000
O111	O11	0.393800	0.836200	0.337000
O121	O12	0.500800	0.163800	0.557600
O131	O13	0.500800	0.337000	0.943200
O141	O14	0.393800	0.557600	0.056800
O151	O15	0.499200	0.442400	0.836200
O161	O16	0.606200	0.663000	0.163800
O171	O17	0.442400	0.836200	0.499200
O181	O18	0.663000	0.163800	0.606200
O191	O19	0.337000	0.943200	0.500800
O201	O20	0.557600	0.056800	0.393800
O211	O21	0.056800	0.393800	0.557600
O221	O22	0.943200	0.500800	0.337000
O231	O23	0.163800	0.606200	0.663000
O241	O24	0.836200	0.499200	0.442400
O251	O25	0.337000	0.500800	0.943200
O261	O26	0.557600	0.393800	0.056800
O271	O27	0.442400	0.499200	0.836200
O281	O28	0.663000	0.606200	0.163800
O291	O29	0.836200	0.442400	0.499200
O301	O30	0.163800	0.663000	0.606200
O311	O31	0.943200	0.337000	0.500800
O321	O32	0.056800	0.557600	0.393800
O331	O33	0.393800	0.056800	0.557600
O341	O34	0.500800	0.943200	0.337000
O351	O35	0.606200	0.163800	0.663000
O361	O36	0.499200	0.836200	0.442400
O371	O37	0.499200	0.663000	0.056800
O381	O38	0.606200	0.442400	0.943200
O391	O39	0.500800	0.557600	0.163800
O401	O40	0.393800	0.337000	0.836200
O411	O41	0.557600	0.163800	0.500800
O421	O42	0.337000	0.836200	0.393800
O431	O43	0.663000	0.056800	0.499200
O441	O44	0.442400	0.943200	0.606200
O451	O45	0.943200	0.606200	0.442400
O461	O46	0.056800	0.499200	0.663000
O471	O47	0.836200	0.393800	0.337000
O481	O48	0.163800	0.500800	0.557600
