data_SERJOP_freeONLY_PM
_symmetry_space_group_name_H-M	'P1'
_cell_length_a	8.438000
_cell_length_b	15.934000
_cell_length_c	27.795000
_cell_angle_alpha	90.000000
_cell_angle_beta	90.000000
_cell_angle_gamma	90.000000
_symmetry_Int_Tables_number 1

loop_
_symmetry_equiv_pos_as_xyz
'x,y,z'

loop_
_atom_site_label
_atom_site_type_symbol
_atom_site_fract_x
_atom_site_fract_y
_atom_site_fract_z
Er11	Er1	0.523120	0.698890	0.918680
Er21	Er2	0.976880	0.198890	0.081320
Er31	Er3	0.476880	0.301110	0.418680
Er41	Er4	0.023120	0.801110	0.581320
Er51	Er5	0.476880	0.301110	0.081320
Er61	Er6	0.023120	0.801110	0.918680
Er71	Er7	0.523120	0.698890	0.581320
Er81	Er8	0.976880	0.198890	0.418680
H11	H1	0.595200	0.817000	0.044000
H21	H2	0.383200	0.523100	0.839400
H31	H3	0.286200	0.436900	0.838600
H41	H4	0.448600	0.445000	0.809200
H51	H5	0.546100	0.306700	0.885200
H61	H6	0.363400	0.323900	0.897200
H71	H7	0.496200	0.341700	0.937000
H81	H8	0.226700	0.974800	0.023000
H91	H9	0.600300	0.038300	0.105800
H101	H10	0.184000	0.906300	0.820800
H111	H11	0.904800	0.317000	0.956000
H121	H12	0.116800	0.023100	0.160600
H131	H13	0.213800	0.936900	0.161400
H141	H14	0.051400	0.945000	0.190800
H151	H15	0.953900	0.806700	0.114800
H161	H16	0.136600	0.823900	0.102800
H171	H17	0.003800	0.841700	0.063000
H181	H18	0.273300	0.474800	0.977000
H191	H19	0.899700	0.538300	0.894200
H201	H20	0.316000	0.406300	0.179200
H211	H21	0.404800	0.183000	0.544000
H221	H22	0.616800	0.476900	0.339400
H231	H23	0.713800	0.563100	0.338600
H241	H24	0.551400	0.555000	0.309200
H251	H25	0.453900	0.693300	0.385200
H261	H26	0.636600	0.676100	0.397200
H271	H27	0.503800	0.658300	0.437000
H281	H28	0.773300	0.025200	0.523000
H291	H29	0.399700	0.961700	0.605800
H301	H30	0.816000	0.093700	0.320800
H311	H31	0.095200	0.683000	0.456000
H321	H32	0.883200	0.976900	0.660600
H331	H33	0.786200	0.063100	0.661400
H341	H34	0.948600	0.055000	0.690800
H351	H35	0.046100	0.193300	0.614800
H361	H36	0.863400	0.176100	0.602800
H371	H37	0.996200	0.158300	0.563000
H381	H38	0.726700	0.525200	0.477000
H391	H39	0.100300	0.461700	0.394200
H401	H40	0.684000	0.593700	0.679200
H411	H41	0.404800	0.183000	0.956000
H421	H42	0.616800	0.476900	0.160600
H431	H43	0.713800	0.563100	0.161400
H441	H44	0.551400	0.555000	0.190800
H451	H45	0.453900	0.693300	0.114800
H461	H46	0.636600	0.676100	0.102800
H471	H47	0.503800	0.658300	0.063000
H481	H48	0.773300	0.025200	0.977000
H491	H49	0.399700	0.961700	0.894200
H501	H50	0.816000	0.093700	0.179200
H511	H51	0.095200	0.683000	0.044000
H521	H52	0.883200	0.976900	0.839400
H531	H53	0.786200	0.063100	0.838600
H541	H54	0.948600	0.055000	0.809200
H551	H55	0.046100	0.193300	0.885200
H561	H56	0.863400	0.176100	0.897200
H571	H57	0.996200	0.158300	0.937000
H581	H58	0.726700	0.525200	0.023000
H591	H59	0.100300	0.461700	0.105800
H601	H60	0.684000	0.593700	0.820800
H611	H61	0.595200	0.817000	0.456000
H621	H62	0.383200	0.523100	0.660600
H631	H63	0.286200	0.436900	0.661400
H641	H64	0.448600	0.445000	0.690800
H651	H65	0.546100	0.306700	0.614800
H661	H66	0.363400	0.323900	0.602800
H671	H67	0.496200	0.341700	0.563000
H681	H68	0.226700	0.974800	0.477000
H691	H69	0.600300	0.038300	0.394200
H701	H70	0.184000	0.906300	0.679200
H711	H71	0.904800	0.317000	0.544000
H721	H72	0.116800	0.023100	0.339400
H731	H73	0.213800	0.936900	0.338600
H741	H74	0.051400	0.945000	0.309200
H751	H75	0.953900	0.806700	0.385200
H761	H76	0.136600	0.823900	0.397200
H771	H77	0.003800	0.841700	0.437000
H781	H78	0.273300	0.474800	0.523000
H791	H79	0.899700	0.538300	0.605800
H801	H80	0.316000	0.406300	0.320800
H811	H81	0.389200	0.715700	0.750000
H821	H82	0.110800	0.215700	0.250000
H831	H83	0.610800	0.284300	0.250000
H841	H84	0.889200	0.784300	0.750000
C11	C1	0.545700	0.869600	0.049700
C21	C2	0.392000	0.461900	0.838500
C31	C3	0.400000	0.886200	0.027600
C41	C4	0.472200	0.343300	0.902500
C51	C5	0.327200	0.962400	0.036600
C61	C6	0.550600	0.488800	0.910300
C71	C7	0.403000	0.020600	0.066000
C81	C8	0.548000	0.998500	0.085900
C91	C9	0.327900	0.824200	0.994800
C101	C10	0.333100	0.105900	0.074100
C111	C11	0.211600	0.880200	0.791200
C121	C12	0.289600	0.803200	0.792800
C131	C13	0.331000	0.765800	0.839800
C141	C14	0.954300	0.369600	0.950300
C151	C15	0.108000	0.961900	0.161500
C161	C16	0.100000	0.386200	0.972400
C171	C17	0.027800	0.843300	0.097500
C181	C18	0.172800	0.462400	0.963400
C191	C19	0.949400	0.988800	0.089700
C201	C20	0.097000	0.520600	0.934000
C211	C21	0.952000	0.498500	0.914100
C221	C22	0.172100	0.324200	0.005200
C231	C23	0.166900	0.605900	0.925900
C241	C24	0.288400	0.380200	0.208800
C251	C25	0.210400	0.303200	0.207200
C261	C26	0.169000	0.265800	0.160200
C271	C27	0.454300	0.130400	0.549700
C281	C28	0.608000	0.538100	0.338500
C291	C29	0.600000	0.113800	0.527600
C301	C30	0.527800	0.656700	0.402500
C311	C31	0.672800	0.037600	0.536600
C321	C32	0.449400	0.511200	0.410300
C331	C33	0.597000	0.979400	0.566000
C341	C34	0.452000	0.001500	0.585900
C351	C35	0.672100	0.175800	0.494800
C361	C36	0.666900	0.894100	0.574100
C371	C37	0.788400	0.119800	0.291200
C381	C38	0.710400	0.196800	0.292800
C391	C39	0.669000	0.234200	0.339800
C401	C40	0.045700	0.630400	0.450300
C411	C41	0.892000	0.038100	0.661500
C421	C42	0.900000	0.613800	0.472400
C431	C43	0.972200	0.156700	0.597500
C441	C44	0.827200	0.537600	0.463400
C451	C45	0.050600	0.011200	0.589700
C461	C46	0.903000	0.479400	0.434000
C471	C47	0.048000	0.501500	0.414100
C481	C48	0.827900	0.675800	0.505200
C491	C49	0.833100	0.394100	0.425900
C501	C50	0.711600	0.619800	0.708800
C511	C51	0.789600	0.696800	0.707200
C521	C52	0.831000	0.734200	0.660200
C531	C53	0.454300	0.130400	0.950300
C541	C54	0.608000	0.538100	0.161500
C551	C55	0.600000	0.113800	0.972400
C561	C56	0.527800	0.656700	0.097500
C571	C57	0.672800	0.037600	0.963400
C581	C58	0.449400	0.511200	0.089700
C591	C59	0.597000	0.979400	0.934000
C601	C60	0.452000	0.001500	0.914100
C611	C61	0.672100	0.175800	0.005200
C621	C62	0.666900	0.894100	0.925900
C631	C63	0.788400	0.119800	0.208800
C641	C64	0.710400	0.196800	0.207200
C651	C65	0.669000	0.234200	0.160200
C661	C66	0.045700	0.630400	0.049700
C671	C67	0.892000	0.038100	0.838500
C681	C68	0.900000	0.613800	0.027600
C691	C69	0.972200	0.156700	0.902500
C701	C70	0.827200	0.537600	0.036600
C711	C71	0.050600	0.011200	0.910300
C721	C72	0.903000	0.479400	0.066000
C731	C73	0.048000	0.501500	0.085900
C741	C74	0.827900	0.675800	0.994800
C751	C75	0.833100	0.394100	0.074100
C761	C76	0.711600	0.619800	0.791200
C771	C77	0.789600	0.696800	0.792800
C781	C78	0.831000	0.734200	0.839800
C791	C79	0.545700	0.869600	0.450300
C801	C80	0.392000	0.461900	0.661500
C811	C81	0.400000	0.886200	0.472400
C821	C82	0.472200	0.343300	0.597500
C831	C83	0.327200	0.962400	0.463400
C841	C84	0.550600	0.488800	0.589700
C851	C85	0.403000	0.020600	0.434000
C861	C86	0.548000	0.998500	0.414100
C871	C87	0.327900	0.824200	0.505200
C881	C88	0.333100	0.105900	0.425900
C891	C89	0.211600	0.880200	0.708800
C901	C90	0.289600	0.803200	0.707200
C911	C91	0.331000	0.765800	0.660200
C921	C92	0.954300	0.369600	0.549700
C931	C93	0.108000	0.961900	0.338500
C941	C94	0.100000	0.386200	0.527600
C951	C95	0.027800	0.843300	0.402500
C961	C96	0.172800	0.462400	0.536600
C971	C97	0.949400	0.988800	0.410300
C981	C98	0.097000	0.520600	0.566000
C991	C99	0.952000	0.498500	0.585900
C1001	C100	0.172100	0.324200	0.494800
C1011	C101	0.166900	0.605900	0.574100
C1021	C102	0.288400	0.380200	0.291200
C1031	C103	0.210400	0.303200	0.292800
C1041	C104	0.169000	0.265800	0.339800
C1051	C105	0.331100	0.766800	0.750000
C1061	C106	0.168900	0.266800	0.250000
C1071	C107	0.668900	0.233200	0.250000
C1081	C108	0.831100	0.733200	0.750000
N11	N1	0.618000	0.924700	0.078500
N21	N2	0.488500	0.430100	0.884700
N31	N3	0.882000	0.424700	0.921500
N41	N4	0.011500	0.930100	0.115300
N51	N5	0.382000	0.075300	0.578500
N61	N6	0.511500	0.569900	0.384700
N71	N7	0.118000	0.575300	0.421500
N81	N8	0.988500	0.069900	0.615300
N91	N9	0.382000	0.075300	0.921500
N101	N10	0.511500	0.569900	0.115300
N111	N11	0.118000	0.575300	0.078500
N121	N12	0.988500	0.069900	0.884700
N131	N13	0.618000	0.924700	0.421500
N141	N14	0.488500	0.430100	0.615300
N151	N15	0.882000	0.424700	0.578500
N161	N16	0.011500	0.930100	0.384700
N171	N17	0.173000	0.919800	0.750000
N181	N18	0.327000	0.419800	0.250000
N191	N19	0.827000	0.080200	0.250000
N201	N20	0.673000	0.580200	0.750000
O11	O1	0.578500	0.560700	0.895500
O21	O2	0.408000	0.759600	0.984600
O31	O3	0.192400	0.838800	0.978200
O41	O4	0.423800	0.162000	0.090000
O51	O5	0.189900	0.115300	0.063800
O61	O6	0.435100	0.708500	0.840900
O71	O7	0.267500	0.792100	0.878450
O81	O8	0.921500	0.060700	0.104500
O91	O9	0.092000	0.259600	0.015400
O101	O10	0.307600	0.338800	0.021800
O111	O11	0.076200	0.662000	0.910000
O121	O12	0.310100	0.615300	0.936200
O131	O13	0.064900	0.208500	0.159100
O141	O14	0.232500	0.292100	0.121550
O151	O15	0.421500	0.439300	0.395500
O161	O16	0.592000	0.240400	0.484600
O171	O17	0.807600	0.161200	0.478200
O181	O18	0.576200	0.838000	0.590000
O191	O19	0.810100	0.884700	0.563800
O201	O20	0.564900	0.291500	0.340900
O211	O21	0.732500	0.207900	0.378450
O221	O22	0.078500	0.939300	0.604500
O231	O23	0.908000	0.740400	0.515400
O241	O24	0.692400	0.661200	0.521800
O251	O25	0.923800	0.338000	0.410000
O261	O26	0.689900	0.384700	0.436200
O271	O27	0.935100	0.791500	0.659100
O281	O28	0.767500	0.707900	0.621550
O291	O29	0.421500	0.439300	0.104500
O301	O30	0.592000	0.240400	0.015400
O311	O31	0.807600	0.161200	0.021800
O321	O32	0.576200	0.838000	0.910000
O331	O33	0.810100	0.884700	0.936200
O341	O34	0.564900	0.291500	0.159100
O351	O35	0.732500	0.207900	0.121550
O361	O36	0.078500	0.939300	0.895500
O371	O37	0.908000	0.740400	0.984600
O381	O38	0.692400	0.661200	0.978200
O391	O39	0.923800	0.338000	0.090000
O401	O40	0.689900	0.384700	0.063800
O411	O41	0.935100	0.791500	0.840900
O421	O42	0.767500	0.707900	0.878450
O431	O43	0.578500	0.560700	0.604500
O441	O44	0.408000	0.759600	0.515400
O451	O45	0.192400	0.838800	0.521800
O461	O46	0.423800	0.162000	0.410000
O471	O47	0.189900	0.115300	0.436200
O481	O48	0.435100	0.708500	0.659100
O491	O49	0.267500	0.792100	0.621550
O501	O50	0.921500	0.060700	0.395500
O511	O51	0.092000	0.259600	0.484600
O521	O52	0.307600	0.338800	0.478200
O531	O53	0.076200	0.662000	0.590000
O541	O54	0.310100	0.615300	0.563800
O551	O55	0.064900	0.208500	0.340900
O561	O56	0.232500	0.292100	0.378450
