data_SETSOB_freeONLY_PM
_symmetry_space_group_name_H-M	'P1'
_cell_length_a	14.646200
_cell_length_b	16.782400
_cell_length_c	16.782400
_cell_angle_alpha	120.000000
_cell_angle_beta	90.000000
_cell_angle_gamma	90.000000
_symmetry_Int_Tables_number 1

loop_
_symmetry_equiv_pos_as_xyz
'x,y,z'

loop_
_atom_site_label
_atom_site_type_symbol
_atom_site_fract_x
_atom_site_fract_y
_atom_site_fract_z
Zn11	Zn1	0.000000	0.341670	0.000000
Zn21	Zn2	0.000000	0.658330	0.658330
Zn31	Zn3	0.000000	0.000000	0.341670
Cr11	Cr1	0.500000	0.000000	0.885700
Cr21	Cr2	0.500000	0.885700	0.000000
Cr31	Cr3	0.500000	0.114300	0.114300
H11	H1	0.284500	0.294800	0.133200
H21	H2	0.114700	0.309700	0.130400
H31	H3	0.284500	0.838400	0.705200
H41	H4	0.114700	0.820700	0.690300
H51	H5	0.284500	0.866800	0.161600
H61	H6	0.114700	0.869600	0.179300
H71	H7	0.715500	0.294800	0.133200
H81	H8	0.885300	0.309700	0.130400
H91	H9	0.715500	0.838400	0.705200
H101	H10	0.885300	0.820700	0.690300
H111	H11	0.715500	0.866800	0.161600
H121	H12	0.885300	0.869600	0.179300
H131	H13	0.715500	0.161600	0.866800
H141	H14	0.885300	0.179300	0.869600
H151	H15	0.715500	0.133200	0.294800
H161	H16	0.885300	0.130400	0.309700
H171	H17	0.715500	0.705200	0.838400
H181	H18	0.885300	0.690300	0.820700
H191	H19	0.284500	0.161600	0.866800
H201	H20	0.114700	0.179300	0.869600
H211	H21	0.284500	0.133200	0.294800
H221	H22	0.114700	0.130400	0.309700
H231	H23	0.284500	0.705200	0.838400
H241	H24	0.114700	0.690300	0.820700
H251	H25	0.500000	0.000000	0.537600
H261	H26	0.500000	0.537600	0.000000
H271	H27	0.500000	0.462400	0.462400
H281	H28	0.000000	0.637600	0.181900
H291	H29	0.000000	0.544300	0.362400
H301	H30	0.000000	0.818100	0.455700
H311	H31	0.000000	0.455700	0.818100
H321	H32	0.000000	0.181900	0.637600
H331	H33	0.000000	0.362400	0.544300
H341	H34	0.500000	0.137400	0.815400
H351	H35	0.500000	0.135400	0.672600
H361	H36	0.500000	0.678000	0.862600
H371	H37	0.500000	0.537200	0.864600
H381	H38	0.500000	0.184600	0.322000
H391	H39	0.500000	0.327400	0.462800
H401	H40	0.500000	0.322000	0.184600
H411	H41	0.500000	0.462800	0.327400
H421	H42	0.500000	0.815400	0.137400
H431	H43	0.500000	0.672600	0.135400
H441	H44	0.500000	0.862600	0.678000
H451	H45	0.500000	0.864600	0.537200
C11	C1	0.250500	0.269700	0.078500
C21	C2	0.149500	0.278900	0.076200
C31	C3	0.250500	0.808800	0.730300
C41	C4	0.149500	0.797300	0.721100
C51	C5	0.250500	0.921500	0.191200
C61	C6	0.149500	0.923800	0.202700
C71	C7	0.749500	0.269700	0.078500
C81	C8	0.850500	0.278900	0.076200
C91	C9	0.749500	0.808800	0.730300
C101	C10	0.850500	0.797300	0.721100
C111	C11	0.749500	0.921500	0.191200
C121	C12	0.850500	0.923800	0.202700
C131	C13	0.749500	0.191200	0.921500
C141	C14	0.850500	0.202700	0.923800
C151	C15	0.749500	0.078500	0.269700
C161	C16	0.850500	0.076200	0.278900
C171	C17	0.749500	0.730300	0.808800
C181	C18	0.850500	0.721100	0.797300
C191	C19	0.250500	0.191200	0.921500
C201	C20	0.149500	0.202700	0.923800
C211	C21	0.250500	0.078500	0.269700
C221	C22	0.149500	0.076200	0.278900
C231	C23	0.250500	0.730300	0.808800
C241	C24	0.149500	0.721100	0.797300
C251	C25	0.500000	0.000000	0.593600
C261	C26	0.500000	0.593600	0.000000
C271	C27	0.500000	0.406400	0.406400
C281	C28	0.370200	0.148600	0.000000
C291	C29	0.282300	0.195400	0.000000
C301	C30	0.370200	0.851400	0.851400
C311	C31	0.282300	0.804600	0.804600
C321	C32	0.370200	0.000000	0.148600
C331	C33	0.282300	0.000000	0.195400
C341	C34	0.629800	0.148600	0.000000
C351	C35	0.717700	0.195400	0.000000
C361	C36	0.629800	0.851400	0.851400
C371	C37	0.717700	0.804600	0.804600
C381	C38	0.629800	0.000000	0.148600
C391	C39	0.717700	0.000000	0.195400
C401	C40	0.000000	0.478600	0.182700
C411	C41	0.000000	0.576400	0.259500
C421	C42	0.000000	0.649100	0.242800
C431	C43	0.000000	0.704100	0.521400
C441	C44	0.000000	0.683100	0.423600
C451	C45	0.000000	0.593700	0.350900
C461	C46	0.000000	0.817300	0.295900
C471	C47	0.000000	0.740500	0.316900
C481	C48	0.000000	0.757200	0.406300
C491	C49	0.000000	0.295900	0.817300
C501	C50	0.000000	0.316900	0.740500
C511	C51	0.000000	0.406300	0.757200
C521	C52	0.000000	0.182700	0.478600
C531	C53	0.000000	0.259500	0.576400
C541	C54	0.000000	0.242800	0.649100
C551	C55	0.000000	0.521400	0.704100
C561	C56	0.000000	0.423600	0.683100
C571	C57	0.000000	0.350900	0.593700
C581	C58	0.500000	0.081000	0.759900
C591	C59	0.500000	0.079700	0.673100
C601	C60	0.500000	0.678900	0.919000
C611	C61	0.500000	0.593400	0.920300
C621	C62	0.500000	0.240100	0.321100
C631	C63	0.500000	0.326900	0.406600
C641	C64	0.500000	0.321100	0.240100
C651	C65	0.500000	0.406600	0.326900
C661	C66	0.500000	0.759900	0.081000
C671	C67	0.500000	0.673100	0.079700
C681	C68	0.500000	0.919000	0.678900
C691	C69	0.500000	0.920300	0.593400
N11	N1	0.500000	0.000000	0.761400
N21	N2	0.500000	0.761400	0.000000
N31	N3	0.500000	0.238600	0.238600
N41	N4	0.117800	0.275700	0.000000
N51	N5	0.117800	0.724300	0.724300
N61	N6	0.117800	0.000000	0.275700
N71	N7	0.882200	0.275700	0.000000
N81	N8	0.882200	0.724300	0.724300
N91	N9	0.882200	0.000000	0.275700
O11	O1	0.402590	0.092700	0.923430
O21	O2	0.402590	0.830730	0.907300
O31	O3	0.402590	0.076570	0.169270
O41	O4	0.597410	0.092700	0.923430
O51	O5	0.597410	0.830730	0.907300
O61	O6	0.597410	0.076570	0.169270
O71	O7	0.597410	0.169270	0.076570
O81	O8	0.597410	0.923430	0.092700
O91	O9	0.597410	0.907300	0.830730
O101	O10	0.402590	0.169270	0.076570
O111	O11	0.402590	0.923430	0.092700
O121	O12	0.402590	0.907300	0.830730
O131	O13	0.500000	0.000000	0.000000
O141	O14	0.000000	0.415220	0.199120
O151	O15	0.000000	0.468000	0.102200
O161	O16	0.000000	0.783900	0.584780
O171	O17	0.000000	0.634200	0.532000
O181	O18	0.000000	0.800880	0.216100
O191	O19	0.000000	0.897800	0.365800
O201	O20	0.000000	0.216100	0.800880
O211	O21	0.000000	0.365800	0.897800
O221	O22	0.000000	0.199120	0.415220
O231	O23	0.000000	0.102200	0.468000
O241	O24	0.000000	0.584780	0.783900
O251	O25	0.000000	0.532000	0.634200
