data_SETXAS_freeONLY_PM
_symmetry_space_group_name_H-M	'P1'
_cell_length_a	10.575000
_cell_length_b	10.894000
_cell_length_c	13.870000
_cell_angle_alpha	87.233000
_cell_angle_beta	72.403000
_cell_angle_gamma	66.408000
_symmetry_Int_Tables_number 1

loop_
_symmetry_equiv_pos_as_xyz
'x,y,z'

loop_
_atom_site_label
_atom_site_type_symbol
_atom_site_fract_x
_atom_site_fract_y
_atom_site_fract_z
Zn11	Zn1	0.002240	0.817770	0.664160
Zn21	Zn2	0.997760	0.182230	0.335840
Mo11	Mo1	0.780840	0.984500	0.486440
Mo21	Mo2	0.472750	0.001170	0.633560
Mo31	Mo3	0.175730	0.291170	0.626480
Mo41	Mo4	0.490510	0.269090	0.479850
Mo51	Mo5	0.219160	0.015500	0.513560
Mo61	Mo6	0.527250	0.998830	0.366440
Mo71	Mo7	0.824270	0.708830	0.373520
Mo81	Mo8	0.509490	0.730910	0.520150
H11	H1	0.493100	0.727200	0.827700
H21	H2	0.353600	0.804600	0.918700
H31	H3	0.174300	0.889200	0.808300
H41	H4	0.241300	0.542400	0.697200
H51	H5	0.145000	0.677700	0.113700
H61	H6	0.179000	0.752800	0.016200
H71	H7	0.000600	0.908900	0.229800
H81	H8	0.239500	0.592500	0.226500
H91	H9	0.369500	0.473700	0.249300
H101	H10	0.187600	0.357600	0.349000
H111	H11	0.097100	0.279000	0.115700
H121	H12	0.081200	0.618500	0.520200
H131	H13	0.189900	0.662500	0.503300
H141	H14	0.506900	0.272800	0.172300
H151	H15	0.646400	0.195400	0.081300
H161	H16	0.825700	0.110800	0.191700
H171	H17	0.758700	0.457600	0.302800
H181	H18	0.855000	0.322300	0.886300
H191	H19	0.821000	0.247200	0.983800
H201	H20	0.999400	0.091100	0.770200
H211	H21	0.760500	0.407500	0.773500
H221	H22	0.630500	0.526300	0.750700
H231	H23	0.812400	0.642400	0.651000
H241	H24	0.902900	0.721000	0.884300
H251	H25	0.918800	0.381500	0.479800
H261	H26	0.810100	0.337500	0.496700
C11	C1	0.454300	0.605600	0.940200
C21	C2	0.363000	0.606000	0.036400
C31	C3	0.408700	0.501100	0.097400
C41	C4	0.407700	0.721200	0.875500
C51	C5	0.210800	0.797400	0.791000
C61	C6	0.249800	0.608500	0.731600
C71	C7	0.210800	0.716100	0.074000
C81	C8	0.091300	0.912100	0.207000
C91	C9	0.265700	0.970100	0.181500
C101	C10	0.311800	0.501800	0.203300
C111	C11	0.181400	0.353300	0.283800
C121	C12	0.133000	0.313000	0.156600
C131	C13	0.545700	0.394400	0.059800
C141	C14	0.637000	0.394000	0.963600
C151	C15	0.591300	0.498900	0.902600
C161	C16	0.592300	0.278800	0.124500
C171	C17	0.789200	0.202600	0.209000
C181	C18	0.750200	0.391500	0.268400
C191	C19	0.789200	0.283900	0.926000
C201	C20	0.908700	0.087900	0.793000
C211	C21	0.734300	0.029900	0.818500
C221	C22	0.688200	0.498200	0.796700
C231	C23	0.818600	0.646700	0.716200
C241	C24	0.867000	0.687000	0.843400
N11	N1	0.164500	0.741100	0.734800
N21	N2	0.317000	0.704300	0.819200
N31	N3	0.344800	0.580800	0.780500
N41	N4	0.122800	0.002700	0.240400
N51	N5	0.204100	0.825400	0.136800
N61	N6	0.318000	0.843000	0.137400
N71	N7	0.114700	0.289200	0.254100
N81	N8	0.238400	0.410800	0.205200
N91	N9	0.205400	0.387800	0.122800
N101	N10	0.835500	0.258900	0.265200
N111	N11	0.683000	0.295700	0.180800
N121	N12	0.655200	0.419200	0.219500
N131	N13	0.877200	0.997300	0.759600
N141	N14	0.795900	0.174600	0.863200
N151	N15	0.682000	0.157000	0.862600
N161	N16	0.885300	0.710800	0.745900
N171	N17	0.761600	0.589200	0.794800
N181	N18	0.794600	0.612200	0.877200
O11	O1	0.851700	0.894000	0.576000
O21	O2	0.877600	0.858600	0.373100
O31	O3	0.869600	0.088200	0.447800
O41	O4	0.630000	0.101600	0.392000
O51	O5	0.592600	0.103600	0.582100
O61	O6	0.551400	0.908700	0.716700
O71	O7	0.320900	0.135200	0.707300
O81	O8	0.377000	0.115700	0.503900
O91	O9	0.061300	0.376300	0.739300
O101	O10	0.099400	0.376100	0.538000
O111	O11	0.334900	0.341800	0.601200
O121	O12	0.413300	0.351100	0.392300
O131	O13	0.603300	0.340100	0.488000
O141	O14	0.118800	0.655900	0.548300
O151	O15	0.148300	0.106000	0.424000
O161	O16	0.122400	0.141400	0.626900
O171	O17	0.130400	0.911800	0.552200
O181	O18	0.370000	0.898400	0.608000
O191	O19	0.407400	0.896400	0.417900
O201	O20	0.448600	0.091300	0.283300
O211	O21	0.679100	0.864800	0.292700
O221	O22	0.623000	0.884300	0.496100
O231	O23	0.938700	0.623700	0.260700
O241	O24	0.900600	0.623900	0.462000
O251	O25	0.665100	0.658200	0.398800
O261	O26	0.586700	0.648900	0.607700
O271	O27	0.396700	0.659900	0.512000
O281	O28	0.881200	0.344100	0.451700
