data_SIVVAW_freeONLY_PM
_symmetry_space_group_name_H-M	'P1'
_cell_length_a	9.860000
_cell_length_b	11.650000
_cell_length_c	13.113000
_cell_angle_alpha	90.000000
_cell_angle_beta	90.000000
_cell_angle_gamma	101.990000
_symmetry_Int_Tables_number 1

loop_
_symmetry_equiv_pos_as_xyz
'x,y,z'

loop_
_atom_site_label
_atom_site_type_symbol
_atom_site_fract_x
_atom_site_fract_y
_atom_site_fract_z
Cd11	Cd1	0.256720	0.494020	0.504690
Cd21	Cd2	0.743280	0.505980	0.495310
Cd31	Cd3	0.743280	0.005980	0.004690
Cd41	Cd4	0.256720	0.994020	0.995310
H11	H1	0.276600	0.002600	0.239400
H21	H2	0.663200	0.375500	0.877500
H31	H3	0.021100	0.608800	0.367200
H41	H4	0.336800	0.124500	0.377500
H51	H5	0.663200	0.875500	0.622500
H61	H6	0.405500	0.259200	0.049500
H71	H7	0.723400	0.497400	0.739400
H81	H8	0.487200	0.887300	0.317300
H91	H9	0.106500	0.743000	0.241600
H101	H10	0.336800	0.624500	0.122500
H111	H11	0.487200	0.387300	0.182700
H121	H12	0.405500	0.759200	0.450500
H131	H13	0.714200	0.263800	0.324600
H141	H14	0.644800	0.643100	0.313300
H151	H15	0.644800	0.143100	0.186700
H161	H16	0.512800	0.612700	0.817300
H171	H17	0.893500	0.757000	0.741600
H181	H18	0.978900	0.391200	0.632800
H191	H19	0.285800	0.736200	0.675400
H201	H20	0.276600	0.502600	0.260600
H211	H21	0.594500	0.740800	0.950500
H221	H22	0.285800	0.236200	0.824600
H231	H23	0.355200	0.356900	0.686700
H241	H24	0.106500	0.243000	0.258400
H251	H25	0.594500	0.240800	0.549500
H261	H26	0.723400	0.997400	0.760600
H271	H27	0.021100	0.108800	0.132800
H281	H28	0.978900	0.891200	0.867200
H291	H29	0.893500	0.257000	0.758400
H301	H30	0.355200	0.856900	0.813300
H311	H31	0.714200	0.763800	0.175400
H321	H32	0.512800	0.112700	0.682700
C11	C1	0.919300	0.268800	0.304700
C21	C2	0.536700	0.646300	0.615200
C31	C3	0.315200	0.081500	0.228400
C41	C4	0.039700	0.854600	0.831700
C51	C5	0.684800	0.918500	0.771600
C61	C6	0.418400	0.771200	0.204000
C71	C7	0.463300	0.853700	0.115200
C81	C8	0.221000	0.763000	0.715500
C91	C9	0.030400	0.647100	0.609200
C101	C10	0.988300	0.277400	0.745900
C111	C11	0.581600	0.728800	0.704000
C121	C12	0.011700	0.722600	0.254100
C131	C13	0.988300	0.777400	0.754100
C141	C14	0.646300	0.346200	0.811700
C151	C15	0.261000	0.836000	0.798400
C161	C16	0.418400	0.271200	0.296000
C171	C17	0.919300	0.768800	0.195300
C181	C18	0.353700	0.653800	0.188300
C191	C19	0.969600	0.852900	0.109200
C201	C20	0.646300	0.846200	0.688300
C211	C21	0.536700	0.146300	0.884800
C221	C22	0.739000	0.164000	0.201600
C231	C23	0.463300	0.353700	0.384800
C241	C24	0.960300	0.145400	0.168300
C251	C25	0.441200	0.310700	0.196300
C261	C26	0.558800	0.689300	0.803700
C271	C27	0.393400	0.232300	0.116300
C281	C28	0.261000	0.336000	0.701600
C291	C29	0.011700	0.222600	0.245900
C301	C30	0.684800	0.418500	0.728400
C311	C31	0.606600	0.267700	0.616300
C321	C32	0.353700	0.153800	0.311700
C331	C33	0.739000	0.664000	0.298400
C341	C34	0.558800	0.189300	0.696300
C351	C35	0.779000	0.737000	0.215500
C361	C36	0.315200	0.581500	0.271600
C371	C37	0.441200	0.810700	0.303700
C381	C38	0.221000	0.263000	0.784500
C391	C39	0.080700	0.731200	0.695300
C401	C40	0.779000	0.237000	0.284500
C411	C41	0.969600	0.352900	0.390800
C421	C42	0.960300	0.645400	0.331700
C431	C43	0.030400	0.147100	0.890800
C441	C44	0.393400	0.732300	0.383700
C451	C45	0.080700	0.231200	0.804700
C461	C46	0.581600	0.228800	0.796000
C471	C47	0.606600	0.767700	0.883700
C481	C48	0.039700	0.354600	0.668300
N11	N1	0.331700	0.121600	0.132400
N21	N2	0.668300	0.378400	0.632400
N31	N3	0.174600	0.878700	0.857700
N41	N4	0.825400	0.621300	0.357700
N51	N5	0.174600	0.378700	0.642300
N61	N6	0.668300	0.878400	0.867600
N71	N7	0.825400	0.121300	0.142300
N81	N8	0.331700	0.621600	0.367600
O11	O1	0.583700	0.412600	0.379500
O21	O2	0.903600	0.105800	0.892200
O31	O3	0.380800	0.852700	0.043800
O41	O4	0.882100	0.872800	0.046400
O51	O5	0.583700	0.912600	0.120500
O61	O6	0.619200	0.147300	0.956200
O71	O7	0.416300	0.087400	0.879500
O81	O8	0.380800	0.352700	0.456200
O91	O9	0.619200	0.647300	0.543800
O101	O10	0.903600	0.605800	0.607800
O111	O11	0.096400	0.394200	0.392200
O121	O12	0.117900	0.127200	0.953600
O131	O13	0.416300	0.587400	0.620500
O141	O14	0.882100	0.372800	0.453600
O151	O15	0.117900	0.627200	0.546400
O161	O16	0.096400	0.894200	0.107800
