data_SOBZEQ_freeONLY_PM
_symmetry_space_group_name_H-M	'P1'
_cell_length_a	13.912900
_cell_length_b	14.276700
_cell_length_c	18.623000
_cell_angle_alpha	94.191000
_cell_angle_beta	90.000000
_cell_angle_gamma	90.000000
_symmetry_Int_Tables_number 1

loop_
_symmetry_equiv_pos_as_xyz
'x,y,z'

loop_
_atom_site_label
_atom_site_type_symbol
_atom_site_fract_x
_atom_site_fract_y
_atom_site_fract_z
Ca11	Ca1	0.701950	0.584580	0.372050
Ca21	Ca2	0.298050	0.415420	0.627950
Ca31	Ca3	0.201950	0.915420	0.127950
Ca41	Ca4	0.798050	0.084580	0.872050
Cd11	Cd1	0.543010	0.502580	0.226420
Cd21	Cd2	0.956990	0.002580	0.726420
Cd31	Cd3	0.456990	0.497420	0.773580
Cd41	Cd4	0.043010	0.997420	0.273580
H11	H1	0.600600	0.452600	0.975400
H21	H2	0.537000	0.172700	0.190700
H31	H3	0.943000	0.334500	0.398400
H41	H4	0.064500	0.514600	0.814800
H51	H5	0.148000	0.016300	0.003500
H61	H6	0.780300	0.236500	0.248800
H71	H7	0.820000	0.129000	0.439300
H81	H8	0.851100	0.944500	0.550800
H91	H9	0.557000	0.834500	0.898400
H101	H10	0.680000	0.629000	0.939300
H111	H11	0.936800	0.631300	0.763800
H121	H12	0.443000	0.165500	0.101600
H131	H13	0.563200	0.131300	0.263800
H141	H14	0.925800	0.427500	0.446700
H151	H15	0.574200	0.927500	0.946700
H161	H16	0.180000	0.871000	0.560700
H171	H17	0.549800	0.395700	0.033500
H181	H18	0.918000	0.815100	0.024800
H191	H19	0.021700	0.413300	0.403000
H201	H20	0.856800	0.406900	0.185900
H211	H21	0.141500	0.154100	0.075700
H221	H22	0.978300	0.586700	0.597000
H231	H23	0.463000	0.827300	0.809300
H241	H24	0.564500	0.985400	0.685200
H251	H25	0.770200	0.882300	0.356000
H261	H26	0.425800	0.072500	0.053300
H271	H27	0.191400	0.851200	0.450900
H281	H28	0.100600	0.047400	0.524600
H291	H29	0.356800	0.093100	0.314100
H301	H30	0.842300	0.502500	0.231600
H311	H31	0.849200	0.736200	0.220400
H321	H32	0.232800	0.950900	0.977500
H331	H33	0.308600	0.351200	0.950900
H341	H34	0.137700	0.081400	0.602200
H351	H35	0.732800	0.549100	0.522500
H361	H36	0.015300	0.709800	0.761700
H371	H37	0.691400	0.648800	0.049100
H381	H38	0.280300	0.263500	0.251200
H391	H39	0.650800	0.236200	0.720400
H401	H40	0.342300	0.997500	0.268400
H411	H41	0.899400	0.952600	0.475400
H421	H42	0.648000	0.483700	0.496500
H431	H43	0.729800	0.382300	0.856000
H441	H44	0.852000	0.983700	0.996500
H451	H45	0.630500	0.333200	0.840200
H461	H46	0.869500	0.833200	0.340200
H471	H47	0.229800	0.117700	0.644000
H481	H48	0.808600	0.148800	0.549100
H491	H49	0.478300	0.913300	0.903000
H501	H50	0.082000	0.184900	0.975200
H511	H51	0.150800	0.263800	0.779600
H521	H52	0.063200	0.368700	0.236200
H531	H53	0.358500	0.654100	0.575700
H541	H54	0.935500	0.485400	0.185200
H551	H55	0.049800	0.104300	0.466500
H561	H56	0.270200	0.617700	0.144000
H571	H57	0.450200	0.604300	0.966500
H581	H58	0.148900	0.055500	0.449200
H591	H59	0.657700	0.002500	0.731600
H601	H60	0.349200	0.763800	0.279600
H611	H61	0.157700	0.497500	0.768400
H621	H62	0.719700	0.736500	0.748800
H631	H63	0.858500	0.845900	0.924300
H641	H64	0.130500	0.166800	0.659800
H651	H65	0.484700	0.209800	0.261700
H661	H66	0.637700	0.418600	0.897800
H671	H67	0.057000	0.665500	0.601600
H681	H68	0.963000	0.672700	0.690700
H691	H69	0.950200	0.895700	0.533500
H701	H70	0.648900	0.444500	0.050800
H711	H71	0.351100	0.555500	0.949200
H721	H72	0.515300	0.790200	0.738300
H731	H73	0.418000	0.684900	0.475200
H741	H74	0.037000	0.327300	0.309300
H751	H75	0.143200	0.593100	0.814100
H761	H76	0.074200	0.572500	0.553300
H771	H77	0.643200	0.906900	0.685900
H781	H78	0.267200	0.450900	0.477500
H791	H79	0.862300	0.918600	0.397800
H801	H80	0.369500	0.666800	0.159800
H811	H81	0.352000	0.516300	0.503500
H821	H82	0.521700	0.086700	0.097000
H831	H83	0.435500	0.014600	0.314800
H841	H84	0.399400	0.547400	0.024600
H851	H85	0.362300	0.581400	0.102200
H861	H86	0.436800	0.868700	0.736200
H871	H87	0.767200	0.049100	0.022500
H881	H88	0.582000	0.315100	0.524800
H891	H89	0.984700	0.290200	0.238300
H901	H90	0.641500	0.345900	0.424300
H911	H91	0.320000	0.371000	0.060700
H921	H92	0.219700	0.763500	0.751200
C11	C1	0.316400	0.698600	0.596800
C21	C2	0.877400	0.782800	0.054090
C31	C3	0.888700	0.456400	0.214300
C41	C4	0.799000	0.732900	0.023430
C51	C5	0.953800	0.401100	0.402700
C61	C6	0.524400	0.346300	0.659470
C71	C7	0.724800	0.235400	0.445320
C81	C8	0.512100	0.155500	0.236000
C91	C9	0.261200	0.817100	0.358480
C101	C10	0.796000	0.801700	0.830470
C111	C11	0.183600	0.198600	0.096800
C121	C12	0.185700	0.824900	0.660000
C131	C13	0.197500	0.872900	0.312590
C141	C14	0.238800	0.317100	0.858480
C151	C15	0.697500	0.627100	0.187410
C161	C16	0.610700	0.412300	0.013800
C171	C17	0.895400	0.784900	0.127350
C181	C18	0.670300	0.364000	0.876900
C191	C19	0.814300	0.175100	0.340000
C201	C20	0.802500	0.127100	0.687410
C211	C21	0.329700	0.636000	0.123100
C221	C22	0.209200	0.826800	0.587780
C231	C23	0.656200	0.372800	0.287040
C241	C24	0.975600	0.846300	0.159470
C251	C25	0.768300	0.237600	0.298020
C261	C26	0.256900	0.316700	0.931520
C271	C27	0.662700	0.234900	0.671250
C281	C28	0.308400	0.706700	0.061800
C291	C29	0.892700	0.111500	0.309190
C301	C30	0.775200	0.735400	0.945320
C311	C31	0.604600	0.284900	0.627350
C321	C32	0.738800	0.182900	0.641520
C331	C33	0.156200	0.127200	0.212960
C341	C34	0.731700	0.737600	0.798020
C351	C35	0.111300	0.543600	0.785700
C361	C36	0.701000	0.232900	0.523430
C371	C37	0.709200	0.673200	0.912220
C381	C38	0.889300	0.912300	0.513800
C391	C39	0.343800	0.627200	0.712960
C401	C40	0.337300	0.765100	0.328750
C411	C41	0.761200	0.682900	0.141520
C421	C42	0.837300	0.734900	0.171250
C431	C43	0.290800	0.326800	0.087780
C441	C44	0.231700	0.762400	0.701980
C451	C45	0.487900	0.844500	0.764000
C461	C46	0.843800	0.872800	0.787040
C471	C47	0.611300	0.956400	0.714300
C481	C48	0.389300	0.587700	0.986200
C491	C49	0.224800	0.264600	0.054680
C501	C50	0.107300	0.888500	0.690810
C511	C51	0.302500	0.372900	0.812590
C521	C52	0.296000	0.698300	0.669530
C531	C53	0.546200	0.901100	0.902700
C541	C54	0.388700	0.043600	0.285700
C551	C55	0.268300	0.262400	0.201980
C561	C56	0.594700	0.947700	0.835700
C571	C57	0.243100	0.816700	0.431520
C581	C58	0.622600	0.282800	0.554090
C591	C59	0.453800	0.098900	0.097300
C601	C60	0.704000	0.301700	0.330470
C611	C61	0.201000	0.267100	0.976570
C621	C62	0.122600	0.217200	0.945910
C631	C63	0.191600	0.206700	0.561800
C641	C64	0.162700	0.265100	0.828750
C651	C65	0.392700	0.388500	0.190810
C661	C66	0.204000	0.198300	0.169530
C671	C67	0.046200	0.598900	0.597300
C681	C68	0.299000	0.767100	0.476570
C691	C69	0.110700	0.087700	0.486200
C701	C70	0.691600	0.293300	0.938200
C711	C71	0.987900	0.655500	0.736000
C721	C72	0.756900	0.183300	0.568480
C731	C73	0.275200	0.764600	0.554680
C741	C74	0.012100	0.344500	0.264000
C751	C75	0.816400	0.801400	0.903200
C761	C76	0.905300	0.447700	0.335700
C771	C77	0.405300	0.052300	0.164300
C781	C78	0.685700	0.675100	0.840000
C791	C79	0.094700	0.552300	0.664300
C801	C80	0.314300	0.324900	0.160000
C811	C81	0.790800	0.173200	0.412220
C821	C82	0.808400	0.793300	0.438200
C831	C83	0.743100	0.683300	0.068480
C841	C84	0.475600	0.653700	0.340530
C851	C85	0.024400	0.153700	0.840530
C861	C86	0.104600	0.215100	0.872650
C871	C87	0.377400	0.717200	0.445910
C881	C88	0.607300	0.611500	0.809190
C891	C89	0.829700	0.864000	0.376900
C901	C90	0.395400	0.715100	0.372650
C911	C91	0.170300	0.136000	0.623100
C921	C92	0.683600	0.301400	0.403200
N11	N1	0.062300	0.583200	0.723100
N21	N2	0.158900	0.169800	0.513100
N31	N3	0.841100	0.830200	0.486900
N41	N4	0.658900	0.330200	0.986900
N51	N5	0.562300	0.916800	0.776900
N61	N6	0.937700	0.416800	0.276900
N71	N7	0.437700	0.083200	0.223100
N81	N8	0.341100	0.669800	0.013100
O11	O1	0.912360	0.110980	0.243620
O21	O2	0.767900	0.719100	0.421780
O31	O3	0.956580	0.134080	0.879890
O41	O4	0.807700	0.027290	0.987430
O51	O5	0.646690	0.358360	0.220840
O61	O6	0.692300	0.527290	0.487430
O71	O7	0.789340	0.130090	0.753800
O81	O8	0.034660	0.126090	0.775650
O91	O9	0.936070	0.062420	0.351900
O101	O10	0.853310	0.858360	0.720840
O111	O11	0.043420	0.865920	0.120110
O121	O12	0.232100	0.280900	0.578220
O131	O13	0.843230	0.506100	0.348640
O141	O14	0.875260	0.947850	0.821180
O151	O15	0.307700	0.472710	0.512570
O161	O16	0.210660	0.869910	0.246200
O171	O17	0.456580	0.365920	0.620110
O181	O18	0.146690	0.141640	0.279160
O191	O19	0.353310	0.641640	0.779160
O201	O20	0.412360	0.389020	0.256380
O211	O21	0.732100	0.219100	0.921780
O221	O22	0.375260	0.552150	0.678820
O231	O23	0.633110	0.579360	0.154690
O241	O24	0.343230	0.993900	0.151360
O251	O25	0.656770	0.006100	0.848640
O261	O26	0.124740	0.052150	0.178820
O271	O27	0.366890	0.420640	0.845310
O281	O28	0.156770	0.493900	0.651360
O291	O29	0.087640	0.889020	0.756380
O301	O30	0.289340	0.369910	0.746200
O311	O31	0.587640	0.610980	0.743620
O321	O32	0.866890	0.079360	0.654690
O331	O33	0.436070	0.437580	0.148100
O341	O34	0.192300	0.972710	0.012570
O351	O35	0.965340	0.873910	0.224350
O361	O36	0.543420	0.634080	0.379890
O371	O37	0.063930	0.937580	0.648100
O381	O38	0.563930	0.562420	0.851900
O391	O39	0.534660	0.373910	0.724350
O401	O40	0.133110	0.920640	0.345310
O411	O41	0.267900	0.780900	0.078220
O421	O42	0.710660	0.630090	0.253800
O431	O43	0.465340	0.626090	0.275650
O441	O44	0.624740	0.447850	0.321180
