data_SOHGUS_freeONLY_PM
_symmetry_space_group_name_H-M	'P1'
_cell_length_a	13.327000
_cell_length_b	14.151000
_cell_length_c	26.532000
_cell_angle_alpha	90.000000
_cell_angle_beta	101.512000
_cell_angle_gamma	90.000000
_symmetry_Int_Tables_number 1

loop_
_symmetry_equiv_pos_as_xyz
'x,y,z'

loop_
_atom_site_label
_atom_site_type_symbol
_atom_site_fract_x
_atom_site_fract_y
_atom_site_fract_z
Co11	Co1	0.017060	0.866750	0.269070
Co21	Co2	0.010550	0.113520	0.243930
Co31	Co3	0.982940	0.366750	0.230930
Co41	Co4	0.989450	0.613520	0.256070
Co51	Co5	0.982940	0.133250	0.730930
Co61	Co6	0.989450	0.886480	0.756070
Co71	Co7	0.017060	0.633250	0.769070
Co81	Co8	0.010550	0.386480	0.743930
H11	H1	0.269800	0.859300	0.295500
H21	H2	0.242200	0.118900	0.232800
H31	H3	0.793800	0.865200	0.294500
H41	H4	0.765500	0.122600	0.229800
H51	H5	0.618600	0.864700	0.299000
H61	H6	0.446900	0.870900	0.302800
H71	H7	0.415000	0.117400	0.226500
H81	H8	0.589300	0.122100	0.229700
H91	H9	0.975200	0.584300	0.376300
H101	H10	0.017000	0.862600	0.389000
H111	H11	0.928700	0.856300	0.457300
H121	H12	0.924300	0.864600	0.545900
H131	H13	0.015600	0.593300	0.562100
H141	H14	0.030700	0.587900	0.475100
H151	H15	0.007000	0.601000	0.649900
H161	H16	0.930700	0.876100	0.631900
H171	H17	0.730200	0.359300	0.204500
H181	H18	0.757800	0.618900	0.267200
H191	H19	0.206200	0.365200	0.205500
H201	H20	0.234500	0.622600	0.270200
H211	H21	0.381400	0.364700	0.201000
H221	H22	0.553100	0.370900	0.197200
H231	H23	0.585000	0.617400	0.273500
H241	H24	0.410700	0.622100	0.270300
H251	H25	0.024800	0.084300	0.123700
H261	H26	0.983000	0.362600	0.111000
H271	H27	0.071300	0.356300	0.042700
H281	H28	0.075700	0.364600	0.954100
H291	H29	0.984400	0.093300	0.937900
H301	H30	0.969300	0.087900	0.024900
H311	H31	0.993000	0.101000	0.850100
H321	H32	0.069300	0.376100	0.868100
H331	H33	0.730200	0.140700	0.704500
H341	H34	0.757800	0.881100	0.767200
H351	H35	0.206200	0.134800	0.705500
H361	H36	0.234500	0.877400	0.770200
H371	H37	0.381400	0.135300	0.701000
H381	H38	0.553100	0.129100	0.697200
H391	H39	0.585000	0.882600	0.773500
H401	H40	0.410700	0.877900	0.770300
H411	H41	0.024800	0.415700	0.623700
H421	H42	0.983000	0.137400	0.611000
H431	H43	0.071300	0.143700	0.542700
H441	H44	0.075700	0.135400	0.454100
H451	H45	0.984400	0.406700	0.437900
H461	H46	0.969300	0.412100	0.524900
H471	H47	0.993000	0.399000	0.350100
H481	H48	0.069300	0.123900	0.368100
H491	H49	0.269800	0.640700	0.795500
H501	H50	0.242200	0.381100	0.732800
H511	H51	0.793800	0.634800	0.794500
H521	H52	0.765500	0.377400	0.729800
H531	H53	0.618600	0.635300	0.799000
H541	H54	0.446900	0.629100	0.802800
H551	H55	0.415000	0.382600	0.726500
H561	H56	0.589300	0.377900	0.729700
H571	H57	0.975200	0.915700	0.876300
H581	H58	0.017000	0.637400	0.889000
H591	H59	0.928700	0.643700	0.957300
H601	H60	0.924300	0.635400	0.045900
H611	H61	0.015600	0.906700	0.062100
H621	H62	0.030700	0.912100	0.975100
H631	H63	0.007000	0.899000	0.149900
H641	H64	0.930700	0.623900	0.131900
C11	C1	0.242800	0.917300	0.280500
C21	C2	0.299300	0.992000	0.263500
C31	C3	0.227600	0.059500	0.246400
C41	C4	0.807900	0.922700	0.278800
C51	C5	0.732000	0.993900	0.261200
C61	C6	0.791300	0.063400	0.243500
C71	C7	0.624500	0.993500	0.264700
C81	C8	0.578800	0.918000	0.285500
C91	C9	0.475600	0.921100	0.286500
C101	C10	0.412800	0.993200	0.265300
C111	C11	0.457000	0.067400	0.242700
C121	C12	0.560400	0.069100	0.243600
C131	C13	0.984100	0.648800	0.368400
C141	C14	0.988700	0.723600	0.403000
C151	C15	0.007200	0.800400	0.375400
C161	C16	0.981400	0.722700	0.458900
C171	C17	0.948800	0.803200	0.478800
C181	C18	0.944700	0.807600	0.531900
C191	C19	0.969600	0.732000	0.562500
C201	C20	0.000100	0.647700	0.541100
C211	C21	0.007800	0.643800	0.489100
C221	C22	0.993600	0.665400	0.656300
C231	C23	0.971000	0.738600	0.618400
C241	C24	0.952600	0.816300	0.646200
C251	C25	0.757200	0.417300	0.219500
C261	C26	0.700700	0.492000	0.236500
C271	C27	0.772400	0.559500	0.253600
C281	C28	0.192100	0.422700	0.221200
C291	C29	0.268000	0.493900	0.238800
C301	C30	0.208700	0.563400	0.256500
C311	C31	0.375500	0.493500	0.235300
C321	C32	0.421200	0.418000	0.214500
C331	C33	0.524400	0.421100	0.213500
C341	C34	0.587200	0.493200	0.234700
C351	C35	0.543000	0.567400	0.257300
C361	C36	0.439600	0.569100	0.256400
C371	C37	0.015900	0.148800	0.131600
C381	C38	0.011300	0.223600	0.097000
C391	C39	0.992800	0.300400	0.124600
C401	C40	0.018600	0.222700	0.041100
C411	C41	0.051200	0.303200	0.021200
C421	C42	0.055300	0.307600	0.968100
C431	C43	0.030400	0.232000	0.937500
C441	C44	0.999900	0.147700	0.958900
C451	C45	0.992200	0.143800	0.010900
C461	C46	0.006400	0.165400	0.843700
C471	C47	0.029000	0.238600	0.881600
C481	C48	0.047400	0.316300	0.853800
C491	C49	0.757200	0.082700	0.719500
C501	C50	0.700700	0.008000	0.736500
C511	C51	0.772400	0.940500	0.753600
C521	C52	0.192100	0.077300	0.721200
C531	C53	0.268000	0.006100	0.738800
C541	C54	0.208700	0.936600	0.756500
C551	C55	0.375500	0.006500	0.735300
C561	C56	0.421200	0.082000	0.714500
C571	C57	0.524400	0.078900	0.713500
C581	C58	0.587200	0.006800	0.734700
C591	C59	0.543000	0.932600	0.757300
C601	C60	0.439600	0.930900	0.756400
C611	C61	0.015900	0.351200	0.631600
C621	C62	0.011300	0.276400	0.597000
C631	C63	0.992800	0.199600	0.624600
C641	C64	0.018600	0.277300	0.541100
C651	C65	0.051200	0.196800	0.521200
C661	C66	0.055300	0.192400	0.468100
C671	C67	0.030400	0.268000	0.437500
C681	C68	0.999900	0.352300	0.458900
C691	C69	0.992200	0.356200	0.510900
C701	C70	0.006400	0.334600	0.343700
C711	C71	0.029000	0.261400	0.381600
C721	C72	0.047400	0.183700	0.353800
C731	C73	0.242800	0.582700	0.780500
C741	C74	0.299300	0.508000	0.763500
C751	C75	0.227600	0.440500	0.746400
C761	C76	0.807900	0.577300	0.778800
C771	C77	0.732000	0.506100	0.761200
C781	C78	0.791300	0.436600	0.743500
C791	C79	0.624500	0.506500	0.764700
C801	C80	0.578800	0.582000	0.785500
C811	C81	0.475600	0.578900	0.786500
C821	C82	0.412800	0.506800	0.765300
C831	C83	0.457000	0.432600	0.742700
C841	C84	0.560400	0.430900	0.743600
C851	C85	0.984100	0.851200	0.868400
C861	C86	0.988700	0.776400	0.903000
C871	C87	0.007200	0.699600	0.875400
C881	C88	0.981400	0.777300	0.958900
C891	C89	0.948800	0.696800	0.978800
C901	C90	0.944700	0.692400	0.031900
C911	C91	0.969600	0.768000	0.062500
C921	C92	0.000100	0.852300	0.041100
C931	C93	0.007800	0.856200	0.989100
C941	C94	0.993600	0.834600	0.156300
C951	C95	0.971000	0.761400	0.118400
C961	C96	0.952600	0.683700	0.146200
N11	N1	0.143300	0.944400	0.271400
N21	N2	0.133700	0.031400	0.251100
N31	N3	0.899200	0.946000	0.270600
N41	N4	0.888400	0.036300	0.248200
N51	N5	0.994600	0.683200	0.320100
N61	N6	0.010100	0.776300	0.324100
N71	N7	0.992500	0.703900	0.701800
N81	N8	0.969800	0.795700	0.696000
N91	N9	0.856700	0.444400	0.228600
N101	N10	0.866300	0.531400	0.248900
N111	N11	0.100800	0.446000	0.229400
N121	N12	0.111600	0.536300	0.251800
N131	N13	0.005400	0.183200	0.179900
N141	N14	0.989900	0.276300	0.175900
N151	N15	0.007500	0.203900	0.798200
N161	N16	0.030200	0.295700	0.804000
N171	N17	0.856700	0.055600	0.728600
N181	N18	0.866300	0.968600	0.748900
N191	N19	0.100800	0.054000	0.729400
N201	N20	0.111600	0.963700	0.751800
N211	N21	0.005400	0.316800	0.679900
N221	N22	0.989900	0.223700	0.675900
N231	N23	0.007500	0.296100	0.298200
N241	N24	0.030200	0.204300	0.304000
N251	N25	0.143300	0.555600	0.771400
N261	N26	0.133700	0.468600	0.751100
N271	N27	0.899200	0.554000	0.770600
N281	N28	0.888400	0.463700	0.748200
N291	N29	0.994600	0.816800	0.820100
N301	N30	0.010100	0.723700	0.824100
N311	N31	0.992500	0.796100	0.201800
N321	N32	0.969800	0.704300	0.196000
