data_SOMCON_freeONLY_PM
_symmetry_space_group_name_H-M	'P1'
_cell_length_a	13.816400
_cell_length_b	27.998700
_cell_length_c	44.158900
_cell_angle_alpha	90.000000
_cell_angle_beta	90.000000
_cell_angle_gamma	90.000000
_symmetry_Int_Tables_number 1

loop_
_symmetry_equiv_pos_as_xyz
'x,y,z'

loop_
_atom_site_label
_atom_site_type_symbol
_atom_site_fract_x
_atom_site_fract_y
_atom_site_fract_z
Zn11	Zn1	0.138880	0.547940	0.910650
Zn21	Zn2	0.188730	0.738510	0.178950
Zn31	Zn3	0.381490	0.524510	0.086590
Zn41	Zn4	0.861120	0.952060	0.410650
Zn51	Zn5	0.811270	0.761490	0.678950
Zn61	Zn6	0.618510	0.975490	0.586590
Zn71	Zn7	0.638880	0.452060	0.589350
Zn81	Zn8	0.688730	0.261490	0.321050
Zn91	Zn9	0.881490	0.475490	0.413410
Zn101	Zn10	0.361120	0.047940	0.089350
Zn111	Zn11	0.311270	0.238510	0.821050
Zn121	Zn12	0.118510	0.024510	0.913410
H11	H1	0.219200	0.686500	0.121800
H21	H2	0.134100	0.647500	0.083900
H31	H3	0.980700	0.709900	0.167700
H41	H4	0.888000	0.669400	0.131500
H51	H5	0.540000	0.575400	0.120000
H61	H6	0.699400	0.599800	0.113400
H71	H7	0.519700	0.536300	0.034500
H81	H8	0.676800	0.563100	0.025100
H91	H9	0.952100	0.527600	0.941900
H101	H10	0.873200	0.548300	0.986600
H111	H11	0.201500	0.573200	0.974600
H121	H12	0.129200	0.594200	0.020000
H131	H13	0.120500	0.653200	0.930000
H141	H14	0.088900	0.726900	0.908500
H151	H15	0.057500	0.586400	0.853900
H161	H16	0.029500	0.657900	0.829500
H171	H17	0.932700	0.704300	0.721700
H181	H18	0.997700	0.710400	0.770500
H191	H19	0.858100	0.839800	0.722100
H201	H20	0.926500	0.851600	0.770100
H211	H21	0.054000	0.987400	0.853500
H221	H22	0.024000	0.916200	0.828400
H231	H23	0.109800	0.919300	0.929300
H241	H24	0.086200	0.846200	0.906200
H251	H25	0.780800	0.813500	0.621800
H261	H26	0.865900	0.852500	0.583900
H271	H27	0.019300	0.790100	0.667700
H281	H28	0.112000	0.830600	0.631500
H291	H29	0.460000	0.924600	0.620000
H301	H30	0.300600	0.900200	0.613400
H311	H31	0.480300	0.963700	0.534500
H321	H32	0.323200	0.936900	0.525100
H331	H33	0.047900	0.972400	0.441900
H341	H34	0.126800	0.951700	0.486600
H351	H35	0.798500	0.926800	0.474600
H361	H36	0.870800	0.905800	0.520000
H371	H37	0.879500	0.846800	0.430000
H381	H38	0.911100	0.773100	0.408500
H391	H39	0.942500	0.913600	0.353900
H401	H40	0.970500	0.842100	0.329500
H411	H41	0.067300	0.795700	0.221700
H421	H42	0.002300	0.789600	0.270500
H431	H43	0.141900	0.660200	0.222100
H441	H44	0.073500	0.648400	0.270100
H451	H45	0.946000	0.512600	0.353500
H461	H46	0.976000	0.583800	0.328400
H471	H47	0.890200	0.580700	0.429300
H481	H48	0.913800	0.653800	0.406200
H491	H49	0.719200	0.313500	0.378200
H501	H50	0.634100	0.352500	0.416100
H511	H51	0.480700	0.290100	0.332300
H521	H52	0.388000	0.330600	0.368500
H531	H53	0.040000	0.424600	0.380000
H541	H54	0.199400	0.400200	0.386600
H551	H55	0.019700	0.463700	0.465500
H561	H56	0.176800	0.436900	0.474900
H571	H57	0.452100	0.472400	0.558100
H581	H58	0.373200	0.451700	0.513400
H591	H59	0.701500	0.426800	0.525400
H601	H60	0.629200	0.405800	0.480000
H611	H61	0.620500	0.346800	0.570000
H621	H62	0.588900	0.273100	0.591500
H631	H63	0.557500	0.413600	0.646100
H641	H64	0.529500	0.342100	0.670500
H651	H65	0.432700	0.295700	0.778300
H661	H66	0.497700	0.289600	0.729500
H671	H67	0.358100	0.160200	0.777900
H681	H68	0.426500	0.148400	0.729900
H691	H69	0.554000	0.012600	0.646500
H701	H70	0.524000	0.083800	0.671600
H711	H71	0.609800	0.080700	0.570700
H721	H72	0.586200	0.153800	0.593800
H731	H73	0.280800	0.186500	0.878200
H741	H74	0.365900	0.147500	0.916100
H751	H75	0.519300	0.209900	0.832300
H761	H76	0.612000	0.169400	0.868500
H771	H77	0.960000	0.075400	0.880000
H781	H78	0.800600	0.099800	0.886600
H791	H79	0.980300	0.036300	0.965500
H801	H80	0.823200	0.063100	0.974900
H811	H81	0.547900	0.027600	0.058100
H821	H82	0.626800	0.048300	0.013400
H831	H83	0.298500	0.073200	0.025400
H841	H84	0.370800	0.094200	0.980000
H851	H85	0.379500	0.153200	0.070000
H861	H86	0.411100	0.226900	0.091500
H871	H87	0.442500	0.086400	0.146100
H881	H88	0.470500	0.157900	0.170500
H891	H89	0.567300	0.204300	0.278300
H901	H90	0.502300	0.210400	0.229500
H911	H91	0.641900	0.339800	0.277900
H921	H92	0.573500	0.351600	0.229900
H931	H93	0.446000	0.487400	0.146500
H941	H94	0.476000	0.416200	0.171600
H951	H95	0.390200	0.419300	0.070700
H961	H96	0.413800	0.346200	0.093800
C11	C1	0.151000	0.683500	0.123670
C21	C2	0.100700	0.659900	0.101010
C31	C3	0.012000	0.696800	0.150450
C41	C4	0.955800	0.672900	0.128860
C51	C5	0.001300	0.654600	0.103560
C61	C6	0.946800	0.629100	0.080000
C71	C7	0.568700	0.572400	0.100560
C81	C8	0.663600	0.587200	0.096870
C91	C9	0.556300	0.550000	0.050520
C101	C10	0.650300	0.565100	0.044890
C111	C11	0.704700	0.583200	0.068570
C121	C12	0.808500	0.596000	0.063510
C131	C13	0.987700	0.542400	0.957680
C141	C14	0.940500	0.554300	0.984340
C151	C15	0.133600	0.569000	0.976830
C161	C16	0.091300	0.581500	0.004010
C171	C17	0.992400	0.574900	0.007450
C181	C18	0.942400	0.590400	0.035490
C191	C19	0.101900	0.654500	0.909290
C201	C20	0.084100	0.698600	0.896690
C211	C21	0.065900	0.615300	0.864830
C221	C22	0.048400	0.657600	0.850150
C231	C23	0.058800	0.700500	0.866310
C241	C24	0.042900	0.746600	0.850290
C251	C25	0.930300	0.734100	0.731960
C261	C26	0.969800	0.737500	0.760930
C271	C27	0.887400	0.813500	0.732080
C281	C28	0.927000	0.820900	0.760910
C291	C29	0.967400	0.781500	0.775600
C301	C30	0.002600	0.785100	0.807430
C311	C31	0.060200	0.958200	0.864250
C321	C32	0.043100	0.916000	0.849030
C331	C33	0.093400	0.918500	0.908460
C341	C34	0.079000	0.874800	0.894860
C351	C35	0.054300	0.872900	0.864740
C361	C36	0.040700	0.826300	0.849180
C371	C37	0.849000	0.816500	0.623670
C381	C38	0.899300	0.840100	0.601010
C391	C39	0.988000	0.803200	0.650450
C401	C40	0.044200	0.827100	0.628860
C411	C41	0.998700	0.845400	0.603560
C421	C42	0.053200	0.870900	0.580000
C431	C43	0.431300	0.927600	0.600560
C441	C44	0.336400	0.912800	0.596870
C451	C45	0.443700	0.950000	0.550520
C461	C46	0.349700	0.934900	0.544890
C471	C47	0.295300	0.916800	0.568570
C481	C48	0.191500	0.904000	0.563510
C491	C49	0.012300	0.957600	0.457680
C501	C50	0.059500	0.945700	0.484340
C511	C51	0.866400	0.931000	0.476830
C521	C52	0.908700	0.918500	0.504010
C531	C53	0.007600	0.925100	0.507450
C541	C54	0.057600	0.909600	0.535490
C551	C55	0.898100	0.845500	0.409290
C561	C56	0.915900	0.801400	0.396690
C571	C57	0.934100	0.884700	0.364830
C581	C58	0.951600	0.842400	0.350150
C591	C59	0.941200	0.799500	0.366310
C601	C60	0.957100	0.753400	0.350290
C611	C61	0.069700	0.765900	0.231960
C621	C62	0.030200	0.762500	0.260930
C631	C63	0.112600	0.686500	0.232080
C641	C64	0.073000	0.679100	0.260910
C651	C65	0.032600	0.718500	0.275600
C661	C66	0.997400	0.714900	0.307430
C671	C67	0.939800	0.541800	0.364250
C681	C68	0.956900	0.584000	0.349030
C691	C69	0.906600	0.581500	0.408460
C701	C70	0.921000	0.625200	0.394860
C711	C71	0.945700	0.627100	0.364740
C721	C72	0.959300	0.673700	0.349180
C731	C73	0.651000	0.316500	0.376330
C741	C74	0.600700	0.340100	0.398990
C751	C75	0.512000	0.303200	0.349550
C761	C76	0.455800	0.327100	0.371140
C771	C77	0.501300	0.345400	0.396440
C781	C78	0.446800	0.370900	0.420000
C791	C79	0.068700	0.427600	0.399440
C801	C80	0.163600	0.412800	0.403130
C811	C81	0.056300	0.450000	0.449480
C821	C82	0.150300	0.434900	0.455110
C831	C83	0.204700	0.416800	0.431430
C841	C84	0.308500	0.404000	0.436490
C851	C85	0.487700	0.457600	0.542320
C861	C86	0.440500	0.445700	0.515660
C871	C87	0.633600	0.431000	0.523170
C881	C88	0.591300	0.418500	0.495990
C891	C89	0.492400	0.425100	0.492550
C901	C90	0.442400	0.409600	0.464510
C911	C91	0.601900	0.345500	0.590710
C921	C92	0.584100	0.301400	0.603310
C931	C93	0.565900	0.384700	0.635170
C941	C94	0.548400	0.342400	0.649850
C951	C95	0.558800	0.299500	0.633690
C961	C96	0.542900	0.253400	0.649710
C971	C97	0.430300	0.265900	0.768040
C981	C98	0.469800	0.262500	0.739070
C991	C99	0.387400	0.186500	0.767920
C1001	C100	0.427000	0.179100	0.739090
C1011	C101	0.467400	0.218500	0.724400
C1021	C102	0.502600	0.214900	0.692570
C1031	C103	0.560200	0.041800	0.635750
C1041	C104	0.543100	0.084000	0.650970
C1051	C105	0.593400	0.081500	0.591540
C1061	C106	0.579000	0.125200	0.605140
C1071	C107	0.554300	0.127100	0.635260
C1081	C108	0.540700	0.173700	0.650820
C1091	C109	0.349000	0.183500	0.876330
C1101	C110	0.399300	0.159900	0.898990
C1111	C111	0.488000	0.196800	0.849550
C1121	C112	0.544200	0.172900	0.871140
C1131	C113	0.498700	0.154600	0.896440
C1141	C114	0.553200	0.129100	0.920000
C1151	C115	0.931300	0.072400	0.899440
C1161	C116	0.836400	0.087200	0.903130
C1171	C117	0.943700	0.050000	0.949480
C1181	C118	0.849700	0.065100	0.955110
C1191	C119	0.795300	0.083200	0.931430
C1201	C120	0.691500	0.096000	0.936490
C1211	C121	0.512300	0.042400	0.042320
C1221	C122	0.559500	0.054300	0.015660
C1231	C123	0.366400	0.069000	0.023170
C1241	C124	0.408700	0.081500	0.995990
C1251	C125	0.507600	0.074900	0.992550
C1261	C126	0.557600	0.090400	0.964510
C1271	C127	0.398100	0.154500	0.090710
C1281	C128	0.415900	0.198600	0.103310
C1291	C129	0.434100	0.115300	0.135170
C1301	C130	0.451600	0.157600	0.149850
C1311	C131	0.441200	0.200500	0.133690
C1321	C132	0.457100	0.246600	0.149710
C1331	C133	0.569700	0.234100	0.268040
C1341	C134	0.530200	0.237500	0.239070
C1351	C135	0.612600	0.313500	0.267920
C1361	C136	0.573000	0.320900	0.239090
C1371	C137	0.532600	0.281500	0.224400
C1381	C138	0.497400	0.285100	0.192570
C1391	C139	0.439800	0.458200	0.135750
C1401	C140	0.456900	0.416000	0.150970
C1411	C141	0.406600	0.418500	0.091540
C1421	C142	0.421000	0.374800	0.105140
C1431	C143	0.445700	0.372900	0.135260
C1441	C144	0.459300	0.326300	0.150820
I11	I1	0.323020	0.553870	0.914260
I21	I2	0.054500	0.483700	0.880300
I31	I3	0.186450	0.827360	0.165980
I41	I4	0.351090	0.696460	0.184730
I51	I5	0.298570	0.573580	0.126870
I61	I6	0.304830	0.508220	0.034720
I71	I7	0.676980	0.946130	0.414260
I81	I8	0.945500	0.016300	0.380300
I91	I9	0.813550	0.672640	0.665980
I101	I10	0.648910	0.803540	0.684730
I111	I11	0.701430	0.926420	0.626870
I121	I12	0.695170	0.991780	0.534720
I131	I13	0.823020	0.446130	0.585740
I141	I14	0.554500	0.516300	0.619700
I151	I15	0.686450	0.172640	0.334020
I161	I16	0.851090	0.303540	0.315270
I171	I17	0.798570	0.426420	0.373130
I181	I18	0.804830	0.491780	0.465280
I191	I19	0.176980	0.053870	0.085740
I201	I20	0.445500	0.983700	0.119700
I211	I21	0.313550	0.327360	0.834020
I221	I22	0.148910	0.196460	0.815270
I231	I23	0.201430	0.073580	0.873130
I241	I24	0.195170	0.008220	0.965280
N11	N1	0.108200	0.702100	0.147860
N21	N2	0.515700	0.554090	0.078200
N31	N3	0.083000	0.551350	0.953510
N41	N4	0.851400	0.622200	0.084930
N51	N5	0.849000	0.579600	0.038560
N61	N6	0.995300	0.614580	0.055800
N71	N7	0.094700	0.612830	0.893940
N81	N8	0.888900	0.771500	0.718080
N91	N9	0.085200	0.959770	0.893420
N101	N10	0.016600	0.743200	0.821330
N111	N11	0.013400	0.827650	0.819900
N121	N12	0.056300	0.787090	0.865200
N131	N13	0.891800	0.797900	0.647860
N141	N14	0.484300	0.945910	0.578200
N151	N15	0.917000	0.948650	0.453510
N161	N16	0.148600	0.877800	0.584930
N171	N17	0.151000	0.920400	0.538560
N181	N18	0.004700	0.885420	0.555800
N191	N19	0.905300	0.887170	0.393940
N201	N20	0.111100	0.728500	0.218080
N211	N21	0.914800	0.540230	0.393420
N221	N22	0.983400	0.756800	0.321330
N231	N23	0.986600	0.672350	0.319900
N241	N24	0.943700	0.712910	0.365200
N251	N25	0.608200	0.297900	0.352140
N261	N26	0.015700	0.445910	0.421800
N271	N27	0.583000	0.448650	0.546490
N281	N28	0.351400	0.377800	0.415070
N291	N29	0.349000	0.420400	0.461440
N301	N30	0.495300	0.385420	0.444200
N311	N31	0.594700	0.387170	0.606060
N321	N32	0.388900	0.228500	0.781920
N331	N33	0.585200	0.040230	0.606580
N341	N34	0.516600	0.256800	0.678670
N351	N35	0.513400	0.172350	0.680100
N361	N36	0.556300	0.212910	0.634800
N371	N37	0.391800	0.202100	0.852140
N381	N38	0.984300	0.054090	0.921800
N391	N39	0.417000	0.051350	0.046490
N401	N40	0.648600	0.122200	0.915070
N411	N41	0.651000	0.079600	0.961440
N421	N42	0.504700	0.114580	0.944200
N431	N43	0.405300	0.112830	0.106060
N441	N44	0.611100	0.271500	0.281920
N451	N45	0.414800	0.459770	0.106580
N461	N46	0.483400	0.243200	0.178670
N471	N47	0.486600	0.327650	0.180100
N481	N48	0.443700	0.287090	0.134800
Zn131	Zn13	0.861120	0.452060	0.089350
Zn141	Zn14	0.811270	0.261490	0.821050
Zn151	Zn15	0.618510	0.475490	0.913410
Zn161	Zn16	0.138880	0.047940	0.589350
Zn171	Zn17	0.188730	0.238510	0.321050
Zn181	Zn18	0.381490	0.024510	0.413410
Zn191	Zn19	0.361120	0.547940	0.410650
Zn201	Zn20	0.311270	0.738510	0.678950
Zn211	Zn21	0.118510	0.524510	0.586590
Zn221	Zn22	0.638880	0.952060	0.910650
Zn231	Zn23	0.688730	0.761490	0.178950
Zn241	Zn24	0.881490	0.975490	0.086590
H971	H97	0.780800	0.313500	0.878200
H981	H98	0.865900	0.352500	0.916100
H991	H99	0.019300	0.290100	0.832300
H1001	H100	0.112000	0.330600	0.868500
H1011	H101	0.460000	0.424600	0.880000
H1021	H102	0.300600	0.400200	0.886600
H1031	H103	0.480300	0.463700	0.965500
H1041	H104	0.323200	0.436900	0.974900
H1051	H105	0.047900	0.472400	0.058100
H1061	H106	0.126800	0.451700	0.013400
H1071	H107	0.798500	0.426800	0.025400
H1081	H108	0.870800	0.405800	0.980000
H1091	H109	0.879500	0.346800	0.070000
H1101	H110	0.911100	0.273100	0.091500
H1111	H111	0.942500	0.413600	0.146100
H1121	H112	0.970500	0.342100	0.170500
H1131	H113	0.067300	0.295700	0.278300
H1141	H114	0.002300	0.289600	0.229500
H1151	H115	0.141900	0.160200	0.277900
H1161	H116	0.073500	0.148400	0.229900
H1171	H117	0.946000	0.012600	0.146500
H1181	H118	0.976000	0.083800	0.171600
H1191	H119	0.890200	0.080700	0.070700
H1201	H120	0.913800	0.153800	0.093800
H1211	H121	0.219200	0.186500	0.378200
H1221	H122	0.134100	0.147500	0.416100
H1231	H123	0.980700	0.209900	0.332300
H1241	H124	0.888000	0.169400	0.368500
H1251	H125	0.540000	0.075400	0.380000
H1261	H126	0.699400	0.099800	0.386600
H1271	H127	0.519700	0.036300	0.465500
H1281	H128	0.676800	0.063100	0.474900
H1291	H129	0.952100	0.027600	0.558100
H1301	H130	0.873200	0.048300	0.513400
H1311	H131	0.201500	0.073200	0.525400
H1321	H132	0.129200	0.094200	0.480000
H1331	H133	0.120500	0.153200	0.570000
H1341	H134	0.088900	0.226900	0.591500
H1351	H135	0.057500	0.086400	0.646100
H1361	H136	0.029500	0.157900	0.670500
H1371	H137	0.932700	0.204300	0.778300
H1381	H138	0.997700	0.210400	0.729500
H1391	H139	0.858100	0.339800	0.777900
H1401	H140	0.926500	0.351600	0.729900
H1411	H141	0.054000	0.487400	0.646500
H1421	H142	0.024000	0.416200	0.671600
H1431	H143	0.109800	0.419300	0.570700
H1441	H144	0.086200	0.346200	0.593800
H1451	H145	0.280800	0.686500	0.621800
H1461	H146	0.365900	0.647500	0.583900
H1471	H147	0.519300	0.709900	0.667700
H1481	H148	0.612000	0.669400	0.631500
H1491	H149	0.960000	0.575400	0.620000
H1501	H150	0.800600	0.599800	0.613400
H1511	H151	0.980300	0.536300	0.534500
H1521	H152	0.823200	0.563100	0.525100
H1531	H153	0.547900	0.527600	0.441900
H1541	H154	0.626800	0.548300	0.486600
H1551	H155	0.298500	0.573200	0.474600
H1561	H156	0.370800	0.594200	0.520000
H1571	H157	0.379500	0.653200	0.430000
H1581	H158	0.411100	0.726900	0.408500
H1591	H159	0.442500	0.586400	0.353900
H1601	H160	0.470500	0.657900	0.329500
H1611	H161	0.567300	0.704300	0.221700
H1621	H162	0.502300	0.710400	0.270500
H1631	H163	0.641900	0.839800	0.222100
H1641	H164	0.573500	0.851600	0.270100
H1651	H165	0.446000	0.987400	0.353500
H1661	H166	0.476000	0.916200	0.328400
H1671	H167	0.390200	0.919300	0.429300
H1681	H168	0.413800	0.846200	0.406200
H1691	H169	0.719200	0.813500	0.121800
H1701	H170	0.634100	0.852500	0.083900
H1711	H171	0.480700	0.790100	0.167700
H1721	H172	0.388000	0.830600	0.131500
H1731	H173	0.040000	0.924600	0.120000
H1741	H174	0.199400	0.900200	0.113400
H1751	H175	0.019700	0.963700	0.034500
H1761	H176	0.176800	0.936900	0.025100
H1771	H177	0.452100	0.972400	0.941900
H1781	H178	0.373200	0.951700	0.986600
H1791	H179	0.701500	0.926800	0.974600
H1801	H180	0.629200	0.905800	0.020000
H1811	H181	0.620500	0.846800	0.930000
H1821	H182	0.588900	0.773100	0.908500
H1831	H183	0.557500	0.913600	0.853900
H1841	H184	0.529500	0.842100	0.829500
H1851	H185	0.432700	0.795700	0.721700
H1861	H186	0.497700	0.789600	0.770500
H1871	H187	0.358100	0.660200	0.722100
H1881	H188	0.426500	0.648400	0.770100
H1891	H189	0.554000	0.512600	0.853500
H1901	H190	0.524000	0.583800	0.828400
H1911	H191	0.609800	0.580700	0.929300
H1921	H192	0.586200	0.653800	0.906200
C1451	C145	0.849000	0.316500	0.876330
C1461	C146	0.899300	0.340100	0.898990
C1471	C147	0.988000	0.303200	0.849550
C1481	C148	0.044200	0.327100	0.871140
C1491	C149	0.998700	0.345400	0.896440
C1501	C150	0.053200	0.370900	0.920000
C1511	C151	0.431300	0.427600	0.899440
C1521	C152	0.336400	0.412800	0.903130
C1531	C153	0.443700	0.450000	0.949480
C1541	C154	0.349700	0.434900	0.955110
C1551	C155	0.295300	0.416800	0.931430
C1561	C156	0.191500	0.404000	0.936490
C1571	C157	0.012300	0.457600	0.042320
C1581	C158	0.059500	0.445700	0.015660
C1591	C159	0.866400	0.431000	0.023170
C1601	C160	0.908700	0.418500	0.995990
C1611	C161	0.007600	0.425100	0.992550
C1621	C162	0.057600	0.409600	0.964510
C1631	C163	0.898100	0.345500	0.090710
C1641	C164	0.915900	0.301400	0.103310
C1651	C165	0.934100	0.384700	0.135170
C1661	C166	0.951600	0.342400	0.149850
C1671	C167	0.941200	0.299500	0.133690
C1681	C168	0.957100	0.253400	0.149710
C1691	C169	0.069700	0.265900	0.268040
C1701	C170	0.030200	0.262500	0.239070
C1711	C171	0.112600	0.186500	0.267920
C1721	C172	0.073000	0.179100	0.239090
C1731	C173	0.032600	0.218500	0.224400
C1741	C174	0.997400	0.214900	0.192570
C1751	C175	0.939800	0.041800	0.135750
C1761	C176	0.956900	0.084000	0.150970
C1771	C177	0.906600	0.081500	0.091540
C1781	C178	0.921000	0.125200	0.105140
C1791	C179	0.945700	0.127100	0.135260
C1801	C180	0.959300	0.173700	0.150820
C1811	C181	0.151000	0.183500	0.376330
C1821	C182	0.100700	0.159900	0.398990
C1831	C183	0.012000	0.196800	0.349550
C1841	C184	0.955800	0.172900	0.371140
C1851	C185	0.001300	0.154600	0.396440
C1861	C186	0.946800	0.129100	0.420000
C1871	C187	0.568700	0.072400	0.399440
C1881	C188	0.663600	0.087200	0.403130
C1891	C189	0.556300	0.050000	0.449480
C1901	C190	0.650300	0.065100	0.455110
C1911	C191	0.704700	0.083200	0.431430
C1921	C192	0.808500	0.096000	0.436490
C1931	C193	0.987700	0.042400	0.542320
C1941	C194	0.940500	0.054300	0.515660
C1951	C195	0.133600	0.069000	0.523170
C1961	C196	0.091300	0.081500	0.495990
C1971	C197	0.992400	0.074900	0.492550
C1981	C198	0.942400	0.090400	0.464510
C1991	C199	0.101900	0.154500	0.590710
C2001	C200	0.084100	0.198600	0.603310
C2011	C201	0.065900	0.115300	0.635170
C2021	C202	0.048400	0.157600	0.649850
C2031	C203	0.058800	0.200500	0.633690
C2041	C204	0.042900	0.246600	0.649710
C2051	C205	0.930300	0.234100	0.768040
C2061	C206	0.969800	0.237500	0.739070
C2071	C207	0.887400	0.313500	0.767920
C2081	C208	0.927000	0.320900	0.739090
C2091	C209	0.967400	0.281500	0.724400
C2101	C210	0.002600	0.285100	0.692570
C2111	C211	0.060200	0.458200	0.635750
C2121	C212	0.043100	0.416000	0.650970
C2131	C213	0.093400	0.418500	0.591540
C2141	C214	0.079000	0.374800	0.605140
C2151	C215	0.054300	0.372900	0.635260
C2161	C216	0.040700	0.326300	0.650820
C2171	C217	0.349000	0.683500	0.623670
C2181	C218	0.399300	0.659900	0.601010
C2191	C219	0.488000	0.696800	0.650450
C2201	C220	0.544200	0.672900	0.628860
C2211	C221	0.498700	0.654600	0.603560
C2221	C222	0.553200	0.629100	0.580000
C2231	C223	0.931300	0.572400	0.600560
C2241	C224	0.836400	0.587200	0.596870
C2251	C225	0.943700	0.550000	0.550520
C2261	C226	0.849700	0.565100	0.544890
C2271	C227	0.795300	0.583200	0.568570
C2281	C228	0.691500	0.596000	0.563510
C2291	C229	0.512300	0.542400	0.457680
C2301	C230	0.559500	0.554300	0.484340
C2311	C231	0.366400	0.569000	0.476830
C2321	C232	0.408700	0.581500	0.504010
C2331	C233	0.507600	0.574900	0.507450
C2341	C234	0.557600	0.590400	0.535490
C2351	C235	0.398100	0.654500	0.409290
C2361	C236	0.415900	0.698600	0.396690
C2371	C237	0.434100	0.615300	0.364830
C2381	C238	0.451600	0.657600	0.350150
C2391	C239	0.441200	0.700500	0.366310
C2401	C240	0.457100	0.746600	0.350290
C2411	C241	0.569700	0.734100	0.231960
C2421	C242	0.530200	0.737500	0.260930
C2431	C243	0.612600	0.813500	0.232080
C2441	C244	0.573000	0.820900	0.260910
C2451	C245	0.532600	0.781500	0.275600
C2461	C246	0.497400	0.785100	0.307430
C2471	C247	0.439800	0.958200	0.364250
C2481	C248	0.456900	0.916000	0.349030
C2491	C249	0.406600	0.918500	0.408460
C2501	C250	0.421000	0.874800	0.394860
C2511	C251	0.445700	0.872900	0.364740
C2521	C252	0.459300	0.826300	0.349180
C2531	C253	0.651000	0.816500	0.123670
C2541	C254	0.600700	0.840100	0.101010
C2551	C255	0.512000	0.803200	0.150450
C2561	C256	0.455800	0.827100	0.128860
C2571	C257	0.501300	0.845400	0.103560
C2581	C258	0.446800	0.870900	0.080000
C2591	C259	0.068700	0.927600	0.100560
C2601	C260	0.163600	0.912800	0.096870
C2611	C261	0.056300	0.950000	0.050520
C2621	C262	0.150300	0.934900	0.044890
C2631	C263	0.204700	0.916800	0.068570
C2641	C264	0.308500	0.904000	0.063510
C2651	C265	0.487700	0.957600	0.957680
C2661	C266	0.440500	0.945700	0.984340
C2671	C267	0.633600	0.931000	0.976830
C2681	C268	0.591300	0.918500	0.004010
C2691	C269	0.492400	0.925100	0.007450
C2701	C270	0.442400	0.909600	0.035490
C2711	C271	0.601900	0.845500	0.909290
C2721	C272	0.584100	0.801400	0.896690
C2731	C273	0.565900	0.884700	0.864830
C2741	C274	0.548400	0.842400	0.850150
C2751	C275	0.558800	0.799500	0.866310
C2761	C276	0.542900	0.753400	0.850290
C2771	C277	0.430300	0.765900	0.731960
C2781	C278	0.469800	0.762500	0.760930
C2791	C279	0.387400	0.686500	0.732080
C2801	C280	0.427000	0.679100	0.760910
C2811	C281	0.467400	0.718500	0.775600
C2821	C282	0.502600	0.714900	0.807430
C2831	C283	0.560200	0.541800	0.864250
C2841	C284	0.543100	0.584000	0.849030
C2851	C285	0.593400	0.581500	0.908460
C2861	C286	0.579000	0.625200	0.894860
C2871	C287	0.554300	0.627100	0.864740
C2881	C288	0.540700	0.673700	0.849180
I251	I25	0.676980	0.446130	0.085740
I261	I26	0.945500	0.516300	0.119700
I271	I27	0.813550	0.172640	0.834020
I281	I28	0.648910	0.303540	0.815270
I291	I29	0.701430	0.426420	0.873130
I301	I30	0.695170	0.491780	0.965280
I311	I31	0.323020	0.053870	0.585740
I321	I32	0.054500	0.983700	0.619700
I331	I33	0.186450	0.327360	0.334020
I341	I34	0.351090	0.196460	0.315270
I351	I35	0.298570	0.073580	0.373130
I361	I36	0.304830	0.008220	0.465280
I371	I37	0.176980	0.553870	0.414260
I381	I38	0.445500	0.483700	0.380300
I391	I39	0.313550	0.827360	0.665980
I401	I40	0.148910	0.696460	0.684730
I411	I41	0.201430	0.573580	0.626870
I421	I42	0.195170	0.508220	0.534720
I431	I43	0.823020	0.946130	0.914260
I441	I44	0.554500	0.016300	0.880300
I451	I45	0.686450	0.672640	0.165980
I461	I46	0.851090	0.803540	0.184730
I471	I47	0.798570	0.926420	0.126870
I481	I48	0.804830	0.991780	0.034720
N491	N49	0.891800	0.297900	0.852140
N501	N50	0.484300	0.445910	0.921800
N511	N51	0.917000	0.448650	0.046490
N521	N52	0.148600	0.377800	0.915070
N531	N53	0.151000	0.420400	0.961440
N541	N54	0.004700	0.385420	0.944200
N551	N55	0.905300	0.387170	0.106060
N561	N56	0.111100	0.228500	0.281920
N571	N57	0.914800	0.040230	0.106580
N581	N58	0.983400	0.256800	0.178670
N591	N59	0.986600	0.172350	0.180100
N601	N60	0.943700	0.212910	0.134800
N611	N61	0.108200	0.202100	0.352140
N621	N62	0.515700	0.054090	0.421800
N631	N63	0.083000	0.051350	0.546490
N641	N64	0.851400	0.122200	0.415070
N651	N65	0.849000	0.079600	0.461440
N661	N66	0.995300	0.114580	0.444200
N671	N67	0.094700	0.112830	0.606060
N681	N68	0.888900	0.271500	0.781920
N691	N69	0.085200	0.459770	0.606580
N701	N70	0.016600	0.243200	0.678670
N711	N71	0.013400	0.327650	0.680100
N721	N72	0.056300	0.287090	0.634800
N731	N73	0.391800	0.702100	0.647860
N741	N74	0.984300	0.554090	0.578200
N751	N75	0.417000	0.551350	0.453510
N761	N76	0.648600	0.622200	0.584930
N771	N77	0.651000	0.579600	0.538560
N781	N78	0.504700	0.614580	0.555800
N791	N79	0.405300	0.612830	0.393940
N801	N80	0.611100	0.771500	0.218080
N811	N81	0.414800	0.959770	0.393420
N821	N82	0.483400	0.743200	0.321330
N831	N83	0.486600	0.827650	0.319900
N841	N84	0.443700	0.787090	0.365200
N851	N85	0.608200	0.797900	0.147860
N861	N86	0.015700	0.945910	0.078200
N871	N87	0.583000	0.948650	0.953510
N881	N88	0.351400	0.877800	0.084930
N891	N89	0.349000	0.920400	0.038560
N901	N90	0.495300	0.885420	0.055800
N911	N91	0.594700	0.887170	0.893940
N921	N92	0.388900	0.728500	0.718080
N931	N93	0.585200	0.540230	0.893420
N941	N94	0.516600	0.756800	0.821330
N951	N95	0.513400	0.672350	0.819900
N961	N96	0.556300	0.712910	0.865200
