data_SOVHAM_freeONLY_PM
_symmetry_space_group_name_H-M	'P1'
_cell_length_a	7.101000
_cell_length_b	7.626000
_cell_length_c	11.315600
_cell_angle_alpha	90.000000
_cell_angle_beta	106.603000
_cell_angle_gamma	90.000000
_symmetry_Int_Tables_number 1

loop_
_symmetry_equiv_pos_as_xyz
'x,y,z'

loop_
_atom_site_label
_atom_site_type_symbol
_atom_site_fract_x
_atom_site_fract_y
_atom_site_fract_z
Cd11	Cd1	0.000000	0.000000	0.000000
Ni11	Ni1	0.500000	0.500000	0.000000
H11	H1	0.820990	0.884750	0.757410
H21	H2	0.539120	0.884750	0.832910
H31	H3	0.489280	0.884750	0.608350
H41	H4	0.197020	0.884750	0.688000
H51	H5	0.179010	0.884750	0.242590
H61	H6	0.460880	0.884750	0.167090
H71	H7	0.510720	0.884750	0.391650
H81	H8	0.802980	0.884750	0.312000
H91	H9	0.179010	0.115250	0.242590
H101	H10	0.460880	0.115250	0.167090
H111	H11	0.510720	0.115250	0.391650
H121	H12	0.802980	0.115250	0.312000
H131	H13	0.820990	0.115250	0.757410
H141	H14	0.539120	0.115250	0.832910
H151	H15	0.489280	0.115250	0.608350
H161	H16	0.197020	0.115250	0.688000
C11	C1	0.693100	0.671300	0.038000
C21	C2	0.306900	0.671300	0.962000
C31	C3	0.306900	0.328700	0.962000
C41	C4	0.693100	0.328700	0.038000
C51	C5	0.575900	0.000000	0.787900
C61	C6	0.452800	0.000000	0.654800
C71	C7	0.233400	0.000000	0.642400
C81	C8	0.110500	0.000000	0.506500
C91	C9	0.424100	0.000000	0.212100
C101	C10	0.547200	0.000000	0.345200
C111	C11	0.766600	0.000000	0.357600
C121	C12	0.889500	0.000000	0.493500
N11	N1	0.811800	0.777000	0.057300
N21	N2	0.188200	0.777000	0.942700
N31	N3	0.188200	0.223000	0.942700
N41	N4	0.811800	0.223000	0.057300
N51	N5	0.787900	0.000000	0.805100
N61	N6	0.212100	0.000000	0.194900
