data_SOVLEW_freeONLY_PM
_symmetry_space_group_name_H-M	'P1'
_cell_length_a	27.934000
_cell_length_b	27.934000
_cell_length_c	28.496800
_cell_angle_alpha	60.651100
_cell_angle_beta	60.651100
_cell_angle_gamma	89.999900
_symmetry_Int_Tables_number 1

loop_
_symmetry_equiv_pos_as_xyz
'x,y,z'

loop_
_atom_site_label
_atom_site_type_symbol
_atom_site_fract_x
_atom_site_fract_y
_atom_site_fract_z
Cu11	Cu1	0.038910	0.311870	0.725540
Cu21	Cu2	0.235550	0.962590	0.725540
Cu31	Cu3	0.926430	0.724100	0.000000
Cu41	Cu4	0.949860	0.584770	0.364320
Cu51	Cu5	0.961090	0.688130	0.274460
Cu61	Cu6	0.688130	0.764450	0.274460
Cu71	Cu7	0.685820	0.050910	0.364320
Cu81	Cu8	0.367920	0.904160	0.000000
Cu91	Cu9	0.314180	0.949090	0.635680
Cu101	Cu10	0.962590	0.038910	0.725540
Cu111	Cu11	0.904160	0.632080	0.000000
Cu121	Cu12	0.632080	0.095840	0.000000
Cu131	Cu13	0.584770	0.685820	0.364320
Cu141	Cu14	0.311870	0.235550	0.725540
Cu151	Cu15	0.764450	0.037410	0.274460
Cu161	Cu16	0.724100	0.073570	0.000000
Cu171	Cu17	0.073570	0.275900	0.000000
Cu181	Cu18	0.275900	0.926430	0.000000
Cu191	Cu19	0.050140	0.415230	0.635680
Cu201	Cu20	0.095840	0.367920	0.000000
Cu211	Cu21	0.037410	0.961090	0.274460
Cu221	Cu22	0.415230	0.314180	0.635680
Cu231	Cu23	0.050910	0.949860	0.364320
Cu241	Cu24	0.949090	0.050140	0.635680
H11	H1	0.238800	0.487600	0.510000
H21	H2	0.493700	0.240600	0.742200
H31	H3	0.088300	0.148300	0.151600
H41	H4	0.954800	0.623400	0.489000
H51	H5	0.868400	0.981200	0.346800
H61	H6	0.887600	0.954800	0.489000
H71	H7	0.284400	0.728400	0.165000
H81	H8	0.802700	0.058700	0.840000
H91	H9	0.512400	0.748800	0.490000
H101	H10	0.162000	0.615000	0.837000
H111	H11	0.548000	0.162000	0.837000
H121	H12	0.614400	0.462100	0.556200
H131	H13	0.521500	0.916600	0.118800
H141	H14	0.715600	0.271600	0.835000
H151	H15	0.087700	0.125600	0.303600
H161	H16	0.760100	0.700100	0.151600
H171	H17	0.981200	0.784800	0.346800
H181	H18	0.748800	0.997600	0.490000
H191	H19	0.981700	0.614400	0.556200
H201	H20	0.570800	0.087700	0.303600
H211	H21	0.761200	0.512400	0.490000
H221	H22	0.017200	0.493700	0.742200
H231	H23	0.391300	0.429200	0.696400
H241	H24	0.058700	0.357300	0.840000
H251	H25	0.131600	0.018800	0.653200
H261	H26	0.506300	0.759400	0.257800
H271	H27	0.359700	0.964600	0.118800
H281	H28	0.893400	0.715600	0.835000
H291	H29	0.251200	0.002400	0.510000
H301	H30	0.550600	0.106600	0.165000
H311	H31	0.235900	0.982800	0.257800
H321	H32	0.035400	0.478500	0.881200
H331	H33	0.642700	0.898700	0.160000
H341	H34	0.587700	0.491200	0.301000
H351	H35	0.764100	0.017200	0.742200
H361	H36	0.728400	0.550600	0.165000
H371	H37	0.452000	0.838000	0.163000
H381	H38	0.608700	0.570800	0.303600
H391	H39	0.207800	0.587700	0.301000
H401	H40	0.537900	0.170600	0.443800
H411	H41	0.784800	0.672000	0.346800
H421	H42	0.874400	0.391300	0.696400
H431	H43	0.357300	0.101300	0.840000
H441	H44	0.299900	0.911700	0.848400
H451	H45	0.508800	0.888700	0.699000
H461	H46	0.640300	0.035400	0.881200
H471	H47	0.888700	0.792200	0.699000
H481	H48	0.982800	0.506300	0.257800
H491	H49	0.385600	0.537900	0.443800
H501	H50	0.240600	0.764100	0.742200
H511	H51	0.018300	0.385600	0.443800
H521	H52	0.672000	0.868400	0.346800
H531	H53	0.462100	0.829400	0.556200
H541	H54	0.838000	0.385000	0.163000
H551	H55	0.112400	0.045200	0.511000
H561	H56	0.101300	0.802700	0.840000
H571	H57	0.898700	0.197300	0.160000
H581	H58	0.997600	0.761200	0.490000
H591	H59	0.429200	0.912300	0.696400
H601	H60	0.999000	0.452000	0.163000
H611	H61	0.125600	0.608700	0.303600
H621	H62	0.911700	0.851700	0.848400
H631	H63	0.328000	0.131600	0.653200
H641	H64	0.215200	0.328000	0.653200
H651	H65	0.792200	0.412300	0.699000
H661	H66	0.964600	0.521500	0.118800
H671	H67	0.615000	0.001000	0.837000
H681	H68	0.376600	0.443800	0.511000
H691	H69	0.912300	0.874400	0.696400
H701	H70	0.449400	0.893400	0.835000
H711	H71	0.045200	0.376600	0.511000
H721	H72	0.941300	0.642700	0.160000
H731	H73	0.478500	0.083400	0.881200
H741	H74	0.239900	0.299900	0.848400
H751	H75	0.851700	0.239900	0.848400
H761	H76	0.759400	0.235900	0.257800
H771	H77	0.916600	0.359700	0.118800
H781	H78	0.385000	0.999000	0.163000
H791	H79	0.197300	0.941300	0.160000
H801	H80	0.487600	0.251200	0.510000
H811	H81	0.111300	0.207800	0.301000
H821	H82	0.002400	0.238800	0.510000
H831	H83	0.700100	0.088300	0.151600
H841	H84	0.106600	0.284400	0.165000
H851	H85	0.170600	0.018300	0.443800
H861	H86	0.001000	0.548000	0.837000
H871	H87	0.491200	0.111300	0.301000
H881	H88	0.412300	0.508800	0.699000
H891	H89	0.556200	0.887600	0.489000
H901	H90	0.443800	0.112400	0.511000
H911	H91	0.018800	0.215200	0.653200
H921	H92	0.083400	0.640300	0.881200
H931	H93	0.148300	0.760100	0.151600
H941	H94	0.271600	0.449400	0.835000
H951	H95	0.829400	0.981700	0.556200
H961	H96	0.623400	0.556200	0.489000
C11	C1	0.514300	0.157900	0.066800
C21	C2	0.922950	0.732240	0.714100
C31	C3	0.989810	0.745680	0.470420
C41	C4	0.460230	0.216100	0.529580
C51	C5	0.021610	0.492860	0.811860
C61	C6	0.474330	0.185030	0.501680
C71	C7	0.569800	0.316700	0.569800
C81	C8	0.732240	0.362950	0.714100
C91	C9	0.735350	0.662350	0.174200
C101	C10	0.241830	0.652530	0.768740
C111	C11	0.782580	0.594260	0.413460
C121	C12	0.221710	0.752670	0.150000
C131	C13	0.799500	0.247680	0.225440
C141	C14	0.010570	0.421270	0.231260
C151	C15	0.849810	0.354370	0.735660
C161	C16	0.041470	0.323630	0.620040
C171	C17	0.247680	0.975060	0.225440
C181	C18	0.318670	0.359330	0.768080
C191	C19	0.365390	0.145010	0.614900
C201	C20	0.640670	0.086750	0.231920
C211	C21	0.336040	0.434140	0.530260
C221	C22	0.448470	0.903350	0.759560
C231	C23	0.960440	0.576740	0.215320
C241	C24	0.662910	0.551530	0.240440
C251	C25	0.916790	0.280410	0.133700
C261	C26	0.388170	0.664660	0.315280
C271	C27	0.044650	0.344620	0.254900
C281	C28	0.299550	0.599520	0.745100
C291	C29	0.854990	0.980290	0.385100
C301	C30	0.945640	0.693910	0.654320
C311	C31	0.338490	0.056330	0.620040
C321	C32	0.426700	0.898940	0.817620
C331	C33	0.335340	0.703450	0.684720
C341	C34	0.902350	0.740310	0.910000
C351	C35	0.955350	0.655380	0.745100
C361	C36	0.585890	0.916790	0.133700
C371	C37	0.296550	0.020060	0.315280
C381	C38	0.316700	0.860400	0.569800
C391	C39	0.719590	0.050490	0.866300
C401	C40	0.611830	0.335340	0.684720
C411	C41	0.224700	0.485700	0.933200
C421	C42	0.146370	0.957940	0.255000
C431	C43	0.599960	0.348230	0.345680
C441	C44	0.139600	0.886500	0.430200
C451	C45	0.758170	0.347470	0.231260
C461	C46	0.539770	0.783900	0.470420
C471	C47	0.042060	0.401370	0.745000
C481	C48	0.573300	0.101060	0.182380
C491	C49	0.585470	0.090030	0.264340
C501	C50	0.935410	0.618290	0.084320
C511	C51	0.551530	0.096650	0.240440
C521	C52	0.054360	0.306090	0.345680
C531	C53	0.385100	0.969400	0.466000
C541	C54	0.240090	0.365390	0.614900
C551	C55	0.925240	0.936490	0.738060
C561	C56	0.791970	0.337090	0.759560
C571	C57	0.306090	0.599960	0.345680
C581	C58	0.405740	0.196040	0.586540
C591	C59	0.401370	0.212940	0.745000
C601	C60	0.187650	0.349690	0.910000
C611	C61	0.007720	0.217420	0.586540
C621	C62	0.010190	0.254320	0.529580
C631	C63	0.024940	0.473120	0.774560
C641	C64	0.964200	0.535940	0.143040
C651	C65	0.117500	0.775680	0.831660
C661	C66	0.227130	0.989300	0.619960
C671	C67	0.970530	0.651150	0.599940
C681	C68	0.349690	0.902350	0.910000
C691	C69	0.607340	0.882500	0.168340
C701	C70	0.207940	0.960440	0.215320
C711	C71	0.050840	0.392660	0.831660
C721	C72	0.628290	0.097330	0.150000
C731	C73	0.564600	0.385100	0.466000
C741	C74	0.019710	0.240090	0.614900
C751	C75	0.023990	0.313290	0.501680
C761	C76	0.185030	0.023990	0.501680
C771	C77	0.074760	0.063510	0.261940
C781	C78	0.851100	0.435400	0.534000
C791	C79	0.683300	0.139600	0.430200
C801	C80	0.872590	0.318670	0.768080
C811	C81	0.775680	0.050840	0.831660
C821	C82	0.594260	0.803960	0.413460
C831	C83	0.323630	0.338490	0.620040
C841	C84	0.337650	0.909550	0.825800
C851	C85	0.833470	0.304720	0.188140
C861	C86	0.035600	0.336040	0.530260
C871	C87	0.029470	0.348850	0.400060
C881	C88	0.792060	0.039560	0.784680
C891	C89	0.254320	0.460230	0.529580
C901	C90	0.423260	0.175760	0.784680
C911	C91	0.157900	0.418900	0.066800
C921	C92	0.752320	0.024940	0.774560
C931	C93	0.936490	0.336700	0.738060
C941	C94	0.752670	0.628290	0.150000
C951	C95	0.039560	0.423260	0.784680
C961	C96	0.430200	0.683300	0.430200
C971	C97	0.380010	0.113740	0.586900
C981	C98	0.886500	0.430200	0.430200
C991	C99	0.980270	0.297390	0.084320
C1001	C100	0.354370	0.414530	0.735660
C1011	C101	0.414530	0.909970	0.735660
C1021	C102	0.957940	0.598630	0.255000
C1031	C103	0.655380	0.299550	0.745100
C1041	C104	0.464060	0.107240	0.856960
C1051	C105	0.576740	0.824240	0.215320
C1061	C106	0.989300	0.152910	0.619960
C1071	C107	0.598630	0.787060	0.255000
C1081	C108	0.145010	0.019710	0.614900
C1091	C109	0.030600	0.851100	0.534000
C1101	C110	0.651150	0.429530	0.599940
C1111	C111	0.244320	0.716560	0.182380
C1121	C112	0.886260	0.966910	0.413100
C1131	C113	0.033090	0.299360	0.586900
C1141	C114	0.535940	0.892760	0.143040
C1151	C115	0.783900	0.989810	0.470420
C1161	C116	0.651770	0.945640	0.654320
C1171	C117	0.348230	0.054360	0.345680
C1181	C118	0.473120	0.200500	0.774560
C1191	C119	0.787060	0.146370	0.255000
C1201	C120	0.097330	0.221710	0.150000
C1211	C121	0.581100	0.224700	0.933200
C1221	C122	0.553660	0.922950	0.714100
C1231	C123	0.304720	0.978390	0.188140
C1241	C124	0.570470	0.251090	0.400060
C1251	C125	0.992280	0.782580	0.413460
C1261	C126	0.446340	0.077050	0.285900
C1271	C127	0.614900	0.030600	0.534000
C1281	C128	0.086750	0.127410	0.231920
C1291	C129	0.064590	0.381710	0.915680
C1301	C130	0.381710	0.019730	0.915680
C1311	C131	0.526880	0.799500	0.225440
C1321	C132	0.609260	0.772870	0.380040
C1331	C133	0.096650	0.208030	0.240440
C1341	C134	0.980290	0.759910	0.385100
C1351	C135	0.216100	0.010190	0.529580
C1361	C136	0.909970	0.849810	0.735660
C1371	C137	0.217420	0.405740	0.586540
C1381	C138	0.063510	0.663300	0.261940
C1391	C139	0.748910	0.970530	0.599940
C1401	C140	0.083210	0.719590	0.866300
C1411	C141	0.264650	0.337650	0.825800
C1421	C142	0.772870	0.010700	0.380040
C1431	C143	0.700450	0.400480	0.254900
C1441	C144	0.097650	0.259690	0.090000
C1451	C145	0.618290	0.980270	0.084320
C1461	C146	0.090450	0.163450	0.174200
C1471	C147	0.652530	0.989430	0.768740
C1481	C148	0.847090	0.609260	0.380040
C1491	C149	0.693910	0.400040	0.654320
C1501	C150	0.107240	0.678980	0.856960
C1511	C151	0.259690	0.812350	0.090000
C1521	C152	0.435400	0.614900	0.534000
C1531	C153	0.703450	0.979940	0.684720
C1541	C154	0.949510	0.585890	0.133700
C1551	C155	0.056330	0.041470	0.620040
C1561	C156	0.976010	0.686710	0.498320
C1571	C157	0.860400	0.113500	0.569800
C1581	C158	0.599520	0.955350	0.745100
C1591	C159	0.662350	0.090450	0.174200
C1601	C160	0.200500	0.752320	0.774560
C1611	C161	0.619990	0.886260	0.413100
C1621	C162	0.814970	0.976010	0.498320
C1631	C163	0.824240	0.207940	0.215320
C1641	C164	0.975060	0.526880	0.225440
C1651	C165	0.645630	0.585470	0.264340
C1661	C166	0.283440	0.426700	0.817620
C1671	C167	0.392660	0.117500	0.831660
C1681	C168	0.050490	0.414110	0.866300
C1691	C169	0.010700	0.847090	0.380040
C1701	C170	0.196040	0.007720	0.586540
C1711	C171	0.964400	0.663960	0.469740
C1721	C172	0.958530	0.676370	0.379960
C1731	C173	0.803960	0.992280	0.413460
C1741	C174	0.989430	0.578730	0.768740
C1751	C175	0.113740	0.033090	0.586900
C1761	C176	0.362950	0.553660	0.714100
C1771	C177	0.019730	0.702610	0.915680
C1781	C178	0.978390	0.507140	0.188140
C1791	C179	0.812350	0.650310	0.090000
C1801	C180	0.695280	0.021610	0.811860
C1811	C181	0.565860	0.866300	0.469740
C1821	C182	0.969400	0.148900	0.466000
C1831	C183	0.745680	0.539770	0.470420
C1841	C184	0.336700	0.325450	0.738060
C1851	C185	0.434140	0.133700	0.530260
C1861	C186	0.892760	0.321020	0.143040
C1871	C187	0.359330	0.913250	0.768080
C1881	C188	0.637050	0.446340	0.285900
C1891	C189	0.224320	0.949160	0.168340
C1901	C190	0.853630	0.042060	0.745000
C1911	C191	0.414110	0.083210	0.866300
C1921	C192	0.418900	0.775300	0.066800
C1931	C193	0.775300	0.514300	0.066800
C1941	C194	0.101060	0.244320	0.182380
C1951	C195	0.247330	0.371710	0.850000
C1961	C196	0.492860	0.166530	0.811860
C1971	C197	0.429530	0.748910	0.599940
C1981	C198	0.903350	0.791970	0.759560
C1991	C199	0.348850	0.570470	0.400060
C2001	C200	0.943670	0.958530	0.379960
C2011	C201	0.152910	0.390740	0.619960
C2021	C202	0.866300	0.964400	0.469740
C2031	C203	0.634610	0.854990	0.385100
C2041	C204	0.676370	0.661510	0.379960
C2051	C205	0.113500	0.569800	0.569800
C2061	C206	0.208030	0.662910	0.240440
C2071	C207	0.578730	0.241830	0.768740
C2081	C208	0.400040	0.651770	0.654320
C2091	C209	0.150190	0.645630	0.264340
C2101	C210	0.716560	0.573300	0.182380
C2111	C211	0.664660	0.296550	0.315280
C2121	C212	0.371710	0.902670	0.850000
C2131	C213	0.251090	0.029470	0.400060
C2141	C214	0.909550	0.836550	0.825800
C2151	C215	0.836550	0.264650	0.825800
C2161	C216	0.898940	0.755680	0.817620
C2171	C217	0.166530	0.695280	0.811860
C2181	C218	0.267760	0.637050	0.285900
C2191	C219	0.299360	0.380010	0.586900
C2201	C220	0.344620	0.700450	0.254900
C2211	C221	0.485700	0.842100	0.933200
C2221	C222	0.674550	0.074760	0.261940
C2231	C223	0.507140	0.833470	0.188140
C2241	C224	0.148900	0.564600	0.466000
C2251	C225	0.127410	0.681330	0.231920
C2261	C226	0.020060	0.388170	0.315280
C2271	C227	0.321020	0.964200	0.143040
C2281	C228	0.163450	0.735350	0.174200
C2291	C229	0.390740	0.227130	0.619960
C2301	C230	0.297390	0.935410	0.084320
C2311	C231	0.133700	0.035600	0.530260
C2321	C232	0.280410	0.949510	0.133700
C2331	C233	0.755680	0.283440	0.817620
C2341	C234	0.525670	0.814970	0.498320
C2351	C235	0.175760	0.792060	0.784680
C2361	C236	0.700640	0.619990	0.413100
C2371	C237	0.842100	0.581100	0.933200
C2381	C238	0.347470	0.010570	0.231260
C2391	C239	0.077050	0.267760	0.285900
C2401	C240	0.421270	0.758170	0.231260
C2411	C241	0.325450	0.925240	0.738060
C2421	C242	0.681330	0.640670	0.231920
C2431	C243	0.650310	0.097650	0.090000
C2441	C244	0.979940	0.611830	0.684720
C2451	C245	0.035800	0.464060	0.856960
C2461	C246	0.778290	0.247330	0.850000
C2471	C247	0.702610	0.064590	0.915680
C2481	C248	0.661510	0.943670	0.379960
C2491	C249	0.913250	0.872590	0.768080
C2501	C250	0.740310	0.187650	0.910000
C2511	C251	0.663960	0.565860	0.469740
C2521	C252	0.678980	0.035800	0.856960
C2531	C253	0.313290	0.474330	0.501680
C2541	C254	0.090030	0.150190	0.264340
C2551	C255	0.686710	0.525670	0.498320
C2561	C256	0.400480	0.044650	0.254900
C2571	C257	0.949160	0.607340	0.168340
C2581	C258	0.966910	0.700640	0.413100
C2591	C259	0.882500	0.224320	0.168340
C2601	C260	0.663300	0.674550	0.261940
C2611	C261	0.902670	0.778290	0.850000
C2621	C262	0.212940	0.853630	0.745000
C2631	C263	0.759910	0.634610	0.385100
C2641	C264	0.337090	0.448470	0.759560
S11	S1	0.381200	0.910560	0.530200
S21	S2	0.527360	0.156620	0.000000
S31	S3	0.156620	0.472640	0.000000
S41	S4	0.911400	0.440760	0.469800
S51	S5	0.910560	0.088600	0.530200
S61	S6	0.089440	0.911400	0.469800
S71	S7	0.618800	0.089440	0.469800
S81	S8	0.559240	0.381200	0.530200
S91	S9	0.088600	0.559240	0.530200
S101	S10	0.440760	0.618800	0.469800
S111	S11	0.843380	0.527360	0.000000
S121	S12	0.472640	0.843380	0.000000
N11	N1	0.381870	0.752230	0.218280
N21	N2	0.347980	0.039140	0.305540
N31	N3	0.470770	0.800520	0.552660
N41	N4	0.618130	0.247770	0.781720
N51	N5	0.984200	0.609480	0.637800
N61	N6	0.609480	0.378000	0.637800
N71	N7	0.397930	0.074270	0.334880
N81	N8	0.409150	0.602070	0.665120
N91	N9	0.226170	0.624700	0.278720
N101	N10	0.063700	0.304490	0.245880
N111	N11	0.652020	0.960860	0.694460
N121	N12	0.247280	0.015800	0.362200
N131	N13	0.378000	0.752720	0.637800
N141	N14	0.074270	0.267190	0.334880
N151	N15	0.309580	0.550370	0.754120
N161	N16	0.573550	0.282790	0.722820
N171	N17	0.005610	0.426450	0.277180
N181	N18	0.701430	0.952530	0.605340
N191	N19	0.624700	0.495110	0.278720
N201	N20	0.649790	0.003430	0.808740
N211	N21	0.350210	0.996570	0.191260
N221	N22	0.247770	0.600150	0.781720
N231	N23	0.703630	0.994390	0.722820
N241	N24	0.717210	0.296370	0.277180
N251	N25	0.015800	0.390520	0.362200
N261	N26	0.442130	0.701430	0.605340
N271	N27	0.690420	0.449630	0.245880
N281	N28	0.458530	0.812170	0.191260
N291	N29	0.267190	0.590850	0.334880
N301	N30	0.653520	0.344680	0.694460
N311	N31	0.399850	0.029490	0.218280
N321	N32	0.346480	0.655320	0.305540
N331	N33	0.600150	0.970510	0.781720
N341	N34	0.976570	0.646820	0.552660
N351	N35	0.023430	0.353180	0.447340
N361	N36	0.695510	0.309580	0.754120
N371	N37	0.199480	0.023430	0.447340
N381	N38	0.495110	0.096580	0.278720
N391	N39	0.952530	0.693230	0.605340
N401	N40	0.622000	0.247280	0.362200
N411	N41	0.504890	0.903420	0.721280
N421	N42	0.550370	0.936300	0.754120
N431	N43	0.752230	0.399850	0.218280
N441	N44	0.449630	0.063700	0.245880
N451	N45	0.960860	0.653520	0.694460
N461	N46	0.812170	0.350210	0.191260
N471	N47	0.029490	0.381870	0.218280
N481	N48	0.344680	0.652020	0.694460
N491	N49	0.752720	0.984200	0.637800
N501	N50	0.925730	0.732810	0.665120
N511	N51	0.096580	0.226170	0.278720
N521	N52	0.693230	0.442130	0.605340
N531	N53	0.296370	0.005610	0.277180
N541	N54	0.773830	0.375300	0.721280
N551	N55	0.375300	0.504890	0.721280
N561	N56	0.602070	0.925730	0.665120
N571	N57	0.298570	0.047470	0.394660
N581	N58	0.970510	0.618130	0.781720
N591	N59	0.282790	0.703630	0.722820
N601	N60	0.306770	0.557870	0.394660
N611	N61	0.426450	0.717210	0.277180
N621	N62	0.655320	0.347980	0.305540
N631	N63	0.590850	0.397930	0.334880
N641	N64	0.936300	0.695510	0.754120
N651	N65	0.304490	0.690420	0.245880
N661	N66	0.800520	0.976570	0.552660
N671	N67	0.903420	0.773830	0.721280
N681	N68	0.541470	0.187830	0.808740
N691	N69	0.353180	0.529230	0.447340
N701	N70	0.187830	0.649790	0.808740
N711	N71	0.003430	0.541470	0.808740
N721	N72	0.557870	0.298570	0.394660
N731	N73	0.047470	0.306770	0.394660
N741	N74	0.646820	0.470770	0.552660
N751	N75	0.996570	0.458530	0.191260
N761	N76	0.390520	0.622000	0.362200
N771	N77	0.994390	0.573550	0.722820
N781	N78	0.039140	0.346480	0.305540
N791	N79	0.732810	0.409150	0.665120
N801	N80	0.529230	0.199480	0.447340
O11	O1	0.687500	0.174290	0.931280
O21	O2	0.342590	0.921610	0.065820
O31	O3	0.044810	0.698100	0.231980
O41	O4	0.614940	0.650710	0.315080
O51	O5	0.981400	0.042000	0.789600
O61	O6	0.434840	0.262930	0.696020
O71	O7	0.054610	0.497520	0.566400
O81	O8	0.993200	0.123730	0.667200
O91	O9	0.028560	0.866600	0.402160
O101	O10	0.966610	0.711900	0.326220
O111	O11	0.731240	0.028560	0.402160
O121	O12	0.069920	0.044810	0.231980
O131	O13	0.130860	0.958950	0.303980
O141	O14	0.876270	0.660400	0.332800
O151	O15	0.497520	0.378990	0.566400
O161	O16	0.894430	0.687500	0.931280
O171	O17	0.660400	0.790930	0.332800
O181	O18	0.038120	0.033390	0.673780
O191	O19	0.018600	0.958000	0.210400
O201	O20	0.961880	0.966610	0.326220
O211	O21	0.697170	0.088140	0.067460
O221	O22	0.042000	0.229000	0.789600
O231	O23	0.707170	0.961880	0.326220
O241	O24	0.235370	0.844400	0.067460
O251	O25	0.385060	0.349290	0.684920
O261	O26	0.569280	0.731240	0.402160
O271	O27	0.115360	0.955920	0.235200
O281	O28	0.557750	0.112730	0.000000
O291	O29	0.618780	0.105570	0.068720
O301	O30	0.971440	0.133400	0.597840
O311	O31	0.987430	0.657410	0.934180
O321	O32	0.133400	0.430720	0.597840
O331	O33	0.591590	0.012570	0.065820
O341	O34	0.262930	0.869140	0.696020
O351	O35	0.936080	0.054610	0.566400
O361	O36	0.955920	0.649440	0.235200
O371	O37	0.030770	0.055130	0.591100
O381	O38	0.958000	0.771000	0.210400
O391	O39	0.288100	0.292830	0.673780
O401	O40	0.911860	0.764630	0.932540
O411	O41	0.735850	0.061920	0.933560
O421	O42	0.378130	0.353770	0.591100
O431	O43	0.939490	0.789790	0.015620
O441	O44	0.044080	0.350560	0.764800
O451	O45	0.944870	0.621870	0.408900
O461	O46	0.887270	0.557750	0.000000
O471	O47	0.350560	0.191120	0.764800
O481	O48	0.869140	0.041050	0.696020
O491	O49	0.955110	0.805410	0.984380
O501	O50	0.209070	0.993200	0.667200
O511	O51	0.808880	0.115360	0.235200
O521	O52	0.723210	0.069920	0.231980
O531	O53	0.408410	0.987430	0.934180
O541	O54	0.930080	0.955190	0.768020
O551	O55	0.789790	0.044890	0.015620
O561	O56	0.938080	0.669410	0.066440
O571	O57	0.790930	0.006800	0.332800
O581	O58	0.621870	0.646230	0.408900
O591	O59	0.955190	0.301900	0.768020
O601	O60	0.063920	0.945390	0.433600
O611	O61	0.229000	0.168400	0.789600
O621	O62	0.565160	0.737070	0.303980
O631	O63	0.041050	0.434840	0.696020
O641	O64	0.210210	0.955110	0.984380
O651	O65	0.155600	0.302830	0.932540
O661	O66	0.264150	0.938080	0.066440
O671	O67	0.069980	0.034210	0.315080
O681	O68	0.965790	0.385060	0.684920
O691	O69	0.442250	0.887270	0.000000
O701	O70	0.044890	0.194590	0.015620
O711	O71	0.112730	0.442250	0.000000
O721	O72	0.105570	0.312500	0.068720
O731	O73	0.646230	0.969230	0.408900
O741	O74	0.191120	0.884640	0.764800
O751	O75	0.078390	0.408410	0.934180
O761	O76	0.737070	0.130860	0.303980
O771	O77	0.650710	0.069980	0.315080
O781	O78	0.061920	0.330590	0.933560
O791	O79	0.698100	0.723210	0.231980
O801	O80	0.055130	0.378130	0.591100
O811	O81	0.034210	0.614940	0.315080
O821	O82	0.268760	0.971440	0.597840
O831	O83	0.825710	0.618780	0.068720
O841	O84	0.657410	0.078390	0.934180
O851	O85	0.930020	0.965790	0.684920
O861	O86	0.921610	0.591590	0.065820
O871	O87	0.302830	0.911860	0.932540
O881	O88	0.995480	0.264150	0.066440
O891	O89	0.831600	0.018600	0.210400
O901	O90	0.033390	0.288100	0.673780
O911	O91	0.339600	0.209070	0.667200
O921	O92	0.276790	0.930080	0.768020
O931	O93	0.502480	0.621010	0.433600
O941	O94	0.168400	0.981400	0.789600
O951	O95	0.771000	0.831600	0.210400
O961	O96	0.378990	0.936080	0.566400
O971	O97	0.669410	0.995480	0.066440
O981	O98	0.174290	0.381220	0.931280
O991	O99	0.866600	0.569280	0.402160
O1001	O100	0.884640	0.044080	0.764800
O1011	O101	0.621010	0.063920	0.433600
O1021	O102	0.194590	0.939490	0.015620
O1031	O103	0.969230	0.944870	0.408900
O1041	O104	0.060510	0.210210	0.984380
O1051	O105	0.330590	0.004520	0.933560
O1061	O106	0.381220	0.894430	0.931280
O1071	O107	0.301900	0.276790	0.768020
O1081	O108	0.945390	0.502480	0.433600
O1091	O109	0.312500	0.825710	0.068720
O1101	O110	0.649440	0.808880	0.235200
O1111	O111	0.123730	0.339600	0.667200
O1121	O112	0.844400	0.697170	0.067460
O1131	O113	0.711900	0.707170	0.326220
O1141	O114	0.764630	0.155600	0.932540
O1151	O115	0.004520	0.735850	0.933560
O1161	O116	0.958950	0.565160	0.303980
O1171	O117	0.088140	0.235370	0.067460
O1181	O118	0.006800	0.876270	0.332800
O1191	O119	0.012570	0.342590	0.065820
O1201	O120	0.349290	0.930020	0.684920
O1211	O121	0.805410	0.060510	0.984380
O1221	O122	0.430720	0.268760	0.597840
O1231	O123	0.292830	0.038120	0.673780
O1241	O124	0.353770	0.030770	0.591100
