data_SUPLOF_freeONLY_PM
_symmetry_space_group_name_H-M	'P1'
_cell_length_a	17.480000
_cell_length_b	17.480000
_cell_length_c	22.690000
_cell_angle_alpha	90.000000
_cell_angle_beta	90.000000
_cell_angle_gamma	90.000000
_symmetry_Int_Tables_number 1

loop_
_symmetry_equiv_pos_as_xyz
'x,y,z'

loop_
_atom_site_label
_atom_site_type_symbol
_atom_site_fract_x
_atom_site_fract_y
_atom_site_fract_z
Zn11	Zn1	0.568330	0.082950	0.797040
Zn21	Zn2	0.431670	0.917050	0.797040
Zn31	Zn3	0.082950	0.431670	0.202960
Zn41	Zn4	0.917050	0.568330	0.202960
Zn51	Zn5	0.931670	0.582950	0.702960
Zn61	Zn6	0.068330	0.417050	0.702960
Zn71	Zn7	0.417050	0.931670	0.297040
Zn81	Zn8	0.582950	0.068330	0.297040
H11	H1	0.639900	0.974900	0.505000
H21	H2	0.554500	0.779100	0.772000
H31	H3	0.709600	0.684800	0.734600
H41	H4	0.467400	0.127200	0.685900
H51	H5	0.908600	0.841900	0.742800
H61	H6	0.532000	0.168600	0.396200
H71	H7	0.669300	0.031000	0.697000
H81	H8	0.638000	0.970500	0.404600
H91	H9	0.528100	0.176000	0.496900
H101	H10	0.472400	0.127400	0.584900
H111	H11	0.752600	0.942200	0.776100
H121	H12	0.680700	0.027900	0.595500
H131	H13	0.360100	0.025100	0.505000
H141	H14	0.445500	0.220900	0.772000
H151	H15	0.290400	0.315200	0.734600
H161	H16	0.532600	0.872800	0.685900
H171	H17	0.091400	0.158100	0.742800
H181	H18	0.468000	0.831400	0.396200
H191	H19	0.330700	0.969000	0.697000
H201	H20	0.362000	0.029500	0.404600
H211	H21	0.471900	0.824000	0.496900
H221	H22	0.527600	0.872600	0.584900
H231	H23	0.247400	0.057800	0.776100
H241	H24	0.319300	0.972100	0.595500
H251	H25	0.974900	0.360100	0.495000
H261	H26	0.779100	0.445500	0.228000
H271	H27	0.684800	0.290400	0.265400
H281	H28	0.127200	0.532600	0.314100
H291	H29	0.841900	0.091400	0.257200
H301	H30	0.168600	0.468000	0.603800
H311	H31	0.031000	0.330700	0.303000
H321	H32	0.970500	0.362000	0.595400
H331	H33	0.176000	0.471900	0.503100
H341	H34	0.127400	0.527600	0.415100
H351	H35	0.942200	0.247400	0.223900
H361	H36	0.027900	0.319300	0.404500
H371	H37	0.025100	0.639900	0.495000
H381	H38	0.220900	0.554500	0.228000
H391	H39	0.315200	0.709600	0.265400
H401	H40	0.872800	0.467400	0.314100
H411	H41	0.158100	0.908600	0.257200
H421	H42	0.831400	0.532000	0.603800
H431	H43	0.969000	0.669300	0.303000
H441	H44	0.029500	0.638000	0.595400
H451	H45	0.824000	0.528100	0.503100
H461	H46	0.872600	0.472400	0.415100
H471	H47	0.057800	0.752600	0.223900
H481	H48	0.972100	0.680700	0.404500
H491	H49	0.860100	0.474900	0.995000
H501	H50	0.945500	0.279100	0.728000
H511	H51	0.790400	0.184800	0.765400
H521	H52	0.032600	0.627200	0.814100
H531	H53	0.591400	0.341900	0.757200
H541	H54	0.968000	0.668600	0.103800
H551	H55	0.830700	0.531000	0.803000
H561	H56	0.862000	0.470500	0.095400
H571	H57	0.971900	0.676000	0.003100
H581	H58	0.027600	0.627400	0.915100
H591	H59	0.747400	0.442200	0.723900
H601	H60	0.819300	0.527900	0.904500
H611	H61	0.139900	0.525100	0.995000
H621	H62	0.054500	0.720900	0.728000
H631	H63	0.209600	0.815200	0.765400
H641	H64	0.967400	0.372800	0.814100
H651	H65	0.408600	0.658100	0.757200
H661	H66	0.032000	0.331400	0.103800
H671	H67	0.169300	0.469000	0.803000
H681	H68	0.138000	0.529500	0.095400
H691	H69	0.028100	0.324000	0.003100
H701	H70	0.972400	0.372600	0.915100
H711	H71	0.252600	0.557800	0.723900
H721	H72	0.180700	0.472100	0.904500
H731	H73	0.525100	0.860100	0.005000
H741	H74	0.720900	0.945500	0.272000
H751	H75	0.815200	0.790400	0.234600
H761	H76	0.372800	0.032600	0.185900
H771	H77	0.658100	0.591400	0.242800
H781	H78	0.331400	0.968000	0.896200
H791	H79	0.469000	0.830700	0.197000
H801	H80	0.529500	0.862000	0.904600
H811	H81	0.324000	0.971900	0.996900
H821	H82	0.372600	0.027600	0.084900
H831	H83	0.557800	0.747400	0.276100
H841	H84	0.472100	0.819300	0.095500
H851	H85	0.474900	0.139900	0.005000
H861	H86	0.279100	0.054500	0.272000
H871	H87	0.184800	0.209600	0.234600
H881	H88	0.627200	0.967400	0.185900
H891	H89	0.341900	0.408600	0.242800
H901	H90	0.668600	0.032000	0.896200
H911	H91	0.531000	0.169300	0.197000
H921	H92	0.470500	0.138000	0.904600
H931	H93	0.676000	0.028100	0.996900
H941	H94	0.627400	0.972400	0.084900
H951	H95	0.442200	0.252600	0.276100
H961	H96	0.527900	0.180700	0.095500
C11	C1	0.581600	0.075800	0.513600
C21	C2	0.577500	0.077300	0.578600
C31	C3	0.606900	0.912500	0.790300
C41	C4	0.615900	0.015000	0.483500
C51	C5	0.670000	0.859600	0.773200
C61	C6	0.718100	0.737200	0.743600
C71	C7	0.656800	0.782000	0.760800
C81	C8	0.791800	0.766700	0.738900
C91	C9	0.511300	0.106500	0.667100
C101	C10	0.552900	0.127800	0.418700
C111	C11	0.628700	0.050600	0.673600
C121	C12	0.614900	0.013000	0.423800
C131	C13	0.551000	0.132600	0.478800
C141	C14	0.804200	0.844500	0.751400
C151	C15	0.513800	0.107000	0.607000
C161	C16	0.744000	0.889600	0.768000
C171	C17	0.636000	0.048700	0.613200
C181	C18	0.854900	0.715300	0.721300
C191	C19	0.418400	0.924200	0.513600
C201	C20	0.422500	0.922700	0.578600
C211	C21	0.393100	0.087500	0.790300
C221	C22	0.384100	0.985000	0.483500
C231	C23	0.330000	0.140400	0.773200
C241	C24	0.281900	0.262800	0.743600
C251	C25	0.343200	0.218000	0.760800
C261	C26	0.208200	0.233300	0.738900
C271	C27	0.488700	0.893500	0.667100
C281	C28	0.447100	0.872200	0.418700
C291	C29	0.371300	0.949400	0.673600
C301	C30	0.385100	0.987000	0.423800
C311	C31	0.449000	0.867400	0.478800
C321	C32	0.195800	0.155500	0.751400
C331	C33	0.486200	0.893000	0.607000
C341	C34	0.256000	0.110400	0.768000
C351	C35	0.364000	0.951300	0.613200
C361	C36	0.145100	0.284700	0.721300
C371	C37	0.075800	0.418400	0.486400
C381	C38	0.077300	0.422500	0.421400
C391	C39	0.912500	0.393100	0.209700
C401	C40	0.015000	0.384100	0.516500
C411	C41	0.859600	0.330000	0.226800
C421	C42	0.737200	0.281900	0.256400
C431	C43	0.782000	0.343200	0.239200
C441	C44	0.766700	0.208200	0.261100
C451	C45	0.106500	0.488700	0.332900
C461	C46	0.127800	0.447100	0.581300
C471	C47	0.050600	0.371300	0.326400
C481	C48	0.013000	0.385100	0.576200
C491	C49	0.132600	0.449000	0.521200
C501	C50	0.844500	0.195800	0.248600
C511	C51	0.107000	0.486200	0.393000
C521	C52	0.889600	0.256000	0.232000
C531	C53	0.048700	0.364000	0.386800
C541	C54	0.715300	0.145100	0.278700
C551	C55	0.924200	0.581600	0.486400
C561	C56	0.922700	0.577500	0.421400
C571	C57	0.087500	0.606900	0.209700
C581	C58	0.985000	0.615900	0.516500
C591	C59	0.140400	0.670000	0.226800
C601	C60	0.262800	0.718100	0.256400
C611	C61	0.218000	0.656800	0.239200
C621	C62	0.233300	0.791800	0.261100
C631	C63	0.893500	0.511300	0.332900
C641	C64	0.872200	0.552900	0.581300
C651	C65	0.949400	0.628700	0.326400
C661	C66	0.987000	0.614900	0.576200
C671	C67	0.867400	0.551000	0.521200
C681	C68	0.155500	0.804200	0.248600
C691	C69	0.893000	0.513800	0.393000
C701	C70	0.110400	0.744000	0.232000
C711	C71	0.951300	0.636000	0.386800
C721	C72	0.284700	0.854900	0.278700
C731	C73	0.918400	0.575800	0.986400
C741	C74	0.922500	0.577300	0.921400
C751	C75	0.893100	0.412500	0.709700
C761	C76	0.884100	0.515000	0.016500
C771	C77	0.830000	0.359600	0.726800
C781	C78	0.781900	0.237200	0.756400
C791	C79	0.843200	0.282000	0.739200
C801	C80	0.708200	0.266700	0.761100
C811	C81	0.988700	0.606500	0.832900
C821	C82	0.947100	0.627800	0.081300
C831	C83	0.871300	0.550600	0.826400
C841	C84	0.885100	0.513000	0.076200
C851	C85	0.949000	0.632600	0.021200
C861	C86	0.695800	0.344500	0.748600
C871	C87	0.986200	0.607000	0.893000
C881	C88	0.756000	0.389600	0.732000
C891	C89	0.864000	0.548700	0.886800
C901	C90	0.645100	0.215300	0.778700
C911	C91	0.081600	0.424200	0.986400
C921	C92	0.077500	0.422700	0.921400
C931	C93	0.106900	0.587500	0.709700
C941	C94	0.115900	0.485000	0.016500
C951	C95	0.170000	0.640400	0.726800
C961	C96	0.218100	0.762800	0.756400
C971	C97	0.156800	0.718000	0.739200
C981	C98	0.291800	0.733300	0.761100
C991	C99	0.011300	0.393500	0.832900
C1001	C100	0.052900	0.372200	0.081300
C1011	C101	0.128700	0.449400	0.826400
C1021	C102	0.114900	0.487000	0.076200
C1031	C103	0.051000	0.367400	0.021200
C1041	C104	0.304200	0.655500	0.748600
C1051	C105	0.013800	0.393000	0.893000
C1061	C106	0.244000	0.610400	0.732000
C1071	C107	0.136000	0.451300	0.886800
C1081	C108	0.354900	0.784700	0.778700
C1091	C109	0.424200	0.918400	0.013600
C1101	C110	0.422700	0.922500	0.078600
C1111	C111	0.587500	0.893100	0.290300
C1121	C112	0.485000	0.884100	0.983500
C1131	C113	0.640400	0.830000	0.273200
C1141	C114	0.762800	0.781900	0.243600
C1151	C115	0.718000	0.843200	0.260800
C1161	C116	0.733300	0.708200	0.238900
C1171	C117	0.393500	0.988700	0.167100
C1181	C118	0.372200	0.947100	0.918700
C1191	C119	0.449400	0.871300	0.173600
C1201	C120	0.487000	0.885100	0.923800
C1211	C121	0.367400	0.949000	0.978800
C1221	C122	0.655500	0.695800	0.251400
C1231	C123	0.393000	0.986200	0.107000
C1241	C124	0.610400	0.756000	0.268000
C1251	C125	0.451300	0.864000	0.113200
C1261	C126	0.784700	0.645100	0.221300
C1271	C127	0.575800	0.081600	0.013600
C1281	C128	0.577300	0.077500	0.078600
C1291	C129	0.412500	0.106900	0.290300
C1301	C130	0.515000	0.115900	0.983500
C1311	C131	0.359600	0.170000	0.273200
C1321	C132	0.237200	0.218100	0.243600
C1331	C133	0.282000	0.156800	0.260800
C1341	C134	0.266700	0.291800	0.238900
C1351	C135	0.606500	0.011300	0.167100
C1361	C136	0.627800	0.052900	0.918700
C1371	C137	0.550600	0.128700	0.173600
C1381	C138	0.513000	0.114900	0.923800
C1391	C139	0.632600	0.051000	0.978800
C1401	C140	0.344500	0.304200	0.251400
C1411	C141	0.607000	0.013800	0.107000
C1421	C142	0.389600	0.244000	0.268000
C1431	C143	0.548700	0.136000	0.113200
C1441	C144	0.215300	0.354900	0.221300
N11	N1	0.567000	0.078600	0.700900
N21	N2	0.583100	0.067800	0.390300
N31	N3	0.433000	0.921400	0.700900
N41	N4	0.416900	0.932200	0.390300
N51	N5	0.078600	0.433000	0.299100
N61	N6	0.067800	0.416900	0.609700
N71	N7	0.921400	0.567000	0.299100
N81	N8	0.932200	0.583100	0.609700
N91	N9	0.933000	0.578600	0.799100
N101	N10	0.916900	0.567800	0.109700
N111	N11	0.067000	0.421400	0.799100
N121	N12	0.083100	0.432200	0.109700
N131	N13	0.421400	0.933000	0.200900
N141	N14	0.432200	0.916900	0.890300
N151	N15	0.578600	0.067000	0.200900
N161	N16	0.567800	0.083100	0.890300
O11	O1	0.622100	0.981400	0.797300
O21	O2	0.588400	0.746900	0.763700
O31	O3	0.876000	0.876400	0.749200
O41	O4	0.541100	0.883000	0.794900
O51	O5	0.838500	0.647900	0.708200
O61	O6	0.922700	0.740400	0.721100
O71	O7	0.377900	0.018600	0.797300
O81	O8	0.411600	0.253100	0.763700
O91	O9	0.124000	0.123600	0.749200
O101	O10	0.458900	0.117000	0.794900
O111	O11	0.161500	0.352100	0.708200
O121	O12	0.077300	0.259600	0.721100
O131	O13	0.981400	0.377900	0.202700
O141	O14	0.746900	0.411600	0.236300
O151	O15	0.876400	0.124000	0.250800
O161	O16	0.883000	0.458900	0.205100
O171	O17	0.647900	0.161500	0.291800
O181	O18	0.740400	0.077300	0.278900
O191	O19	0.018600	0.622100	0.202700
O201	O20	0.253100	0.588400	0.236300
O211	O21	0.123600	0.876000	0.250800
O221	O22	0.117000	0.541100	0.205100
O231	O23	0.352100	0.838500	0.291800
O241	O24	0.259600	0.922700	0.278900
O251	O25	0.877900	0.481400	0.702700
O261	O26	0.911600	0.246900	0.736300
O271	O27	0.624000	0.376400	0.750800
O281	O28	0.958900	0.383000	0.705100
O291	O29	0.661500	0.147900	0.791800
O301	O30	0.577300	0.240400	0.778900
O311	O31	0.122100	0.518600	0.702700
O321	O32	0.088400	0.753100	0.736300
O331	O33	0.376000	0.623600	0.750800
O341	O34	0.041100	0.617000	0.705100
O351	O35	0.338500	0.852100	0.791800
O361	O36	0.422700	0.759600	0.778900
O371	O37	0.518600	0.877900	0.297300
O381	O38	0.753100	0.911600	0.263700
O391	O39	0.623600	0.624000	0.249200
O401	O40	0.617000	0.958900	0.294900
O411	O41	0.852100	0.661500	0.208200
O421	O42	0.759600	0.577300	0.221100
O431	O43	0.481400	0.122100	0.297300
O441	O44	0.246900	0.088400	0.263700
O451	O45	0.376400	0.376000	0.249200
O461	O46	0.383000	0.041100	0.294900
O471	O47	0.147900	0.338500	0.208200
O481	O48	0.240400	0.422700	0.221100
