data_TADWIG_manual_PM
_symmetry_space_group_name_H-M	'P1'
_cell_length_a	12.752600
_cell_length_b	26.646500
_cell_length_c	26.646500
_cell_angle_alpha	60.646800
_cell_angle_beta	76.155200
_cell_angle_gamma	76.155400
_symmetry_Int_Tables_number 1

loop_
_symmetry_equiv_pos_as_xyz
'x,y,z'

loop_
_atom_site_label
_atom_site_type_symbol
_atom_site_fract_x
_atom_site_fract_y
_atom_site_fract_z
Zn11	Zn1	0.347550	0.526440	0.618540
Zn21	Zn2	0.532380	0.431900	0.697720
Zn31	Zn3	0.507470	0.118540	0.026440
Zn41	Zn4	0.338000	0.197720	0.931900
Zn51	Zn5	0.152450	0.381460	0.473560
Zn61	Zn6	0.967620	0.302280	0.568100
Zn71	Zn7	0.992530	0.973560	0.881460
Zn81	Zn8	0.162000	0.068100	0.802280
H11	H1	0.839900	0.963300	0.644500
H21	H2	0.606000	0.978600	0.529600
H31	H3	0.660600	0.553800	0.722800
H41	H4	0.711100	0.634100	0.719500
H51	H5	0.477600	0.740900	0.622300
H61	H6	0.426400	0.663400	0.624200
H71	H7	0.796200	0.715300	0.663300
H81	H8	0.010100	0.846700	0.640100
H91	H9	0.548900	0.870800	0.669800
H101	H10	0.486300	0.791500	0.677700
H111	H11	0.027800	0.816500	0.548300
H121	H12	0.171100	0.753100	0.523900
H131	H13	0.098600	0.618300	0.683500
H141	H14	0.972300	0.685000	0.712000
H151	H15	0.510100	0.048400	0.553600
H161	H16	0.503200	0.076300	0.712500
H171	H17	0.712200	0.940900	0.810700
H181	H18	0.750700	0.907300	0.742900
H191	H19	0.323800	0.068500	0.689100
H201	H20	0.189200	0.149900	0.661500
H211	H21	0.383600	0.233700	0.510100
H221	H22	0.517300	0.153200	0.535800
H231	H23	0.424700	0.067700	0.800900
H241	H24	0.384200	0.100600	0.872800
H251	H25	0.699700	0.048200	0.900800
H261	H26	0.738600	0.017800	0.828400
H271	H27	0.552300	0.144500	0.463300
H281	H28	0.885800	0.029600	0.478600
H291	H29	0.062800	0.222800	0.053800
H301	H30	0.935300	0.219500	0.134100
H311	H31	0.159200	0.122300	0.240900
H321	H32	0.286000	0.124200	0.163400
H331	H33	0.825200	0.163300	0.215300
H341	H34	0.503100	0.140100	0.346700
H351	H35	0.910500	0.169800	0.370800
H361	H36	0.044500	0.177700	0.291500
H371	H37	0.607400	0.048300	0.316500
H381	H38	0.551900	0.023900	0.253100
H391	H39	0.599600	0.183500	0.118300
H401	H40	0.630700	0.212000	0.185000
H411	H41	0.887900	0.053600	0.548400
H421	H42	0.708000	0.212500	0.576300
H431	H43	0.536200	0.310700	0.440900
H441	H44	0.599100	0.242900	0.407300
H451	H45	0.918600	0.189100	0.568500
H461	H46	0.999400	0.161500	0.649900
H471	H47	0.872600	0.010100	0.733700
H481	H48	0.793700	0.035800	0.653200
H491	H49	0.706700	0.300900	0.567700
H501	H50	0.642400	0.372800	0.600600
H511	H51	0.351300	0.400800	0.548200
H521	H52	0.415200	0.328400	0.517800
H531	H53	0.660100	0.355500	0.036700
H541	H54	0.894000	0.470400	0.021400
H551	H55	0.839400	0.277200	0.446200
H561	H56	0.788900	0.280500	0.365900
H571	H57	0.022400	0.377700	0.259100
H581	H58	0.073600	0.375800	0.336600
H591	H59	0.703800	0.336700	0.284700
H601	H60	0.489900	0.359900	0.153300
H611	H61	0.951100	0.330200	0.129200
H621	H62	0.013700	0.322300	0.208500
H631	H63	0.472200	0.451700	0.183500
H641	H64	0.328900	0.476100	0.246900
H651	H65	0.401400	0.316500	0.381700
H661	H66	0.527700	0.288000	0.315000
H671	H67	0.989900	0.446400	0.951600
H681	H68	0.996800	0.287500	0.923700
H691	H69	0.787800	0.189300	0.059100
H701	H70	0.749300	0.257100	0.092700
H711	H71	0.176200	0.310900	0.931500
H721	H72	0.310800	0.338500	0.850100
H731	H73	0.116400	0.489900	0.766300
H741	H74	0.982700	0.464200	0.846800
H751	H75	0.075300	0.199100	0.932300
H761	H76	0.115800	0.127200	0.899400
H771	H77	0.800300	0.099200	0.951800
H781	H78	0.761400	0.171600	0.982200
H791	H79	0.947700	0.536700	0.855500
H801	H80	0.614200	0.521400	0.970400
H811	H81	0.437200	0.946200	0.777200
H821	H82	0.564700	0.865900	0.780500
H831	H83	0.340800	0.759100	0.877700
H841	H84	0.214000	0.836600	0.875800
H851	H85	0.674800	0.784700	0.836700
H861	H86	0.996900	0.653300	0.859900
H871	H87	0.589500	0.629200	0.830200
H881	H88	0.455500	0.708500	0.822300
H891	H89	0.892600	0.683500	0.951700
H901	H90	0.948100	0.746900	0.976100
H911	H91	0.900400	0.881700	0.816500
H921	H92	0.869300	0.815000	0.788000
H931	H93	0.612100	0.451600	0.946400
H941	H94	0.792000	0.423700	0.787500
H951	H95	0.963800	0.559100	0.689300
H961	H96	0.900900	0.592700	0.757100
H971	H97	0.581400	0.431500	0.810900
H981	H98	0.500600	0.350100	0.838500
H991	H99	0.627400	0.266300	0.989900
H1001	H100	0.706300	0.346800	0.964200
H1011	H101	0.793300	0.432300	0.699100
H1021	H102	0.857600	0.399400	0.627200
H1031	H103	0.148700	0.451800	0.599200
H1041	H104	0.084800	0.482200	0.671600
C11	C1	0.511500	0.551400	0.669000
C21	C2	0.539290	0.601110	0.670510
C31	C3	0.623990	0.591810	0.701610
C41	C4	0.652380	0.640220	0.700020
C51	C5	0.600060	0.696040	0.671840
C61	C6	0.515490	0.702910	0.642910
C71	C7	0.485990	0.656810	0.643410
C81	C8	0.638310	0.745690	0.667890
C91	C9	0.745540	0.747860	0.663260
C101	C10	0.787820	0.794280	0.658280
C111	C11	0.900640	0.799660	0.647460
C121	C12	0.934250	0.846050	0.644250
C131	C13	0.858810	0.892990	0.646790
C141	C14	0.749080	0.892820	0.653620
C151	C15	0.712270	0.842930	0.660330
C161	C16	0.600810	0.839490	0.667690
C171	C17	0.562470	0.792230	0.672030
C181	C18	0.984710	0.755090	0.635290
C191	C19	0.044040	0.776960	0.575960
C201	C20	0.125010	0.739090	0.560290
C211	C21	0.135690	0.678110	0.601510
C221	C22	0.084570	0.658230	0.656230
C231	C23	0.007890	0.698710	0.672910
C241	C24	0.668610	0.946090	0.645890
C251	C25	0.621760	0.976540	0.596740
C261	C26	0.543900	0.028200	0.587800
C271	C27	0.518640	0.048060	0.627460
C281	C28	0.569320	0.020580	0.677980
C291	C29	0.552400	0.041500	0.718700
C301	C30	0.604360	0.013540	0.767940
C311	C31	0.677510	0.961590	0.776790
C321	C32	0.215200	0.634400	0.583000
C331	C33	0.698450	0.941150	0.736950
C341	C34	0.645590	0.968210	0.687410
C351	C35	0.435350	0.102150	0.614150
C361	C36	0.335740	0.101760	0.652760
C371	C37	0.256630	0.150570	0.636570
C381	C38	0.274850	0.201150	0.583750
C391	C39	0.371840	0.200360	0.546560
C401	C40	0.450970	0.152230	0.561630
C411	C41	0.188500	0.251400	0.566000
C421	C42	0.480160	0.062840	0.821840
C431	C43	0.583530	0.035470	0.811470
C441	C44	0.456400	0.083900	0.863900
C451	C45	0.540440	0.079960	0.891960
C461	C46	0.643500	0.053100	0.880300
C471	C47	0.666070	0.033090	0.838370
C481	C48	0.514920	0.099880	0.935280
C491	C49	0.268100	0.169000	0.051400
C501	C50	0.189090	0.170510	0.101110
C511	C51	0.082590	0.201610	0.091810
C521	C52	0.007380	0.200020	0.140220
C531	C53	0.032060	0.171840	0.196040
C541	C54	0.138690	0.142910	0.202910
C551	C55	0.213790	0.143410	0.156810
C561	C56	0.948110	0.167890	0.245690
C571	C57	0.843340	0.163260	0.247860
C581	C58	0.759620	0.158280	0.294280
C591	C59	0.652240	0.147460	0.299660
C601	C60	0.575450	0.144250	0.346050
C611	C61	0.601410	0.146790	0.392990
C621	C62	0.704480	0.153620	0.392820
C631	C63	0.784470	0.160330	0.342930
C641	C64	0.892010	0.167690	0.339490
C651	C65	0.973270	0.172030	0.292230
C661	C66	0.624910	0.135290	0.255090
C671	C67	0.603040	0.075960	0.276960
C681	C68	0.575610	0.060290	0.239090
C691	C69	0.584690	0.101510	0.178110
C701	C70	0.600970	0.156230	0.158230
C711	C71	0.620490	0.172910	0.198710
C721	C72	0.739410	0.145890	0.446090
C731	C73	0.804960	0.096740	0.476540
C741	C74	0.840100	0.087800	0.528200
C751	C75	0.805840	0.127460	0.548060
C761	C76	0.732120	0.177980	0.520580
C771	C77	0.687400	0.218700	0.541500
C781	C78	0.614160	0.267940	0.513540
C791	C79	0.584110	0.276790	0.461590
C801	C80	0.567400	0.083000	0.134400
C811	C81	0.623450	0.236950	0.441150
C821	C82	0.698790	0.187410	0.468210
C831	C83	0.848350	0.114150	0.602150
C841	C84	0.909740	0.152760	0.601760
C851	C85	0.956230	0.136570	0.650570
C861	C86	0.940250	0.083750	0.701150
C871	C87	0.881240	0.046560	0.700360
C881	C88	0.835170	0.061630	0.652230
C891	C89	0.994100	0.066000	0.751400
C901	C90	0.635160	0.321840	0.562840
C911	C91	0.569530	0.311470	0.535470
C921	C92	0.595800	0.363900	0.583900
C931	C93	0.487640	0.391960	0.579960
C941	C94	0.423100	0.380300	0.553100
C951	C95	0.462470	0.338370	0.533090
C961	C96	0.449920	0.435280	0.599880
C971	C97	0.988500	0.331000	0.448600
C981	C98	0.960710	0.329490	0.398890
C991	C99	0.876010	0.298390	0.408190
C1001	C100	0.847620	0.299980	0.359780
C1011	C101	0.899940	0.328160	0.303960
C1021	C102	0.984510	0.357090	0.297090
C1031	C103	0.014010	0.356590	0.343190
C1041	C104	0.861690	0.332110	0.254310
C1051	C105	0.754460	0.336740	0.252140
C1061	C106	0.712180	0.341720	0.205720
C1071	C107	0.599360	0.352540	0.200340
C1081	C108	0.565750	0.355750	0.153950
C1091	C109	0.641190	0.353210	0.107010
C1101	C110	0.750920	0.346380	0.107180
C1111	C111	0.787730	0.339670	0.157070
C1121	C112	0.899190	0.332310	0.160510
C1131	C113	0.937530	0.327970	0.207770
C1141	C114	0.515290	0.364710	0.244910
C1151	C115	0.455960	0.424040	0.223040
C1161	C116	0.374990	0.439710	0.260910
C1171	C117	0.364310	0.398490	0.321890
C1181	C118	0.415430	0.343770	0.341770
C1191	C119	0.492110	0.327090	0.301290
C1201	C120	0.831390	0.354110	0.053910
C1211	C121	0.878240	0.403260	0.023460
C1221	C122	0.956100	0.412200	0.971800
C1231	C123	0.981360	0.372540	0.951940
C1241	C124	0.930680	0.322020	0.979420
C1251	C125	0.947600	0.281300	0.958500
C1261	C126	0.895640	0.232060	0.986460
C1271	C127	0.822490	0.223210	0.038410
C1281	C128	0.284800	0.417000	0.365600
C1291	C129	0.801550	0.263050	0.058850
C1301	C130	0.854410	0.312590	0.031790
C1311	C131	0.064650	0.385850	0.897850
C1321	C132	0.164260	0.347240	0.898240
C1331	C133	0.243370	0.363430	0.849430
C1341	C134	0.225150	0.416250	0.798850
C1351	C135	0.128160	0.453440	0.799640
C1361	C136	0.049030	0.438370	0.847770
C1371	C137	0.311500	0.434000	0.748600
C1381	C138	0.019840	0.178160	0.937160
C1391	C139	0.916470	0.188530	0.964530
C1401	C140	0.043600	0.136100	0.916100
C1411	C141	0.959560	0.108040	0.920040
C1421	C142	0.856500	0.119700	0.946900
C1431	C143	0.833930	0.161630	0.966910
C1441	C144	0.985080	0.064720	0.900120
C1451	C145	0.231900	0.948600	0.831000
C1461	C146	0.310910	0.898890	0.829490
C1471	C147	0.417410	0.908190	0.798390
C1481	C148	0.492620	0.859780	0.799980
C1491	C149	0.467940	0.803960	0.828160
C1501	C150	0.361310	0.797090	0.857090
C1511	C151	0.286210	0.843190	0.856590
C1521	C152	0.551890	0.754310	0.832110
C1531	C153	0.656660	0.752140	0.836740
C1541	C154	0.740380	0.705720	0.841720
C1551	C155	0.847760	0.700340	0.852540
C1561	C156	0.924550	0.653950	0.855750
C1571	C157	0.898590	0.607010	0.853210
C1581	C158	0.795520	0.607180	0.846380
C1591	C159	0.715530	0.657070	0.839670
C1601	C160	0.607990	0.660510	0.832310
C1611	C161	0.526730	0.707770	0.827970
C1621	C162	0.875090	0.744910	0.864710
C1631	C163	0.896960	0.723040	0.924040
C1641	C164	0.924390	0.760910	0.939710
C1651	C165	0.915310	0.821890	0.898490
C1661	C166	0.899030	0.841770	0.843770
C1671	C167	0.879510	0.801290	0.827090
C1681	C168	0.760590	0.553910	0.854110
C1691	C169	0.695040	0.523460	0.903260
C1701	C170	0.659900	0.471800	0.912200
C1711	C171	0.694160	0.451940	0.872540
C1721	C172	0.767880	0.479420	0.822020
C1731	C173	0.812600	0.458500	0.781300
C1741	C174	0.885840	0.486460	0.732060
C1751	C175	0.915890	0.538410	0.723210
C1761	C176	0.932600	0.865600	0.917000
C1771	C177	0.876550	0.558850	0.763050
C1781	C178	0.801210	0.531790	0.812590
C1791	C179	0.651650	0.397850	0.885850
C1801	C180	0.590260	0.398240	0.847240
C1811	C181	0.543770	0.349430	0.863430
C1821	C182	0.559750	0.298850	0.916250
C1831	C183	0.618760	0.299640	0.953440
C1841	C184	0.664830	0.347770	0.938370
C1851	C185	0.505900	0.248600	0.934000
C1861	C186	0.864840	0.437160	0.678160
C1871	C187	0.930470	0.464530	0.688530
C1881	C188	0.904200	0.416100	0.636100
C1891	C189	0.012360	0.420040	0.608040
C1901	C190	0.076900	0.446900	0.619700
C1911	C191	0.037530	0.466910	0.661630
C1921	C192	0.050080	0.400120	0.564720
O11	O1	0.893800	0.939330	0.641070
O21	O2	0.642460	0.956200	0.556880
O31	O3	0.565720	0.501260	0.695300
O41	O4	0.437390	0.561600	0.641620
O51	O5	0.285660	0.659540	0.534740
O61	O6	0.213050	0.582860	0.613840
O71	O7	0.214340	0.299160	0.523160
O81	O8	0.094860	0.246450	0.593830
O91	O9	0.416530	0.120880	0.947660
O101	O10	0.586510	0.095840	0.962140
O111	O11	0.525800	0.141070	0.439330
O121	O12	0.844460	0.056880	0.456200
O131	O13	0.237720	0.195300	0.001260
O141	O14	0.359390	0.141620	0.061600
O151	O15	0.520060	0.034740	0.159540
O161	O16	0.590250	0.113840	0.082860
O171	O17	0.963340	0.023160	0.799160
O181	O18	0.064860	0.093830	0.746450
O191	O19	0.514930	0.447660	0.620880
O201	O20	0.355510	0.462140	0.595840
O211	O21	0.606200	0.358930	0.060670
O221	O22	0.857540	0.443120	0.043800
O231	O23	0.934280	0.304700	0.498740
O241	O24	0.062610	0.358380	0.438400
O251	O25	0.214340	0.465260	0.340460
O261	O26	0.286950	0.386160	0.417140
O271	O27	0.285660	0.476840	0.700840
O281	O28	0.405140	0.406170	0.753550
O291	O29	0.083470	0.052340	0.879120
O301	O30	0.913490	0.037860	0.904160
O311	O31	0.974200	0.560670	0.858930
O321	O32	0.655540	0.543800	0.943120
O331	O33	0.262280	0.998740	0.804700
O341	O34	0.140610	0.938400	0.858380
O351	O35	0.979940	0.840460	0.965260
O361	O36	0.909750	0.917140	0.886160
O371	O37	0.536660	0.200840	0.976840
O381	O38	0.435140	0.253550	0.906170
O391	O39	0.985070	0.379120	0.552340
O401	O40	0.144490	0.404160	0.537860
