data_TAGBUZ_freeONLY_PM
_symmetry_space_group_name_H-M	'P1'
_cell_length_a	10.335000
_cell_length_b	10.335000
_cell_length_c	17.015000
_cell_angle_alpha	84.841200
_cell_angle_beta	74.690600
_cell_angle_gamma	114.663000
_symmetry_Int_Tables_number 1

loop_
_symmetry_equiv_pos_as_xyz
'x,y,z'

loop_
_atom_site_label
_atom_site_type_symbol
_atom_site_fract_x
_atom_site_fract_y
_atom_site_fract_z
Ag11	Ag1	0.853690	0.374520	0.308250
Ag21	Ag2	0.817230	0.838060	0.808250
H11	H1	0.454800	0.599600	0.508000
H21	H2	0.437900	0.794300	0.560200
H31	H3	0.890600	0.037000	0.457400
H41	H4	0.907000	0.843100	0.403900
H51	H5	0.732100	0.339500	0.532000
H61	H6	0.124600	0.476500	0.579500
H71	H7	0.863500	0.045400	0.603900
H81	H8	0.057400	0.857400	0.553200
H91	H9	0.290900	0.059700	0.484400
H101	H10	0.425800	0.806800	0.348600
H111	H11	0.191000	0.603500	0.420500
H121	H12	0.117400	0.416500	0.715900
H131	H13	0.310100	0.582100	0.755600
H141	H14	0.586000	0.417400	0.644000
H151	H15	0.391100	0.248600	0.605900
H161	H16	0.392400	0.037200	0.008000
H171	H17	0.145500	0.001900	0.060200
H181	H18	0.005600	0.652000	0.957400
H191	H19	0.253000	0.689100	0.903900
H201	H20	0.628500	0.735900	0.032000
H211	H21	0.444000	0.295900	0.079500
H221	H22	0.850700	0.532600	0.103900
H231	H23	0.089400	0.389400	0.053200
H241	H24	0.955900	0.224700	0.984400
H251	H25	0.344600	0.225600	0.848600
H261	H26	0.476000	0.388500	0.920500
H271	H27	0.367600	0.166700	0.215900
H281	H28	0.162300	0.934300	0.255600
H291	H29	0.438600	0.770000	0.144000
H301	H30	0.645500	0.003000	0.105900
C11	C1	0.697100	0.581700	0.420200
C21	C2	0.682700	0.703100	0.451000
C31	C3	0.542500	0.688100	0.497800
C41	C4	0.532490	0.803410	0.529300
C51	C5	0.663460	0.934040	0.515100
C61	C6	0.802900	0.948600	0.467700
C71	C7	0.812700	0.833300	0.435800
C81	C8	0.648430	0.060180	0.547190
C91	C9	0.781870	0.175470	0.562460
C101	C10	0.803890	0.318610	0.546900
C111	C11	0.932280	0.431320	0.553400
C121	C12	0.035860	0.399870	0.577670
C131	C13	0.009240	0.254830	0.599530
C141	C14	0.881640	0.143080	0.590680
C151	C15	0.950170	0.584710	0.537920
C161	C16	0.104470	0.711010	0.494520
C171	C17	0.132800	0.847500	0.512700
C181	C18	0.270600	0.968100	0.471700
C191	C19	0.379750	0.950900	0.410550
C201	C20	0.351900	0.816200	0.390300
C211	C21	0.212000	0.695200	0.433200
C221	C22	0.528200	0.074800	0.369800
C231	C23	0.116090	0.212310	0.626600
C241	C24	0.236790	0.320340	0.654470
C251	C25	0.212350	0.417960	0.700690
C261	C26	0.326500	0.516700	0.724200
C271	C27	0.466800	0.517000	0.700200
C281	C28	0.491800	0.417500	0.657500
C291	C29	0.375900	0.317500	0.634600
C301	C30	0.590100	0.628200	0.719700
C311	C31	0.498100	0.882700	0.920200
C321	C32	0.345900	0.866300	0.951000
C331	C33	0.314100	0.959700	0.997800
C341	C34	0.167290	0.938210	0.029300
C351	C35	0.050860	0.821440	0.015100
C361	C36	0.083700	0.729400	0.967700
C371	C37	0.230900	0.751500	0.935800
C381	C38	0.892630	0.804380	0.047190
C391	C39	0.762070	0.655670	0.062460
C401	C40	0.634490	0.649210	0.046900
C411	C41	0.515280	0.514320	0.053400
C421	C42	0.522460	0.386470	0.077670
C431	C43	0.645640	0.391230	0.099530
C441	C44	0.766240	0.527680	0.090680
C451	C45	0.377370	0.511910	0.037920
C461	C46	0.294470	0.401010	0.994520
C471	C47	0.139800	0.354500	0.012700
C481	C48	0.060200	0.257700	0.971700
C491	C49	0.138550	0.209700	0.910550
C501	C50	0.293500	0.257800	0.890300
C511	C51	0.371600	0.354800	0.933200
C521	C52	0.055400	0.102000	0.869800
C531	C53	0.661090	0.257310	0.126600
C541	C54	0.525190	0.108740	0.154470
C551	C55	0.381350	0.086960	0.200690
C561	C56	0.259100	0.949300	0.224200
C571	C57	0.282800	0.833000	0.200200
C581	C58	0.425000	0.850700	0.157500
C591	C59	0.547900	0.989500	0.134600
C601	C60	0.152100	0.690200	0.219700
N11	N1	0.715100	0.489200	0.396300
N21	N2	0.644570	0.170100	0.339930
N31	N3	0.683800	0.717300	0.734500
N41	N4	0.614500	0.888600	0.896300
N51	N5	0.989970	0.015500	0.839930
N61	N6	0.048200	0.581700	0.234500
O11	O1	0.533540	0.072580	0.556560
O21	O2	0.839320	0.605480	0.559400
O31	O3	0.107430	0.091860	0.625110
O41	O4	0.870860	0.909900	0.056560
O51	O5	0.335120	0.601280	0.059400
O61	O6	0.783030	0.267460	0.125110
