data_TARWAK_freeONLY_PM
_symmetry_space_group_name_H-M	'P1'
_cell_length_a	6.942000
_cell_length_b	12.584000
_cell_length_c	12.584000
_cell_angle_alpha	95.352800
_cell_angle_beta	96.715200
_cell_angle_gamma	83.284800
_symmetry_Int_Tables_number 1

loop_
_symmetry_equiv_pos_as_xyz
'x,y,z'

loop_
_atom_site_label
_atom_site_type_symbol
_atom_site_fract_x
_atom_site_fract_y
_atom_site_fract_z
Cu11	Cu1	0.933010	0.313350	0.057830
Cu21	Cu2	0.433010	0.942170	0.686650
H11	H1	0.435700	0.422640	0.549360
H21	H2	0.935700	0.450640	0.577360
C11	C1	0.447700	0.532500	0.667900
C21	C2	0.376600	0.353800	0.672000
C31	C3	0.350100	0.474000	0.817200
C41	C4	0.517000	0.700600	0.649800
C51	C5	0.338000	0.175100	0.655900
C61	C6	0.221000	0.436100	0.966900
C71	C7	0.947700	0.332100	0.467500
C81	C8	0.876600	0.328000	0.646200
C91	C9	0.850100	0.182800	0.526000
C101	C10	0.017000	0.350200	0.299400
C111	C11	0.838000	0.344100	0.824900
C121	C12	0.721000	0.033100	0.563900
N11	N1	0.422600	0.434260	0.616740
N21	N2	0.344000	0.371600	0.774400
N31	N3	0.409600	0.555000	0.768600
N41	N4	0.507800	0.602100	0.607900
N51	N5	0.529300	0.789900	0.677900
N61	N6	0.362300	0.261100	0.612100
N71	N7	0.317000	0.092900	0.684900
N81	N8	0.291200	0.505200	0.914600
N91	N9	0.152800	0.385300	0.021300
N101	N10	0.922600	0.383260	0.565740
N111	N11	0.844000	0.225600	0.628400
N121	N12	0.909600	0.231400	0.445000
N131	N13	0.007800	0.392100	0.397900
N141	N14	0.029300	0.322100	0.210100
N151	N15	0.862300	0.387900	0.738900
N161	N16	0.817000	0.315100	0.907100
N171	N17	0.791200	0.085400	0.494800
N181	N18	0.652800	0.978700	0.614700
O11	O1	0.194400	0.898020	0.745180
O21	O2	0.694400	0.254820	0.101980
Cu31	Cu3	0.566990	0.057830	0.313350
Cu41	Cu4	0.066990	0.686650	0.942170
H31	H3	0.064300	0.549360	0.422640
H41	H4	0.564300	0.577360	0.450640
C131	C13	0.052300	0.667900	0.532500
C141	C14	0.123400	0.672000	0.353800
C151	C15	0.149900	0.817200	0.474000
C161	C16	0.983000	0.649800	0.700600
C171	C17	0.162000	0.655900	0.175100
C181	C18	0.279000	0.966900	0.436100
C191	C19	0.552300	0.467500	0.332100
C201	C20	0.623400	0.646200	0.328000
C211	C21	0.649900	0.526000	0.182800
C221	C22	0.483000	0.299400	0.350200
C231	C23	0.662000	0.824900	0.344100
C241	C24	0.779000	0.563900	0.033100
N191	N19	0.077400	0.616740	0.434260
N201	N20	0.156000	0.774400	0.371600
N211	N21	0.090400	0.768600	0.555000
N221	N22	0.992200	0.607900	0.602100
N231	N23	0.970700	0.677900	0.789900
N241	N24	0.137700	0.612100	0.261100
N251	N25	0.183000	0.684900	0.092900
N261	N26	0.208800	0.914600	0.505200
N271	N27	0.347200	0.021300	0.385300
N281	N28	0.577400	0.565740	0.383260
N291	N29	0.656000	0.628400	0.225600
N301	N30	0.590400	0.445000	0.231400
N311	N31	0.492200	0.397900	0.392100
N321	N32	0.470700	0.210100	0.322100
N331	N33	0.637700	0.738900	0.387900
N341	N34	0.683000	0.907100	0.315100
N351	N35	0.708800	0.494800	0.085400
N361	N36	0.847200	0.614700	0.978700
O31	O3	0.305600	0.745180	0.898020
O41	O4	0.805600	0.101980	0.254820
