data_TAXHUX_freeONLY_PM
_symmetry_space_group_name_H-M	'P1'
_cell_length_a	4.932710
_cell_length_b	12.889200
_cell_length_c	19.808000
_cell_angle_alpha	107.046000
_cell_angle_beta	90.000000
_cell_angle_gamma	101.032000
_symmetry_Int_Tables_number 1

loop_
_symmetry_equiv_pos_as_xyz
'x,y,z'

loop_
_atom_site_label
_atom_site_type_symbol
_atom_site_fract_x
_atom_site_fract_y
_atom_site_fract_z
Zn11	Zn1	0.233800	0.882200	0.762770
Zn21	Zn2	0.787740	0.111480	0.736830
Zn31	Zn3	0.351600	0.117800	0.237230
Zn41	Zn4	0.676260	0.888520	0.263170
Zn51	Zn5	0.956800	0.000000	0.000000
Zn61	Zn6	0.070100	0.000000	0.500000
P11	P1	0.261740	0.015680	0.650990
P21	P2	0.758810	0.974620	0.848740
P31	P3	0.246060	0.984320	0.349010
P41	P4	0.784190	0.025380	0.151260
H11	H1	0.862500	0.734800	0.688400
H21	H2	0.855000	0.723800	0.760900
H31	H3	0.233100	0.646400	0.665300
H41	H4	0.215400	0.632000	0.742700
H51	H5	0.778500	0.511000	0.710400
H61	H6	0.775900	0.530600	0.634200
H71	H7	0.155300	0.420200	0.682800
H81	H8	0.181200	0.448000	0.609300
H91	H9	0.741700	0.295000	0.641800
H101	H10	0.739300	0.329000	0.570200
H111	H11	0.146700	0.222200	0.610600
H121	H12	0.160000	0.261000	0.540800
H131	H13	0.724600	0.105800	0.560800
H141	H14	0.778200	0.134000	0.494000
H151	H15	0.259600	0.871800	0.011000
H161	H16	0.292800	0.887600	0.940100
H171	H17	0.862100	0.745000	0.973500
H181	H18	0.886700	0.764200	0.897600
H191	H19	0.256200	0.664000	0.956400
H201	H20	0.285400	0.684400	0.880700
H211	H21	0.844100	0.563600	0.843600
H221	H22	0.844400	0.537000	0.917400
H231	H23	0.236200	0.484600	0.815400
H241	H24	0.220900	0.453600	0.887900
H251	H25	0.803500	0.366000	0.776000
H261	H26	0.793100	0.334000	0.848000
H271	H27	0.159400	0.277600	0.745200
H281	H28	0.170000	0.253200	0.813700
H291	H29	0.127700	0.265200	0.311600
H301	H30	0.131200	0.276200	0.239100
H311	H31	0.586700	0.353600	0.334700
H321	H32	0.583400	0.368000	0.257300
H331	H33	0.267500	0.489000	0.289600
H341	H34	0.245300	0.469400	0.365800
H351	H35	0.735100	0.579800	0.317200
H361	H36	0.733200	0.552000	0.390700
H371	H37	0.446700	0.705000	0.358200
H381	H38	0.410300	0.671000	0.429800
H391	H39	0.924500	0.777800	0.389400
H401	H40	0.899000	0.739000	0.459200
H411	H41	0.618800	0.894200	0.439200
H421	H42	0.644200	0.866000	0.506000
H431	H43	0.387800	0.128200	0.989000
H441	H44	0.405200	0.112400	0.059900
H451	H45	0.117100	0.255000	0.026500
H461	H46	0.122500	0.235800	0.102400
H471	H47	0.592200	0.336000	0.043600
H481	H48	0.601000	0.315600	0.119300
H491	H49	0.280500	0.436400	0.156400
H501	H50	0.307400	0.463000	0.082600
H511	H51	0.751600	0.515400	0.184600
H521	H52	0.767300	0.546400	0.112100
H531	H53	0.437500	0.634000	0.224000
H541	H54	0.459100	0.666000	0.152000
H551	H55	0.881800	0.722400	0.254800
H561	H56	0.916800	0.746800	0.186300
C11	C1	0.105000	0.636000	0.702200
C21	C2	0.896700	0.525400	0.672500
C31	C3	0.048400	0.428800	0.643200
C41	C4	0.861000	0.320000	0.607000
C51	C5	0.032500	0.233000	0.573000
C61	C6	0.995000	0.762000	0.939000
C71	C7	0.151000	0.668000	0.915000
C81	C8	0.965200	0.556400	0.881200
C91	C9	0.107900	0.463800	0.849900
C101	C10	0.919400	0.354800	0.813100
C111	C11	0.469000	0.364000	0.297800
C121	C12	0.371300	0.474600	0.327500
C131	C13	0.619600	0.571200	0.356800
C141	C14	0.541000	0.680000	0.393000
C151	C15	0.799500	0.767000	0.427000
C161	C16	0.233000	0.238000	0.061000
C171	C17	0.483000	0.332000	0.085000
C181	C18	0.408800	0.443600	0.118800
C191	C19	0.644100	0.536200	0.150100
C201	C20	0.564600	0.645200	0.186900
N11	N1	0.970600	0.733200	0.725800
N21	N2	0.861700	0.125400	0.533000
N31	N3	0.164400	0.872800	0.971400
N41	N4	0.052400	0.260800	0.780100
N51	N5	0.237400	0.266800	0.274200
N61	N6	0.736300	0.874600	0.467000
N71	N7	0.291600	0.127200	0.028600
N81	N8	0.791600	0.739200	0.219900
O11	O1	0.313400	0.916800	0.675400
O21	O2	0.445800	0.125600	0.695300
O31	O3	0.317700	0.991400	0.571800
O41	O4	0.959200	0.022400	0.657800
O51	O5	0.691400	0.000800	0.926400
O61	O6	0.572200	0.864400	0.804600
O71	O7	0.696800	0.069600	0.821800
O81	O8	0.065600	0.967200	0.841400
O91	O9	0.396600	0.083200	0.324600
O101	O10	0.320200	0.874400	0.304700
O111	O11	0.326300	0.008600	0.428200
O121	O12	0.936800	0.977600	0.342200
O131	O13	0.690600	0.999200	0.073600
O141	O14	0.707800	0.135600	0.195400
O151	O15	0.627200	0.930400	0.178200
O161	O16	0.098400	0.032800	0.158600
