data_TAZLIR_freeONLY_PM
_symmetry_space_group_name_H-M	'P1'
_cell_length_a	19.487600
_cell_length_b	19.487600
_cell_length_c	26.377000
_cell_angle_alpha	90.000000
_cell_angle_beta	90.000000
_cell_angle_gamma	90.000000
_symmetry_Int_Tables_number 1

loop_
_symmetry_equiv_pos_as_xyz
'x,y,z'

loop_
_atom_site_label
_atom_site_type_symbol
_atom_site_fract_x
_atom_site_fract_y
_atom_site_fract_z
Sm11	Sm1	0.441010	0.058990	0.802870
Sm21	Sm2	0.058990	0.441010	0.802870
Sm31	Sm3	0.441010	0.441010	0.302870
Sm41	Sm4	0.058990	0.058990	0.302870
Sm51	Sm5	0.558990	0.558990	0.697130
Sm61	Sm6	0.941010	0.941010	0.697130
Sm71	Sm7	0.558990	0.941010	0.197130
Sm81	Sm8	0.941010	0.558990	0.197130
Cd11	Cd1	0.529900	0.970100	0.696070
Cd21	Cd2	0.970100	0.529900	0.696070
Cd31	Cd3	0.529900	0.529900	0.196070
Cd41	Cd4	0.970100	0.970100	0.196070
Cd51	Cd5	0.470100	0.470100	0.803930
Cd61	Cd6	0.029900	0.029900	0.803930
Cd71	Cd7	0.470100	0.029900	0.303930
Cd81	Cd8	0.029900	0.470100	0.303930
Cd91	Cd9	0.750000	0.250000	0.500000
Cd101	Cd10	0.250000	0.750000	0.000000
Cd111	Cd11	0.250000	0.750000	0.500000
Cd121	Cd12	0.750000	0.250000	0.000000
H11	H1	0.487300	0.251200	0.730800
H21	H2	0.590000	0.167100	0.615100
H31	H3	0.595500	0.370400	0.635700
H41	H4	0.502200	0.245200	0.887200
H51	H5	0.572800	0.266600	0.910900
H61	H6	0.531700	0.319000	0.877600
H71	H7	0.652000	0.235300	0.779100
H81	H8	0.645400	0.312300	0.795800
H91	H9	0.686300	0.260300	0.829700
H101	H10	0.012700	0.248800	0.730800
H111	H11	0.910000	0.332900	0.615100
H121	H12	0.904500	0.129600	0.635700
H131	H13	0.997800	0.254800	0.887200
H141	H14	0.927200	0.233400	0.910900
H151	H15	0.968300	0.181000	0.877600
H161	H16	0.848000	0.264700	0.779100
H171	H17	0.854600	0.187700	0.795800
H181	H18	0.813700	0.239700	0.829700
H191	H19	0.248800	0.487300	0.230800
H201	H20	0.332900	0.590000	0.115100
H211	H21	0.129600	0.595500	0.135700
H221	H22	0.254800	0.502200	0.387200
H231	H23	0.233400	0.572800	0.410900
H241	H24	0.181000	0.531700	0.377600
H251	H25	0.264700	0.652000	0.279100
H261	H26	0.187700	0.645400	0.295800
H271	H27	0.239700	0.686300	0.329700
H281	H28	0.251200	0.012700	0.230800
H291	H29	0.167100	0.910000	0.115100
H301	H30	0.370400	0.904500	0.135700
H311	H31	0.245200	0.997800	0.387200
H321	H32	0.266600	0.927200	0.410900
H331	H33	0.319000	0.968300	0.377600
H341	H34	0.235300	0.848000	0.279100
H351	H35	0.312300	0.854600	0.295800
H361	H36	0.260300	0.813700	0.329700
H371	H37	0.512700	0.751200	0.769200
H381	H38	0.410000	0.667100	0.884900
H391	H39	0.404500	0.870400	0.864300
H401	H40	0.497800	0.745200	0.612800
H411	H41	0.427200	0.766600	0.589100
H421	H42	0.468300	0.819000	0.622400
H431	H43	0.348000	0.735300	0.720900
H441	H44	0.354600	0.812300	0.704200
H451	H45	0.313700	0.760300	0.670300
H461	H46	0.987300	0.748800	0.769200
H471	H47	0.090000	0.832900	0.884900
H481	H48	0.095500	0.629600	0.864300
H491	H49	0.002200	0.754800	0.612800
H501	H50	0.072800	0.733400	0.589100
H511	H51	0.031700	0.681000	0.622400
H521	H52	0.152000	0.764700	0.720900
H531	H53	0.145400	0.687700	0.704200
H541	H54	0.186300	0.739700	0.670300
H551	H55	0.751200	0.987300	0.269200
H561	H56	0.667100	0.090000	0.384900
H571	H57	0.870400	0.095500	0.364300
H581	H58	0.745200	0.002200	0.112800
H591	H59	0.766600	0.072800	0.089100
H601	H60	0.819000	0.031700	0.122400
H611	H61	0.735300	0.152000	0.220900
H621	H62	0.812300	0.145400	0.204200
H631	H63	0.760300	0.186300	0.170300
H641	H64	0.748800	0.512700	0.269200
H651	H65	0.832900	0.410000	0.384900
H661	H66	0.629600	0.404500	0.364300
H671	H67	0.754800	0.497800	0.112800
H681	H68	0.733400	0.427200	0.089100
H691	H69	0.681000	0.468300	0.122400
H701	H70	0.764700	0.348000	0.220900
H711	H71	0.687700	0.354600	0.204200
H721	H72	0.739700	0.313700	0.170300
H731	H73	0.512700	0.748800	0.269200
H741	H74	0.410000	0.832900	0.384900
H751	H75	0.404500	0.629600	0.364300
H761	H76	0.497800	0.754800	0.112800
H771	H77	0.427200	0.733400	0.089100
H781	H78	0.468300	0.681000	0.122400
H791	H79	0.348000	0.764700	0.220900
H801	H80	0.354600	0.687700	0.204200
H811	H81	0.313700	0.739700	0.170300
H821	H82	0.987300	0.751200	0.269200
H831	H83	0.090000	0.667100	0.384900
H841	H84	0.095500	0.870400	0.364300
H851	H85	0.002200	0.745200	0.112800
H861	H86	0.072800	0.766600	0.089100
H871	H87	0.031700	0.819000	0.122400
H881	H88	0.152000	0.735300	0.220900
H891	H89	0.145400	0.812300	0.204200
H901	H90	0.186300	0.760300	0.170300
H911	H91	0.751200	0.512700	0.769200
H921	H92	0.667100	0.410000	0.884900
H931	H93	0.870400	0.404500	0.864300
H941	H94	0.745200	0.497800	0.612800
H951	H95	0.766600	0.427200	0.589100
H961	H96	0.819000	0.468300	0.622400
H971	H97	0.735300	0.348000	0.720900
H981	H98	0.812300	0.354600	0.704200
H991	H99	0.760300	0.313700	0.670300
H1001	H100	0.748800	0.987300	0.769200
H1011	H101	0.832900	0.090000	0.884900
H1021	H102	0.629600	0.095500	0.864300
H1031	H103	0.754800	0.002200	0.612800
H1041	H104	0.733400	0.072800	0.589100
H1051	H105	0.681000	0.031700	0.622400
H1061	H106	0.764700	0.152000	0.720900
H1071	H107	0.687700	0.145400	0.704200
H1081	H108	0.739700	0.186300	0.670300
H1091	H109	0.487300	0.248800	0.230800
H1101	H110	0.590000	0.332900	0.115100
H1111	H111	0.595500	0.129600	0.135700
H1121	H112	0.502200	0.254800	0.387200
H1131	H113	0.572800	0.233400	0.410900
H1141	H114	0.531700	0.181000	0.377600
H1151	H115	0.652000	0.264700	0.279100
H1161	H116	0.645400	0.187700	0.295800
H1171	H117	0.686300	0.239700	0.329700
H1181	H118	0.012700	0.251200	0.230800
H1191	H119	0.910000	0.167100	0.115100
H1201	H120	0.904500	0.370400	0.135700
H1211	H121	0.997800	0.245200	0.387200
H1221	H122	0.927200	0.266600	0.410900
H1231	H123	0.968300	0.319000	0.377600
H1241	H124	0.848000	0.235300	0.279100
H1251	H125	0.854600	0.312300	0.295800
H1261	H126	0.813700	0.260300	0.329700
H1271	H127	0.248800	0.012700	0.730800
H1281	H128	0.332900	0.910000	0.615100
H1291	H129	0.129600	0.904500	0.635700
H1301	H130	0.254800	0.997800	0.887200
H1311	H131	0.233400	0.927200	0.910900
H1321	H132	0.181000	0.968300	0.877600
H1331	H133	0.264700	0.848000	0.779100
H1341	H134	0.187700	0.854600	0.795800
H1351	H135	0.239700	0.813700	0.829700
H1361	H136	0.251200	0.487300	0.730800
H1371	H137	0.167100	0.590000	0.615100
H1381	H138	0.370400	0.595500	0.635700
H1391	H139	0.245200	0.502200	0.887200
H1401	H140	0.266600	0.572800	0.910900
H1411	H141	0.319000	0.531700	0.877600
H1421	H142	0.235300	0.652000	0.779100
H1431	H143	0.312300	0.645400	0.795800
H1441	H144	0.260300	0.686300	0.829700
C11	C1	0.516400	0.128600	0.693600
C21	C2	0.538000	0.320300	0.688100
C31	C3	0.647600	0.275000	0.574500
C41	C4	0.534700	0.199100	0.675400
C51	C5	0.598800	0.269600	0.618400
C61	C6	0.515500	0.255900	0.702600
C71	C7	0.576800	0.205800	0.633200
C81	C8	0.580100	0.327300	0.645600
C91	C9	0.544100	0.191400	0.824400
C101	C10	0.543300	0.271500	0.882000
C111	C11	0.647000	0.265700	0.807600
C121	C12	0.519500	0.381800	0.719700
C131	C13	0.983600	0.371400	0.693600
C141	C14	0.962000	0.179700	0.688100
C151	C15	0.852400	0.225000	0.574500
C161	C16	0.965300	0.300900	0.675400
C171	C17	0.901200	0.230400	0.618400
C181	C18	0.984500	0.244100	0.702600
C191	C19	0.923200	0.294200	0.633200
C201	C20	0.919900	0.172700	0.645600
C211	C21	0.955900	0.308600	0.824400
C221	C22	0.956700	0.228500	0.882000
C231	C23	0.853000	0.234300	0.807600
C241	C24	0.980500	0.118200	0.719700
C251	C25	0.371400	0.516400	0.193600
C261	C26	0.179700	0.538000	0.188100
C271	C27	0.225000	0.647600	0.074500
C281	C28	0.300900	0.534700	0.175400
C291	C29	0.230400	0.598800	0.118400
C301	C30	0.244100	0.515500	0.202600
C311	C31	0.294200	0.576800	0.133200
C321	C32	0.172700	0.580100	0.145600
C331	C33	0.308600	0.544100	0.324400
C341	C34	0.228500	0.543300	0.382000
C351	C35	0.234300	0.647000	0.307600
C361	C36	0.118200	0.519500	0.219700
C371	C37	0.128600	0.983600	0.193600
C381	C38	0.320300	0.962000	0.188100
C391	C39	0.275000	0.852400	0.074500
C401	C40	0.199100	0.965300	0.175400
C411	C41	0.269600	0.901200	0.118400
C421	C42	0.255900	0.984500	0.202600
C431	C43	0.205800	0.923200	0.133200
C441	C44	0.327300	0.919900	0.145600
C451	C45	0.191400	0.955900	0.324400
C461	C46	0.271500	0.956700	0.382000
C471	C47	0.265700	0.853000	0.307600
C481	C48	0.381800	0.980500	0.219700
C491	C49	0.483600	0.628600	0.806400
C501	C50	0.462000	0.820300	0.811900
C511	C51	0.352400	0.775000	0.925500
C521	C52	0.465300	0.699100	0.824600
C531	C53	0.401200	0.769600	0.881600
C541	C54	0.484500	0.755900	0.797400
C551	C55	0.423200	0.705800	0.866800
C561	C56	0.419900	0.827300	0.854400
C571	C57	0.455900	0.691400	0.675600
C581	C58	0.456700	0.771500	0.618000
C591	C59	0.353000	0.765700	0.692400
C601	C60	0.480500	0.881800	0.780300
C611	C61	0.016400	0.871400	0.806400
C621	C62	0.038000	0.679700	0.811900
C631	C63	0.147600	0.725000	0.925500
C641	C64	0.034700	0.800900	0.824600
C651	C65	0.098800	0.730400	0.881600
C661	C66	0.015500	0.744100	0.797400
C671	C67	0.076800	0.794200	0.866800
C681	C68	0.080100	0.672700	0.854400
C691	C69	0.044100	0.808600	0.675600
C701	C70	0.043300	0.728500	0.618000
C711	C71	0.147000	0.734300	0.692400
C721	C72	0.019500	0.618200	0.780300
C731	C73	0.628600	0.016400	0.306400
C741	C74	0.820300	0.038000	0.311900
C751	C75	0.775000	0.147600	0.425500
C761	C76	0.699100	0.034700	0.324600
C771	C77	0.769600	0.098800	0.381600
C781	C78	0.755900	0.015500	0.297400
C791	C79	0.705800	0.076800	0.366800
C801	C80	0.827300	0.080100	0.354400
C811	C81	0.691400	0.044100	0.175600
C821	C82	0.771500	0.043300	0.118000
C831	C83	0.765700	0.147000	0.192400
C841	C84	0.881800	0.019500	0.280300
C851	C85	0.871400	0.483600	0.306400
C861	C86	0.679700	0.462000	0.311900
C871	C87	0.725000	0.352400	0.425500
C881	C88	0.800900	0.465300	0.324600
C891	C89	0.730400	0.401200	0.381600
C901	C90	0.744100	0.484500	0.297400
C911	C91	0.794200	0.423200	0.366800
C921	C92	0.672700	0.419900	0.354400
C931	C93	0.808600	0.455900	0.175600
C941	C94	0.728500	0.456700	0.118000
C951	C95	0.734300	0.353000	0.192400
C961	C96	0.618200	0.480500	0.280300
C971	C97	0.483600	0.871400	0.306400
C981	C98	0.462000	0.679700	0.311900
C991	C99	0.352400	0.725000	0.425500
C1001	C100	0.465300	0.800900	0.324600
C1011	C101	0.401200	0.730400	0.381600
C1021	C102	0.484500	0.744100	0.297400
C1031	C103	0.423200	0.794200	0.366800
C1041	C104	0.419900	0.672700	0.354400
C1051	C105	0.455900	0.808600	0.175600
C1061	C106	0.456700	0.728500	0.118000
C1071	C107	0.353000	0.734300	0.192400
C1081	C108	0.480500	0.618200	0.280300
C1091	C109	0.016400	0.628600	0.306400
C1101	C110	0.038000	0.820300	0.311900
C1111	C111	0.147600	0.775000	0.425500
C1121	C112	0.034700	0.699100	0.324600
C1131	C113	0.098800	0.769600	0.381600
C1141	C114	0.015500	0.755900	0.297400
C1151	C115	0.076800	0.705800	0.366800
C1161	C116	0.080100	0.827300	0.354400
C1171	C117	0.044100	0.691400	0.175600
C1181	C118	0.043300	0.771500	0.118000
C1191	C119	0.147000	0.765700	0.192400
C1201	C120	0.019500	0.881800	0.280300
C1211	C121	0.628600	0.483600	0.806400
C1221	C122	0.820300	0.462000	0.811900
C1231	C123	0.775000	0.352400	0.925500
C1241	C124	0.699100	0.465300	0.824600
C1251	C125	0.769600	0.401200	0.881600
C1261	C126	0.755900	0.484500	0.797400
C1271	C127	0.705800	0.423200	0.866800
C1281	C128	0.827300	0.419900	0.854400
C1291	C129	0.691400	0.455900	0.675600
C1301	C130	0.771500	0.456700	0.618000
C1311	C131	0.765700	0.353000	0.692400
C1321	C132	0.881800	0.480500	0.780300
C1331	C133	0.871400	0.016400	0.806400
C1341	C134	0.679700	0.038000	0.811900
C1351	C135	0.725000	0.147600	0.925500
C1361	C136	0.800900	0.034700	0.824600
C1371	C137	0.730400	0.098800	0.881600
C1381	C138	0.744100	0.015500	0.797400
C1391	C139	0.794200	0.076800	0.866800
C1401	C140	0.672700	0.080100	0.854400
C1411	C141	0.808600	0.044100	0.675600
C1421	C142	0.728500	0.043300	0.618000
C1431	C143	0.734300	0.147000	0.692400
C1441	C144	0.618200	0.019500	0.780300
C1451	C145	0.516400	0.371400	0.193600
C1461	C146	0.538000	0.179700	0.188100
C1471	C147	0.647600	0.225000	0.074500
C1481	C148	0.534700	0.300900	0.175400
C1491	C149	0.598800	0.230400	0.118400
C1501	C150	0.515500	0.244100	0.202600
C1511	C151	0.576800	0.294200	0.133200
C1521	C152	0.580100	0.172700	0.145600
C1531	C153	0.544100	0.308600	0.324400
C1541	C154	0.543300	0.228500	0.382000
C1551	C155	0.647000	0.234300	0.307600
C1561	C156	0.519500	0.118200	0.219700
C1571	C157	0.983600	0.128600	0.193600
C1581	C158	0.962000	0.320300	0.188100
C1591	C159	0.852400	0.275000	0.074500
C1601	C160	0.965300	0.199100	0.175400
C1611	C161	0.901200	0.269600	0.118400
C1621	C162	0.984500	0.255900	0.202600
C1631	C163	0.923200	0.205800	0.133200
C1641	C164	0.919900	0.327300	0.145600
C1651	C165	0.955900	0.191400	0.324400
C1661	C166	0.956700	0.271500	0.382000
C1671	C167	0.853000	0.265700	0.307600
C1681	C168	0.980500	0.381800	0.219700
C1691	C169	0.371400	0.983600	0.693600
C1701	C170	0.179700	0.962000	0.688100
C1711	C171	0.225000	0.852400	0.574500
C1721	C172	0.300900	0.965300	0.675400
C1731	C173	0.230400	0.901200	0.618400
C1741	C174	0.244100	0.984500	0.702600
C1751	C175	0.294200	0.923200	0.633200
C1761	C176	0.172700	0.919900	0.645600
C1771	C177	0.308600	0.955900	0.824400
C1781	C178	0.228500	0.956700	0.882000
C1791	C179	0.234300	0.853000	0.807600
C1801	C180	0.118200	0.980500	0.719700
C1811	C181	0.128600	0.516400	0.693600
C1821	C182	0.320300	0.538000	0.688100
C1831	C183	0.275000	0.647600	0.574500
C1841	C184	0.199100	0.534700	0.675400
C1851	C185	0.269600	0.598800	0.618400
C1861	C186	0.255900	0.515500	0.702600
C1871	C187	0.205800	0.576800	0.633200
C1881	C188	0.327300	0.580100	0.645600
C1891	C189	0.191400	0.544100	0.824400
C1901	C190	0.271500	0.543300	0.882000
C1911	C191	0.265700	0.647000	0.807600
C1921	C192	0.381800	0.519500	0.719700
N11	N1	0.577500	0.247500	0.838400
N21	N2	0.922500	0.252500	0.838400
N31	N3	0.252500	0.577500	0.338400
N41	N4	0.247500	0.922500	0.338400
N51	N5	0.422500	0.747500	0.661600
N61	N6	0.077500	0.752500	0.661600
N71	N7	0.747500	0.077500	0.161600
N81	N8	0.752500	0.422500	0.161600
N91	N9	0.422500	0.752500	0.161600
N101	N10	0.077500	0.747500	0.161600
N111	N11	0.747500	0.422500	0.661600
N121	N12	0.752500	0.077500	0.661600
N131	N13	0.577500	0.252500	0.338400
N141	N14	0.922500	0.247500	0.338400
N151	N15	0.252500	0.922500	0.838400
N161	N16	0.247500	0.577500	0.838400
O11	O1	0.479100	0.123300	0.732500
O21	O2	0.539700	0.437700	0.706000
O31	O3	0.663500	0.221400	0.551100
O41	O4	0.672800	0.332300	0.563900
O51	O5	0.537700	0.078700	0.669800
O61	O6	0.493100	0.163300	0.838600
O71	O7	0.486800	0.373600	0.759800
O81	O8	0.020900	0.376700	0.732500
O91	O9	0.960300	0.062300	0.706000
O101	O10	0.836500	0.278600	0.551100
O111	O11	0.827200	0.167700	0.563900
O121	O12	0.962300	0.421300	0.669800
O131	O13	0.006900	0.336700	0.838600
O141	O14	0.013200	0.126400	0.759800
O151	O15	0.376700	0.479100	0.232500
O161	O16	0.062300	0.539700	0.206000
O171	O17	0.278600	0.663500	0.051100
O181	O18	0.167700	0.672800	0.063900
O191	O19	0.421300	0.537700	0.169800
O201	O20	0.336700	0.493100	0.338600
O211	O21	0.126400	0.486800	0.259800
O221	O22	0.123300	0.020900	0.232500
O231	O23	0.437700	0.960300	0.206000
O241	O24	0.221400	0.836500	0.051100
O251	O25	0.332300	0.827200	0.063900
O261	O26	0.078700	0.962300	0.169800
O271	O27	0.163300	0.006900	0.338600
O281	O28	0.373600	0.013200	0.259800
O291	O29	0.520900	0.623300	0.767500
O301	O30	0.460300	0.937700	0.794000
O311	O31	0.336500	0.721400	0.948900
O321	O32	0.327200	0.832300	0.936100
O331	O33	0.462300	0.578700	0.830200
O341	O34	0.506900	0.663300	0.661400
O351	O35	0.513200	0.873600	0.740200
O361	O36	0.979100	0.876700	0.767500
O371	O37	0.039700	0.562300	0.794000
O381	O38	0.163500	0.778600	0.948900
O391	O39	0.172800	0.667700	0.936100
O401	O40	0.037700	0.921300	0.830200
O411	O41	0.993100	0.836700	0.661400
O421	O42	0.986800	0.626400	0.740200
O431	O43	0.623300	0.979100	0.267500
O441	O44	0.937700	0.039700	0.294000
O451	O45	0.721400	0.163500	0.448900
O461	O46	0.832300	0.172800	0.436100
O471	O47	0.578700	0.037700	0.330200
O481	O48	0.663300	0.993100	0.161400
O491	O49	0.873600	0.986800	0.240200
O501	O50	0.876700	0.520900	0.267500
O511	O51	0.562300	0.460300	0.294000
O521	O52	0.778600	0.336500	0.448900
O531	O53	0.667700	0.327200	0.436100
O541	O54	0.921300	0.462300	0.330200
O551	O55	0.836700	0.506900	0.161400
O561	O56	0.626400	0.513200	0.240200
O571	O57	0.520900	0.876700	0.267500
O581	O58	0.460300	0.562300	0.294000
O591	O59	0.336500	0.778600	0.448900
O601	O60	0.327200	0.667700	0.436100
O611	O61	0.462300	0.921300	0.330200
O621	O62	0.506900	0.836700	0.161400
O631	O63	0.513200	0.626400	0.240200
O641	O64	0.979100	0.623300	0.267500
O651	O65	0.039700	0.937700	0.294000
O661	O66	0.163500	0.721400	0.448900
O671	O67	0.172800	0.832300	0.436100
O681	O68	0.037700	0.578700	0.330200
O691	O69	0.993100	0.663300	0.161400
O701	O70	0.986800	0.873600	0.240200
O711	O71	0.623300	0.520900	0.767500
O721	O72	0.937700	0.460300	0.794000
O731	O73	0.721400	0.336500	0.948900
O741	O74	0.832300	0.327200	0.936100
O751	O75	0.578700	0.462300	0.830200
O761	O76	0.663300	0.506900	0.661400
O771	O77	0.873600	0.513200	0.740200
O781	O78	0.876700	0.979100	0.767500
O791	O79	0.562300	0.039700	0.794000
O801	O80	0.778600	0.163500	0.948900
O811	O81	0.667700	0.172800	0.936100
O821	O82	0.921300	0.037700	0.830200
O831	O83	0.836700	0.993100	0.661400
O841	O84	0.626400	0.986800	0.740200
O851	O85	0.479100	0.376700	0.232500
O861	O86	0.539700	0.062300	0.206000
O871	O87	0.663500	0.278600	0.051100
O881	O88	0.672800	0.167700	0.063900
O891	O89	0.537700	0.421300	0.169800
O901	O90	0.493100	0.336700	0.338600
O911	O91	0.486800	0.126400	0.259800
O921	O92	0.020900	0.123300	0.232500
O931	O93	0.960300	0.437700	0.206000
O941	O94	0.836500	0.221400	0.051100
O951	O95	0.827200	0.332300	0.063900
O961	O96	0.962300	0.078700	0.169800
O971	O97	0.006900	0.163300	0.338600
O981	O98	0.013200	0.373600	0.259800
O991	O99	0.376700	0.020900	0.732500
O1001	O100	0.062300	0.960300	0.706000
O1011	O101	0.278600	0.836500	0.551100
O1021	O102	0.167700	0.827200	0.563900
O1031	O103	0.421300	0.962300	0.669800
O1041	O104	0.336700	0.006900	0.838600
O1051	O105	0.126400	0.013200	0.759800
O1061	O106	0.123300	0.479100	0.732500
O1071	O107	0.437700	0.539700	0.706000
O1081	O108	0.221400	0.663500	0.551100
O1091	O109	0.332300	0.672800	0.563900
O1101	O110	0.078700	0.537700	0.669800
O1111	O111	0.163300	0.493100	0.838600
O1121	O112	0.373600	0.486800	0.759800
O1131	O113	0.353500	0.146500	0.799000
O1141	O114	0.579200	0.920800	0.627200
O1151	O115	0.461100	0.038900	0.891600
O1161	O116	0.146500	0.353500	0.799000
O1171	O117	0.920800	0.579200	0.627200
O1181	O118	0.038900	0.461100	0.891600
O1191	O119	0.353500	0.353500	0.299000
O1201	O120	0.579200	0.579200	0.127200
O1211	O121	0.461100	0.461100	0.391600
O1221	O122	0.146500	0.146500	0.299000
O1231	O123	0.920800	0.920800	0.127200
O1241	O124	0.038900	0.038900	0.391600
O1251	O125	0.646500	0.646500	0.701000
O1261	O126	0.420800	0.420800	0.872800
O1271	O127	0.538900	0.538900	0.608400
O1281	O128	0.853500	0.853500	0.701000
O1291	O129	0.079200	0.079200	0.872800
O1301	O130	0.961100	0.961100	0.608400
O1311	O131	0.646500	0.853500	0.201000
O1321	O132	0.420800	0.079200	0.372800
O1331	O133	0.538900	0.961100	0.108400
O1341	O134	0.853500	0.646500	0.201000
O1351	O135	0.079200	0.420800	0.372800
O1361	O136	0.961100	0.538900	0.108400
