data_TEBCEK_freeONLY_PM
_symmetry_space_group_name_H-M	'P1'
_cell_length_a	9.141000
_cell_length_b	9.667000
_cell_length_c	13.855000
_cell_angle_alpha	100.830000
_cell_angle_beta	90.810000
_cell_angle_gamma	100.940000
_symmetry_Int_Tables_number 1

loop_
_symmetry_equiv_pos_as_xyz
'x,y,z'

loop_
_atom_site_label
_atom_site_type_symbol
_atom_site_fract_x
_atom_site_fract_y
_atom_site_fract_z
Co11	Co1	0.849450	0.039440	0.267530
Co21	Co2	0.150550	0.960560	0.732470
Co31	Co3	0.000000	0.000000	0.500000
H11	H1	0.459600	0.202700	0.197000
H21	H2	0.589400	0.316200	0.168000
H31	H3	0.163100	0.066100	0.151600
H41	H4	0.200100	0.899400	0.001500
H51	H5	0.799100	0.769500	0.096300
H61	H6	0.736200	0.656900	0.931000
H71	H7	0.682700	0.443600	0.815900
H81	H8	0.118300	0.428600	0.813300
H91	H9	0.171200	0.639600	0.930500
H101	H10	0.651600	0.178800	0.766100
H111	H11	0.683300	0.986400	0.631100
H121	H12	0.041600	0.286300	0.653300
H131	H13	0.674700	0.780600	0.486000
H141	H14	0.537600	0.842400	0.457700
H151	H15	0.687100	0.548800	0.331400
H161	H16	0.311600	0.259300	0.318400
H171	H17	0.326600	0.665000	0.451000
H181	H18	0.126100	0.463700	0.483800
H191	H19	0.074800	0.470500	0.376800
H201	H20	0.540400	0.797300	0.803000
H211	H21	0.410600	0.683800	0.832000
H221	H22	0.836900	0.933900	0.848400
H231	H23	0.799900	0.100600	0.998500
H241	H24	0.200900	0.230500	0.903700
H251	H25	0.263800	0.343100	0.069000
H261	H26	0.317300	0.556400	0.184100
H271	H27	0.881700	0.571400	0.186700
H281	H28	0.828800	0.360400	0.069500
H291	H29	0.348400	0.821200	0.233900
H301	H30	0.316700	0.013600	0.368900
H311	H31	0.958400	0.713700	0.346700
H321	H32	0.325300	0.219400	0.514000
H331	H33	0.462400	0.157600	0.542300
H341	H34	0.312900	0.451200	0.668600
H351	H35	0.688400	0.740700	0.681600
H361	H36	0.673400	0.335000	0.549000
H371	H37	0.873900	0.536300	0.516200
H381	H38	0.925200	0.529500	0.623200
C11	C1	0.547800	0.272900	0.221000
C21	C2	0.094400	0.985000	0.121600
C31	C3	0.115800	0.893500	0.038600
C41	C4	0.894000	0.822700	0.091900
C51	C5	0.957300	0.665500	0.943000
C61	C6	0.812400	0.609700	0.908300
C71	C7	0.780600	0.482600	0.839200
C81	C8	0.894700	0.414400	0.805100
C91	C9	0.041600	0.473500	0.838000
C101	C10	0.073300	0.599600	0.907700
C111	C11	0.733800	0.177100	0.727400
C121	C12	0.752100	0.071300	0.652600
C131	C13	0.948600	0.234900	0.664300
C141	C14	0.697400	0.853900	0.358600
C151	C15	0.607500	0.782500	0.431700
C161	C16	0.520900	0.632600	0.395900
C171	C17	0.587200	0.526400	0.345700
C181	C18	0.510400	0.388600	0.316100
C191	C19	0.363700	0.353300	0.338000
C201	C20	0.293600	0.455900	0.388600
C211	C21	0.373700	0.594900	0.416800
C221	C22	0.132700	0.423200	0.414800
C231	C23	0.064000	0.265300	0.396800
C241	C24	0.660300	0.202000	0.262900
C251	C25	0.452200	0.727100	0.779000
C261	C26	0.905600	0.015000	0.878400
C271	C27	0.884200	0.106500	0.961400
C281	C28	0.106000	0.177300	0.908100
C291	C29	0.042700	0.334500	0.057000
C301	C30	0.187600	0.390300	0.091700
C311	C31	0.219400	0.517400	0.160800
C321	C32	0.105300	0.585600	0.194900
C331	C33	0.958400	0.526500	0.162000
C341	C34	0.926700	0.400400	0.092300
C351	C35	0.266200	0.822900	0.272600
C361	C36	0.247900	0.928700	0.347400
C371	C37	0.051400	0.765100	0.335700
C381	C38	0.302600	0.146100	0.641400
C391	C39	0.392500	0.217500	0.568300
C401	C40	0.479100	0.367400	0.604100
C411	C41	0.412800	0.473600	0.654300
C421	C42	0.489600	0.611400	0.683900
C431	C43	0.636300	0.646700	0.662000
C441	C44	0.706400	0.544100	0.611400
C451	C45	0.626300	0.405100	0.583200
C461	C46	0.867300	0.576800	0.585200
C471	C47	0.936000	0.734700	0.603200
C481	C48	0.339700	0.798000	0.737100
N11	N1	0.955100	0.939800	0.154800
N21	N2	0.987400	0.789800	0.020100
N31	N3	0.860200	0.281600	0.735300
N41	N4	0.887900	0.108100	0.612700
N51	N5	0.044900	0.060200	0.845200
N61	N6	0.012600	0.210200	0.979900
N71	N7	0.139800	0.718400	0.264700
N81	N8	0.112100	0.891900	0.387300
O11	O1	0.806000	0.959900	0.392000
O21	O2	0.669200	0.819000	0.269200
O31	O3	0.074600	0.199400	0.465000
O41	O4	0.002400	0.211500	0.313900
O51	O5	0.689000	0.092000	0.181900
O61	O6	0.700300	0.225300	0.345300
O71	O7	0.194000	0.040100	0.608000
O81	O8	0.330800	0.181000	0.730800
O91	O9	0.925400	0.800600	0.535000
O101	O10	0.997600	0.788500	0.686100
O111	O11	0.311000	0.908000	0.818100
O121	O12	0.299700	0.774700	0.654700
