data_TEBSAW_freeONLY_PM
_symmetry_space_group_name_H-M	'P1'
_cell_length_a	10.786800
_cell_length_b	13.980600
_cell_length_c	17.906600
_cell_angle_alpha	111.605000
_cell_angle_beta	90.000000
_cell_angle_gamma	90.000000
_symmetry_Int_Tables_number 1

loop_
_symmetry_equiv_pos_as_xyz
'x,y,z'

loop_
_atom_site_label
_atom_site_type_symbol
_atom_site_fract_x
_atom_site_fract_y
_atom_site_fract_z
Zn11	Zn1	0.721890	0.269420	0.176310
Zn21	Zn2	0.766950	0.759250	0.330530
Zn31	Zn3	0.221890	0.230580	0.323690
Zn41	Zn4	0.266950	0.740750	0.169470
Zn51	Zn5	0.278110	0.730580	0.823690
Zn61	Zn6	0.233050	0.240750	0.669470
Zn71	Zn7	0.778110	0.769420	0.676310
Zn81	Zn8	0.733050	0.259250	0.830530
H11	H1	0.964200	0.559700	0.270400
H21	H2	0.944000	0.453100	0.196700
H31	H3	0.952500	0.454800	0.286400
H41	H4	0.492400	0.367200	0.385700
H51	H5	0.625400	0.322200	0.350400
H61	H6	0.531100	0.253600	0.378400
H71	H7	0.945500	0.735600	0.132000
H81	H8	0.873300	0.651200	0.156200
H91	H9	0.008300	0.626300	0.116700
H101	H10	0.671500	0.084400	0.943900
H111	H11	0.569800	0.157000	0.926600
H121	H12	0.576400	0.147800	0.013000
H131	H13	0.464200	0.940300	0.229600
H141	H14	0.444000	0.046900	0.303300
H151	H15	0.452500	0.045200	0.213600
H161	H16	0.992400	0.132800	0.114300
H171	H17	0.125400	0.177800	0.149600
H181	H18	0.031100	0.246400	0.121600
H191	H19	0.445500	0.764400	0.368000
H201	H20	0.373300	0.848800	0.343800
H211	H21	0.508300	0.873700	0.383300
H221	H22	0.171500	0.415600	0.556100
H231	H23	0.069800	0.343000	0.573400
H241	H24	0.076400	0.352200	0.487000
H251	H25	0.035800	0.440300	0.729600
H261	H26	0.056000	0.546900	0.803300
H271	H27	0.047500	0.545200	0.713600
H281	H28	0.507600	0.632800	0.614300
H291	H29	0.374600	0.677800	0.649600
H301	H30	0.468900	0.746400	0.621600
H311	H31	0.054500	0.264400	0.868000
H321	H32	0.126700	0.348800	0.843800
H331	H33	0.991700	0.373700	0.883300
H341	H34	0.328500	0.915600	0.056100
H351	H35	0.430200	0.843000	0.073400
H361	H36	0.423600	0.852200	0.987000
H371	H37	0.535800	0.059700	0.770400
H381	H38	0.556000	0.953100	0.696700
H391	H39	0.547500	0.954800	0.786400
H401	H40	0.007600	0.867200	0.885700
H411	H41	0.874600	0.822200	0.850400
H421	H42	0.968900	0.753600	0.878400
H431	H43	0.554500	0.235600	0.632000
H441	H44	0.626700	0.151200	0.656200
H451	H45	0.491700	0.126300	0.616700
H461	H46	0.828500	0.584400	0.443900
H471	H47	0.930200	0.657000	0.426600
H481	H48	0.923600	0.647800	0.513000
C11	C1	0.786560	0.506730	0.261770
C21	C2	0.923580	0.492360	0.253080
C31	C3	0.484590	0.262720	0.271040
C41	C4	0.537910	0.305050	0.353420
C51	C5	0.011630	0.722010	0.233810
C61	C6	0.954880	0.680230	0.152800
C71	C7	0.713810	0.236790	0.994890
C81	C8	0.625330	0.148980	0.967240
C91	C9	0.286560	0.993270	0.238230
C101	C10	0.423580	0.007640	0.246920
C111	C11	0.984590	0.237280	0.228960
C121	C12	0.037910	0.194950	0.146580
C131	C13	0.511630	0.777990	0.266190
C141	C14	0.454880	0.819770	0.347200
C151	C15	0.213810	0.263210	0.505110
C161	C16	0.125330	0.351020	0.532760
C171	C17	0.213440	0.493270	0.738230
C181	C18	0.076420	0.507640	0.746920
C191	C19	0.515410	0.737280	0.728960
C201	C20	0.462090	0.694950	0.646580
C211	C21	0.988370	0.277990	0.766190
C221	C22	0.045120	0.319770	0.847200
C231	C23	0.286190	0.763210	0.005110
C241	C24	0.374670	0.851020	0.032760
C251	C25	0.713440	0.006730	0.761770
C261	C26	0.576420	0.992360	0.753080
C271	C27	0.015410	0.762720	0.771040
C281	C28	0.962090	0.805050	0.853420
C291	C29	0.488370	0.222010	0.733810
C301	C30	0.545120	0.180230	0.652800
C311	C31	0.786190	0.736790	0.494890
C321	C32	0.874670	0.648980	0.467240
N11	N1	0.728710	0.597150	0.293650
N21	N2	0.605920	0.574680	0.293860
N31	N3	0.591250	0.475380	0.262930
N41	N4	0.703790	0.429850	0.241660
N51	N5	0.547990	0.239040	0.202410
N61	N6	0.463880	0.202120	0.141890
N71	N7	0.354740	0.202830	0.172870
N81	N8	0.365360	0.240680	0.254240
N91	N9	0.949810	0.751100	0.303020
N101	N10	0.036200	0.784490	0.362180
N111	N11	0.145530	0.775470	0.329350
N121	N12	0.132650	0.736030	0.248280
N131	N13	0.755960	0.282680	0.069710
N141	N14	0.834240	0.358500	0.068420
N151	N15	0.838570	0.358630	0.996130
N161	N16	0.762970	0.282700	0.948170
N171	N17	0.228710	0.902850	0.206350
N181	N18	0.105920	0.925320	0.206140
N191	N19	0.091250	0.024620	0.237070
N201	N20	0.203790	0.070150	0.258340
N211	N21	0.047990	0.260960	0.297590
N221	N22	0.963880	0.297880	0.358110
N231	N23	0.854740	0.297170	0.327130
N241	N24	0.865360	0.259320	0.245760
N251	N25	0.449810	0.748900	0.196980
N261	N26	0.536200	0.715510	0.137820
N271	N27	0.645530	0.724530	0.170650
N281	N28	0.632650	0.763970	0.251720
N291	N29	0.255960	0.217320	0.430290
N301	N30	0.334240	0.141500	0.431580
N311	N31	0.338570	0.141370	0.503870
N321	N32	0.262970	0.217300	0.551830
N331	N33	0.271290	0.402850	0.706350
N341	N34	0.394080	0.425320	0.706140
N351	N35	0.408750	0.524620	0.737070
N361	N36	0.296210	0.570150	0.758340
N371	N37	0.452010	0.760960	0.797590
N381	N38	0.536120	0.797880	0.858110
N391	N39	0.645260	0.797170	0.827130
N401	N40	0.634640	0.759320	0.745760
N411	N41	0.050190	0.248900	0.696980
N421	N42	0.963800	0.215510	0.637820
N431	N43	0.854470	0.224530	0.670650
N441	N44	0.867350	0.263970	0.751720
N451	N45	0.244040	0.717320	0.930290
N461	N46	0.165760	0.641500	0.931580
N471	N47	0.161430	0.641370	0.003870
N481	N48	0.237030	0.717300	0.051830
N491	N49	0.771290	0.097150	0.793650
N501	N50	0.894080	0.074680	0.793860
N511	N51	0.908750	0.975380	0.762930
N521	N52	0.796210	0.929850	0.741660
N531	N53	0.952010	0.739040	0.702410
N541	N54	0.036120	0.702120	0.641890
N551	N55	0.145260	0.702830	0.672870
N561	N56	0.134640	0.740680	0.754240
N571	N57	0.550190	0.251100	0.803020
N581	N58	0.463800	0.284490	0.862180
N591	N59	0.354470	0.275470	0.829350
N601	N60	0.367350	0.236030	0.748280
N611	N61	0.744040	0.782680	0.569710
N621	N62	0.665760	0.858500	0.568420
N631	N63	0.661430	0.858630	0.496130
N641	N64	0.737030	0.782700	0.448170
