data_TEDSIG_freeONLY_PM
_symmetry_space_group_name_H-M	'P1'
_cell_length_a	10.184100
_cell_length_b	12.038600
_cell_length_c	18.830000
_cell_angle_alpha	90.000000
_cell_angle_beta	99.159000
_cell_angle_gamma	90.000000
_symmetry_Int_Tables_number 1

loop_
_symmetry_equiv_pos_as_xyz
'x,y,z'

loop_
_atom_site_label
_atom_site_type_symbol
_atom_site_fract_x
_atom_site_fract_y
_atom_site_fract_z
Zn11	Zn1	0.879390	0.899210	0.673540
Zn21	Zn2	0.620610	0.399210	0.826460
Zn31	Zn3	0.120610	0.100790	0.326460
Zn41	Zn4	0.379390	0.600790	0.173540
H11	H1	0.291200	0.196600	0.738500
H21	H2	0.067500	0.115500	0.550500
H31	H3	0.378200	0.321800	0.554600
H41	H4	0.638000	0.981000	0.916000
H51	H5	0.526500	0.890100	0.903100
H61	H6	0.595900	0.775200	0.667200
H71	H7	0.487900	0.101900	0.962400
H81	H8	0.379500	0.008400	0.951500
H91	H9	0.398500	0.008900	0.819400
H101	H10	0.514800	0.095800	0.830600
H111	H11	0.435200	0.825500	0.744900
H121	H12	0.840800	0.079100	0.767000
H131	H13	0.753000	0.099700	0.826900
H141	H14	0.712500	0.152500	0.750500
H151	H15	0.208800	0.696600	0.761500
H161	H16	0.432500	0.615500	0.949500
H171	H17	0.121800	0.821800	0.945400
H181	H18	0.862000	0.481000	0.584000
H191	H19	0.973500	0.390100	0.596900
H201	H20	0.904100	0.275200	0.832800
H211	H21	0.012100	0.601900	0.537600
H221	H22	0.120500	0.508400	0.548500
H231	H23	0.101500	0.508900	0.680600
H241	H24	0.985200	0.595800	0.669400
H251	H25	0.064800	0.325500	0.755100
H261	H26	0.659200	0.579100	0.733000
H271	H27	0.747000	0.599700	0.673100
H281	H28	0.787500	0.652500	0.749500
H291	H29	0.708800	0.803400	0.261500
H301	H30	0.932500	0.884500	0.449500
H311	H31	0.621800	0.678200	0.445400
H321	H32	0.362000	0.019000	0.084000
H331	H33	0.473500	0.109900	0.096900
H341	H34	0.404100	0.224800	0.332800
H351	H35	0.512100	0.898100	0.037600
H361	H36	0.620500	0.991600	0.048500
H371	H37	0.601500	0.991100	0.180600
H381	H38	0.485200	0.904200	0.169400
H391	H39	0.564800	0.174500	0.255100
H401	H40	0.159200	0.920900	0.233000
H411	H41	0.247000	0.900300	0.173100
H421	H42	0.287500	0.847500	0.249500
H431	H43	0.791200	0.303400	0.238500
H441	H44	0.567500	0.384500	0.050500
H451	H45	0.878200	0.178200	0.054600
H461	H46	0.138000	0.519000	0.416000
H471	H47	0.026500	0.609900	0.403100
H481	H48	0.095900	0.724800	0.167200
H491	H49	0.987900	0.398100	0.462400
H501	H50	0.879500	0.491600	0.451500
H511	H51	0.898500	0.491100	0.319400
H521	H52	0.014800	0.404200	0.330600
H531	H53	0.935200	0.674500	0.244900
H541	H54	0.340800	0.420900	0.267000
H551	H55	0.253000	0.400300	0.326900
H561	H56	0.212500	0.347500	0.250500
C11	C1	0.074800	0.080100	0.692000
C21	C2	0.477100	0.323600	0.694200
C31	C3	0.272600	0.203300	0.688730
C41	C4	0.138600	0.154300	0.576180
C51	C5	0.220400	0.218000	0.539750
C61	C6	0.162700	0.148400	0.651130
C71	C7	0.355100	0.267900	0.653290
C81	C8	0.672600	0.989400	0.752610
C91	C9	0.326100	0.276400	0.578810
C101	C10	0.542700	0.969500	0.904130
C111	C11	0.704400	0.280900	0.958270
C121	C12	0.601200	0.836900	0.697160
C131	C13	0.474400	0.022100	0.962640
C141	C14	0.494400	0.017100	0.830490
C151	C15	0.512000	0.864500	0.739820
C161	C16	0.751600	0.088800	0.776300
C171	C17	0.425200	0.580100	0.808000
C181	C18	0.022900	0.823600	0.805800
C191	C19	0.227400	0.703300	0.811270
C201	C20	0.361400	0.654300	0.923820
C211	C21	0.279600	0.718000	0.960250
C221	C22	0.337300	0.648400	0.848870
C231	C23	0.144900	0.767900	0.846710
C241	C24	0.827400	0.489400	0.747390
C251	C25	0.173900	0.776400	0.921190
C261	C26	0.957300	0.469500	0.595870
C271	C27	0.795600	0.780900	0.541730
C281	C28	0.898800	0.336900	0.802840
C291	C29	0.025600	0.522100	0.537360
C301	C30	0.005600	0.517100	0.669510
C311	C31	0.988000	0.364500	0.760180
C321	C32	0.748400	0.588800	0.723700
C331	C33	0.925200	0.919900	0.308000
C341	C34	0.522900	0.676400	0.305800
C351	C35	0.727400	0.796700	0.311270
C361	C36	0.861400	0.845700	0.423820
C371	C37	0.779600	0.782000	0.460250
C381	C38	0.837300	0.851600	0.348870
C391	C39	0.644900	0.732100	0.346710
C401	C40	0.327400	0.010600	0.247390
C411	C41	0.673900	0.723600	0.421190
C421	C42	0.457300	0.030500	0.095870
C431	C43	0.295600	0.719100	0.041730
C441	C44	0.398800	0.163100	0.302840
C451	C45	0.525600	0.977900	0.037360
C461	C46	0.505600	0.982900	0.169510
C471	C47	0.488000	0.135500	0.260180
C481	C48	0.248400	0.911200	0.223700
C491	C49	0.574800	0.419900	0.192000
C501	C50	0.977100	0.176400	0.194200
C511	C51	0.772600	0.296700	0.188730
C521	C52	0.638600	0.345700	0.076180
C531	C53	0.720400	0.282000	0.039750
C541	C54	0.662700	0.351600	0.151130
C551	C55	0.855100	0.232100	0.153290
C561	C56	0.172600	0.510600	0.252610
C571	C57	0.826100	0.223600	0.078810
C581	C58	0.042700	0.530500	0.404130
C591	C59	0.204400	0.219100	0.458270
C601	C60	0.101200	0.663100	0.197160
C611	C61	0.974400	0.477900	0.462640
C621	C62	0.994400	0.482900	0.330490
C631	C63	0.012000	0.635500	0.239820
C641	C64	0.251600	0.411200	0.276300
N11	N1	0.701400	0.914770	0.705020
N21	N2	0.556300	0.961440	0.774400
N31	N3	0.798600	0.414770	0.794980
N41	N4	0.943700	0.461440	0.725600
N51	N5	0.298600	0.085230	0.294980
N61	N6	0.443700	0.038560	0.225600
N71	N7	0.201400	0.585230	0.205020
N81	N8	0.056300	0.538560	0.274400
O11	O1	0.972450	0.037710	0.654490
O21	O2	0.494040	0.308150	0.763090
O31	O3	0.625150	0.353530	0.926830
O41	O4	0.107100	0.068950	0.757950
O51	O5	0.769300	0.215700	0.928380
O61	O6	0.051250	0.122930	0.161500
O71	O7	0.527550	0.537710	0.845510
O81	O8	0.005960	0.808150	0.736910
O91	O9	0.874850	0.853530	0.573170
O101	O10	0.392900	0.568950	0.742050
O111	O11	0.730700	0.715700	0.571620
O121	O12	0.448750	0.622930	0.338500
O131	O13	0.027550	0.962290	0.345510
O141	O14	0.505960	0.691850	0.236910
O151	O15	0.374850	0.646470	0.073170
O161	O16	0.892900	0.931050	0.242050
O171	O17	0.230700	0.784300	0.071620
O181	O18	0.948750	0.877070	0.838500
O191	O19	0.472450	0.462290	0.154490
O201	O20	0.994040	0.191850	0.263090
O211	O21	0.125150	0.146470	0.426830
O221	O22	0.607100	0.431050	0.257950
O231	O23	0.269300	0.284300	0.428380
O241	O24	0.551250	0.377070	0.661500
