data_TEJGIA_freeONLY_PM
_symmetry_space_group_name_H-M	'P1'
_cell_length_a	10.281500
_cell_length_b	11.292800
_cell_length_c	22.248000
_cell_angle_alpha	90.000000
_cell_angle_beta	97.462000
_cell_angle_gamma	90.000000
_symmetry_Int_Tables_number 1

loop_
_symmetry_equiv_pos_as_xyz
'x,y,z'

loop_
_atom_site_label
_atom_site_type_symbol
_atom_site_fract_x
_atom_site_fract_y
_atom_site_fract_z
Sm11	Sm1	0.609820	0.313690	0.225820
Sm21	Sm2	0.739580	0.411730	0.935710
Sm31	Sm3	0.890180	0.813690	0.274180
Sm41	Sm4	0.760420	0.911730	0.564290
Sm51	Sm5	0.390180	0.686310	0.774180
Sm61	Sm6	0.260420	0.588270	0.064290
Sm71	Sm7	0.109820	0.186310	0.725820
Sm81	Sm8	0.239580	0.088270	0.435710
H11	H1	0.157200	0.032700	0.163900
H21	H2	0.118200	0.380900	0.163600
H31	H3	0.247000	0.108000	0.074800
H41	H4	0.399500	0.123900	0.088100
H51	H5	0.307200	0.234700	0.086400
H61	H6	0.118900	0.357600	0.272900
H71	H7	0.009500	0.269600	0.287700
H81	H8	0.989800	0.406400	0.294300
H91	H9	0.342800	0.532700	0.336100
H101	H10	0.381800	0.880900	0.336400
H111	H11	0.253000	0.608000	0.425200
H121	H12	0.100500	0.623900	0.411900
H131	H13	0.192800	0.734700	0.413600
H141	H14	0.381100	0.857600	0.227100
H151	H15	0.490500	0.769600	0.212300
H161	H16	0.510200	0.906400	0.205700
H171	H17	0.842800	0.967300	0.836100
H181	H18	0.881800	0.619100	0.836400
H191	H19	0.753000	0.892000	0.925200
H201	H20	0.600500	0.876100	0.911900
H211	H21	0.692800	0.765300	0.913600
H221	H22	0.881100	0.642400	0.727100
H231	H23	0.990500	0.730400	0.712300
H241	H24	0.010200	0.593600	0.705700
H251	H25	0.657200	0.467300	0.663900
H261	H26	0.618200	0.119100	0.663600
H271	H27	0.747000	0.392000	0.574800
H281	H28	0.899500	0.376100	0.588100
H291	H29	0.807200	0.265300	0.586400
H301	H30	0.618900	0.142400	0.772900
H311	H31	0.509500	0.230400	0.787700
H321	H32	0.489800	0.093600	0.794300
C11	C1	0.309500	0.138800	0.163700
C21	C2	0.239900	0.074800	0.248700
C31	C3	0.346500	0.148700	0.261900
C41	C4	0.316400	0.152600	0.097300
C51	C5	0.158400	0.997300	0.283100
C61	C6	0.419000	0.188900	0.320400
C71	C7	0.964000	0.352000	0.207200
C81	C8	0.949700	0.370700	0.106700
C91	C9	0.827300	0.351900	0.123900
C101	C10	0.026000	0.345800	0.271200
C111	C11	0.007100	0.385500	0.049200
C121	C12	0.694300	0.348700	0.088200
C131	C13	0.735000	0.045900	0.214500
C141	C14	0.795900	0.091700	0.278200
C151	C15	0.190500	0.638800	0.336300
C161	C16	0.260100	0.574800	0.251300
C171	C17	0.153500	0.648700	0.238100
C181	C18	0.183600	0.652600	0.402700
C191	C19	0.341600	0.497300	0.216900
C201	C20	0.081000	0.688900	0.179600
C211	C21	0.536000	0.852000	0.292800
C221	C22	0.550300	0.870700	0.393300
C231	C23	0.672700	0.851900	0.376100
C241	C24	0.474000	0.845800	0.228800
C251	C25	0.492900	0.885500	0.450800
C261	C26	0.805700	0.848700	0.411800
C271	C27	0.765000	0.545900	0.285500
C281	C28	0.704100	0.591700	0.221800
C291	C29	0.690500	0.861200	0.836300
C301	C30	0.760100	0.925200	0.751300
C311	C31	0.653500	0.851300	0.738100
C321	C32	0.683600	0.847400	0.902700
C331	C33	0.841600	0.002700	0.716900
C341	C34	0.581000	0.811100	0.679600
C351	C35	0.036000	0.648000	0.792800
C361	C36	0.050300	0.629300	0.893300
C371	C37	0.172700	0.648100	0.876100
C381	C38	0.974000	0.654200	0.728800
C391	C39	0.992900	0.614500	0.950800
C401	C40	0.305700	0.651300	0.911800
C411	C41	0.265000	0.954100	0.785500
C421	C42	0.204100	0.908300	0.721800
C431	C43	0.809500	0.361200	0.663700
C441	C44	0.739900	0.425200	0.748700
C451	C45	0.846500	0.351300	0.761900
C461	C46	0.816400	0.347400	0.597300
C471	C47	0.658400	0.502700	0.783100
C481	C48	0.919000	0.311100	0.820400
C491	C49	0.464000	0.148000	0.707200
C501	C50	0.449700	0.129300	0.606700
C511	C51	0.327300	0.148100	0.623900
C521	C52	0.526000	0.154200	0.771200
C531	C53	0.507100	0.114500	0.549200
C541	C54	0.194300	0.151300	0.588200
C551	C55	0.235000	0.454100	0.714500
C561	C56	0.295900	0.408300	0.778200
N11	N1	0.218550	0.071500	0.185450
N21	N2	0.390480	0.187600	0.208880
N31	N3	0.034690	0.370700	0.160390
N41	N4	0.836610	0.340400	0.186510
N51	N5	0.281450	0.571500	0.314550
N61	N6	0.109520	0.687600	0.291120
N71	N7	0.465310	0.870700	0.339610
N81	N8	0.663390	0.840400	0.313490
N91	N9	0.781450	0.928500	0.814550
N101	N10	0.609520	0.812400	0.791120
N111	N11	0.965310	0.629300	0.839610
N121	N12	0.163390	0.659600	0.813490
N131	N13	0.718550	0.428500	0.685450
N141	N14	0.890480	0.312400	0.708880
N151	N15	0.534690	0.129300	0.660390
N161	N16	0.336610	0.159600	0.686510
O11	O1	0.070340	0.940700	0.250640
O21	O2	0.184590	0.988800	0.339390
O31	O3	0.374530	0.167100	0.368930
O41	O4	0.523460	0.243900	0.318060
O51	O5	0.125360	0.415600	0.054760
O61	O6	0.939600	0.362700	0.999300
O71	O7	0.680060	0.373200	0.032560
O81	O8	0.598180	0.323400	0.116080
O91	O9	0.769540	0.944800	0.199040
O101	O10	0.656200	0.113400	0.184100
O111	O11	0.867360	0.021400	0.310860
O121	O12	0.768930	0.196200	0.291630
O131	O13	0.726000	0.191700	0.942900
O141	O14	0.513600	0.354100	0.902000
O151	O15	0.606290	0.579400	0.966090
O161	O16	0.429660	0.440700	0.249360
O171	O17	0.315410	0.488800	0.160610
O181	O18	0.125470	0.667100	0.131070
O191	O19	0.976540	0.743900	0.181940
O201	O20	0.374640	0.915600	0.445240
O211	O21	0.560400	0.862700	0.500700
O221	O22	0.819940	0.873200	0.467440
O231	O23	0.901820	0.823400	0.383920
O241	O24	0.730460	0.444800	0.300960
O251	O25	0.843800	0.613400	0.315900
O261	O26	0.632640	0.521400	0.189140
O271	O27	0.731070	0.696200	0.208370
O281	O28	0.774000	0.691700	0.557100
O291	O29	0.986400	0.854100	0.598000
O301	O30	0.893710	0.079400	0.533910
O311	O31	0.929660	0.059300	0.749360
O321	O32	0.815410	0.011200	0.660610
O331	O33	0.625470	0.832900	0.631070
O341	O34	0.476540	0.756100	0.681940
O351	O35	0.874640	0.584400	0.945240
O361	O36	0.060400	0.637300	0.000700
O371	O37	0.319940	0.626800	0.967440
O381	O38	0.401820	0.676600	0.883920
O391	O39	0.230460	0.055200	0.800960
O401	O40	0.343800	0.886600	0.815900
O411	O41	0.132640	0.978600	0.689140
O421	O42	0.231070	0.803800	0.708370
O431	O43	0.274000	0.808300	0.057100
O441	O44	0.486400	0.645900	0.098000
O451	O45	0.393710	0.420600	0.033910
O461	O46	0.570340	0.559300	0.750640
O471	O47	0.684590	0.511200	0.839390
O481	O48	0.874530	0.332900	0.868930
O491	O49	0.023460	0.256100	0.818060
O501	O50	0.625360	0.084400	0.554760
O511	O51	0.439600	0.137300	0.499300
O521	O52	0.180060	0.126800	0.532560
O531	O53	0.098180	0.176600	0.616080
O541	O54	0.269540	0.555200	0.699040
O551	O55	0.156200	0.386600	0.684100
O561	O56	0.367360	0.478600	0.810860
O571	O57	0.268930	0.303800	0.791630
O581	O58	0.226000	0.308300	0.442900
O591	O59	0.013600	0.145900	0.402000
O601	O60	0.106290	0.920600	0.466090
