data_TEMPEI_freeONLY_PM
_symmetry_space_group_name_H-M	'P1'
_cell_length_a	21.728900
_cell_length_b	21.728900
_cell_length_c	30.002100
_cell_angle_alpha	98.069800
_cell_angle_beta	98.069800
_cell_angle_gamma	117.440000
_symmetry_Int_Tables_number 1

loop_
_symmetry_equiv_pos_as_xyz
'x,y,z'

loop_
_atom_site_label
_atom_site_type_symbol
_atom_site_fract_x
_atom_site_fract_y
_atom_site_fract_z
Cu11	Cu1	0.697270	0.752190	0.732590
Cu21	Cu2	0.826410	0.770710	0.742460
Cu31	Cu3	0.467720	0.974440	0.532300
Cu41	Cu4	0.247810	0.302730	0.767410
Cu51	Cu5	0.229290	0.173590	0.757540
Cu61	Cu6	0.025560	0.532280	0.967700
Cu71	Cu7	0.302730	0.247810	0.267410
Cu81	Cu8	0.173590	0.229290	0.257540
Cu91	Cu9	0.532280	0.025560	0.467700
Cu101	Cu10	0.752190	0.697270	0.232590
Cu111	Cu11	0.770710	0.826410	0.242460
Cu121	Cu12	0.974440	0.467720	0.032300
H11	H1	0.770300	0.546900	0.714300
H21	H2	0.583500	0.533500	0.657800
H31	H3	0.786900	0.447300	0.705100
H41	H4	0.718000	0.369800	0.688700
H51	H5	0.759700	0.406500	0.651600
H61	H6	0.480900	0.408700	0.626600
H71	H7	0.509000	0.405400	0.580200
H81	H8	0.497500	0.346100	0.609200
H91	H9	0.593500	0.245900	0.519000
H101	H10	0.523400	0.171200	0.625600
H111	H11	0.635800	0.422000	0.566800
H121	H12	0.626700	0.369300	0.520300
H131	H13	0.698600	0.405000	0.559900
H141	H14	0.518400	0.245800	0.690400
H151	H15	0.542400	0.327000	0.689300
H161	H16	0.600500	0.305700	0.709000
H171	H17	0.749400	0.964800	0.793500
H181	H18	0.949200	0.000400	0.793300
H191	H19	0.727900	0.059700	0.818100
H201	H20	0.773700	0.092100	0.870500
H211	H21	0.792000	0.140200	0.833400
H221	H22	0.050600	0.114800	0.823200
H231	H23	0.036700	0.181300	0.829800
H241	H24	0.044500	0.147100	0.872600
H251	H25	0.970100	0.346700	0.863500
H261	H26	0.959800	0.264400	0.976100
H271	H27	0.947600	0.201400	0.783300
H281	H28	0.880600	0.214600	0.781500
H291	H29	0.959200	0.280800	0.789800
H301	H30	0.942700	0.102100	0.924300
H311	H31	0.948100	0.149300	0.972300
H321	H32	0.872700	0.101500	0.936000
H331	H33	0.787900	0.872500	0.389600
H341	H34	0.682500	0.657100	0.360900
H351	H35	0.826100	0.941700	0.464100
H361	H36	0.834200	0.905400	0.505700
H371	H37	0.763100	0.909700	0.490400
H381	H38	0.658600	0.643800	0.474700
H391	H39	0.699000	0.612400	0.446300
H401	H40	0.623600	0.602000	0.421600
H411	H41	0.845000	0.773400	0.603600
H421	H42	0.662200	0.782000	0.594000
H431	H43	0.833300	0.732700	0.484500
H441	H44	0.890100	0.812900	0.511600
H451	H45	0.881400	0.748000	0.534600
H461	H46	0.587900	0.761900	0.520200
H471	H47	0.642900	0.827900	0.502700
H481	H48	0.611800	0.748200	0.473300
H491	H49	0.453100	0.229700	0.785700
H501	H50	0.466500	0.416500	0.842200
H511	H51	0.552700	0.213100	0.794900
H521	H52	0.630200	0.282000	0.811300
H531	H53	0.593500	0.240300	0.848400
H541	H54	0.591300	0.519100	0.873400
H551	H55	0.594600	0.491000	0.919800
H561	H56	0.653900	0.502500	0.890800
H571	H57	0.754100	0.406500	0.981000
H581	H58	0.828800	0.476600	0.874400
H591	H59	0.578000	0.364200	0.933200
H601	H60	0.630700	0.373300	0.979700
H611	H61	0.595000	0.301400	0.940100
H621	H62	0.754200	0.481600	0.809600
H631	H63	0.673000	0.457600	0.810700
H641	H64	0.694300	0.399500	0.791000
H651	H65	0.035200	0.250600	0.706500
H661	H66	0.999600	0.050800	0.706700
H671	H67	0.940300	0.272100	0.681900
H681	H68	0.907900	0.226300	0.629500
H691	H69	0.859800	0.208000	0.666600
H701	H70	0.885200	0.949400	0.676800
H711	H71	0.818700	0.963300	0.670200
H721	H72	0.852900	0.955500	0.627400
H731	H73	0.653300	0.029900	0.636500
H741	H74	0.735600	0.040200	0.523900
H751	H75	0.798600	0.052400	0.716700
H761	H76	0.785400	0.119400	0.718500
H771	H77	0.719200	0.040800	0.710200
H781	H78	0.897900	0.057300	0.575700
H791	H79	0.850700	0.051900	0.527700
H801	H80	0.898500	0.127300	0.564000
H811	H81	0.127500	0.212100	0.110400
H821	H82	0.342900	0.317500	0.139100
H831	H83	0.058300	0.173900	0.035900
H841	H84	0.094600	0.165800	0.994300
H851	H85	0.090300	0.236900	0.009600
H861	H86	0.356200	0.341400	0.025300
H871	H87	0.387600	0.301000	0.053700
H881	H88	0.398000	0.376400	0.078400
H891	H89	0.226600	0.155000	0.896400
H901	H90	0.218000	0.337800	0.906000
H911	H91	0.267300	0.166700	0.015500
H921	H92	0.187100	0.109900	0.988400
H931	H93	0.252000	0.118600	0.965400
H941	H94	0.238100	0.412100	0.979800
H951	H95	0.172100	0.357100	0.997300
H961	H96	0.251800	0.388200	0.026700
H971	H97	0.229700	0.453100	0.285700
H981	H98	0.416500	0.466500	0.342200
H991	H99	0.213100	0.552700	0.294900
H1001	H100	0.282000	0.630200	0.311300
H1011	H101	0.240300	0.593500	0.348400
H1021	H102	0.519100	0.591300	0.373400
H1031	H103	0.491000	0.594600	0.419800
H1041	H104	0.502500	0.653900	0.390800
H1051	H105	0.406500	0.754100	0.481000
H1061	H106	0.476600	0.828800	0.374400
H1071	H107	0.364200	0.578000	0.433200
H1081	H108	0.373300	0.630700	0.479700
H1091	H109	0.301400	0.595000	0.440100
H1101	H110	0.481600	0.754200	0.309600
H1111	H111	0.457600	0.673000	0.310700
H1121	H112	0.399500	0.694300	0.291000
H1131	H113	0.250600	0.035200	0.206500
H1141	H114	0.050800	0.999600	0.206700
H1151	H115	0.272100	0.940300	0.181900
H1161	H116	0.226300	0.907900	0.129500
H1171	H117	0.208000	0.859800	0.166600
H1181	H118	0.949400	0.885200	0.176800
H1191	H119	0.963300	0.818700	0.170200
H1201	H120	0.955500	0.852900	0.127400
H1211	H121	0.029900	0.653300	0.136500
H1221	H122	0.040200	0.735600	0.023900
H1231	H123	0.052400	0.798600	0.216700
H1241	H124	0.119400	0.785400	0.218500
H1251	H125	0.040800	0.719200	0.210200
H1261	H126	0.057300	0.897900	0.075700
H1271	H127	0.051900	0.850700	0.027700
H1281	H128	0.127300	0.898500	0.064000
H1291	H129	0.212100	0.127500	0.610400
H1301	H130	0.317500	0.342900	0.639100
H1311	H131	0.173900	0.058300	0.535900
H1321	H132	0.165800	0.094600	0.494300
H1331	H133	0.236900	0.090300	0.509600
H1341	H134	0.341400	0.356200	0.525300
H1351	H135	0.301000	0.387600	0.553700
H1361	H136	0.376400	0.398000	0.578400
H1371	H137	0.155000	0.226600	0.396400
H1381	H138	0.337800	0.218000	0.406000
H1391	H139	0.166700	0.267300	0.515500
H1401	H140	0.109900	0.187100	0.488400
H1411	H141	0.118600	0.252000	0.465400
H1421	H142	0.412100	0.238100	0.479800
H1431	H143	0.357100	0.172100	0.497300
H1441	H144	0.388200	0.251800	0.526700
H1451	H145	0.546900	0.770300	0.214300
H1461	H146	0.533500	0.583500	0.157800
H1471	H147	0.447300	0.786900	0.205100
H1481	H148	0.369800	0.718000	0.188700
H1491	H149	0.406500	0.759700	0.151600
H1501	H150	0.408700	0.480900	0.126600
H1511	H151	0.405400	0.509000	0.080200
H1521	H152	0.346100	0.497500	0.109200
H1531	H153	0.245900	0.593500	0.019000
H1541	H154	0.171200	0.523400	0.125600
H1551	H155	0.422000	0.635800	0.066800
H1561	H156	0.369300	0.626700	0.020300
H1571	H157	0.405000	0.698600	0.059900
H1581	H158	0.245800	0.518400	0.190400
H1591	H159	0.327000	0.542400	0.189300
H1601	H160	0.305700	0.600500	0.209000
H1611	H161	0.964800	0.749400	0.293500
H1621	H162	0.000400	0.949200	0.293300
H1631	H163	0.059700	0.727900	0.318100
H1641	H164	0.092100	0.773700	0.370500
H1651	H165	0.140200	0.792000	0.333400
H1661	H166	0.114800	0.050600	0.323200
H1671	H167	0.181300	0.036700	0.329800
H1681	H168	0.147100	0.044500	0.372600
H1691	H169	0.346700	0.970100	0.363500
H1701	H170	0.264400	0.959800	0.476100
H1711	H171	0.201400	0.947600	0.283300
H1721	H172	0.214600	0.880600	0.281500
H1731	H173	0.280800	0.959200	0.289800
H1741	H174	0.102100	0.942700	0.424300
H1751	H175	0.149300	0.948100	0.472300
H1761	H176	0.101500	0.872700	0.436000
H1771	H177	0.872500	0.787900	0.889600
H1781	H178	0.657100	0.682500	0.860900
H1791	H179	0.941700	0.826100	0.964100
H1801	H180	0.905400	0.834200	0.005700
H1811	H181	0.909700	0.763100	0.990400
H1821	H182	0.643800	0.658600	0.974700
H1831	H183	0.612400	0.699000	0.946300
H1841	H184	0.602000	0.623600	0.921600
H1851	H185	0.773400	0.845000	0.103600
H1861	H186	0.782000	0.662200	0.094000
H1871	H187	0.732700	0.833300	0.984500
H1881	H188	0.812900	0.890100	0.011600
H1891	H189	0.748000	0.881400	0.034600
H1901	H190	0.761900	0.587900	0.020200
H1911	H191	0.827900	0.642900	0.002700
H1921	H192	0.748200	0.611800	0.973300
C11	C1	0.709900	0.628500	0.707500
C21	C2	0.681200	0.551800	0.687500
C31	C3	0.723800	0.520200	0.694500
C41	C4	0.697600	0.449000	0.672300
C51	C5	0.630500	0.409300	0.644000
C61	C6	0.585300	0.440100	0.638300
C71	C7	0.612900	0.512100	0.661000
C81	C8	0.744700	0.415100	0.680100
C91	C9	0.512200	0.396600	0.611400
C101	C10	0.532900	0.123500	0.542800
C111	C11	0.555400	0.197800	0.568600
C121	C12	0.588400	0.254000	0.549900
C131	C13	0.615800	0.324400	0.575200
C141	C14	0.604000	0.335400	0.617900
C151	C15	0.568400	0.277200	0.638600
C161	C16	0.546400	0.210800	0.612400
C171	C17	0.646800	0.385200	0.553800
C181	C18	0.556400	0.290000	0.685900
C191	C19	0.815200	0.893800	0.768600
C201	C20	0.846000	0.971000	0.790400
C211	C21	0.799500	0.995900	0.801900
C221	C22	0.827300	0.066300	0.825700
C231	C23	0.900000	0.110200	0.838900
C241	C24	0.948200	0.087000	0.826400
C251	C25	0.918500	0.017300	0.802200
C261	C26	0.775600	0.091800	0.838000
C271	C27	0.026800	0.136800	0.839100
C281	C28	0.985400	0.387200	0.953400
C291	C29	0.968000	0.315600	0.924300
C301	C30	0.960900	0.307100	0.876800
C311	C31	0.940500	0.241100	0.848300
C321	C32	0.929000	0.184400	0.869400
C331	C33	0.938200	0.193400	0.916600
C341	C34	0.956000	0.258800	0.943700
C351	C35	0.931200	0.233800	0.796000
C361	C36	0.924100	0.130900	0.939300
C371	C37	0.744900	0.762500	0.318800
C381	C38	0.740000	0.764600	0.368000
C391	C39	0.768100	0.829300	0.399800
C401	C40	0.767600	0.832000	0.445300
C411	C41	0.738300	0.768500	0.460900
C421	C42	0.706500	0.704500	0.429500
C431	C43	0.706000	0.701800	0.382700
C441	C44	0.800700	0.903500	0.479400
C451	C45	0.668500	0.634300	0.444400
C461	C46	0.757200	0.772800	0.655100
C471	C47	0.752900	0.775900	0.604900
C481	C48	0.805600	0.773400	0.585300
C491	C49	0.800200	0.771000	0.537200
C501	C50	0.742000	0.771400	0.510900
C511	C51	0.690100	0.774300	0.532200
C521	C52	0.696600	0.778000	0.579400
C531	C53	0.856100	0.765700	0.515100
C541	C54	0.627500	0.778500	0.504600
C551	C55	0.576400	0.738000	0.743400
C561	C56	0.938200	0.751400	0.730100
C571	C57	0.989300	0.661900	0.719000
C581	C58	0.043000	0.771400	0.777000
C591	C59	0.386400	0.880000	0.580200
C601	C60	0.349800	0.894400	0.659000
C611	C61	0.371500	0.290100	0.792500
C621	C62	0.448200	0.318800	0.812500
C631	C63	0.479800	0.276200	0.805500
C641	C64	0.551000	0.302400	0.827700
C651	C65	0.590700	0.369500	0.856000
C661	C66	0.559900	0.414700	0.861700
C671	C67	0.487900	0.387100	0.839000
C681	C68	0.584900	0.255300	0.819900
C691	C69	0.603400	0.487800	0.888600
C701	C70	0.876500	0.467100	0.957200
C711	C71	0.802200	0.444600	0.931400
C721	C72	0.746000	0.411600	0.950100
C731	C73	0.675600	0.384200	0.924800
C741	C74	0.664600	0.396000	0.882100
C751	C75	0.722800	0.431600	0.861400
C761	C76	0.789200	0.453600	0.887600
C771	C77	0.614800	0.353200	0.946200
C781	C78	0.710000	0.443600	0.814100
C791	C79	0.106200	0.184800	0.731400
C801	C80	0.029000	0.154000	0.709600
C811	C81	0.004100	0.200500	0.698100
C821	C82	0.933700	0.172700	0.674300
C831	C83	0.889800	0.100000	0.661100
C841	C84	0.913000	0.051800	0.673600
C851	C85	0.982700	0.081500	0.697800
C861	C86	0.908200	0.224400	0.662000
C871	C87	0.863200	0.973200	0.660900
C881	C88	0.612800	0.014600	0.546600
C891	C89	0.684400	0.032000	0.575700
C901	C90	0.692900	0.039100	0.623200
C911	C91	0.758900	0.059500	0.651700
C921	C92	0.815600	0.071000	0.630600
C931	C93	0.806600	0.061800	0.583400
C941	C94	0.741200	0.044000	0.556300
C951	C95	0.766200	0.068800	0.704000
C961	C96	0.869100	0.075900	0.560700
C971	C97	0.237500	0.255100	0.181200
C981	C98	0.235400	0.260000	0.132000
C991	C99	0.170700	0.231900	0.100200
C1001	C100	0.168000	0.232400	0.054700
C1011	C101	0.231500	0.261700	0.039100
C1021	C102	0.295500	0.293500	0.070500
C1031	C103	0.298200	0.294000	0.117300
C1041	C104	0.096500	0.199300	0.020600
C1051	C105	0.365700	0.331500	0.055600
C1061	C106	0.227200	0.242800	0.844900
C1071	C107	0.224100	0.247100	0.895100
C1081	C108	0.226600	0.194400	0.914700
C1091	C109	0.229000	0.199800	0.962800
C1101	C110	0.228600	0.258000	0.989100
C1111	C111	0.225700	0.309900	0.967800
C1121	C112	0.222000	0.303400	0.920600
C1131	C113	0.234300	0.143900	0.984900
C1141	C114	0.221500	0.372500	0.995400
C1151	C115	0.262000	0.423600	0.756600
C1161	C116	0.248600	0.061800	0.769900
C1171	C117	0.338100	0.010700	0.781000
C1181	C118	0.228600	0.957000	0.723000
C1191	C119	0.120000	0.613600	0.919800
C1201	C120	0.105600	0.650200	0.841000
C1211	C121	0.290100	0.371500	0.292500
C1221	C122	0.318800	0.448200	0.312500
C1231	C123	0.276200	0.479800	0.305500
C1241	C124	0.302400	0.551000	0.327700
C1251	C125	0.369500	0.590700	0.356000
C1261	C126	0.414700	0.559900	0.361700
C1271	C127	0.387100	0.487900	0.339000
C1281	C128	0.255300	0.584900	0.319900
C1291	C129	0.487800	0.603400	0.388600
C1301	C130	0.467100	0.876500	0.457200
C1311	C131	0.444600	0.802200	0.431400
C1321	C132	0.411600	0.746000	0.450100
C1331	C133	0.384200	0.675600	0.424800
C1341	C134	0.396000	0.664600	0.382100
C1351	C135	0.431600	0.722800	0.361400
C1361	C136	0.453600	0.789200	0.387600
C1371	C137	0.353200	0.614800	0.446200
C1381	C138	0.443600	0.710000	0.314100
C1391	C139	0.184800	0.106200	0.231400
C1401	C140	0.154000	0.029000	0.209600
C1411	C141	0.200500	0.004100	0.198100
C1421	C142	0.172700	0.933700	0.174300
C1431	C143	0.100000	0.889800	0.161100
C1441	C144	0.051800	0.913000	0.173600
C1451	C145	0.081500	0.982700	0.197800
C1461	C146	0.224400	0.908200	0.162000
C1471	C147	0.973200	0.863200	0.160900
C1481	C148	0.014600	0.612800	0.046600
C1491	C149	0.032000	0.684400	0.075700
C1501	C150	0.039100	0.692900	0.123200
C1511	C151	0.059500	0.758900	0.151700
C1521	C152	0.071000	0.815600	0.130600
C1531	C153	0.061800	0.806600	0.083400
C1541	C154	0.044000	0.741200	0.056300
C1551	C155	0.068800	0.766200	0.204000
C1561	C156	0.075900	0.869100	0.060700
C1571	C157	0.255100	0.237500	0.681200
C1581	C158	0.260000	0.235400	0.632000
C1591	C159	0.231900	0.170700	0.600200
C1601	C160	0.232400	0.168000	0.554700
C1611	C161	0.261700	0.231500	0.539100
C1621	C162	0.293500	0.295500	0.570500
C1631	C163	0.294000	0.298200	0.617300
C1641	C164	0.199300	0.096500	0.520600
C1651	C165	0.331500	0.365700	0.555600
C1661	C166	0.242800	0.227200	0.344900
C1671	C167	0.247100	0.224100	0.395100
C1681	C168	0.194400	0.226600	0.414700
C1691	C169	0.199800	0.229000	0.462800
C1701	C170	0.258000	0.228600	0.489100
C1711	C171	0.309900	0.225700	0.467800
C1721	C172	0.303400	0.222000	0.420600
C1731	C173	0.143900	0.234300	0.484900
C1741	C174	0.372500	0.221500	0.495400
C1751	C175	0.423600	0.262000	0.256600
C1761	C176	0.061800	0.248600	0.269900
C1771	C177	0.010700	0.338100	0.281000
C1781	C178	0.957000	0.228600	0.223000
C1791	C179	0.613600	0.120000	0.419800
C1801	C180	0.650200	0.105600	0.341000
C1811	C181	0.628500	0.709900	0.207500
C1821	C182	0.551800	0.681200	0.187500
C1831	C183	0.520200	0.723800	0.194500
C1841	C184	0.449000	0.697600	0.172300
C1851	C185	0.409300	0.630500	0.144000
C1861	C186	0.440100	0.585300	0.138300
C1871	C187	0.512100	0.612900	0.161000
C1881	C188	0.415100	0.744700	0.180100
C1891	C189	0.396600	0.512200	0.111400
C1901	C190	0.123500	0.532900	0.042800
C1911	C191	0.197800	0.555400	0.068600
C1921	C192	0.254000	0.588400	0.049900
C1931	C193	0.324400	0.615800	0.075200
C1941	C194	0.335400	0.604000	0.117900
C1951	C195	0.277200	0.568400	0.138600
C1961	C196	0.210800	0.546400	0.112400
C1971	C197	0.385200	0.646800	0.053800
C1981	C198	0.290000	0.556400	0.185900
C1991	C199	0.893800	0.815200	0.268600
C2001	C200	0.971000	0.846000	0.290400
C2011	C201	0.995900	0.799500	0.301900
C2021	C202	0.066300	0.827300	0.325700
C2031	C203	0.110200	0.900000	0.338900
C2041	C204	0.087000	0.948200	0.326400
C2051	C205	0.017300	0.918500	0.302200
C2061	C206	0.091800	0.775600	0.338000
C2071	C207	0.136800	0.026800	0.339100
C2081	C208	0.387200	0.985400	0.453400
C2091	C209	0.315600	0.968000	0.424300
C2101	C210	0.307100	0.960900	0.376800
C2111	C211	0.241100	0.940500	0.348300
C2121	C212	0.184400	0.929000	0.369400
C2131	C213	0.193400	0.938200	0.416600
C2141	C214	0.258800	0.956000	0.443700
C2151	C215	0.233800	0.931200	0.296000
C2161	C216	0.130900	0.924100	0.439300
C2171	C217	0.762500	0.744900	0.818800
C2181	C218	0.764600	0.740000	0.868000
C2191	C219	0.829300	0.768100	0.899800
C2201	C220	0.832000	0.767600	0.945300
C2211	C221	0.768500	0.738300	0.960900
C2221	C222	0.704500	0.706500	0.929500
C2231	C223	0.701800	0.706000	0.882700
C2241	C224	0.903500	0.800700	0.979400
C2251	C225	0.634300	0.668500	0.944400
C2261	C226	0.772800	0.757200	0.155100
C2271	C227	0.775900	0.752900	0.104900
C2281	C228	0.773400	0.805600	0.085300
C2291	C229	0.771000	0.800200	0.037200
C2301	C230	0.771400	0.742000	0.010900
C2311	C231	0.774300	0.690100	0.032200
C2321	C232	0.778000	0.696600	0.079400
C2331	C233	0.765700	0.856100	0.015100
C2341	C234	0.778500	0.627500	0.004600
C2351	C235	0.738000	0.576400	0.243400
C2361	C236	0.751400	0.938200	0.230100
C2371	C237	0.661900	0.989300	0.219000
C2381	C238	0.771400	0.043000	0.277000
C2391	C239	0.880000	0.386400	0.080200
C2401	C240	0.894400	0.349800	0.159000
N11	N1	0.997300	0.724300	0.737200
N21	N2	0.348500	0.841700	0.617200
N31	N3	0.275700	0.002700	0.762800
N41	N4	0.158300	0.651500	0.882800
N51	N5	0.002700	0.275700	0.262800
N61	N6	0.651500	0.158300	0.382800
N71	N7	0.724300	0.997300	0.237200
N81	N8	0.841700	0.348500	0.117200
O11	O1	0.666700	0.652100	0.704300
O21	O2	0.776500	0.666700	0.725700
O31	O3	0.749200	0.854600	0.761500
O41	O4	0.859500	0.873500	0.758900
O51	O5	0.731400	0.704400	0.294100
O61	O6	0.766800	0.820600	0.306700
O71	O7	0.706800	0.773200	0.672100
O81	O8	0.809800	0.770800	0.676700
O91	O9	0.967600	0.384600	0.992400
O101	O10	0.009300	0.439500	0.936000
O111	O11	0.497300	0.072500	0.561300
O121	O12	0.551500	0.116300	0.505500
O131	O13	0.594200	0.739600	0.724600
O141	O14	0.927700	0.777700	0.749800
O151	O15	0.411900	0.929900	0.583400
O161	O16	0.347900	0.333300	0.795700
O171	O17	0.333300	0.223500	0.774300
O181	O18	0.145400	0.250800	0.738500
O191	O19	0.126500	0.140500	0.741100
O201	O20	0.295600	0.268600	0.205900
O211	O21	0.179400	0.233200	0.193300
O221	O22	0.226800	0.293200	0.827900
O231	O23	0.229200	0.190200	0.823300
O241	O24	0.615400	0.032400	0.507600
O251	O25	0.560500	0.990700	0.564000
O261	O26	0.927500	0.502700	0.938700
O271	O27	0.883700	0.448500	0.994500
O281	O28	0.260400	0.405800	0.775400
O291	O29	0.222300	0.072300	0.750200
O301	O30	0.070100	0.588100	0.916600
O311	O31	0.333300	0.347900	0.295700
O321	O32	0.223500	0.333300	0.274300
O331	O33	0.250800	0.145400	0.238500
O341	O34	0.140500	0.126500	0.241100
O351	O35	0.268600	0.295600	0.705900
O361	O36	0.233200	0.179400	0.693300
O371	O37	0.293200	0.226800	0.327900
O381	O38	0.190200	0.229200	0.323300
O391	O39	0.032400	0.615400	0.007600
O401	O40	0.990700	0.560500	0.064000
O411	O41	0.502700	0.927500	0.438700
O421	O42	0.448500	0.883700	0.494500
O431	O43	0.405800	0.260400	0.275400
O441	O44	0.072300	0.222300	0.250200
O451	O45	0.588100	0.070100	0.416600
O461	O46	0.652100	0.666700	0.204300
O471	O47	0.666700	0.776500	0.225700
O481	O48	0.854600	0.749200	0.261500
O491	O49	0.873500	0.859500	0.258900
O501	O50	0.704400	0.731400	0.794100
O511	O51	0.820600	0.766800	0.806700
O521	O52	0.773200	0.706800	0.172100
O531	O53	0.770800	0.809800	0.176700
O541	O54	0.384600	0.967600	0.492400
O551	O55	0.439500	0.009300	0.436000
O561	O56	0.072500	0.497300	0.061300
O571	O57	0.116300	0.551500	0.005500
O581	O58	0.739600	0.594200	0.224600
O591	O59	0.777700	0.927700	0.249800
O601	O60	0.929900	0.411900	0.083400
