data_TESHAB_freeONLY_PM
_symmetry_space_group_name_H-M	'P1'
_cell_length_a	9.978100
_cell_length_b	11.364700
_cell_length_c	15.054800
_cell_angle_alpha	90.996200
_cell_angle_beta	90.000000
_cell_angle_gamma	90.000000
_symmetry_Int_Tables_number 1

loop_
_symmetry_equiv_pos_as_xyz
'x,y,z'

loop_
_atom_site_label
_atom_site_type_symbol
_atom_site_fract_x
_atom_site_fract_y
_atom_site_fract_z
Zn11	Zn1	0.930240	0.754580	0.132410
Zn21	Zn2	0.124630	0.741910	0.302790
Zn31	Zn3	0.430240	0.745420	0.367590
Zn41	Zn4	0.624630	0.758090	0.197210
Zn51	Zn5	0.069760	0.245420	0.867590
Zn61	Zn6	0.875370	0.258090	0.697210
Zn71	Zn7	0.569760	0.254580	0.632410
Zn81	Zn8	0.375370	0.241910	0.802790
Zn91	Zn9	0.000000	0.500000	0.000000
Zn101	Zn10	0.500000	0.000000	0.500000
Zn111	Zn11	0.000000	0.000000	0.000000
Zn121	Zn12	0.500000	0.500000	0.500000
H11	H1	0.778600	0.854000	0.366400
H21	H2	0.064500	0.478200	0.254600
H31	H3	0.630100	0.537800	0.074600
H41	H4	0.229000	0.963700	0.206300
H51	H5	0.132000	0.695400	0.918500
H61	H6	0.713500	0.002000	0.032300
H71	H7	0.278600	0.646000	0.133600
H81	H8	0.564500	0.021800	0.245400
H91	H9	0.130100	0.962200	0.425400
H101	H10	0.729000	0.536300	0.293700
H111	H11	0.632000	0.804600	0.581500
H121	H12	0.213500	0.498000	0.467700
H131	H13	0.221400	0.146000	0.633600
H141	H14	0.935500	0.521800	0.745400
H151	H15	0.369900	0.462200	0.925400
H161	H16	0.771000	0.036300	0.793700
H171	H17	0.868000	0.304600	0.081500
H181	H18	0.286500	0.998000	0.967700
H191	H19	0.721400	0.354000	0.866400
H201	H20	0.435500	0.978200	0.754600
H211	H21	0.869900	0.037800	0.574600
H221	H22	0.271000	0.463700	0.706300
H231	H23	0.368000	0.195400	0.418500
H241	H24	0.786500	0.502000	0.532300
C11	C1	0.847500	0.826100	0.328000
C21	C2	0.039200	0.520300	0.203200
C31	C3	0.720800	0.562700	0.071300
C41	C4	0.156300	0.941600	0.168800
C51	C5	0.085300	0.741500	0.961600
C61	C6	0.732300	0.935700	0.067800
C71	C7	0.347500	0.673900	0.172000
C81	C8	0.539200	0.979700	0.296800
C91	C9	0.220800	0.937300	0.428700
C101	C10	0.656300	0.558400	0.331200
C111	C11	0.585300	0.758500	0.538400
C121	C12	0.232300	0.564300	0.432200
C131	C13	0.152500	0.173900	0.672000
C141	C14	0.960800	0.479700	0.796800
C151	C15	0.279200	0.437300	0.928700
C161	C16	0.843700	0.058400	0.831200
C171	C17	0.914700	0.258500	0.038400
C181	C18	0.267700	0.064300	0.932200
C191	C19	0.652500	0.326100	0.828000
C201	C20	0.460800	0.020300	0.703200
C211	C21	0.779200	0.062700	0.571300
C221	C22	0.343700	0.441600	0.668800
C231	C23	0.414700	0.241500	0.461600
C241	C24	0.767700	0.435700	0.567800
O11	O1	0.815340	0.806070	0.247770
O21	O2	0.960480	0.812770	0.361470
O31	O3	0.021260	0.630960	0.213460
O41	O4	0.027200	0.462640	0.133840
O51	O5	0.754290	0.650660	0.120760
O61	O6	0.794420	0.506950	0.019650
O71	O7	0.094560	0.847740	0.188340
O81	O8	0.132000	0.007240	0.106440
O91	O9	0.019430	0.685360	0.020460
O101	O10	0.094150	0.849320	0.955220
O111	O11	0.854410	0.900580	0.069680
O121	O12	0.636280	0.891920	0.107920
O131	O13	0.315340	0.693930	0.252230
O141	O14	0.460480	0.687230	0.138530
O151	O15	0.521260	0.869040	0.286540
O161	O16	0.527200	0.037360	0.366160
O171	O17	0.254290	0.849340	0.379240
O181	O18	0.294420	0.993050	0.480350
O191	O19	0.594560	0.652260	0.311660
O201	O20	0.632000	0.492760	0.393560
O211	O21	0.519430	0.814640	0.479540
O221	O22	0.594150	0.650680	0.544780
O231	O23	0.354410	0.599420	0.430320
O241	O24	0.136280	0.608080	0.392080
O251	O25	0.184660	0.193930	0.752230
O261	O26	0.039520	0.187230	0.638530
O271	O27	0.978740	0.369040	0.786540
O281	O28	0.972800	0.537360	0.866160
O291	O29	0.245710	0.349340	0.879240
O301	O30	0.205580	0.493050	0.980350
O311	O31	0.905440	0.152260	0.811660
O321	O32	0.868000	0.992760	0.893560
O331	O33	0.980570	0.314640	0.979540
O341	O34	0.905850	0.150680	0.044780
O351	O35	0.145590	0.099420	0.930320
O361	O36	0.363720	0.108080	0.892080
O371	O37	0.684660	0.306070	0.747770
O381	O38	0.539520	0.312770	0.861470
O391	O39	0.478740	0.130960	0.713460
O401	O40	0.472800	0.962640	0.633840
O411	O41	0.745710	0.150660	0.620760
O421	O42	0.705580	0.006950	0.519650
O431	O43	0.405440	0.347740	0.688340
O441	O44	0.368000	0.507240	0.606440
O451	O45	0.480570	0.185360	0.520460
O461	O46	0.405850	0.349320	0.455220
O471	O47	0.645590	0.400580	0.569680
O481	O48	0.863720	0.391920	0.607920
