data_TETZID_freeONLY_PM
_symmetry_space_group_name_H-M	'P1'
_cell_length_a	14.925600
_cell_length_b	19.540600
_cell_length_c	20.387400
_cell_angle_alpha	90.000000
_cell_angle_beta	94.379000
_cell_angle_gamma	90.000000
_symmetry_Int_Tables_number 1

loop_
_symmetry_equiv_pos_as_xyz
'x,y,z'

loop_
_atom_site_label
_atom_site_type_symbol
_atom_site_fract_x
_atom_site_fract_y
_atom_site_fract_z
Cd11	Cd1	0.373340	0.452830	0.667830
Cd21	Cd2	0.143280	0.546680	0.672470
H11	H1	0.380400	0.520600	0.336800
H21	H2	0.352000	0.416700	0.001100
H31	H3	0.104500	0.481100	0.339500
H41	H4	0.169700	0.579300	0.010000
H51	H5	0.349400	0.559100	0.240900
H61	H6	0.366300	0.583300	0.131100
H71	H7	0.386800	0.387500	0.090700
H81	H8	0.368100	0.360500	0.201100
H91	H9	0.401200	0.555900	0.549400
H101	H10	0.397100	0.567700	0.439400
H111	H11	0.326000	0.371000	0.421300
H121	H12	0.329800	0.366600	0.533600
H131	H13	0.414000	0.547300	0.794700
H141	H14	0.410100	0.553200	0.906100
H151	H15	0.321500	0.363100	0.900100
H161	H16	0.327300	0.362000	0.790300
H171	H17	0.113000	0.639500	0.205200
H181	H18	0.107800	0.613400	0.092100
H191	H19	0.118500	0.416400	0.136400
H201	H20	0.126100	0.442300	0.247700
H211	H21	0.165300	0.634800	0.541600
H221	H22	0.163400	0.630900	0.428500
H231	H23	0.094400	0.433500	0.441400
H241	H24	0.098000	0.445200	0.551500
H251	H25	0.200900	0.633400	0.801800
H261	H26	0.195800	0.634100	0.913100
H271	H27	0.102700	0.446200	0.905900
H281	H28	0.111400	0.449400	0.793600
H291	H29	0.264500	0.718200	0.656400
H301	H30	0.335000	0.831200	0.651100
H311	H31	0.248300	0.282400	0.654600
H321	H32	0.178100	0.168900	0.653800
C11	C1	0.340900	0.433700	0.300700
C21	C2	0.378800	0.506700	0.029100
C31	C3	0.356600	0.457400	0.231900
C41	C4	0.355800	0.523600	0.211200
C51	C5	0.364800	0.537800	0.144400
C61	C6	0.371300	0.488700	0.099300
C71	C7	0.376700	0.422200	0.120500
C81	C8	0.367200	0.405900	0.187400
C91	C9	0.384300	0.518400	0.523400
C101	C10	0.383000	0.525700	0.457500
C111	C11	0.360900	0.470700	0.417000
C121	C12	0.340700	0.409700	0.446300
C131	C13	0.343100	0.408000	0.514000
C141	C14	0.395300	0.508700	0.816500
C151	C15	0.393500	0.512900	0.884100
C161	C16	0.367600	0.458000	0.917600
C171	C17	0.341900	0.401900	0.879500
C181	C18	0.345200	0.401400	0.813200
C191	C19	0.143900	0.566400	0.307100
C201	C20	0.116300	0.494900	0.032400
C211	C21	0.128400	0.543300	0.236600
C221	C22	0.117600	0.594300	0.191500
C231	C23	0.113200	0.578500	0.123200
C241	C24	0.117000	0.511900	0.103300
C251	C25	0.119900	0.461900	0.149600
C261	C26	0.125000	0.477400	0.216800
C271	C27	0.151700	0.593300	0.520900
C281	C28	0.150500	0.592100	0.452400
C291	C29	0.128900	0.530000	0.421300
C301	C30	0.109600	0.475600	0.460400
C311	C31	0.112700	0.483000	0.526800
C321	C32	0.178900	0.594900	0.822100
C331	C33	0.176300	0.595400	0.889600
C341	C34	0.145200	0.539800	0.922900
C351	C35	0.122200	0.485900	0.886300
C361	C36	0.127000	0.488500	0.817900
C371	C37	0.371100	0.599000	0.669100
C381	C38	0.991500	0.154800	0.666300
C391	C39	0.386200	0.673900	0.665600
C401	C40	0.326300	0.725000	0.659200
C411	C41	0.367100	0.790600	0.657300
C421	C42	0.457600	0.787400	0.665400
C431	C43	0.145000	0.400200	0.669000
C441	C44	0.523800	0.845200	0.670500
C451	C45	0.127900	0.326600	0.665400
C461	C46	0.187300	0.275400	0.658400
C471	C47	0.146700	0.209700	0.657600
C481	C48	0.057900	0.213200	0.663000
S11	S1	0.021160	0.295660	0.669760
S21	S2	0.494870	0.704440	0.671590
N11	N1	0.363300	0.481000	0.349200
N21	N2	0.362800	0.460800	0.553400
N31	N3	0.364600	0.455900	0.985000
N41	N4	0.372400	0.454100	0.780000
N51	N5	0.123200	0.520500	0.353600
N61	N6	0.135100	0.540600	0.559100
N71	N7	0.146900	0.543000	0.991700
N81	N8	0.152300	0.543300	0.785700
O11	O1	0.306400	0.379700	0.311150
O21	O2	0.397900	0.563700	0.012900
O31	O3	0.175100	0.622100	0.320600
O41	O4	0.091900	0.436800	0.013200
O51	O5	0.221800	0.424300	0.665900
O61	O6	0.076100	0.438860	0.674300
O71	O7	0.910500	0.167950	0.668700
O81	O8	0.021100	0.095370	0.663950
O91	O9	0.292600	0.577830	0.667700
O101	O10	0.438200	0.561270	0.673000
O111	O11	0.605700	0.832950	0.673300
O121	O12	0.492600	0.905090	0.667770
Cd31	Cd3	0.126660	0.952830	0.332170
Cd41	Cd4	0.356720	0.046680	0.327530
H331	H33	0.119600	0.020600	0.663200
H341	H34	0.148000	0.916700	0.998900
H351	H35	0.395500	0.981100	0.660500
H361	H36	0.330300	0.079300	0.990000
H371	H37	0.150600	0.059100	0.759100
H381	H38	0.133700	0.083300	0.868900
H391	H39	0.113200	0.887500	0.909300
H401	H40	0.131900	0.860500	0.798900
H411	H41	0.098800	0.055900	0.450600
H421	H42	0.102900	0.067700	0.560600
H431	H43	0.174000	0.871000	0.578700
H441	H44	0.170200	0.866600	0.466400
H451	H45	0.086000	0.047300	0.205300
H461	H46	0.089900	0.053200	0.093900
H471	H47	0.178500	0.863100	0.099900
H481	H48	0.172700	0.862000	0.209700
H491	H49	0.387000	0.139500	0.794800
H501	H50	0.392200	0.113400	0.907900
H511	H51	0.381500	0.916400	0.863600
H521	H52	0.373900	0.942300	0.752300
H531	H53	0.334700	0.134800	0.458400
H541	H54	0.336600	0.130900	0.571500
H551	H55	0.405600	0.933500	0.558600
H561	H56	0.402000	0.945200	0.448500
H571	H57	0.299100	0.133400	0.198200
H581	H58	0.304200	0.134100	0.086900
H591	H59	0.397300	0.946200	0.094100
H601	H60	0.388600	0.949400	0.206400
H611	H61	0.235500	0.218200	0.343600
H621	H62	0.165000	0.331200	0.348900
H631	H63	0.251700	0.782400	0.345400
H641	H64	0.321900	0.668900	0.346200
C491	C49	0.159100	0.933700	0.699300
C501	C50	0.121200	0.006700	0.970900
C511	C51	0.143400	0.957400	0.768100
C521	C52	0.144200	0.023600	0.788800
C531	C53	0.135200	0.037800	0.855600
C541	C54	0.128700	0.988700	0.900700
C551	C55	0.123300	0.922200	0.879500
C561	C56	0.132800	0.905900	0.812600
C571	C57	0.115700	0.018400	0.476600
C581	C58	0.117000	0.025700	0.542500
C591	C59	0.139100	0.970700	0.583000
C601	C60	0.159300	0.909700	0.553700
C611	C61	0.156900	0.908000	0.486000
C621	C62	0.104700	0.008700	0.183500
C631	C63	0.106500	0.012900	0.115900
C641	C64	0.132400	0.958000	0.082400
C651	C65	0.158100	0.901900	0.120500
C661	C66	0.154800	0.901400	0.186800
C671	C67	0.356100	0.066400	0.692900
C681	C68	0.383700	0.994900	0.967600
C691	C69	0.371600	0.043300	0.763400
C701	C70	0.382400	0.094300	0.808500
C711	C71	0.386800	0.078500	0.876800
C721	C72	0.383000	0.011900	0.896700
C731	C73	0.380100	0.961900	0.850400
C741	C74	0.375000	0.977400	0.783200
C751	C75	0.348300	0.093300	0.479100
C761	C76	0.349500	0.092100	0.547600
C771	C77	0.371100	0.030000	0.578700
C781	C78	0.390400	0.975600	0.539600
C791	C79	0.387300	0.983000	0.473200
C801	C80	0.321100	0.094900	0.177900
C811	C81	0.323700	0.095400	0.110400
C821	C82	0.354800	0.039800	0.077100
C831	C83	0.377800	0.985900	0.113700
C841	C84	0.373000	0.988500	0.182100
C851	C85	0.128900	0.099000	0.330900
C861	C86	0.508500	0.654800	0.333700
C871	C87	0.113800	0.173900	0.334400
C881	C88	0.173700	0.225000	0.340800
C891	C89	0.132900	0.290600	0.342700
C901	C90	0.042400	0.287400	0.334600
C911	C91	0.355000	0.900200	0.331000
C921	C92	0.976200	0.345200	0.329500
C931	C93	0.372100	0.826600	0.334600
C941	C94	0.312700	0.775400	0.341600
C951	C95	0.353300	0.709700	0.342400
C961	C96	0.442100	0.713200	0.337000
S31	S3	0.478840	0.795660	0.330240
S41	S4	0.005130	0.204440	0.328410
N91	N9	0.136700	0.981000	0.650800
N101	N10	0.137200	0.960800	0.446600
N111	N11	0.135400	0.955900	0.015000
N121	N12	0.127600	0.954100	0.220000
N131	N13	0.376800	0.020500	0.646400
N141	N14	0.364900	0.040600	0.440900
N151	N15	0.353100	0.043000	0.008300
N161	N16	0.347700	0.043300	0.214300
O131	O13	0.193600	0.879700	0.688850
O141	O14	0.102100	0.063700	0.987100
O151	O15	0.324900	0.122100	0.679400
O161	O16	0.408100	0.936800	0.986800
O171	O17	0.278200	0.924300	0.334100
O181	O18	0.423900	0.938860	0.325700
O191	O19	0.589500	0.667950	0.331300
O201	O20	0.478900	0.595370	0.336050
O211	O21	0.207400	0.077830	0.332300
O221	O22	0.061800	0.061270	0.327000
O231	O23	0.894300	0.332950	0.326700
O241	O24	0.007400	0.405090	0.332230
Cd51	Cd5	0.626660	0.547170	0.332170
Cd61	Cd6	0.856720	0.453320	0.327530
H651	H65	0.619600	0.479400	0.663200
H661	H66	0.648000	0.583300	0.998900
H671	H67	0.895500	0.518900	0.660500
H681	H68	0.830300	0.420700	0.990000
H691	H69	0.650600	0.440900	0.759100
H701	H70	0.633700	0.416700	0.868900
H711	H71	0.613200	0.612500	0.909300
H721	H72	0.631900	0.639500	0.798900
H731	H73	0.598800	0.444100	0.450600
H741	H74	0.602900	0.432300	0.560600
H751	H75	0.674000	0.629000	0.578700
H761	H76	0.670200	0.633400	0.466400
H771	H77	0.586000	0.452700	0.205300
H781	H78	0.589900	0.446800	0.093900
H791	H79	0.678500	0.636900	0.099900
H801	H80	0.672700	0.638000	0.209700
H811	H81	0.887000	0.360500	0.794800
H821	H82	0.892200	0.386600	0.907900
H831	H83	0.881500	0.583600	0.863600
H841	H84	0.873900	0.557700	0.752300
H851	H85	0.834700	0.365200	0.458400
H861	H86	0.836600	0.369100	0.571500
H871	H87	0.905600	0.566500	0.558600
H881	H88	0.902000	0.554800	0.448500
H891	H89	0.799100	0.366600	0.198200
H901	H90	0.804200	0.365900	0.086900
H911	H91	0.897300	0.553800	0.094100
H921	H92	0.888600	0.550600	0.206400
H931	H93	0.735500	0.281800	0.343600
H941	H94	0.665000	0.168800	0.348900
H951	H95	0.751700	0.717600	0.345400
H961	H96	0.821900	0.831100	0.346200
C971	C97	0.659100	0.566300	0.699300
C981	C98	0.621200	0.493300	0.970900
C991	C99	0.643400	0.542600	0.768100
C1001	C100	0.644200	0.476400	0.788800
C1011	C101	0.635200	0.462200	0.855600
C1021	C102	0.628700	0.511300	0.900700
C1031	C103	0.623300	0.577800	0.879500
C1041	C104	0.632800	0.594100	0.812600
C1051	C105	0.615700	0.481600	0.476600
C1061	C106	0.617000	0.474300	0.542500
C1071	C107	0.639100	0.529300	0.583000
C1081	C108	0.659300	0.590300	0.553700
C1091	C109	0.656900	0.592000	0.486000
C1101	C110	0.604700	0.491300	0.183500
C1111	C111	0.606500	0.487100	0.115900
C1121	C112	0.632400	0.542000	0.082400
C1131	C113	0.658100	0.598100	0.120500
C1141	C114	0.654800	0.598600	0.186800
C1151	C115	0.856100	0.433600	0.692900
C1161	C116	0.883700	0.505100	0.967600
C1171	C117	0.871600	0.456700	0.763400
C1181	C118	0.882400	0.405700	0.808500
C1191	C119	0.886800	0.421500	0.876800
C1201	C120	0.883000	0.488100	0.896700
C1211	C121	0.880100	0.538100	0.850400
C1221	C122	0.875000	0.522600	0.783200
C1231	C123	0.848300	0.406700	0.479100
C1241	C124	0.849500	0.407900	0.547600
C1251	C125	0.871100	0.470000	0.578700
C1261	C126	0.890400	0.524400	0.539600
C1271	C127	0.887300	0.517000	0.473200
C1281	C128	0.821100	0.405100	0.177900
C1291	C129	0.823700	0.404600	0.110400
C1301	C130	0.854800	0.460200	0.077100
C1311	C131	0.877800	0.514100	0.113700
C1321	C132	0.873000	0.511500	0.182100
C1331	C133	0.628900	0.401000	0.330900
C1341	C134	0.008500	0.845200	0.333700
C1351	C135	0.613800	0.326100	0.334400
C1361	C136	0.673700	0.275000	0.340800
C1371	C137	0.632900	0.209400	0.342700
C1381	C138	0.542400	0.212600	0.334600
C1391	C139	0.855000	0.599800	0.331000
C1401	C140	0.476200	0.154800	0.329500
C1411	C141	0.872100	0.673400	0.334600
C1421	C142	0.812700	0.724600	0.341600
C1431	C143	0.853300	0.790300	0.342400
C1441	C144	0.942100	0.786800	0.337000
S51	S5	0.978840	0.704340	0.330240
S61	S6	0.505130	0.295560	0.328410
N171	N17	0.636700	0.519000	0.650800
N181	N18	0.637200	0.539200	0.446600
N191	N19	0.635400	0.544100	0.015000
N201	N20	0.627600	0.545900	0.220000
N211	N21	0.876800	0.479500	0.646400
N221	N22	0.864900	0.459400	0.440900
N231	N23	0.853100	0.457000	0.008300
N241	N24	0.847700	0.456700	0.214300
O251	O25	0.693600	0.620300	0.688850
O261	O26	0.602100	0.436300	0.987100
O271	O27	0.824900	0.377900	0.679400
O281	O28	0.908100	0.563200	0.986800
O291	O29	0.778200	0.575700	0.334100
O301	O30	0.923900	0.561140	0.325700
O311	O31	0.089500	0.832050	0.331300
O321	O32	0.978900	0.904630	0.336050
O331	O33	0.707400	0.422170	0.332300
O341	O34	0.561800	0.438730	0.327000
O351	O35	0.394300	0.167050	0.326700
O361	O36	0.507400	0.094910	0.332230
Cd71	Cd7	0.873340	0.047170	0.667830
Cd81	Cd8	0.643280	0.953320	0.672470
H971	H97	0.880400	0.979400	0.336800
H981	H98	0.852000	0.083300	0.001100
H991	H99	0.604500	0.018900	0.339500
H1001	H100	0.669700	0.920700	0.010000
H1011	H101	0.849400	0.940900	0.240900
H1021	H102	0.866300	0.916700	0.131100
H1031	H103	0.886800	0.112500	0.090700
H1041	H104	0.868100	0.139500	0.201100
H1051	H105	0.901200	0.944100	0.549400
H1061	H106	0.897100	0.932300	0.439400
H1071	H107	0.826000	0.129000	0.421300
H1081	H108	0.829800	0.133400	0.533600
H1091	H109	0.914000	0.952700	0.794700
H1101	H110	0.910100	0.946800	0.906100
H1111	H111	0.821500	0.136900	0.900100
H1121	H112	0.827300	0.138000	0.790300
H1131	H113	0.613000	0.860500	0.205200
H1141	H114	0.607800	0.886600	0.092100
H1151	H115	0.618500	0.083600	0.136400
H1161	H116	0.626100	0.057700	0.247700
H1171	H117	0.665300	0.865200	0.541600
H1181	H118	0.663400	0.869100	0.428500
H1191	H119	0.594400	0.066500	0.441400
H1201	H120	0.598000	0.054800	0.551500
H1211	H121	0.700900	0.866600	0.801800
H1221	H122	0.695800	0.865900	0.913100
H1231	H123	0.602700	0.053800	0.905900
H1241	H124	0.611400	0.050600	0.793600
H1251	H125	0.764500	0.781800	0.656400
H1261	H126	0.835000	0.668800	0.651100
H1271	H127	0.748300	0.217600	0.654600
H1281	H128	0.678100	0.331100	0.653800
C1451	C145	0.840900	0.066300	0.300700
C1461	C146	0.878800	0.993300	0.029100
C1471	C147	0.856600	0.042600	0.231900
C1481	C148	0.855800	0.976400	0.211200
C1491	C149	0.864800	0.962200	0.144400
C1501	C150	0.871300	0.011300	0.099300
C1511	C151	0.876700	0.077800	0.120500
C1521	C152	0.867200	0.094100	0.187400
C1531	C153	0.884300	0.981600	0.523400
C1541	C154	0.883000	0.974300	0.457500
C1551	C155	0.860900	0.029300	0.417000
C1561	C156	0.840700	0.090300	0.446300
C1571	C157	0.843100	0.092000	0.514000
C1581	C158	0.895300	0.991300	0.816500
C1591	C159	0.893500	0.987100	0.884100
C1601	C160	0.867600	0.042000	0.917600
C1611	C161	0.841900	0.098100	0.879500
C1621	C162	0.845200	0.098600	0.813200
C1631	C163	0.643900	0.933600	0.307100
C1641	C164	0.616300	0.005100	0.032400
C1651	C165	0.628400	0.956700	0.236600
C1661	C166	0.617600	0.905700	0.191500
C1671	C167	0.613200	0.921500	0.123200
C1681	C168	0.617000	0.988100	0.103300
C1691	C169	0.619900	0.038100	0.149600
C1701	C170	0.625000	0.022600	0.216800
C1711	C171	0.651700	0.906700	0.520900
C1721	C172	0.650500	0.907900	0.452400
C1731	C173	0.628900	0.970000	0.421300
C1741	C174	0.609600	0.024400	0.460400
C1751	C175	0.612700	0.017000	0.526800
C1761	C176	0.678900	0.905100	0.822100
C1771	C177	0.676300	0.904600	0.889600
C1781	C178	0.645200	0.960200	0.922900
C1791	C179	0.622200	0.014100	0.886300
C1801	C180	0.627000	0.011500	0.817900
C1811	C181	0.871100	0.901000	0.669100
C1821	C182	0.491500	0.345200	0.666300
C1831	C183	0.886200	0.826100	0.665600
C1841	C184	0.826300	0.775000	0.659200
C1851	C185	0.867100	0.709400	0.657300
C1861	C186	0.957600	0.712600	0.665400
C1871	C187	0.645000	0.099800	0.669000
C1881	C188	0.023800	0.654800	0.670500
C1891	C189	0.627900	0.173400	0.665400
C1901	C190	0.687300	0.224600	0.658400
C1911	C191	0.646700	0.290300	0.657600
C1921	C192	0.557900	0.286800	0.663000
S71	S7	0.521160	0.204340	0.669760
S81	S8	0.994870	0.795560	0.671590
N251	N25	0.863300	0.019000	0.349200
N261	N26	0.862800	0.039200	0.553400
N271	N27	0.864600	0.044100	0.985000
N281	N28	0.872400	0.045900	0.780000
N291	N29	0.623200	0.979500	0.353600
N301	N30	0.635100	0.959400	0.559100
N311	N31	0.646900	0.957000	0.991700
N321	N32	0.652300	0.956700	0.785700
O371	O37	0.806400	0.120300	0.311150
O381	O38	0.897900	0.936300	0.012900
O391	O39	0.675100	0.877900	0.320600
O401	O40	0.591900	0.063200	0.013200
O411	O41	0.721800	0.075700	0.665900
O421	O42	0.576100	0.061140	0.674300
O431	O43	0.410500	0.332050	0.668700
O441	O44	0.521100	0.404630	0.663950
O451	O45	0.792600	0.922170	0.667700
O461	O46	0.938200	0.938730	0.673000
O471	O47	0.105700	0.667050	0.673300
O481	O48	0.992600	0.594910	0.667770
