data_TEVZOK_freeONLY_PM
_symmetry_space_group_name_H-M	'P1'
_cell_length_a	9.668200
_cell_length_b	11.215100
_cell_length_c	14.436200
_cell_angle_alpha	91.258900
_cell_angle_beta	90.000000
_cell_angle_gamma	90.000000
_symmetry_Int_Tables_number 1

loop_
_symmetry_equiv_pos_as_xyz
'x,y,z'

loop_
_atom_site_label
_atom_site_type_symbol
_atom_site_fract_x
_atom_site_fract_y
_atom_site_fract_z
Zn11	Zn1	0.917150	0.756580	0.130990
Zn21	Zn2	0.099610	0.739330	0.315410
Zn31	Zn3	0.417150	0.743420	0.369010
Zn41	Zn4	0.599610	0.760670	0.184590
Zn51	Zn5	0.082850	0.243420	0.869010
Zn61	Zn6	0.900390	0.260670	0.684590
Zn71	Zn7	0.582850	0.256580	0.630990
Zn81	Zn8	0.400390	0.239330	0.815410
Zn91	Zn9	0.000000	0.500000	0.000000
Zn101	Zn10	0.500000	0.000000	0.500000
Zn111	Zn11	0.000000	0.000000	0.000000
Zn121	Zn12	0.500000	0.500000	0.500000
H11	H1	0.743700	0.867300	0.364200
H21	H2	0.019400	0.471700	0.268200
H31	H3	0.610600	0.563600	0.033900
H41	H4	0.184200	0.984700	0.237300
H51	H5	0.180800	0.696600	0.938600
H61	H6	0.696500	0.993900	0.005900
H71	H7	0.243700	0.632700	0.135800
H81	H8	0.519400	0.028300	0.231800
H91	H9	0.110600	0.936400	0.466100
H101	H10	0.684200	0.515300	0.262700
H111	H11	0.680800	0.803400	0.561400
H121	H12	0.196500	0.506100	0.494100
H131	H13	0.256300	0.132700	0.635800
H141	H14	0.980600	0.528300	0.731800
H151	H15	0.389400	0.436400	0.966100
H161	H16	0.815800	0.015300	0.762700
H171	H17	0.819200	0.303400	0.061400
H181	H18	0.303500	0.006100	0.994100
H191	H19	0.756300	0.367300	0.864200
H201	H20	0.480600	0.971700	0.768200
H211	H21	0.889400	0.063600	0.533900
H221	H22	0.315800	0.484700	0.737300
H231	H23	0.319200	0.196600	0.438600
H241	H24	0.803500	0.493900	0.505900
C11	C1	0.817700	0.835700	0.328000
C21	C2	0.002300	0.514600	0.213400
C31	C3	0.706200	0.578700	0.043600
C41	C4	0.125900	0.956000	0.188800
C51	C5	0.115500	0.741800	0.973800
C61	C6	0.713100	0.931300	0.047700
C71	C7	0.317700	0.664300	0.172000
C81	C8	0.502300	0.985400	0.286600
C91	C9	0.206200	0.921300	0.456400
C101	C10	0.625900	0.544000	0.311200
C111	C11	0.615500	0.758200	0.526200
C121	C12	0.213100	0.568700	0.452300
C131	C13	0.182300	0.164300	0.672000
C141	C14	0.997700	0.485400	0.786600
C151	C15	0.293800	0.421300	0.956400
C161	C16	0.874100	0.044000	0.811200
C171	C17	0.884500	0.258200	0.026200
C181	C18	0.286900	0.068700	0.952300
C191	C19	0.682300	0.335700	0.828000
C201	C20	0.497700	0.014600	0.713400
C211	C21	0.793800	0.078700	0.543600
C221	C22	0.374100	0.456000	0.688800
C231	C23	0.384500	0.241800	0.473800
C241	C24	0.786900	0.431300	0.547700
O11	O1	0.792700	0.814210	0.242810
O21	O2	0.929500	0.819420	0.368920
O31	O3	0.994900	0.627720	0.221920
O41	O4	0.989500	0.455060	0.140960
O51	O5	0.737300	0.652930	0.108430
O61	O6	0.788000	0.524490	0.992190
O71	O7	0.079700	0.849330	0.195930
O81	O8	0.102400	0.024750	0.125550
O91	O9	0.030800	0.683390	0.025390
O101	O10	0.118700	0.850550	0.966550
O111	O11	0.839100	0.897540	0.057140
O121	O12	0.611100	0.889860	0.087860
O131	O13	0.292700	0.685790	0.257190
O141	O14	0.429500	0.680580	0.131080
O151	O15	0.494900	0.872280	0.278080
O161	O16	0.489500	0.044940	0.359040
O171	O17	0.237300	0.847070	0.391570
O181	O18	0.288000	0.975510	0.507810
O191	O19	0.579700	0.650670	0.304070
O201	O20	0.602400	0.475250	0.374450
O211	O21	0.530800	0.816610	0.474610
O221	O22	0.618700	0.649450	0.533450
O231	O23	0.339100	0.602460	0.442860
O241	O24	0.111100	0.610140	0.412140
O251	O25	0.207300	0.185790	0.757190
O261	O26	0.070500	0.180580	0.631080
O271	O27	0.005100	0.372280	0.778080
O281	O28	0.010500	0.544940	0.859040
O291	O29	0.262700	0.347070	0.891570
O301	O30	0.212000	0.475510	0.007810
O311	O31	0.920300	0.150670	0.804070
O321	O32	0.897600	0.975250	0.874450
O331	O33	0.969200	0.316610	0.974610
O341	O34	0.881300	0.149450	0.033450
O351	O35	0.160900	0.102460	0.942860
O361	O36	0.388900	0.110140	0.912140
O371	O37	0.707300	0.314210	0.742810
O381	O38	0.570500	0.319420	0.868920
O391	O39	0.505100	0.127720	0.721920
O401	O40	0.510500	0.955060	0.640960
O411	O41	0.762700	0.152930	0.608430
O421	O42	0.712000	0.024490	0.492190
O431	O43	0.420300	0.349330	0.695930
O441	O44	0.397600	0.524750	0.625550
O451	O45	0.469200	0.183390	0.525390
O461	O46	0.381300	0.350550	0.466550
O471	O47	0.660900	0.397540	0.557140
O481	O48	0.888900	0.389860	0.587860
