data_TEVZUQ_freeONLY_PM
_symmetry_space_group_name_H-M	'P1'
_cell_length_a	9.825000
_cell_length_b	11.295800
_cell_length_c	14.732900
_cell_angle_alpha	91.494300
_cell_angle_beta	90.000000
_cell_angle_gamma	90.000000
_symmetry_Int_Tables_number 1

loop_
_symmetry_equiv_pos_as_xyz
'x,y,z'

loop_
_atom_site_label
_atom_site_type_symbol
_atom_site_fract_x
_atom_site_fract_y
_atom_site_fract_z
Zn11	Zn1	0.926330	0.756950	0.131710
Zn21	Zn2	0.115040	0.741720	0.307920
Zn31	Zn3	0.426330	0.743050	0.368290
Zn41	Zn4	0.615040	0.758280	0.192080
Zn51	Zn5	0.073670	0.243050	0.868290
Zn61	Zn6	0.884960	0.258280	0.692080
Zn71	Zn7	0.573670	0.256950	0.631710
Zn81	Zn8	0.384960	0.241720	0.807920
Zn91	Zn9	0.000000	0.500000	0.000000
Zn101	Zn10	0.500000	0.000000	0.500000
Zn111	Zn11	0.000000	0.000000	0.000000
Zn121	Zn12	0.500000	0.500000	0.500000
H11	H1	0.762700	0.855500	0.368200
H21	H2	0.049800	0.478100	0.259900
H31	H3	0.618100	0.560800	0.046200
H41	H4	0.207400	0.979100	0.222800
H51	H5	0.163600	0.695800	0.928800
H61	H6	0.706500	0.998100	0.021800
H71	H7	0.262700	0.644500	0.131800
H81	H8	0.549800	0.021900	0.240100
H91	H9	0.118100	0.939200	0.453800
H101	H10	0.707400	0.520900	0.277200
H111	H11	0.663600	0.804200	0.571200
H121	H12	0.206500	0.501900	0.478200
H131	H13	0.237300	0.144500	0.631800
H141	H14	0.950200	0.521900	0.740100
H151	H15	0.381900	0.439200	0.953800
H161	H16	0.792600	0.020900	0.777200
H171	H17	0.836400	0.304200	0.071200
H181	H18	0.293500	0.001900	0.978200
H191	H19	0.737300	0.355500	0.868200
H201	H20	0.450200	0.978100	0.759900
H211	H21	0.881900	0.060800	0.546200
H221	H22	0.292600	0.479100	0.722800
H231	H23	0.336400	0.195800	0.428800
H241	H24	0.793500	0.498100	0.521800
C11	C1	0.834600	0.826500	0.330800
C21	C2	0.023600	0.519000	0.207100
C31	C3	0.712700	0.576700	0.052100
C41	C4	0.141900	0.952200	0.179500
C51	C5	0.105700	0.741600	0.967600
C61	C6	0.724800	0.934300	0.060700
C71	C7	0.334600	0.673500	0.169200
C81	C8	0.523600	0.981000	0.292900
C91	C9	0.212700	0.923300	0.447900
C101	C10	0.641900	0.547800	0.320500
C111	C11	0.605700	0.758400	0.532400
C121	C12	0.224800	0.565700	0.439300
C131	C13	0.165400	0.173500	0.669200
C141	C14	0.976400	0.481000	0.792900
C151	C15	0.287300	0.423300	0.947900
C161	C16	0.858100	0.047800	0.820500
C171	C17	0.894300	0.258400	0.032400
C181	C18	0.275200	0.065700	0.939300
C191	C19	0.665400	0.326500	0.830800
C201	C20	0.476400	0.019000	0.707100
C211	C21	0.787300	0.076700	0.552100
C221	C22	0.358100	0.452200	0.679500
C231	C23	0.394300	0.241600	0.467600
C241	C24	0.775200	0.434300	0.560700
O11	O1	0.807200	0.807290	0.247390
O21	O2	0.946500	0.810790	0.368090
O31	O3	0.012800	0.630010	0.215310
O41	O4	0.003600	0.457800	0.137600
O51	O5	0.748300	0.655000	0.112100
O61	O6	0.790800	0.519930	0.000930
O71	O7	0.087300	0.851160	0.193160
O81	O8	0.118500	0.017800	0.116300
O91	O9	0.029300	0.685010	0.023510
O101	O10	0.109400	0.849280	0.960780
O111	O11	0.848500	0.899690	0.064890
O121	O12	0.626600	0.893760	0.101860
O131	O13	0.307200	0.692710	0.252610
O141	O14	0.446500	0.689210	0.131910
O151	O15	0.512800	0.869990	0.284690
O161	O16	0.503600	0.042200	0.362400
O171	O17	0.248300	0.845000	0.387900
O181	O18	0.290800	0.980070	0.499070
O191	O19	0.587300	0.648840	0.306840
O201	O20	0.618500	0.482200	0.383700
O211	O21	0.529300	0.814990	0.476490
O221	O22	0.609400	0.650720	0.539220
O231	O23	0.348500	0.600310	0.435110
O241	O24	0.126600	0.606240	0.398140
O251	O25	0.192800	0.192710	0.752610
O261	O26	0.053500	0.189210	0.631910
O271	O27	0.987200	0.369990	0.784690
O281	O28	0.996400	0.542200	0.862400
O291	O29	0.251700	0.345000	0.887900
O301	O30	0.209200	0.480070	0.999070
O311	O31	0.912700	0.148840	0.806840
O321	O32	0.881500	0.982200	0.883700
O331	O33	0.970700	0.314990	0.976490
O341	O34	0.890600	0.150720	0.039220
O351	O35	0.151500	0.100310	0.935110
O361	O36	0.373400	0.106240	0.898140
O371	O37	0.692800	0.307290	0.747390
O381	O38	0.553500	0.310790	0.868090
O391	O39	0.487200	0.130010	0.715310
O401	O40	0.496400	0.957800	0.637600
O411	O41	0.751700	0.155000	0.612100
O421	O42	0.709200	0.019930	0.500930
O431	O43	0.412700	0.351160	0.693160
O441	O44	0.381500	0.517800	0.616300
O451	O45	0.470700	0.185010	0.523510
O461	O46	0.390600	0.349280	0.460780
O471	O47	0.651500	0.399690	0.564890
O481	O48	0.873400	0.393760	0.601860
