data_TIQHAD_freeONLY_PM
_symmetry_space_group_name_H-M	'P1'
_cell_length_a	12.234000
_cell_length_b	12.234000
_cell_length_c	12.373000
_cell_angle_alpha	90.000000
_cell_angle_beta	90.000000
_cell_angle_gamma	90.000000
_symmetry_Int_Tables_number 1

loop_
_symmetry_equiv_pos_as_xyz
'x,y,z'

loop_
_atom_site_label
_atom_site_type_symbol
_atom_site_fract_x
_atom_site_fract_y
_atom_site_fract_z
Na11	Na1	0.471300	0.721800	0.506700
Na21	Na2	0.528700	0.278200	0.506700
Na31	Na3	0.721800	0.528700	0.493300
Na41	Na4	0.278200	0.471300	0.493300
Na51	Na5	0.500000	0.000000	0.487000
Na61	Na6	0.000000	0.500000	0.513000
Gd11	Gd1	0.000000	0.000000	0.000000
H11	H1	0.719900	0.892700	0.877200
H21	H2	0.649200	0.884300	0.705300
H31	H3	0.943800	0.779800	0.597700
H41	H4	0.019700	0.610700	0.734400
H51	H5	0.324700	0.667500	0.840800
H61	H6	0.275200	0.844500	0.876600
H71	H7	0.280100	0.107300	0.877200
H81	H8	0.350800	0.115700	0.705300
H91	H9	0.056200	0.220200	0.597700
H101	H10	0.980300	0.389300	0.734400
H111	H11	0.675300	0.332500	0.840800
H121	H12	0.724800	0.155500	0.876600
H131	H13	0.892700	0.280100	0.122800
H141	H14	0.884300	0.350800	0.294700
H151	H15	0.779800	0.056200	0.402300
H161	H16	0.610700	0.980300	0.265600
H171	H17	0.667500	0.675300	0.159200
H181	H18	0.844500	0.724800	0.123400
H191	H19	0.107300	0.719900	0.122800
H201	H20	0.115700	0.649200	0.294700
H211	H21	0.220200	0.943800	0.402300
H221	H22	0.389300	0.019700	0.265600
H231	H23	0.332500	0.324700	0.159200
H241	H24	0.155500	0.275200	0.123400
C11	C1	0.763600	0.868300	0.820600
C21	C2	0.721200	0.863800	0.718300
C31	C3	0.788600	0.827500	0.633000
C41	C4	0.897300	0.800300	0.653600
C51	C5	0.934700	0.804700	0.759100
C61	C6	0.045200	0.763600	0.785900
C71	C7	0.072700	0.657600	0.761800
C81	C8	0.178500	0.619200	0.777600
C91	C9	0.254300	0.691300	0.825000
C101	C10	0.223900	0.796600	0.847700
C111	C11	0.236400	0.131700	0.820600
C121	C12	0.278800	0.136200	0.718300
C131	C13	0.211400	0.172500	0.633000
C141	C14	0.102700	0.199700	0.653600
C151	C15	0.065300	0.195300	0.759100
C161	C16	0.954800	0.236400	0.785900
C171	C17	0.927300	0.342400	0.761800
C181	C18	0.821500	0.380800	0.777600
C191	C19	0.745700	0.308700	0.825000
C201	C20	0.776100	0.203400	0.847700
C211	C21	0.868300	0.236400	0.179400
C221	C22	0.863800	0.278800	0.281700
C231	C23	0.827500	0.211400	0.367000
C241	C24	0.800300	0.102700	0.346400
C251	C25	0.804700	0.065300	0.240900
C261	C26	0.763600	0.954800	0.214100
C271	C27	0.657600	0.927300	0.238200
C281	C28	0.619200	0.821500	0.222400
C291	C29	0.691300	0.745700	0.175000
C301	C30	0.796600	0.776100	0.152300
C311	C31	0.131700	0.763600	0.179400
C321	C32	0.136200	0.721200	0.281700
C331	C33	0.172500	0.788600	0.367000
C341	C34	0.199700	0.897300	0.346400
C351	C35	0.195300	0.934700	0.240900
C361	C36	0.236400	0.045200	0.214100
C371	C37	0.342400	0.072700	0.238200
C381	C38	0.380800	0.178500	0.222400
C391	C39	0.308700	0.254300	0.175000
C401	C40	0.203400	0.223900	0.152300
S11	S1	0.734150	0.816410	0.500200
S21	S2	0.213380	0.484240	0.740350
S31	S3	0.265850	0.183590	0.500200
S41	S4	0.786620	0.515760	0.740350
S51	S5	0.816410	0.265850	0.499800
S61	S6	0.484240	0.786620	0.259650
S71	S7	0.183590	0.734150	0.499800
S81	S8	0.515760	0.213380	0.259650
N11	N1	0.868200	0.837800	0.840800
N21	N2	0.122500	0.832300	0.829200
N31	N3	0.131800	0.162200	0.840800
N41	N4	0.877500	0.167700	0.829200
N51	N5	0.837800	0.131800	0.159200
N61	N6	0.832300	0.877500	0.170800
N71	N7	0.162200	0.868200	0.159200
N81	N8	0.167700	0.122500	0.170800
Cl11	Cl1	0.500000	0.500000	0.500000
O11	O1	0.905700	0.843000	0.940900
O21	O2	0.096800	0.934600	0.846300
O31	O3	0.668900	0.914000	0.487500
O41	O4	0.667400	0.716300	0.503800
O51	O5	0.826000	0.808400	0.427800
O61	O6	0.143700	0.460000	0.649900
O71	O7	0.192400	0.417300	0.833700
O81	O8	0.328400	0.488200	0.706800
O91	O9	0.417200	0.882200	0.616800
O101	O10	0.491000	0.651500	0.679600
O111	O11	0.094300	0.157000	0.940900
O121	O12	0.903200	0.065400	0.846300
O131	O13	0.331100	0.086000	0.487500
O141	O14	0.332600	0.283700	0.503800
O151	O15	0.174000	0.191600	0.427800
O161	O16	0.856300	0.540000	0.649900
O171	O17	0.807600	0.582700	0.833700
O181	O18	0.671600	0.511800	0.706800
O191	O19	0.582800	0.117800	0.616800
O201	O20	0.509000	0.348500	0.679600
O211	O21	0.843000	0.094300	0.059100
O221	O22	0.934600	0.903200	0.153700
O231	O23	0.914000	0.331100	0.512500
O241	O24	0.716300	0.332600	0.496200
O251	O25	0.808400	0.174000	0.572200
O261	O26	0.460000	0.856300	0.350100
O271	O27	0.417300	0.807600	0.166300
O281	O28	0.488200	0.671600	0.293200
O291	O29	0.882200	0.582800	0.383200
O301	O30	0.651500	0.509000	0.320400
O311	O31	0.157000	0.905700	0.059100
O321	O32	0.065400	0.096800	0.153700
O331	O33	0.086000	0.668900	0.512500
O341	O34	0.283700	0.667400	0.496200
O351	O35	0.191600	0.826000	0.572200
O361	O36	0.540000	0.143700	0.350100
O371	O37	0.582700	0.192400	0.166300
O381	O38	0.511800	0.328400	0.293200
O391	O39	0.117800	0.417200	0.383200
O401	O40	0.348500	0.491000	0.320400
