data_TIQHIL_freeONLY_PM
_symmetry_space_group_name_H-M	'P1'
_cell_length_a	12.213000
_cell_length_b	12.213000
_cell_length_c	12.345000
_cell_angle_alpha	90.000000
_cell_angle_beta	90.000000
_cell_angle_gamma	90.000000
_symmetry_Int_Tables_number 1

loop_
_symmetry_equiv_pos_as_xyz
'x,y,z'

loop_
_atom_site_label
_atom_site_type_symbol
_atom_site_fract_x
_atom_site_fract_y
_atom_site_fract_z
Na11	Na1	0.279500	0.471700	0.504600
Na21	Na2	0.720500	0.528300	0.504600
Na31	Na3	0.471700	0.720500	0.495400
Na41	Na4	0.528300	0.279500	0.495400
Na51	Na5	0.500000	0.000000	0.512100
Na61	Na6	0.000000	0.500000	0.487900
Dy11	Dy1	0.000000	0.000000	0.000000
H11	H1	0.279400	0.104800	0.123400
H21	H2	0.350400	0.118600	0.294900
H31	H3	0.058200	0.223900	0.401200
H41	H4	0.979200	0.390500	0.266100
H51	H5	0.674800	0.332300	0.161400
H61	H6	0.725200	0.155200	0.119500
H71	H7	0.720600	0.895200	0.123400
H81	H8	0.649600	0.881400	0.294900
H91	H9	0.941800	0.776100	0.401200
H101	H10	0.020800	0.609500	0.266100
H111	H11	0.325200	0.667700	0.161400
H121	H12	0.274800	0.844800	0.119500
H131	H13	0.104800	0.720600	0.876600
H141	H14	0.118600	0.649600	0.705100
H151	H15	0.223900	0.941800	0.598800
H161	H16	0.390500	0.020800	0.733900
H171	H17	0.332300	0.325200	0.838600
H181	H18	0.155200	0.274800	0.880500
H191	H19	0.895200	0.279400	0.876600
H201	H20	0.881400	0.350400	0.705100
H211	H21	0.776100	0.058200	0.598800
H221	H22	0.609500	0.979200	0.733900
H231	H23	0.667700	0.674800	0.838600
H241	H24	0.844800	0.725200	0.880500
C11	C1	0.235600	0.130400	0.179600
C21	C2	0.277600	0.136700	0.282100
C31	C3	0.211000	0.170300	0.366400
C41	C4	0.103600	0.200200	0.345500
C51	C5	0.065100	0.194200	0.240100
C61	C6	0.955500	0.235800	0.212500
C71	C7	0.927000	0.343100	0.237700
C81	C8	0.821100	0.379400	0.220700
C91	C9	0.745800	0.308600	0.175200
C101	C10	0.776000	0.202600	0.150300
C111	C11	0.764400	0.869600	0.179600
C121	C12	0.722400	0.863300	0.282100
C131	C13	0.789000	0.829700	0.366400
C141	C14	0.896400	0.799800	0.345500
C151	C15	0.934900	0.805800	0.240100
C161	C16	0.044500	0.764200	0.212500
C171	C17	0.073000	0.656900	0.237700
C181	C18	0.178900	0.620600	0.220700
C191	C19	0.254200	0.691400	0.175200
C201	C20	0.224000	0.797400	0.150300
C211	C21	0.130400	0.764400	0.820400
C221	C22	0.136700	0.722400	0.717900
C231	C23	0.170300	0.789000	0.633600
C241	C24	0.200200	0.896400	0.654500
C251	C25	0.194200	0.934900	0.759900
C261	C26	0.235800	0.044500	0.787500
C271	C27	0.343100	0.073000	0.762300
C281	C28	0.379400	0.178900	0.779300
C291	C29	0.308600	0.254200	0.824800
C301	C30	0.202600	0.224000	0.849700
C311	C31	0.869600	0.235600	0.820400
C321	C32	0.863300	0.277600	0.717900
C331	C33	0.829700	0.211000	0.633600
C341	C34	0.799800	0.103600	0.654500
C351	C35	0.805800	0.065100	0.759900
C361	C36	0.764200	0.955500	0.787500
C371	C37	0.656900	0.927000	0.762300
C381	C38	0.620600	0.821100	0.779300
C391	C39	0.691400	0.745800	0.824800
C401	C40	0.797400	0.776000	0.849700
S11	S1	0.265200	0.182920	0.499980
S21	S2	0.786630	0.515340	0.259060
S31	S3	0.734800	0.817080	0.499980
S41	S4	0.213370	0.484660	0.259060
S51	S5	0.182920	0.734800	0.500020
S61	S6	0.515340	0.213370	0.740940
S71	S7	0.817080	0.265200	0.500020
S81	S8	0.484660	0.786630	0.740940
N11	N1	0.132600	0.160400	0.159100
N21	N2	0.878100	0.167500	0.170000
N31	N3	0.867400	0.839600	0.159100
N41	N4	0.121900	0.832500	0.170000
N51	N5	0.160400	0.867400	0.840900
N61	N6	0.167500	0.121900	0.830000
N71	N7	0.839600	0.132600	0.840900
N81	N8	0.832500	0.878100	0.830000
Cl11	Cl1	0.500000	0.500000	0.500000
O11	O1	0.094900	0.154700	0.058300
O21	O2	0.903700	0.064500	0.152600
O31	O3	0.330500	0.084800	0.513600
O41	O4	0.331500	0.282300	0.497400
O51	O5	0.173000	0.191100	0.572400
O61	O6	0.857200	0.541200	0.348800
O71	O7	0.806500	0.582600	0.165800
O81	O8	0.673000	0.509700	0.291500
O91	O9	0.583500	0.116900	0.382400
O101	O10	0.343700	0.488800	0.680300
O111	O11	0.905100	0.845300	0.058300
O121	O12	0.096300	0.935500	0.152600
O131	O13	0.669500	0.915200	0.513600
O141	O14	0.668500	0.717700	0.497400
O151	O15	0.827000	0.808900	0.572400
O161	O16	0.142800	0.458800	0.348800
O171	O17	0.193500	0.417400	0.165800
O181	O18	0.327000	0.490300	0.291500
O191	O19	0.416500	0.883100	0.382400
O201	O20	0.656300	0.511200	0.680300
O211	O21	0.154700	0.905100	0.941700
O221	O22	0.064500	0.096300	0.847400
O231	O23	0.084800	0.669500	0.486400
O241	O24	0.282300	0.668500	0.502600
O251	O25	0.191100	0.827000	0.427600
O261	O26	0.541200	0.142800	0.651200
O271	O27	0.582600	0.193500	0.834200
O281	O28	0.509700	0.327000	0.708500
O291	O29	0.116900	0.416500	0.617600
O301	O30	0.488800	0.656300	0.319700
O311	O31	0.845300	0.094900	0.941700
O321	O32	0.935500	0.903700	0.847400
O331	O33	0.915200	0.330500	0.486400
O341	O34	0.717700	0.331500	0.502600
O351	O35	0.808900	0.173000	0.427600
O361	O36	0.458800	0.857200	0.651200
O371	O37	0.417400	0.806500	0.834200
O381	O38	0.490300	0.673000	0.708500
O391	O39	0.883100	0.583500	0.617600
O401	O40	0.511200	0.343700	0.319700
