data_TIRLIQ_freeONLY_PM
_symmetry_space_group_name_H-M	'P1'
_cell_length_a	11.805000
_cell_length_b	17.142000
_cell_length_c	21.544000
_cell_angle_alpha	90.000000
_cell_angle_beta	90.000000
_cell_angle_gamma	106.441000
_symmetry_Int_Tables_number 1

loop_
_symmetry_equiv_pos_as_xyz
'x,y,z'

loop_
_atom_site_label
_atom_site_type_symbol
_atom_site_fract_x
_atom_site_fract_y
_atom_site_fract_z
Zn11	Zn1	0.823240	0.727250	0.572060
Zn21	Zn2	0.640240	0.828520	0.620400
Zn31	Zn3	0.064870	0.365680	0.532520
Zn41	Zn4	0.676760	0.272750	0.072060
Zn51	Zn5	0.859760	0.171480	0.120400
Zn61	Zn6	0.435130	0.634320	0.032520
Zn71	Zn7	0.176760	0.272750	0.427940
Zn81	Zn8	0.359760	0.171480	0.379600
Zn91	Zn9	0.935130	0.634320	0.467480
Zn101	Zn10	0.323240	0.727250	0.927940
Zn111	Zn11	0.140240	0.828520	0.879600
Zn121	Zn12	0.564870	0.365680	0.967480
H11	H1	0.409100	0.801600	0.679800
H21	H2	0.283800	0.872100	0.717700
H31	H3	0.332300	0.005700	0.711100
H41	H4	0.503700	0.075500	0.655300
H51	H5	0.626600	0.995700	0.617400
H61	H6	0.099000	0.367600	0.670500
H71	H7	0.036600	0.415500	0.756900
H81	H8	0.897400	0.486300	0.749100
H91	H9	0.830300	0.510500	0.652200
H101	H10	0.893600	0.454300	0.567800
H111	H11	0.108300	0.927700	0.584100
H121	H12	0.265700	0.037900	0.563300
H131	H13	0.238000	0.164900	0.553100
H141	H14	0.890000	0.068000	0.582600
H151	H15	0.574100	0.515500	0.621200
H161	H16	0.405700	0.408700	0.637300
H171	H17	0.344800	0.308300	0.563000
H181	H18	0.629400	0.413600	0.460900
H191	H19	0.193500	0.572100	0.584800
H201	H20	0.328500	0.560900	0.660800
H211	H21	0.331100	0.624600	0.755000
H221	H22	0.083100	0.724900	0.695600
H231	H23	0.090900	0.198400	0.179800
H241	H24	0.216200	0.127900	0.217700
H251	H25	0.167700	0.994300	0.211100
H261	H26	0.996300	0.924500	0.155300
H271	H27	0.873400	0.004300	0.117400
H281	H28	0.401000	0.632400	0.170500
H291	H29	0.463400	0.584500	0.256900
H301	H30	0.602600	0.513700	0.249100
H311	H31	0.669700	0.489500	0.152200
H321	H32	0.606400	0.545700	0.067800
H331	H33	0.391700	0.072300	0.084100
H341	H34	0.234300	0.962100	0.063300
H351	H35	0.262000	0.835100	0.053100
H361	H36	0.610000	0.932000	0.082600
H371	H37	0.925900	0.484500	0.121200
H381	H38	0.094300	0.591300	0.137300
H391	H39	0.155200	0.691700	0.063000
H401	H40	0.870600	0.586400	0.960900
H411	H41	0.306500	0.427900	0.084800
H421	H42	0.171500	0.439100	0.160800
H431	H43	0.168900	0.375400	0.255000
H441	H44	0.416900	0.275100	0.195600
H451	H45	0.590900	0.198400	0.320200
H461	H46	0.716200	0.127900	0.282300
H471	H47	0.667700	0.994300	0.288900
H481	H48	0.496300	0.924500	0.344700
H491	H49	0.373400	0.004300	0.382600
H501	H50	0.901000	0.632400	0.329500
H511	H51	0.963400	0.584500	0.243100
H521	H52	0.102600	0.513700	0.250900
H531	H53	0.169700	0.489500	0.347800
H541	H54	0.106400	0.545700	0.432200
H551	H55	0.891700	0.072300	0.415900
H561	H56	0.734300	0.962100	0.436700
H571	H57	0.762000	0.835100	0.446900
H581	H58	0.110000	0.932000	0.417400
H591	H59	0.425900	0.484500	0.378800
H601	H60	0.594300	0.591300	0.362700
H611	H61	0.655200	0.691700	0.437000
H621	H62	0.370600	0.586400	0.539100
H631	H63	0.806500	0.427900	0.415200
H641	H64	0.671500	0.439100	0.339200
H651	H65	0.668900	0.375400	0.245000
H661	H66	0.916900	0.275100	0.304400
H671	H67	0.909100	0.801600	0.820200
H681	H68	0.783800	0.872100	0.782300
H691	H69	0.832300	0.005700	0.788900
H701	H70	0.003700	0.075500	0.844700
H711	H71	0.126600	0.995700	0.882600
H721	H72	0.599000	0.367600	0.829500
H731	H73	0.536600	0.415500	0.743100
H741	H74	0.397400	0.486300	0.750900
H751	H75	0.330300	0.510500	0.847800
H761	H76	0.393600	0.454300	0.932200
H771	H77	0.608300	0.927700	0.915900
H781	H78	0.765700	0.037900	0.936700
H791	H79	0.738000	0.164900	0.946900
H801	H80	0.390000	0.068000	0.917400
H811	H81	0.074100	0.515500	0.878800
H821	H82	0.905700	0.408700	0.862700
H831	H83	0.844800	0.308300	0.937000
H841	H84	0.129400	0.413600	0.039100
H851	H85	0.693500	0.572100	0.915200
H861	H86	0.828500	0.560900	0.839200
H871	H87	0.831100	0.624600	0.745000
H881	H88	0.583100	0.724900	0.804400
C11	C1	0.431200	0.857900	0.675700
C21	C2	0.354300	0.900300	0.698700
C31	C3	0.380900	0.977400	0.693700
C41	C4	0.484000	0.019600	0.661800
C51	C5	0.558100	0.970400	0.639300
C61	C6	0.042700	0.395800	0.666700
C71	C7	0.006700	0.424300	0.718400
C81	C8	0.924900	0.466600	0.713600
C91	C9	0.883600	0.480100	0.656700
C101	C10	0.923600	0.447200	0.606700
C111	C11	0.882200	0.911800	0.592400
C121	C12	0.983800	0.986500	0.584100
C131	C13	0.096300	0.978700	0.579200
C141	C14	0.190400	0.044300	0.567100
C151	C15	0.173800	0.119900	0.560600
C161	C16	0.059600	0.129300	0.565200
C171	C17	0.965500	0.062200	0.578000
C181	C18	0.039700	0.211300	0.555800
C191	C19	0.722800	0.547300	0.526100
C201	C20	0.619400	0.477000	0.538800
C211	C21	0.551500	0.474300	0.591800
C221	C22	0.449800	0.410500	0.601300
C231	C23	0.414300	0.349900	0.557400
C241	C24	0.481400	0.351200	0.505700
C251	C25	0.584000	0.413800	0.496100
C261	C26	0.444700	0.286900	0.456600
C271	C27	0.043500	0.662200	0.582900
C281	C28	0.127000	0.651700	0.633100
C291	C29	0.198600	0.600300	0.622100
C301	C30	0.277500	0.592500	0.667900
C311	C31	0.279900	0.631700	0.724100
C321	C32	0.207200	0.681600	0.735600
C331	C33	0.131500	0.691200	0.689000
C341	C34	0.213500	0.724000	0.796200
C351	C35	0.068800	0.142100	0.175700
C361	C36	0.145700	0.099700	0.198700
C371	C37	0.119100	0.022600	0.193700
C381	C38	0.016000	0.980400	0.161800
C391	C39	0.941900	0.029600	0.139300
C401	C40	0.457300	0.604200	0.166700
C411	C41	0.493300	0.575700	0.218400
C421	C42	0.575100	0.533400	0.213600
C431	C43	0.616400	0.519900	0.156700
C441	C44	0.576400	0.552800	0.106700
C451	C45	0.617800	0.088200	0.092400
C461	C46	0.516200	0.013500	0.084100
C471	C47	0.403700	0.021300	0.079200
C481	C48	0.309600	0.955700	0.067100
C491	C49	0.326200	0.880100	0.060600
C501	C50	0.440400	0.870700	0.065200
C511	C51	0.534500	0.937800	0.078000
C521	C52	0.460300	0.788700	0.055800
C531	C53	0.777200	0.452700	0.026100
C541	C54	0.880600	0.523000	0.038800
C551	C55	0.948500	0.525700	0.091800
C561	C56	0.050200	0.589500	0.101300
C571	C57	0.085700	0.650100	0.057400
C581	C58	0.018600	0.648800	0.005700
C591	C59	0.916000	0.586200	0.996100
C601	C60	0.055300	0.713100	0.956600
C611	C61	0.456500	0.337800	0.082900
C621	C62	0.373000	0.348300	0.133100
C631	C63	0.301400	0.399700	0.122100
C641	C64	0.222500	0.407500	0.167900
C651	C65	0.220100	0.368300	0.224100
C661	C66	0.292800	0.318400	0.235600
C671	C67	0.368500	0.308800	0.189000
C681	C68	0.286500	0.276000	0.296200
C691	C69	0.568800	0.142100	0.324300
C701	C70	0.645700	0.099700	0.301300
C711	C71	0.619100	0.022600	0.306300
C721	C72	0.516000	0.980400	0.338200
C731	C73	0.441900	0.029600	0.360700
C741	C74	0.957300	0.604200	0.333300
C751	C75	0.993300	0.575700	0.281600
C761	C76	0.075100	0.533400	0.286400
C771	C77	0.116400	0.519900	0.343300
C781	C78	0.076400	0.552800	0.393300
C791	C79	0.117800	0.088200	0.407600
C801	C80	0.016200	0.013500	0.415900
C811	C81	0.903700	0.021300	0.420800
C821	C82	0.809600	0.955700	0.432900
C831	C83	0.826200	0.880100	0.439400
C841	C84	0.940400	0.870700	0.434800
C851	C85	0.034500	0.937800	0.422000
C861	C86	0.960300	0.788700	0.444200
C871	C87	0.277200	0.452700	0.473900
C881	C88	0.380600	0.523000	0.461200
C891	C89	0.448500	0.525700	0.408200
C901	C90	0.550200	0.589500	0.398700
C911	C91	0.585700	0.650100	0.442600
C921	C92	0.518600	0.648800	0.494300
C931	C93	0.416000	0.586200	0.503900
C941	C94	0.555300	0.713100	0.543400
C951	C95	0.956500	0.337800	0.417100
C961	C96	0.873000	0.348300	0.366900
C971	C97	0.801400	0.399700	0.377900
C981	C98	0.722500	0.407500	0.332100
C991	C99	0.720100	0.368300	0.275900
C1001	C100	0.792800	0.318400	0.264400
C1011	C101	0.868500	0.308800	0.311000
C1021	C102	0.786500	0.276000	0.203800
C1031	C103	0.931200	0.857900	0.824300
C1041	C104	0.854300	0.900300	0.801300
C1051	C105	0.880900	0.977400	0.806300
C1061	C106	0.984000	0.019600	0.838200
C1071	C107	0.058100	0.970400	0.860700
C1081	C108	0.542700	0.395800	0.833300
C1091	C109	0.506700	0.424300	0.781600
C1101	C110	0.424900	0.466600	0.786400
C1111	C111	0.383600	0.480100	0.843300
C1121	C112	0.423600	0.447200	0.893300
C1131	C113	0.382200	0.911800	0.907600
C1141	C114	0.483800	0.986500	0.915900
C1151	C115	0.596300	0.978700	0.920800
C1161	C116	0.690400	0.044300	0.932900
C1171	C117	0.673800	0.119900	0.939400
C1181	C118	0.559600	0.129300	0.934800
C1191	C119	0.465500	0.062200	0.922000
C1201	C120	0.539700	0.211300	0.944200
C1211	C121	0.222800	0.547300	0.973900
C1221	C122	0.119400	0.477000	0.961200
C1231	C123	0.051500	0.474300	0.908200
C1241	C124	0.949800	0.410500	0.898700
C1251	C125	0.914300	0.349900	0.942600
C1261	C126	0.981400	0.351200	0.994300
C1271	C127	0.084000	0.413800	0.003900
C1281	C128	0.944700	0.286900	0.043400
C1291	C129	0.543500	0.662200	0.917100
C1301	C130	0.627000	0.651700	0.866900
C1311	C131	0.698600	0.600300	0.877900
C1321	C132	0.777500	0.592500	0.832100
C1331	C133	0.779900	0.631700	0.775900
C1341	C134	0.707200	0.681600	0.764400
C1351	C135	0.631500	0.691200	0.811000
C1361	C136	0.713500	0.724000	0.703800
N11	N1	0.531700	0.893000	0.648900
N21	N2	0.003700	0.405100	0.610000
N31	N3	0.968300	0.107000	0.148900
N41	N4	0.496300	0.594900	0.110000
N51	N5	0.468300	0.107000	0.351100
N61	N6	0.996300	0.594900	0.390000
N71	N7	0.031700	0.893000	0.851100
N81	N8	0.503700	0.405100	0.890000
O11	O1	0.782900	0.921000	0.607400
O21	O2	0.903500	0.844900	0.582900
O31	O3	0.946300	0.223600	0.571300
O41	O4	0.125100	0.268400	0.530300
O51	O5	0.738700	0.606700	0.561200
O61	O6	0.789000	0.543600	0.480600
O71	O7	0.337500	0.243700	0.454400
O81	O8	0.517700	0.273300	0.420400
O91	O9	0.042100	0.622400	0.532900
O101	O10	0.983500	0.709100	0.593300
O111	O11	0.151900	0.772600	0.801800
O121	O12	0.275800	0.706400	0.836800
O131	O13	0.717100	0.079000	0.107400
O141	O14	0.596500	0.155100	0.082900
O151	O15	0.553700	0.776400	0.071300
O161	O16	0.374900	0.731600	0.030300
O171	O17	0.761300	0.393300	0.061200
O181	O18	0.711000	0.456400	0.980600
O191	O19	0.162500	0.756300	0.954400
O201	O20	0.982300	0.726700	0.920400
O211	O21	0.457900	0.377600	0.032900
O221	O22	0.516500	0.290900	0.093300
O231	O23	0.348100	0.227400	0.301800
O241	O24	0.224200	0.293600	0.336800
O251	O25	0.217100	0.079000	0.392600
O261	O26	0.096500	0.155100	0.417100
O271	O27	0.053700	0.776400	0.428700
O281	O28	0.874900	0.731600	0.469700
O291	O29	0.261300	0.393300	0.438800
O301	O30	0.211000	0.456400	0.519400
O311	O31	0.662500	0.756300	0.545600
O321	O32	0.482300	0.726700	0.579600
O331	O33	0.957900	0.377600	0.467100
O341	O34	0.016500	0.290900	0.406700
O351	O35	0.848100	0.227400	0.198200
O361	O36	0.724200	0.293600	0.163200
O371	O37	0.282900	0.921000	0.892600
O381	O38	0.403500	0.844900	0.917100
O391	O39	0.446300	0.223600	0.928700
O401	O40	0.625100	0.268400	0.969700
O411	O41	0.238700	0.606700	0.938800
O421	O42	0.289000	0.543600	0.019400
O431	O43	0.837500	0.243700	0.045600
O441	O44	0.017700	0.273300	0.079600
O451	O45	0.542100	0.622400	0.967100
O461	O46	0.483500	0.709100	0.906700
O471	O47	0.651900	0.772600	0.698200
O481	O48	0.775800	0.706400	0.663200
