data_TISJOW_freeONLY_PM
_symmetry_space_group_name_H-M	'P1'
_cell_length_a	8.855000
_cell_length_b	17.267000
_cell_length_c	33.504100
_cell_angle_alpha	90.000000
_cell_angle_beta	92.692500
_cell_angle_gamma	90.000000
_symmetry_Int_Tables_number 1

loop_
_symmetry_equiv_pos_as_xyz
'x,y,z'

loop_
_atom_site_label
_atom_site_type_symbol
_atom_site_fract_x
_atom_site_fract_y
_atom_site_fract_z
Co11	Co1	0.322410	0.213880	0.803360
Co21	Co2	0.291270	0.822100	0.162610
Co31	Co3	0.177590	0.713880	0.696640
Co41	Co4	0.677590	0.786120	0.196640
Co51	Co5	0.208730	0.322100	0.337390
Co61	Co6	0.822410	0.286120	0.303360
Co71	Co7	0.791270	0.677900	0.662610
Co81	Co8	0.708730	0.177900	0.837390
H11	H1	0.246300	0.122800	0.406900
H21	H2	0.760200	0.117600	0.543100
H31	H3	0.612800	0.303900	0.628800
H41	H4	0.485200	0.947900	0.441900
H51	H5	0.886400	0.606800	0.045000
H61	H6	0.753700	0.877200	0.593100
H71	H7	0.243100	0.013900	0.447500
H81	H8	0.373400	0.044100	0.194400
H91	H9	0.957800	0.457100	0.175300
H101	H10	0.605300	0.952400	0.893300
H111	H11	0.371600	0.233100	0.540400
H121	H12	0.907700	0.446700	0.251400
H131	H13	0.781100	0.952000	0.149100
H141	H14	0.247500	0.170700	0.528800
H151	H15	0.357600	0.732400	0.870200
H161	H16	0.974200	0.669400	0.195600
H171	H17	0.835200	0.127000	0.716800
H181	H18	0.665900	0.170300	0.396900
H191	H19	0.678900	0.579100	0.995500
H201	H20	0.246900	0.774500	0.788400
H211	H21	0.394700	0.047600	0.106700
H221	H22	0.916500	0.136000	0.652400
H231	H23	0.772200	0.049900	0.264800
H241	H24	0.020500	0.269000	0.431500
H251	H25	0.594900	0.567400	0.362500
H261	H26	0.173500	0.034600	0.596100
H271	H27	0.949200	0.382600	0.462200
H281	H28	0.025800	0.330600	0.804400
H291	H29	0.519300	0.653500	0.038000
H301	H30	0.457800	0.042900	0.675300
H311	H31	0.063300	0.507100	0.119200
H321	H32	0.834100	0.670300	0.103100
H331	H33	0.843700	0.175800	0.917400
H341	H34	0.013100	0.123700	0.784300
H351	H35	0.092300	0.553300	0.748600
H361	H36	0.980700	0.153500	0.462000
H371	H37	0.665000	0.877400	0.977700
H381	H38	0.642400	0.267600	0.129800
H391	H39	0.304500	0.267200	0.478300
H401	H40	0.112800	0.196100	0.128800
H411	H41	0.105300	0.547600	0.393300
H421	H42	0.227800	0.950100	0.735200
H431	H43	0.239800	0.882400	0.456900
H441	H44	0.449200	0.117400	0.962200
H451	H45	0.272200	0.450100	0.764800
H461	H46	0.386400	0.893200	0.545000
H471	H47	0.050800	0.617400	0.537800
H481	H48	0.326500	0.534600	0.903900
H491	H49	0.853300	0.021100	0.809100
H501	H50	0.321100	0.420900	0.004500
H511	H51	0.984100	0.661900	0.404400
H521	H52	0.416500	0.364000	0.152400
H531	H53	0.985200	0.552100	0.941900
H541	H54	0.159600	0.236200	0.583300
H551	H55	0.894700	0.452400	0.606700
H561	H56	0.252500	0.670700	0.971200
H571	H57	0.164800	0.873000	0.283200
H581	H58	0.970400	0.792500	0.807300
H591	H59	0.659600	0.263800	0.083300
H601	H60	0.274400	0.685100	0.426200
H611	H61	0.873400	0.455900	0.694400
H621	H62	0.387200	0.696100	0.371200
H631	H63	0.218900	0.048000	0.850900
H641	H64	0.165900	0.329700	0.896900
H651	H65	0.467100	0.848200	0.812600
H661	H66	0.538100	0.424700	0.794000
H671	H67	0.513100	0.376300	0.284300
H681	H68	0.626600	0.955900	0.805600
H691	H69	0.529600	0.292500	0.692700
H701	H70	0.736500	0.855600	0.703700
H711	H71	0.334100	0.829700	0.603100
H721	H72	0.335200	0.373000	0.216800
H731	H73	0.029600	0.207500	0.192700
H741	H74	0.330600	0.429500	0.863000
H751	H75	0.165000	0.622600	0.477700
H761	H76	0.309900	0.151100	0.671000
H771	H77	0.646700	0.521100	0.690900
H781	H78	0.746900	0.725500	0.288400
H791	H79	0.178900	0.920900	0.495500
H801	H80	0.351100	0.764100	0.438800
H811	H81	0.628400	0.766900	0.459600
H821	H82	0.225600	0.185100	0.073800
H831	H83	0.038100	0.075300	0.294000
H841	H84	0.032900	0.348200	0.687400
H851	H85	0.253100	0.274500	0.711600
H861	H86	0.128400	0.733100	0.959600
H871	H87	0.830600	0.070500	0.363000
H881	H88	0.763500	0.355600	0.796300
H891	H89	0.673500	0.465400	0.096100
H901	H90	0.525800	0.169400	0.304400
H911	H91	0.042200	0.542900	0.824700
H921	H92	0.669400	0.570500	0.137000
H931	H93	0.746300	0.377200	0.906900
H941	H94	0.148900	0.264100	0.061200
H951	H95	0.484100	0.838100	0.904400
H961	H96	0.648900	0.235900	0.561200
H971	H97	0.690100	0.848900	0.329000
H981	H98	0.871600	0.266900	0.040400
H991	H99	0.857600	0.767600	0.370200
H1001	H100	0.407700	0.053300	0.751400
H1011	H101	0.986900	0.876300	0.215700
H1021	H102	0.695500	0.732800	0.521700
H1031	H103	0.656300	0.675800	0.582600
H1041	H104	0.142400	0.232400	0.629800
H1051	H105	0.019300	0.846500	0.538000
H1061	H106	0.961900	0.924700	0.706000
H1071	H107	0.563300	0.992900	0.619200
H1081	H108	0.479500	0.769000	0.068500
H1091	H109	0.253700	0.622800	0.093100
H1101	H110	0.747500	0.329300	0.028800
H1111	H111	0.718900	0.452000	0.350900
H1121	H112	0.236500	0.644400	0.203700
H1131	H113	0.739800	0.617600	0.956900
H1141	H114	0.263500	0.144400	0.296300
H1151	H115	0.190100	0.651100	0.829000
H1161	H116	0.520500	0.231000	0.931500
H1171	H117	0.752500	0.829300	0.471200
H1181	H118	0.281100	0.548000	0.649100
H1191	H119	0.743100	0.486100	0.947500
H1201	H120	0.436700	0.007100	0.380800
H1211	H121	0.967100	0.651800	0.312600
H1221	H122	0.936700	0.492900	0.880800
H1231	H123	0.550800	0.882600	0.037800
H1241	H124	0.083500	0.864000	0.347600
H1251	H125	0.480700	0.346500	0.962000
H1261	H126	0.195500	0.767200	0.021700
H1271	H127	0.405100	0.432600	0.637500
H1281	H128	0.126600	0.544100	0.305600
H1291	H129	0.774400	0.814900	0.926200
H1301	H130	0.514800	0.052100	0.558100
H1311	H131	0.515900	0.161900	0.095600
H1321	H132	0.592300	0.946700	0.248600
H1331	H133	0.532900	0.151800	0.187400
H1341	H134	0.260200	0.382400	0.043100
H1351	H135	0.905100	0.067400	0.137500
H1361	H136	0.470400	0.707500	0.307300
H1371	H137	0.809900	0.348900	0.171000
H1381	H138	0.343700	0.324200	0.417400
H1391	H139	0.753100	0.225500	0.211600
H1401	H140	0.335000	0.122600	0.022300
H1411	H141	0.887200	0.803900	0.871200
H1421	H142	0.851100	0.735900	0.938800
H1431	H143	0.014800	0.447900	0.058100
H1441	H144	0.583500	0.636000	0.847600
H1451	H145	0.664800	0.627000	0.783200
H1461	H146	0.756900	0.986100	0.552500
H1471	H147	0.169400	0.929500	0.637000
H1481	H148	0.486900	0.623700	0.715700
H1491	H149	0.804500	0.232800	0.978300
H1501	H150	0.727800	0.549900	0.235200
H1511	H151	0.340400	0.736200	0.916700
H1521	H152	0.725600	0.314900	0.573800
H1531	H153	0.256900	0.513900	0.052500
H1541	H154	0.353300	0.478900	0.309100
H1551	H155	0.542200	0.957100	0.324700
H1561	H156	0.826500	0.965400	0.403900
H1571	H157	0.461900	0.575300	0.206000
H1581	H158	0.146700	0.978900	0.190900
H1591	H159	0.474200	0.830600	0.695600
H1601	H160	0.979500	0.731000	0.568500
H1611	H161	0.821100	0.079100	0.504500
H1621	H162	0.094900	0.932600	0.862500
H1631	H163	0.835000	0.377400	0.522300
H1641	H164	0.015900	0.338100	0.595600
H1651	H165	0.113600	0.393200	0.955000
H1661	H166	0.156300	0.824200	0.082600
H1671	H167	0.613600	0.106800	0.455000
H1681	H168	0.840400	0.763800	0.416700
C11	C1	0.514520	0.080900	0.858820
C21	C2	0.245230	0.238100	0.065930
C31	C3	0.591200	0.189300	0.412900
C41	C4	0.091200	0.310700	0.912900
C51	C5	0.845800	0.114900	0.526100
C61	C6	0.301500	0.436400	0.632100
C71	C7	0.779000	0.627700	0.382800
C81	C8	0.115220	0.299800	0.252920
C91	C9	0.623140	0.752700	0.538140
C101	C10	0.123140	0.747300	0.038140
C111	C11	0.941800	0.664100	0.286100
C121	C12	0.936600	0.652500	0.051800
C131	C13	0.901750	0.218500	0.925450
C141	C14	0.009620	0.245700	0.900720
C151	C15	0.055260	0.325700	0.778260
C161	C16	0.039310	0.108700	0.380410
C171	C17	0.221000	0.372300	0.617200
C181	C18	0.377080	0.306900	0.009580
C191	C19	0.839780	0.974700	0.569580
C201	C20	0.154200	0.885100	0.473900
C211	C21	0.161050	0.832200	0.339450
C221	C22	0.772400	0.494400	0.361300
C231	C23	0.605700	0.430600	0.773800
C241	C24	0.427170	0.011500	0.870170
C251	C25	0.036450	0.180400	0.355350
C261	C26	0.793400	0.002800	0.252900
C271	C27	0.680360	0.832500	0.388460
C281	C28	0.160200	0.600800	0.254300
C291	C29	0.392170	0.739100	0.315270
C301	C30	0.058200	0.335900	0.713900
C311	C31	0.206600	0.997200	0.747100
C321	C32	0.695030	0.949100	0.785630
C331	C33	0.745230	0.261900	0.565930
C341	C34	0.828250	0.708700	0.788550
C351	C35	0.490380	0.745700	0.599280
C361	C36	0.997500	0.448200	0.613500
C371	C37	0.329180	0.511400	0.287580
C381	C38	0.170820	0.011400	0.212420
C391	C39	0.997700	0.536700	0.882700
C401	C40	0.892170	0.760900	0.815270
C411	C41	0.721000	0.127700	0.117200
C421	C42	0.698500	0.563600	0.367900
C431	C43	0.063400	0.347500	0.948200
C441	C44	0.555260	0.174300	0.278260
C451	C45	0.227600	0.505600	0.638700
C461	C46	0.622920	0.693100	0.990420
C471	C47	0.536450	0.319600	0.855350
C481	C48	0.463550	0.680400	0.144650
C491	C49	0.339800	0.100800	0.245700
C501	C50	0.198500	0.936400	0.867900
C511	C51	0.448700	0.301200	0.974100
C521	C52	0.585990	0.559700	0.119990
C531	C53	0.910500	0.906600	0.225700
C541	C54	0.884780	0.700200	0.747080
C551	C55	0.319640	0.167500	0.611540
C561	C56	0.927170	0.488500	0.370170
C571	C57	0.883840	0.361900	0.077040
C581	C58	0.589500	0.406600	0.274300
C591	C59	0.441800	0.835900	0.786100
C601	C60	0.087900	0.003400	0.595900
C611	C61	0.842950	0.767800	0.853650
C621	C62	0.401750	0.281500	0.425450
C631	C63	0.930700	0.620400	0.393000
C641	C64	0.710600	0.662200	0.801000
C651	C65	0.838950	0.167800	0.660550
C661	C66	0.068400	0.665000	0.525900
C671	C67	0.137600	0.668400	0.490000
C681	C68	0.412100	0.503400	0.904100
C691	C69	0.563400	0.152500	0.448200
C701	C70	0.147450	0.677900	0.962350
C711	C71	0.352550	0.177900	0.537650
C721	C72	0.661050	0.667800	0.839450
C731	C73	0.474500	0.232400	0.955900
C741	C74	0.116160	0.638100	0.922960
C751	C75	0.002500	0.551800	0.386500
C761	C76	0.759300	0.889500	0.724700
C771	C77	0.607830	0.260900	0.684730
C781	C78	0.714800	0.264200	0.109000
C791	C79	0.587900	0.496600	0.095900
C801	C80	0.051300	0.801200	0.525900
C811	C81	0.660220	0.474700	0.930420
C821	C82	0.598250	0.718500	0.574550
C831	C83	0.040000	0.683800	0.026600
C841	C84	0.560500	0.933200	0.349300
C851	C85	0.414010	0.440300	0.880010
C861	C86	0.025500	0.732400	0.544100
C871	C87	0.210600	0.837800	0.301000
C881	C88	0.660200	0.899200	0.754300
C891	C89	0.444740	0.825700	0.721740
C901	C90	0.460690	0.608700	0.119590
C911	C91	0.376860	0.247300	0.461860
C921	C92	0.850500	0.368800	0.148000
C931	C93	0.615220	0.200200	0.752920
C941	C94	0.654200	0.614900	0.973900
C951	C95	0.671750	0.208700	0.711450
C961	C96	0.973100	0.427400	0.080800
C971	C97	0.551300	0.698800	0.025900
C981	C98	0.410500	0.593400	0.725700
C991	C99	0.157050	0.232200	0.146350
C1001	C100	0.293400	0.497200	0.752900
C1011	C101	0.839800	0.399200	0.745700
C1021	C102	0.876860	0.252700	0.961860
C1031	C103	0.362400	0.168400	0.010000
C1041	C104	0.350500	0.131200	0.648000
C1051	C105	0.540000	0.816200	0.526600
C1061	C106	0.338950	0.332200	0.160550
C1071	C107	0.571790	0.479900	0.742590
C1081	C108	0.785200	0.764200	0.391000
C1091	C109	0.804970	0.449100	0.714370
C1101	C110	0.538180	0.292200	0.361380
C1111	C111	0.661760	0.409200	0.905960
C1121	C112	0.539310	0.391300	0.880410
C1131	C113	0.961820	0.792200	0.138620
C1141	C114	0.569300	0.120400	0.107000
C1151	C115	0.647450	0.822100	0.462350
C1161	C116	0.862400	0.331600	0.510000
C1171	C117	0.161760	0.090800	0.405960
C1181	C118	0.408800	0.810700	0.587100
C1191	C119	0.167530	0.738700	0.471830
C1201	C120	0.819640	0.332500	0.111540
C1211	C121	0.430700	0.879600	0.893000
C1221	C122	0.259300	0.610500	0.224700
C1231	C123	0.002300	0.463300	0.117300
C1241	C124	0.122920	0.806900	0.490420
C1251	C125	0.754770	0.761900	0.934070
C1261	C126	0.473100	0.072600	0.580800
C1271	C127	0.305100	0.054400	0.756100
C1281	C128	0.036490	0.978200	0.429090
C1291	C129	0.509620	0.254300	0.400720
C1301	C130	0.227350	0.779200	0.365750
C1311	C131	0.342950	0.732200	0.353650
C1321	C132	0.894300	0.930600	0.726200
C1331	C133	0.985480	0.580900	0.641180
C1341	C134	0.339780	0.525300	0.069580
C1351	C135	0.805100	0.445600	0.256100
C1361	C136	0.670820	0.488600	0.712420
C1371	C137	0.026900	0.572600	0.919200
C1381	C138	0.694900	0.945600	0.243900
C1391	C139	0.990380	0.754300	0.099280
C1401	C140	0.657050	0.267800	0.646350
C1411	C141	0.179200	0.294900	0.727400
C1421	C142	0.832470	0.261300	0.528170
C1431	C143	0.928210	0.979900	0.757410
C1441	C144	0.428210	0.520100	0.257410
C1451	C145	0.939500	0.433200	0.150700
C1461	C146	0.789400	0.162200	0.699000
C1471	C147	0.431600	0.165000	0.974100
C1481	C148	0.740700	0.389500	0.775300
C1491	C149	0.931600	0.335000	0.474100
C1501	C150	0.160220	0.025300	0.430420
C1511	C151	0.383840	0.138100	0.577040
C1521	C152	0.463510	0.478200	0.070910
C1531	C153	0.107830	0.239100	0.184730
C1541	C154	0.558200	0.164100	0.213900
C1551	C155	0.497700	0.963300	0.382700
C1561	C156	0.502300	0.036700	0.617300
C1571	C157	0.085990	0.940300	0.619990
C1581	C158	0.568400	0.835000	0.025900
C1591	C159	0.149500	0.631200	0.852000
C1601	C160	0.060500	0.566800	0.849300
C1611	C161	0.974500	0.267600	0.455900
C1621	C162	0.285200	0.735800	0.891000
C1631	C163	0.439500	0.066800	0.650700
C1641	C164	0.502500	0.948200	0.886500
C1651	C165	0.649500	0.868800	0.352000
C1661	C166	0.497500	0.051800	0.113500
C1671	C167	0.345800	0.385100	0.026100
C1681	C168	0.820800	0.705100	0.272600
C1691	C169	0.328250	0.791300	0.288550
C1701	C170	0.069300	0.379600	0.607000
C1711	C171	0.072830	0.511500	0.629830
C1721	C172	0.240700	0.110500	0.275300
C1731	C173	0.727350	0.720800	0.865750
C1741	C174	0.572830	0.988500	0.129830
C1751	C175	0.838240	0.909200	0.594040
C1761	C176	0.706600	0.502800	0.247100
C1771	C177	0.272400	0.005600	0.861300
C1781	C178	0.908800	0.689300	0.087100
C1791	C179	0.801500	0.063600	0.132100
C1801	C180	0.194900	0.554400	0.743900
C1811	C181	0.525500	0.767600	0.044100
C1821	C182	0.304970	0.050900	0.214370
C1831	C183	0.485480	0.919100	0.141180
C1841	C184	0.852550	0.322100	0.037650
C1851	C185	0.180360	0.667500	0.888460
C1861	C186	0.320800	0.794900	0.772600
C1871	C187	0.254770	0.738100	0.434070
C1881	C188	0.461820	0.707800	0.638620
C1891	C189	0.960690	0.891300	0.619590
C1901	C190	0.071790	0.020100	0.242590
C1911	C191	0.394300	0.569400	0.226200
C1921	C192	0.038180	0.207800	0.861380
C1931	C193	0.289400	0.337800	0.199000
C1941	C194	0.105700	0.069400	0.273800
C1951	C195	0.526900	0.927400	0.419200
C1961	C196	0.195030	0.550900	0.285630
C1971	C197	0.279000	0.872300	0.882800
C1981	C198	0.877080	0.193100	0.509580
C1991	C199	0.014520	0.419100	0.358820
C2001	C200	0.944740	0.674300	0.221740
C2011	C201	0.098250	0.781500	0.074550
C2021	C202	0.912100	0.996600	0.404100
C2031	C203	0.436600	0.847500	0.551800
C2041	C204	0.460000	0.183800	0.473400
C2051	C205	0.948700	0.198800	0.474100
C2061	C206	0.679200	0.205100	0.227400
C2071	C207	0.963510	0.021800	0.570910
C2081	C208	0.338240	0.590800	0.094040
C2091	C209	0.089500	0.093400	0.774300
C2101	C210	0.829180	0.988600	0.787580
C2111	C211	0.616160	0.861900	0.422960
C2121	C212	0.772650	0.220800	0.634250
C2131	C213	0.963550	0.819600	0.644650
C2141	C214	0.332470	0.238700	0.028170
C2151	C215	0.914010	0.059700	0.380010
C2161	C216	0.637600	0.831600	0.990000
C2171	C217	0.536490	0.521800	0.929090
C2181	C218	0.384780	0.799800	0.247080
C2191	C219	0.272650	0.279200	0.134250
C2201	C220	0.667530	0.761300	0.971830
C2211	C221	0.171750	0.291300	0.211450
C2221	C222	0.214800	0.235800	0.609000
C2231	C223	0.727600	0.994400	0.138700
C2241	C224	0.960000	0.316200	0.973400
N11	N1	0.021060	0.643900	0.253360
N21	N2	0.176370	0.288000	0.768270
N31	N3	0.478940	0.143900	0.246640
N41	N4	0.568130	0.477900	0.259030
N51	N5	0.931870	0.977900	0.240970
N61	N6	0.730940	0.385000	0.273340
N71	N7	0.978940	0.356100	0.746640
N81	N8	0.431870	0.522100	0.740970
N91	N9	0.676370	0.212000	0.268270
N101	N10	0.323630	0.788000	0.731730
N111	N11	0.269060	0.615000	0.726660
N121	N12	0.521060	0.856100	0.753360
N131	N13	0.068130	0.022100	0.759030
N141	N14	0.230940	0.115000	0.773340
N151	N15	0.823630	0.712000	0.231730
N161	N16	0.769060	0.885000	0.226660
O11	O1	0.332210	0.276900	0.097010
O21	O2	0.198690	0.805200	0.886190
O31	O3	0.543800	0.864100	0.159900
O41	O4	0.043800	0.635900	0.659900
O51	O5	0.157080	0.221300	0.357980
O61	O6	0.698690	0.694800	0.386190
O71	O7	0.342920	0.721300	0.142020
O81	O8	0.956200	0.364100	0.340100
O91	O9	0.657080	0.278700	0.857980
O101	O10	0.431850	0.328000	0.342750
O111	O11	0.578780	0.693400	0.165980
O121	O12	0.068150	0.828000	0.157250
O131	O13	0.449590	0.145200	0.509190
O141	O14	0.977170	0.087900	0.548870
O151	O15	0.844440	0.582500	0.631940
O161	O16	0.568150	0.672000	0.657250
O171	O17	0.477170	0.412100	0.048870
O181	O18	0.022830	0.912100	0.451130
O191	O19	0.207580	0.328400	0.278880
O201	O20	0.522830	0.587900	0.951130
O211	O21	0.483800	0.221800	0.758800
O221	O22	0.344440	0.917500	0.131940
O231	O23	0.842920	0.778700	0.642020
O241	O24	0.655560	0.082500	0.868060
O251	O25	0.707580	0.171600	0.778880
O261	O26	0.167400	0.215200	0.848600
O271	O27	0.832210	0.223100	0.597010
O281	O28	0.667790	0.723100	0.902990
O291	O29	0.921220	0.193400	0.334020
O301	O30	0.078780	0.806600	0.665980
O311	O31	0.801310	0.194800	0.113810
O321	O32	0.516200	0.778200	0.241200
O331	O33	0.421220	0.306600	0.834020
O341	O34	0.667400	0.284800	0.348600
O351	O35	0.167790	0.776900	0.402990
O361	O36	0.292420	0.828400	0.221120
O371	O37	0.016200	0.721800	0.741200
O381	O38	0.456200	0.135900	0.840100
O391	O39	0.332600	0.715200	0.651400
O401	O40	0.983800	0.278200	0.258800
O411	O41	0.155560	0.417500	0.368060
O421	O42	0.931850	0.172000	0.842750
O431	O43	0.550410	0.854800	0.490810
O441	O44	0.050410	0.645200	0.990810
O451	O45	0.832600	0.784800	0.151400
O461	O46	0.301310	0.305200	0.613810
O471	O47	0.792420	0.671600	0.721120
O481	O48	0.949590	0.354800	0.009190
