data_TISNEQ_freeONLY_PM
_symmetry_space_group_name_H-M	'P1'
_cell_length_a	10.440500
_cell_length_b	13.392600
_cell_length_c	20.454000
_cell_angle_alpha	90.000000
_cell_angle_beta	90.000000
_cell_angle_gamma	94.425000
_symmetry_Int_Tables_number 1

loop_
_symmetry_equiv_pos_as_xyz
'x,y,z'

loop_
_atom_site_label
_atom_site_type_symbol
_atom_site_fract_x
_atom_site_fract_y
_atom_site_fract_z
Zn11	Zn1	0.253410	0.562730	0.103100
Zn21	Zn2	0.753410	0.062730	0.396900
Zn31	Zn3	0.246590	0.937270	0.603100
Zn41	Zn4	0.746590	0.437270	0.896900
H11	H1	0.707400	0.655000	0.691100
H21	H2	0.623600	0.063800	0.143200
H31	H3	0.413200	0.532800	0.547500
H41	H4	0.811500	0.221500	0.000300
H51	H5	0.586800	0.467200	0.452500
H61	H6	0.528700	0.271700	0.948500
H71	H7	0.311500	0.721500	0.499700
H81	H8	0.797200	0.658000	0.297900
H91	H9	0.456100	0.267500	0.158000
H101	H10	0.243000	0.852400	0.781100
H111	H11	0.757000	0.147600	0.218900
H121	H12	0.792600	0.845000	0.191100
H131	H13	0.971300	0.228300	0.448500
H141	H14	0.860500	0.918800	0.865100
H151	H15	0.084200	0.734500	0.813300
H161	H16	0.188500	0.778500	0.999700
H171	H17	0.257000	0.647600	0.281100
H181	H18	0.915800	0.265500	0.186700
H191	H19	0.950800	0.608900	0.846900
H201	H20	0.934200	0.749700	0.137200
H211	H21	0.360500	0.418800	0.634900
H221	H22	0.515000	0.179800	0.472000
H231	H23	0.297200	0.158000	0.202100
H241	H24	0.477000	0.538100	0.436500
H251	H25	0.471700	0.039600	0.062600
H261	H26	0.528000	0.429600	0.108100
H271	H27	0.523000	0.461900	0.563500
H281	H28	0.584200	0.234500	0.686700
H291	H29	0.049200	0.391100	0.153100
H301	H30	0.202800	0.342000	0.702100
H311	H31	0.376400	0.936200	0.856800
H321	H32	0.298400	0.227400	0.980800
H331	H33	0.971700	0.539600	0.437400
H341	H34	0.570800	0.958000	0.051400
H351	H35	0.565800	0.750300	0.637200
H361	H36	0.015000	0.679800	0.028000
H371	H37	0.087500	0.996400	0.280600
H381	H38	0.587500	0.496400	0.219400
H391	H39	0.270000	0.596500	0.724600
H401	H40	0.028000	0.929600	0.391900
H411	H41	0.471300	0.728300	0.051500
H421	H42	0.977000	0.038100	0.063500
H431	H43	0.429200	0.042000	0.948600
H441	H44	0.434200	0.249700	0.362800
H451	H45	0.412500	0.503600	0.780600
H461	H46	0.086800	0.967200	0.047500
H471	H47	0.730000	0.403500	0.275400
H481	H48	0.972000	0.070400	0.608100
H491	H49	0.543900	0.732500	0.842000
H501	H50	0.688500	0.278500	0.500300
H511	H51	0.207400	0.155000	0.808900
H521	H52	0.956100	0.767500	0.342000
H531	H53	0.913200	0.032800	0.952500
H541	H54	0.201600	0.272600	0.480800
H551	H55	0.065800	0.250300	0.862800
H561	H56	0.798400	0.727400	0.519200
H571	H57	0.415800	0.765500	0.313300
H581	H58	0.770000	0.096500	0.775400
H591	H59	0.028700	0.771700	0.551500
H601	H60	0.139500	0.081200	0.134900
H611	H61	0.701600	0.772600	0.019200
H621	H62	0.485000	0.820200	0.528000
H631	H63	0.028300	0.460400	0.562600
H641	H64	0.549200	0.891100	0.346900
H651	H65	0.292600	0.345000	0.308900
H661	H66	0.472000	0.570400	0.891900
H671	H67	0.912500	0.003600	0.719400
H681	H68	0.528300	0.960400	0.937400
H691	H69	0.639500	0.581200	0.365100
H701	H70	0.070800	0.458000	0.448600
H711	H71	0.929200	0.542000	0.551400
H721	H72	0.123600	0.563800	0.356800
H731	H73	0.023000	0.961900	0.936500
H741	H74	0.043900	0.232500	0.658000
H751	H75	0.985000	0.320200	0.972000
H761	H76	0.450800	0.108900	0.653100
H771	H77	0.230000	0.903500	0.224600
H781	H78	0.743000	0.352400	0.718900
H791	H79	0.702800	0.842000	0.797900
H801	H80	0.876400	0.436200	0.643200
C11	C1	0.034700	0.201400	0.833310
C21	C2	0.795000	0.365790	0.564430
C31	C3	0.358000	0.610080	0.719050
C41	C4	0.032500	0.514700	0.468070
C51	C5	0.607500	0.763200	0.868610
C61	C6	0.951500	0.093000	0.566650
C71	C7	0.858000	0.110080	0.780950
C81	C8	0.137100	0.767500	0.844350
C91	C9	0.536000	0.518570	0.470030
C101	C10	0.443700	0.553870	0.752080
C111	C11	0.168000	0.023000	0.714150
C121	C12	0.574300	0.571570	0.743220
C131	C13	0.142000	0.889920	0.219050
C141	C14	0.684900	0.244600	0.351980
C151	C15	0.637100	0.267500	0.655650
C161	C16	0.879000	0.253850	0.090840
C171	C17	0.315100	0.755400	0.648020
C181	C18	0.965300	0.798600	0.166690
C191	C19	0.108300	0.244060	0.565710
C201	C20	0.425700	0.428430	0.256780
C211	C21	0.951700	0.179560	0.480040
C221	C22	0.892500	0.736800	0.368610
C231	C23	0.556300	0.446130	0.247920
C241	C24	0.056300	0.946130	0.252080
C251	C25	0.202000	0.328600	0.657490
C261	C26	0.298600	0.212020	0.025120
C271	C27	0.608300	0.744060	0.934290
C281	C28	0.945900	0.610900	0.892300
C291	C29	0.019600	0.350800	0.009500
C301	C30	0.832000	0.977000	0.285850
C311	C31	0.119700	0.144500	0.800990
C321	C32	0.465300	0.298600	0.333310
C331	C33	0.699300	0.293980	0.544350
C341	C34	0.107500	0.263200	0.631390
C351	C35	0.267800	0.662000	0.325360
C361	C36	0.534700	0.701400	0.666690
C371	C37	0.767800	0.162000	0.174640
C381	C38	0.980400	0.649200	0.990500
C391	C39	0.300700	0.706020	0.455650
C401	C40	0.451500	0.593000	0.933350
C411	C41	0.184900	0.744600	0.148020
C421	C42	0.796400	0.874800	0.882860
C431	C43	0.467500	0.985300	0.968070
C441	C44	0.702000	0.828600	0.842510
C451	C45	0.298000	0.171400	0.157490
C461	C46	0.404500	0.686690	0.677590
C471	C47	0.362900	0.732500	0.344350
C481	C48	0.451700	0.679560	0.019960
C491	C49	0.445900	0.110900	0.607700
C501	C50	0.705000	0.644300	0.448560
C511	C51	0.548500	0.407000	0.066650
C521	C52	0.205000	0.634210	0.435570
C531	C53	0.232200	0.838000	0.825360
C541	C54	0.668000	0.523000	0.785850
C551	C55	0.203600	0.125200	0.117140
C561	C56	0.296400	0.374800	0.617140
C571	C57	0.464000	0.481430	0.529970
C581	C58	0.312500	0.888400	0.870300
C591	C59	0.532500	0.014700	0.031930
C601	C60	0.391700	0.255940	0.065710
C611	C61	0.187500	0.611600	0.370300
C621	C62	0.798600	0.712020	0.474880
C631	C63	0.095500	0.813310	0.177590
C641	C64	0.701400	0.787980	0.974880
C651	C65	0.295000	0.355700	0.551440
C661	C66	0.048300	0.820440	0.519960
C671	C67	0.812500	0.388400	0.629700
C681	C68	0.595500	0.313310	0.322410
C691	C69	0.054100	0.389100	0.107700
C701	C70	0.904500	0.186690	0.822410
C711	C71	0.392500	0.236800	0.131390
C721	C72	0.732200	0.338000	0.674640
C731	C73	0.862900	0.232500	0.155650
C741	C74	0.201400	0.287980	0.525120
C751	C75	0.880300	0.855500	0.199010
C761	C76	0.703600	0.625200	0.382860
C771	C77	0.380300	0.355500	0.300990
C781	C78	0.295000	0.865790	0.935570
C791	C79	0.121000	0.746150	0.909160
C801	C80	0.199300	0.793980	0.955650
C811	C81	0.619700	0.644500	0.699010
C821	C82	0.642000	0.389920	0.280950
C831	C83	0.548300	0.320440	0.980040
C841	C84	0.964000	0.981430	0.970030
C851	C85	0.891700	0.755940	0.434290
C861	C86	0.048500	0.907000	0.433350
C871	C87	0.332000	0.477000	0.214150
C881	C88	0.480400	0.149200	0.509500
C891	C89	0.795000	0.855700	0.948560
C901	C90	0.621000	0.246150	0.590840
C911	C91	0.074300	0.071570	0.756780
C921	C92	0.705000	0.134210	0.064430
C931	C93	0.798000	0.671400	0.342510
C941	C94	0.800700	0.206020	0.044350
C951	C95	0.379000	0.753850	0.409160
C961	C96	0.687500	0.111600	0.129700
C971	C97	0.554100	0.889100	0.392300
C981	C98	0.205000	0.144300	0.051440
C991	C99	0.943700	0.053870	0.747920
C1001	C100	0.967500	0.485300	0.531930
C1011	C101	0.815100	0.255400	0.851980
C1021	C102	0.519600	0.850800	0.490500
C1031	C103	0.036000	0.018570	0.029970
C1041	C104	0.925700	0.928430	0.243220
N11	N1	0.134300	0.445480	0.073540
N21	N2	0.364600	0.548950	0.970440
N31	N3	0.135900	0.894510	0.526440
N41	N4	0.990500	0.824010	0.461720
N51	N5	0.009500	0.175990	0.538280
N61	N6	0.135400	0.951050	0.470440
N71	N7	0.521000	0.172560	0.570330
N81	N8	0.886900	0.578510	0.991080
N91	N9	0.635900	0.394510	0.973560
N101	N10	0.979000	0.327440	0.070330
N111	N11	0.509500	0.675990	0.961720
N121	N12	0.864100	0.105490	0.473560
N131	N13	0.865700	0.554520	0.926460
N141	N14	0.490500	0.324010	0.038280
N151	N15	0.634300	0.945480	0.426460
N161	N16	0.386900	0.078510	0.508920
N171	N17	0.864600	0.048950	0.529560
N181	N18	0.113100	0.421490	0.008920
N191	N19	0.479000	0.827440	0.429670
N201	N20	0.613100	0.921490	0.491080
N211	N21	0.364100	0.605490	0.026440
N221	N22	0.635400	0.451050	0.029560
N231	N23	0.365700	0.054520	0.573540
N241	N24	0.021000	0.672560	0.929670
O11	O1	0.617030	0.603150	0.491750
O21	O2	0.301500	0.765560	0.146720
O31	O3	0.784030	0.534570	0.776050
O41	O4	0.629850	0.092210	0.014600
O51	O5	0.715970	0.965430	0.276050
O61	O6	0.133880	0.661180	0.126630
O71	O7	0.370150	0.907790	0.985400
O81	O8	0.198500	0.734440	0.646720
O91	O9	0.382970	0.396850	0.508250
O101	O10	0.215970	0.465430	0.223950
O111	O11	0.870150	0.407790	0.514600
O121	O12	0.882970	0.896850	0.991750
O131	O13	0.129850	0.592210	0.485400
O141	O14	0.866120	0.338820	0.873370
O151	O15	0.698500	0.234440	0.853280
O161	O16	0.882150	0.029520	0.333350
O171	O17	0.617850	0.470480	0.833350
O181	O18	0.633880	0.161180	0.373370
O191	O19	0.117030	0.103150	0.008250
O201	O20	0.801500	0.265560	0.353280
O211	O21	0.382150	0.529520	0.166650
O221	O22	0.284030	0.034570	0.723950
O231	O23	0.366120	0.838820	0.626630
O241	O24	0.117850	0.970480	0.666650
