data_TIVHAJ_freeONLY_PM
_symmetry_space_group_name_H-M	'P1'
_cell_length_a	8.800000
_cell_length_b	13.110000
_cell_length_c	20.734000
_cell_angle_alpha	90.000000
_cell_angle_beta	90.000000
_cell_angle_gamma	90.000000
_symmetry_Int_Tables_number 1

loop_
_symmetry_equiv_pos_as_xyz
'x,y,z'

loop_
_atom_site_label
_atom_site_type_symbol
_atom_site_fract_x
_atom_site_fract_y
_atom_site_fract_z
Cu11	Cu1	0.350000	0.264600	0.750000
Cu21	Cu2	0.150000	0.764600	0.250000
H11	H1	0.150800	0.408400	0.526800
H21	H2	0.405000	0.853200	0.212600
H31	H3	0.845400	0.029800	0.250000
H41	H4	0.999100	0.083900	0.365900
H51	H5	0.070800	0.136100	0.473000
H61	H6	0.048200	0.471200	0.434500
H71	H7	0.070800	0.136100	0.027000
H81	H8	0.349200	0.908400	0.026800
H91	H9	0.253300	0.326700	0.892200
H101	H10	0.999100	0.083900	0.134100
H111	H11	0.674100	0.406800	0.750000
H121	H12	0.500900	0.583900	0.865900
H131	H13	0.429200	0.636100	0.973000
H141	H14	0.654600	0.529800	0.750000
H151	H15	0.451800	0.971200	0.565500
H161	H16	0.095000	0.353200	0.787400
H171	H17	0.150800	0.408400	0.973200
H181	H18	0.253300	0.326700	0.607800
H191	H19	0.095000	0.353200	0.712600
H201	H20	0.048200	0.471200	0.065500
H211	H21	0.429200	0.636100	0.527000
H221	H22	0.500900	0.583900	0.634100
H231	H23	0.246700	0.826700	0.392200
H241	H24	0.405000	0.853200	0.287400
H251	H25	0.349200	0.908400	0.473200
H261	H26	0.451800	0.971200	0.934500
H271	H27	0.380100	0.681800	0.424100
H281	H28	0.825900	0.906800	0.250000
H291	H29	0.119900	0.181800	0.575900
H301	H30	0.380100	0.681800	0.075900
H311	H31	0.119900	0.181800	0.924100
H321	H32	0.246700	0.826700	0.107800
C11	C1	0.174000	0.128500	0.944900
C21	C2	0.456900	0.518600	0.640600
C31	C3	0.144400	0.629800	0.141100
C41	C4	0.142800	0.969600	0.401000
C51	C5	0.137000	0.092800	0.003400
C61	C6	0.202400	0.580500	0.082100
C71	C7	0.137000	0.092800	0.496600
C81	C8	0.180200	0.876000	0.126000
C91	C9	0.319800	0.376000	0.626000
C101	C10	0.355600	0.129800	0.641100
C111	C11	0.363000	0.592800	0.503400
C121	C12	0.043100	0.018600	0.140600
C131	C13	0.297600	0.080500	0.582100
C141	C14	0.325000	0.509900	0.533900
C151	C15	0.144400	0.629800	0.358900
C161	C16	0.326000	0.628500	0.444900
C171	C17	0.142800	0.969600	0.099000
C181	C18	0.197000	0.465300	0.506400
C191	C19	0.357200	0.469600	0.599000
C201	C20	0.456900	0.518600	0.859400
C211	C21	0.363000	0.592800	0.996600
C221	C22	0.174000	0.128500	0.555100
C231	C23	0.357200	0.469600	0.901000
C241	C24	0.202400	0.580500	0.417900
C251	C25	0.138000	0.501600	0.048900
C261	C26	0.180200	0.876000	0.374000
C271	C27	0.138000	0.501600	0.451100
C281	C28	0.600000	0.464000	0.750000
C291	C29	0.355600	0.129800	0.858900
C301	C30	0.362000	0.001600	0.951100
C311	C31	0.319800	0.376000	0.874000
C321	C32	0.175000	0.009900	0.466100
C331	C33	0.362000	0.001600	0.548900
C341	C34	0.175000	0.009900	0.033900
C351	C35	0.303000	0.965300	0.493600
C361	C36	0.303000	0.965300	0.006400
C371	C37	0.297600	0.080500	0.917900
C381	C38	0.900000	0.964000	0.250000
C391	C39	0.326000	0.628500	0.055100
C401	C40	0.197000	0.465300	0.993600
C411	C41	0.043100	0.018600	0.359400
C421	C42	0.325000	0.509900	0.966100
N11	N1	0.103600	0.867200	0.315800
N21	N2	0.018900	0.955300	0.306800
N31	N3	0.103600	0.867200	0.184200
N41	N4	0.018900	0.955300	0.193200
N51	N5	0.481100	0.455300	0.806800
N61	N6	0.481100	0.455300	0.693200
N71	N7	0.396400	0.367200	0.684200
N81	N8	0.396400	0.367200	0.815800
O11	O1	0.287200	0.171600	0.679900
O21	O2	0.399500	0.807200	0.250000
O31	O3	0.022200	0.606100	0.150300
O41	O4	0.477800	0.106100	0.650300
O51	O5	0.212800	0.671600	0.179900
O61	O6	0.100500	0.307200	0.750000
O71	O7	0.022200	0.606100	0.349700
O81	O8	0.287200	0.171600	0.820100
O91	O9	0.477800	0.106100	0.849700
O101	O10	0.212800	0.671600	0.320100
Cu31	Cu3	0.650000	0.735400	0.250000
Cu41	Cu4	0.850000	0.235400	0.750000
H331	H33	0.849200	0.591600	0.026800
H341	H34	0.595000	0.146800	0.712600
H351	H35	0.345400	0.470200	0.250000
H361	H36	0.650800	0.091600	0.526800
H371	H37	0.154600	0.970200	0.750000
H381	H38	0.499100	0.416100	0.365900
H391	H39	0.570800	0.363900	0.027000
H401	H40	0.570800	0.363900	0.473000
H411	H41	0.548200	0.028800	0.065500
H421	H42	0.595000	0.146800	0.787400
H431	H43	0.753300	0.173300	0.892200
H441	H44	0.951800	0.528800	0.934500
H451	H45	0.000900	0.916100	0.634100
H461	H46	0.880100	0.818200	0.075900
H471	H47	0.548200	0.028800	0.434500
H481	H48	0.929200	0.863900	0.973000
H491	H49	0.174100	0.093200	0.750000
H501	H50	0.619900	0.318200	0.575900
H511	H51	0.929200	0.863900	0.527000
H521	H52	0.849200	0.591600	0.473200
H531	H53	0.880100	0.818200	0.424100
H541	H54	0.000900	0.916100	0.865900
H551	H55	0.905000	0.646800	0.212600
H561	H56	0.650800	0.091600	0.973200
H571	H57	0.619900	0.318200	0.924100
H581	H58	0.753300	0.173300	0.607800
H591	H59	0.746700	0.673300	0.107800
H601	H60	0.905000	0.646800	0.287400
H611	H61	0.325900	0.593200	0.250000
H621	H62	0.499100	0.416100	0.134100
H631	H63	0.746700	0.673300	0.392200
H641	H64	0.951800	0.528800	0.565500
C431	C43	0.680200	0.624000	0.374000
C441	C44	0.675000	0.490100	0.466100
C451	C45	0.956900	0.981400	0.859400
C461	C46	0.863000	0.907200	0.503400
C471	C47	0.638000	0.998400	0.451100
C481	C48	0.702400	0.919500	0.417900
C491	C49	0.855600	0.370200	0.641100
C501	C50	0.825000	0.990100	0.533900
C511	C51	0.826000	0.871500	0.444900
C521	C52	0.819800	0.124000	0.874000
C531	C53	0.400000	0.536000	0.250000
C541	C54	0.803000	0.534700	0.006400
C551	C55	0.674000	0.371500	0.944900
C561	C56	0.642800	0.530400	0.401000
C571	C57	0.862000	0.498400	0.951100
C581	C58	0.674000	0.371500	0.555100
C591	C59	0.100000	0.036000	0.750000
C601	C60	0.797600	0.419500	0.582100
C611	C61	0.803000	0.534700	0.493600
C621	C62	0.637000	0.407200	0.496600
C631	C63	0.857200	0.030400	0.599000
C641	C64	0.819800	0.124000	0.626000
C651	C65	0.697000	0.034700	0.993600
C661	C66	0.956900	0.981400	0.640600
C671	C67	0.637000	0.407200	0.003400
C681	C68	0.644400	0.870200	0.358900
C691	C69	0.697000	0.034700	0.506400
C701	C70	0.675000	0.490100	0.033900
C711	C71	0.825000	0.990100	0.966100
C721	C72	0.680200	0.624000	0.126000
C731	C73	0.826000	0.871500	0.055100
C741	C74	0.644400	0.870200	0.141100
C751	C75	0.638000	0.998400	0.048900
C761	C76	0.543100	0.481400	0.359400
C771	C77	0.863000	0.907200	0.996600
C781	C78	0.855600	0.370200	0.858900
C791	C79	0.797600	0.419500	0.917900
C801	C80	0.642800	0.530400	0.099000
C811	C81	0.543100	0.481400	0.140600
C821	C82	0.862000	0.498400	0.548900
C831	C83	0.857200	0.030400	0.901000
C841	C84	0.702400	0.919500	0.082100
N91	N9	0.896400	0.132800	0.684200
N101	N10	0.603600	0.632800	0.315800
N111	N11	0.518900	0.544700	0.193200
N121	N12	0.981100	0.044700	0.693200
N131	N13	0.518900	0.544700	0.306800
N141	N14	0.981100	0.044700	0.806800
N151	N15	0.603600	0.632800	0.184200
N161	N16	0.896400	0.132800	0.815800
O111	O11	0.522200	0.893900	0.349700
O121	O12	0.977800	0.393900	0.849700
O131	O13	0.977800	0.393900	0.650300
O141	O14	0.787200	0.328400	0.820100
O151	O15	0.899500	0.692800	0.250000
O161	O16	0.600500	0.192800	0.750000
O171	O17	0.712800	0.828400	0.179900
O181	O18	0.712800	0.828400	0.320100
O191	O19	0.522200	0.893900	0.150300
O201	O20	0.787200	0.328400	0.679900
