data_TIVYAZ01_freeONLY_PM
_symmetry_space_group_name_H-M	'P1'
_cell_length_a	15.041000
_cell_length_b	23.862000
_cell_length_c	28.479000
_cell_angle_alpha	90.000000
_cell_angle_beta	90.000000
_cell_angle_gamma	90.000000
_symmetry_Int_Tables_number 1

loop_
_symmetry_equiv_pos_as_xyz
'x,y,z'

loop_
_atom_site_label
_atom_site_type_symbol
_atom_site_fract_x
_atom_site_fract_y
_atom_site_fract_z
Co11	Co1	0.590990	0.855270	0.977870
Co21	Co2	0.746350	0.794990	0.063150
Co31	Co3	0.090990	0.644730	0.022130
Co41	Co4	0.246350	0.705010	0.936850
Co51	Co5	0.409010	0.144730	0.477870
Co61	Co6	0.253650	0.205010	0.563150
Co71	Co7	0.909010	0.355270	0.522130
Co81	Co8	0.753650	0.294990	0.436850
Co91	Co9	0.409010	0.144730	0.022130
Co101	Co10	0.253650	0.205010	0.936850
Co111	Co11	0.909010	0.355270	0.977870
Co121	Co12	0.753650	0.294990	0.063150
Co131	Co13	0.590990	0.855270	0.522130
Co141	Co14	0.746350	0.794990	0.436850
Co151	Co15	0.090990	0.644730	0.477870
Co161	Co16	0.246350	0.705010	0.563150
Co171	Co17	0.101220	0.877830	0.750000
Co181	Co18	0.888060	0.943760	0.750000
Co191	Co19	0.601220	0.622170	0.250000
Co201	Co20	0.388060	0.556240	0.250000
Co211	Co21	0.898780	0.122170	0.250000
Co221	Co22	0.111940	0.056240	0.250000
Co231	Co23	0.398780	0.377830	0.750000
Co241	Co24	0.611940	0.443760	0.750000
H11	H1	0.046400	0.782700	0.871200
H21	H2	0.874400	0.750300	0.976300
H31	H3	0.804400	0.853000	0.870000
H41	H4	0.203800	0.041400	0.878500
H51	H5	0.407000	0.990300	0.959600
H61	H6	0.306200	0.886700	0.861700
H71	H7	0.894200	0.868000	0.095200
H81	H8	0.031400	0.762400	0.059900
H91	H9	0.106400	0.777500	0.096000
H101	H10	0.105200	0.806000	0.046400
H111	H11	0.013200	0.907200	0.127600
H121	H12	0.099000	0.900500	0.096800
H131	H13	0.088000	0.865200	0.142900
H141	H14	0.546400	0.717300	0.128800
H151	H15	0.374400	0.749700	0.023700
H161	H16	0.304400	0.647000	0.130000
H171	H17	0.703800	0.458600	0.121500
H181	H18	0.907000	0.509700	0.040400
H191	H19	0.806200	0.613300	0.138300
H201	H20	0.394200	0.632000	0.904800
H211	H21	0.531400	0.737600	0.940100
H221	H22	0.606400	0.722500	0.904000
H231	H23	0.605200	0.694000	0.953600
H241	H24	0.513200	0.592800	0.872400
H251	H25	0.599000	0.599500	0.903200
H261	H26	0.588000	0.634800	0.857100
H271	H27	0.953600	0.217300	0.371200
H281	H28	0.125600	0.249700	0.476300
H291	H29	0.195600	0.147000	0.370000
H301	H30	0.796200	0.958600	0.378500
H311	H31	0.593000	0.009700	0.459600
H321	H32	0.693800	0.113300	0.361700
H331	H33	0.105800	0.132000	0.595200
H341	H34	0.968600	0.237600	0.559900
H351	H35	0.893600	0.222500	0.596000
H361	H36	0.894800	0.194000	0.546400
H371	H37	0.986800	0.092800	0.627600
H381	H38	0.901000	0.099500	0.596800
H391	H39	0.912000	0.134800	0.642900
H401	H40	0.453600	0.282700	0.628800
H411	H41	0.625600	0.250300	0.523700
H421	H42	0.695600	0.353000	0.630000
H431	H43	0.296200	0.541400	0.621500
H441	H44	0.093000	0.490300	0.540400
H451	H45	0.193800	0.386700	0.638300
H461	H46	0.605800	0.368000	0.404800
H471	H47	0.468600	0.262400	0.440100
H481	H48	0.393600	0.277500	0.404000
H491	H49	0.394800	0.306000	0.453600
H501	H50	0.486800	0.407200	0.372400
H511	H51	0.401000	0.400500	0.403200
H521	H52	0.412000	0.365200	0.357100
H531	H53	0.953600	0.217300	0.128800
H541	H54	0.125600	0.249700	0.023700
H551	H55	0.195600	0.147000	0.130000
H561	H56	0.796200	0.958600	0.121500
H571	H57	0.593000	0.009700	0.040400
H581	H58	0.693800	0.113300	0.138300
H591	H59	0.105800	0.132000	0.904800
H601	H60	0.968600	0.237600	0.940100
H611	H61	0.893600	0.222500	0.904000
H621	H62	0.894800	0.194000	0.953600
H631	H63	0.986800	0.092800	0.872400
H641	H64	0.901000	0.099500	0.903200
H651	H65	0.912000	0.134800	0.857100
H661	H66	0.453600	0.282700	0.871200
H671	H67	0.625600	0.250300	0.976300
H681	H68	0.695600	0.353000	0.870000
H691	H69	0.296200	0.541400	0.878500
H701	H70	0.093000	0.490300	0.959600
H711	H71	0.193800	0.386700	0.861700
H721	H72	0.605800	0.368000	0.095200
H731	H73	0.468600	0.262400	0.059900
H741	H74	0.393600	0.277500	0.096000
H751	H75	0.394800	0.306000	0.046400
H761	H76	0.486800	0.407200	0.127600
H771	H77	0.401000	0.400500	0.096800
H781	H78	0.412000	0.365200	0.142900
H791	H79	0.046400	0.782700	0.628800
H801	H80	0.874400	0.750300	0.523700
H811	H81	0.804400	0.853000	0.630000
H821	H82	0.203800	0.041400	0.621500
H831	H83	0.407000	0.990300	0.540400
H841	H84	0.306200	0.886700	0.638300
H851	H85	0.894200	0.868000	0.404800
H861	H86	0.031400	0.762400	0.440100
H871	H87	0.106400	0.777500	0.404000
H881	H88	0.105200	0.806000	0.453600
H891	H89	0.013200	0.907200	0.372400
H901	H90	0.099000	0.900500	0.403200
H911	H91	0.088000	0.865200	0.357100
H921	H92	0.546400	0.717300	0.371200
H931	H93	0.374400	0.749700	0.476300
H941	H94	0.304400	0.647000	0.370000
H951	H95	0.703800	0.458600	0.378500
H961	H96	0.907000	0.509700	0.459600
H971	H97	0.806200	0.613300	0.361700
H981	H98	0.394200	0.632000	0.595200
H991	H99	0.531400	0.737600	0.559900
H1001	H100	0.606400	0.722500	0.596000
H1011	H101	0.605200	0.694000	0.546400
H1021	H102	0.513200	0.592800	0.627600
H1031	H103	0.599000	0.599500	0.596800
H1041	H104	0.588000	0.634800	0.642900
C11	C1	0.952200	0.853200	0.818900
C21	C2	0.928700	0.822600	0.863680
C31	C3	0.990900	0.787700	0.884990
C41	C4	0.970600	0.760110	0.927080
C51	C5	0.888000	0.768170	0.948170
C61	C6	0.826000	0.803330	0.926660
C71	C7	0.846400	0.830050	0.884350
C81	C8	0.737500	0.814410	0.949150
C91	C9	0.039500	0.722170	0.948720
C101	C10	0.177300	0.951600	0.825750
C111	C11	0.243900	0.962300	0.864380
C121	C12	0.244400	0.013880	0.887200
C131	C13	0.305400	0.024530	0.923020
C141	C14	0.366700	0.983370	0.935500
C151	C15	0.368100	0.932060	0.912350
C161	C16	0.306200	0.921150	0.876920
C171	C17	0.308300	0.080900	0.946540
C181	C18	0.437200	0.888820	0.925820
C191	C19	0.721400	0.890000	0.775000
C201	C20	0.615700	0.928100	0.830800
C211	C21	0.614200	0.828500	0.810800
C221	C22	0.926200	0.838200	0.082800
C231	C23	0.068900	0.791900	0.071500
C241	C24	0.057200	0.881200	0.116600
C251	C25	0.452200	0.646800	0.181100
C261	C26	0.428700	0.677400	0.136320
C271	C27	0.490900	0.712300	0.115010
C281	C28	0.470600	0.739890	0.072920
C291	C29	0.388000	0.731830	0.051830
C301	C30	0.326000	0.696670	0.073340
C311	C31	0.346400	0.669950	0.115650
C321	C32	0.237500	0.685590	0.050850
C331	C33	0.539500	0.777830	0.051280
C341	C34	0.677300	0.548400	0.174250
C351	C35	0.743900	0.537700	0.135620
C361	C36	0.744400	0.486120	0.112800
C371	C37	0.805400	0.475470	0.076980
C381	C38	0.866700	0.516630	0.064500
C391	C39	0.868100	0.567940	0.087650
C401	C40	0.806200	0.578850	0.123080
C411	C41	0.808300	0.419100	0.053460
C421	C42	0.937200	0.611180	0.074180
C431	C43	0.221400	0.610000	0.225000
C441	C44	0.115700	0.571900	0.169200
C451	C45	0.114200	0.671500	0.189200
C461	C46	0.426200	0.661800	0.917200
C471	C47	0.568900	0.708100	0.928500
C481	C48	0.557200	0.618800	0.883400
C491	C49	0.047800	0.146800	0.318900
C501	C50	0.071300	0.177400	0.363680
C511	C51	0.009100	0.212300	0.384990
C521	C52	0.029400	0.239890	0.427080
C531	C53	0.112000	0.231830	0.448170
C541	C54	0.174000	0.196670	0.426660
C551	C55	0.153600	0.169950	0.384350
C561	C56	0.262500	0.185590	0.449150
C571	C57	0.960500	0.277830	0.448720
C581	C58	0.822700	0.048400	0.325750
C591	C59	0.756100	0.037700	0.364380
C601	C60	0.755600	0.986120	0.387200
C611	C61	0.694600	0.975470	0.423020
C621	C62	0.633300	0.016630	0.435500
C631	C63	0.631900	0.067940	0.412350
C641	C64	0.693800	0.078850	0.376920
C651	C65	0.691700	0.919100	0.446540
C661	C66	0.562800	0.111180	0.425820
C671	C67	0.278600	0.110000	0.275000
C681	C68	0.384300	0.071900	0.330800
C691	C69	0.385800	0.171500	0.310800
C701	C70	0.073800	0.161800	0.582800
C711	C71	0.931100	0.208100	0.571500
C721	C72	0.942800	0.118800	0.616600
C731	C73	0.547800	0.353200	0.681100
C741	C74	0.571300	0.322600	0.636320
C751	C75	0.509100	0.287700	0.615010
C761	C76	0.529400	0.260110	0.572920
C771	C77	0.612000	0.268170	0.551830
C781	C78	0.674000	0.303330	0.573340
C791	C79	0.653600	0.330050	0.615650
C801	C80	0.762500	0.314410	0.550850
C811	C81	0.460500	0.222170	0.551280
C821	C82	0.322700	0.451600	0.674250
C831	C83	0.256100	0.462300	0.635620
C841	C84	0.255600	0.513880	0.612800
C851	C85	0.194600	0.524530	0.576980
C861	C86	0.133300	0.483370	0.564500
C871	C87	0.131900	0.432060	0.587650
C881	C88	0.193800	0.421150	0.623080
C891	C89	0.191700	0.580900	0.553460
C901	C90	0.062800	0.388820	0.574180
C911	C91	0.778600	0.390000	0.725000
C921	C92	0.884300	0.428100	0.669200
C931	C93	0.885800	0.328500	0.689200
C941	C94	0.573800	0.338200	0.417200
C951	C95	0.431100	0.291900	0.428500
C961	C96	0.442800	0.381200	0.383400
C971	C97	0.047800	0.146800	0.181100
C981	C98	0.071300	0.177400	0.136320
C991	C99	0.009100	0.212300	0.115010
C1001	C100	0.029400	0.239890	0.072920
C1011	C101	0.112000	0.231830	0.051830
C1021	C102	0.174000	0.196670	0.073340
C1031	C103	0.153600	0.169950	0.115650
C1041	C104	0.262500	0.185590	0.050850
C1051	C105	0.960500	0.277830	0.051280
C1061	C106	0.822700	0.048400	0.174250
C1071	C107	0.756100	0.037700	0.135620
C1081	C108	0.755600	0.986120	0.112800
C1091	C109	0.694600	0.975470	0.076980
C1101	C110	0.633300	0.016630	0.064500
C1111	C111	0.631900	0.067940	0.087650
C1121	C112	0.693800	0.078850	0.123080
C1131	C113	0.691700	0.919100	0.053460
C1141	C114	0.562800	0.111180	0.074180
C1151	C115	0.278600	0.110000	0.225000
C1161	C116	0.384300	0.071900	0.169200
C1171	C117	0.385800	0.171500	0.189200
C1181	C118	0.073800	0.161800	0.917200
C1191	C119	0.931100	0.208100	0.928500
C1201	C120	0.942800	0.118800	0.883400
C1211	C121	0.547800	0.353200	0.818900
C1221	C122	0.571300	0.322600	0.863680
C1231	C123	0.509100	0.287700	0.884990
C1241	C124	0.529400	0.260110	0.927080
C1251	C125	0.612000	0.268170	0.948170
C1261	C126	0.674000	0.303330	0.926660
C1271	C127	0.653600	0.330050	0.884350
C1281	C128	0.762500	0.314410	0.949150
C1291	C129	0.460500	0.222170	0.948720
C1301	C130	0.322700	0.451600	0.825750
C1311	C131	0.256100	0.462300	0.864380
C1321	C132	0.255600	0.513880	0.887200
C1331	C133	0.194600	0.524530	0.923020
C1341	C134	0.133300	0.483370	0.935500
C1351	C135	0.131900	0.432060	0.912350
C1361	C136	0.193800	0.421150	0.876920
C1371	C137	0.191700	0.580900	0.946540
C1381	C138	0.062800	0.388820	0.925820
C1391	C139	0.778600	0.390000	0.775000
C1401	C140	0.884300	0.428100	0.830800
C1411	C141	0.885800	0.328500	0.810800
C1421	C142	0.573800	0.338200	0.082800
C1431	C143	0.431100	0.291900	0.071500
C1441	C144	0.442800	0.381200	0.116600
C1451	C145	0.952200	0.853200	0.681100
C1461	C146	0.928700	0.822600	0.636320
C1471	C147	0.990900	0.787700	0.615010
C1481	C148	0.970600	0.760110	0.572920
C1491	C149	0.888000	0.768170	0.551830
C1501	C150	0.826000	0.803330	0.573340
C1511	C151	0.846400	0.830050	0.615650
C1521	C152	0.737500	0.814410	0.550850
C1531	C153	0.039500	0.722170	0.551280
C1541	C154	0.177300	0.951600	0.674250
C1551	C155	0.243900	0.962300	0.635620
C1561	C156	0.244400	0.013880	0.612800
C1571	C157	0.305400	0.024530	0.576980
C1581	C158	0.366700	0.983370	0.564500
C1591	C159	0.368100	0.932060	0.587650
C1601	C160	0.306200	0.921150	0.623080
C1611	C161	0.308300	0.080900	0.553460
C1621	C162	0.437200	0.888820	0.574180
C1631	C163	0.721400	0.890000	0.725000
C1641	C164	0.615700	0.928100	0.669200
C1651	C165	0.614200	0.828500	0.689200
C1661	C166	0.926200	0.838200	0.417200
C1671	C167	0.068900	0.791900	0.428500
C1681	C168	0.057200	0.881200	0.383400
C1691	C169	0.452200	0.646800	0.318900
C1701	C170	0.428700	0.677400	0.363680
C1711	C171	0.490900	0.712300	0.384990
C1721	C172	0.470600	0.739890	0.427080
C1731	C173	0.388000	0.731830	0.448170
C1741	C174	0.326000	0.696670	0.426660
C1751	C175	0.346400	0.669950	0.384350
C1761	C176	0.237500	0.685590	0.449150
C1771	C177	0.539500	0.777830	0.448720
C1781	C178	0.677300	0.548400	0.325750
C1791	C179	0.743900	0.537700	0.364380
C1801	C180	0.744400	0.486120	0.387200
C1811	C181	0.805400	0.475470	0.423020
C1821	C182	0.866700	0.516630	0.435500
C1831	C183	0.868100	0.567940	0.412350
C1841	C184	0.806200	0.578850	0.376920
C1851	C185	0.808300	0.419100	0.446540
C1861	C186	0.937200	0.611180	0.425820
C1871	C187	0.221400	0.610000	0.275000
C1881	C188	0.115700	0.571900	0.330800
C1891	C189	0.114200	0.671500	0.310800
C1901	C190	0.426200	0.661800	0.582800
C1911	C191	0.568900	0.708100	0.571500
C1921	C192	0.557200	0.618800	0.616600
N11	N1	0.014200	0.836900	0.090000
N21	N2	0.644300	0.886100	0.802400
N31	N3	0.514200	0.663100	0.910000
N41	N4	0.144300	0.613900	0.197600
N51	N5	0.985800	0.163100	0.590000
N61	N6	0.355700	0.113900	0.302400
N71	N7	0.485800	0.336900	0.410000
N81	N8	0.855700	0.386100	0.697600
N91	N9	0.985800	0.163100	0.910000
N101	N10	0.355700	0.113900	0.197600
N111	N11	0.485800	0.336900	0.090000
N121	N12	0.855700	0.386100	0.802400
N131	N13	0.014200	0.836900	0.410000
N141	N14	0.644300	0.886100	0.697600
N151	N15	0.514200	0.663100	0.590000
N161	N16	0.144300	0.613900	0.302400
O11	O1	0.027800	0.842680	0.801970
O21	O2	0.894300	0.885990	0.803110
O31	O3	0.678200	0.840330	0.925730
O41	O4	0.721200	0.799180	0.990460
O51	O5	0.017400	0.697670	0.986580
O61	O6	0.111500	0.716540	0.927240
O71	O7	0.116000	0.987000	0.820990
O81	O8	0.188300	0.908400	0.800930
O91	O9	0.259700	0.118930	0.930080
O101	O10	0.359800	0.084650	0.981660
O111	O11	0.499900	0.907000	0.951900
O121	O12	0.430200	0.839140	0.912460
O131	O13	0.873700	0.005930	0.802570
O141	O14	0.761400	0.787600	0.136770
O151	O15	0.769200	0.708840	0.055980
O161	O16	0.885800	0.802640	0.060950
O171	O17	0.527800	0.657320	0.198030
O181	O18	0.394300	0.614010	0.196890
O191	O19	0.178200	0.659670	0.074270
O201	O20	0.221200	0.700820	0.009540
O211	O21	0.517400	0.802330	0.013420
O221	O22	0.611500	0.783460	0.072760
O231	O23	0.616000	0.513000	0.179010
O241	O24	0.688300	0.591600	0.199070
O251	O25	0.759700	0.381070	0.069920
O261	O26	0.859800	0.415350	0.018340
O271	O27	0.999900	0.593000	0.048100
O281	O28	0.930200	0.660860	0.087540
O291	O29	0.373700	0.494070	0.197430
O301	O30	0.261400	0.712400	0.863230
O311	O31	0.269200	0.791160	0.944020
O321	O32	0.385800	0.697360	0.939050
O331	O33	0.972200	0.157320	0.301970
O341	O34	0.105700	0.114010	0.303110
O351	O35	0.321800	0.159670	0.425730
O361	O36	0.278800	0.200820	0.490460
O371	O37	0.982600	0.302330	0.486580
O381	O38	0.888500	0.283460	0.427240
O391	O39	0.884000	0.013000	0.320990
O401	O40	0.811700	0.091600	0.300930
O411	O41	0.740300	0.881070	0.430080
O421	O42	0.640200	0.915350	0.481660
O431	O43	0.500100	0.093000	0.451900
O441	O44	0.569800	0.160860	0.412460
O451	O45	0.126300	0.994070	0.302570
O461	O46	0.238600	0.212400	0.636770
O471	O47	0.230800	0.291160	0.555980
O481	O48	0.114200	0.197360	0.560950
O491	O49	0.472200	0.342680	0.698030
O501	O50	0.605700	0.385990	0.696890
O511	O51	0.821800	0.340330	0.574270
O521	O52	0.778800	0.299180	0.509540
O531	O53	0.482600	0.197670	0.513420
O541	O54	0.388500	0.216540	0.572760
O551	O55	0.384000	0.487000	0.679010
O561	O56	0.311700	0.408400	0.699070
O571	O57	0.240300	0.618930	0.569920
O581	O58	0.140200	0.584650	0.518340
O591	O59	0.000100	0.407000	0.548100
O601	O60	0.069800	0.339140	0.587540
O611	O61	0.626300	0.505930	0.697430
O621	O62	0.738600	0.287600	0.363230
O631	O63	0.730800	0.208840	0.444020
O641	O64	0.614200	0.302640	0.439050
O651	O65	0.972200	0.157320	0.198030
O661	O66	0.105700	0.114010	0.196890
O671	O67	0.321800	0.159670	0.074270
O681	O68	0.278800	0.200820	0.009540
O691	O69	0.982600	0.302330	0.013420
O701	O70	0.888500	0.283460	0.072760
O711	O71	0.884000	0.013000	0.179010
O721	O72	0.811700	0.091600	0.199070
O731	O73	0.740300	0.881070	0.069920
O741	O74	0.640200	0.915350	0.018340
O751	O75	0.500100	0.093000	0.048100
O761	O76	0.569800	0.160860	0.087540
O771	O77	0.126300	0.994070	0.197430
O781	O78	0.238600	0.212400	0.863230
O791	O79	0.230800	0.291160	0.944020
O801	O80	0.114200	0.197360	0.939050
O811	O81	0.472200	0.342680	0.801970
O821	O82	0.605700	0.385990	0.803110
O831	O83	0.821800	0.340330	0.925730
O841	O84	0.778800	0.299180	0.990460
O851	O85	0.482600	0.197670	0.986580
O861	O86	0.388500	0.216540	0.927240
O871	O87	0.384000	0.487000	0.820990
O881	O88	0.311700	0.408400	0.800930
O891	O89	0.240300	0.618930	0.930080
O901	O90	0.140200	0.584650	0.981660
O911	O91	0.000100	0.407000	0.951900
O921	O92	0.069800	0.339140	0.912460
O931	O93	0.626300	0.505930	0.802570
O941	O94	0.738600	0.287600	0.136770
O951	O95	0.730800	0.208840	0.055980
O961	O96	0.614200	0.302640	0.060950
O971	O97	0.027800	0.842680	0.698030
O981	O98	0.894300	0.885990	0.696890
O991	O99	0.678200	0.840330	0.574270
O1001	O100	0.721200	0.799180	0.509540
O1011	O101	0.017400	0.697670	0.513420
O1021	O102	0.111500	0.716540	0.572760
O1031	O103	0.116000	0.987000	0.679010
O1041	O104	0.188300	0.908400	0.699070
O1051	O105	0.259700	0.118930	0.569920
O1061	O106	0.359800	0.084650	0.518340
O1071	O107	0.499900	0.907000	0.548100
O1081	O108	0.430200	0.839140	0.587540
O1091	O109	0.873700	0.005930	0.697430
O1101	O110	0.761400	0.787600	0.363230
O1111	O111	0.769200	0.708840	0.444020
O1121	O112	0.885800	0.802640	0.439050
O1131	O113	0.527800	0.657320	0.301970
O1141	O114	0.394300	0.614010	0.303110
O1151	O115	0.178200	0.659670	0.425730
O1161	O116	0.221200	0.700820	0.490460
O1171	O117	0.517400	0.802330	0.486580
O1181	O118	0.611500	0.783460	0.427240
O1191	O119	0.616000	0.513000	0.320990
O1201	O120	0.688300	0.591600	0.300930
O1211	O121	0.759700	0.381070	0.430080
O1221	O122	0.859800	0.415350	0.481660
O1231	O123	0.999900	0.593000	0.451900
O1241	O124	0.930200	0.660860	0.412460
O1251	O125	0.373700	0.494070	0.302570
O1261	O126	0.261400	0.712400	0.636770
O1271	O127	0.269200	0.791160	0.555980
O1281	O128	0.385800	0.697360	0.560950
O1291	O129	0.026000	0.955090	0.750000
O1301	O130	0.179000	0.801600	0.750000
O1311	O131	0.749600	0.934100	0.750000
O1321	O132	0.526000	0.544910	0.250000
O1331	O133	0.679000	0.698400	0.250000
O1341	O134	0.249600	0.565900	0.250000
O1351	O135	0.974000	0.044910	0.250000
O1361	O136	0.821000	0.198400	0.250000
O1371	O137	0.250400	0.065900	0.250000
O1381	O138	0.474000	0.455090	0.750000
O1391	O139	0.321000	0.301600	0.750000
O1401	O140	0.750400	0.434100	0.750000
