data_TONLOY_freeONLY_PM
_symmetry_space_group_name_H-M	'P1'
_cell_length_a	12.073600
_cell_length_b	16.171500
_cell_length_c	16.171500
_cell_angle_alpha	65.977300
_cell_angle_beta	75.589600
_cell_angle_gamma	104.410000
_symmetry_Int_Tables_number 1

loop_
_symmetry_equiv_pos_as_xyz
'x,y,z'

loop_
_atom_site_label
_atom_site_type_symbol
_atom_site_fract_x
_atom_site_fract_y
_atom_site_fract_z
Cd11	Cd1	0.007000	0.514000	0.743000
Cd21	Cd2	0.750000	0.743000	0.743000
Cd31	Cd3	0.493000	0.743000	0.514000
H11	H1	0.050800	0.725500	0.657900
H21	H2	0.708700	0.657900	0.616600
H31	H3	0.325300	0.616600	0.725500
H41	H4	0.791300	0.616600	0.657900
H51	H5	0.174700	0.725500	0.616600
H61	H6	0.449200	0.657900	0.725500
H71	H7	0.978400	0.609800	0.530700
H81	H8	0.129100	0.684200	0.363600
H91	H9	0.320000	0.517800	0.348700
H101	H10	0.414300	0.609100	0.245900
H111	H11	0.372200	0.711900	0.293200
H121	H12	0.413400	0.641400	0.367300
H131	H13	0.509100	0.530700	0.859500
H141	H14	0.492700	0.363600	0.952200
H151	H15	0.668700	0.348700	0.133500
H161	H16	0.660200	0.245900	0.145000
H171	H17	0.665400	0.293200	0.994900
H181	H18	0.780700	0.367300	0.991300
H191	H19	0.368600	0.859500	0.609800
H201	H20	0.444900	0.952200	0.684200
H211	H21	0.802200	0.133500	0.517800
H221	H22	0.805200	0.145000	0.609100
H231	H23	0.660300	0.994900	0.711900
H241	H24	0.772000	0.991300	0.641400
H251	H25	0.990900	0.859500	0.530700
H261	H26	0.007300	0.952200	0.363600
H271	H27	0.831300	0.133500	0.348700
H281	H28	0.839800	0.145000	0.245900
H291	H29	0.834600	0.994900	0.293200
H301	H30	0.719300	0.991300	0.367300
H311	H31	0.131400	0.609800	0.859500
H321	H32	0.055100	0.684200	0.952200
H331	H33	0.697800	0.517800	0.133500
H341	H34	0.694800	0.609100	0.145000
H351	H35	0.839700	0.711900	0.994900
H361	H36	0.728000	0.641400	0.991300
H371	H37	0.521600	0.530700	0.609800
H381	H38	0.370900	0.363600	0.684200
H391	H39	0.180000	0.348700	0.517800
H401	H40	0.085700	0.245900	0.609100
H411	H41	0.127800	0.293200	0.711900
H421	H42	0.086600	0.367300	0.641400
C11	C1	0.207700	0.561500	0.523800
C21	C2	0.054100	0.603600	0.513400
C31	C3	0.137100	0.645100	0.420800
C41	C4	0.335800	0.584200	0.300500
C51	C5	0.226200	0.580500	0.260200
C61	C6	0.347000	0.644200	0.344000
C71	C7	0.731500	0.523800	0.914700
C81	C8	0.567500	0.513400	0.883000
C91	C9	0.557900	0.420800	0.934100
C101	C10	0.636300	0.300500	0.115300
C111	C11	0.486400	0.260200	0.159300
C121	C12	0.691000	0.344000	0.011800
C131	C13	0.646200	0.914700	0.561500
C141	C14	0.450500	0.883000	0.603600
C151	C15	0.492000	0.934100	0.645100
C161	C16	0.751600	0.115300	0.584200
C171	C17	0.645700	0.159300	0.580500
C181	C18	0.702800	0.011800	0.644200
C191	C19	0.768500	0.914700	0.523800
C201	C20	0.932500	0.883000	0.513400
C211	C21	0.942100	0.934100	0.420800
C221	C22	0.863700	0.115300	0.300500
C231	C23	0.013600	0.159300	0.260200
C241	C24	0.809000	0.011800	0.344000
C251	C25	0.853800	0.561500	0.914700
C261	C26	0.049500	0.603600	0.883000
C271	C27	0.008000	0.645100	0.934100
C281	C28	0.748400	0.584200	0.115300
C291	C29	0.854300	0.580500	0.159300
C301	C30	0.797200	0.644200	0.011800
C311	C31	0.292300	0.523800	0.561500
C321	C32	0.445900	0.513400	0.603600
C331	C33	0.362900	0.420800	0.645100
C341	C34	0.164200	0.300500	0.584200
C351	C35	0.273800	0.260200	0.580500
C361	C36	0.153000	0.344000	0.644200
N11	N1	0.097200	0.551300	0.578400
N21	N2	0.235500	0.619000	0.426200
N31	N3	0.675600	0.578400	0.870300
N41	N4	0.661700	0.426200	0.954800
N51	N5	0.545900	0.870300	0.551300
N61	N6	0.616500	0.954800	0.619000
N71	N7	0.824400	0.870300	0.578400
N81	N8	0.838300	0.954800	0.426200
N91	N9	0.954100	0.551300	0.870300
N101	N10	0.883500	0.619000	0.954800
N111	N11	0.402800	0.578400	0.551300
N121	N12	0.264500	0.426200	0.619000
O11	O1	0.177700	0.632900	0.218400
O21	O2	0.179100	0.493400	0.288300
O31	O3	0.396100	0.218400	0.148700
O41	O4	0.467400	0.288300	0.218300
O51	O5	0.544800	0.148700	0.632900
O61	O6	0.685700	0.218300	0.493400
O71	O7	0.103900	0.148700	0.218400
O81	O8	0.032600	0.218300	0.288300
O91	O9	0.955200	0.632900	0.148700
O101	O10	0.814300	0.493400	0.218300
O111	O11	0.322300	0.218400	0.632900
O121	O12	0.320900	0.288300	0.493400
O131	O13	0.091350	0.682700	0.658650
O141	O14	0.750000	0.658650	0.658650
O151	O15	0.408650	0.658650	0.682700
Cd41	Cd4	0.993000	0.486000	0.257000
Cd51	Cd5	0.250000	0.257000	0.257000
Cd61	Cd6	0.507000	0.257000	0.486000
H431	H43	0.021600	0.390200	0.469300
H441	H44	0.870900	0.315800	0.636400
H451	H45	0.680000	0.482200	0.651300
H461	H46	0.585700	0.390900	0.754100
H471	H47	0.627800	0.288100	0.706800
H481	H48	0.586600	0.358600	0.632700
H491	H49	0.490900	0.469300	0.140500
H501	H50	0.507300	0.636400	0.047800
H511	H51	0.331300	0.651300	0.866500
H521	H52	0.339800	0.754100	0.855000
H531	H53	0.334600	0.706800	0.005100
H541	H54	0.219300	0.632700	0.008700
H551	H55	0.631400	0.140500	0.390200
H561	H56	0.555100	0.047800	0.315800
H571	H57	0.197800	0.866500	0.482200
H581	H58	0.194800	0.855000	0.390900
H591	H59	0.339700	0.005100	0.288100
H601	H60	0.228000	0.008700	0.358600
H611	H61	0.009100	0.140500	0.469300
H621	H62	0.992700	0.047800	0.636400
H631	H63	0.168700	0.866500	0.651300
H641	H64	0.160200	0.855000	0.754100
H651	H65	0.165400	0.005100	0.706800
H661	H66	0.280700	0.008700	0.632700
H671	H67	0.868600	0.390200	0.140500
H681	H68	0.944900	0.315800	0.047800
H691	H69	0.302200	0.482200	0.866500
H701	H70	0.305200	0.390900	0.855000
H711	H71	0.160300	0.288100	0.005100
H721	H72	0.272000	0.358600	0.008700
H731	H73	0.478400	0.469300	0.390200
H741	H74	0.629100	0.636400	0.315800
H751	H75	0.820000	0.651300	0.482200
H761	H76	0.914300	0.754100	0.390900
H771	H77	0.872200	0.706800	0.288100
H781	H78	0.913400	0.632700	0.358600
H791	H79	0.949200	0.274500	0.342100
H801	H80	0.291300	0.342100	0.383400
H811	H81	0.674700	0.383400	0.274500
H821	H82	0.208700	0.383400	0.342100
H831	H83	0.825300	0.274500	0.383400
H841	H84	0.550800	0.342100	0.274500
C371	C37	0.792300	0.438500	0.476200
C381	C38	0.945900	0.396400	0.486600
C391	C39	0.862900	0.354900	0.579200
C401	C40	0.664200	0.415800	0.699500
C411	C41	0.773800	0.419500	0.739800
C421	C42	0.653000	0.355800	0.656000
C431	C43	0.268500	0.476200	0.085300
C441	C44	0.432500	0.486600	0.117000
C451	C45	0.442100	0.579200	0.065900
C461	C46	0.363700	0.699500	0.884700
C471	C47	0.513600	0.739800	0.840700
C481	C48	0.309000	0.656000	0.988200
C491	C49	0.353800	0.085300	0.438500
C501	C50	0.549500	0.117000	0.396400
C511	C51	0.508000	0.065900	0.354900
C521	C52	0.248400	0.884700	0.415800
C531	C53	0.354300	0.840700	0.419500
C541	C54	0.297200	0.988200	0.355800
C551	C55	0.231500	0.085300	0.476200
C561	C56	0.067500	0.117000	0.486600
C571	C57	0.057900	0.065900	0.579200
C581	C58	0.136300	0.884700	0.699500
C591	C59	0.986400	0.840700	0.739800
C601	C60	0.191000	0.988200	0.656000
C611	C61	0.146200	0.438500	0.085300
C621	C62	0.950500	0.396400	0.117000
C631	C63	0.992000	0.354900	0.065900
C641	C64	0.251600	0.415800	0.884700
C651	C65	0.145700	0.419500	0.840700
C661	C66	0.202800	0.355800	0.988200
C671	C67	0.707700	0.476200	0.438500
C681	C68	0.554100	0.486600	0.396400
C691	C69	0.637100	0.579200	0.354900
C701	C70	0.835800	0.699500	0.415800
C711	C71	0.726200	0.739800	0.419500
C721	C72	0.847000	0.656000	0.355800
N131	N13	0.902800	0.448700	0.421600
N141	N14	0.764500	0.381000	0.573800
N151	N15	0.324400	0.421600	0.129700
N161	N16	0.338300	0.573800	0.045200
N171	N17	0.454100	0.129700	0.448700
N181	N18	0.383500	0.045200	0.381000
N191	N19	0.175600	0.129700	0.421600
N201	N20	0.161700	0.045200	0.573800
N211	N21	0.045900	0.448700	0.129700
N221	N22	0.116500	0.381000	0.045200
N231	N23	0.597200	0.421600	0.448700
N241	N24	0.735500	0.573800	0.381000
O161	O16	0.822300	0.367100	0.781600
O171	O17	0.820900	0.506600	0.711700
O181	O18	0.603900	0.781600	0.851300
O191	O19	0.532600	0.711700	0.781700
O201	O20	0.455200	0.851300	0.367100
O211	O21	0.314300	0.781700	0.506600
O221	O22	0.896100	0.851300	0.781600
O231	O23	0.967400	0.781700	0.711700
O241	O24	0.044800	0.367100	0.851300
O251	O25	0.185700	0.506600	0.781700
O261	O26	0.677700	0.781600	0.367100
O271	O27	0.679100	0.711700	0.506600
O281	O28	0.908650	0.317300	0.341350
O291	O29	0.250000	0.341350	0.341350
O301	O30	0.591350	0.341350	0.317300
