data_TOVJUL_freeONLY_PM
_symmetry_space_group_name_H-M	'P1'
_cell_length_a	23.090000
_cell_length_b	24.240000
_cell_length_c	23.970000
_cell_angle_alpha	104.274000
_cell_angle_beta	90.000000
_cell_angle_gamma	90.000000
_symmetry_Int_Tables_number 1

loop_
_symmetry_equiv_pos_as_xyz
'x,y,z'

loop_
_atom_site_label
_atom_site_type_symbol
_atom_site_fract_x
_atom_site_fract_y
_atom_site_fract_z
Fe11	Fe1	0.794850	0.468100	0.238670
Fe21	Fe2	0.236600	0.025230	0.698420
Fe31	Fe3	0.789300	0.854830	0.342300
Fe41	Fe4	0.303010	0.392060	0.227700
Fe51	Fe5	0.076830	0.468580	0.746690
Fe61	Fe6	0.767000	0.975610	0.439530
Fe71	Fe7	0.205150	0.531900	0.761330
Fe81	Fe8	0.696990	0.607940	0.772300
Fe91	Fe9	0.803010	0.607940	0.272300
Fe101	Fe10	0.263400	0.025230	0.198420
Fe111	Fe11	0.267000	0.024390	0.060470
Fe121	Fe12	0.289300	0.145170	0.157700
Fe131	Fe13	0.196990	0.392060	0.727700
Fe141	Fe14	0.736600	0.974770	0.801580
Fe151	Fe15	0.733000	0.975610	0.939530
Fe161	Fe16	0.423170	0.468580	0.246690
Fe171	Fe17	0.233000	0.024390	0.560470
Fe181	Fe18	0.210700	0.145170	0.657700
Fe191	Fe19	0.294850	0.531900	0.261330
Fe201	Fe20	0.576830	0.531420	0.753310
Fe211	Fe21	0.763400	0.974770	0.301580
Fe221	Fe22	0.705150	0.468100	0.738670
Fe231	Fe23	0.710700	0.854830	0.842300
Fe241	Fe24	0.923170	0.531420	0.253310
Si11	Si1	0.499000	0.761000	0.532900
Si21	Si2	0.501000	0.239000	0.467100
Si31	Si3	0.992600	0.749600	0.594600
Si41	Si4	0.999000	0.239000	0.967100
Si51	Si5	0.007400	0.250400	0.405400
Si61	Si6	0.507400	0.749600	0.094600
Si71	Si7	0.492600	0.250400	0.905400
Si81	Si8	0.001000	0.761000	0.032900
H11	H1	0.548400	0.872300	0.564200
H21	H2	0.899500	0.768400	0.099700
H31	H3	0.058200	0.817900	0.147600
H41	H4	0.700100	0.575900	0.420800
H51	H5	0.200100	0.424100	0.079200
H61	H6	0.972300	0.445900	0.720300
H71	H7	0.159200	0.229900	0.090500
H81	H8	0.459100	0.669500	0.998800
H91	H9	0.169500	0.414200	0.359900
H101	H10	0.071700	0.164300	0.796600
H111	H11	0.957100	0.640100	0.612000
H121	H12	0.859200	0.529200	0.650900
H131	H13	0.448700	0.683300	0.594500
H141	H14	0.355200	0.293700	0.061300
H151	H15	0.993300	0.380300	0.591500
H161	H16	0.626900	0.109600	0.324800
H171	H17	0.999600	0.428900	0.348500
H181	H18	0.384800	0.899200	0.187600
H191	H19	0.758800	0.044100	0.033900
H201	H20	0.932100	0.897700	0.518600
H211	H21	0.988200	0.370500	0.846200
H221	H22	0.140000	0.285500	0.841000
H231	H23	0.110800	0.882400	0.515100
H241	H24	0.042900	0.359900	0.388000
H251	H25	0.340800	0.229900	0.590500
H261	H26	0.011800	0.629500	0.153800
H271	H27	0.728400	0.040900	0.243600
H281	H28	0.503200	0.423700	0.604300
H291	H29	0.312900	0.475200	0.899700
H301	H30	0.585200	0.832700	0.991000
H311	H31	0.959100	0.330500	0.501200
H321	H32	0.392200	0.741700	0.477900
H331	H33	0.558100	0.900500	0.703600
H341	H34	0.367100	0.091300	0.814100
H351	H35	0.441800	0.817900	0.647600
H361	H36	0.830500	0.585800	0.640100
H371	H37	0.105800	0.731900	0.636900
H381	H38	0.870900	0.088900	0.987500
H391	H39	0.499600	0.571100	0.151500
H401	H40	0.228400	0.959100	0.256400
H411	H41	0.996800	0.423700	0.104300
H421	H42	0.771600	0.040900	0.743600
H431	H43	0.144800	0.293700	0.561300
H441	H44	0.644800	0.706300	0.938700
H451	H45	0.373100	0.890400	0.675200
H461	H46	0.551300	0.316700	0.405500
H471	H47	0.140800	0.470800	0.349100
H481	H48	0.834600	0.760000	0.728800
H491	H49	0.589200	0.716800	0.169600
H501	H50	0.952600	0.194800	0.495200
H511	H51	0.047400	0.805200	0.504800
H521	H52	0.394200	0.731900	0.136900
H531	H53	0.939600	0.161400	0.015100
H541	H54	0.414800	0.167300	0.009000
H551	H55	0.867100	0.908700	0.685900
H561	H56	0.085200	0.167300	0.509000
H571	H57	0.000400	0.571100	0.651500
H581	H58	0.914800	0.832700	0.491000
H591	H59	0.640000	0.714500	0.659000
H601	H60	0.606400	0.865800	0.661200
H611	H61	0.558200	0.182100	0.352400
H621	H62	0.039600	0.351200	0.033600
H631	H63	0.889200	0.117600	0.484900
H641	H64	0.299900	0.424100	0.579200
H651	H65	0.610600	0.756000	0.029000
H661	H66	0.600500	0.768400	0.599700
H671	H67	0.855200	0.706300	0.438700
H681	H68	0.741200	0.044100	0.533900
H691	H69	0.149100	0.662900	0.676400
H701	H70	0.359200	0.470800	0.849100
H711	H71	0.941900	0.900500	0.203600
H721	H72	0.389200	0.882400	0.015100
H731	H73	0.110600	0.244000	0.471000
H741	H74	0.360000	0.285500	0.341000
H751	H75	0.349300	0.669100	0.407100
H761	H76	0.812900	0.524800	0.600300
H771	H77	0.443300	0.134600	0.873300
H781	H78	0.419400	0.273600	0.556900
H791	H79	0.626900	0.915900	0.530600
H801	H80	0.051300	0.683300	0.094500
H811	H81	0.472300	0.554100	0.779700
H821	H82	0.178400	0.487700	0.106300
H831	H83	0.849300	0.330900	0.092900
H841	H84	0.894200	0.268100	0.363100
H851	H85	0.556700	0.865400	0.126700
H861	H86	0.610800	0.117600	0.984900
H871	H87	0.165400	0.240000	0.271200
H881	H88	0.321600	0.487700	0.606300
H891	H89	0.488200	0.629500	0.653800
H901	H90	0.547400	0.194800	0.995200
H911	H91	0.056700	0.134600	0.373300
H921	H92	0.150700	0.669100	0.907100
H931	H93	0.928300	0.835700	0.203400
H941	H94	0.893600	0.865800	0.161200
H951	H95	0.356200	0.435100	0.619400
H961	H96	0.951600	0.872300	0.064200
H971	H97	0.260400	0.631800	0.305800
H981	H98	0.551800	0.178000	0.822800
H991	H99	0.511800	0.370500	0.346200
H1001	H100	0.373100	0.084100	0.469400
H1011	H101	0.350900	0.662900	0.176400
H1021	H102	0.649100	0.337100	0.823600
H1031	H103	0.126900	0.890400	0.175200
H1041	H104	0.943300	0.865400	0.626700
H1051	H105	0.393600	0.134200	0.338800
H1061	H106	0.506700	0.380300	0.091500
H1071	H107	0.129100	0.911100	0.012500
H1081	H108	0.571700	0.835700	0.703400
H1091	H109	0.048400	0.127700	0.935800
H1101	H110	0.060400	0.838600	0.984900
H1111	H111	0.058100	0.099500	0.796400
H1121	H112	0.860000	0.714500	0.159000
H1131	H113	0.632900	0.908700	0.185900
H1141	H114	0.873100	0.109600	0.824800
H1151	H115	0.258800	0.955900	0.466100
H1161	H116	0.496800	0.576300	0.395700
H1171	H117	0.040900	0.669500	0.498800
H1181	H118	0.370900	0.911100	0.512500
H1191	H119	0.448200	0.822000	0.177200
H1201	H120	0.665400	0.760000	0.228800
H1211	H121	0.540900	0.330500	0.001200
H1221	H122	0.089200	0.283200	0.330400
H1231	H123	0.006700	0.619700	0.408500
H1241	H124	0.539600	0.648800	0.466400
H1251	H125	0.957300	0.865200	0.457000
H1261	H126	0.493300	0.619700	0.908500
H1271	H127	0.457100	0.359900	0.888000
H1281	H128	0.948200	0.178000	0.322800
H1291	H129	0.910800	0.716800	0.669600
H1301	H130	0.067900	0.102300	0.481400
H1311	H131	0.410800	0.283200	0.830400
H1321	H132	0.330500	0.414200	0.859900
H1331	H133	0.629100	0.088900	0.487500
H1341	H134	0.271600	0.959100	0.756400
H1351	H135	0.884800	0.100800	0.312400
H1361	H136	0.919400	0.726400	0.943100
H1371	H137	0.659200	0.770100	0.409500
H1381	H138	0.960400	0.648800	0.966400
H1391	H139	0.500400	0.428900	0.848500
H1401	H140	0.873100	0.915900	0.030600
H1411	H141	0.669500	0.585800	0.140100
H1421	H142	0.441900	0.099500	0.296400
H1431	H143	0.027700	0.554100	0.279700
H1441	H144	0.457300	0.134800	0.043000
H1451	H145	0.334600	0.240000	0.771200
H1461	H146	0.542900	0.640100	0.112000
H1471	H147	0.560400	0.161400	0.515100
H1481	H148	0.580600	0.726400	0.443100
H1491	H149	0.439600	0.838600	0.484900
H1501	H150	0.428300	0.164300	0.296600
H1511	H151	0.850900	0.337100	0.323600
H1521	H152	0.856200	0.564900	0.880600
H1531	H153	0.451600	0.127700	0.435800
H1541	H154	0.687100	0.524800	0.100300
H1551	H155	0.643800	0.564900	0.380600
H1561	H156	0.760400	0.368200	0.194200
H1571	H157	0.542700	0.865200	0.957000
H1581	H158	0.187100	0.475200	0.399700
H1591	H159	0.640800	0.529200	0.150900
H1601	H160	0.399500	0.231600	0.400300
H1611	H161	0.115200	0.899200	0.687600
H1621	H162	0.605800	0.268100	0.863100
H1631	H163	0.106400	0.134200	0.838800
H1641	H164	0.239600	0.631800	0.805800
H1651	H165	0.840800	0.770100	0.909500
H1661	H166	0.527700	0.445900	0.220300
H1671	H167	0.241200	0.955900	0.966100
H1681	H168	0.892200	0.258300	0.022100
H1691	H169	0.650700	0.330900	0.592900
H1701	H170	0.615200	0.100800	0.812400
H1711	H171	0.143800	0.435100	0.119400
H1721	H172	0.132900	0.091300	0.314100
H1731	H173	0.080600	0.273600	0.056900
H1741	H174	0.107800	0.741700	0.977900
H1751	H175	0.567900	0.897700	0.018600
H1761	H176	0.432100	0.102300	0.981400
H1771	H177	0.126900	0.084100	0.969400
H1781	H178	0.452600	0.805200	0.004800
H1791	H179	0.678400	0.512300	0.393700
H1801	H180	0.941800	0.182100	0.852400
H1811	H181	0.889400	0.756000	0.529000
H1821	H182	0.003200	0.576300	0.895700
H1831	H183	0.739600	0.368200	0.694200
H1841	H184	0.100500	0.231600	0.900300
H1851	H185	0.948700	0.316700	0.905500
H1861	H186	0.389400	0.244000	0.971000
H1871	H187	0.799900	0.575900	0.920800
H1881	H188	0.821600	0.512300	0.893700
H1891	H189	0.042700	0.134800	0.543000
H1901	H190	0.051800	0.822000	0.677200
H1911	H191	0.607800	0.258300	0.522100
H1921	H192	0.460400	0.351200	0.533600
C11	C1	0.927400	0.163200	0.879800
C21	C2	0.134100	0.108700	0.754900
C31	C3	0.921200	0.389500	0.332300
C41	C4	0.511000	0.657700	0.642800
C51	C5	0.482900	0.352600	0.067000
C61	C6	0.112000	0.665000	0.919200
C71	C7	0.394500	0.566900	0.193400
C81	C8	0.520900	0.731000	0.591500
C91	C9	0.072600	0.836800	0.120200
C101	C10	0.067900	0.333100	0.838000
C111	C11	0.885300	0.107800	0.960100
C121	C12	0.349600	0.152900	0.533100
C131	C13	0.095900	0.369300	0.641000
C141	C14	0.572600	0.163200	0.379800
C151	C15	0.119000	0.898100	0.602300
C161	C16	0.561200	0.175700	0.958100
C171	C17	0.849600	0.847100	0.966900
C181	C18	0.612000	0.335000	0.580800
C191	C19	0.577700	0.740200	0.610700
C201	C20	0.182200	0.449600	0.112900
C211	C21	0.224400	0.458600	0.319400
C221	C22	0.724400	0.541400	0.180600
C231	C23	0.478200	0.603700	0.148600
C241	C24	0.156300	0.161600	0.287100
C251	C25	0.898600	0.119800	0.349500
C261	C26	0.398800	0.291800	0.354100
C271	C27	0.524500	0.390200	0.587600
C281	C28	0.365900	0.108700	0.254900
C291	C29	0.365500	0.907600	0.596400
C301	C30	0.088600	0.128400	0.800700
C311	C31	0.996100	0.644700	0.625100
C321	C32	0.975500	0.390200	0.087600
C331	C33	0.503200	0.323100	0.013400
C341	C34	0.421200	0.610500	0.167700
C351	C35	0.429100	0.148500	0.467200
C361	C36	0.817800	0.550400	0.887100
C371	C37	0.012500	0.689700	0.107600
C381	C38	0.594400	0.632400	0.699800
C391	C39	0.020900	0.269000	0.908500
C401	C40	0.503900	0.644700	0.125100
C411	C41	0.084400	0.699200	0.639900
C421	C42	0.076400	0.130600	0.517400
C431	C43	0.543700	0.193600	0.909900
C441	C44	0.565800	0.787100	0.142600
C451	C45	0.521800	0.396300	0.851400
C461	C46	0.027400	0.692500	0.620700
C471	C47	0.921300	0.844000	0.647400
C481	C48	0.356600	0.218600	0.791900
C491	C49	0.475500	0.609800	0.412400
C501	C50	0.942900	0.795200	0.006800
C511	C51	0.487500	0.689700	0.607600
C521	C52	0.201300	0.134800	0.243000
C531	C53	0.598800	0.129800	0.952000
C541	C54	0.017100	0.352600	0.567000
C551	C55	0.869300	0.889900	0.452100
C561	C56	0.432100	0.333100	0.338000
C571	C57	0.978200	0.396300	0.351400
C581	C58	0.150400	0.152900	0.033100
C591	C59	0.317800	0.449600	0.612900
C601	C60	0.423600	0.130600	0.017400
C611	C61	0.098800	0.870200	0.548000
C621	C62	0.843700	0.838400	0.712900
C631	C63	0.413200	0.271600	0.995400
C641	C64	0.619000	0.101900	0.897700
C651	C65	0.101400	0.880200	0.650500
C661	C66	0.178900	0.954600	0.110000
C671	C67	0.388000	0.665000	0.419200
C681	C68	0.901900	0.755800	0.672900
C691	C69	0.605500	0.433100	0.806600
C701	C70	0.063800	0.834300	0.644300
C711	C71	0.043700	0.806400	0.590100
C721	C72	0.413400	0.708100	0.461200
C731	C73	0.421300	0.156000	0.852600
C741	C74	0.385300	0.892200	0.539900
C751	C75	0.321100	0.954600	0.610000
C761	C76	0.840400	0.054700	0.386900
C771	C77	0.442900	0.204800	0.493200
C781	C78	0.701300	0.865200	0.257000
C791	C79	0.426100	0.849100	0.523500
C801	C80	0.030100	0.702100	0.978800
C811	C81	0.086600	0.708100	0.961200
C821	C82	0.198500	0.124800	0.058600
C831	C83	0.659600	0.054700	0.886900
C841	C84	0.527400	0.307500	0.879300
C851	C85	0.898800	0.708200	0.145900
C861	C86	0.578800	0.389500	0.832300
C871	C87	0.073900	0.849100	0.023500
C881	C88	0.070900	0.148500	0.967200
C891	C89	0.636700	0.790800	0.440900
C901	C90	0.886600	0.120100	0.863500
C911	C91	0.469900	0.702100	0.478800
C921	C92	0.090000	0.235100	0.039100
C931	C93	0.436200	0.834300	0.144300
C941	C94	0.094400	0.367600	0.800200
C951	C95	0.865900	0.891300	0.245100
C961	C96	0.501000	0.653000	0.454400
C971	C97	0.892900	0.698800	0.450900
C981	C98	0.613400	0.120100	0.363500
C991	C99	0.856600	0.781400	0.708100
C1001	C100	0.989000	0.657700	0.142800
C1011	C101	0.512500	0.310300	0.392400
C1021	C102	0.136700	0.209200	0.059100
C1031	C103	0.404100	0.369300	0.141000
C1041	C104	0.634500	0.092400	0.403600
C1051	C105	0.876000	0.869700	0.682600
C1061	C106	0.072300	0.341700	0.584900
C1071	C107	0.926100	0.150900	0.976500
C1081	C108	0.656300	0.838400	0.212900
C1091	C109	0.823700	0.545700	0.639400
C1101	C110	0.143400	0.218600	0.291900
C1111	C111	0.389900	0.658300	0.163300
C1121	C112	0.573900	0.150900	0.476500
C1131	C113	0.911400	0.871600	0.199300
C1141	C114	0.323700	0.454300	0.860600
C1151	C115	0.563800	0.165700	0.855700
C1161	C116	0.780200	0.547500	0.834900
C1171	C117	0.472600	0.692500	0.120700
C1181	C118	0.456300	0.806400	0.090100
C1191	C119	0.929100	0.851500	0.032800
C1201	C120	0.915600	0.300800	0.360100
C1211	C121	0.489000	0.342300	0.357200
C1221	C122	0.077700	0.259800	0.889300
C1231	C123	0.968400	0.717400	0.522400
C1241	C124	0.605600	0.429300	0.654300
C1251	C125	0.889900	0.341700	0.336700
C1261	C126	0.410000	0.235100	0.539100
C1271	C127	0.438800	0.824300	0.041900
C1281	C128	0.982900	0.647400	0.433000
C1291	C129	0.634100	0.891300	0.745100
C1301	C130	0.601400	0.119800	0.849500
C1311	C131	0.301500	0.124800	0.558600
C1321	C132	0.419000	0.615900	0.394800
C1331	C133	0.590000	0.764900	0.460900
C1341	C134	0.078700	0.156000	0.352600
C1351	C135	0.936200	0.165700	0.355700
C1361	C136	0.052800	0.821400	0.063700
C1371	C137	0.110100	0.658300	0.663300
C1381	C138	0.598100	0.755800	0.172900
C1391	C139	0.134500	0.907600	0.096400
C1401	C140	0.999000	0.653000	0.954400
C1411	C141	0.496100	0.355300	0.874900
C1421	C142	0.557100	0.795200	0.506800
C1431	C143	0.343700	0.161600	0.787100
C1441	C144	0.398600	0.880200	0.150500
C1451	C145	0.003900	0.355300	0.374900
C1461	C146	0.427700	0.341700	0.084900
C1471	C147	0.011000	0.342300	0.857200
C1481	C148	0.003200	0.676900	0.486600
C1491	C149	0.340400	0.945300	0.113100
C1501	C150	0.530100	0.297900	0.521200
C1511	C151	0.105500	0.566900	0.693400
C1521	C152	0.376000	0.130300	0.817400
C1531	C153	0.894500	0.433100	0.306600
C1541	C154	0.381000	0.898100	0.102300
C1551	C155	0.719800	0.547500	0.334900
C1561	C156	0.065800	0.212900	0.357400
C1571	C157	0.386600	0.879900	0.636500
C1581	C158	0.607100	0.698800	0.950900
C1591	C159	0.932100	0.666900	0.162000
C1601	C160	0.698500	0.875200	0.441400
C1611	C161	0.901200	0.129800	0.452000
C1621	C162	0.567900	0.666900	0.662000
C1631	C163	0.107100	0.301200	0.549100
C1641	C164	0.913200	0.728400	0.504600
C1651	C165	0.176300	0.454300	0.360600
C1661	C166	0.382500	0.122500	0.487100
C1671	C167	0.682200	0.550400	0.387100
C1681	C168	0.159600	0.945300	0.613100
C1691	C169	0.922300	0.740200	0.110700
C1701	C170	0.894400	0.429300	0.154300
C1711	C171	0.411400	0.128400	0.300700
C1721	C172	0.630700	0.889900	0.952100
C1731	C173	0.105600	0.570700	0.845700
C1741	C174	0.369300	0.110100	0.047900
C1751	C175	0.614700	0.107800	0.460100
C1761	C176	0.904100	0.630700	0.359000
C1771	C177	0.938800	0.175700	0.458100
C1781	C178	0.113400	0.879900	0.136500
C1791	C179	0.298700	0.134800	0.743000
C1801	C180	0.124000	0.130300	0.317400
C1811	C181	0.882500	0.877500	0.012900
C1821	C182	0.584400	0.300800	0.860100
C1831	C183	0.586800	0.728400	0.004600
C1841	C184	0.595900	0.630700	0.859000
C1851	C185	0.578700	0.844000	0.147400
C1861	C186	0.947200	0.178600	0.936300
C1871	C187	0.572300	0.658300	0.915100
C1881	C188	0.280200	0.452500	0.665100
C1891	C189	0.586600	0.291900	0.538800
C1901	C190	0.363300	0.209200	0.559100
C1911	C191	0.617500	0.877500	0.512900
C1921	C192	0.101200	0.291800	0.854100
C1931	C193	0.798700	0.865200	0.757000
C1941	C194	0.927700	0.658300	0.415100
C1951	C195	0.775600	0.541400	0.680600
C1961	C196	0.650400	0.847100	0.466900
C1971	C197	0.078800	0.610500	0.667700
C1981	C198	0.219800	0.452500	0.165100
C1991	C199	0.496800	0.676900	0.986600
C2001	C200	0.905600	0.632400	0.199800
C2011	C201	0.499000	0.347000	0.545600
C2021	C202	0.031600	0.282600	0.477600
C2031	C203	0.865500	0.092400	0.903600
C2041	C204	0.001000	0.347000	0.045600
C2051	C205	0.275600	0.458600	0.819400
C2061	C206	0.479100	0.269000	0.408500
C2071	C207	0.098100	0.244200	0.327100
C2081	C208	0.610100	0.341700	0.836700
C2091	C209	0.923600	0.869400	0.482600
C2101	C210	0.910000	0.764900	0.960900
C2111	C211	0.422300	0.259800	0.389300
C2121	C212	0.676300	0.545700	0.139400
C2131	C213	0.801500	0.875200	0.941400
C2141	C214	0.401200	0.870200	0.048000
C2151	C215	0.581000	0.384100	0.605200
C2161	C216	0.678900	0.045400	0.390000
C2171	C217	0.934200	0.787100	0.642600
C2181	C218	0.888000	0.335000	0.080800
C2191	C219	0.913400	0.291900	0.038800
C2201	C220	0.552800	0.178600	0.436300
C2211	C221	0.987500	0.310300	0.892400
C2221	C222	0.024500	0.609800	0.912400
C2231	C223	0.969900	0.297900	0.021200
C2241	C224	0.588600	0.871600	0.699300
C2251	C225	0.863300	0.790800	0.940900
C2261	C226	0.057100	0.204800	0.993200
C2271	C227	0.117500	0.122500	0.987100
C2281	C228	0.996800	0.323100	0.513400
C2291	C229	0.061200	0.824300	0.541900
C2301	C230	0.576400	0.869400	0.982600
C2311	C231	0.517100	0.647400	0.933000
C2321	C232	0.081000	0.615900	0.894800
C2331	C233	0.130700	0.110100	0.547900
C2341	C234	0.821100	0.045400	0.890000
C2351	C235	0.434200	0.212900	0.857400
C2361	C236	0.643400	0.781400	0.208100
C2371	C237	0.624000	0.869700	0.182600
C2381	C238	0.392900	0.301200	0.049100
C2391	C239	0.972600	0.307500	0.379300
C2401	C240	0.114700	0.892200	0.039900
C2411	C241	0.570900	0.851500	0.532800
C2421	C242	0.979100	0.731000	0.091500
C2431	C243	0.956300	0.193600	0.409900
C2441	C244	0.601200	0.708200	0.645900
C2451	C245	0.919000	0.384100	0.105200
C2461	C246	0.401900	0.244200	0.827100
C2471	C247	0.086800	0.271600	0.495400
C2481	C248	0.447200	0.821400	0.563700
C2491	C249	0.531600	0.717400	0.022400
C2501	C250	0.394400	0.570700	0.345700
C2511	C251	0.405600	0.367600	0.300200
C2521	C252	0.468400	0.282600	0.977600
C2531	C253	0.415600	0.699200	0.139900
C2541	C254	0.021800	0.603700	0.648600
C2551	C255	0.881000	0.101900	0.397700
C2561	C256	0.427400	0.836800	0.620200
O11	O1	0.229800	0.065400	0.637800
O21	O2	0.745400	0.587300	0.207600
O31	O3	0.574000	0.471100	0.796800
O41	O4	0.708200	0.914400	0.251600
O51	O5	0.857200	0.855200	0.406300
O61	O6	0.067200	0.408000	0.672400
O71	O7	0.342700	0.572100	0.332300
O81	O8	0.924800	0.471000	0.176800
O91	O9	0.767800	0.843800	0.907600
O101	O10	0.567200	0.592000	0.827600
O111	O11	0.164300	0.065000	0.745300
O121	O12	0.926000	0.471100	0.296800
O131	O13	0.817600	0.037500	0.338900
O141	O14	0.335700	0.065000	0.245300
O151	O15	0.642900	0.859900	0.777900
O161	O16	0.644700	0.638300	0.840800
O171	O17	0.229900	0.409200	0.182500
O181	O18	0.270200	0.065400	0.137800
O191	O19	0.280100	0.151700	0.701300
O201	O20	0.656700	0.429700	0.790500
O211	O21	0.241300	0.498400	0.191800
O221	O22	0.294300	0.073500	0.535900
O231	O23	0.144300	0.358600	0.781000
O241	O24	0.432800	0.408000	0.172400
O251	O25	0.657300	0.427900	0.667700
O261	O26	0.256800	0.981400	0.263200
O271	O27	0.194600	0.970200	0.160900
O281	O28	0.753300	0.391700	0.723000
O291	O29	0.074000	0.528900	0.703200
O301	O30	0.798600	0.033000	0.932300
O311	O31	0.355700	0.358600	0.281000
O321	O32	0.674800	0.038000	0.929500
O331	O33	0.664300	0.935000	0.754700
O341	O34	0.142900	0.140100	0.722100
O351	O35	0.729800	0.934600	0.862200
O361	O36	0.424800	0.529000	0.323200
O371	O37	0.258700	0.498400	0.691800
O381	O38	0.160400	0.066400	0.532300
O391	O39	0.258100	0.313800	0.203900
O401	O40	0.794300	0.926500	0.964100
O411	O41	0.694600	0.029800	0.339100
O421	O42	0.652900	0.534700	0.755400
O431	O43	0.741100	0.494400	0.186300
O441	O44	0.245400	0.412700	0.292400
O451	O45	0.855300	0.638300	0.340800
O461	O46	0.682400	0.037500	0.838900
O471	O47	0.219900	0.151700	0.201300
O481	O48	0.435800	0.407700	0.293500
O491	O49	0.075200	0.529000	0.823200
O501	O50	0.780100	0.848300	0.798700
O511	O51	0.741300	0.501600	0.308200
O521	O52	0.232200	0.156200	0.092400
O531	O53	0.660400	0.933600	0.967700
O541	O54	0.729900	0.590800	0.317500
O551	O55	0.746700	0.391700	0.223000
O561	O56	0.174800	0.962000	0.570500
O571	O57	0.343300	0.570300	0.209500
O581	O58	0.705700	0.926500	0.464100
O591	O59	0.791800	0.914400	0.751600
O601	O60	0.985300	0.469200	0.749500
O611	O61	0.325200	0.962000	0.070500
O621	O62	0.835700	0.935000	0.254700
O631	O63	0.347100	0.465300	0.244600
O641	O64	0.768100	0.020000	0.527400
O651	O65	0.564200	0.592300	0.706500
O661	O66	0.514700	0.469200	0.249500
O671	O67	0.231900	0.980000	0.472600
O681	O68	0.253300	0.608300	0.777000
O691	O69	0.719900	0.848300	0.298700
O701	O70	0.208200	0.085600	0.248400
O711	O71	0.805400	0.029800	0.839100
O721	O72	0.014700	0.530800	0.250500
O731	O73	0.254600	0.412700	0.792400
O741	O74	0.357100	0.140100	0.222100
O751	O75	0.741900	0.686200	0.796100
O761	O76	0.270100	0.409200	0.682500
O771	O77	0.152900	0.465300	0.744600
O781	O78	0.339600	0.066400	0.032300
O791	O79	0.246700	0.608300	0.277000
O801	O80	0.156700	0.570300	0.709500
O811	O81	0.754600	0.587300	0.707600
O821	O82	0.305400	0.970200	0.660900
O831	O83	0.317600	0.962500	0.161100
O841	O84	0.857100	0.859900	0.277900
O851	O85	0.842700	0.427900	0.167700
O861	O86	0.732200	0.843800	0.407600
O871	O87	0.355300	0.361700	0.159200
O881	O88	0.701400	0.033000	0.432300
O891	O89	0.756800	0.018600	0.236800
O901	O90	0.426000	0.528900	0.203200
O911	O91	0.758100	0.686200	0.296100
O921	O92	0.770100	0.590800	0.817500
O931	O93	0.064200	0.407700	0.793500
O941	O94	0.267800	0.156200	0.592400
O951	O95	0.241100	0.505600	0.313700
O961	O96	0.843300	0.429700	0.290500
O971	O97	0.839600	0.933600	0.467700
O981	O98	0.268100	0.980000	0.972600
O991	O99	0.825200	0.038000	0.429500
O1001	O100	0.731900	0.020000	0.027400
O1011	O101	0.575200	0.471000	0.676800
O1021	O102	0.935800	0.592300	0.206500
O1031	O103	0.243200	0.981400	0.763200
O1041	O104	0.932800	0.592000	0.327600
O1051	O105	0.642800	0.855200	0.906300
O1061	O106	0.743200	0.018600	0.736800
O1071	O107	0.644300	0.641400	0.719000
O1081	O108	0.855700	0.641400	0.219000
O1091	O109	0.182400	0.962500	0.661100
O1101	O110	0.258900	0.505600	0.813700
O1111	O111	0.770200	0.934600	0.362200
O1121	O112	0.485300	0.530800	0.750500
O1131	O113	0.241900	0.313800	0.703900
O1141	O114	0.758900	0.494400	0.686300
O1151	O115	0.298600	0.967000	0.567700
O1161	O116	0.357200	0.144800	0.093700
O1171	O117	0.291800	0.085600	0.748400
O1181	O118	0.758700	0.501600	0.808200
O1191	O119	0.157300	0.572100	0.832300
O1201	O120	0.847100	0.534700	0.255400
O1211	O121	0.205700	0.073500	0.035900
O1221	O122	0.144700	0.361700	0.659200
O1231	O123	0.142800	0.144800	0.593700
O1241	O124	0.201400	0.967000	0.067700
