data_TOWNAW_freeONLY_PM
_symmetry_space_group_name_H-M	'P1'
_cell_length_a	18.699600
_cell_length_b	18.699600
_cell_length_c	28.857200
_cell_angle_alpha	90.000000
_cell_angle_beta	90.000000
_cell_angle_gamma	120.000000
_symmetry_Int_Tables_number 1

loop_
_symmetry_equiv_pos_as_xyz
'x,y,z'

loop_
_atom_site_label
_atom_site_type_symbol
_atom_site_fract_x
_atom_site_fract_y
_atom_site_fract_z
Fe11	Fe1	0.059200	0.118400	0.338100
Fe21	Fe2	0.607900	0.215800	0.837600
Fe31	Fe3	0.059200	0.940800	0.338100
Fe41	Fe4	0.784200	0.392100	0.837600
Fe51	Fe5	0.881600	0.940800	0.338100
Fe61	Fe6	0.607900	0.392100	0.837600
H11	H1	0.690900	0.598900	0.029600
H21	H2	0.874900	0.343000	0.712500
H31	H3	0.877400	0.340200	0.955700
H41	H4	0.908000	0.309100	0.029600
H51	H5	0.006400	0.211500	0.459500
H61	H6	0.977600	0.738000	0.534900
H71	H7	0.984200	0.751300	0.140200
H81	H8	0.205100	0.211500	0.459500
H91	H9	0.877400	0.537200	0.955700
H101	H10	0.006400	0.794900	0.459500
H111	H11	0.462800	0.340200	0.955700
H121	H12	0.901600	0.586100	0.636600
H131	H13	0.413900	0.315500	0.636600
H141	H14	0.690900	0.092000	0.029600
H151	H15	0.760400	0.022400	0.534900
H161	H16	0.767100	0.751300	0.140200
H171	H17	0.462800	0.122600	0.955700
H181	H18	0.248700	0.232900	0.140200
H191	H19	0.874900	0.531900	0.712500
H201	H20	0.657000	0.125100	0.712500
H211	H21	0.901600	0.315500	0.636600
H221	H22	0.468100	0.343000	0.712500
H231	H23	0.657000	0.531900	0.712500
H241	H24	0.401100	0.092000	0.029600
H251	H25	0.792500	0.802500	0.216500
H261	H26	0.197500	0.990000	0.216500
H271	H27	0.401100	0.309100	0.029600
H281	H28	0.788500	0.993600	0.459500
H291	H29	0.792500	0.990000	0.216500
H301	H30	0.010000	0.802500	0.216500
H311	H31	0.659800	0.122600	0.955700
H321	H32	0.010000	0.207500	0.216500
H331	H33	0.984200	0.232900	0.140200
H341	H34	0.684500	0.586100	0.636600
H351	H35	0.767100	0.015800	0.140200
H361	H36	0.197500	0.207500	0.216500
H371	H37	0.684500	0.098400	0.636600
H381	H38	0.977600	0.239600	0.534900
H391	H39	0.413900	0.098400	0.636600
H401	H40	0.262000	0.022400	0.534900
H411	H41	0.788500	0.794900	0.459500
H421	H42	0.205100	0.993600	0.459500
H431	H43	0.908000	0.598900	0.029600
H441	H44	0.659800	0.537200	0.955700
H451	H45	0.468100	0.125100	0.712500
H461	H46	0.248700	0.015800	0.140200
H471	H47	0.760400	0.738000	0.534900
H481	H48	0.262000	0.239600	0.534900
C11	C1	0.200200	0.100100	0.453200
C21	C2	0.839800	0.290000	0.970700
C31	C3	0.816200	0.761800	0.155800
C41	C4	0.919900	0.839800	0.271800
C51	C5	0.238200	0.183800	0.155800
C61	C6	0.468200	0.234100	0.949200
C71	C7	0.746400	0.253600	0.902200
C81	C8	0.899900	0.100100	0.453200
C91	C9	0.866700	0.133300	0.540900
C101	C10	0.795300	0.590600	0.630500
C111	C11	0.396000	0.198000	0.035800
C121	C12	0.763600	0.236400	0.719000
C131	C13	0.857900	0.586300	0.014500
C141	C14	0.765900	0.531800	0.949200
C151	C15	0.413700	0.142100	0.014500
C161	C16	0.917900	0.835800	0.405400
C171	C17	0.810000	0.060300	0.519400
C181	C18	0.903500	0.807000	0.223200
C191	C19	0.826600	0.783400	0.474800
C201	C20	0.960900	0.168800	0.201000
C211	C21	0.450200	0.290000	0.970700
C221	C22	0.472800	0.236400	0.719000
C231	C23	0.207900	0.039100	0.201000
C241	C24	0.424900	0.277300	0.652100
C251	C25	0.216600	0.173400	0.474800
C261	C26	0.831200	0.039100	0.201000
C271	C27	0.873500	0.747000	0.133800
C281	C28	0.250300	0.060300	0.519400
C291	C29	0.413700	0.271600	0.014500
C301	C30	0.903500	0.096500	0.223200
C311	C31	0.746400	0.253600	0.767200
C321	C32	0.763600	0.527200	0.719000
C331	C33	0.919900	0.080100	0.271800
C341	C34	0.802000	0.604000	0.035800
C351	C35	0.706400	0.542900	0.697100
C361	C36	0.826600	0.043200	0.474800
C371	C37	0.457100	0.293600	0.697100
C381	C38	0.852400	0.575100	0.652100
C391	C39	0.728400	0.586300	0.014500
C401	C40	0.507200	0.253600	0.902200
C411	C41	0.795300	0.204700	0.630500
C421	C42	0.917900	0.082100	0.405400
C431	C43	0.836500	0.293600	0.697100
C441	C44	0.810000	0.749700	0.519400
C451	C45	0.873500	0.126500	0.133800
C461	C46	0.956800	0.783400	0.474800
C471	C47	0.956800	0.173400	0.474800
C481	C48	0.831200	0.792100	0.201000
C491	C49	0.728400	0.142100	0.014500
C501	C50	0.160200	0.080100	0.271800
C511	C51	0.424900	0.147600	0.652100
C521	C52	0.207900	0.168800	0.201000
C531	C53	0.960900	0.792100	0.201000
C541	C54	0.899900	0.799800	0.453200
C551	C55	0.164200	0.082100	0.405400
C561	C56	0.866700	0.733400	0.540900
C571	C57	0.945600	0.761800	0.155800
C581	C58	0.945600	0.183800	0.155800
C591	C59	0.193000	0.096500	0.223200
C601	C60	0.839800	0.549800	0.970700
C611	C61	0.457100	0.163500	0.697100
C621	C62	0.857900	0.271600	0.014500
C631	C63	0.250300	0.190000	0.519400
C641	C64	0.450200	0.160200	0.970700
C651	C65	0.939700	0.190000	0.519400
C661	C66	0.802000	0.198000	0.035800
C671	C67	0.253000	0.126500	0.133800
C681	C68	0.266600	0.133300	0.540900
C691	C69	0.710000	0.160200	0.970700
C701	C70	0.710000	0.549800	0.970700
C711	C71	0.939700	0.749700	0.519400
C721	C72	0.216600	0.043200	0.474800
C731	C73	0.816200	0.054400	0.155800
C741	C74	0.722700	0.147600	0.652100
C751	C75	0.746400	0.492800	0.902200
C761	C76	0.852400	0.277300	0.652100
C771	C77	0.507200	0.253600	0.767200
C781	C78	0.409400	0.204700	0.630500
C791	C79	0.706400	0.163500	0.697100
C801	C80	0.238200	0.054400	0.155800
C811	C81	0.765900	0.234100	0.949200
C821	C82	0.746400	0.492800	0.767200
C831	C83	0.836500	0.542900	0.697100
C841	C84	0.722700	0.575100	0.652100
N11	N1	0.820300	0.640600	0.079700
N21	N2	0.858300	0.716600	0.088400
N31	N3	0.820300	0.179700	0.079700
N41	N4	0.811200	0.188800	0.585900
N51	N5	0.377600	0.188800	0.585900
N61	N6	0.850000	0.700000	0.585100
N71	N7	0.283400	0.141700	0.088400
N81	N8	0.300000	0.150000	0.585100
N91	N9	0.811200	0.622400	0.585900
N101	N10	0.359400	0.179700	0.079700
N111	N11	0.858300	0.141700	0.088400
N121	N12	0.850000	0.150000	0.585100
O11	O1	0.000000	0.000000	0.338200
O21	O2	0.676700	0.205000	0.886200
O31	O3	0.909300	0.454650	0.833200
O41	O4	0.993300	0.129200	0.287800
O51	O5	0.530300	0.206100	0.786500
O61	O6	0.795000	0.471700	0.886200
O71	O7	0.871000	0.009600	0.388400
O81	O8	0.675800	0.469700	0.786500
O91	O9	0.135900	0.006700	0.287800
O101	O10	0.545350	0.090700	0.833200
O111	O11	0.123350	0.246700	0.340400
O121	O12	0.528300	0.205000	0.886200
O131	O13	0.528300	0.323300	0.886200
O141	O14	0.753300	0.876650	0.340400
O151	O15	0.870800	0.006700	0.287800
O161	O16	0.795000	0.323300	0.886200
O171	O17	0.990400	0.861400	0.388400
O181	O18	0.993300	0.864100	0.287800
O191	O19	0.675800	0.206100	0.786500
O201	O20	0.870800	0.864100	0.287800
O211	O21	0.990400	0.129000	0.388400
O221	O22	0.135900	0.129200	0.287800
O231	O23	0.545350	0.454650	0.833200
O241	O24	0.793900	0.324200	0.786500
O251	O25	0.676700	0.471700	0.886200
O261	O26	0.793900	0.469700	0.786500
O271	O27	0.530300	0.324200	0.786500
O281	O28	0.871000	0.861400	0.388400
O291	O29	0.123350	0.876650	0.340400
O301	O30	0.138600	0.009600	0.388400
O311	O31	0.666670	0.333340	0.838800
O321	O32	0.138600	0.129000	0.388400
Fe71	Fe7	0.118400	0.059200	0.838100
Fe81	Fe8	0.940800	0.881600	0.838100
Fe91	Fe9	0.392100	0.784200	0.337600
Fe101	Fe10	0.392100	0.607900	0.337600
Fe111	Fe11	0.940800	0.059200	0.838100
Fe121	Fe12	0.215800	0.607900	0.337600
H491	H49	0.751300	0.984200	0.640200
H501	H50	0.340200	0.877400	0.455700
H511	H51	0.738000	0.977600	0.034900
H521	H52	0.531900	0.657000	0.212500
H531	H53	0.022400	0.760400	0.034900
H541	H54	0.022400	0.262000	0.034900
H551	H55	0.239600	0.977600	0.034900
H561	H56	0.092000	0.401100	0.529600
H571	H57	0.794900	0.006400	0.959500
H581	H58	0.211500	0.205100	0.959500
H591	H59	0.309100	0.401100	0.529600
H601	H60	0.343000	0.468100	0.212500
H611	H61	0.586100	0.684500	0.136600
H621	H62	0.232900	0.248700	0.640200
H631	H63	0.537200	0.659800	0.455700
H641	H64	0.990000	0.197500	0.716500
H651	H65	0.993600	0.205100	0.959500
H661	H66	0.207500	0.197500	0.716500
H671	H67	0.122600	0.659800	0.455700
H681	H68	0.098400	0.684500	0.136600
H691	H69	0.586100	0.901600	0.136600
H701	H70	0.598900	0.908000	0.529600
H711	H71	0.802500	0.010000	0.716500
H721	H72	0.343000	0.874900	0.212500
H731	H73	0.598900	0.690900	0.529600
H741	H74	0.211500	0.006400	0.959500
H751	H75	0.122600	0.462800	0.455700
H761	H76	0.794900	0.788500	0.959500
H771	H77	0.125100	0.468100	0.212500
H781	H78	0.239600	0.262000	0.034900
H791	H79	0.015800	0.767100	0.640200
H801	H80	0.315500	0.413900	0.136600
H811	H81	0.993600	0.788500	0.959500
H821	H82	0.537200	0.877400	0.455700
H831	H83	0.990000	0.792500	0.716500
H841	H84	0.738000	0.760400	0.034900
H851	H85	0.207500	0.010000	0.716500
H861	H86	0.315500	0.901600	0.136600
H871	H87	0.092000	0.690900	0.529600
H881	H88	0.015800	0.248700	0.640200
H891	H89	0.802500	0.792500	0.716500
H901	H90	0.125100	0.657000	0.212500
H911	H91	0.340200	0.462800	0.455700
H921	H92	0.232900	0.984200	0.640200
H931	H93	0.309100	0.908000	0.529600
H941	H94	0.531900	0.874900	0.212500
H951	H95	0.751300	0.767100	0.640200
H961	H96	0.098400	0.413900	0.136600
C851	C85	0.168800	0.960900	0.701000
C861	C86	0.080100	0.160200	0.771800
C871	C87	0.082100	0.917900	0.905400
C881	C88	0.160200	0.710000	0.470700
C891	C89	0.054400	0.238200	0.655800
C901	C90	0.253600	0.746400	0.267200
C911	C91	0.080100	0.919900	0.771800
C921	C92	0.147600	0.722700	0.152100
C931	C93	0.142100	0.413700	0.514500
C941	C94	0.234100	0.765900	0.449200
C951	C95	0.133300	0.266600	0.040900
C961	C96	0.204700	0.795300	0.130500
C971	C97	0.293600	0.457100	0.197100
C981	C98	0.204700	0.409400	0.130500
C991	C99	0.198000	0.396000	0.535800
C1001	C100	0.604000	0.802000	0.535800
C1011	C101	0.761800	0.945600	0.655800
C1021	C102	0.043200	0.826600	0.974800
C1031	C103	0.277300	0.852400	0.152100
C1041	C104	0.168800	0.207900	0.701000
C1051	C105	0.234100	0.468200	0.449200
C1061	C106	0.183800	0.238200	0.655800
C1071	C107	0.160200	0.450200	0.470700
C1081	C108	0.761800	0.816200	0.655800
C1091	C109	0.173400	0.216600	0.974800
C1101	C110	0.531800	0.765900	0.449200
C1111	C111	0.236400	0.763600	0.219000
C1121	C112	0.100100	0.899900	0.953200
C1131	C113	0.133300	0.866700	0.040900
C1141	C114	0.733400	0.866700	0.040900
C1151	C115	0.100100	0.200200	0.953200
C1161	C116	0.586300	0.857900	0.514500
C1171	C117	0.173400	0.956800	0.974800
C1181	C118	0.807000	0.903500	0.723200
C1191	C119	0.542900	0.836500	0.197100
C1201	C120	0.590600	0.795300	0.130500
C1211	C121	0.190000	0.250300	0.019400
C1221	C122	0.253600	0.507200	0.267200
C1231	C123	0.492800	0.746400	0.267200
C1241	C124	0.082100	0.164200	0.905400
C1251	C125	0.549800	0.710000	0.470700
C1261	C126	0.054400	0.816200	0.655800
C1271	C127	0.096500	0.903500	0.723200
C1281	C128	0.039100	0.831200	0.701000
C1291	C129	0.096500	0.193000	0.723200
C1301	C130	0.839800	0.919900	0.771800
C1311	C131	0.575100	0.722700	0.152100
C1321	C132	0.783400	0.826600	0.974800
C1331	C133	0.253600	0.746400	0.402200
C1341	C134	0.277300	0.424900	0.152100
C1351	C135	0.126500	0.873500	0.633800
C1361	C136	0.835800	0.917900	0.905400
C1371	C137	0.747000	0.873500	0.633800
C1381	C138	0.749700	0.939700	0.019400
C1391	C139	0.060300	0.810000	0.019400
C1401	C140	0.293600	0.836500	0.197100
C1411	C141	0.290000	0.839800	0.470700
C1421	C142	0.792100	0.831200	0.701000
C1431	C143	0.183800	0.945600	0.655800
C1441	C144	0.542900	0.706400	0.197100
C1451	C145	0.290000	0.450200	0.470700
C1461	C146	0.799800	0.899900	0.953200
C1471	C147	0.163500	0.706400	0.197100
C1481	C148	0.198000	0.802000	0.535800
C1491	C149	0.190000	0.939700	0.019400
C1501	C150	0.271600	0.857900	0.514500
C1511	C151	0.163500	0.457100	0.197100
C1521	C152	0.549800	0.839800	0.470700
C1531	C153	0.783400	0.956800	0.974800
C1541	C154	0.253600	0.507200	0.402200
C1551	C155	0.271600	0.413700	0.514500
C1561	C156	0.492800	0.746400	0.402200
C1571	C157	0.749700	0.810000	0.019400
C1581	C158	0.792100	0.960900	0.701000
C1591	C159	0.236400	0.472800	0.219000
C1601	C160	0.039100	0.207900	0.701000
C1611	C161	0.575100	0.852400	0.152100
C1621	C162	0.043200	0.216600	0.974800
C1631	C163	0.586300	0.728400	0.514500
C1641	C164	0.142100	0.728400	0.514500
C1651	C165	0.126500	0.253000	0.633800
C1661	C166	0.147600	0.424900	0.152100
C1671	C167	0.060300	0.250300	0.019400
C1681	C168	0.527200	0.763600	0.219000
N131	N13	0.622400	0.811200	0.085900
N141	N14	0.716600	0.858300	0.588400
N151	N15	0.150000	0.850000	0.085100
N161	N16	0.700000	0.850000	0.085100
N171	N17	0.188800	0.811200	0.085900
N181	N18	0.188800	0.377600	0.085900
N191	N19	0.150000	0.300000	0.085100
N201	N20	0.141700	0.858300	0.588400
N211	N21	0.640600	0.820300	0.579700
N221	N22	0.179700	0.359400	0.579700
N231	N23	0.141700	0.283400	0.588400
N241	N24	0.179700	0.820300	0.579700
O331	O33	0.324200	0.530300	0.286500
O341	O34	0.469700	0.793900	0.286500
O351	O35	0.861400	0.990400	0.888400
O361	O36	0.323300	0.795000	0.386200
O371	O37	0.324200	0.793900	0.286500
O381	O38	0.876650	0.123350	0.840400
O391	O39	0.129000	0.990400	0.888400
O401	O40	0.009600	0.138600	0.888400
O411	O41	0.129200	0.993300	0.787800
O421	O42	0.000000	0.000000	0.838200
O431	O43	0.006700	0.135900	0.787800
O441	O44	0.006700	0.870800	0.787800
O451	O45	0.876650	0.753300	0.840400
O461	O46	0.129200	0.135900	0.787800
O471	O47	0.471700	0.676700	0.386200
O481	O48	0.469700	0.675800	0.286500
O491	O49	0.129000	0.138600	0.888400
O501	O50	0.323300	0.528300	0.386200
O511	O51	0.205000	0.676700	0.386200
O521	O52	0.861400	0.871000	0.888400
O531	O53	0.246700	0.123350	0.840400
O541	O54	0.454650	0.545350	0.333200
O551	O55	0.205000	0.528300	0.386200
O561	O56	0.090700	0.545350	0.333200
O571	O57	0.454650	0.909300	0.333200
O581	O58	0.206100	0.675800	0.286500
O591	O59	0.009600	0.871000	0.888400
O601	O60	0.864100	0.870800	0.787800
O611	O61	0.864100	0.993300	0.787800
O621	O62	0.333330	0.666660	0.338800
O631	O63	0.471700	0.795000	0.386200
O641	O64	0.206100	0.530300	0.286500
Fe131	Fe13	0.725700	0.451400	0.306300
Fe141	Fe14	0.274300	0.548600	0.806300
Fe151	Fe15	0.548600	0.274300	0.306300
Fe161	Fe16	0.725700	0.274300	0.306300
Fe171	Fe17	0.274300	0.725700	0.806300
Fe181	Fe18	0.451400	0.725700	0.806300
H971	H97	0.454900	0.127500	0.423500
H981	H98	0.632000	0.585200	0.119400
H991	H99	0.959800	0.588400	0.488900
H1001	H100	0.414800	0.046800	0.119400
H1011	H101	0.632000	0.046800	0.119400
H1021	H102	0.585200	0.632000	0.619400
H1031	H103	0.129500	0.673600	0.686600
H1041	H104	0.872500	0.327400	0.423500
H1051	H105	0.585200	0.953200	0.619400
H1061	H106	0.046800	0.632000	0.619400
H1071	H107	0.870500	0.544100	0.186600
H1081	H108	0.411600	0.371400	0.488900
H1091	H109	0.326400	0.455900	0.686600
H1101	H110	0.371400	0.959800	0.988900
H1111	H111	0.327400	0.872500	0.923500
H1121	H112	0.040200	0.411600	0.988900
H1131	H113	0.368000	0.414800	0.619400
H1141	H114	0.588400	0.628600	0.988900
H1151	H115	0.127500	0.454900	0.923500
H1161	H116	0.872500	0.545100	0.423500
H1171	H117	0.672600	0.127500	0.423500
H1181	H118	0.040200	0.628600	0.988900
H1191	H119	0.673600	0.129500	0.186600
H1201	H120	0.673600	0.544100	0.186600
H1211	H121	0.371400	0.411600	0.988900
H1221	H122	0.544100	0.673600	0.686600
H1231	H123	0.628600	0.040200	0.488900
H1241	H124	0.046800	0.414800	0.619400
H1251	H125	0.870500	0.326400	0.186600
H1261	H126	0.628600	0.588400	0.488900
H1271	H127	0.672600	0.545100	0.423500
H1281	H128	0.127500	0.672600	0.923500
H1291	H129	0.414800	0.368000	0.119400
H1301	H130	0.545100	0.872500	0.923500
H1311	H131	0.545100	0.672600	0.923500
H1321	H132	0.959800	0.371400	0.488900
H1331	H133	0.953200	0.368000	0.119400
H1341	H134	0.454900	0.327400	0.423500
H1351	H135	0.368000	0.953200	0.619400
H1361	H136	0.544100	0.870500	0.686600
H1371	H137	0.327400	0.454900	0.923500
H1381	H138	0.455900	0.129500	0.186600
H1391	H139	0.588400	0.959800	0.988900
H1401	H140	0.326400	0.870500	0.686600
H1411	H141	0.129500	0.455900	0.686600
H1421	H142	0.455900	0.326400	0.186600
H1431	H143	0.953200	0.585200	0.119400
H1441	H144	0.411600	0.040200	0.488900
C1691	C169	0.378700	0.887300	0.673000
C1701	C170	0.431700	0.863400	0.692400
C1711	C171	0.467000	0.063700	0.133100
C1721	C172	0.516500	0.033000	0.494300
C1731	C173	0.040000	0.520000	0.613900
C1741	C174	0.942000	0.406200	0.475500
C1751	C175	0.863400	0.431700	0.192400
C1761	C176	0.489900	0.109700	0.436800
C1771	C177	0.058000	0.464200	0.975500
C1781	C178	0.109700	0.489900	0.936800
C1791	C179	0.890300	0.510100	0.436800
C1801	C180	0.112700	0.621300	0.673000
C1811	C181	0.596700	0.063700	0.133100
C1821	C182	0.508600	0.621300	0.673000
C1831	C183	0.135000	0.567500	0.917900
C1841	C184	0.378700	0.491400	0.673000
C1851	C185	0.595250	0.190500	0.376300
C1861	C186	0.136600	0.568300	0.692400
C1871	C187	0.619800	0.510100	0.436800
C1881	C188	0.432500	0.567500	0.917900
C1891	C189	0.535800	0.593800	0.975500
C1901	C190	0.942000	0.535800	0.475500
C1911	C191	0.480000	0.960000	0.613900
C1921	C192	0.190500	0.595250	0.876300
C1931	C193	0.405400	0.594600	0.735100
C1941	C194	0.594600	0.405400	0.235100
C1951	C195	0.406200	0.942000	0.975500
C1961	C196	0.568300	0.136600	0.192400
C1971	C197	0.063700	0.596700	0.633100
C1981	C198	0.112700	0.491400	0.673000
C1991	C199	0.058000	0.593800	0.975500
C2001	C200	0.533000	0.936300	0.633100
C2011	C201	0.189200	0.594600	0.735100
C2021	C202	0.594600	0.189200	0.235100
C2031	C203	0.033000	0.516500	0.994300
C2041	C204	0.516500	0.483500	0.494300
C2051	C205	0.520000	0.040000	0.113900
C2061	C206	0.404750	0.809500	0.876300
C2071	C207	0.491400	0.378700	0.173000
C2081	C208	0.380200	0.489900	0.936800
C2091	C209	0.568300	0.431700	0.192400
C2101	C210	0.405400	0.810800	0.735100
C2111	C211	0.810800	0.405400	0.235100
C2121	C212	0.404750	0.595250	0.876300
C2131	C213	0.464200	0.058000	0.475500
C2141	C214	0.936300	0.403300	0.133100
C2151	C215	0.464200	0.406200	0.475500
C2161	C216	0.567500	0.135000	0.417900
C2171	C217	0.887300	0.508600	0.173000
C2181	C218	0.483500	0.516500	0.994300
C2191	C219	0.809500	0.404750	0.376300
C2201	C220	0.467000	0.403300	0.133100
C2211	C221	0.109700	0.619800	0.936800
C2221	C222	0.619800	0.109700	0.436800
C2231	C223	0.621300	0.112700	0.173000
C2241	C224	0.406200	0.464200	0.975500
C2251	C225	0.403300	0.936300	0.633100
C2261	C226	0.593800	0.535800	0.475500
C2271	C227	0.520000	0.480000	0.113900
C2281	C228	0.535800	0.942000	0.975500
C2291	C229	0.403300	0.467000	0.633100
C2301	C230	0.483500	0.967000	0.994300
C2311	C231	0.887300	0.378700	0.173000
C2321	C232	0.890300	0.380200	0.436800
C2331	C233	0.510100	0.890300	0.936800
C2341	C234	0.936300	0.533000	0.133100
C2351	C235	0.432500	0.865000	0.917900
C2361	C236	0.491400	0.112700	0.173000
C2371	C237	0.967000	0.483500	0.494300
C2381	C238	0.593800	0.058000	0.475500
C2391	C239	0.865000	0.432500	0.417900
C2401	C240	0.380200	0.890300	0.936800
C2411	C241	0.621300	0.508600	0.173000
C2421	C242	0.480000	0.520000	0.613900
C2431	C243	0.596700	0.533000	0.133100
C2441	C244	0.595250	0.404750	0.376300
C2451	C245	0.960000	0.480000	0.113900
C2461	C246	0.533000	0.596700	0.633100
C2471	C247	0.489900	0.380200	0.436800
C2481	C248	0.431700	0.568300	0.692400
C2491	C249	0.567500	0.432500	0.417900
C2501	C250	0.510100	0.619800	0.936800
C2511	C251	0.508600	0.887300	0.673000
C2521	C252	0.063700	0.467000	0.633100
N251	N25	0.490450	0.980900	0.533300
N261	N26	0.504700	0.009400	0.573700
N271	N27	0.495300	0.990600	0.073700
N281	N28	0.009400	0.504700	0.073700
N291	N29	0.490450	0.509550	0.533300
N301	N30	0.504700	0.495300	0.573700
N311	N31	0.990600	0.495300	0.573700
N321	N32	0.509550	0.019100	0.033300
N331	N33	0.509550	0.490450	0.033300
N341	N34	0.495300	0.504700	0.073700
N351	N35	0.019100	0.509550	0.533300
N361	N36	0.980900	0.490450	0.033300
O651	O65	0.538800	0.342100	0.254000
O661	O66	0.333330	0.666660	0.807300
O671	O67	0.193500	0.656800	0.856400
O681	O68	0.803300	0.461200	0.254000
O691	O69	0.792500	0.585000	0.311500
O701	O70	0.193500	0.536700	0.856400
O711	O71	0.463300	0.806500	0.856400
O721	O72	0.415000	0.207500	0.311500
O731	O73	0.343200	0.806500	0.856400
O741	O74	0.207500	0.415000	0.811500
O751	O75	0.666670	0.333340	0.307300
O761	O76	0.803300	0.342100	0.254000
O771	O77	0.342100	0.538800	0.754000
O781	O78	0.538800	0.196700	0.254000
O791	O79	0.585000	0.792500	0.811500
O801	O80	0.656800	0.463300	0.356400
O811	O81	0.196700	0.657900	0.754000
O821	O82	0.461200	0.803300	0.754000
O831	O83	0.657900	0.196700	0.254000
O841	O84	0.196700	0.538800	0.754000
O851	O85	0.792500	0.207500	0.311500
O861	O86	0.657900	0.461200	0.254000
O871	O87	0.343200	0.536700	0.856400
O881	O88	0.342100	0.803300	0.754000
O891	O89	0.536700	0.343200	0.356400
O901	O90	0.806500	0.343200	0.356400
O911	O91	0.806500	0.463300	0.356400
O921	O92	0.463300	0.656800	0.856400
O931	O93	0.536700	0.193500	0.356400
O941	O94	0.461200	0.657900	0.754000
O951	O95	0.207500	0.792500	0.811500
O961	O96	0.656800	0.193500	0.356400
