data_TOWXEK_freeONLY_PM
_symmetry_space_group_name_H-M	'P1'
_cell_length_a	8.157600
_cell_length_b	23.529700
_cell_length_c	23.529700
_cell_angle_alpha	88.278100
_cell_angle_beta	80.017500
_cell_angle_gamma	80.017700
_symmetry_Int_Tables_number 1

loop_
_symmetry_equiv_pos_as_xyz
'x,y,z'

loop_
_atom_site_label
_atom_site_type_symbol
_atom_site_fract_x
_atom_site_fract_y
_atom_site_fract_z
Zn11	Zn1	0.255040	0.938530	0.949530
Zn21	Zn2	0.795430	0.949530	0.061470
Zn31	Zn3	0.143100	0.061470	0.050470
Zn41	Zn4	0.250000	0.500000	0.500000
Zn51	Zn5	0.806430	0.050470	0.938530
Zn61	Zn6	0.500000	0.000000	0.000000
H11	H1	0.907400	0.005100	0.716900
H21	H2	0.179600	0.116100	0.380700
H31	H3	0.319900	0.031000	0.198400
H41	H4	0.239800	0.979200	0.181400
H51	H5	0.072900	0.180300	0.614100
H61	H6	0.422000	0.983600	0.721400
H71	H7	0.649100	0.801600	0.031000
H81	H8	0.705600	0.683100	0.492300
H91	H9	0.629400	0.994900	0.283100
H101	H10	0.619800	0.489500	0.251700
H111	H11	0.054300	0.022100	0.793300
H121	H12	0.970800	0.994400	0.367800
H131	H13	0.313200	0.370200	0.843800
H141	H14	0.802100	0.492300	0.316900
H151	H15	0.300600	0.951700	0.479500
H161	H16	0.008700	0.487600	0.130200
H171	H17	0.333300	0.863400	0.389600
H181	H18	0.263600	0.809800	0.021200
H191	H19	0.361000	0.510500	0.748300
H201	H20	0.196700	0.494400	0.184400
H211	H21	0.628300	0.698500	0.881900
H221	H22	0.843000	0.843800	0.629800
H231	H23	0.489800	0.881900	0.301500
H241	H24	0.503700	0.869800	0.487600
H251	H25	0.682400	0.380000	0.495000
H261	H26	0.415200	0.631900	0.559900
H271	H27	0.673200	0.118100	0.698500
H281	H28	0.963100	0.867300	0.354900
H291	H29	0.127000	0.016400	0.278600
H301	H30	0.852600	0.129100	0.310100
H311	H31	0.463300	0.010200	0.373000
H321	H32	0.128500	0.251700	0.510500
H331	H33	0.861100	0.130200	0.512400
H341	H34	0.272500	0.536700	0.021300
H351	H35	0.937600	0.505000	0.380000
H361	H36	0.375700	0.716900	0.994900
H371	H37	0.853000	0.378300	0.118100
H381	H38	0.822600	0.495000	0.620000
H391	H39	0.618900	0.184400	0.505600
H401	H40	0.842300	0.523100	0.003900
H411	H41	0.626500	0.512400	0.869800
H421	H42	0.557400	0.620000	0.505000
H431	H43	0.232500	0.858700	0.599100
H441	H44	0.136400	0.179300	0.405100
H451	H45	0.720800	0.820700	0.594900
H461	H46	0.704300	0.619300	0.116100
H471	H47	0.313000	0.614100	0.819700
H481	H48	0.094600	0.190200	0.978800
H491	H49	0.185300	0.132700	0.645100
H501	H50	0.846500	0.989800	0.627000
H511	H51	0.684300	0.594900	0.179300
H521	H52	0.690300	0.141300	0.400900
H531	H53	0.923600	0.206700	0.022100
H541	H54	0.706200	0.021300	0.463300
H551	H55	0.152400	0.793300	0.977900
H561	H56	0.952900	0.440100	0.631900
H571	H57	0.277100	0.389600	0.136600
H581	H58	0.881000	0.316900	0.507700
H591	H59	0.458500	0.405100	0.820700
H601	H60	0.219900	0.479500	0.048300
H611	H61	0.163700	0.373000	0.989800
H621	H62	0.926600	0.978800	0.809800
H631	H63	0.578800	0.181400	0.020800
H641	H64	0.087500	0.283100	0.005100
H651	H65	0.837300	0.310100	0.870900
H661	H66	0.676400	0.883900	0.619300
H671	H67	0.549300	0.969000	0.801600
H681	H68	0.682000	0.354900	0.132700
H691	H69	0.208700	0.301500	0.118100
H701	H70	0.869700	0.977900	0.206700
H711	H71	0.481700	0.198400	0.969000
H721	H72	0.875500	0.505600	0.815600
H731	H73	0.908800	0.400900	0.858700
H741	H74	0.867300	0.819700	0.385900
H751	H75	0.369300	0.476900	0.996100
H761	H76	0.661400	0.367800	0.005600
H771	H77	0.746800	0.385900	0.180300
H781	H78	0.611300	0.507700	0.683100
H791	H79	0.024900	0.559900	0.368100
H801	H80	0.316600	0.156200	0.370200
H811	H81	0.291800	0.870900	0.689900
H821	H82	0.153800	0.003900	0.476900
H831	H83	0.856600	0.721400	0.016400
H841	H84	0.781000	0.818600	0.979200
H851	H85	0.349400	0.621700	0.881900
H861	H86	0.333000	0.005600	0.632200
H871	H87	0.768700	0.881900	0.378300
H881	H88	0.168400	0.599100	0.141300
H891	H89	0.018300	0.689900	0.129100
H901	H90	0.190800	0.978700	0.536700
H911	H91	0.586300	0.136600	0.610400
H921	H92	0.527200	0.629800	0.156200
H931	H93	0.715200	0.021200	0.190200
H941	H94	0.634600	0.996100	0.523100
H951	H95	0.890700	0.748300	0.489500
H961	H96	0.594400	0.278600	0.983600
H971	H97	0.803300	0.610400	0.863400
H981	H98	0.830500	0.463300	0.978700
H991	H99	0.747700	0.520500	0.951700
H1001	H100	0.526500	0.627000	0.010200
H1011	H101	0.034800	0.632200	0.994400
H1021	H102	0.400400	0.020800	0.818600
H1031	H103	0.439700	0.380700	0.883900
H1041	H104	0.607000	0.368100	0.440100
H1051	H105	0.169600	0.645100	0.867300
H1061	H106	0.028900	0.118100	0.621700
H1071	H107	0.731800	0.048300	0.520500
H1081	H108	0.308900	0.815600	0.494400
C11	C1	0.494500	0.071400	0.504000
C21	C2	0.180100	0.143400	0.505400
C31	C3	0.979300	0.909400	0.547400
C41	C4	0.552300	0.106100	0.632900
C51	C5	0.044000	0.983200	0.806200
C61	C6	0.050000	0.395600	0.921600
C71	C7	0.833400	0.016800	0.193800
C81	C8	0.551200	0.049900	0.719500
C91	C9	0.480500	0.739400	0.489600
C101	C10	0.952500	0.645700	0.972100
C111	C11	0.212100	0.557100	0.877500
C121	C12	0.434100	0.496000	0.071400
C131	C13	0.167900	0.985100	0.300300
C141	C14	0.379500	0.397000	0.854000
C151	C15	0.931000	0.482000	0.632000
C161	C16	0.489200	0.505000	0.820600
C171	C17	0.592900	0.548500	0.124900
C181	C18	0.690200	0.820600	0.495000
C191	C19	0.164000	0.495400	0.408600
C201	C20	0.053600	0.306200	0.975000
C211	C21	0.138000	0.926900	0.387100
C221	C22	0.729300	0.719500	0.950100
C231	C23	0.427400	0.408600	0.504600
C241	C24	0.385400	0.904500	0.314300
C251	C25	0.473300	0.547400	0.090600
C261	C26	0.710100	0.685700	0.904500
C271	C27	0.085500	0.492300	0.200700
C281	C28	0.675500	0.112700	0.376700
C291	C29	0.388000	0.087800	0.556800
C301	C30	0.055200	0.556800	0.912200
C311	C31	0.903100	0.322700	0.894900
C321	C32	0.367200	0.604400	0.078400
C331	C33	0.313200	0.497500	0.030700
C341	C34	0.640200	0.025000	0.306200
C351	C35	0.314500	0.505400	0.856600
C361	C36	0.630500	0.603000	0.146000
C371	C37	0.211800	0.623300	0.112700
C381	C38	0.814800	0.632900	0.893900
C391	C39	0.453300	0.014900	0.699700
C401	C40	0.068000	0.504600	0.591400
C411	C41	0.774200	0.105100	0.322700
C421	C42	0.874000	0.860000	0.385200
C431	C43	0.120700	0.677300	0.105100
C441	C44	0.531800	0.300300	0.014900
C451	C45	0.841400	0.502500	0.969300
C461	C46	0.775300	0.759900	0.491500
C471	C47	0.845500	0.491300	0.277700
C481	C48	0.266300	0.451500	0.875100
C491	C49	0.164900	0.887300	0.623300
C501	C50	0.300300	0.314300	0.095500
C511	C51	0.935500	0.965700	0.639900
C521	C52	0.713800	0.200700	0.507700
C531	C53	0.028400	0.921600	0.604400
C541	C54	0.098800	0.360100	0.965700
C551	C55	0.646700	0.442900	0.122500
C561	C56	0.626500	0.508400	0.830600
C571	C57	0.957600	0.286800	0.939000
C581	C58	0.570300	0.354300	0.027900
C591	C59	0.340600	0.591400	0.495400
C601	C60	0.778500	0.507700	0.799300
C611	C61	0.542900	0.830600	0.491600
C621	C62	0.663200	0.722300	0.491300
C631	C63	0.045000	0.518000	0.368000
C641	C64	0.183400	0.713200	0.061000
C651	C65	0.464800	0.508500	0.759900
C661	C66	0.733200	0.491500	0.240100
C671	C67	0.541100	0.034300	0.360100
C681	C68	0.554400	0.078400	0.395600
C691	C69	0.972800	0.193800	0.983200
C701	C70	0.103400	0.939000	0.713200
C711	C71	0.266000	0.614800	0.860000
C721	C72	0.282200	0.124900	0.451500
C731	C73	0.069900	0.928600	0.496000
C741	C74	0.469300	0.185700	0.008900
C751	C75	0.587000	0.368000	0.482000
C761	C76	0.937500	0.028100	0.137100
C771	C77	0.334800	0.693800	0.025000
C781	C78	0.947800	0.376700	0.887300
C791	C79	0.780100	0.510400	0.739400
C801	C80	0.935100	0.612900	0.926900
C811	C81	0.766500	0.854000	0.603000
C821	C82	0.847000	0.699700	0.985100
C831	C83	0.524200	0.443200	0.087800
C841	C84	0.005800	0.179400	0.505000
C851	C85	0.971400	0.975000	0.693800
C861	C86	0.814800	0.495000	0.179400
C871	C87	0.422200	0.799300	0.492300
C881	C88	0.408000	0.129700	0.014100
C891	C89	0.102700	0.971900	0.862900
C901	C90	0.965500	0.491600	0.169400
C911	C91	0.663900	0.814300	0.991100
C921	C92	0.452000	0.073100	0.612900
C931	C93	0.865100	0.169400	0.508400
C941	C94	0.925400	0.137100	0.971900
C951	C95	0.437000	0.632000	0.518000
C961	C96	0.740800	0.385200	0.140000
C971	C97	0.876800	0.277700	0.508700
C981	C98	0.614500	0.508700	0.722300
C991	C99	0.001500	0.504000	0.928600
C1001	C100	0.034400	0.862900	0.028100
C1011	C101	0.075400	0.972100	0.354300
C1021	C102	0.398900	0.280500	0.049900
C1031	C103	0.709500	0.260600	0.510400
C1041	C104	0.577900	0.014100	0.870300
C1051	C105	0.029900	0.489600	0.260600
C1061	C106	0.401800	0.027900	0.645700
C1071	C107	0.230800	0.122500	0.557100
C1081	C108	0.755600	0.061000	0.286800
C1091	C109	0.656100	0.030700	0.502500
C1101	C110	0.521800	0.008900	0.814300
C1111	C111	0.026700	0.240100	0.508500
C1121	C112	0.291300	0.893900	0.367100
C1131	C113	0.910400	0.877500	0.442900
C1141	C114	0.424600	0.639900	0.034300
C1151	C115	0.111300	0.452600	0.909400
C1161	C116	0.223500	0.146000	0.397000
C1171	C117	0.436100	0.090600	0.452600
C1181	C118	0.320600	0.950100	0.280500
C1191	C119	0.149800	0.806200	0.016800
C1201	C120	0.032600	0.912200	0.443200
C1211	C121	0.858600	0.875100	0.548500
C1221	C122	0.551800	0.870300	0.985900
C1231	C123	0.119200	0.140000	0.614800
C1241	C124	0.676500	0.494600	0.143400
C1251	C125	0.341600	0.367100	0.106100
C1261	C126	0.345000	0.991100	0.185700
C1271	C127	0.202000	0.894900	0.677300
C1281	C128	0.462300	0.985900	0.129700
C1291	C129	0.189300	0.969300	0.497500
C1301	C130	0.828900	0.856600	0.494600
C1311	C131	0.474900	0.387100	0.073100
C1321	C132	0.604200	0.095500	0.685700
O11	O1	0.420320	0.955550	0.228010
O21	O2	0.034690	0.004690	0.903930
O31	O3	0.226990	0.934200	0.868220
O41	O4	0.689610	0.043560	0.872420
O51	O5	0.113400	0.502300	0.556900
O61	O6	0.085340	0.765530	0.058190
O71	O7	0.624130	0.771990	0.955550
O81	O8	0.149130	0.941810	0.765530
O91	O9	0.904790	0.868220	0.065800
O101	O10	0.929000	0.506000	0.696000
O111	O11	0.507100	0.987430	0.911570
O121	O12	0.254000	0.000000	0.000000
O131	O13	0.131000	0.494000	0.304000
O141	O14	0.266830	0.127580	0.043560
O151	O15	0.746000	0.000000	0.000000
O161	O16	0.029410	0.065800	0.131780
O171	O17	0.375000	0.696000	0.494000
O181	O18	0.406100	0.012570	0.088430
O191	O19	0.061380	0.903930	0.995310
O201	O20	0.605590	0.956440	0.127580
O211	O21	0.172600	0.497700	0.443100
O221	O22	0.581330	0.911570	0.012570
O231	O23	0.909060	0.234470	0.941810
O241	O24	0.329700	0.556900	0.497700
O251	O25	0.565000	0.304000	0.506000
O261	O26	0.384300	0.443100	0.502300
O271	O27	0.943310	0.995310	0.096070
O281	O28	0.960620	0.096070	0.004690
O291	O29	0.437970	0.872420	0.956440
O301	O30	0.838810	0.131780	0.934200
O311	O31	0.603880	0.044450	0.771990
O321	O32	0.856470	0.058190	0.234470
O331	O33	0.505470	0.088430	0.987430
O341	O34	0.351670	0.228010	0.044450
