data_TOXHAR_freeONLY_PM
_symmetry_space_group_name_H-M	'P1'
_cell_length_a	7.588300
_cell_length_b	15.783800
_cell_length_c	15.783800
_cell_angle_alpha	94.282500
_cell_angle_beta	99.478700
_cell_angle_gamma	99.478700
_symmetry_Int_Tables_number 1

loop_
_symmetry_equiv_pos_as_xyz
'x,y,z'

loop_
_atom_site_label
_atom_site_type_symbol
_atom_site_fract_x
_atom_site_fract_y
_atom_site_fract_z
Zn11	Zn1	0.201580	0.506950	0.623150
Zn21	Zn2	0.701580	0.623150	0.506950
H11	H1	0.962200	0.304800	0.408000
H21	H2	0.625400	0.248900	0.868900
H31	H3	0.760700	0.649600	0.732800
H41	H4	0.652900	0.023100	0.317300
H51	H5	0.613900	0.071900	0.800500
H61	H6	0.358700	0.923200	0.181600
H71	H7	0.233000	0.044800	0.110800
H81	H8	0.993100	0.186000	0.158800
H91	H9	0.038400	0.131200	0.759400
H101	H10	0.721400	0.879300	0.916700
H111	H11	0.897000	0.721300	0.701100
H121	H12	0.177600	0.073300	0.737700
H131	H13	0.701200	0.808200	0.328200
H141	H14	0.319100	0.315200	0.096000
H151	H15	0.493100	0.158800	0.186000
H161	H16	0.677600	0.737700	0.073300
H171	H17	0.724900	0.326900	0.045300
H181	H18	0.171000	0.851500	0.469900
H191	H19	0.733000	0.110800	0.044800
H201	H20	0.394300	0.168200	0.406400
H211	H21	0.894300	0.406400	0.168200
H221	H22	0.472500	0.752500	0.400300
H231	H23	0.152900	0.317300	0.023100
H241	H24	0.972500	0.400300	0.752500
H251	H25	0.221400	0.916700	0.879300
H261	H26	0.858700	0.181600	0.923200
H271	H27	0.082500	0.060300	0.035700
H281	H28	0.582500	0.035700	0.060300
H291	H29	0.282000	0.416800	0.339400
H301	H30	0.657000	0.032900	0.973500
H311	H31	0.397000	0.701100	0.721300
H321	H32	0.782000	0.339400	0.416800
H331	H33	0.260700	0.732800	0.649600
H341	H34	0.201200	0.328200	0.808200
H351	H35	0.538400	0.759400	0.131200
H361	H36	0.157000	0.973500	0.032900
H371	H37	0.346400	0.366400	0.016400
H381	H38	0.846400	0.016400	0.366400
H391	H39	0.762900	0.788500	0.803900
H401	H40	0.819100	0.096000	0.315200
H411	H41	0.153000	0.706900	0.961500
H421	H42	0.671000	0.469900	0.851500
H431	H43	0.261200	0.770000	0.483200
H441	H44	0.025700	0.038100	0.789100
H451	H45	0.462200	0.408000	0.304800
H461	H46	0.667500	0.234200	0.309800
H471	H47	0.525700	0.789100	0.038100
H481	H48	0.125400	0.868900	0.248900
H491	H49	0.653000	0.961500	0.706900
H501	H50	0.262900	0.803900	0.788500
H511	H51	0.167500	0.309800	0.234200
H521	H52	0.113900	0.800500	0.071900
H531	H53	0.761200	0.483200	0.770000
H541	H54	0.224900	0.045300	0.326900
C11	C1	0.317800	0.234900	0.986500
C21	C2	0.107100	0.088600	0.779800
C31	C3	0.957400	0.020400	0.193800
C41	C4	0.406700	0.007000	0.848000
C51	C5	0.054900	0.246200	0.871200
C61	C6	0.733000	0.864100	0.125100
C71	C7	0.203200	0.201000	0.908000
C81	C8	0.085400	0.312200	0.820600
C91	C9	0.280600	0.316000	0.035000
C101	C10	0.448800	0.787000	0.356000
C111	C11	0.808400	0.844300	0.926500
C121	C12	0.494100	0.494700	0.748100
C131	C13	0.994100	0.748100	0.494700
C141	C14	0.072700	0.182100	0.209300
C151	C15	0.962400	0.738100	0.870500
C161	C16	0.793600	0.329400	0.251000
C171	C17	0.308400	0.926500	0.844300
C181	C18	0.944600	0.599000	0.671400
C191	C19	0.652700	0.456100	0.789300
C201	C20	0.983200	0.978900	0.117100
C211	C21	0.741100	0.265700	0.856700
C221	C22	0.381900	0.888300	0.225500
C231	C23	0.126800	0.017900	0.069900
C241	C24	0.906700	0.848000	0.007000
C251	C25	0.881900	0.225500	0.888300
C261	C26	0.626800	0.069900	0.017900
C271	C27	0.241100	0.856700	0.265700
C281	C28	0.777000	0.332000	0.806200
C291	C29	0.403600	0.404500	0.354900
C301	C30	0.457400	0.193800	0.020400
C311	C31	0.515900	0.469600	0.432200
C321	C32	0.370700	0.084200	0.898400
C331	C33	0.833500	0.790000	0.858200
C341	C34	0.040100	0.797000	0.018000
C351	C35	0.233000	0.125100	0.864100
C361	C36	0.676300	0.254200	0.256400
C371	C37	0.709000	0.309200	0.098800
C381	C38	0.152700	0.789300	0.456100
C391	C39	0.293600	0.251000	0.329400
C401	C40	0.812700	0.356700	0.172100
C411	C41	0.015900	0.432200	0.469600
C421	C42	0.082900	0.101700	0.236700
C431	C43	0.948800	0.356000	0.787000
C441	C44	0.462400	0.870500	0.738100
C451	C45	0.607100	0.779800	0.088600
C461	C46	0.780600	0.035000	0.316000
C471	C47	0.209000	0.098800	0.309200
C481	C48	0.540100	0.018000	0.797000
C491	C49	0.565800	0.951700	0.741900
C501	C50	0.870700	0.898400	0.084200
C511	C51	0.444600	0.671400	0.599000
C521	C52	0.312700	0.172100	0.356700
C531	C53	0.817800	0.986500	0.234900
C541	C54	0.903600	0.354900	0.404500
C551	C55	0.572700	0.209300	0.182100
C561	C56	0.582900	0.236700	0.101700
C571	C57	0.554900	0.871200	0.246200
C581	C58	0.065800	0.741900	0.951700
C591	C59	0.277000	0.806200	0.332000
C601	C60	0.585400	0.820600	0.312200
C611	C61	0.483200	0.117100	0.978900
C621	C62	0.703200	0.908000	0.201000
C631	C63	0.176300	0.256400	0.254200
C641	C64	0.333500	0.858200	0.790000
C651	C65	0.386500	0.727400	0.667400
C661	C66	0.886500	0.667400	0.727400
O11	O1	0.497700	0.570800	0.768400
O21	O2	0.075600	0.565400	0.703400
O31	O3	0.065300	0.409900	0.542100
O41	O4	0.860300	0.578800	0.596600
O51	O5	0.360300	0.596600	0.578800
O61	O6	0.565300	0.542100	0.409900
O71	O7	0.870700	0.693700	0.444700
O81	O8	0.897100	0.384600	0.320200
O91	O9	0.998500	0.679500	0.809500
O101	O10	0.539000	0.446700	0.504100
O111	O11	0.498500	0.809500	0.679500
O121	O12	0.397100	0.320200	0.384600
O131	O13	0.132900	0.771700	0.369700
O141	O14	0.039000	0.504100	0.446700
O151	O15	0.632900	0.369700	0.771700
O161	O16	0.997700	0.768400	0.570800
O171	O17	0.575600	0.703400	0.565400
O181	O18	0.370700	0.444700	0.693700
