data_TOXHEV_freeONLY_PM
_symmetry_space_group_name_H-M	'P1'
_cell_length_a	8.035500
_cell_length_b	23.422200
_cell_length_c	23.422200
_cell_angle_alpha	88.313900
_cell_angle_beta	80.122800
_cell_angle_gamma	80.123100
_symmetry_Int_Tables_number 1

loop_
_symmetry_equiv_pos_as_xyz
'x,y,z'

loop_
_atom_site_label
_atom_site_type_symbol
_atom_site_fract_x
_atom_site_fract_y
_atom_site_fract_z
Zn11	Zn1	0.141150	0.062280	0.053540
Zn21	Zn2	0.805310	0.053540	0.937720
Zn31	Zn3	0.256970	0.937720	0.946460
Zn41	Zn4	0.500000	0.000000	0.000000
Zn51	Zn5	0.796570	0.946460	0.062280
Fe11	Fe1	0.250000	0.500000	0.500000
H11	H1	0.226000	0.706000	0.457800
H21	H2	0.338500	0.003900	0.631500
H31	H3	0.419600	0.374500	0.880300
H41	H4	0.001600	0.168400	0.609200
H51	H5	0.943400	0.398300	0.851300
H61	H6	0.657600	0.368500	0.003900
H71	H7	0.835400	0.131200	0.306800
H81	H8	0.805100	0.362200	0.111400
H91	H9	0.643700	0.699700	0.877900
H101	H10	0.921800	0.009900	0.709700
H111	H11	0.829400	0.821800	0.622000
H121	H12	0.830000	0.390800	0.168400
H131	H13	0.162400	0.374400	0.991400
H141	H14	0.736200	0.053200	0.500000
H151	H15	0.763800	0.500000	0.946800
H161	H16	0.729700	0.008200	0.198800
H171	H17	0.205900	0.119700	0.374500
H181	H18	0.865700	0.747200	0.509200
H191	H19	0.661500	0.008100	0.467900
H201	H20	0.885300	0.215100	0.027900
H211	H21	0.857800	0.306800	0.868800
H221	H22	0.088100	0.172000	0.409200
H231	H23	0.278700	0.637800	0.888600
H241	H24	0.068300	0.290300	0.009900
H251	H25	0.210600	0.500000	0.053200
H261	H26	0.651900	0.506900	0.865700
H271	H27	0.590100	0.280400	0.983600
H281	H28	0.596900	0.522600	0.670600
H291	H29	0.205300	0.851300	0.601700
H301	H30	0.316200	0.457800	0.294000
H311	H31	0.973900	0.996100	0.368500
H321	H32	0.221300	0.300300	0.122100
H331	H33	0.180900	0.991800	0.464200
H341	H34	0.643400	0.798100	0.029700
H351	H35	0.273200	0.178200	0.378000
H361	H36	0.846200	0.991400	0.625600
H371	H37	0.128300	0.784900	0.972100
H381	H38	0.854100	0.719600	0.016400
H391	H39	0.575000	0.142700	0.612500
H401	H40	0.193000	0.601700	0.148700
H411	H41	0.262100	0.801200	0.008200
H421	H42	0.478400	0.877900	0.300300
H431	H43	0.669300	0.828000	0.590800
H441	H44	0.387100	0.490800	0.747200
H451	H45	0.781000	0.814900	0.978900
H461	H46	0.348800	0.378000	0.821800
H471	H47	0.482400	0.865700	0.493100
H481	H48	0.330400	0.532100	0.008100
H491	H49	0.122100	0.252800	0.490800
H501	H50	0.289400	0.946800	0.500000
H511	H51	0.779200	0.831600	0.390800
H521	H52	0.030000	0.631500	0.996100
H531	H53	0.558500	0.970300	0.798100
H541	H54	0.700100	0.880300	0.625500
H551	H55	0.354900	0.464200	0.008200
H561	H56	0.417900	0.287600	0.474000
H571	H57	0.970100	0.832300	0.362300
H581	H58	0.083500	0.111400	0.637800
H591	H59	0.812500	0.612500	0.857300
H601	H60	0.732500	0.670600	0.477400
H611	H61	0.197000	0.496000	0.205600
H621	H62	0.307000	0.794400	0.496000
H631	H63	0.273400	0.868800	0.693200
H641	H64	0.426300	0.983600	0.719600
H651	H65	0.071500	0.198800	0.991800
H661	H66	0.790100	0.477400	0.329400
H671	H67	0.326900	0.029700	0.201900
H681	H68	0.164700	0.167700	0.637700
H691	H69	0.548600	0.622000	0.178200
H701	H70	0.197600	0.637700	0.832300
H711	H71	0.389200	0.609200	0.831600
H721	H72	0.880500	0.329400	0.522600
H731	H73	0.936700	0.991800	0.801200
H741	H74	0.841200	0.134300	0.506900
H751	H75	0.282300	0.387500	0.142700
H761	H76	0.330200	0.857300	0.387500
H771	H77	0.033400	0.693200	0.131200
H781	H78	0.827300	0.535800	0.991800
H791	H79	0.368500	0.709700	0.990100
H801	H80	0.471200	0.201900	0.970300
H811	H81	0.597400	0.205600	0.504000
H821	H82	0.179500	0.712400	0.526000
H831	H83	0.463200	0.008600	0.374400
H841	H84	0.024500	0.493100	0.134300
H851	H85	0.656600	0.122100	0.699700
H861	H86	0.108100	0.474000	0.712400
H871	H87	0.129500	0.016400	0.280400
H881	H88	0.739900	0.590800	0.172000
H891	H89	0.086800	0.027900	0.784900
H901	H90	0.294500	0.526000	0.287600
H911	H91	0.389800	0.294000	0.542200
H921	H92	0.658300	0.148700	0.398300
H931	H93	0.068000	0.542200	0.706000
H941	H94	0.674400	0.625500	0.119700
H951	H95	0.636900	0.008200	0.535800
H961	H96	0.667600	0.362300	0.167700
H971	H97	0.404100	0.021100	0.814900
H981	H98	0.870600	0.467900	0.991900
H991	H99	0.240100	0.978900	0.185100
H1001	H100	0.899600	0.972100	0.215100
H1011	H101	0.574800	0.185100	0.021100
H1021	H102	0.625100	0.509200	0.252800
H1031	H103	0.528200	0.625600	0.008600
H1041	H104	0.137500	0.991900	0.532100
H1051	H105	0.502700	0.409200	0.828000
H1061	H106	0.898600	0.504000	0.794400
H1071	H107	0.832700	0.888600	0.362200
H1081	H108	0.641400	0.990100	0.290300
C11	C1	0.371100	0.604400	0.079400
C21	C2	0.373100	0.090700	0.557300
C31	C3	0.851200	0.173300	0.506300
C41	C4	0.349100	0.989800	0.188600
C51	C5	0.977100	0.976800	0.689000
C61	C6	0.462300	0.188600	0.010200
C71	C7	0.950500	0.200500	0.990900
C81	C8	0.014500	0.504000	0.926800
C91	C9	0.675800	0.708100	0.486300
C101	C10	0.134400	0.678900	0.106300
C111	C11	0.977300	0.904900	0.548500
C121	C12	0.969200	0.376300	0.883300
C131	C13	0.685300	0.493900	0.147500
C141	C14	0.474200	0.548500	0.095100
C151	C15	0.528700	0.302000	0.015400
C161	C16	0.725300	0.275300	0.510100
C171	C17	0.748100	0.059900	0.289300
C181	C18	0.427200	0.312100	0.505500
C191	C19	0.176900	0.967900	0.498300
C201	C20	0.484700	0.502000	0.756600
C211	C21	0.222200	0.127200	0.558000
C221	C22	0.594300	0.546400	0.131000
C231	C23	0.395800	0.282000	0.051000
C241	C24	0.476200	0.387900	0.077100
C251	C25	0.543000	0.110900	0.633500
C261	C26	0.107300	0.145300	0.616100
C271	C27	0.274700	0.131000	0.453600
C281	C28	0.464900	0.985200	0.129200
C291	C29	0.346100	0.366500	0.110900
C301	C30	0.306800	0.499300	0.377100
C311	C31	0.333900	0.689000	0.023200
C321	C32	0.790700	0.506200	0.784400
C331	C33	0.054900	0.395600	0.920600
C341	C34	0.067300	0.505500	0.687900
C351	C35	0.695300	0.812900	0.494500
C361	C36	0.616100	0.513700	0.708100
C371	C37	0.849000	0.009100	0.200500
C381	C38	0.530800	0.826700	0.493700
C391	C39	0.135900	0.922900	0.387900
C401	C40	0.193900	0.622900	0.499300
C411	C41	0.455900	0.015400	0.698000
C421	C42	0.081300	0.493800	0.215600
C431	C43	0.491800	0.505500	0.812900
C441	C44	0.643100	0.032100	0.501700
C451	C45	0.424900	0.784400	0.493800
C461	C46	0.186700	0.893700	0.678900
C471	C47	0.058600	0.990900	0.799500
C481	C48	0.553200	0.051000	0.718000
C491	C49	0.810200	0.494500	0.187100
C501	C50	0.147500	0.883300	0.623700
C511	C51	0.936000	0.966900	0.638500
C521	C52	0.076700	0.972200	0.354400
C531	C53	0.309500	0.314500	0.097900
C541	C54	0.324800	0.498300	0.032100
C551	C55	0.975500	0.493700	0.173300
C561	C56	0.579300	0.014800	0.870800
C571	C57	0.316100	0.377100	0.500700
C581	C58	0.941200	0.612100	0.922900
C591	C59	0.287400	0.889100	0.366500
C601	C60	0.759300	0.106300	0.321100
C611	C61	0.405900	0.129200	0.014800
C621	C62	0.536200	0.442700	0.090700
C631	C63	0.837900	0.486300	0.291900
C641	C64	0.758700	0.756600	0.498000
C651	C65	0.859300	0.869000	0.546400
C661	C66	0.030200	0.860700	0.021700
C671	C67	0.855200	0.501700	0.967900
C681	C68	0.425500	0.638500	0.033100
C691	C69	0.703100	0.215600	0.506200
C701	C70	0.743300	0.498000	0.243400
C711	C71	0.823500	0.633500	0.889100
C721	C72	0.650600	0.442000	0.127200
C731	C73	0.868700	0.854700	0.383900
C741	C74	0.097100	0.361500	0.966900
C751	C75	0.907400	0.872800	0.442000
C761	C76	0.169300	0.984600	0.302000
C771	C77	0.326700	0.506100	0.852500
C781	C78	0.948100	0.021700	0.139300
C791	C79	0.117800	0.451500	0.904900
C801	C80	0.721900	0.685500	0.902100
C811	C81	0.654500	0.116700	0.376300
C821	C82	0.183200	0.500700	0.622900
C831	C83	0.747400	0.383900	0.145300
C841	C84	0.568900	0.354400	0.027800
C851	C85	0.109100	0.978300	0.860700
C861	C86	0.754500	0.847800	0.601200
C871	C87	0.549500	0.079400	0.395600
C881	C88	0.021100	0.909300	0.442700
C891	C89	0.002700	0.187100	0.505500
C901	C90	0.846100	0.698000	0.984600
C911	C91	0.592600	0.097900	0.685500
C921	C92	0.764600	0.510100	0.724700
C931	C93	0.244800	0.687900	0.494500
C941	C94	0.024500	0.920600	0.604400
C951	C95	0.728800	0.718000	0.949000
C961	C96	0.527500	0.010200	0.811400
C971	C97	0.510700	0.724700	0.489900
C981	C98	0.403300	0.027800	0.645600
C991	C99	0.167200	0.147500	0.506100
C1001	C100	0.541400	0.033100	0.361500
C1011	C101	0.376000	0.902100	0.314500
C1021	C102	0.661100	0.811400	0.989800
C1031	C103	0.820800	0.852500	0.493900
C1041	C104	0.141900	0.799500	0.009100
C1051	C105	0.322200	0.949000	0.282000
C1061	C106	0.228800	0.623700	0.116700
C1071	C107	0.276600	0.616100	0.854700
C1081	C108	0.203500	0.152200	0.398800
C1091	C109	0.219800	0.558000	0.872800
C1101	C110	0.271700	0.453600	0.869000
C1111	C111	0.999400	0.489900	0.275300
C1121	C112	0.069600	0.557300	0.909300
C1131	C113	0.097300	0.940100	0.710700
C1141	C114	0.446700	0.077100	0.612100
C1151	C115	0.642900	0.023200	0.311000
C1161	C116	0.644300	0.601200	0.152200
C1171	C117	0.192000	0.710700	0.059900
C1181	C118	0.919600	0.321100	0.893700
C1191	C119	0.445300	0.496000	0.073200
C1201	C120	0.870200	0.291900	0.513700
C1211	C121	0.013300	0.243400	0.502000
C1221	C122	0.430700	0.095100	0.451500
C1231	C123	0.481500	0.073200	0.504000
C1241	C124	0.549900	0.870800	0.985200
C1251	C125	0.058700	0.926800	0.496000
C1261	C126	0.912600	0.139300	0.978300
C1271	C127	0.962600	0.289300	0.940100
C1281	C128	0.397700	0.398800	0.847800
C1291	C129	0.951100	0.645600	0.972200
C1301	C130	0.046100	0.311000	0.976800
C1311	C131	0.642500	0.506300	0.826700
C1321	C132	0.260700	0.494500	0.312100
O11	O1	0.155300	0.944700	0.763300
O21	O2	0.347600	0.229400	0.045600
O31	O3	0.155600	0.372200	0.510600
O41	O4	0.437100	0.871800	0.954200
O51	O5	0.222900	0.938200	0.866600
O61	O6	0.953800	0.985000	0.099200
O71	O7	0.313600	0.579500	0.491300
O81	O8	0.422200	0.677200	0.498400
O91	O9	0.384400	0.420500	0.508700
O101	O10	0.910500	0.866600	0.061800
O111	O11	0.038000	0.015000	0.900800
O121	O12	0.061200	0.900800	0.985000
O131	O13	0.622600	0.770600	0.954400
O141	O14	0.106900	0.508700	0.579500
O151	O15	0.038400	0.627800	0.489400
O161	O16	0.423000	0.954400	0.229400
O171	O17	0.505100	0.989400	0.911800
O181	O18	0.900000	0.236700	0.944700
O191	O19	0.027700	0.061800	0.133400
O201	O20	0.608700	0.954200	0.128200
O211	O21	0.244700	0.000000	0.000000
O221	O22	0.406300	0.010600	0.088200
O231	O23	0.079400	0.498400	0.322800
O241	O24	0.472200	0.489400	0.372200
O251	O25	0.691100	0.045800	0.871800
O261	O26	0.863300	0.055300	0.236700
O271	O27	0.263100	0.128200	0.045800
O281	O28	0.838900	0.133400	0.938200
O291	O29	0.081400	0.763300	0.055300
O301	O30	0.755300	0.000000	0.000000
O311	O31	0.195100	0.491300	0.420500
O321	O32	0.597800	0.322800	0.501600
O331	O33	0.583100	0.911800	0.010600
O341	O34	0.606800	0.045600	0.770600
O351	O35	0.947000	0.099200	0.015000
O361	O36	0.505500	0.088200	0.989400
O371	O37	0.333800	0.510600	0.627800
O381	O38	0.900600	0.501600	0.677200
