data_TUBJAD_freeONLY_PM
_symmetry_space_group_name_H-M	'P1'
_cell_length_a	8.838000
_cell_length_b	15.987000
_cell_length_c	16.920000
_cell_angle_alpha	90.000000
_cell_angle_beta	90.000000
_cell_angle_gamma	90.000000
_symmetry_Int_Tables_number 1

loop_
_symmetry_equiv_pos_as_xyz
'x,y,z'

loop_
_atom_site_label
_atom_site_type_symbol
_atom_site_fract_x
_atom_site_fract_y
_atom_site_fract_z
Cu11	Cu1	0.070400	0.193890	0.781610
Cu21	Cu2	0.070400	0.693890	0.718390
Cu31	Cu3	0.570400	0.806110	0.218390
Cu41	Cu4	0.570400	0.306110	0.281610
H11	H1	0.999600	0.654300	0.295700
H21	H2	0.657700	0.518600	0.349400
H31	H3	0.610400	0.238400	0.622200
H41	H4	0.929300	0.019000	0.310700
H51	H5	0.628100	0.900500	0.604500
H61	H6	0.537300	0.718100	0.557700
H71	H7	0.657700	0.018600	0.150600
H81	H8	0.362800	0.680300	0.152500
H91	H9	0.749300	0.451700	0.457000
H101	H10	0.429300	0.481000	0.810700
H111	H11	0.176500	0.879100	0.127400
H121	H12	0.382700	0.481300	0.449200
H131	H13	0.845400	0.735200	0.428500
H141	H14	0.929300	0.519000	0.189300
H151	H15	0.537300	0.218100	0.942300
H161	H16	0.314100	0.085700	0.727100
H171	H17	0.786900	0.765600	0.092900
H181	H18	0.249300	0.548300	0.543000
H191	H19	0.128100	0.599500	0.104500
H201	H20	0.862800	0.819700	0.652500
H211	H21	0.429300	0.981000	0.689300
H221	H22	0.676500	0.120900	0.872600
H231	H23	0.862800	0.319700	0.847500
H241	H24	0.814100	0.914300	0.272900
H251	H25	0.499600	0.345700	0.704300
H261	H26	0.749300	0.951700	0.043000
H271	H27	0.882700	0.518700	0.550800
H281	H28	0.157700	0.481400	0.650600
H291	H29	0.362800	0.180300	0.347500
H301	H30	0.676500	0.620900	0.627400
H311	H31	0.628100	0.400500	0.895500
H321	H32	0.345400	0.764800	0.928500
H331	H33	0.334100	0.327100	0.158400
H341	H34	0.834100	0.172900	0.658400
H351	H35	0.334100	0.827100	0.341600
H361	H36	0.345400	0.264800	0.571500
H371	H37	0.834100	0.672900	0.841600
H381	H38	0.814100	0.414300	0.227100
H391	H39	0.499600	0.845700	0.795700
H401	H40	0.157700	0.981400	0.849400
H411	H41	0.286900	0.734400	0.592900
H421	H42	0.610400	0.738400	0.877800
H431	H43	0.110400	0.761600	0.377800
H441	H44	0.128100	0.099500	0.395500
H451	H45	0.382700	0.981300	0.050800
H461	H46	0.110400	0.261600	0.122200
H471	H47	0.037300	0.281900	0.442300
H481	H48	0.999600	0.154300	0.204300
H491	H49	0.314100	0.585700	0.772900
H501	H50	0.176500	0.379100	0.372600
H511	H51	0.037300	0.781900	0.057700
H521	H52	0.845400	0.235200	0.071500
H531	H53	0.786900	0.265600	0.407100
H541	H54	0.249300	0.048300	0.957000
H551	H55	0.882700	0.018700	0.949200
H561	H56	0.286900	0.234400	0.907100
C11	C1	0.807600	0.303900	0.801600
C21	C2	0.849100	0.300200	0.375100
C31	C3	0.973900	0.682700	0.558100
C41	C4	0.361200	0.112100	0.770900
C51	C5	0.861200	0.887900	0.229100
C61	C6	0.675000	0.845200	0.713700
C71	C7	0.614400	0.904700	0.660000
C81	C8	0.675000	0.345200	0.786300
C91	C9	0.767900	0.509900	0.451100
C101	C10	0.575000	0.132600	0.857200
C111	C11	0.767900	0.009900	0.048900
C121	C12	0.473900	0.317300	0.441900
C131	C13	0.739700	0.135400	0.119900
C141	C14	0.378500	0.866900	0.998300
C151	C15	0.114400	0.095300	0.340000
C161	C16	0.213300	0.951500	0.888200
C171	C17	0.713300	0.548500	0.388200
C181	C18	0.660000	0.755000	0.830600
C191	C19	0.614400	0.404700	0.840000
C201	C20	0.861200	0.387900	0.270900
C211	C21	0.239700	0.364600	0.619900
C221	C22	0.349100	0.699800	0.624900
C231	C23	0.114400	0.595300	0.160000
C241	C24	0.175000	0.154800	0.286300
C251	C25	0.292900	0.283400	0.189700
C261	C26	0.307600	0.196100	0.301600
C271	C27	0.101100	0.474200	0.242900
C281	C28	0.807600	0.803900	0.698400
C291	C29	0.239700	0.864600	0.880100
C301	C30	0.175000	0.654800	0.213700
C311	C31	0.824300	0.177200	0.065600
C321	C32	0.213300	0.451500	0.611800
C331	C33	0.307600	0.696100	0.198400
C341	C34	0.878500	0.133100	0.001700
C351	C35	0.792900	0.216600	0.689700
C361	C36	0.601100	0.525800	0.757100
C371	C37	0.575000	0.632600	0.642800
C381	C38	0.995200	0.811600	0.101000
C391	C39	0.473900	0.817300	0.058100
C401	C40	0.093000	0.679500	0.282100
C411	C41	0.014700	0.408700	0.292100
C421	C42	0.672500	0.687400	0.309100
C431	C43	0.593000	0.820500	0.782100
C441	C44	0.514700	0.091300	0.792100
C451	C45	0.324300	0.322800	0.565600
C461	C46	0.995200	0.311600	0.399000
C471	C47	0.324300	0.822800	0.934400
C481	C48	0.075000	0.867400	0.142800
C491	C49	0.824300	0.677200	0.434400
C501	C50	0.347200	0.451300	0.494000
C511	C51	0.378500	0.366900	0.501700
C521	C52	0.514700	0.591300	0.707900
C531	C53	0.847200	0.048700	0.994000
C541	C54	0.660000	0.255000	0.669400
C551	C55	0.014700	0.908700	0.207900
C561	C56	0.267900	0.990100	0.951100
C571	C57	0.160000	0.745000	0.330600
C581	C58	0.713300	0.048500	0.111800
C591	C59	0.847200	0.548700	0.506000
C601	C60	0.495200	0.188400	0.899000
C611	C61	0.093000	0.179500	0.217900
C621	C62	0.973900	0.182700	0.941900
C631	C63	0.361200	0.612100	0.729100
C641	C64	0.672500	0.187400	0.190900
C651	C65	0.349100	0.199800	0.875100
C661	C66	0.849100	0.800200	0.124900
C671	C67	0.739700	0.635400	0.380100
C681	C68	0.267900	0.490100	0.548900
C691	C69	0.347200	0.951300	0.006000
C701	C70	0.495200	0.688400	0.601000
C711	C71	0.101100	0.974200	0.257100
C721	C72	0.160000	0.245000	0.169400
C731	C73	0.593000	0.320500	0.717900
C741	C74	0.172500	0.812600	0.809100
C751	C75	0.601100	0.025800	0.742900
C761	C76	0.878500	0.633100	0.498300
C771	C77	0.172500	0.312600	0.690900
C781	C78	0.792900	0.716600	0.810300
C791	C79	0.292900	0.783400	0.310300
C801	C80	0.075000	0.367400	0.357200
N11	N1	0.864100	0.743500	0.743100
N21	N2	0.364100	0.756500	0.243100
N31	N3	0.787900	0.332600	0.312400
N41	N4	0.526900	0.974800	0.697600
N51	N5	0.864100	0.243500	0.756900
N61	N6	0.026900	0.025200	0.302400
N71	N7	0.287900	0.667400	0.687600
N81	N8	0.526900	0.474800	0.802400
N91	N9	0.287900	0.167400	0.812400
N101	N10	0.026900	0.525200	0.197600
N111	N11	0.787900	0.832600	0.187600
N121	N12	0.364100	0.256500	0.256900
O11	O1	0.019000	0.753300	0.546200
O21	O2	0.238300	0.978400	0.240900
O31	O3	0.156500	0.351100	0.756300
O41	O4	0.147400	0.238100	0.679500
O51	O5	0.738300	0.021600	0.759100
O61	O6	0.989600	0.641900	0.624300
O71	O7	0.156500	0.851100	0.743700
O81	O8	0.738300	0.521600	0.740900
O91	O9	0.647400	0.261900	0.179500
O101	O10	0.656500	0.148900	0.256300
O111	O11	0.647400	0.761900	0.320500
O121	O12	0.519000	0.746700	0.046200
O131	O13	0.989600	0.141900	0.875700
O141	O14	0.519000	0.246700	0.453800
O151	O15	0.238300	0.478400	0.259100
O161	O16	0.147400	0.738100	0.820500
O171	O17	0.489600	0.858100	0.124300
O181	O18	0.656500	0.648900	0.243700
O191	O19	0.019000	0.253300	0.953800
O201	O20	0.489600	0.358100	0.375700
