data_UBULUA_freeONLY_PM
_symmetry_space_group_name_H-M	'P1'
_cell_length_a	13.894200
_cell_length_b	27.574000
_cell_length_c	44.874000
_cell_angle_alpha	90.000000
_cell_angle_beta	90.000000
_cell_angle_gamma	90.000000
_symmetry_Int_Tables_number 1

loop_
_symmetry_equiv_pos_as_xyz
'x,y,z'

loop_
_atom_site_label
_atom_site_type_symbol
_atom_site_fract_x
_atom_site_fract_y
_atom_site_fract_z
Zn11	Zn1	0.151830	0.454130	0.084120
Zn21	Zn2	0.382980	0.477550	0.914040
Zn31	Zn3	0.175760	0.258540	0.819990
Zn41	Zn4	0.848170	0.045870	0.584120
Zn51	Zn5	0.617020	0.022450	0.414040
Zn61	Zn6	0.824240	0.241460	0.319990
Zn71	Zn7	0.651830	0.545870	0.415880
Zn81	Zn8	0.882980	0.522450	0.585960
Zn91	Zn9	0.675760	0.741460	0.680010
Zn101	Zn10	0.348170	0.954130	0.915880
Zn111	Zn11	0.117020	0.977550	0.085960
Zn121	Zn12	0.324240	0.758540	0.180010
H11	H1	0.038400	0.086700	0.172600
H21	H2	0.061300	0.014900	0.147000
H31	H3	0.097400	0.082700	0.071500
H41	H4	0.074100	0.156700	0.094300
H51	H5	0.019500	0.351300	0.166100
H61	H6	0.055800	0.421900	0.139900
H71	H7	0.132800	0.347700	0.069600
H81	H8	0.100700	0.273900	0.093000
H91	H9	0.948300	0.154200	0.230900
H101	H10	0.889800	0.161700	0.278200
H111	H11	0.935300	0.302300	0.277200
H121	H12	0.987600	0.298900	0.228100
H131	H13	0.690900	0.395500	0.889600
H141	H14	0.535300	0.419700	0.883100
H151	H15	0.523600	0.468000	0.964600
H161	H16	0.675200	0.440900	0.973900
H171	H17	0.875200	0.448800	0.013300
H181	H18	0.957800	0.468600	0.056900
H191	H19	0.203500	0.428100	0.020200
H201	H20	0.125400	0.403200	0.976900
H211	H21	0.126400	0.356900	0.911500
H221	H22	0.208800	0.318800	0.873500
H231	H23	0.968800	0.281100	0.834600
H241	H24	0.875900	0.313200	0.873700
H251	H25	0.961600	0.413300	0.672600
H261	H26	0.938700	0.485100	0.647000
H271	H27	0.902600	0.417300	0.571500
H281	H28	0.925900	0.343300	0.594300
H291	H29	0.980500	0.148700	0.666100
H301	H30	0.944200	0.078100	0.639900
H311	H31	0.867200	0.152300	0.569600
H321	H32	0.899300	0.226100	0.593000
H331	H33	0.051700	0.345800	0.730900
H341	H34	0.110200	0.338300	0.778200
H351	H35	0.064700	0.197700	0.777200
H361	H36	0.012400	0.201100	0.728100
H371	H37	0.309100	0.104500	0.389600
H381	H38	0.464700	0.080300	0.383100
H391	H39	0.476400	0.032000	0.464600
H401	H40	0.324800	0.059100	0.473900
H411	H41	0.124800	0.051200	0.513300
H421	H42	0.042200	0.031400	0.556900
H431	H43	0.796500	0.071900	0.520200
H441	H44	0.874600	0.096800	0.476900
H451	H45	0.873600	0.143100	0.411500
H461	H46	0.791200	0.181200	0.373500
H471	H47	0.031200	0.218900	0.334600
H481	H48	0.124100	0.186800	0.373700
H491	H49	0.538400	0.913300	0.327400
H501	H50	0.561300	0.985100	0.353000
H511	H51	0.597400	0.917300	0.428500
H521	H52	0.574100	0.843300	0.405700
H531	H53	0.519500	0.648700	0.333900
H541	H54	0.555800	0.578100	0.360100
H551	H55	0.632800	0.652300	0.430400
H561	H56	0.600700	0.726100	0.407000
H571	H57	0.448300	0.845800	0.269100
H581	H58	0.389800	0.838300	0.221800
H591	H59	0.435300	0.697700	0.222800
H601	H60	0.487600	0.701100	0.271900
H611	H61	0.190900	0.604500	0.610400
H621	H62	0.035300	0.580300	0.616900
H631	H63	0.023600	0.532000	0.535400
H641	H64	0.175200	0.559100	0.526100
H651	H65	0.375200	0.551200	0.486700
H661	H66	0.457800	0.531400	0.443100
H671	H67	0.703500	0.571900	0.479800
H681	H68	0.625400	0.596800	0.523100
H691	H69	0.626400	0.643100	0.588500
H701	H70	0.708800	0.681200	0.626500
H711	H71	0.468800	0.718900	0.665400
H721	H72	0.375900	0.686800	0.626300
H731	H73	0.461600	0.586700	0.827400
H741	H74	0.438700	0.514900	0.853000
H751	H75	0.402600	0.582700	0.928500
H761	H76	0.425900	0.656700	0.905700
H771	H77	0.480500	0.851300	0.833900
H781	H78	0.444200	0.921900	0.860100
H791	H79	0.367200	0.847700	0.930400
H801	H80	0.399300	0.773900	0.907000
H811	H81	0.551700	0.654200	0.769100
H821	H82	0.610200	0.661700	0.721800
H831	H83	0.564700	0.802300	0.722800
H841	H84	0.512400	0.798900	0.771900
H851	H85	0.809100	0.895500	0.110400
H861	H86	0.964700	0.919700	0.116900
H871	H87	0.976400	0.968000	0.035400
H881	H88	0.824800	0.940900	0.026100
H891	H89	0.624800	0.948800	0.986700
H901	H90	0.542200	0.968600	0.943100
H911	H91	0.296500	0.928100	0.979800
H921	H92	0.374600	0.903200	0.023100
H931	H93	0.373600	0.856900	0.088500
H941	H94	0.291200	0.818800	0.126500
H951	H95	0.531200	0.781100	0.165400
H961	H96	0.624100	0.813200	0.126300
C11	C1	0.037700	0.177800	0.150550
C21	C2	0.051300	0.129800	0.135340
C31	C3	0.049600	0.086700	0.151800
C41	C4	0.065000	0.044600	0.136300
C51	C5	0.085900	0.083300	0.092300
C61	C6	0.070800	0.127700	0.105700
C71	C7	0.038900	0.259300	0.148540
C81	C8	0.058000	0.305200	0.132300
C91	C9	0.043500	0.349600	0.146300
C101	C10	0.065500	0.391500	0.130400
C111	C11	0.110300	0.348100	0.089550
C121	C12	0.091300	0.303800	0.103210
C131	C13	0.000500	0.222000	0.191670
C141	C14	0.971900	0.224700	0.223470
C151	C15	0.943800	0.185500	0.239600
C161	C16	0.909400	0.189900	0.267800
C171	C17	0.934500	0.272000	0.267200
C181	C18	0.967900	0.270200	0.238030
C191	C19	0.801600	0.398600	0.938100
C201	C20	0.699800	0.412300	0.932350
C211	C21	0.656800	0.409000	0.906000
C221	C22	0.564800	0.424800	0.902000
C231	C23	0.558000	0.452100	0.949160
C241	C24	0.647400	0.436100	0.954800
C251	C25	0.939100	0.405300	0.964200
C261	C26	0.991100	0.421600	0.991210
C271	C27	0.942300	0.442700	0.014700
C281	C28	0.992100	0.455000	0.040600
C291	C29	0.135400	0.430600	0.019100
C301	C30	0.089700	0.416300	0.993100
C311	C31	0.937800	0.364300	0.920300
C321	C32	0.992300	0.339800	0.896740
C331	C33	0.091800	0.340600	0.896200
C341	C34	0.140500	0.317800	0.873500
C351	C35	0.001100	0.295200	0.851200
C361	C36	0.944100	0.315700	0.874000
C371	C37	0.962300	0.322200	0.650550
C381	C38	0.948700	0.370200	0.635340
C391	C39	0.950400	0.413300	0.651800
C401	C40	0.935000	0.455400	0.636300
C411	C41	0.914100	0.416700	0.592300
C421	C42	0.929200	0.372300	0.605700
C431	C43	0.961100	0.240700	0.648540
C441	C44	0.942000	0.194800	0.632300
C451	C45	0.956500	0.150400	0.646300
C461	C46	0.934500	0.108500	0.630400
C471	C47	0.889700	0.151900	0.589550
C481	C48	0.908700	0.196200	0.603210
C491	C49	0.999500	0.278000	0.691670
C501	C50	0.028100	0.275300	0.723470
C511	C51	0.056200	0.314500	0.739600
C521	C52	0.090600	0.310100	0.767800
C531	C53	0.065500	0.228000	0.767200
C541	C54	0.032100	0.229800	0.738030
C551	C55	0.198400	0.101400	0.438100
C561	C56	0.300200	0.087700	0.432350
C571	C57	0.343200	0.091000	0.406000
C581	C58	0.435200	0.075200	0.402000
C591	C59	0.442000	0.047900	0.449160
C601	C60	0.352600	0.063900	0.454800
C611	C61	0.060900	0.094700	0.464200
C621	C62	0.008900	0.078400	0.491210
C631	C63	0.057700	0.057300	0.514700
C641	C64	0.007900	0.045000	0.540600
C651	C65	0.864600	0.069400	0.519100
C661	C66	0.910300	0.083700	0.493100
C671	C67	0.062200	0.135700	0.420300
C681	C68	0.007700	0.160200	0.396740
C691	C69	0.908200	0.159400	0.396200
C701	C70	0.859500	0.182200	0.373500
C711	C71	0.998900	0.204800	0.351200
C721	C72	0.055900	0.184300	0.374000
C731	C73	0.537700	0.822200	0.349450
C741	C74	0.551300	0.870200	0.364660
C751	C75	0.549600	0.913300	0.348200
C761	C76	0.565000	0.955400	0.363700
C771	C77	0.585900	0.916700	0.407700
C781	C78	0.570800	0.872300	0.394300
C791	C79	0.538900	0.740700	0.351460
C801	C80	0.558000	0.694800	0.367700
C811	C81	0.543500	0.650400	0.353700
C821	C82	0.565500	0.608500	0.369600
C831	C83	0.610300	0.651900	0.410450
C841	C84	0.591300	0.696200	0.396790
C851	C85	0.500500	0.778000	0.308330
C861	C86	0.471900	0.775300	0.276530
C871	C87	0.443800	0.814500	0.260400
C881	C88	0.409400	0.810100	0.232200
C891	C89	0.434500	0.728000	0.232800
C901	C90	0.467900	0.729800	0.261970
C911	C91	0.301600	0.601400	0.561900
C921	C92	0.199800	0.587700	0.567650
C931	C93	0.156800	0.591000	0.594000
C941	C94	0.064800	0.575200	0.598000
C951	C95	0.058000	0.547900	0.550840
C961	C96	0.147400	0.563900	0.545200
C971	C97	0.439100	0.594700	0.535800
C981	C98	0.491100	0.578400	0.508790
C991	C99	0.442300	0.557300	0.485300
C1001	C100	0.492100	0.545000	0.459400
C1011	C101	0.635400	0.569400	0.480900
C1021	C102	0.589700	0.583700	0.506900
C1031	C103	0.437800	0.635700	0.579700
C1041	C104	0.492300	0.660200	0.603260
C1051	C105	0.591800	0.659400	0.603800
C1061	C106	0.640500	0.682200	0.626500
C1071	C107	0.501100	0.704800	0.648800
C1081	C108	0.444100	0.684300	0.626000
C1091	C109	0.462300	0.677800	0.849450
C1101	C110	0.448700	0.629800	0.864660
C1111	C111	0.450400	0.586700	0.848200
C1121	C112	0.435000	0.544600	0.863700
C1131	C113	0.414100	0.583300	0.907700
C1141	C114	0.429200	0.627700	0.894300
C1151	C115	0.461100	0.759300	0.851460
C1161	C116	0.442000	0.805200	0.867700
C1171	C117	0.456500	0.849600	0.853700
C1181	C118	0.434500	0.891500	0.869600
C1191	C119	0.389700	0.848100	0.910450
C1201	C120	0.408700	0.803800	0.896790
C1211	C121	0.499500	0.722000	0.808330
C1221	C122	0.528100	0.724700	0.776530
C1231	C123	0.556200	0.685500	0.760400
C1241	C124	0.590600	0.689900	0.732200
C1251	C125	0.565500	0.772000	0.732800
C1261	C126	0.532100	0.770200	0.761970
C1271	C127	0.698400	0.898600	0.061900
C1281	C128	0.800200	0.912300	0.067650
C1291	C129	0.843200	0.909000	0.094000
C1301	C130	0.935200	0.924800	0.098000
C1311	C131	0.942000	0.952100	0.050840
C1321	C132	0.852600	0.936100	0.045200
C1331	C133	0.560900	0.905300	0.035800
C1341	C134	0.508900	0.921600	0.008790
C1351	C135	0.557700	0.942700	0.985300
C1361	C136	0.507900	0.955000	0.959400
C1371	C137	0.364600	0.930600	0.980900
C1381	C138	0.410300	0.916300	0.006900
C1391	C139	0.562200	0.864300	0.079700
C1401	C140	0.507700	0.839800	0.103260
C1411	C141	0.408200	0.840600	0.103800
C1421	C142	0.359500	0.817800	0.126500
C1431	C143	0.498900	0.795200	0.148800
C1441	C144	0.555900	0.815700	0.126000
I11	I1	0.330020	0.438130	0.077090
I21	I2	0.078650	0.521770	0.114870
I31	I3	0.300590	0.424850	0.876010
I41	I4	0.306290	0.495830	0.964780
I51	I5	0.332470	0.305880	0.812220
I61	I6	0.185980	0.168960	0.833320
I71	I7	0.669980	0.061870	0.577090
I81	I8	0.921350	0.978230	0.614870
I91	I9	0.699410	0.075150	0.376010
I101	I10	0.693710	0.004170	0.464780
I111	I11	0.667530	0.194120	0.312220
I121	I12	0.814020	0.331040	0.333320
I131	I13	0.830020	0.561870	0.422910
I141	I14	0.578650	0.478230	0.385130
I151	I15	0.800590	0.575150	0.623990
I161	I16	0.806290	0.504170	0.535220
I171	I17	0.832470	0.694120	0.687780
I181	I18	0.685980	0.831040	0.666680
I191	I19	0.169980	0.938130	0.922910
I201	I20	0.421350	0.021770	0.885130
I211	I21	0.199410	0.924850	0.123990
I221	I22	0.193710	0.995830	0.035220
I231	I23	0.167530	0.805880	0.187780
I241	I24	0.314020	0.668960	0.166680
N11	N1	0.095900	0.294200	0.851120
N21	N2	0.087700	0.447900	0.043100
N31	N3	0.515400	0.446600	0.922700
N41	N4	0.989800	0.380900	0.943720
N51	N5	0.843700	0.370200	0.917010
N61	N6	0.846400	0.415800	0.961870
N71	N7	0.085200	0.042400	0.106500
N81	N8	0.099000	0.391400	0.102760
N91	N9	0.902200	0.234300	0.281450
N101	N10	0.050400	0.217100	0.134320
N111	N11	0.013800	0.177500	0.180370
N121	N12	0.014600	0.263400	0.177870
N131	N13	0.904100	0.205800	0.351120
N141	N14	0.912300	0.052100	0.543100
N151	N15	0.484600	0.053400	0.422700
N161	N16	0.010200	0.119100	0.443720
N171	N17	0.156300	0.129800	0.417010
N181	N18	0.153600	0.084200	0.461870
N191	N19	0.914800	0.457600	0.606500
N201	N20	0.901000	0.108600	0.602760
N211	N21	0.097800	0.265700	0.781450
N221	N22	0.949600	0.282900	0.634320
N231	N23	0.986200	0.322500	0.680370
N241	N24	0.985400	0.236600	0.677870
N251	N25	0.595900	0.705800	0.648880
N261	N26	0.587700	0.552100	0.456900
N271	N27	0.015400	0.553400	0.577300
N281	N28	0.489800	0.619100	0.556280
N291	N29	0.343700	0.629800	0.582990
N301	N30	0.346400	0.584200	0.538130
N311	N31	0.585200	0.957600	0.393500
N321	N32	0.599000	0.608600	0.397240
N331	N33	0.402200	0.765700	0.218550
N341	N34	0.550400	0.782900	0.365680
N351	N35	0.513800	0.822500	0.319630
N361	N36	0.514600	0.736600	0.322130
N371	N37	0.404100	0.794200	0.148880
N381	N38	0.412300	0.947900	0.956900
N391	N39	0.984600	0.946600	0.077300
N401	N40	0.510200	0.880900	0.056280
N411	N41	0.656300	0.870200	0.082990
N421	N42	0.653600	0.915800	0.038130
N431	N43	0.414800	0.542400	0.893500
N441	N44	0.401000	0.891400	0.897240
N451	N45	0.597800	0.734300	0.718550
N461	N46	0.449600	0.717100	0.865680
N471	N47	0.486200	0.677500	0.819630
N481	N48	0.485400	0.763400	0.822130
Zn131	Zn13	0.848170	0.545870	0.915880
Zn141	Zn14	0.617020	0.522450	0.085960
Zn151	Zn15	0.824240	0.741460	0.180010
Zn161	Zn16	0.151830	0.954130	0.415880
Zn171	Zn17	0.382980	0.977550	0.585960
Zn181	Zn18	0.175760	0.758540	0.680010
Zn191	Zn19	0.348170	0.454130	0.584120
Zn201	Zn20	0.117020	0.477550	0.414040
Zn211	Zn21	0.324240	0.258540	0.319990
Zn221	Zn22	0.651830	0.045870	0.084120
Zn231	Zn23	0.882980	0.022450	0.914040
Zn241	Zn24	0.675760	0.241460	0.819990
H971	H97	0.961600	0.913300	0.827400
H981	H98	0.938700	0.985100	0.853000
H991	H99	0.902600	0.917300	0.928500
H1001	H100	0.925900	0.843300	0.905700
H1011	H101	0.980500	0.648700	0.833900
H1021	H102	0.944200	0.578100	0.860100
H1031	H103	0.867200	0.652300	0.930400
H1041	H104	0.899300	0.726100	0.907000
H1051	H105	0.051700	0.845800	0.769100
H1061	H106	0.110200	0.838300	0.721800
H1071	H107	0.064700	0.697700	0.722800
H1081	H108	0.012400	0.701100	0.771900
H1091	H109	0.309100	0.604500	0.110400
H1101	H110	0.464700	0.580300	0.116900
H1111	H111	0.476400	0.532000	0.035400
H1121	H112	0.324800	0.559100	0.026100
H1131	H113	0.124800	0.551200	0.986700
H1141	H114	0.042200	0.531400	0.943100
H1151	H115	0.796500	0.571900	0.979800
H1161	H116	0.874600	0.596800	0.023100
H1171	H117	0.873600	0.643100	0.088500
H1181	H118	0.791200	0.681200	0.126500
H1191	H119	0.031200	0.718900	0.165400
H1201	H120	0.124100	0.686800	0.126300
H1211	H121	0.038400	0.586700	0.327400
H1221	H122	0.061300	0.514900	0.353000
H1231	H123	0.097400	0.582700	0.428500
H1241	H124	0.074100	0.656700	0.405700
H1251	H125	0.019500	0.851300	0.333900
H1261	H126	0.055800	0.921900	0.360100
H1271	H127	0.132800	0.847700	0.430400
H1281	H128	0.100700	0.773900	0.407000
H1291	H129	0.948300	0.654200	0.269100
H1301	H130	0.889800	0.661700	0.221800
H1311	H131	0.935300	0.802300	0.222800
H1321	H132	0.987600	0.798900	0.271900
H1331	H133	0.690900	0.895500	0.610400
H1341	H134	0.535300	0.919700	0.616900
H1351	H135	0.523600	0.968000	0.535400
H1361	H136	0.675200	0.940900	0.526100
H1371	H137	0.875200	0.948800	0.486700
H1381	H138	0.957800	0.968600	0.443100
H1391	H139	0.203500	0.928100	0.479800
H1401	H140	0.125400	0.903200	0.523100
H1411	H141	0.126400	0.856900	0.588500
H1421	H142	0.208800	0.818800	0.626500
H1431	H143	0.968800	0.781100	0.665400
H1441	H144	0.875900	0.813200	0.626300
H1451	H145	0.461600	0.086700	0.672600
H1461	H146	0.438700	0.014900	0.647000
H1471	H147	0.402600	0.082700	0.571500
H1481	H148	0.425900	0.156700	0.594300
H1491	H149	0.480500	0.351300	0.666100
H1501	H150	0.444200	0.421900	0.639900
H1511	H151	0.367200	0.347700	0.569600
H1521	H152	0.399300	0.273900	0.593000
H1531	H153	0.551700	0.154200	0.730900
H1541	H154	0.610200	0.161700	0.778200
H1551	H155	0.564700	0.302300	0.777200
H1561	H156	0.512400	0.298900	0.728100
H1571	H157	0.809100	0.395500	0.389600
H1581	H158	0.964700	0.419700	0.383100
H1591	H159	0.976400	0.468000	0.464600
H1601	H160	0.824800	0.440900	0.473900
H1611	H161	0.624800	0.448800	0.513300
H1621	H162	0.542200	0.468600	0.556900
H1631	H163	0.296500	0.428100	0.520200
H1641	H164	0.374600	0.403200	0.476900
H1651	H165	0.373600	0.356900	0.411500
H1661	H166	0.291200	0.318800	0.373500
H1671	H167	0.531200	0.281100	0.334600
H1681	H168	0.624100	0.313200	0.373700
H1691	H169	0.538400	0.413300	0.172600
H1701	H170	0.561300	0.485100	0.147000
H1711	H171	0.597400	0.417300	0.071500
H1721	H172	0.574100	0.343300	0.094300
H1731	H173	0.519500	0.148700	0.166100
H1741	H174	0.555800	0.078100	0.139900
H1751	H175	0.632800	0.152300	0.069600
H1761	H176	0.600700	0.226100	0.093000
H1771	H177	0.448300	0.345800	0.230900
H1781	H178	0.389800	0.338300	0.278200
H1791	H179	0.435300	0.197700	0.277200
H1801	H180	0.487600	0.201100	0.228100
H1811	H181	0.190900	0.104500	0.889600
H1821	H182	0.035300	0.080300	0.883100
H1831	H183	0.023600	0.032000	0.964600
H1841	H184	0.175200	0.059100	0.973900
H1851	H185	0.375200	0.051200	0.013300
H1861	H186	0.457800	0.031400	0.056900
H1871	H187	0.703500	0.071900	0.020200
H1881	H188	0.625400	0.096800	0.976900
H1891	H189	0.626400	0.143100	0.911500
H1901	H190	0.708800	0.181200	0.873500
H1911	H191	0.468800	0.218900	0.834600
H1921	H192	0.375900	0.186800	0.873700
C1451	C145	0.962300	0.822200	0.849450
C1461	C146	0.948700	0.870200	0.864660
C1471	C147	0.950400	0.913300	0.848200
C1481	C148	0.935000	0.955400	0.863700
C1491	C149	0.914100	0.916700	0.907700
C1501	C150	0.929200	0.872300	0.894300
C1511	C151	0.961100	0.740700	0.851460
C1521	C152	0.942000	0.694800	0.867700
C1531	C153	0.956500	0.650400	0.853700
C1541	C154	0.934500	0.608500	0.869600
C1551	C155	0.889700	0.651900	0.910450
C1561	C156	0.908700	0.696200	0.896790
C1571	C157	0.999500	0.778000	0.808330
C1581	C158	0.028100	0.775300	0.776530
C1591	C159	0.056200	0.814500	0.760400
C1601	C160	0.090600	0.810100	0.732200
C1611	C161	0.065500	0.728000	0.732800
C1621	C162	0.032100	0.729800	0.761970
C1631	C163	0.198400	0.601400	0.061900
C1641	C164	0.300200	0.587700	0.067650
C1651	C165	0.343200	0.591000	0.094000
C1661	C166	0.435200	0.575200	0.098000
C1671	C167	0.442000	0.547900	0.050840
C1681	C168	0.352600	0.563900	0.045200
C1691	C169	0.060900	0.594700	0.035800
C1701	C170	0.008900	0.578400	0.008790
C1711	C171	0.057700	0.557300	0.985300
C1721	C172	0.007900	0.545000	0.959400
C1731	C173	0.864600	0.569400	0.980900
C1741	C174	0.910300	0.583700	0.006900
C1751	C175	0.062200	0.635700	0.079700
C1761	C176	0.007700	0.660200	0.103260
C1771	C177	0.908200	0.659400	0.103800
C1781	C178	0.859500	0.682200	0.126500
C1791	C179	0.998900	0.704800	0.148800
C1801	C180	0.055900	0.684300	0.126000
C1811	C181	0.037700	0.677800	0.349450
C1821	C182	0.051300	0.629800	0.364660
C1831	C183	0.049600	0.586700	0.348200
C1841	C184	0.065000	0.544600	0.363700
C1851	C185	0.085900	0.583300	0.407700
C1861	C186	0.070800	0.627700	0.394300
C1871	C187	0.038900	0.759300	0.351460
C1881	C188	0.058000	0.805200	0.367700
C1891	C189	0.043500	0.849600	0.353700
C1901	C190	0.065500	0.891500	0.369600
C1911	C191	0.110300	0.848100	0.410450
C1921	C192	0.091300	0.803800	0.396790
C1931	C193	0.000500	0.722000	0.308330
C1941	C194	0.971900	0.724700	0.276530
C1951	C195	0.943800	0.685500	0.260400
C1961	C196	0.909400	0.689900	0.232200
C1971	C197	0.934500	0.772000	0.232800
C1981	C198	0.967900	0.770200	0.261970
C1991	C199	0.801600	0.898600	0.561900
C2001	C200	0.699800	0.912300	0.567650
C2011	C201	0.656800	0.909000	0.594000
C2021	C202	0.564800	0.924800	0.598000
C2031	C203	0.558000	0.952100	0.550840
C2041	C204	0.647400	0.936100	0.545200
C2051	C205	0.939100	0.905300	0.535800
C2061	C206	0.991100	0.921600	0.508790
C2071	C207	0.942300	0.942700	0.485300
C2081	C208	0.992100	0.955000	0.459400
C2091	C209	0.135400	0.930600	0.480900
C2101	C210	0.089700	0.916300	0.506900
C2111	C211	0.937800	0.864300	0.579700
C2121	C212	0.992300	0.839800	0.603260
C2131	C213	0.091800	0.840600	0.603800
C2141	C214	0.140500	0.817800	0.626500
C2151	C215	0.001100	0.795200	0.648800
C2161	C216	0.944100	0.815700	0.626000
C2171	C217	0.462300	0.177800	0.650550
C2181	C218	0.448700	0.129800	0.635340
C2191	C219	0.450400	0.086700	0.651800
C2201	C220	0.435000	0.044600	0.636300
C2211	C221	0.414100	0.083300	0.592300
C2221	C222	0.429200	0.127700	0.605700
C2231	C223	0.461100	0.259300	0.648540
C2241	C224	0.442000	0.305200	0.632300
C2251	C225	0.456500	0.349600	0.646300
C2261	C226	0.434500	0.391500	0.630400
C2271	C227	0.389700	0.348100	0.589550
C2281	C228	0.408700	0.303800	0.603210
C2291	C229	0.499500	0.222000	0.691670
C2301	C230	0.528100	0.224700	0.723470
C2311	C231	0.556200	0.185500	0.739600
C2321	C232	0.590600	0.189900	0.767800
C2331	C233	0.565500	0.272000	0.767200
C2341	C234	0.532100	0.270200	0.738030
C2351	C235	0.698400	0.398600	0.438100
C2361	C236	0.800200	0.412300	0.432350
C2371	C237	0.843200	0.409000	0.406000
C2381	C238	0.935200	0.424800	0.402000
C2391	C239	0.942000	0.452100	0.449160
C2401	C240	0.852600	0.436100	0.454800
C2411	C241	0.560900	0.405300	0.464200
C2421	C242	0.508900	0.421600	0.491210
C2431	C243	0.557700	0.442700	0.514700
C2441	C244	0.507900	0.455000	0.540600
C2451	C245	0.364600	0.430600	0.519100
C2461	C246	0.410300	0.416300	0.493100
C2471	C247	0.562200	0.364300	0.420300
C2481	C248	0.507700	0.339800	0.396740
C2491	C249	0.408200	0.340600	0.396200
C2501	C250	0.359500	0.317800	0.373500
C2511	C251	0.498900	0.295200	0.351200
C2521	C252	0.555900	0.315700	0.374000
C2531	C253	0.537700	0.322200	0.150550
C2541	C254	0.551300	0.370200	0.135340
C2551	C255	0.549600	0.413300	0.151800
C2561	C256	0.565000	0.455400	0.136300
C2571	C257	0.585900	0.416700	0.092300
C2581	C258	0.570800	0.372300	0.105700
C2591	C259	0.538900	0.240700	0.148540
C2601	C260	0.558000	0.194800	0.132300
C2611	C261	0.543500	0.150400	0.146300
C2621	C262	0.565500	0.108500	0.130400
C2631	C263	0.610300	0.151900	0.089550
C2641	C264	0.591300	0.196200	0.103210
C2651	C265	0.500500	0.278000	0.191670
C2661	C266	0.471900	0.275300	0.223470
C2671	C267	0.443800	0.314500	0.239600
C2681	C268	0.409400	0.310100	0.267800
C2691	C269	0.434500	0.228000	0.267200
C2701	C270	0.467900	0.229800	0.238030
C2711	C271	0.301600	0.101400	0.938100
C2721	C272	0.199800	0.087700	0.932350
C2731	C273	0.156800	0.091000	0.906000
C2741	C274	0.064800	0.075200	0.902000
C2751	C275	0.058000	0.047900	0.949160
C2761	C276	0.147400	0.063900	0.954800
C2771	C277	0.439100	0.094700	0.964200
C2781	C278	0.491100	0.078400	0.991210
C2791	C279	0.442300	0.057300	0.014700
C2801	C280	0.492100	0.045000	0.040600
C2811	C281	0.635400	0.069400	0.019100
C2821	C282	0.589700	0.083700	0.993100
C2831	C283	0.437800	0.135700	0.920300
C2841	C284	0.492300	0.160200	0.896740
C2851	C285	0.591800	0.159400	0.896200
C2861	C286	0.640500	0.182200	0.873500
C2871	C287	0.501100	0.204800	0.851200
C2881	C288	0.444100	0.184300	0.874000
I251	I25	0.669980	0.561870	0.922910
I261	I26	0.921350	0.478230	0.885130
I271	I27	0.699410	0.575150	0.123990
I281	I28	0.693710	0.504170	0.035220
I291	I29	0.667530	0.694120	0.187780
I301	I30	0.814020	0.831040	0.166680
I311	I31	0.330020	0.938130	0.422910
I321	I32	0.078650	0.021770	0.385130
I331	I33	0.300590	0.924850	0.623990
I341	I34	0.306290	0.995830	0.535220
I351	I35	0.332470	0.805880	0.687780
I361	I36	0.185980	0.668960	0.666680
I371	I37	0.169980	0.438130	0.577090
I381	I38	0.421350	0.521770	0.614870
I391	I39	0.199410	0.424850	0.376010
I401	I40	0.193710	0.495830	0.464780
I411	I41	0.167530	0.305880	0.312220
I421	I42	0.314020	0.168960	0.333320
I431	I43	0.830020	0.061870	0.077090
I441	I44	0.578650	0.978230	0.114870
I451	I45	0.800590	0.075150	0.876010
I461	I46	0.806290	0.004170	0.964780
I471	I47	0.832470	0.194120	0.812220
I481	I48	0.685980	0.331040	0.833320
N491	N49	0.904100	0.705800	0.148880
N501	N50	0.912300	0.552100	0.956900
N511	N51	0.484600	0.553400	0.077300
N521	N52	0.010200	0.619100	0.056280
N531	N53	0.156300	0.629800	0.082990
N541	N54	0.153600	0.584200	0.038130
N551	N55	0.914800	0.957600	0.893500
N561	N56	0.901000	0.608600	0.897240
N571	N57	0.097800	0.765700	0.718550
N581	N58	0.949600	0.782900	0.865680
N591	N59	0.986200	0.822500	0.819630
N601	N60	0.985400	0.736600	0.822130
N611	N61	0.095900	0.794200	0.648880
N621	N62	0.087700	0.947900	0.456900
N631	N63	0.515400	0.946600	0.577300
N641	N64	0.989800	0.880900	0.556280
N651	N65	0.843700	0.870200	0.582990
N661	N66	0.846400	0.915800	0.538130
N671	N67	0.085200	0.542400	0.393500
N681	N68	0.099000	0.891400	0.397240
N691	N69	0.902200	0.734300	0.218550
N701	N70	0.050400	0.717100	0.365680
N711	N71	0.013800	0.677500	0.319630
N721	N72	0.014600	0.763400	0.322130
N731	N73	0.404100	0.294200	0.351120
N741	N74	0.412300	0.447900	0.543100
N751	N75	0.984600	0.446600	0.422700
N761	N76	0.510200	0.380900	0.443720
N771	N77	0.656300	0.370200	0.417010
N781	N78	0.653600	0.415800	0.461870
N791	N79	0.414800	0.042400	0.606500
N801	N80	0.401000	0.391400	0.602760
N811	N81	0.597800	0.234300	0.781450
N821	N82	0.449600	0.217100	0.634320
N831	N83	0.486200	0.177500	0.680370
N841	N84	0.485400	0.263400	0.677870
N851	N85	0.595900	0.205800	0.851120
N861	N86	0.587700	0.052100	0.043100
N871	N87	0.015400	0.053400	0.922700
N881	N88	0.489800	0.119100	0.943720
N891	N89	0.343700	0.129800	0.917010
N901	N90	0.346400	0.084200	0.961870
N911	N91	0.585200	0.457600	0.106500
N921	N92	0.599000	0.108600	0.102760
N931	N93	0.402200	0.265700	0.281450
N941	N94	0.550400	0.282900	0.134320
N951	N95	0.513800	0.322500	0.180370
N961	N96	0.514600	0.236600	0.177870
