data_UBULIO_SL_PM
_symmetry_space_group_name_H-M	'P1'
_cell_length_a	41.459000
_cell_length_b	41.459000
_cell_length_c	17.561000
_cell_angle_alpha	90.000000
_cell_angle_beta	90.000000
_cell_angle_gamma	120.000000
_symmetry_Int_Tables_number 1

loop_
_symmetry_equiv_pos_as_xyz
'x,y,z'

loop_
_atom_site_label
_atom_site_type_symbol
_atom_site_fract_x
_atom_site_fract_y
_atom_site_fract_z
Zn11	Zn1	0.028820	0.628330	0.597640
Zn21	Zn2	0.068870	0.591440	0.505920
Zn31	Zn3	0.028970	0.627930	0.418150
Zn41	Zn4	0.104210	0.678880	0.509040
H51	H5	0.982800	0.543300	0.757500
H61	H6	0.960900	0.495800	0.847000
H71	H7	0.173500	0.596800	0.459500
H81	H8	0.232600	0.603800	0.465000
H91	H9	0.271900	0.704700	0.560500
H101	H10	0.212800	0.697700	0.555100
H111	H11	0.282300	0.607500	0.506700
H121	H12	0.156700	0.749500	0.694300
H131	H13	0.182000	0.785000	0.803200
H141	H14	0.082300	0.729700	0.906500
H151	H15	0.057000	0.694200	0.797600
H161	H16	0.190500	0.827200	0.896400
H171	H17	0.206400	0.820700	0.120300
H181	H18	0.118500	0.736600	0.015000
H191	H19	0.062700	0.698000	0.228900
H201	H20	0.088600	0.728200	0.114900
H211	H21	0.190400	0.777600	0.210100
H221	H22	0.164500	0.747400	0.324200
H231	H23	0.313200	0.918800	0.111500
H241	H24	0.258300	0.861800	0.113200
H251	H25	0.231200	0.883900	0.907700
H261	H26	0.286100	0.940900	0.906000
H271	H27	0.065900	0.454500	0.675500
H281	H28	0.047900	0.395700	0.643500
H291	H29	0.033300	0.380900	0.726200
H301	H30	0.049200	0.427400	0.829800
H311	H31	0.097200	0.488400	0.866100
H321	H32	0.062800	0.488900	0.830400
H331	H33	0.098900	0.501500	0.781700
H341	H34	0.112800	0.442600	0.839000
H351	H35	0.117200	0.450400	0.751100
H361	H36	0.090500	0.410000	0.781300
C371	C37	0.971700	0.439830	0.865010
C381	C38	0.987200	0.469780	0.804150
C391	C39	0.010810	0.471250	0.746400
C401	C40	0.023930	0.499700	0.692740
C411	C41	0.013440	0.526680	0.696910
C421	C42	0.989830	0.525210	0.754700
C431	C43	0.976710	0.496760	0.808320
C441	C44	0.025780	0.559100	0.641400
C451	C45	0.147880	0.640810	0.518400
C461	C46	0.187300	0.646560	0.506800
C471	C47	0.193230	0.618430	0.479790
C481	C48	0.228620	0.622600	0.483000
C491	C49	0.258080	0.654910	0.513300
C501	C50	0.252150	0.683040	0.540300
C511	C51	0.216760	0.678870	0.537000
C521	C52	0.297600	0.662250	0.504800
C531	C53	0.302980	0.631330	0.505600
C541	C54	0.092070	0.696690	0.657550
C551	C55	0.104330	0.718310	0.735140
C561	C56	0.141770	0.745530	0.736830
C571	C57	0.156930	0.766810	0.802090
C581	C58	0.134660	0.760860	0.865660
C591	C59	0.097220	0.733650	0.863960
C601	C60	0.082050	0.712370	0.798710
C611	C61	0.151070	0.779310	0.944820
C621	C62	0.182990	0.814210	0.942150
C631	C63	0.203710	0.829710	0.007890
C641	C64	0.192520	0.810310	0.076300
C651	C65	0.160600	0.775420	0.078970
C661	C66	0.139870	0.759920	0.013230
C671	C67	0.090840	0.695910	0.353700
C681	C68	0.111050	0.719730	0.287840
C691	C69	0.088320	0.713970	0.225150
C701	C70	0.103820	0.732040	0.156830
C711	C71	0.142050	0.755860	0.151200
C721	C72	0.164780	0.761620	0.213890
C731	C73	0.149280	0.743560	0.282220
C741	C74	0.343140	0.972240	0.010800
C751	C75	0.305060	0.935500	0.008570
C761	C76	0.296740	0.911810	0.070630
C771	C77	0.263880	0.877670	0.071640
C781	C78	0.239320	0.867200	0.010590
C791	C79	0.247630	0.890880	0.948530
C801	C80	0.280500	0.925030	0.947520
C811	C81	0.048500	0.437000	0.713000
C821	C82	0.032900	0.396400	0.685100
C831	C83	0.987200	0.410400	0.678800
C841	C84	0.067700	0.444200	0.792800
C851	C85	0.083100	0.484500	0.820300
C861	C86	0.100100	0.436000	0.790900
N871	N87	0.015300	0.440800	0.717500
O881	O88	0.057760	0.631620	0.509520
O891	O89	0.952830	0.440810	0.919930
O901	O90	0.975350	0.412060	0.855590
O911	O91	0.014260	0.581700	0.650800
O921	O92	0.048980	0.559040	0.595490
O931	O93	0.145990	0.669590	0.495300
O941	O94	0.122460	0.609050	0.497800
O951	O95	0.110460	0.707230	0.596610
O961	O96	0.061040	0.668390	0.667500
O971	O97	0.056830	0.671560	0.355800
O981	O98	0.114140	0.703940	0.406450
O991	O99	0.352910	0.987810	0.947120
O1001	O100	0.355750	0.982920	0.076700
O1011	O101	0.995500	0.383000	0.660200
O1021	O102	0.956400	0.406400	0.667900
H1031	H103	0.500890	0.457610	0.145340
Zn1041	Zn104	0.371670	0.400490	0.597640
Zn1051	Zn105	0.408560	0.477430	0.505920
Zn1061	Zn106	0.372070	0.401040	0.418150
Zn1071	Zn107	0.321120	0.425330	0.509040
H1081	H108	0.456700	0.439500	0.757500
H1091	H109	0.504200	0.465100	0.847000
H1101	H110	0.403200	0.576700	0.459500
H1111	H111	0.396200	0.628800	0.465000
H1121	H112	0.295300	0.567200	0.560500
H1131	H113	0.302300	0.515100	0.555100
H1141	H114	0.392500	0.674800	0.506700
H1151	H115	0.250500	0.407200	0.694300
H1161	H116	0.215000	0.397000	0.803200
H1171	H117	0.270300	0.352600	0.906500
H1181	H118	0.305800	0.362800	0.797600
H1191	H119	0.172800	0.363300	0.896400
H1201	H120	0.179300	0.385700	0.120300
H1211	H121	0.263400	0.381900	0.015000
H1221	H122	0.302000	0.364700	0.228900
H1231	H123	0.271800	0.360400	0.114900
H1241	H124	0.222400	0.412800	0.210100
H1251	H125	0.252600	0.417100	0.324200
H1261	H126	0.081200	0.394400	0.111500
H1271	H127	0.138200	0.396500	0.113200
H1281	H128	0.116100	0.347300	0.907700
H1291	H129	0.059100	0.345200	0.906000
H1301	H130	0.545500	0.611400	0.675500
H1311	H131	0.604300	0.652200	0.643500
H1321	H132	0.619100	0.652400	0.726200
H1331	H133	0.572600	0.621800	0.829800
H1341	H134	0.511600	0.608800	0.866100
H1351	H135	0.511100	0.573900	0.830400
H1361	H136	0.498500	0.597400	0.781700
H1371	H137	0.557400	0.670200	0.839000
H1381	H138	0.549600	0.666800	0.751100
H1391	H139	0.590000	0.680500	0.781300
C1401	C140	0.560170	0.531870	0.865010
C1411	C141	0.530220	0.517420	0.804150
C1421	C142	0.528750	0.539560	0.746400
C1431	C143	0.500300	0.524230	0.692740
C1441	C144	0.473320	0.486760	0.696910
C1451	C145	0.474790	0.464620	0.754700
C1461	C146	0.503240	0.479950	0.808320
C1471	C147	0.440900	0.466680	0.641400
C1481	C148	0.359190	0.507070	0.518400
C1491	C149	0.353440	0.540740	0.506800
C1501	C150	0.381570	0.574800	0.479790
C1511	C151	0.377400	0.606020	0.483000
C1521	C152	0.345090	0.603170	0.513300
C1531	C153	0.316960	0.569110	0.540300
C1541	C154	0.321130	0.537890	0.537000
C1551	C155	0.337750	0.635350	0.504800
C1561	C156	0.368670	0.671650	0.505600
C1571	C157	0.303310	0.395380	0.657550
C1581	C158	0.281690	0.386020	0.735140
C1591	C159	0.254470	0.396240	0.736830
C1601	C160	0.233190	0.390120	0.802090
C1611	C161	0.239140	0.373800	0.865660
C1621	C162	0.266350	0.363570	0.863960
C1631	C163	0.287630	0.369680	0.798710
C1641	C164	0.220690	0.371760	0.944820
C1651	C165	0.185790	0.368780	0.942150
C1661	C166	0.170290	0.374000	0.007890
C1671	C167	0.189690	0.382210	0.076300
C1681	C168	0.224580	0.385180	0.078970
C1691	C169	0.240080	0.379950	0.013230
C1701	C170	0.304090	0.394930	0.353700
C1711	C171	0.280270	0.391320	0.287840
C1721	C172	0.286030	0.374350	0.225150
C1731	C173	0.267960	0.371780	0.156830
C1741	C174	0.244140	0.386190	0.151200
C1751	C175	0.238380	0.403160	0.213890
C1761	C176	0.256440	0.405720	0.282220
C1771	C177	0.027760	0.370900	0.010800
C1781	C178	0.064500	0.369560	0.008570
C1791	C179	0.088190	0.384930	0.070630
C1801	C180	0.122330	0.386210	0.071640
C1811	C181	0.132800	0.372120	0.010590
C1821	C182	0.109120	0.356750	0.948530
C1831	C183	0.074970	0.355470	0.947520
C1841	C184	0.563000	0.611500	0.713000
C1851	C185	0.603600	0.636500	0.685100
C1861	C186	0.589600	0.576800	0.678800
C1871	C187	0.555800	0.623500	0.792800
C1881	C188	0.515500	0.598600	0.820300
C1891	C189	0.564000	0.664100	0.790900
N1901	N190	0.559200	0.574500	0.717500
O1911	O191	0.368380	0.426140	0.509520
O1921	O192	0.559190	0.512020	0.919930
O1931	O193	0.587940	0.563290	0.855590
O1941	O194	0.418300	0.432560	0.650800
O1951	O195	0.440960	0.489940	0.595490
O1961	O196	0.330410	0.476400	0.495300
O1971	O197	0.390950	0.513410	0.497800
O1981	O198	0.292770	0.403230	0.596610
O1991	O199	0.331610	0.392650	0.667500
O2001	O200	0.328440	0.385270	0.355800
O2011	O201	0.296060	0.410200	0.406450
O2021	O202	0.012190	0.365100	0.947120
O2031	O203	0.017080	0.372830	0.076700
O2041	O204	0.617000	0.612500	0.660200
O2051	O205	0.593600	0.550000	0.667900
H2061	H206	0.542390	0.043290	0.145340
Zn2071	Zn207	0.599510	0.971180	0.597640
Zn2081	Zn208	0.522570	0.931130	0.505920
Zn2091	Zn209	0.598960	0.971030	0.418150
Zn2101	Zn210	0.574670	0.895790	0.509040
H2111	H211	0.560500	0.017200	0.757500
H2121	H212	0.534900	0.039100	0.847000
H2131	H213	0.423300	0.826500	0.459500
H2141	H214	0.371200	0.767400	0.465000
H2151	H215	0.432800	0.728100	0.560500
H2161	H216	0.484900	0.787200	0.555100
H2171	H217	0.325200	0.717700	0.506700
H2181	H218	0.592800	0.843300	0.694300
H2191	H219	0.603000	0.818000	0.803200
H2201	H220	0.647400	0.917700	0.906500
H2211	H221	0.637200	0.943000	0.797600
H2221	H222	0.636700	0.809500	0.896400
H2231	H223	0.614300	0.793600	0.120300
H2241	H224	0.618100	0.881500	0.015000
H2251	H225	0.635300	0.937300	0.228900
H2261	H226	0.639600	0.911400	0.114900
H2271	H227	0.587200	0.809600	0.210100
H2281	H228	0.582900	0.835500	0.324200
H2291	H229	0.605600	0.686800	0.111500
H2301	H230	0.603500	0.741700	0.113200
H2311	H231	0.652700	0.768800	0.907700
H2321	H232	0.654800	0.713900	0.906000
H2331	H233	0.388600	0.934100	0.675500
H2341	H234	0.347800	0.952100	0.643500
H2351	H235	0.347600	0.966700	0.726200
H2361	H236	0.378200	0.950800	0.829800
H2371	H237	0.391200	0.902800	0.866100
H2381	H238	0.426100	0.937200	0.830400
H2391	H239	0.402600	0.901100	0.781700
H2401	H240	0.329800	0.887200	0.839000
H2411	H241	0.333200	0.882800	0.751100
H2421	H242	0.319500	0.909500	0.781300
C2431	C243	0.468130	0.028300	0.865010
C2441	C244	0.482580	0.012800	0.804150
C2451	C245	0.460440	0.989190	0.746400
C2461	C246	0.475770	0.976070	0.692740
C2471	C247	0.513240	0.986560	0.696910
C2481	C248	0.535380	0.010170	0.754700
C2491	C249	0.520050	0.023290	0.808320
C2501	C250	0.533320	0.974220	0.641400
C2511	C251	0.492930	0.852120	0.518400
C2521	C252	0.459260	0.812700	0.506800
C2531	C253	0.425200	0.806770	0.479790
C2541	C254	0.393980	0.771380	0.483000
C2551	C255	0.396830	0.741920	0.513300
C2561	C256	0.430890	0.747850	0.540300
C2571	C257	0.462110	0.783240	0.537000
C2581	C258	0.364650	0.702400	0.504800
C2591	C259	0.328350	0.697020	0.505600
C2601	C260	0.604620	0.907930	0.657550
C2611	C261	0.613980	0.895670	0.735140
C2621	C262	0.603760	0.858230	0.736830
C2631	C263	0.609880	0.843070	0.802090
C2641	C264	0.626200	0.865340	0.865660
C2651	C265	0.636430	0.902780	0.863960
C2661	C266	0.630320	0.917950	0.798710
C2671	C267	0.628240	0.848930	0.944820
C2681	C268	0.631220	0.817010	0.942150
C2691	C269	0.626000	0.796290	0.007890
C2701	C270	0.617790	0.807480	0.076300
C2711	C271	0.614820	0.839400	0.078970
C2721	C272	0.620050	0.860130	0.013230
C2731	C273	0.605070	0.909160	0.353700
C2741	C274	0.608680	0.888950	0.287840
C2751	C275	0.625650	0.911680	0.225150
C2761	C276	0.628220	0.896180	0.156830
C2771	C277	0.613810	0.857950	0.151200
C2781	C278	0.596840	0.835220	0.213890
C2791	C279	0.594280	0.850720	0.282220
C2801	C280	0.629100	0.656860	0.010800
C2811	C281	0.630440	0.694940	0.008570
C2821	C282	0.615070	0.703260	0.070630
C2831	C283	0.613790	0.736120	0.071640
C2841	C284	0.627880	0.760680	0.010590
C2851	C285	0.643250	0.752370	0.948530
C2861	C286	0.644530	0.719500	0.947520
C2871	C287	0.388500	0.951500	0.713000
C2881	C288	0.363500	0.967100	0.685100
C2891	C289	0.423200	0.012800	0.678800
C2901	C290	0.376500	0.932300	0.792800
C2911	C291	0.401400	0.916900	0.820300
C2921	C292	0.335900	0.899900	0.790900
N2931	N293	0.425500	0.984700	0.717500
O2941	O294	0.573860	0.942240	0.509520
O2951	O295	0.487980	0.047170	0.919930
O2961	O296	0.436710	0.024650	0.855590
O2971	O297	0.567440	0.985740	0.650800
O2981	O298	0.510060	0.951020	0.595490
O2991	O299	0.523600	0.854010	0.495300
O3001	O300	0.486590	0.877540	0.497800
O3011	O301	0.596770	0.889540	0.596610
O3021	O302	0.607350	0.938960	0.667500
O3031	O303	0.614730	0.943170	0.355800
O3041	O304	0.589800	0.885860	0.406450
O3051	O305	0.634900	0.647090	0.947120
O3061	O306	0.627170	0.644250	0.076700
O3071	O307	0.387500	0.004500	0.660200
O3081	O308	0.450000	0.043600	0.667900
H3091	H309	0.956710	0.499110	0.145340
Zn3101	Zn310	0.971180	0.371670	0.097640
Zn3111	Zn311	0.931130	0.408560	0.005920
Zn3121	Zn312	0.971030	0.372070	0.918150
Zn3131	Zn313	0.895790	0.321120	0.009040
H3141	H314	0.017200	0.456700	0.257500
H3151	H315	0.039100	0.504200	0.347000
H3161	H316	0.826500	0.403200	0.959500
H3171	H317	0.767400	0.396200	0.965000
H3181	H318	0.728100	0.295300	0.060500
H3191	H319	0.787200	0.302300	0.055100
H3201	H320	0.717700	0.392500	0.006700
H3211	H321	0.843300	0.250500	0.194300
H3221	H322	0.818000	0.215000	0.303200
H3231	H323	0.917700	0.270300	0.406500
H3241	H324	0.943000	0.305800	0.297600
H3251	H325	0.809500	0.172800	0.396400
H3261	H326	0.793600	0.179300	0.620300
H3271	H327	0.881500	0.263400	0.515000
H3281	H328	0.937300	0.302000	0.728900
H3291	H329	0.911400	0.271800	0.614900
H3301	H330	0.809600	0.222400	0.710100
H3311	H331	0.835500	0.252600	0.824200
H3321	H332	0.686800	0.081200	0.611500
H3331	H333	0.741700	0.138200	0.613200
H3341	H334	0.768800	0.116100	0.407700
H3351	H335	0.713900	0.059100	0.406000
H3361	H336	0.934100	0.545500	0.175500
H3371	H337	0.952100	0.604300	0.143500
H3381	H338	0.966700	0.619100	0.226200
H3391	H339	0.950800	0.572600	0.329800
H3401	H340	0.902800	0.511600	0.366100
H3411	H341	0.937200	0.511100	0.330400
H3421	H342	0.901100	0.498500	0.281700
H3431	H343	0.887200	0.557400	0.339000
H3441	H344	0.882800	0.549600	0.251100
H3451	H345	0.909500	0.590000	0.281300
C3461	C346	0.028300	0.560170	0.365010
C3471	C347	0.012800	0.530220	0.304150
C3481	C348	0.989190	0.528750	0.246400
C3491	C349	0.976070	0.500300	0.192740
C3501	C350	0.986560	0.473320	0.196910
C3511	C351	0.010170	0.474790	0.254700
C3521	C352	0.023290	0.503240	0.308320
C3531	C353	0.974220	0.440900	0.141400
C3541	C354	0.852120	0.359190	0.018400
C3551	C355	0.812700	0.353440	0.006800
C3561	C356	0.806770	0.381570	0.979790
C3571	C357	0.771380	0.377400	0.983000
C3581	C358	0.741920	0.345090	0.013300
C3591	C359	0.747850	0.316960	0.040300
C3601	C360	0.783240	0.321130	0.037000
C3611	C361	0.702400	0.337750	0.004800
C3621	C362	0.697020	0.368670	0.005600
C3631	C363	0.907930	0.303310	0.157550
C3641	C364	0.895670	0.281690	0.235140
C3651	C365	0.858230	0.254470	0.236830
C3661	C366	0.843070	0.233190	0.302090
C3671	C367	0.865340	0.239140	0.365660
C3681	C368	0.902780	0.266350	0.363960
C3691	C369	0.917950	0.287630	0.298710
C3701	C370	0.848930	0.220690	0.444820
C3711	C371	0.817010	0.185790	0.442150
C3721	C372	0.796290	0.170290	0.507890
C3731	C373	0.807480	0.189690	0.576300
C3741	C374	0.839400	0.224580	0.578970
C3751	C375	0.860130	0.240080	0.513230
C3761	C376	0.909160	0.304090	0.853700
C3771	C377	0.888950	0.280270	0.787840
C3781	C378	0.911680	0.286030	0.725150
C3791	C379	0.896180	0.267960	0.656830
C3801	C380	0.857950	0.244140	0.651200
C3811	C381	0.835220	0.238380	0.713890
C3821	C382	0.850720	0.256440	0.782220
C3831	C383	0.656860	0.027760	0.510800
C3841	C384	0.694940	0.064500	0.508570
C3851	C385	0.703260	0.088190	0.570630
C3861	C386	0.736120	0.122330	0.571640
C3871	C387	0.760680	0.132800	0.510590
C3881	C388	0.752370	0.109120	0.448530
C3891	C389	0.719500	0.074970	0.447520
C3901	C390	0.951500	0.563000	0.213000
C3911	C391	0.967100	0.603600	0.185100
C3921	C392	0.012800	0.589600	0.178800
C3931	C393	0.932300	0.555800	0.292800
C3941	C394	0.916900	0.515500	0.320300
C3951	C395	0.899900	0.564000	0.290900
N3961	N396	0.984700	0.559200	0.217500
O3971	O397	0.942240	0.368380	0.009520
O3981	O398	0.047170	0.559190	0.419930
O3991	O399	0.024650	0.587940	0.355590
O4001	O400	0.985740	0.418300	0.150800
O4011	O401	0.951020	0.440960	0.095490
O4021	O402	0.854010	0.330410	0.995300
O4031	O403	0.877540	0.390950	0.997800
O4041	O404	0.889540	0.292770	0.096610
O4051	O405	0.938960	0.331610	0.167500
O4061	O406	0.943170	0.328440	0.855800
O4071	O407	0.885860	0.296060	0.906450
O4081	O408	0.647090	0.012190	0.447120
O4091	O409	0.644250	0.017080	0.576700
O4101	O410	0.004500	0.617000	0.160200
O4111	O411	0.043600	0.593600	0.167900
H4121	H412	0.499110	0.542390	0.645340
Zn4131	Zn413	0.628330	0.599510	0.097640
Zn4141	Zn414	0.591440	0.522570	0.005920
Zn4151	Zn415	0.627930	0.598960	0.918150
Zn4161	Zn416	0.678880	0.574670	0.009040
H4171	H417	0.543300	0.560500	0.257500
H4181	H418	0.495800	0.534900	0.347000
H4191	H419	0.596800	0.423300	0.959500
H4201	H420	0.603800	0.371200	0.965000
H4211	H421	0.704700	0.432800	0.060500
H4221	H422	0.697700	0.484900	0.055100
H4231	H423	0.607500	0.325200	0.006700
H4241	H424	0.749500	0.592800	0.194300
H4251	H425	0.785000	0.603000	0.303200
H4261	H426	0.729700	0.647400	0.406500
H4271	H427	0.694200	0.637200	0.297600
H4281	H428	0.827200	0.636700	0.396400
H4291	H429	0.820700	0.614300	0.620300
H4301	H430	0.736600	0.618100	0.515000
H4311	H431	0.698000	0.635300	0.728900
H4321	H432	0.728200	0.639600	0.614900
H4331	H433	0.777600	0.587200	0.710100
H4341	H434	0.747400	0.582900	0.824200
H4351	H435	0.918800	0.605600	0.611500
H4361	H436	0.861800	0.603500	0.613200
H4371	H437	0.883900	0.652700	0.407700
H4381	H438	0.940900	0.654800	0.406000
H4391	H439	0.454500	0.388600	0.175500
H4401	H440	0.395700	0.347800	0.143500
H4411	H441	0.380900	0.347600	0.226200
H4421	H442	0.427400	0.378200	0.329800
H4431	H443	0.488400	0.391200	0.366100
H4441	H444	0.488900	0.426100	0.330400
H4451	H445	0.501500	0.402600	0.281700
H4461	H446	0.442600	0.329800	0.339000
H4471	H447	0.450400	0.333200	0.251100
H4481	H448	0.410000	0.319500	0.281300
C4491	C449	0.439830	0.468130	0.365010
C4501	C450	0.469780	0.482580	0.304150
C4511	C451	0.471250	0.460440	0.246400
C4521	C452	0.499700	0.475770	0.192740
C4531	C453	0.526680	0.513240	0.196910
C4541	C454	0.525210	0.535380	0.254700
C4551	C455	0.496760	0.520050	0.308320
C4561	C456	0.559100	0.533320	0.141400
C4571	C457	0.640810	0.492930	0.018400
C4581	C458	0.646560	0.459260	0.006800
C4591	C459	0.618430	0.425200	0.979790
C4601	C460	0.622600	0.393980	0.983000
C4611	C461	0.654910	0.396830	0.013300
C4621	C462	0.683040	0.430890	0.040300
C4631	C463	0.678870	0.462110	0.037000
C4641	C464	0.662250	0.364650	0.004800
C4651	C465	0.631330	0.328350	0.005600
C4661	C466	0.696690	0.604620	0.157550
C4671	C467	0.718310	0.613980	0.235140
C4681	C468	0.745530	0.603760	0.236830
C4691	C469	0.766810	0.609880	0.302090
C4701	C470	0.760860	0.626200	0.365660
C4711	C471	0.733650	0.636430	0.363960
C4721	C472	0.712370	0.630320	0.298710
C4731	C473	0.779310	0.628240	0.444820
C4741	C474	0.814210	0.631220	0.442150
C4751	C475	0.829710	0.626000	0.507890
C4761	C476	0.810310	0.617790	0.576300
C4771	C477	0.775420	0.614820	0.578970
C4781	C478	0.759920	0.620050	0.513230
C4791	C479	0.695910	0.605070	0.853700
C4801	C480	0.719730	0.608680	0.787840
C4811	C481	0.713970	0.625650	0.725150
C4821	C482	0.732040	0.628220	0.656830
C4831	C483	0.755860	0.613810	0.651200
C4841	C484	0.761620	0.596840	0.713890
C4851	C485	0.743560	0.594280	0.782220
C4861	C486	0.972240	0.629100	0.510800
C4871	C487	0.935500	0.630440	0.508570
C4881	C488	0.911810	0.615070	0.570630
C4891	C489	0.877670	0.613790	0.571640
C4901	C490	0.867200	0.627880	0.510590
C4911	C491	0.890880	0.643250	0.448530
C4921	C492	0.925030	0.644530	0.447520
C4931	C493	0.437000	0.388500	0.213000
C4941	C494	0.396400	0.363500	0.185100
C4951	C495	0.410400	0.423200	0.178800
C4961	C496	0.444200	0.376500	0.292800
C4971	C497	0.484500	0.401400	0.320300
C4981	C498	0.436000	0.335900	0.290900
N4991	N499	0.440800	0.425500	0.217500
O5001	O500	0.631620	0.573860	0.009520
O5011	O501	0.440810	0.487980	0.419930
O5021	O502	0.412060	0.436710	0.355590
O5031	O503	0.581700	0.567440	0.150800
O5041	O504	0.559040	0.510060	0.095490
O5051	O505	0.669590	0.523600	0.995300
O5061	O506	0.609050	0.486590	0.997800
O5071	O507	0.707230	0.596770	0.096610
O5081	O508	0.668390	0.607350	0.167500
O5091	O509	0.671560	0.614730	0.855800
O5101	O510	0.703940	0.589800	0.906450
O5111	O511	0.987810	0.634900	0.447120
O5121	O512	0.982920	0.627170	0.576700
O5131	O513	0.383000	0.387500	0.160200
O5141	O514	0.406400	0.450000	0.167900
H5151	H515	0.457610	0.956710	0.645340
Zn5161	Zn516	0.400490	0.028820	0.097640
Zn5171	Zn517	0.477430	0.068870	0.005920
Zn5181	Zn518	0.401040	0.028970	0.918150
Zn5191	Zn519	0.425330	0.104210	0.009040
H5201	H520	0.439500	0.982800	0.257500
H5211	H521	0.465100	0.960900	0.347000
H5221	H522	0.576700	0.173500	0.959500
H5231	H523	0.628800	0.232600	0.965000
H5241	H524	0.567200	0.271900	0.060500
H5251	H525	0.515100	0.212800	0.055100
H5261	H526	0.674800	0.282300	0.006700
H5271	H527	0.407200	0.156700	0.194300
H5281	H528	0.397000	0.182000	0.303200
H5291	H529	0.352600	0.082300	0.406500
H5301	H530	0.362800	0.057000	0.297600
H5311	H531	0.363300	0.190500	0.396400
H5321	H532	0.385700	0.206400	0.620300
H5331	H533	0.381900	0.118500	0.515000
H5341	H534	0.364700	0.062700	0.728900
H5351	H535	0.360400	0.088600	0.614900
H5361	H536	0.412800	0.190400	0.710100
H5371	H537	0.417100	0.164500	0.824200
H5381	H538	0.394400	0.313200	0.611500
H5391	H539	0.396500	0.258300	0.613200
H5401	H540	0.347300	0.231200	0.407700
H5411	H541	0.345200	0.286100	0.406000
H5421	H542	0.611400	0.065900	0.175500
H5431	H543	0.652200	0.047900	0.143500
H5441	H544	0.652400	0.033300	0.226200
H5451	H545	0.621800	0.049200	0.329800
H5461	H546	0.608800	0.097200	0.366100
H5471	H547	0.573900	0.062800	0.330400
H5481	H548	0.597400	0.098900	0.281700
H5491	H549	0.670200	0.112800	0.339000
H5501	H550	0.666800	0.117200	0.251100
H5511	H551	0.680500	0.090500	0.281300
C5521	C552	0.531870	0.971700	0.365010
C5531	C553	0.517420	0.987200	0.304150
C5541	C554	0.539560	0.010810	0.246400
C5551	C555	0.524230	0.023930	0.192740
C5561	C556	0.486760	0.013440	0.196910
C5571	C557	0.464620	0.989830	0.254700
C5581	C558	0.479950	0.976710	0.308320
C5591	C559	0.466680	0.025780	0.141400
C5601	C560	0.507070	0.147880	0.018400
C5611	C561	0.540740	0.187300	0.006800
C5621	C562	0.574800	0.193230	0.979790
C5631	C563	0.606020	0.228620	0.983000
C5641	C564	0.603170	0.258080	0.013300
C5651	C565	0.569110	0.252150	0.040300
C5661	C566	0.537890	0.216760	0.037000
C5671	C567	0.635350	0.297600	0.004800
C5681	C568	0.671650	0.302980	0.005600
C5691	C569	0.395380	0.092070	0.157550
C5701	C570	0.386020	0.104330	0.235140
C5711	C571	0.396240	0.141770	0.236830
C5721	C572	0.390120	0.156930	0.302090
C5731	C573	0.373800	0.134660	0.365660
C5741	C574	0.363570	0.097220	0.363960
C5751	C575	0.369680	0.082050	0.298710
C5761	C576	0.371760	0.151070	0.444820
C5771	C577	0.368780	0.182990	0.442150
C5781	C578	0.374000	0.203710	0.507890
C5791	C579	0.382210	0.192520	0.576300
C5801	C580	0.385180	0.160600	0.578970
C5811	C581	0.379950	0.139870	0.513230
C5821	C582	0.394930	0.090840	0.853700
C5831	C583	0.391320	0.111050	0.787840
C5841	C584	0.374350	0.088320	0.725150
C5851	C585	0.371780	0.103820	0.656830
C5861	C586	0.386190	0.142050	0.651200
C5871	C587	0.403160	0.164780	0.713890
C5881	C588	0.405720	0.149280	0.782220
C5891	C589	0.370900	0.343140	0.510800
C5901	C590	0.369560	0.305060	0.508570
C5911	C591	0.384930	0.296740	0.570630
C5921	C592	0.386210	0.263880	0.571640
C5931	C593	0.372120	0.239320	0.510590
C5941	C594	0.356750	0.247630	0.448530
C5951	C595	0.355470	0.280500	0.447520
C5961	C596	0.611500	0.048500	0.213000
C5971	C597	0.636500	0.032900	0.185100
C5981	C598	0.576800	0.987200	0.178800
C5991	C599	0.623500	0.067700	0.292800
C6001	C600	0.598600	0.083100	0.320300
C6011	C601	0.664100	0.100100	0.290900
N6021	N602	0.574500	0.015300	0.217500
O6031	O603	0.426140	0.057760	0.009520
O6041	O604	0.512020	0.952830	0.419930
O6051	O605	0.563290	0.975350	0.355590
O6061	O606	0.432560	0.014260	0.150800
O6071	O607	0.489940	0.048980	0.095490
O6081	O608	0.476400	0.145990	0.995300
O6091	O609	0.513410	0.122460	0.997800
O6101	O610	0.403230	0.110460	0.096610
O6111	O611	0.392650	0.061040	0.167500
O6121	O612	0.385270	0.056830	0.855800
O6131	O613	0.410200	0.114140	0.906450
O6141	O614	0.365100	0.352910	0.447120
O6151	O615	0.372830	0.355750	0.576700
O6161	O616	0.612500	0.995500	0.160200
O6171	O617	0.550000	0.956400	0.167900
H6181	H618	0.043290	0.500890	0.645340
