data_UBUMAH_freeONLY_PM
_symmetry_space_group_name_H-M	'P1'
_cell_length_a	11.294900
_cell_length_b	21.312000
_cell_length_c	29.097000
_cell_angle_alpha	90.000000
_cell_angle_beta	90.000000
_cell_angle_gamma	90.000000
_symmetry_Int_Tables_number 1

loop_
_symmetry_equiv_pos_as_xyz
'x,y,z'

loop_
_atom_site_label
_atom_site_type_symbol
_atom_site_fract_x
_atom_site_fract_y
_atom_site_fract_z
Zn11	Zn1	0.616240	0.835500	0.674380
Zn21	Zn2	0.758180	0.900750	0.759380
Zn31	Zn3	0.485270	0.895140	0.760890
Zn41	Zn4	0.654030	0.984150	0.685610
Zn51	Zn5	0.383760	0.164500	0.174380
Zn61	Zn6	0.241820	0.099250	0.259380
Zn71	Zn7	0.514730	0.104860	0.260890
Zn81	Zn8	0.345970	0.015850	0.185610
Zn91	Zn9	0.883760	0.335500	0.674380
Zn101	Zn10	0.741820	0.400750	0.759380
Zn111	Zn11	0.014730	0.395140	0.760890
Zn121	Zn12	0.845970	0.484150	0.685610
Zn131	Zn13	0.116240	0.664500	0.174380
Zn141	Zn14	0.258180	0.599250	0.259380
Zn151	Zn15	0.985270	0.604860	0.260890
Zn161	Zn16	0.154030	0.515850	0.185610
H11	H1	0.879400	0.997500	0.559800
H21	H2	0.974700	0.977700	0.489400
H31	H3	0.816600	0.811700	0.482800
H41	H4	0.704600	0.833800	0.549300
H51	H5	0.089500	0.953700	0.342600
H61	H6	0.171800	0.846000	0.231700
H71	H7	0.979500	0.777700	0.340900
H81	H8	0.296800	0.688100	0.391000
H91	H9	0.291300	0.722700	0.464200
H101	H10	0.949300	0.688000	0.469100
H111	H11	0.956700	0.652500	0.393700
H121	H12	0.292700	0.803000	0.605900
H131	H13	0.118900	0.865100	0.715900
H141	H14	0.940100	0.800200	0.607600
H151	H15	0.120600	0.002500	0.059800
H161	H16	0.025300	0.022300	0.989400
H171	H17	0.183400	0.188300	0.982800
H181	H18	0.295400	0.166200	0.049300
H191	H19	0.910500	0.046300	0.842600
H201	H20	0.828200	0.154000	0.731700
H211	H21	0.020500	0.222300	0.840900
H221	H22	0.703200	0.311900	0.891000
H231	H23	0.708700	0.277300	0.964200
H241	H24	0.050700	0.312000	0.969100
H251	H25	0.043300	0.347500	0.893700
H261	H26	0.707300	0.197000	0.105900
H271	H27	0.881100	0.134900	0.215900
H281	H28	0.059900	0.199800	0.107600
H291	H29	0.620600	0.497500	0.559800
H301	H30	0.525300	0.477700	0.489400
H311	H31	0.683400	0.311700	0.482800
H321	H32	0.795400	0.333800	0.549300
H331	H33	0.410500	0.453700	0.342600
H341	H34	0.328200	0.346000	0.231700
H351	H35	0.520500	0.277700	0.340900
H361	H36	0.203200	0.188100	0.391000
H371	H37	0.208700	0.222700	0.464200
H381	H38	0.550700	0.188000	0.469100
H391	H39	0.543300	0.152500	0.393700
H401	H40	0.207300	0.303000	0.605900
H411	H41	0.381100	0.365100	0.715900
H421	H42	0.559900	0.300200	0.607600
H431	H43	0.379400	0.502500	0.059800
H441	H44	0.474700	0.522300	0.989400
H451	H45	0.316600	0.688300	0.982800
H461	H46	0.204600	0.666200	0.049300
H471	H47	0.589500	0.546300	0.842600
H481	H48	0.671800	0.654000	0.731700
H491	H49	0.479500	0.722300	0.840900
H501	H50	0.796800	0.811900	0.891000
H511	H51	0.791300	0.777300	0.964200
H521	H52	0.449300	0.812000	0.969100
H531	H53	0.456700	0.847500	0.893700
H541	H54	0.792700	0.697000	0.105900
H551	H55	0.618900	0.634900	0.215900
H561	H56	0.440100	0.699800	0.107600
C11	C1	0.717700	0.929300	0.605300
C21	C2	0.781700	0.915000	0.560600
C31	C3	0.864600	0.960700	0.543600
C41	C4	0.923000	0.948000	0.501500
C51	C5	0.904300	0.891100	0.477500
C61	C6	0.827300	0.850300	0.497100
C71	C7	0.760500	0.862300	0.538600
C81	C8	0.950200	0.884800	0.431800
C91	C9	0.989100	0.875100	0.396500
C101	C10	0.044900	0.866000	0.350600
C111	C11	0.091100	0.914500	0.328600
C121	C12	0.142800	0.908800	0.284500
C131	C13	0.136400	0.851200	0.260300
C141	C14	0.073300	0.801700	0.282000
C151	C15	0.024000	0.809400	0.327400
C161	C16	0.195300	0.965900	0.262100
C171	C17	0.065600	0.740310	0.258200
C181	C18	0.137600	0.632600	0.340700
C191	C19	0.132800	0.658900	0.386900
C201	C20	0.225600	0.686400	0.407000
C211	C21	0.220900	0.712000	0.449600
C221	C22	0.121100	0.722100	0.470800
C231	C23	0.018900	0.690900	0.452100
C241	C24	0.025500	0.665400	0.408500
C251	C25	0.112200	0.751100	0.514800
C261	C26	0.113500	0.768900	0.553700
C271	C27	0.118000	0.795700	0.599900
C281	C28	0.221600	0.810100	0.621100
C291	C29	0.223400	0.834600	0.664100
C301	C30	0.116600	0.847300	0.686800
C311	C31	0.007600	0.834100	0.667100
C321	C32	0.011100	0.808700	0.622600
C331	C33	0.342200	0.852100	0.686600
C341	C34	0.901600	0.843500	0.689500
C351	C35	0.282300	0.070700	0.105300
C361	C36	0.218300	0.085000	0.060600
C371	C37	0.135400	0.039300	0.043600
C381	C38	0.077000	0.052000	0.001500
C391	C39	0.095700	0.108900	0.977500
C401	C40	0.172700	0.149700	0.997100
C411	C41	0.239500	0.137700	0.038600
C421	C42	0.049800	0.115200	0.931800
C431	C43	0.010900	0.124900	0.896500
C441	C44	0.955100	0.134000	0.850600
C451	C45	0.908900	0.085500	0.828600
C461	C46	0.857200	0.091200	0.784500
C471	C47	0.863600	0.148800	0.760300
C481	C48	0.926700	0.198300	0.782000
C491	C49	0.976000	0.190600	0.827400
C501	C50	0.804700	0.034100	0.762100
C511	C51	0.934400	0.259690	0.758200
C521	C52	0.862400	0.367400	0.840700
C531	C53	0.867200	0.341100	0.886900
C541	C54	0.774400	0.313600	0.907000
C551	C55	0.779100	0.288000	0.949600
C561	C56	0.878900	0.277900	0.970800
C571	C57	0.981100	0.309100	0.952100
C581	C58	0.974500	0.334600	0.908500
C591	C59	0.887800	0.248900	0.014800
C601	C60	0.886500	0.231100	0.053700
C611	C61	0.882000	0.204300	0.099900
C621	C62	0.778400	0.189900	0.121100
C631	C63	0.776600	0.165400	0.164100
C641	C64	0.883400	0.152700	0.186800
C651	C65	0.992400	0.165900	0.167100
C661	C66	0.988900	0.191300	0.122600
C671	C67	0.657800	0.147900	0.186600
C681	C68	0.098400	0.156500	0.189500
C691	C69	0.782300	0.429300	0.605300
C701	C70	0.718300	0.415000	0.560600
C711	C71	0.635400	0.460700	0.543600
C721	C72	0.577000	0.448000	0.501500
C731	C73	0.595700	0.391100	0.477500
C741	C74	0.672700	0.350300	0.497100
C751	C75	0.739500	0.362300	0.538600
C761	C76	0.549800	0.384800	0.431800
C771	C77	0.510900	0.375100	0.396500
C781	C78	0.455100	0.366000	0.350600
C791	C79	0.408900	0.414500	0.328600
C801	C80	0.357200	0.408800	0.284500
C811	C81	0.363600	0.351200	0.260300
C821	C82	0.426700	0.301700	0.282000
C831	C83	0.476000	0.309400	0.327400
C841	C84	0.304700	0.465900	0.262100
C851	C85	0.434400	0.240310	0.258200
C861	C86	0.362400	0.132600	0.340700
C871	C87	0.367200	0.158900	0.386900
C881	C88	0.274400	0.186400	0.407000
C891	C89	0.279100	0.212000	0.449600
C901	C90	0.378900	0.222100	0.470800
C911	C91	0.481100	0.190900	0.452100
C921	C92	0.474500	0.165400	0.408500
C931	C93	0.387800	0.251100	0.514800
C941	C94	0.386500	0.268900	0.553700
C951	C95	0.382000	0.295700	0.599900
C961	C96	0.278400	0.310100	0.621100
C971	C97	0.276600	0.334600	0.664100
C981	C98	0.383400	0.347300	0.686800
C991	C99	0.492400	0.334100	0.667100
C1001	C100	0.488900	0.308700	0.622600
C1011	C101	0.157800	0.352100	0.686600
C1021	C102	0.598400	0.343500	0.689500
C1031	C103	0.217700	0.570700	0.105300
C1041	C104	0.281700	0.585000	0.060600
C1051	C105	0.364600	0.539300	0.043600
C1061	C106	0.423000	0.552000	0.001500
C1071	C107	0.404300	0.608900	0.977500
C1081	C108	0.327300	0.649700	0.997100
C1091	C109	0.260500	0.637700	0.038600
C1101	C110	0.450200	0.615200	0.931800
C1111	C111	0.489100	0.624900	0.896500
C1121	C112	0.544900	0.634000	0.850600
C1131	C113	0.591100	0.585500	0.828600
C1141	C114	0.642800	0.591200	0.784500
C1151	C115	0.636400	0.648800	0.760300
C1161	C116	0.573300	0.698300	0.782000
C1171	C117	0.524000	0.690600	0.827400
C1181	C118	0.695300	0.534100	0.762100
C1191	C119	0.565600	0.759690	0.758200
C1201	C120	0.637600	0.867400	0.840700
C1211	C121	0.632800	0.841100	0.886900
C1221	C122	0.725600	0.813600	0.907000
C1231	C123	0.720900	0.788000	0.949600
C1241	C124	0.621100	0.777900	0.970800
C1251	C125	0.518900	0.809100	0.952100
C1261	C126	0.525500	0.834600	0.908500
C1271	C127	0.612200	0.748900	0.014800
C1281	C128	0.613500	0.731100	0.053700
C1291	C129	0.618000	0.704300	0.099900
C1301	C130	0.721600	0.689900	0.121100
C1311	C131	0.723400	0.665400	0.164100
C1321	C132	0.616600	0.652700	0.186800
C1331	C133	0.507600	0.665900	0.167100
C1341	C134	0.511100	0.691300	0.122600
C1351	C135	0.842200	0.647900	0.186600
C1361	C136	0.401600	0.656500	0.189500
O11	O1	0.622100	0.908530	0.719360
O21	O2	0.633200	0.896400	0.614500
O31	O3	0.752400	0.974600	0.630600
O41	O4	0.189800	0.016320	0.281440
O51	O5	0.246600	0.956730	0.222330
O61	O6	0.125100	0.732600	0.222300
O71	O7	0.996300	0.699750	0.276610
O81	O8	0.235700	0.643490	0.318440
O91	O9	0.053500	0.596760	0.327440
O101	O10	0.436300	0.836790	0.665180
O111	O11	0.337900	0.879380	0.724510
O121	O12	0.805000	0.832100	0.668200
O131	O13	0.903300	0.869930	0.730020
O141	O14	0.614500	0.764600	0.623800
O151	O15	0.416400	0.984200	0.771900
O161	O16	0.519500	0.034200	0.662200
O171	O17	0.377900	0.091470	0.219360
O181	O18	0.366800	0.103600	0.114500
O191	O19	0.247600	0.025400	0.130600
O201	O20	0.810200	0.983680	0.781440
O211	O21	0.753400	0.043270	0.722330
O221	O22	0.874900	0.267400	0.722300
O231	O23	0.003700	0.300250	0.776610
O241	O24	0.764300	0.356510	0.818440
O251	O25	0.946500	0.403240	0.827440
O261	O26	0.563700	0.163210	0.165180
O271	O27	0.662100	0.120620	0.224510
O281	O28	0.195000	0.167900	0.168200
O291	O29	0.096700	0.130070	0.230020
O301	O30	0.385500	0.235400	0.123800
O311	O31	0.583600	0.015800	0.271900
O321	O32	0.480500	0.965800	0.162200
O331	O33	0.877900	0.408530	0.719360
O341	O34	0.866800	0.396400	0.614500
O351	O35	0.747600	0.474600	0.630600
O361	O36	0.310200	0.516320	0.281440
O371	O37	0.253400	0.456730	0.222330
O381	O38	0.374900	0.232600	0.222300
O391	O39	0.503700	0.199750	0.276610
O401	O40	0.264300	0.143490	0.318440
O411	O41	0.446500	0.096760	0.327440
O421	O42	0.063700	0.336790	0.665180
O431	O43	0.162100	0.379380	0.724510
O441	O44	0.695000	0.332100	0.668200
O451	O45	0.596700	0.369930	0.730020
O461	O46	0.885500	0.264600	0.623800
O471	O47	0.083600	0.484200	0.771900
O481	O48	0.980500	0.534200	0.662200
O491	O49	0.122100	0.591470	0.219360
O501	O50	0.133200	0.603600	0.114500
O511	O51	0.252400	0.525400	0.130600
O521	O52	0.689800	0.483680	0.781440
O531	O53	0.746600	0.543270	0.722330
O541	O54	0.625100	0.767400	0.722300
O551	O55	0.496300	0.800250	0.776610
O561	O56	0.735700	0.856510	0.818440
O571	O57	0.553500	0.903240	0.827440
O581	O58	0.936300	0.663210	0.165180
O591	O59	0.837900	0.620620	0.224510
O601	O60	0.305000	0.667900	0.168200
O611	O61	0.403300	0.630070	0.230020
O621	O62	0.114500	0.735400	0.123800
O631	O63	0.916400	0.515800	0.271900
O641	O64	0.019500	0.465800	0.162200
