data_UCOJAZ_freeONLY_PM
_symmetry_space_group_name_H-M	'P1'
_cell_length_a	13.798000
_cell_length_b	27.249000
_cell_length_c	44.834000
_cell_angle_alpha	90.000000
_cell_angle_beta	90.000000
_cell_angle_gamma	90.000000
_symmetry_Int_Tables_number 1

loop_
_symmetry_equiv_pos_as_xyz
'x,y,z'

loop_
_atom_site_label
_atom_site_type_symbol
_atom_site_fract_x
_atom_site_fract_y
_atom_site_fract_z
Zn11	Zn1	0.620210	0.027700	0.913020
Zn21	Zn2	0.647540	0.543740	0.914430
Zn31	Zn3	0.320520	0.756030	0.680390
Zn41	Zn4	0.379790	0.472300	0.413020
Zn51	Zn5	0.352460	0.956260	0.414430
Zn61	Zn6	0.679480	0.743970	0.180390
Zn71	Zn7	0.120210	0.972300	0.586980
Zn81	Zn8	0.147540	0.456260	0.585570
Zn91	Zn9	0.820520	0.243970	0.819610
Zn101	Zn10	0.879790	0.527700	0.086980
Zn111	Zn11	0.852460	0.043740	0.085570
Zn121	Zn12	0.179480	0.256030	0.319610
H11	H1	0.593700	0.920400	0.928200
H21	H2	0.587500	0.845400	0.903300
H31	H3	0.531000	0.917400	0.827200
H41	H4	0.558900	0.989500	0.851900
H51	H5	0.568800	0.577900	0.857800
H61	H6	0.532400	0.648600	0.831600
H71	H7	0.603300	0.726600	0.906500
H81	H8	0.622800	0.649700	0.929600
H91	H9	0.389200	0.838700	0.719700
H101	H10	0.452700	0.850500	0.767700
H111	H11	0.490600	0.703000	0.771200
H121	H12	0.434800	0.696600	0.724300
H131	H13	0.797400	0.072200	0.023300
H141	H14	0.869700	0.101300	0.979100
H151	H15	0.127500	0.053900	0.012000
H161	H16	0.044500	0.028800	0.057000
H171	H17	0.026400	0.225900	0.835700
H181	H18	0.118800	0.187400	0.873300
H191	H19	0.872500	0.154200	0.914600
H201	H20	0.786900	0.183800	0.874600
H211	H21	0.481800	0.032300	0.964900
H221	H22	0.330600	0.064500	0.975900
H231	H23	0.313700	0.114900	0.890600
H241	H24	0.468800	0.088100	0.882500
H251	H25	0.406300	0.579600	0.428200
H261	H26	0.412500	0.654600	0.403300
H271	H27	0.469000	0.582600	0.327200
H281	H28	0.441100	0.510500	0.351900
H291	H29	0.431200	0.922100	0.357800
H301	H30	0.467600	0.851400	0.331600
H311	H31	0.396700	0.773400	0.406500
H321	H32	0.377200	0.850300	0.429600
H331	H33	0.610800	0.661300	0.219700
H341	H34	0.547300	0.649500	0.267700
H351	H35	0.509400	0.797000	0.271200
H361	H36	0.565200	0.803400	0.224300
H371	H37	0.202600	0.427800	0.523300
H381	H38	0.130300	0.398700	0.479100
H391	H39	0.872500	0.446100	0.512000
H401	H40	0.955500	0.471200	0.557000
H411	H41	0.973600	0.274100	0.335700
H421	H42	0.881200	0.312600	0.373300
H431	H43	0.127500	0.345800	0.414600
H441	H44	0.213100	0.316200	0.374600
H451	H45	0.518200	0.467700	0.464900
H461	H46	0.669400	0.435500	0.475900
H471	H47	0.686300	0.385100	0.390600
H481	H48	0.531200	0.411900	0.382500
H491	H49	0.093700	0.079600	0.571800
H501	H50	0.087500	0.154600	0.596700
H511	H51	0.031000	0.082600	0.672800
H521	H52	0.058900	0.010500	0.648100
H531	H53	0.068800	0.422100	0.642200
H541	H54	0.032400	0.351400	0.668400
H551	H55	0.103300	0.273400	0.593500
H561	H56	0.122800	0.350300	0.570400
H571	H57	0.889200	0.161300	0.780300
H581	H58	0.952700	0.149500	0.732300
H591	H59	0.990600	0.297000	0.728800
H601	H60	0.934800	0.303400	0.775700
H611	H61	0.297400	0.927800	0.476700
H621	H62	0.369700	0.898700	0.520900
H631	H63	0.627500	0.946100	0.488000
H641	H64	0.544500	0.971200	0.443000
H651	H65	0.526400	0.774100	0.664300
H661	H66	0.618800	0.812600	0.626700
H671	H67	0.372500	0.845800	0.585400
H681	H68	0.286900	0.816200	0.625400
H691	H69	0.981800	0.967700	0.535100
H701	H70	0.830600	0.935500	0.524100
H711	H71	0.813700	0.885100	0.609400
H721	H72	0.968800	0.911900	0.617500
H731	H73	0.906300	0.420400	0.071800
H741	H74	0.912500	0.345400	0.096700
H751	H75	0.969000	0.417400	0.172800
H761	H76	0.941100	0.489500	0.148100
H771	H77	0.931200	0.077900	0.142200
H781	H78	0.967600	0.148600	0.168400
H791	H79	0.896700	0.226600	0.093500
H801	H80	0.877200	0.149700	0.070400
H811	H81	0.110800	0.338700	0.280300
H821	H82	0.047300	0.350500	0.232300
H831	H83	0.009400	0.203000	0.228800
H841	H84	0.065200	0.196600	0.275700
H851	H85	0.702600	0.572200	0.976700
H861	H86	0.630300	0.601300	0.020900
H871	H87	0.372500	0.553900	0.988000
H881	H88	0.455500	0.528800	0.943000
H891	H89	0.473600	0.725900	0.164300
H901	H90	0.381200	0.687400	0.126700
H911	H91	0.627500	0.654200	0.085400
H921	H92	0.713100	0.683800	0.125400
H931	H93	0.018200	0.532300	0.035100
H941	H94	0.169400	0.564500	0.024100
H951	H95	0.186300	0.614900	0.109400
H961	H96	0.031200	0.588100	0.117500
C11	C1	0.586800	0.919800	0.907100
C21	C2	0.577800	0.875100	0.892500
C31	C3	0.555100	0.873200	0.862800
C41	C4	0.547400	0.916900	0.847800
C51	C5	0.563700	0.959700	0.862800
C61	C6	0.574400	0.608600	0.867600
C71	C7	0.552900	0.650700	0.851800
C81	C8	0.561600	0.696200	0.865700
C91	C9	0.592900	0.696800	0.895900
C101	C10	0.607500	0.650600	0.909000
C111	C11	0.410600	0.810900	0.730700
C121	C12	0.448300	0.818500	0.759400
C131	C13	0.479200	0.777200	0.775400
C141	C14	0.470900	0.731900	0.761000
C151	C15	0.435900	0.728200	0.733300
C161	C16	0.543900	0.826000	0.847900
C171	C17	0.544600	0.743900	0.849800
C181	C18	0.506700	0.781000	0.806600
C191	C19	0.865800	0.070000	0.021500
C201	C20	0.907200	0.086600	0.994400
C211	C21	0.006300	0.079700	0.991800
C221	C22	0.059700	0.058700	0.014200
C231	C23	0.009600	0.044100	0.041200
C241	C24	0.994000	0.209800	0.851600
C251	C25	0.050000	0.186800	0.874500
C261	C26	0.006400	0.164100	0.898100
C271	C27	0.907000	0.166600	0.897900
C281	C28	0.855600	0.186300	0.874600
C291	C29	0.447800	0.050900	0.950300
C301	C30	0.356300	0.068000	0.956300
C311	C31	0.299100	0.091100	0.933800
C321	C32	0.347100	0.098500	0.906200
C331	C33	0.439600	0.083000	0.901400
C341	C34	0.059900	0.097800	0.965800
C351	C35	0.059800	0.139800	0.921400
C361	C36	0.196100	0.104800	0.938300
C371	C37	0.413200	0.580200	0.407100
C381	C38	0.422200	0.624900	0.392500
C391	C39	0.444900	0.626800	0.362800
C401	C40	0.452600	0.583100	0.347800
C411	C41	0.436300	0.540300	0.362800
C421	C42	0.425600	0.891400	0.367600
C431	C43	0.447100	0.849300	0.351800
C441	C44	0.438400	0.803800	0.365700
C451	C45	0.407100	0.803200	0.395900
C461	C46	0.392500	0.849400	0.409000
C471	C47	0.589400	0.689100	0.230700
C481	C48	0.551700	0.681500	0.259400
C491	C49	0.520800	0.722800	0.275400
C501	C50	0.529100	0.768100	0.261000
C511	C51	0.564100	0.771800	0.233300
C521	C52	0.456100	0.674000	0.347900
C531	C53	0.455400	0.756100	0.349800
C541	C54	0.493300	0.719000	0.306600
C551	C55	0.134200	0.430000	0.521500
C561	C56	0.092800	0.413400	0.494400
C571	C57	0.993700	0.420300	0.491800
C581	C58	0.940300	0.441300	0.514200
C591	C59	0.990400	0.455900	0.541200
C601	C60	0.006000	0.290200	0.351600
C611	C61	0.950000	0.313200	0.374500
C621	C62	0.993600	0.335900	0.398100
C631	C63	0.093000	0.333400	0.397900
C641	C64	0.144400	0.313700	0.374600
C651	C65	0.552200	0.449100	0.450300
C661	C66	0.643700	0.432000	0.456300
C671	C67	0.700900	0.408900	0.433800
C681	C68	0.652900	0.401500	0.406200
C691	C69	0.560400	0.417000	0.401400
C701	C70	0.940100	0.402200	0.465800
C711	C71	0.940200	0.360200	0.421400
C721	C72	0.803900	0.395200	0.438300
C731	C73	0.086800	0.080200	0.592900
C741	C74	0.077800	0.124900	0.607500
C751	C75	0.055100	0.126800	0.637200
C761	C76	0.047400	0.083100	0.652200
C771	C77	0.063700	0.040300	0.637200
C781	C78	0.074400	0.391400	0.632400
C791	C79	0.052900	0.349300	0.648200
C801	C80	0.061600	0.303800	0.634300
C811	C81	0.092900	0.303200	0.604100
C821	C82	0.107500	0.349400	0.591000
C831	C83	0.910600	0.189100	0.769300
C841	C84	0.948300	0.181500	0.740600
C851	C85	0.979200	0.222800	0.724600
C861	C86	0.970900	0.268100	0.739000
C871	C87	0.935900	0.271800	0.766700
C881	C88	0.043900	0.174000	0.652100
C891	C89	0.044600	0.256100	0.650200
C901	C90	0.006700	0.219000	0.693400
C911	C91	0.365800	0.930000	0.478500
C921	C92	0.407200	0.913400	0.505600
C931	C93	0.506300	0.920300	0.508200
C941	C94	0.559700	0.941300	0.485800
C951	C95	0.509600	0.955900	0.458800
C961	C96	0.494000	0.790200	0.648400
C971	C97	0.550000	0.813200	0.625500
C981	C98	0.506400	0.835900	0.601900
C991	C99	0.407000	0.833400	0.602100
C1001	C100	0.355600	0.813700	0.625400
C1011	C101	0.947800	0.949100	0.549700
C1021	C102	0.856300	0.932000	0.543700
C1031	C103	0.799100	0.908900	0.566200
C1041	C104	0.847100	0.901500	0.593800
C1051	C105	0.939600	0.917000	0.598600
C1061	C106	0.559900	0.902200	0.534200
C1071	C107	0.559800	0.860200	0.578600
C1081	C108	0.696100	0.895200	0.561700
C1091	C109	0.913200	0.419800	0.092900
C1101	C110	0.922200	0.375100	0.107500
C1111	C111	0.944900	0.373200	0.137200
C1121	C112	0.952600	0.416900	0.152200
C1131	C113	0.936300	0.459700	0.137200
C1141	C114	0.925600	0.108600	0.132400
C1151	C115	0.947100	0.150700	0.148200
C1161	C116	0.938400	0.196200	0.134300
C1171	C117	0.907100	0.196800	0.104100
C1181	C118	0.892500	0.150600	0.091000
C1191	C119	0.089400	0.310900	0.269300
C1201	C120	0.051700	0.318500	0.240600
C1211	C121	0.020800	0.277200	0.224600
C1221	C122	0.029100	0.231900	0.239000
C1231	C123	0.064100	0.228200	0.266700
C1241	C124	0.956100	0.326000	0.152100
C1251	C125	0.955400	0.243900	0.150200
C1261	C126	0.993300	0.281000	0.193400
C1271	C127	0.634200	0.570000	0.978500
C1281	C128	0.592800	0.586600	0.005600
C1291	C129	0.493700	0.579700	0.008200
C1301	C130	0.440300	0.558700	0.985800
C1311	C131	0.490400	0.544100	0.958800
C1321	C132	0.506000	0.709800	0.148400
C1331	C133	0.450000	0.686800	0.125500
C1341	C134	0.493600	0.664100	0.101900
C1351	C135	0.593000	0.666600	0.102100
C1361	C136	0.644400	0.686300	0.125400
C1371	C137	0.052200	0.550900	0.049700
C1381	C138	0.143700	0.568000	0.043700
C1391	C139	0.200900	0.591100	0.066200
C1401	C140	0.152900	0.598500	0.093800
C1411	C141	0.060400	0.583000	0.098600
C1421	C142	0.440100	0.597800	0.034200
C1431	C143	0.440200	0.639800	0.078600
C1441	C144	0.303900	0.604800	0.061700
I11	I1	0.700680	0.006460	0.963010
I21	I2	0.702620	0.077800	0.873200
I31	I3	0.559290	0.476500	0.886030
I41	I4	0.829760	0.557260	0.919830
I51	I5	0.164710	0.803750	0.689450
I61	I6	0.309220	0.664220	0.669520
I71	I7	0.299320	0.493540	0.463010
I81	I8	0.297380	0.422200	0.373200
I91	I9	0.440710	0.023500	0.386030
I101	I10	0.170240	0.942740	0.419830
I111	I11	0.835290	0.696250	0.189450
I121	I12	0.690780	0.835780	0.169520
I131	I13	0.200680	0.993540	0.536990
I141	I14	0.202620	0.922200	0.626800
I151	I15	0.059290	0.523500	0.613970
I161	I16	0.329760	0.442740	0.580170
I171	I17	0.664710	0.196250	0.810550
I181	I18	0.809220	0.335780	0.830480
I191	I19	0.799320	0.506460	0.036990
I201	I20	0.797380	0.577800	0.126800
I211	I21	0.940710	0.976500	0.113970
I221	I22	0.670240	0.057260	0.080170
I231	I23	0.335290	0.303750	0.310550
I241	I24	0.190780	0.164220	0.330480
N11	N1	0.586100	0.962700	0.891800
N21	N2	0.601400	0.608800	0.894800
N31	N3	0.403000	0.765100	0.717700
N41	N4	0.557500	0.785000	0.863900
N51	N5	0.521600	0.739100	0.820630
N61	N6	0.516000	0.825600	0.818600
N71	N7	0.912800	0.052200	0.044000
N81	N8	0.900600	0.209100	0.851900
N91	N9	0.490300	0.060500	0.923200
N101	N10	0.006100	0.122500	0.945100
N111	N11	0.154700	0.132300	0.917600
N121	N12	0.154700	0.086600	0.962500
N131	N13	0.413900	0.537300	0.391800
N141	N14	0.398600	0.891200	0.394800
N151	N15	0.597000	0.734900	0.217700
N161	N16	0.442500	0.715000	0.363900
N171	N17	0.478400	0.760900	0.320630
N181	N18	0.484000	0.674400	0.318600
N191	N19	0.087200	0.447800	0.544000
N201	N20	0.099400	0.290900	0.351900
N211	N21	0.509700	0.439500	0.423200
N221	N22	0.993900	0.377500	0.445100
N231	N23	0.845300	0.367700	0.417600
N241	N24	0.845300	0.413400	0.462500
N251	N25	0.086100	0.037300	0.608200
N261	N26	0.101400	0.391200	0.605200
N271	N27	0.903000	0.234900	0.782300
N281	N28	0.057500	0.215000	0.636100
N291	N29	0.021600	0.260900	0.679370
N301	N30	0.016000	0.174400	0.681400
N311	N31	0.412800	0.947800	0.456000
N321	N32	0.400600	0.790900	0.648100
N331	N33	0.990300	0.939500	0.576800
N341	N34	0.506100	0.877500	0.554900
N351	N35	0.654700	0.867700	0.582400
N361	N36	0.654700	0.913400	0.537500
N371	N37	0.913900	0.462700	0.108200
N381	N38	0.898600	0.108800	0.105200
N391	N39	0.097000	0.265100	0.282300
N401	N40	0.942500	0.285000	0.136100
N411	N41	0.978400	0.239100	0.179370
N421	N42	0.984000	0.325600	0.181400
N431	N43	0.587200	0.552200	0.956000
N441	N44	0.599400	0.709100	0.148100
N451	N45	0.009700	0.560500	0.076800
N461	N46	0.493900	0.622500	0.054900
N471	N47	0.345300	0.632300	0.082400
N481	N48	0.345300	0.586600	0.037500
Zn131	Zn13	0.379790	0.972300	0.086980
Zn141	Zn14	0.352460	0.456260	0.085570
Zn151	Zn15	0.679480	0.243970	0.319610
Zn161	Zn16	0.620210	0.527700	0.586980
Zn171	Zn17	0.647540	0.043740	0.585570
Zn181	Zn18	0.320520	0.256030	0.819610
Zn191	Zn19	0.879790	0.027700	0.413020
Zn201	Zn20	0.852460	0.543740	0.414430
Zn211	Zn21	0.179480	0.756030	0.180390
Zn221	Zn22	0.120210	0.472300	0.913020
Zn231	Zn23	0.147540	0.956260	0.914430
Zn241	Zn24	0.820520	0.743970	0.680390
H971	H97	0.406300	0.079600	0.071800
H981	H98	0.412500	0.154600	0.096700
H991	H99	0.469000	0.082600	0.172800
H1001	H100	0.441100	0.010500	0.148100
H1011	H101	0.431200	0.422100	0.142200
H1021	H102	0.467600	0.351400	0.168400
H1031	H103	0.396700	0.273400	0.093500
H1041	H104	0.377200	0.350300	0.070400
H1051	H105	0.610800	0.161300	0.280300
H1061	H106	0.547300	0.149500	0.232300
H1071	H107	0.509400	0.297000	0.228800
H1081	H108	0.565200	0.303400	0.275700
H1091	H109	0.202600	0.927800	0.976700
H1101	H110	0.130300	0.898700	0.020900
H1111	H111	0.872500	0.946100	0.988000
H1121	H112	0.955500	0.971200	0.943000
H1131	H113	0.973600	0.774100	0.164300
H1141	H114	0.881200	0.812600	0.126700
H1151	H115	0.127500	0.845800	0.085400
H1161	H116	0.213100	0.816200	0.125400
H1171	H117	0.518200	0.967700	0.035100
H1181	H118	0.669400	0.935500	0.024100
H1191	H119	0.686300	0.885100	0.109400
H1201	H120	0.531200	0.911900	0.117500
H1211	H121	0.593700	0.420400	0.571800
H1221	H122	0.587500	0.345400	0.596700
H1231	H123	0.531000	0.417400	0.672800
H1241	H124	0.558900	0.489500	0.648100
H1251	H125	0.568800	0.077900	0.642200
H1261	H126	0.532400	0.148600	0.668400
H1271	H127	0.603300	0.226600	0.593500
H1281	H128	0.622800	0.149700	0.570400
H1291	H129	0.389200	0.338700	0.780300
H1301	H130	0.452700	0.350500	0.732300
H1311	H131	0.490600	0.203000	0.728800
H1321	H132	0.434800	0.196600	0.775700
H1331	H133	0.797400	0.572200	0.476700
H1341	H134	0.869700	0.601300	0.520900
H1351	H135	0.127500	0.553900	0.488000
H1361	H136	0.044500	0.528800	0.443000
H1371	H137	0.026400	0.725900	0.664300
H1381	H138	0.118800	0.687400	0.626700
H1391	H139	0.872500	0.654200	0.585400
H1401	H140	0.786900	0.683800	0.625400
H1411	H141	0.481800	0.532300	0.535100
H1421	H142	0.330600	0.564500	0.524100
H1431	H143	0.313700	0.614900	0.609400
H1441	H144	0.468800	0.588100	0.617500
H1451	H145	0.906300	0.920400	0.428200
H1461	H146	0.912500	0.845400	0.403300
H1471	H147	0.969000	0.917400	0.327200
H1481	H148	0.941100	0.989500	0.351900
H1491	H149	0.931200	0.577900	0.357800
H1501	H150	0.967600	0.648600	0.331600
H1511	H151	0.896700	0.726600	0.406500
H1521	H152	0.877200	0.649700	0.429600
H1531	H153	0.110800	0.838700	0.219700
H1541	H154	0.047300	0.850500	0.267700
H1551	H155	0.009400	0.703000	0.271200
H1561	H156	0.065200	0.696600	0.224300
H1571	H157	0.702600	0.072200	0.523300
H1581	H158	0.630300	0.101300	0.479100
H1591	H159	0.372500	0.053900	0.512000
H1601	H160	0.455500	0.028800	0.557000
H1611	H161	0.473600	0.225900	0.335700
H1621	H162	0.381200	0.187400	0.373300
H1631	H163	0.627500	0.154200	0.414600
H1641	H164	0.713100	0.183800	0.374600
H1651	H165	0.018200	0.032300	0.464900
H1661	H166	0.169400	0.064500	0.475900
H1671	H167	0.186300	0.114900	0.390600
H1681	H168	0.031200	0.088100	0.382500
H1691	H169	0.093700	0.579600	0.928200
H1701	H170	0.087500	0.654600	0.903300
H1711	H171	0.031000	0.582600	0.827200
H1721	H172	0.058900	0.510500	0.851900
H1731	H173	0.068800	0.922100	0.857800
H1741	H174	0.032400	0.851400	0.831600
H1751	H175	0.103300	0.773400	0.906500
H1761	H176	0.122800	0.850300	0.929600
H1771	H177	0.889200	0.661300	0.719700
H1781	H178	0.952700	0.649500	0.767700
H1791	H179	0.990600	0.797000	0.771200
H1801	H180	0.934800	0.803400	0.724300
H1811	H181	0.297400	0.427800	0.023300
H1821	H182	0.369700	0.398700	0.979100
H1831	H183	0.627500	0.446100	0.012000
H1841	H184	0.544500	0.471200	0.057000
H1851	H185	0.526400	0.274100	0.835700
H1861	H186	0.618800	0.312600	0.873300
H1871	H187	0.372500	0.345800	0.914600
H1881	H188	0.286900	0.316200	0.874600
H1891	H189	0.981800	0.467700	0.964900
H1901	H190	0.830600	0.435500	0.975900
H1911	H191	0.813700	0.385100	0.890600
H1921	H192	0.968800	0.411900	0.882500
C1451	C145	0.413200	0.080200	0.092900
C1461	C146	0.422200	0.124900	0.107500
C1471	C147	0.444900	0.126800	0.137200
C1481	C148	0.452600	0.083100	0.152200
C1491	C149	0.436300	0.040300	0.137200
C1501	C150	0.425600	0.391400	0.132400
C1511	C151	0.447100	0.349300	0.148200
C1521	C152	0.438400	0.303800	0.134300
C1531	C153	0.407100	0.303200	0.104100
C1541	C154	0.392500	0.349400	0.091000
C1551	C155	0.589400	0.189100	0.269300
C1561	C156	0.551700	0.181500	0.240600
C1571	C157	0.520800	0.222800	0.224600
C1581	C158	0.529100	0.268100	0.239000
C1591	C159	0.564100	0.271800	0.266700
C1601	C160	0.456100	0.174000	0.152100
C1611	C161	0.455400	0.256100	0.150200
C1621	C162	0.493300	0.219000	0.193400
C1631	C163	0.134200	0.930000	0.978500
C1641	C164	0.092800	0.913400	0.005600
C1651	C165	0.993700	0.920300	0.008200
C1661	C166	0.940300	0.941300	0.985800
C1671	C167	0.990400	0.955900	0.958800
C1681	C168	0.006000	0.790200	0.148400
C1691	C169	0.950000	0.813200	0.125500
C1701	C170	0.993600	0.835900	0.101900
C1711	C171	0.093000	0.833400	0.102100
C1721	C172	0.144400	0.813700	0.125400
C1731	C173	0.552200	0.949100	0.049700
C1741	C174	0.643700	0.932000	0.043700
C1751	C175	0.700900	0.908900	0.066200
C1761	C176	0.652900	0.901500	0.093800
C1771	C177	0.560400	0.917000	0.098600
C1781	C178	0.940100	0.902200	0.034200
C1791	C179	0.940200	0.860200	0.078600
C1801	C180	0.803900	0.895200	0.061700
C1811	C181	0.586800	0.419800	0.592900
C1821	C182	0.577800	0.375100	0.607500
C1831	C183	0.555100	0.373200	0.637200
C1841	C184	0.547400	0.416900	0.652200
C1851	C185	0.563700	0.459700	0.637200
C1861	C186	0.574400	0.108600	0.632400
C1871	C187	0.552900	0.150700	0.648200
C1881	C188	0.561600	0.196200	0.634300
C1891	C189	0.592900	0.196800	0.604100
C1901	C190	0.607500	0.150600	0.591000
C1911	C191	0.410600	0.310900	0.769300
C1921	C192	0.448300	0.318500	0.740600
C1931	C193	0.479200	0.277200	0.724600
C1941	C194	0.470900	0.231900	0.739000
C1951	C195	0.435900	0.228200	0.766700
C1961	C196	0.543900	0.326000	0.652100
C1971	C197	0.544600	0.243900	0.650200
C1981	C198	0.506700	0.281000	0.693400
C1991	C199	0.865800	0.570000	0.478500
C2001	C200	0.907200	0.586600	0.505600
C2011	C201	0.006300	0.579700	0.508200
C2021	C202	0.059700	0.558700	0.485800
C2031	C203	0.009600	0.544100	0.458800
C2041	C204	0.994000	0.709800	0.648400
C2051	C205	0.050000	0.686800	0.625500
C2061	C206	0.006400	0.664100	0.601900
C2071	C207	0.907000	0.666600	0.602100
C2081	C208	0.855600	0.686300	0.625400
C2091	C209	0.447800	0.550900	0.549700
C2101	C210	0.356300	0.568000	0.543700
C2111	C211	0.299100	0.591100	0.566200
C2121	C212	0.347100	0.598500	0.593800
C2131	C213	0.439600	0.583000	0.598600
C2141	C214	0.059900	0.597800	0.534200
C2151	C215	0.059800	0.639800	0.578600
C2161	C216	0.196100	0.604800	0.561700
C2171	C217	0.913200	0.919800	0.407100
C2181	C218	0.922200	0.875100	0.392500
C2191	C219	0.944900	0.873200	0.362800
C2201	C220	0.952600	0.916900	0.347800
C2211	C221	0.936300	0.959700	0.362800
C2221	C222	0.925600	0.608600	0.367600
C2231	C223	0.947100	0.650700	0.351800
C2241	C224	0.938400	0.696200	0.365700
C2251	C225	0.907100	0.696800	0.395900
C2261	C226	0.892500	0.650600	0.409000
C2271	C227	0.089400	0.810900	0.230700
C2281	C228	0.051700	0.818500	0.259400
C2291	C229	0.020800	0.777200	0.275400
C2301	C230	0.029100	0.731900	0.261000
C2311	C231	0.064100	0.728200	0.233300
C2321	C232	0.956100	0.826000	0.347900
C2331	C233	0.955400	0.743900	0.349800
C2341	C234	0.993300	0.781000	0.306600
C2351	C235	0.634200	0.070000	0.521500
C2361	C236	0.592800	0.086600	0.494400
C2371	C237	0.493700	0.079700	0.491800
C2381	C238	0.440300	0.058700	0.514200
C2391	C239	0.490400	0.044100	0.541200
C2401	C240	0.506000	0.209800	0.351600
C2411	C241	0.450000	0.186800	0.374500
C2421	C242	0.493600	0.164100	0.398100
C2431	C243	0.593000	0.166600	0.397900
C2441	C244	0.644400	0.186300	0.374600
C2451	C245	0.052200	0.050900	0.450300
C2461	C246	0.143700	0.068000	0.456300
C2471	C247	0.200900	0.091100	0.433800
C2481	C248	0.152900	0.098500	0.406200
C2491	C249	0.060400	0.083000	0.401400
C2501	C250	0.440100	0.097800	0.465800
C2511	C251	0.440200	0.139800	0.421400
C2521	C252	0.303900	0.104800	0.438300
C2531	C253	0.086800	0.580200	0.907100
C2541	C254	0.077800	0.624900	0.892500
C2551	C255	0.055100	0.626800	0.862800
C2561	C256	0.047400	0.583100	0.847800
C2571	C257	0.063700	0.540300	0.862800
C2581	C258	0.074400	0.891400	0.867600
C2591	C259	0.052900	0.849300	0.851800
C2601	C260	0.061600	0.803800	0.865700
C2611	C261	0.092900	0.803200	0.895900
C2621	C262	0.107500	0.849400	0.909000
C2631	C263	0.910600	0.689100	0.730700
C2641	C264	0.948300	0.681500	0.759400
C2651	C265	0.979200	0.722800	0.775400
C2661	C266	0.970900	0.768100	0.761000
C2671	C267	0.935900	0.771800	0.733300
C2681	C268	0.043900	0.674000	0.847900
C2691	C269	0.044600	0.756100	0.849800
C2701	C270	0.006700	0.719000	0.806600
C2711	C271	0.365800	0.430000	0.021500
C2721	C272	0.407200	0.413400	0.994400
C2731	C273	0.506300	0.420300	0.991800
C2741	C274	0.559700	0.441300	0.014200
C2751	C275	0.509600	0.455900	0.041200
C2761	C276	0.494000	0.290200	0.851600
C2771	C277	0.550000	0.313200	0.874500
C2781	C278	0.506400	0.335900	0.898100
C2791	C279	0.407000	0.333400	0.897900
C2801	C280	0.355600	0.313700	0.874600
C2811	C281	0.947800	0.449100	0.950300
C2821	C282	0.856300	0.432000	0.956300
C2831	C283	0.799100	0.408900	0.933800
C2841	C284	0.847100	0.401500	0.906200
C2851	C285	0.939600	0.417000	0.901400
C2861	C286	0.559900	0.402200	0.965800
C2871	C287	0.559800	0.360200	0.921400
C2881	C288	0.696100	0.395200	0.938300
I251	I25	0.299320	0.993540	0.036990
I261	I26	0.297380	0.922200	0.126800
I271	I27	0.440710	0.523500	0.113970
I281	I28	0.170240	0.442740	0.080170
I291	I29	0.835290	0.196250	0.310550
I301	I30	0.690780	0.335780	0.330480
I311	I31	0.700680	0.506460	0.536990
I321	I32	0.702620	0.577800	0.626800
I331	I33	0.559290	0.976500	0.613970
I341	I34	0.829760	0.057260	0.580170
I351	I35	0.164710	0.303750	0.810550
I361	I36	0.309220	0.164220	0.830480
I371	I37	0.799320	0.006460	0.463010
I381	I38	0.797380	0.077800	0.373200
I391	I39	0.940710	0.476500	0.386030
I401	I40	0.670240	0.557260	0.419830
I411	I41	0.335290	0.803750	0.189450
I421	I42	0.190780	0.664220	0.169520
I431	I43	0.200680	0.493540	0.963010
I441	I44	0.202620	0.422200	0.873200
I451	I45	0.059290	0.023500	0.886030
I461	I46	0.329760	0.942740	0.919830
I471	I47	0.664710	0.696250	0.689450
I481	I48	0.809220	0.835780	0.669520
N491	N49	0.413900	0.037300	0.108200
N501	N50	0.398600	0.391200	0.105200
N511	N51	0.597000	0.234900	0.282300
N521	N52	0.442500	0.215000	0.136100
N531	N53	0.478400	0.260900	0.179370
N541	N54	0.484000	0.174400	0.181400
N551	N55	0.087200	0.947800	0.956000
N561	N56	0.099400	0.790900	0.148100
N571	N57	0.509700	0.939500	0.076800
N581	N58	0.993900	0.877500	0.054900
N591	N59	0.845300	0.867700	0.082400
N601	N60	0.845300	0.913400	0.037500
N611	N61	0.586100	0.462700	0.608200
N621	N62	0.601400	0.108800	0.605200
N631	N63	0.403000	0.265100	0.782300
N641	N64	0.557500	0.285000	0.636100
N651	N65	0.521600	0.239100	0.679370
N661	N66	0.516000	0.325600	0.681400
N671	N67	0.912800	0.552200	0.456000
N681	N68	0.900600	0.709100	0.648100
N691	N69	0.490300	0.560500	0.576800
N701	N70	0.006100	0.622500	0.554900
N711	N71	0.154700	0.632300	0.582400
N721	N72	0.154700	0.586600	0.537500
N731	N73	0.913900	0.962700	0.391800
N741	N74	0.898600	0.608800	0.394800
N751	N75	0.097000	0.765100	0.217700
N761	N76	0.942500	0.785000	0.363900
N771	N77	0.978400	0.739100	0.320630
N781	N78	0.984000	0.825600	0.318600
N791	N79	0.587200	0.052200	0.544000
N801	N80	0.599400	0.209100	0.351900
N811	N81	0.009700	0.060500	0.423200
N821	N82	0.493900	0.122500	0.445100
N831	N83	0.345300	0.132300	0.417600
N841	N84	0.345300	0.086600	0.462500
N851	N85	0.086100	0.537300	0.891800
N861	N86	0.101400	0.891200	0.894800
N871	N87	0.903000	0.734900	0.717700
N881	N88	0.057500	0.715000	0.863900
N891	N89	0.021600	0.760900	0.820630
N901	N90	0.016000	0.674400	0.818600
N911	N91	0.412800	0.447800	0.044000
N921	N92	0.400600	0.290900	0.851900
N931	N93	0.990300	0.439500	0.923200
N941	N94	0.506100	0.377500	0.945100
N951	N95	0.654700	0.367700	0.917600
N961	N96	0.654700	0.413400	0.962500
