data_UCOXOZ_freeONLY_PM
_symmetry_space_group_name_H-M	'P1'
_cell_length_a	16.642000
_cell_length_b	19.545000
_cell_length_c	22.660100
_cell_angle_alpha	115.548000
_cell_angle_beta	90.646900
_cell_angle_gamma	90.000000
_symmetry_Int_Tables_number 1

loop_
_symmetry_equiv_pos_as_xyz
'x,y,z'

loop_
_atom_site_label
_atom_site_type_symbol
_atom_site_fract_x
_atom_site_fract_y
_atom_site_fract_z
Cu11	Cu1	0.142360	0.098170	0.774720
Cu21	Cu2	0.620190	0.090100	0.729960
Cu31	Cu3	0.402580	0.904820	0.741540
Cu41	Cu4	0.357640	0.323450	0.225280
Cu51	Cu5	0.879810	0.360140	0.270040
Cu61	Cu6	0.097420	0.163280	0.258460
Cu71	Cu7	0.857640	0.901830	0.225280
Cu81	Cu8	0.379810	0.909900	0.270040
Cu91	Cu9	0.597420	0.095180	0.258460
Cu101	Cu10	0.642360	0.676550	0.774720
Cu111	Cu11	0.120190	0.639860	0.729960
Cu121	Cu12	0.902580	0.836720	0.741540
H11	H1	0.298400	0.842000	0.352800
H21	H2	0.250200	0.880100	0.456000
H31	H3	0.313900	0.092800	0.495400
H41	H4	0.359700	0.047600	0.389400
H51	H5	0.127400	0.969900	0.644600
H61	H6	0.170500	0.928300	0.539200
H71	H7	0.309800	0.115100	0.599800
H81	H8	0.259300	0.151200	0.701800
H91	H9	0.206700	0.564300	0.795200
H101	H10	0.210100	0.455900	0.810600
H111	H11	0.004200	0.392500	0.707200
H121	H12	0.007700	0.501600	0.694000
H131	H13	0.173700	0.262400	0.860400
H141	H14	0.168800	0.376200	0.852200
H151	H15	0.047700	0.272800	0.682600
H161	H16	0.056500	0.162600	0.692800
H171	H17	0.024700	0.361200	0.202000
H181	H18	0.083900	0.302000	0.099000
H191	H19	0.892000	0.164300	0.037800
H201	H20	0.841600	0.226000	0.141600
H211	H21	0.538000	0.886100	0.815800
H221	H22	0.586100	0.929700	0.920600
H231	H23	0.375400	0.029700	0.981600
H241	H24	0.337700	0.989200	0.877000
H251	H25	0.198000	0.154100	0.914000
H261	H26	0.146900	0.202100	0.017200
H271	H27	0.926700	0.167500	0.938200
H281	H28	0.983800	0.124100	0.838800
H291	H29	0.235200	0.773200	0.648400
H301	H30	0.326700	0.752000	0.644000
H311	H31	0.265800	0.885000	0.640600
H321	H32	0.301100	0.816100	0.580000
H331	H33	0.410400	0.940700	0.595800
H341	H34	0.348800	0.979900	0.652800
H351	H35	0.485400	0.848200	0.586400
H361	H36	0.426500	0.780000	0.571000
H371	H37	0.363300	0.758700	0.744000
H381	H38	0.323000	0.814900	0.808400
H391	H39	0.178600	0.860100	0.734000
H401	H40	0.216100	0.887100	0.804200
H411	H41	0.201600	0.489200	0.647200
H421	H42	0.249800	0.424100	0.544000
H431	H43	0.186100	0.597400	0.504600
H441	H44	0.140300	0.658200	0.610600
H451	H45	0.372600	0.325300	0.355400
H461	H46	0.329500	0.389100	0.460800
H471	H47	0.190200	0.515300	0.400200
H481	H48	0.240700	0.449400	0.298200
H491	H49	0.293300	0.769100	0.204800
H501	H50	0.289900	0.645300	0.189400
H511	H51	0.495800	0.685300	0.292800
H521	H52	0.492300	0.807600	0.306000
H531	H53	0.326300	0.402000	0.139600
H541	H54	0.331200	0.524000	0.147800
H551	H55	0.452300	0.590200	0.317400
H561	H56	0.443500	0.469800	0.307200
H571	H57	0.475300	0.159200	0.798000
H581	H58	0.416100	0.203000	0.901000
H591	H59	0.608000	0.126500	0.962200
H601	H60	0.658400	0.084400	0.858400
H611	H61	0.962000	0.070300	0.184200
H621	H62	0.913900	0.009100	0.079400
H631	H63	0.124600	0.048100	0.018400
H641	H64	0.162300	0.112200	0.123000
H651	H65	0.302000	0.240100	0.086000
H661	H66	0.353100	0.184900	0.982800
H671	H67	0.573300	0.229300	0.061800
H681	H68	0.516200	0.285300	0.161200
H691	H69	0.264800	0.124800	0.351600
H701	H70	0.173300	0.108000	0.356000
H711	H71	0.234200	0.244400	0.359400
H721	H72	0.198900	0.236100	0.420000
H731	H73	0.089600	0.344900	0.404200
H741	H74	0.151200	0.327100	0.347200
H751	H75	0.014600	0.261800	0.413600
H761	H76	0.073500	0.209000	0.429000
H771	H77	0.136700	0.014700	0.256000
H781	H78	0.177000	0.006500	0.191600
H791	H79	0.321400	0.126100	0.266000
H801	H80	0.283900	0.082900	0.195800
H811	H81	0.701600	0.158000	0.647200
H821	H82	0.749800	0.119900	0.544000
H831	H83	0.686100	0.907200	0.504600
H841	H84	0.640300	0.952400	0.610600
H851	H85	0.872600	0.030100	0.355400
H861	H86	0.829500	0.071700	0.460800
H871	H87	0.690200	0.884900	0.400200
H881	H88	0.740700	0.848800	0.298200
H891	H89	0.793300	0.435700	0.204800
H901	H90	0.789900	0.544100	0.189400
H911	H91	0.995800	0.607500	0.292800
H921	H92	0.992300	0.498400	0.306000
H931	H93	0.826300	0.737600	0.139600
H941	H94	0.831200	0.623800	0.147800
H951	H95	0.952300	0.727200	0.317400
H961	H96	0.943500	0.837400	0.307200
H971	H97	0.975300	0.638800	0.798000
H981	H98	0.916100	0.698000	0.901000
H991	H99	0.108000	0.835700	0.962200
H1001	H100	0.158400	0.774000	0.858400
H1011	H101	0.462000	0.113900	0.184200
H1021	H102	0.413900	0.070300	0.079400
H1031	H103	0.624600	0.970300	0.018400
H1041	H104	0.662300	0.010800	0.123000
H1051	H105	0.802000	0.845900	0.086000
H1061	H106	0.853100	0.797900	0.982800
H1071	H107	0.073300	0.832500	0.061800
H1081	H108	0.016200	0.875900	0.161200
H1091	H109	0.764800	0.226800	0.351600
H1101	H110	0.673300	0.248000	0.356000
H1111	H111	0.734200	0.115000	0.359400
H1121	H112	0.698900	0.183900	0.420000
H1131	H113	0.589600	0.059300	0.404200
H1141	H114	0.651200	0.020100	0.347200
H1151	H115	0.514600	0.151800	0.413600
H1161	H116	0.573500	0.220000	0.429000
H1171	H117	0.636700	0.241300	0.256000
H1181	H118	0.677000	0.185100	0.191600
H1191	H119	0.821400	0.139900	0.266000
H1201	H120	0.783900	0.112900	0.195800
H1211	H121	0.798400	0.510800	0.352800
H1221	H122	0.750200	0.575900	0.456000
H1231	H123	0.813900	0.402600	0.495400
H1241	H124	0.859700	0.341800	0.389400
H1251	H125	0.627400	0.674700	0.644600
H1261	H126	0.670500	0.610900	0.539200
H1271	H127	0.809800	0.484700	0.599800
H1281	H128	0.759300	0.550600	0.701800
H1291	H129	0.706700	0.230900	0.795200
H1301	H130	0.710100	0.354700	0.810600
H1311	H131	0.504200	0.314700	0.707200
H1321	H132	0.507700	0.192400	0.694000
H1331	H133	0.673700	0.598000	0.860400
H1341	H134	0.668800	0.476000	0.852200
H1351	H135	0.547700	0.409800	0.682600
H1361	H136	0.556500	0.530200	0.692800
H1371	H137	0.524700	0.840800	0.202000
H1381	H138	0.583900	0.797000	0.099000
H1391	H139	0.392000	0.873500	0.037800
H1401	H140	0.341600	0.915600	0.141600
H1411	H141	0.038000	0.929700	0.815800
H1421	H142	0.086100	0.990900	0.920600
H1431	H143	0.875400	0.951900	0.981600
H1441	H144	0.837700	0.887800	0.877000
H1451	H145	0.698000	0.759900	0.914000
H1461	H146	0.646900	0.815100	0.017200
H1471	H147	0.426700	0.770700	0.938200
H1481	H148	0.483800	0.714700	0.838800
H1491	H149	0.735200	0.875200	0.648400
H1501	H150	0.826700	0.892000	0.644000
H1511	H151	0.765800	0.755600	0.640600
H1521	H152	0.801100	0.763900	0.580000
H1531	H153	0.910400	0.655100	0.595800
H1541	H154	0.848800	0.672900	0.652800
H1551	H155	0.985400	0.738200	0.586400
H1561	H156	0.926500	0.791000	0.571000
H1571	H157	0.863300	0.985300	0.744000
H1581	H158	0.823000	0.993500	0.808400
H1591	H159	0.678600	0.873900	0.734000
H1601	H160	0.716100	0.917100	0.804200
C11	C1	0.301500	0.893100	0.381800
C21	C2	0.272300	0.915700	0.443800
C31	C3	0.275700	0.990790	0.487980
C41	C4	0.309800	0.041460	0.467320
C51	C5	0.337500	0.013500	0.403400
C61	C6	0.164000	0.999590	0.634980
C71	C7	0.189500	0.974160	0.571520
C81	C8	0.244400	0.018100	0.556000
C91	C9	0.271700	0.084900	0.607200
C101	C10	0.241900	0.105570	0.668340
C111	C11	0.165600	0.528900	0.777200
C121	C12	0.168300	0.463900	0.786800
C131	C13	0.107300	0.410310	0.760020
C141	C14	0.046500	0.426600	0.725400
C151	C15	0.048500	0.492000	0.717800
C161	C16	0.149600	0.264500	0.824000
C171	C17	0.145800	0.333300	0.819200
C181	C18	0.109200	0.339240	0.767280
C191	C19	0.074200	0.271900	0.718600
C201	C20	0.080000	0.206200	0.725000
C211	C21	0.997800	0.321450	0.168500
C221	C22	0.034100	0.285400	0.106000
C231	C23	0.996000	0.227200	0.057000
C241	C24	0.920600	0.203900	0.070000
C251	C25	0.890600	0.242100	0.132600
C261	C26	0.505400	0.917300	0.849800
C271	C27	0.534300	0.942400	0.913000
C281	C28	0.486500	0.986300	0.965200
C291	C29	0.411200	0.001700	0.948800
C301	C30	0.388900	0.976500	0.885800
C311	C31	0.142600	0.157400	0.919200
C321	C32	0.111900	0.186300	0.981400
C331	C33	0.030900	0.192300	0.991400
C341	C34	0.982400	0.166400	0.935000
C351	C35	0.017400	0.139500	0.875400
C361	C36	0.289100	0.793920	0.659640
C371	C37	0.305400	0.844890	0.627180
C381	C38	0.397700	0.950320	0.640440
C391	C39	0.466300	0.993490	0.686380
C401	C40	0.451800	0.823400	0.606200
C411	C41	0.504400	0.795600	0.645600
C421	C42	0.313500	0.784630	0.762060
C431	C43	0.251500	0.724430	0.755060
C441	C44	0.225100	0.884600	0.761000
C451	C45	0.231700	0.965060	0.766920
C461	C46	0.198500	0.511300	0.618200
C471	C47	0.227700	0.471900	0.556200
C481	C48	0.224300	0.502810	0.512020
C491	C49	0.190200	0.574140	0.532680
C501	C50	0.162500	0.610100	0.596600
C511	C51	0.336000	0.364610	0.365020
C521	C52	0.310500	0.402640	0.428480
C531	C53	0.255600	0.462100	0.444000
C541	C54	0.228300	0.477700	0.392800
C551	C55	0.258100	0.437230	0.331660
C561	C56	0.334400	0.751700	0.222800
C571	C57	0.331700	0.677100	0.213200
C581	C58	0.392700	0.650290	0.239980
C591	C59	0.453500	0.701200	0.274600
C601	C60	0.451500	0.774200	0.282200
C611	C61	0.350400	0.440500	0.176000
C621	C62	0.354200	0.514100	0.180800
C631	C63	0.390800	0.571960	0.232720
C641	C64	0.425800	0.553300	0.281400
C651	C65	0.420000	0.481200	0.275000
C661	C66	0.502200	0.152950	0.831500
C671	C67	0.465900	0.179400	0.894000
C681	C68	0.504000	0.170200	0.943000
C691	C69	0.579400	0.133900	0.930000
C701	C70	0.609400	0.109500	0.867400
C711	C71	0.994600	0.067500	0.150200
C721	C72	0.965700	0.029400	0.087000
C731	C73	0.013500	0.021100	0.034800
C741	C74	0.088800	0.052900	0.051200
C751	C75	0.111100	0.090700	0.114200
C761	C76	0.357400	0.238200	0.080800
C771	C77	0.388100	0.204900	0.018600
C781	C78	0.469100	0.200900	0.008600
C791	C79	0.517600	0.231400	0.065000
C801	C80	0.482600	0.264100	0.124600
C811	C81	0.210900	0.134280	0.340360
C821	C82	0.194600	0.217710	0.372820
C831	C83	0.102300	0.309880	0.359560
C841	C84	0.033700	0.307110	0.313620
C851	C85	0.048200	0.217200	0.393800
C861	C86	0.995600	0.150000	0.354400
C871	C87	0.186500	0.022570	0.237940
C881	C88	0.248500	0.969370	0.244940
C891	C89	0.274900	0.123600	0.239000
C901	C90	0.268300	0.198140	0.233080
C911	C91	0.698500	0.106900	0.618200
C921	C92	0.727700	0.084300	0.556200
C931	C93	0.724300	0.009210	0.512020
C941	C94	0.690200	0.958540	0.532680
C951	C95	0.662500	0.986500	0.596600
C961	C96	0.836000	0.000410	0.365020
C971	C97	0.810500	0.025840	0.428480
C981	C98	0.755600	0.981900	0.444000
C991	C99	0.728300	0.915100	0.392800
C1001	C100	0.758100	0.894430	0.331660
C1011	C101	0.834400	0.471100	0.222800
C1021	C102	0.831700	0.536100	0.213200
C1031	C103	0.892700	0.589690	0.239980
C1041	C104	0.953500	0.573400	0.274600
C1051	C105	0.951500	0.508000	0.282200
C1061	C106	0.850400	0.735500	0.176000
C1071	C107	0.854200	0.666700	0.180800
C1081	C108	0.890800	0.660760	0.232720
C1091	C109	0.925800	0.728100	0.281400
C1101	C110	0.920000	0.793800	0.275000
C1111	C111	0.002200	0.678550	0.831500
C1121	C112	0.965900	0.714600	0.894000
C1131	C113	0.004000	0.772800	0.943000
C1141	C114	0.079400	0.796100	0.930000
C1151	C115	0.109400	0.757900	0.867400
C1161	C116	0.494600	0.082700	0.150200
C1171	C117	0.465700	0.057600	0.087000
C1181	C118	0.513500	0.013700	0.034800
C1191	C119	0.588800	0.998300	0.051200
C1201	C120	0.611100	0.023500	0.114200
C1211	C121	0.857400	0.842600	0.080800
C1221	C122	0.888100	0.813700	0.018600
C1231	C123	0.969100	0.807700	0.008600
C1241	C124	0.017600	0.833600	0.065000
C1251	C125	0.982600	0.860500	0.124600
C1261	C126	0.710900	0.206080	0.340360
C1271	C127	0.694600	0.155110	0.372820
C1281	C128	0.602300	0.049680	0.359560
C1291	C129	0.533700	0.006510	0.313620
C1301	C130	0.548200	0.176600	0.393800
C1311	C131	0.495600	0.204400	0.354400
C1321	C132	0.686500	0.215370	0.237940
C1331	C133	0.748500	0.275570	0.244940
C1341	C134	0.774900	0.115400	0.239000
C1351	C135	0.768300	0.034940	0.233080
C1361	C136	0.801500	0.488700	0.381800
C1371	C137	0.772300	0.528100	0.443800
C1381	C138	0.775700	0.497190	0.487980
C1391	C139	0.809800	0.425860	0.467320
C1401	C140	0.837500	0.389900	0.403400
C1411	C141	0.664000	0.635390	0.634980
C1421	C142	0.689500	0.597360	0.571520
C1431	C143	0.744400	0.537900	0.556000
C1441	C144	0.771700	0.522300	0.607200
C1451	C145	0.741900	0.562770	0.668340
C1461	C146	0.665600	0.248300	0.777200
C1471	C147	0.668300	0.322900	0.786800
C1481	C148	0.607300	0.349710	0.760020
C1491	C149	0.546500	0.298800	0.725400
C1501	C150	0.548500	0.225800	0.717800
C1511	C151	0.649600	0.559500	0.824000
C1521	C152	0.645800	0.485900	0.819200
C1531	C153	0.609200	0.428040	0.767280
C1541	C154	0.574200	0.446700	0.718600
C1551	C155	0.580000	0.518800	0.725000
C1561	C156	0.497800	0.847050	0.168500
C1571	C157	0.534100	0.820600	0.106000
C1581	C158	0.496000	0.829800	0.057000
C1591	C159	0.420600	0.866100	0.070000
C1601	C160	0.390600	0.890500	0.132600
C1611	C161	0.005400	0.932500	0.849800
C1621	C162	0.034300	0.970600	0.913000
C1631	C163	0.986500	0.978900	0.965200
C1641	C164	0.911200	0.947100	0.948800
C1651	C165	0.888900	0.909300	0.885800
C1661	C166	0.642600	0.761800	0.919200
C1671	C167	0.611900	0.795100	0.981400
C1681	C168	0.530900	0.799100	0.991400
C1691	C169	0.482400	0.768600	0.935000
C1701	C170	0.517400	0.735900	0.875400
C1711	C171	0.789100	0.865720	0.659640
C1721	C172	0.805400	0.782290	0.627180
C1731	C173	0.897700	0.690120	0.640440
C1741	C174	0.966300	0.692890	0.686380
C1751	C175	0.951800	0.782800	0.606200
C1761	C176	0.004400	0.850000	0.645600
C1771	C177	0.813500	0.977430	0.762060
C1781	C178	0.751500	0.030630	0.755060
C1791	C179	0.725100	0.876400	0.761000
C1801	C180	0.731700	0.801860	0.766920
N11	N1	0.334000	0.941270	0.361540
N21	N2	0.188800	0.063600	0.682600
N31	N3	0.108600	0.543710	0.744220
N41	N4	0.117800	0.200710	0.775420
N51	N5	0.927100	0.299780	0.179960
N61	N6	0.434000	0.935160	0.835120
N71	N7	0.095800	0.133660	0.865720
N81	N8	0.386700	0.878170	0.645140
N91	N9	0.297400	0.837160	0.732520
N101	N10	0.166000	0.579730	0.638460
N111	N11	0.311200	0.381000	0.317400
N121	N12	0.391400	0.799490	0.255780
N131	N13	0.382200	0.425290	0.224580
N141	N14	0.572900	0.119820	0.820040
N151	N15	0.066000	0.100040	0.164880
N161	N16	0.404200	0.267940	0.134280
N171	N17	0.113300	0.233030	0.354860
N181	N18	0.202600	0.104640	0.267480
N191	N19	0.666000	0.058730	0.638460
N201	N20	0.811200	0.936400	0.317400
N211	N21	0.891400	0.456290	0.255780
N221	N22	0.882200	0.799290	0.224580
N231	N23	0.072900	0.700220	0.820040
N241	N24	0.566000	0.064840	0.164880
N251	N25	0.904200	0.866340	0.134280
N261	N26	0.613300	0.121830	0.354860
N271	N27	0.702600	0.162840	0.267480
N281	N28	0.834000	0.420270	0.361540
N291	N29	0.688800	0.619000	0.682600
N301	N30	0.608600	0.200510	0.744220
N311	N31	0.617800	0.574710	0.775420
N321	N32	0.427100	0.880180	0.179960
N331	N33	0.934000	0.899960	0.835120
N341	N34	0.595800	0.732060	0.865720
N351	N35	0.886700	0.766970	0.645140
N361	N36	0.797400	0.895360	0.732520
O11	O1	0.481500	0.977010	0.733420
O21	O2	0.503000	0.044060	0.676920
O31	O3	0.484000	0.805790	0.701780
O41	O4	0.568800	0.766600	0.620000
O51	O5	0.181700	0.729430	0.734260
O61	O6	0.270500	0.674740	0.771880
O71	O7	0.299400	0.992060	0.765120
O81	O8	0.165700	0.999000	0.775600
O91	O9	0.018500	0.243590	0.266580
O101	O10	0.997000	0.367140	0.323080
O111	O11	0.016000	0.104010	0.298220
O121	O12	0.931200	0.146600	0.380000
O131	O13	0.318300	0.995170	0.265740
O141	O14	0.229500	0.902860	0.228120
O151	O15	0.200600	0.226940	0.234880
O161	O16	0.334300	0.223400	0.224400
O171	O17	0.518500	0.022990	0.266580
O181	O18	0.497000	0.955940	0.323080
O191	O19	0.516000	0.194210	0.298220
O201	O20	0.431200	0.233400	0.380000
O211	O21	0.818300	0.270570	0.265740
O221	O22	0.729500	0.325260	0.228120
O231	O23	0.700600	0.007940	0.234880
O241	O24	0.834300	0.001000	0.224400
O251	O25	0.981500	0.756410	0.733420
O261	O26	0.003000	0.632860	0.676920
O271	O27	0.984000	0.895990	0.701780
O281	O28	0.068800	0.853400	0.620000
O291	O29	0.681700	0.004830	0.734260
O301	O30	0.770500	0.097140	0.771880
O311	O31	0.799400	0.773060	0.765120
O321	O32	0.665700	0.776600	0.775600
