data_UFUTIY_freeONLY_PM
_symmetry_space_group_name_H-M	'P1'
_cell_length_a	9.794900
_cell_length_b	9.922400
_cell_length_c	12.840100
_cell_angle_alpha	74.840000
_cell_angle_beta	74.238000
_cell_angle_gamma	85.782000
_symmetry_Int_Tables_number 1

loop_
_symmetry_equiv_pos_as_xyz
'x,y,z'

loop_
_atom_site_label
_atom_site_type_symbol
_atom_site_fract_x
_atom_site_fract_y
_atom_site_fract_z
Cu11	Cu1	0.878530	0.649320	0.720490
Cu21	Cu2	0.231090	0.480960	0.729890
Cu31	Cu3	0.121470	0.350680	0.279510
Cu41	Cu4	0.768910	0.519040	0.270110
Mo11	Mo1	0.154570	0.888380	0.693770
Mo21	Mo2	0.435610	0.120710	0.584720
Mo31	Mo3	0.475030	0.758390	0.682300
Mo41	Mo4	0.253200	0.005890	0.421210
Mo51	Mo5	0.845430	0.111620	0.306230
Mo61	Mo6	0.564390	0.879290	0.415280
Mo71	Mo7	0.524970	0.241610	0.317700
Mo81	Mo8	0.746800	0.994110	0.578790
H11	H1	0.843700	0.368000	0.097200
H21	H2	0.767600	0.796600	0.895200
H31	H3	0.878000	0.407700	0.911600
H41	H4	0.702300	0.758200	0.187500
H51	H5	0.782200	0.869300	0.080900
H61	H6	0.624000	0.832100	0.096200
H71	H7	0.673300	0.416100	0.507300
H81	H8	0.733000	0.433400	0.765300
H91	H9	0.599900	0.416500	0.724200
H101	H10	0.727000	0.311200	0.710100
H111	H11	0.955800	0.702500	0.322700
H121	H12	0.993800	0.737600	0.482900
H131	H13	0.156300	0.632000	0.902800
H141	H14	0.232400	0.203400	0.104800
H151	H15	0.122000	0.592300	0.088400
H161	H16	0.297700	0.241800	0.812500
H171	H17	0.217800	0.130700	0.919100
H181	H18	0.376000	0.167900	0.903800
H191	H19	0.326700	0.583900	0.492700
H201	H20	0.267000	0.566600	0.234700
H211	H21	0.400100	0.583500	0.275800
H221	H22	0.273000	0.688800	0.289900
H231	H23	0.044200	0.297500	0.677300
H241	H24	0.006200	0.262400	0.517100
C11	C1	0.761800	0.683400	0.049700
C21	C2	0.828700	0.457700	0.056700
C31	C3	0.786200	0.708100	0.935700
C41	C4	0.851200	0.481600	0.945000
C51	C5	0.713300	0.795700	0.108800
C61	C6	0.769900	0.499500	0.595300
C71	C7	0.741000	0.481400	0.500200
C81	C8	0.701200	0.406700	0.709100
C91	C9	0.905300	0.650500	0.392300
C101	C10	0.929200	0.670100	0.488900
C111	C11	0.238200	0.316600	0.950300
C121	C12	0.171300	0.542300	0.943300
C131	C13	0.213800	0.291900	0.064300
C141	C14	0.148800	0.518400	0.055000
C151	C15	0.286700	0.204300	0.891200
C161	C16	0.230100	0.500500	0.404700
C171	C17	0.259000	0.518600	0.499800
C181	C18	0.298800	0.593300	0.290900
C191	C19	0.094700	0.349500	0.607700
C201	C20	0.070800	0.329900	0.511100
N11	N1	0.835800	0.609700	0.880900
N21	N2	0.807500	0.554900	0.399200
N31	N3	0.862500	0.595000	0.589900
N41	N4	0.786400	0.555200	0.111300
N51	N5	0.164200	0.390300	0.119100
N61	N6	0.192500	0.445100	0.600800
N71	N7	0.137500	0.405000	0.410100
N81	N8	0.213600	0.444800	0.888700
O11	O1	0.110300	0.728900	0.680600
O21	O2	0.482000	0.270000	0.605100
O31	O3	0.300800	0.816200	0.767900
O41	O4	0.418000	0.612700	0.657500
O51	O5	0.544100	0.983500	0.667300
O61	O6	0.215100	0.852300	0.401200
O71	O7	0.562100	0.695200	0.782500
O81	O8	0.022300	0.924000	0.799100
O91	O9	0.365100	0.191100	0.452100
O101	O10	0.383700	0.911500	0.545500
O111	O11	0.269700	0.080700	0.680500
O121	O12	0.123200	0.007500	0.560400
O131	O13	0.183900	0.133500	0.330300
O141	O14	0.889700	0.271100	0.319400
O151	O15	0.518000	0.730000	0.394900
O161	O16	0.699200	0.183800	0.232100
O171	O17	0.582000	0.387300	0.342500
O181	O18	0.455900	0.016500	0.332700
O191	O19	0.784900	0.147700	0.598800
O201	O20	0.437900	0.304800	0.217500
O211	O21	0.977700	0.076000	0.200900
O221	O22	0.634900	0.808900	0.547900
O231	O23	0.616300	0.088500	0.454500
O241	O24	0.730300	0.919300	0.319500
O251	O25	0.876800	0.992500	0.439600
O261	O26	0.816100	0.866500	0.669700
