data_UGAQEY_freeONLY_PM
_symmetry_space_group_name_H-M	'P1'
_cell_length_a	13.186600
_cell_length_b	13.186600
_cell_length_c	29.457700
_cell_angle_alpha	90.000000
_cell_angle_beta	90.000000
_cell_angle_gamma	90.000000
_symmetry_Int_Tables_number 1

loop_
_symmetry_equiv_pos_as_xyz
'x,y,z'

loop_
_atom_site_label
_atom_site_type_symbol
_atom_site_fract_x
_atom_site_fract_y
_atom_site_fract_z
Ni11	Ni1	0.738510	0.719690	0.367080
Ni21	Ni2	0.261490	0.280310	0.867080
Ni31	Ni3	0.780310	0.238510	0.117080
Ni41	Ni4	0.219690	0.761490	0.617080
Ni51	Ni5	0.761490	0.219690	0.382920
Ni61	Ni6	0.238510	0.780310	0.882920
Ni71	Ni7	0.719690	0.738510	0.632920
Ni81	Ni8	0.280310	0.261490	0.132920
Mo11	Mo1	0.619030	0.463710	0.380030
Mo21	Mo2	0.380970	0.536290	0.880030
Mo31	Mo3	0.036290	0.119030	0.130030
Mo41	Mo4	0.963710	0.880970	0.630030
Mo51	Mo5	0.880970	0.963710	0.369970
Mo61	Mo6	0.119030	0.036290	0.869970
Mo71	Mo7	0.463710	0.619030	0.619970
Mo81	Mo8	0.536290	0.380970	0.119970
H11	H1	0.857700	0.536100	0.393800
H21	H2	0.991500	0.488400	0.439500
H31	H3	0.947100	0.749900	0.508900
H41	H4	0.825200	0.790300	0.457500
H51	H5	0.151100	0.939100	0.562100
H61	H6	0.175500	0.018200	0.492000
H71	H7	0.300600	0.957800	0.442900
H81	H8	0.375300	0.755400	0.539500
H91	H9	0.627100	0.657800	0.455900
H101	H10	0.491700	0.700000	0.497900
H111	H11	0.438700	0.927100	0.411400
H121	H12	0.575200	0.878400	0.371700
H131	H13	0.257700	0.530800	0.600300
H141	H14	0.204600	0.402600	0.552200
H151	H15	0.085100	0.434400	0.498000
H161	H16	0.092600	0.725900	0.537600
H171	H17	0.142300	0.463900	0.893800
H181	H18	0.008500	0.511600	0.939500
H191	H19	0.052900	0.250100	0.008900
H201	H20	0.174800	0.209700	0.957500
H211	H21	0.848900	0.060900	0.062100
H221	H22	0.824500	0.981800	0.992000
H231	H23	0.699400	0.042200	0.942900
H241	H24	0.624700	0.244600	0.039500
H251	H25	0.372900	0.342200	0.955900
H261	H26	0.508300	0.300000	0.997900
H271	H27	0.561300	0.072900	0.911400
H281	H28	0.424800	0.121600	0.871700
H291	H29	0.742300	0.469200	0.100300
H301	H30	0.795400	0.597400	0.052200
H311	H31	0.914900	0.565600	0.998000
H321	H32	0.907400	0.274100	0.037600
H331	H33	0.963900	0.357700	0.143800
H341	H34	0.011600	0.491500	0.189500
H351	H35	0.750100	0.447100	0.258900
H361	H36	0.709700	0.325200	0.207500
H371	H37	0.560900	0.651100	0.312100
H381	H38	0.481800	0.675500	0.242000
H391	H39	0.542200	0.800600	0.192900
H401	H40	0.744600	0.875300	0.289500
H411	H41	0.842200	0.127100	0.205900
H421	H42	0.800000	0.991700	0.247900
H431	H43	0.572900	0.938700	0.161400
H441	H44	0.621600	0.075200	0.121700
H451	H45	0.969200	0.757700	0.350300
H461	H46	0.097400	0.704600	0.302200
H471	H47	0.065600	0.585100	0.248000
H481	H48	0.774100	0.592600	0.287600
H491	H49	0.036100	0.642300	0.643800
H501	H50	0.988400	0.508500	0.689500
H511	H51	0.249900	0.552900	0.758900
H521	H52	0.290300	0.674800	0.707500
H531	H53	0.439100	0.348900	0.812100
H541	H54	0.518200	0.324500	0.742000
H551	H55	0.457800	0.199400	0.692900
H561	H56	0.255400	0.124700	0.789500
H571	H57	0.157800	0.872900	0.705900
H581	H58	0.200000	0.008300	0.747900
H591	H59	0.427100	0.061300	0.661400
H601	H60	0.378400	0.924800	0.621700
H611	H61	0.030800	0.242300	0.850300
H621	H62	0.902600	0.295400	0.802200
H631	H63	0.934400	0.414900	0.748000
H641	H64	0.225900	0.407400	0.787600
H651	H65	0.642300	0.036100	0.356200
H661	H66	0.508500	0.988400	0.310500
H671	H67	0.552900	0.249900	0.241100
H681	H68	0.674800	0.290300	0.292500
H691	H69	0.348900	0.439100	0.187900
H701	H70	0.324500	0.518200	0.258000
H711	H71	0.199400	0.457800	0.307100
H721	H72	0.124700	0.255400	0.210500
H731	H73	0.872900	0.157800	0.294100
H741	H74	0.008300	0.200000	0.252100
H751	H75	0.061300	0.427100	0.338600
H761	H76	0.924800	0.378400	0.378300
H771	H77	0.242300	0.030800	0.149700
H781	H78	0.295400	0.902600	0.197800
H791	H79	0.414900	0.934400	0.252000
H801	H80	0.407400	0.225900	0.212400
H811	H81	0.357700	0.963900	0.856200
H821	H82	0.491500	0.011600	0.810500
H831	H83	0.447100	0.750100	0.741100
H841	H84	0.325200	0.709700	0.792500
H851	H85	0.651100	0.560900	0.687900
H861	H86	0.675500	0.481800	0.758000
H871	H87	0.800600	0.542200	0.807100
H881	H88	0.875300	0.744600	0.710500
H891	H89	0.127100	0.842200	0.794100
H901	H90	0.991700	0.800000	0.752100
H911	H91	0.938700	0.572900	0.838600
H921	H92	0.075200	0.621600	0.878300
H931	H93	0.757700	0.969200	0.649700
H941	H94	0.704600	0.097400	0.697800
H951	H95	0.585100	0.065600	0.752000
H961	H96	0.592600	0.774100	0.712400
H971	H97	0.536100	0.857700	0.606200
H981	H98	0.488400	0.991500	0.560500
H991	H99	0.749900	0.947100	0.491100
H1001	H100	0.790300	0.825200	0.542500
H1011	H101	0.939100	0.151100	0.437900
H1021	H102	0.018200	0.175500	0.508000
H1031	H103	0.957800	0.300600	0.557100
H1041	H104	0.755400	0.375300	0.460500
H1051	H105	0.657800	0.627100	0.544100
H1061	H106	0.700000	0.491700	0.502100
H1071	H107	0.927100	0.438700	0.588600
H1081	H108	0.878400	0.575200	0.628300
H1091	H109	0.530800	0.257700	0.399700
H1101	H110	0.402600	0.204600	0.447800
H1111	H111	0.434400	0.085100	0.502000
H1121	H112	0.725900	0.092600	0.462400
H1131	H113	0.463900	0.142300	0.106200
H1141	H114	0.511600	0.008500	0.060500
H1151	H115	0.250100	0.052900	0.991100
H1161	H116	0.209700	0.174800	0.042500
H1171	H117	0.060900	0.848900	0.937900
H1181	H118	0.981800	0.824500	0.008000
H1191	H119	0.042200	0.699400	0.057100
H1201	H120	0.244600	0.624700	0.960500
H1211	H121	0.342200	0.372900	0.044100
H1221	H122	0.300000	0.508300	0.002100
H1231	H123	0.072900	0.561300	0.088600
H1241	H124	0.121600	0.424800	0.128300
H1251	H125	0.469200	0.742300	0.899700
H1261	H126	0.597400	0.795400	0.947800
H1271	H127	0.565600	0.914900	0.002000
H1281	H128	0.274100	0.907400	0.962400
C11	C1	0.878400	0.580500	0.416600
C21	C2	0.958400	0.549600	0.444700
C31	C3	0.987500	0.612200	0.480600
C41	C4	0.932500	0.705600	0.485200
C51	C5	0.858400	0.728500	0.454400
C61	C6	0.202800	0.916400	0.543200
C71	C7	0.216800	0.964300	0.500600
C81	C8	0.292700	0.929900	0.471700
C91	C9	0.357200	0.852200	0.486700
C101	C10	0.335300	0.809100	0.529600
C111	C11	0.588100	0.712600	0.446400
C121	C12	0.506800	0.737600	0.472100
C131	C13	0.445700	0.819300	0.459900
C141	C14	0.475700	0.871100	0.421100
C151	C15	0.557700	0.841400	0.397400
C161	C16	0.211300	0.545900	0.577500
C171	C17	0.178000	0.467500	0.549000
C181	C18	0.107500	0.486100	0.517000
C191	C19	0.067900	0.585900	0.512700
C201	C20	0.112700	0.658900	0.541600
C211	C21	0.121600	0.419500	0.916600
C221	C22	0.041600	0.450400	0.944700
C231	C23	0.012500	0.387800	0.980600
C241	C24	0.067500	0.294400	0.985200
C251	C25	0.141600	0.271500	0.954400
C261	C26	0.797200	0.083600	0.043200
C271	C27	0.783200	0.035700	0.000600
C281	C28	0.707300	0.070100	0.971700
C291	C29	0.642800	0.147800	0.986700
C301	C30	0.664700	0.190900	0.029600
C311	C31	0.411900	0.287400	0.946400
C321	C32	0.493200	0.262400	0.972100
C331	C33	0.554300	0.180700	0.959900
C341	C34	0.524300	0.128900	0.921100
C351	C35	0.442300	0.158600	0.897400
C361	C36	0.788700	0.454100	0.077500
C371	C37	0.822000	0.532500	0.049000
C381	C38	0.892500	0.513900	0.017000
C391	C39	0.932100	0.414100	0.012700
C401	C40	0.887300	0.341100	0.041600
C411	C41	0.919500	0.378400	0.166600
C421	C42	0.950400	0.458400	0.194700
C431	C43	0.887800	0.487500	0.230600
C441	C44	0.794400	0.432500	0.235200
C451	C45	0.771500	0.358400	0.204400
C461	C46	0.583600	0.702800	0.293200
C471	C47	0.535700	0.716800	0.250600
C481	C48	0.570100	0.792700	0.221700
C491	C49	0.647800	0.857200	0.236700
C501	C50	0.690900	0.835300	0.279600
C511	C51	0.787400	0.088100	0.196400
C521	C52	0.762400	0.006800	0.222100
C531	C53	0.680700	0.945700	0.209900
C541	C54	0.628900	0.975700	0.171100
C551	C55	0.658600	0.057700	0.147400
C561	C56	0.954100	0.711300	0.327500
C571	C57	0.032500	0.678000	0.299000
C581	C58	0.013900	0.607500	0.267000
C591	C59	0.914100	0.567900	0.262700
C601	C60	0.841100	0.612700	0.291600
C611	C61	0.080500	0.621600	0.666600
C621	C62	0.049600	0.541600	0.694700
C631	C63	0.112200	0.512500	0.730600
C641	C64	0.205600	0.567500	0.735200
C651	C65	0.228500	0.641600	0.704400
C661	C66	0.416400	0.297200	0.793200
C671	C67	0.464300	0.283200	0.750600
C681	C68	0.429900	0.207300	0.721700
C691	C69	0.352200	0.142800	0.736700
C701	C70	0.309100	0.164700	0.779600
C711	C71	0.212600	0.911900	0.696400
C721	C72	0.237600	0.993200	0.722100
C731	C73	0.319300	0.054300	0.709900
C741	C74	0.371100	0.024300	0.671100
C751	C75	0.341400	0.942300	0.647400
C761	C76	0.045900	0.288700	0.827500
C771	C77	0.967500	0.322000	0.799000
C781	C78	0.986100	0.392500	0.767000
C791	C79	0.085900	0.432100	0.762700
C801	C80	0.158900	0.387300	0.791600
C811	C81	0.621600	0.080500	0.333400
C821	C82	0.541600	0.049600	0.305300
C831	C83	0.512500	0.112200	0.269400
C841	C84	0.567500	0.205600	0.264800
C851	C85	0.641600	0.228500	0.295600
C861	C86	0.297200	0.416400	0.206800
C871	C87	0.283200	0.464300	0.249400
C881	C88	0.207300	0.429900	0.278300
C891	C89	0.142800	0.352200	0.263300
C901	C90	0.164700	0.309100	0.220400
C911	C91	0.911900	0.212600	0.303600
C921	C92	0.993200	0.237600	0.277900
C931	C93	0.054300	0.319300	0.290100
C941	C94	0.024300	0.371100	0.328900
C951	C95	0.942300	0.341400	0.352600
C961	C96	0.288700	0.045900	0.172500
C971	C97	0.322000	0.967500	0.201000
C981	C98	0.392500	0.986100	0.233000
C991	C99	0.432100	0.085900	0.237300
C1001	C100	0.387300	0.158900	0.208400
C1011	C101	0.378400	0.919500	0.833400
C1021	C102	0.458400	0.950400	0.805300
C1031	C103	0.487500	0.887800	0.769400
C1041	C104	0.432500	0.794400	0.764800
C1051	C105	0.358400	0.771500	0.795600
C1061	C106	0.702800	0.583600	0.706800
C1071	C107	0.716800	0.535700	0.749400
C1081	C108	0.792700	0.570100	0.778300
C1091	C109	0.857200	0.647800	0.763300
C1101	C110	0.835300	0.690900	0.720400
C1111	C111	0.088100	0.787400	0.803600
C1121	C112	0.006800	0.762400	0.777900
C1131	C113	0.945700	0.680700	0.790100
C1141	C114	0.975700	0.628900	0.828900
C1151	C115	0.057700	0.658600	0.852600
C1161	C116	0.711300	0.954100	0.672500
C1171	C117	0.678000	0.032500	0.701000
C1181	C118	0.607500	0.013900	0.733000
C1191	C119	0.567900	0.914100	0.737300
C1201	C120	0.612700	0.841100	0.708400
C1211	C121	0.580500	0.878400	0.583400
C1221	C122	0.549600	0.958400	0.555300
C1231	C123	0.612200	0.987500	0.519400
C1241	C124	0.705600	0.932500	0.514800
C1251	C125	0.728500	0.858400	0.545600
C1261	C126	0.916400	0.202800	0.456800
C1271	C127	0.964300	0.216800	0.499400
C1281	C128	0.929900	0.292700	0.528300
C1291	C129	0.852200	0.357200	0.513300
C1301	C130	0.809100	0.335300	0.470400
C1311	C131	0.712600	0.588100	0.553600
C1321	C132	0.737600	0.506800	0.527900
C1331	C133	0.819300	0.445700	0.540100
C1341	C134	0.871100	0.475700	0.578900
C1351	C135	0.841400	0.557700	0.602600
C1361	C136	0.545900	0.211300	0.422500
C1371	C137	0.467500	0.178000	0.451000
C1381	C138	0.486100	0.107500	0.483000
C1391	C139	0.585900	0.067900	0.487300
C1401	C140	0.658900	0.112700	0.458400
C1411	C141	0.419500	0.121600	0.083400
C1421	C142	0.450400	0.041600	0.055300
C1431	C143	0.387800	0.012500	0.019400
C1441	C144	0.294400	0.067500	0.014800
C1451	C145	0.271500	0.141600	0.045600
C1461	C146	0.083600	0.797200	0.956800
C1471	C147	0.035700	0.783200	0.999400
C1481	C148	0.070100	0.707300	0.028300
C1491	C149	0.147800	0.642800	0.013300
C1501	C150	0.190900	0.664700	0.970400
C1511	C151	0.287400	0.411900	0.053600
C1521	C152	0.262400	0.493200	0.027900
C1531	C153	0.180700	0.554300	0.040100
C1541	C154	0.128900	0.524300	0.078900
C1551	C155	0.158600	0.442300	0.102600
C1561	C156	0.454100	0.788700	0.922500
C1571	C157	0.532500	0.822000	0.951000
C1581	C158	0.513900	0.892500	0.983000
C1591	C159	0.414100	0.932100	0.987300
C1601	C160	0.341100	0.887300	0.958400
N11	N1	0.830200	0.667900	0.419900
N21	N2	0.616800	0.760400	0.408700
N31	N3	0.260500	0.840800	0.557000
N41	N4	0.178900	0.641600	0.573100
N51	N5	0.169800	0.332100	0.919900
N61	N6	0.383200	0.239600	0.908700
N71	N7	0.739500	0.159200	0.057000
N81	N8	0.821100	0.358400	0.073100
N91	N9	0.832100	0.330200	0.169900
N101	N10	0.739600	0.116800	0.158700
N111	N11	0.659200	0.760500	0.307000
N121	N12	0.858400	0.678900	0.323100
N131	N13	0.167900	0.669800	0.669900
N141	N14	0.260400	0.883200	0.658700
N151	N15	0.340800	0.239500	0.807000
N161	N16	0.141600	0.321100	0.823100
N171	N17	0.669800	0.167900	0.330100
N181	N18	0.883200	0.260400	0.341300
N191	N19	0.239500	0.340800	0.193000
N201	N20	0.321100	0.141600	0.176900
N211	N21	0.330200	0.832100	0.830100
N221	N22	0.116800	0.739600	0.841300
N231	N23	0.760500	0.659200	0.693000
N241	N24	0.678900	0.858400	0.676900
N251	N25	0.667900	0.830200	0.580100
N261	N26	0.760400	0.616800	0.591300
N271	N27	0.840800	0.260500	0.443000
N281	N28	0.641600	0.178900	0.426900
N291	N29	0.332100	0.169800	0.080100
N301	N30	0.239600	0.383200	0.091300
N311	N31	0.159200	0.739500	0.943000
N321	N32	0.358400	0.821100	0.926900
O11	O1	0.583300	0.470700	0.436500
O21	O2	0.681400	0.577700	0.363100
O31	O3	0.512800	0.445400	0.344700
O41	O4	0.706000	0.362500	0.375300
O51	O5	0.416700	0.529300	0.936500
O61	O6	0.318600	0.422300	0.863100
O71	O7	0.487200	0.554600	0.844700
O81	O8	0.294000	0.637500	0.875300
O91	O9	0.029300	0.083300	0.186500
O101	O10	0.922300	0.181400	0.113100
O111	O11	0.054600	0.012800	0.094700
O121	O12	0.137500	0.206000	0.125300
O131	O13	0.970700	0.916700	0.686500
O141	O14	0.077700	0.818600	0.613100
O151	O15	0.945400	0.987200	0.594700
O161	O16	0.862500	0.794000	0.625300
O171	O17	0.916700	0.970700	0.313500
O181	O18	0.818600	0.077700	0.386900
O191	O19	0.987200	0.945400	0.405300
O201	O20	0.794000	0.862500	0.374700
O211	O21	0.083300	0.029300	0.813500
O221	O22	0.181400	0.922300	0.886900
O231	O23	0.012800	0.054600	0.905300
O241	O24	0.206000	0.137500	0.874700
O251	O25	0.470700	0.583300	0.563500
O261	O26	0.577700	0.681400	0.636900
O271	O27	0.445400	0.512800	0.655300
O281	O28	0.362500	0.706000	0.624700
O291	O29	0.529300	0.416700	0.063500
O301	O30	0.422300	0.318600	0.136900
O311	O31	0.554600	0.487200	0.155300
O321	O32	0.637500	0.294000	0.124700
