data_UGEPEB01_freeONLY_PM
_symmetry_space_group_name_H-M	'P1'
_cell_length_a	3.552100
_cell_length_b	12.997700
_cell_length_c	15.866500
_cell_angle_alpha	90.000000
_cell_angle_beta	90.000000
_cell_angle_gamma	95.285000
_symmetry_Int_Tables_number 1

loop_
_symmetry_equiv_pos_as_xyz
'x,y,z'

loop_
_atom_site_label
_atom_site_type_symbol
_atom_site_fract_x
_atom_site_fract_y
_atom_site_fract_z
Cu11	Cu1	0.734440	0.504300	0.422540
Cu21	Cu2	0.765560	0.995700	0.922540
Cu31	Cu3	0.265560	0.495700	0.577460
Cu41	Cu4	0.234440	0.004300	0.077460
H11	H1	0.690000	0.367500	0.515000
H21	H2	0.022700	0.094300	0.375700
H31	H3	0.163700	0.335100	0.218100
H41	H4	0.161500	0.988900	0.266300
H51	H5	0.300200	0.223400	0.113400
H61	H6	0.810000	0.132500	0.015000
H71	H7	0.477300	0.405700	0.875700
H81	H8	0.336300	0.164900	0.718100
H91	H9	0.338500	0.511100	0.766300
H101	H10	0.199800	0.276600	0.613400
H111	H11	0.310000	0.632500	0.485000
H121	H12	0.977300	0.905700	0.624300
H131	H13	0.836300	0.664900	0.781900
H141	H14	0.838500	0.011100	0.733700
H151	H15	0.699800	0.776600	0.886600
H161	H16	0.190000	0.867500	0.985000
H171	H17	0.522700	0.594300	0.124300
H181	H18	0.663700	0.835100	0.281900
H191	H19	0.661500	0.488900	0.233700
H201	H20	0.800200	0.723400	0.386600
C11	C1	0.946400	0.297640	0.377840
C21	C2	0.066900	0.227170	0.308460
C31	C3	0.073900	0.122040	0.322500
C41	C4	0.157600	0.264730	0.229220
C51	C5	0.157900	0.059310	0.256330
C61	C6	0.239000	0.197120	0.166630
C71	C7	0.553600	0.202360	0.877840
C81	C8	0.433100	0.272830	0.808460
C91	C9	0.426100	0.377960	0.822500
C101	C10	0.342400	0.235270	0.729220
C111	C11	0.342100	0.440690	0.756330
C121	C12	0.261000	0.302880	0.666630
C131	C13	0.053600	0.702360	0.622160
C141	C14	0.933100	0.772830	0.691540
C151	C15	0.926100	0.877960	0.677500
C161	C16	0.842400	0.735270	0.770780
C171	C17	0.842100	0.940690	0.743670
C181	C18	0.761000	0.802880	0.833370
C191	C19	0.446400	0.797640	0.122160
C201	C20	0.566900	0.727170	0.191540
C211	C21	0.573900	0.622040	0.177500
C221	C22	0.657600	0.764730	0.270780
C231	C23	0.657900	0.559310	0.243670
C241	C24	0.739000	0.697120	0.333370
N11	N1	0.234100	0.094790	0.178860
N21	N2	0.265900	0.405210	0.678860
N31	N3	0.765900	0.905210	0.821140
N41	N4	0.734100	0.594790	0.321140
O11	O1	0.693600	0.430120	0.528420
O21	O2	0.964100	0.392660	0.358730
O31	O3	0.836900	0.257850	0.445400
O41	O4	0.806400	0.069880	0.028420
O51	O5	0.535900	0.107340	0.858730
O61	O6	0.663100	0.242150	0.945400
O71	O7	0.306400	0.569880	0.471580
O81	O8	0.035900	0.607340	0.641270
O91	O9	0.163100	0.742150	0.554600
O101	O10	0.193600	0.930120	0.971580
O111	O11	0.464100	0.892660	0.141270
O121	O12	0.336900	0.757850	0.054600
