data_UKUCAF_freeONLY_PM
_symmetry_space_group_name_H-M	'P1'
_cell_length_a	12.079000
_cell_length_b	12.079000
_cell_length_c	24.539000
_cell_angle_alpha	90.000000
_cell_angle_beta	90.000000
_cell_angle_gamma	90.000000
_symmetry_Int_Tables_number 1

loop_
_symmetry_equiv_pos_as_xyz
'x,y,z'

loop_
_atom_site_label
_atom_site_type_symbol
_atom_site_fract_x
_atom_site_fract_y
_atom_site_fract_z
Co11	Co1	0.750000	0.750000	0.922600
Co21	Co2	0.250000	0.250000	0.422600
H11	H1	0.582000	0.574500	0.877400
H21	H2	0.564500	0.436000	0.815500
H31	H3	0.864500	0.516700	0.757700
H41	H4	0.872100	0.650400	0.823500
H51	H5	0.804600	0.411000	0.684600
H61	H6	0.854600	0.328900	0.728100
H71	H7	0.818800	0.156200	0.610800
H81	H8	0.901900	0.173100	0.659600
H91	H9	0.097700	0.112400	0.497700
H101	H10	0.966300	0.122500	0.565800
H111	H11	0.014100	0.443600	0.566200
H121	H12	0.122400	0.424700	0.490900
H131	H13	0.528800	0.865900	0.900000
H141	H14	0.918000	0.925500	0.877400
H151	H15	0.935500	0.064000	0.815500
H161	H16	0.635500	0.983300	0.757700
H171	H17	0.627900	0.849600	0.823500
H181	H18	0.695400	0.089000	0.684600
H191	H19	0.645400	0.171100	0.728100
H201	H20	0.681200	0.343800	0.610800
H211	H21	0.598100	0.326900	0.659600
H221	H22	0.402300	0.387600	0.497700
H231	H23	0.533700	0.377500	0.565800
H241	H24	0.485900	0.056400	0.566200
H251	H25	0.377600	0.075300	0.490900
H261	H26	0.971200	0.634100	0.900000
H271	H27	0.425500	0.082000	0.377400
H281	H28	0.564000	0.064500	0.315500
H291	H29	0.483300	0.364500	0.257700
H301	H30	0.349600	0.372100	0.323500
H311	H31	0.589000	0.304600	0.184600
H321	H32	0.671100	0.354600	0.228100
H331	H33	0.843800	0.318800	0.110800
H341	H34	0.826900	0.401900	0.159600
H351	H35	0.887600	0.597700	0.997700
H361	H36	0.877500	0.466300	0.065800
H371	H37	0.556400	0.514100	0.066200
H381	H38	0.575300	0.622400	0.990900
H391	H39	0.134100	0.028800	0.400000
H401	H40	0.074500	0.418000	0.377400
H411	H41	0.936000	0.435500	0.315500
H421	H42	0.016700	0.135500	0.257700
H431	H43	0.150400	0.127900	0.323500
H441	H44	0.911000	0.195400	0.184600
H451	H45	0.828900	0.145400	0.228100
H461	H46	0.656200	0.181200	0.110800
H471	H47	0.673100	0.098100	0.159600
H481	H48	0.612400	0.902300	0.997700
H491	H49	0.622500	0.033700	0.065800
H501	H50	0.943600	0.985900	0.066200
H511	H51	0.924700	0.877600	0.990900
H521	H52	0.365900	0.471200	0.400000
C11	C1	0.640400	0.561400	0.853540
C21	C2	0.628600	0.478600	0.816300
C31	C3	0.714000	0.458700	0.779420
C41	C4	0.806200	0.525500	0.782030
C51	C5	0.809200	0.606000	0.821970
C61	C6	0.788300	0.348000	0.707820
C71	C7	0.845900	0.209000	0.637450
C81	C8	0.076800	0.182000	0.510180
C91	C9	0.997800	0.186800	0.551840
C101	C10	0.968800	0.286500	0.570990
C111	C11	0.023800	0.374000	0.550680
C121	C12	0.094100	0.361100	0.507190
C131	C13	0.859600	0.938600	0.853540
C141	C14	0.871400	0.021400	0.816300
C151	C15	0.786000	0.041300	0.779420
C161	C16	0.693800	0.974500	0.782030
C171	C17	0.690800	0.894000	0.821970
C181	C18	0.711700	0.152000	0.707820
C191	C19	0.654100	0.291000	0.637450
C201	C20	0.423200	0.318000	0.510180
C211	C21	0.502200	0.313200	0.551840
C221	C22	0.531200	0.213500	0.570990
C231	C23	0.476200	0.126000	0.550680
C241	C24	0.405900	0.138900	0.507190
C251	C25	0.438600	0.140400	0.353540
C261	C26	0.521400	0.128600	0.316300
C271	C27	0.541300	0.214000	0.279420
C281	C28	0.474500	0.306200	0.282030
C291	C29	0.394000	0.309200	0.321970
C301	C30	0.652000	0.288300	0.207820
C311	C31	0.791000	0.345900	0.137450
C321	C32	0.818000	0.576800	0.010180
C331	C33	0.813200	0.497800	0.051840
C341	C34	0.713500	0.468800	0.070990
C351	C35	0.626000	0.523800	0.050680
C361	C36	0.638900	0.594100	0.007190
C371	C37	0.061400	0.359600	0.353540
C381	C38	0.978600	0.371400	0.316300
C391	C39	0.958700	0.286000	0.279420
C401	C40	0.025500	0.193800	0.282030
C411	C41	0.106000	0.190800	0.321970
C421	C42	0.848000	0.211700	0.207820
C431	C43	0.709000	0.154100	0.137450
C441	C44	0.682000	0.923200	0.010180
C451	C45	0.686800	0.002200	0.051840
C461	C46	0.786500	0.031200	0.070990
C471	C47	0.874000	0.976200	0.050680
C481	C48	0.861100	0.905900	0.007190
C491	C49	0.750000	0.250000	0.673620
C501	C50	0.750000	0.250000	0.173620
S11	S1	0.549200	0.778780	0.921210
S21	S2	0.950800	0.721220	0.921210
S31	S3	0.221220	0.049200	0.421210
S41	S4	0.278780	0.450800	0.421210
N11	N1	0.731100	0.625600	0.858150
N21	N2	0.123100	0.267700	0.487590
N31	N3	0.768900	0.874400	0.858150
N41	N4	0.376900	0.232300	0.487590
N51	N5	0.374400	0.231100	0.358150
N61	N6	0.732300	0.623100	0.987590
N71	N7	0.125600	0.268900	0.358150
N81	N8	0.767700	0.876900	0.987590
O11	O1	0.699480	0.373950	0.744510
O21	O2	0.891870	0.304300	0.610470
O31	O3	0.800520	0.126050	0.744510
O41	O4	0.608130	0.195700	0.610470
O51	O5	0.626050	0.199480	0.244510
O61	O6	0.695700	0.391870	0.110470
O71	O7	0.873950	0.300520	0.244510
O81	O8	0.804300	0.108130	0.110470
Co31	Co3	0.250000	0.250000	0.077400
Co41	Co4	0.750000	0.750000	0.577400
H531	H53	0.418000	0.425500	0.122600
H541	H54	0.435500	0.564000	0.184500
H551	H55	0.135500	0.483300	0.242300
H561	H56	0.127900	0.349600	0.176500
H571	H57	0.195400	0.589000	0.315400
H581	H58	0.145400	0.671100	0.271900
H591	H59	0.181200	0.843800	0.389200
H601	H60	0.098100	0.826900	0.340400
H611	H61	0.902300	0.887600	0.502300
H621	H62	0.033700	0.877500	0.434200
H631	H63	0.985900	0.556400	0.433800
H641	H64	0.877600	0.575300	0.509100
H651	H65	0.471200	0.134100	0.100000
H661	H66	0.082000	0.074500	0.122600
H671	H67	0.064500	0.936000	0.184500
H681	H68	0.364500	0.016700	0.242300
H691	H69	0.372100	0.150400	0.176500
H701	H70	0.304600	0.911000	0.315400
H711	H71	0.354600	0.828900	0.271900
H721	H72	0.318800	0.656200	0.389200
H731	H73	0.401900	0.673100	0.340400
H741	H74	0.597700	0.612400	0.502300
H751	H75	0.466300	0.622500	0.434200
H761	H76	0.514100	0.943600	0.433800
H771	H77	0.622400	0.924700	0.509100
H781	H78	0.028800	0.365900	0.100000
H791	H79	0.574500	0.918000	0.622600
H801	H80	0.436000	0.935500	0.684500
H811	H81	0.516700	0.635500	0.742300
H821	H82	0.650400	0.627900	0.676500
H831	H83	0.411000	0.695400	0.815400
H841	H84	0.328900	0.645400	0.771900
H851	H85	0.156200	0.681200	0.889200
H861	H86	0.173100	0.598100	0.840400
H871	H87	0.112400	0.402300	0.002300
H881	H88	0.122500	0.533700	0.934200
H891	H89	0.443600	0.485900	0.933800
H901	H90	0.424700	0.377600	0.009100
H911	H91	0.865900	0.971200	0.600000
H921	H92	0.925500	0.582000	0.622600
H931	H93	0.064000	0.564500	0.684500
H941	H94	0.983300	0.864500	0.742300
H951	H95	0.849600	0.872100	0.676500
H961	H96	0.089000	0.804600	0.815400
H971	H97	0.171100	0.854600	0.771900
H981	H98	0.343800	0.818800	0.889200
H991	H99	0.326900	0.901900	0.840400
H1001	H100	0.387600	0.097700	0.002300
H1011	H101	0.377500	0.966300	0.934200
H1021	H102	0.056400	0.014100	0.933800
H1031	H103	0.075300	0.122400	0.009100
H1041	H104	0.634100	0.528800	0.600000
C511	C51	0.359600	0.438600	0.146460
C521	C52	0.371400	0.521400	0.183700
C531	C53	0.286000	0.541300	0.220580
C541	C54	0.193800	0.474500	0.217970
C551	C55	0.190800	0.394000	0.178030
C561	C56	0.211700	0.652000	0.292180
C571	C57	0.154100	0.791000	0.362550
C581	C58	0.923200	0.818000	0.489820
C591	C59	0.002200	0.813200	0.448160
C601	C60	0.031200	0.713500	0.429010
C611	C61	0.976200	0.626000	0.449320
C621	C62	0.905900	0.638900	0.492810
C631	C63	0.140400	0.061400	0.146460
C641	C64	0.128600	0.978600	0.183700
C651	C65	0.214000	0.958700	0.220580
C661	C66	0.306200	0.025500	0.217970
C671	C67	0.309200	0.106000	0.178030
C681	C68	0.288300	0.848000	0.292180
C691	C69	0.345900	0.709000	0.362550
C701	C70	0.576800	0.682000	0.489820
C711	C71	0.497800	0.686800	0.448160
C721	C72	0.468800	0.786500	0.429010
C731	C73	0.523800	0.874000	0.449320
C741	C74	0.594100	0.861100	0.492810
C751	C75	0.561400	0.859600	0.646460
C761	C76	0.478600	0.871400	0.683700
C771	C77	0.458700	0.786000	0.720580
C781	C78	0.525500	0.693800	0.717970
C791	C79	0.606000	0.690800	0.678030
C801	C80	0.348000	0.711700	0.792180
C811	C81	0.209000	0.654100	0.862550
C821	C82	0.182000	0.423200	0.989820
C831	C83	0.186800	0.502200	0.948160
C841	C84	0.286500	0.531200	0.929010
C851	C85	0.374000	0.476200	0.949320
C861	C86	0.361100	0.405900	0.992810
C871	C87	0.938600	0.640400	0.646460
C881	C88	0.021400	0.628600	0.683700
C891	C89	0.041300	0.714000	0.720580
C901	C90	0.974500	0.806200	0.717970
C911	C91	0.894000	0.809200	0.678030
C921	C92	0.152000	0.788300	0.792180
C931	C93	0.291000	0.845900	0.862550
C941	C94	0.318000	0.076800	0.989820
C951	C95	0.313200	0.997800	0.948160
C961	C96	0.213500	0.968800	0.929010
C971	C97	0.126000	0.023800	0.949320
C981	C98	0.138900	0.094100	0.992810
C991	C99	0.250000	0.750000	0.326380
C1001	C100	0.250000	0.750000	0.826380
S51	S5	0.450800	0.221220	0.078790
S61	S6	0.049200	0.278780	0.078790
S71	S7	0.778780	0.950800	0.578790
S81	S8	0.721220	0.549200	0.578790
N91	N9	0.268900	0.374400	0.141850
N101	N10	0.876900	0.732300	0.512410
N111	N11	0.231100	0.125600	0.141850
N121	N12	0.623100	0.767700	0.512410
N131	N13	0.625600	0.768900	0.641850
N141	N14	0.267700	0.376900	0.012410
N151	N15	0.874400	0.731100	0.641850
N161	N16	0.232300	0.123100	0.012410
O91	O9	0.300520	0.626050	0.255490
O101	O10	0.108130	0.695700	0.389530
O111	O11	0.199480	0.873950	0.255490
O121	O12	0.391870	0.804300	0.389530
O131	O13	0.373950	0.800520	0.755490
O141	O14	0.304300	0.608130	0.889530
O151	O15	0.126050	0.699480	0.755490
O161	O16	0.195700	0.891870	0.889530
