data_UNACIW_freeONLY_PM
_symmetry_space_group_name_H-M	'P1'
_cell_length_a	8.428300
_cell_length_b	10.255300
_cell_length_c	17.712000
_cell_angle_alpha	90.000000
_cell_angle_beta	103.036000
_cell_angle_gamma	90.000000
_symmetry_Int_Tables_number 1

loop_
_symmetry_equiv_pos_as_xyz
'x,y,z'

loop_
_atom_site_label
_atom_site_type_symbol
_atom_site_fract_x
_atom_site_fract_y
_atom_site_fract_z
Cu11	Cu1	0.326050	0.442240	0.932080
Cu21	Cu2	0.826050	0.057760	0.432080
H11	H1	0.363000	0.661700	0.595600
H21	H2	0.033400	0.230900	0.669200
H31	H3	0.314900	0.550200	0.699800
H41	H4	0.141900	0.412300	0.485200
H51	H5	0.394400	0.727600	0.363500
H61	H6	0.564600	0.892100	0.342000
H71	H7	0.568700	0.773400	0.591500
H81	H8	0.733900	0.935900	0.565100
H91	H9	0.863000	0.838300	0.095600
H101	H10	0.533400	0.269100	0.169200
H111	H11	0.814900	0.949800	0.199800
H121	H12	0.641900	0.087700	0.985200
H131	H13	0.894400	0.772400	0.863500
H141	H14	0.064600	0.607900	0.842000
H151	H15	0.068700	0.726600	0.091500
H161	H16	0.233900	0.564100	0.065100
C11	C1	0.985300	0.206300	0.516400
C21	C2	0.078000	0.305900	0.569700
C31	C3	0.087200	0.297100	0.649200
C41	C4	0.178300	0.389300	0.697600
C51	C5	0.255100	0.488200	0.666900
C61	C6	0.244800	0.496700	0.587800
C71	C7	0.153000	0.406000	0.538500
C81	C8	0.193700	0.380600	0.783400
C91	C9	0.359000	0.616600	0.491400
C101	C10	0.463100	0.732100	0.480900
C111	C11	0.463000	0.768700	0.405100
C121	C12	0.566200	0.866800	0.392600
C131	C13	0.566200	0.795700	0.540300
C141	C14	0.665900	0.892500	0.524200
C151	C15	0.485300	0.293700	0.016400
C161	C16	0.578000	0.194100	0.069700
C171	C17	0.587200	0.202900	0.149200
C181	C18	0.678300	0.110700	0.197600
C191	C19	0.755100	0.011800	0.166900
C201	C20	0.744800	0.003300	0.087800
C211	C21	0.653000	0.094000	0.038500
C221	C22	0.693700	0.119400	0.283400
C231	C23	0.859000	0.883400	0.991400
C241	C24	0.963100	0.767900	0.980900
C251	C25	0.963000	0.731300	0.905100
C261	C26	0.066200	0.633200	0.892600
C271	C27	0.066200	0.704300	0.040300
C281	C28	0.165900	0.607500	0.024200
N11	N1	0.328200	0.601300	0.562400
N21	N2	0.668700	0.926800	0.451100
N31	N3	0.828200	0.898700	0.062400
N41	N4	0.168700	0.573200	0.951100
O11	O1	0.969600	0.215000	0.444300
O21	O2	0.920600	0.108700	0.541500
O31	O3	0.119000	0.299400	0.812600
O41	O4	0.292900	0.463700	0.823600
O51	O5	0.310600	0.541500	0.437900
O61	O6	0.469600	0.285000	0.944300
O71	O7	0.420600	0.391300	0.041500
O81	O8	0.619000	0.200600	0.312600
O91	O9	0.792900	0.036300	0.323600
O101	O10	0.810600	0.958500	0.937900
Cu31	Cu3	0.173950	0.942240	0.567920
Cu41	Cu4	0.673950	0.557760	0.067920
H171	H17	0.137000	0.161700	0.904400
H181	H18	0.466600	0.730900	0.830800
H191	H19	0.185100	0.050200	0.800200
H201	H20	0.358100	0.912300	0.014800
H211	H21	0.105600	0.227600	0.136500
H221	H22	0.935400	0.392100	0.158000
H231	H23	0.931300	0.273400	0.908500
H241	H24	0.766100	0.435900	0.934900
H251	H25	0.637000	0.338300	0.404400
H261	H26	0.966600	0.769100	0.330800
H271	H27	0.685100	0.449800	0.300200
H281	H28	0.858100	0.587700	0.514800
H291	H29	0.605600	0.272400	0.636500
H301	H30	0.435400	0.107900	0.658000
H311	H31	0.431300	0.226600	0.408500
H321	H32	0.266100	0.064100	0.434900
C291	C29	0.514700	0.706300	0.983600
C301	C30	0.422000	0.805900	0.930300
C311	C31	0.412800	0.797100	0.850800
C321	C32	0.321700	0.889300	0.802400
C331	C33	0.244900	0.988200	0.833100
C341	C34	0.255200	0.996700	0.912200
C351	C35	0.347000	0.906000	0.961500
C361	C36	0.306300	0.880600	0.716600
C371	C37	0.141000	0.116600	0.008600
C381	C38	0.036900	0.232100	0.019100
C391	C39	0.037000	0.268700	0.094900
C401	C40	0.933800	0.366800	0.107400
C411	C41	0.933800	0.295700	0.959700
C421	C42	0.834100	0.392500	0.975800
C431	C43	0.014700	0.793700	0.483600
C441	C44	0.922000	0.694100	0.430300
C451	C45	0.912800	0.702900	0.350800
C461	C46	0.821700	0.610700	0.302400
C471	C47	0.744900	0.511800	0.333100
C481	C48	0.755200	0.503300	0.412200
C491	C49	0.847000	0.594000	0.461500
C501	C50	0.806300	0.619400	0.216600
C511	C51	0.641000	0.383400	0.508600
C521	C52	0.536900	0.267900	0.519100
C531	C53	0.537000	0.231300	0.594900
C541	C54	0.433800	0.133200	0.607400
C551	C55	0.433800	0.204300	0.459700
C561	C56	0.334100	0.107500	0.475800
N51	N5	0.171800	0.101300	0.937600
N61	N6	0.831300	0.426800	0.048900
N71	N7	0.671800	0.398700	0.437600
N81	N8	0.331300	0.073200	0.548900
O111	O11	0.530400	0.715000	0.055700
O121	O12	0.579400	0.608700	0.958500
O131	O13	0.381000	0.799400	0.687400
O141	O14	0.207100	0.963700	0.676400
O151	O15	0.189400	0.041500	0.062100
O161	O16	0.030400	0.785000	0.555700
O171	O17	0.079400	0.891300	0.458500
O181	O18	0.881000	0.700600	0.187400
O191	O19	0.707100	0.536300	0.176400
O201	O20	0.689400	0.458500	0.562100
