data_UTEWOG_freeONLY_PM
_symmetry_space_group_name_H-M	'P1'
_cell_length_a	18.549000
_cell_length_b	18.549000
_cell_length_c	18.549000
_cell_angle_alpha	90.000000
_cell_angle_beta	90.000000
_cell_angle_gamma	90.000000
_symmetry_Int_Tables_number 1

loop_
_symmetry_equiv_pos_as_xyz
'x,y,z'

loop_
_atom_site_label
_atom_site_type_symbol
_atom_site_fract_x
_atom_site_fract_y
_atom_site_fract_z
Ni11	Ni1	0.000000	0.618850	0.500000
Ni21	Ni2	0.000000	0.381150	0.500000
Ni31	Ni3	0.500000	0.000000	0.618850
Ni41	Ni4	0.500000	0.000000	0.381150
Ni51	Ni5	0.618850	0.500000	0.000000
Ni61	Ni6	0.381150	0.500000	0.000000
Ni71	Ni7	0.618850	0.000000	0.500000
Ni81	Ni8	0.381150	0.000000	0.500000
Ni91	Ni9	0.000000	0.500000	0.381150
Ni101	Ni10	0.000000	0.500000	0.618850
Ni111	Ni11	0.500000	0.618850	0.000000
Ni121	Ni12	0.500000	0.381150	0.000000
H11	H1	0.854500	0.713150	0.560380
H21	H2	0.145500	0.286850	0.560380
H31	H3	0.145500	0.713150	0.439620
H41	H4	0.854500	0.286850	0.439620
H51	H5	0.560380	0.854500	0.713150
H61	H6	0.560380	0.145500	0.286850
H71	H7	0.439620	0.145500	0.713150
H81	H8	0.439620	0.854500	0.286850
H91	H9	0.713150	0.560380	0.854500
H101	H10	0.286850	0.560380	0.145500
H111	H11	0.713150	0.439620	0.145500
H121	H12	0.286850	0.439620	0.854500
H131	H13	0.713150	0.854500	0.439620
H141	H14	0.286850	0.145500	0.439620
H151	H15	0.713150	0.145500	0.560380
H161	H16	0.286850	0.854500	0.560380
H171	H17	0.854500	0.560380	0.286850
H181	H18	0.145500	0.560380	0.713150
H191	H19	0.145500	0.439620	0.286850
H201	H20	0.854500	0.439620	0.713150
H211	H21	0.560380	0.713150	0.145500
H221	H22	0.560380	0.286850	0.854500
H231	H23	0.439620	0.713150	0.854500
H241	H24	0.439620	0.286850	0.145500
H251	H25	0.145500	0.286850	0.439620
H261	H26	0.854500	0.713150	0.439620
H271	H27	0.854500	0.286850	0.560380
H281	H28	0.145500	0.713150	0.560380
H291	H29	0.439620	0.145500	0.286850
H301	H30	0.439620	0.854500	0.713150
H311	H31	0.560380	0.854500	0.286850
H321	H32	0.560380	0.145500	0.713150
H331	H33	0.286850	0.439620	0.145500
H341	H34	0.713150	0.439620	0.854500
H351	H35	0.286850	0.560380	0.854500
H361	H36	0.713150	0.560380	0.145500
H371	H37	0.286850	0.145500	0.560380
H381	H38	0.713150	0.854500	0.560380
H391	H39	0.286850	0.854500	0.439620
H401	H40	0.713150	0.145500	0.439620
H411	H41	0.145500	0.439620	0.713150
H421	H42	0.854500	0.439620	0.286850
H431	H43	0.854500	0.560380	0.713150
H441	H44	0.145500	0.560380	0.286850
H451	H45	0.439620	0.286850	0.854500
H461	H46	0.439620	0.713150	0.145500
H471	H47	0.560380	0.286850	0.145500
H481	H48	0.560380	0.713150	0.854500
H491	H49	0.772110	0.772110	0.618170
H501	H50	0.227880	0.227880	0.618170
H511	H51	0.227880	0.772110	0.381830
H521	H52	0.772110	0.227880	0.381830
H531	H53	0.618170	0.772110	0.772110
H541	H54	0.618170	0.227880	0.227880
H551	H55	0.381830	0.227880	0.772110
H561	H56	0.381830	0.772110	0.227880
H571	H57	0.772110	0.618170	0.772110
H581	H58	0.227880	0.618170	0.227880
H591	H59	0.772110	0.381830	0.227880
H601	H60	0.227880	0.381830	0.772110
H611	H61	0.772110	0.772110	0.381830
H621	H62	0.227880	0.227880	0.381830
H631	H63	0.772110	0.227880	0.618170
H641	H64	0.227880	0.772110	0.618170
H651	H65	0.772110	0.618170	0.227880
H661	H66	0.227880	0.618170	0.772110
H671	H67	0.227880	0.381830	0.227880
H681	H68	0.772110	0.381830	0.772110
H691	H69	0.618170	0.772110	0.227880
H701	H70	0.618170	0.227880	0.772110
H711	H71	0.381830	0.772110	0.772110
H721	H72	0.381830	0.227880	0.227880
C11	C1	0.865690	0.670800	0.586910
C21	C2	0.134310	0.329200	0.586910
C31	C3	0.134310	0.670800	0.413090
C41	C4	0.865690	0.329200	0.413090
C51	C5	0.586910	0.865690	0.670800
C61	C6	0.586910	0.134310	0.329200
C71	C7	0.413090	0.134310	0.670800
C81	C8	0.413090	0.865690	0.329200
C91	C9	0.670800	0.586910	0.865690
C101	C10	0.329200	0.586910	0.134310
C111	C11	0.670800	0.413090	0.134310
C121	C12	0.329200	0.413090	0.865690
C131	C13	0.670800	0.865690	0.413090
C141	C14	0.329200	0.134310	0.413090
C151	C15	0.670800	0.134310	0.586910
C161	C16	0.329200	0.865690	0.586910
C171	C17	0.865690	0.586910	0.329200
C181	C18	0.134310	0.586910	0.670800
C191	C19	0.134310	0.413090	0.329200
C201	C20	0.865690	0.413090	0.670800
C211	C21	0.586910	0.670800	0.134310
C221	C22	0.586910	0.329200	0.865690
C231	C23	0.413090	0.670800	0.865690
C241	C24	0.413090	0.329200	0.134310
C251	C25	0.134310	0.329200	0.413090
C261	C26	0.865690	0.670800	0.413090
C271	C27	0.865690	0.329200	0.586910
C281	C28	0.134310	0.670800	0.586910
C291	C29	0.413090	0.134310	0.329200
C301	C30	0.413090	0.865690	0.670800
C311	C31	0.586910	0.865690	0.329200
C321	C32	0.586910	0.134310	0.670800
C331	C33	0.329200	0.413090	0.134310
C341	C34	0.670800	0.413090	0.865690
C351	C35	0.329200	0.586910	0.865690
C361	C36	0.670800	0.586910	0.134310
C371	C37	0.329200	0.134310	0.586910
C381	C38	0.670800	0.865690	0.586910
C391	C39	0.329200	0.865690	0.413090
C401	C40	0.670800	0.134310	0.413090
C411	C41	0.134310	0.413090	0.670800
C421	C42	0.865690	0.413090	0.329200
C431	C43	0.865690	0.586910	0.670800
C441	C44	0.134310	0.586910	0.329200
C451	C45	0.413090	0.329200	0.865690
C461	C46	0.413090	0.670800	0.134310
C471	C47	0.586910	0.329200	0.134310
C481	C48	0.586910	0.670800	0.865690
C491	C49	0.779940	0.689490	0.689490
C501	C50	0.835220	0.650400	0.650400
C511	C51	0.220060	0.310510	0.689490
C521	C52	0.164780	0.349600	0.650400
C531	C53	0.220060	0.689490	0.310510
C541	C54	0.164780	0.650400	0.349600
C551	C55	0.779940	0.310510	0.310510
C561	C56	0.835220	0.349600	0.349600
C571	C57	0.689490	0.779940	0.689490
C581	C58	0.650400	0.835220	0.650400
C591	C59	0.689490	0.220060	0.310510
C601	C60	0.650400	0.164780	0.349600
C611	C61	0.310510	0.220060	0.689490
C621	C62	0.349600	0.164780	0.650400
C631	C63	0.310510	0.779940	0.310510
C641	C64	0.349600	0.835220	0.349600
C651	C65	0.689490	0.689490	0.779940
C661	C66	0.650400	0.650400	0.835220
C671	C67	0.310510	0.689490	0.220060
C681	C68	0.349600	0.650400	0.164780
C691	C69	0.689490	0.310510	0.220060
C701	C70	0.650400	0.349600	0.164780
C711	C71	0.310510	0.310510	0.779940
C721	C72	0.349600	0.349600	0.835220
C731	C73	0.689490	0.779940	0.310510
C741	C74	0.650400	0.835220	0.349600
C751	C75	0.310510	0.220060	0.310510
C761	C76	0.349600	0.164780	0.349600
C771	C77	0.689490	0.220060	0.689490
C781	C78	0.650400	0.164780	0.650400
C791	C79	0.310510	0.779940	0.689490
C801	C80	0.349600	0.835220	0.650400
C811	C81	0.779940	0.689490	0.310510
C821	C82	0.835220	0.650400	0.349600
C831	C83	0.220060	0.689490	0.689490
C841	C84	0.164780	0.650400	0.650400
C851	C85	0.220060	0.310510	0.310510
C861	C86	0.164780	0.349600	0.349600
C871	C87	0.779940	0.310510	0.689490
C881	C88	0.835220	0.349600	0.650400
C891	C89	0.689490	0.689490	0.220060
C901	C90	0.650400	0.650400	0.164780
C911	C91	0.689490	0.310510	0.779940
C921	C92	0.650400	0.349600	0.835220
C931	C93	0.310510	0.689490	0.779940
C941	C94	0.349600	0.650400	0.835220
C951	C95	0.310510	0.310510	0.220060
C961	C96	0.349600	0.349600	0.164780
C971	C97	0.753780	0.753780	0.662330
C981	C98	0.246220	0.246220	0.662330
C991	C99	0.246220	0.753780	0.337670
C1001	C100	0.753780	0.246220	0.337670
C1011	C101	0.662330	0.753780	0.753780
C1021	C102	0.662330	0.246220	0.246220
C1031	C103	0.337670	0.246220	0.753780
C1041	C104	0.337670	0.753780	0.246220
C1051	C105	0.753780	0.662330	0.753780
C1061	C106	0.246220	0.662330	0.246220
C1071	C107	0.753780	0.337670	0.246220
C1081	C108	0.246220	0.337670	0.753780
C1091	C109	0.753780	0.753780	0.337670
C1101	C110	0.246220	0.246220	0.337670
C1111	C111	0.753780	0.246220	0.662330
C1121	C112	0.246220	0.753780	0.662330
C1131	C113	0.753780	0.662330	0.246220
C1141	C114	0.246220	0.662330	0.753780
C1151	C115	0.246220	0.337670	0.246220
C1161	C116	0.753780	0.337670	0.753780
C1171	C117	0.662330	0.753780	0.246220
C1181	C118	0.662330	0.246220	0.753780
C1191	C119	0.337670	0.753780	0.753780
C1201	C120	0.337670	0.246220	0.246220
N11	N1	0.915000	0.619910	0.568070
N21	N2	0.085000	0.380090	0.568070
N31	N3	0.085000	0.619910	0.431930
N41	N4	0.915000	0.380090	0.431930
N51	N5	0.568070	0.915000	0.619910
N61	N6	0.568070	0.085000	0.380090
N71	N7	0.431930	0.085000	0.619910
N81	N8	0.431930	0.915000	0.380090
N91	N9	0.619910	0.568070	0.915000
N101	N10	0.380090	0.568070	0.085000
N111	N11	0.619910	0.431930	0.085000
N121	N12	0.380090	0.431930	0.915000
N131	N13	0.619910	0.915000	0.431930
N141	N14	0.380090	0.085000	0.431930
N151	N15	0.619910	0.085000	0.568070
N161	N16	0.380090	0.915000	0.568070
N171	N17	0.915000	0.568070	0.380090
N181	N18	0.085000	0.568070	0.619910
N191	N19	0.085000	0.431930	0.380090
N201	N20	0.915000	0.431930	0.619910
N211	N21	0.568070	0.619910	0.085000
N221	N22	0.568070	0.380090	0.915000
N231	N23	0.431930	0.619910	0.915000
N241	N24	0.431930	0.380090	0.085000
N251	N25	0.085000	0.380090	0.431930
N261	N26	0.915000	0.619910	0.431930
N271	N27	0.915000	0.380090	0.568070
N281	N28	0.085000	0.619910	0.568070
N291	N29	0.431930	0.085000	0.380090
N301	N30	0.431930	0.915000	0.619910
N311	N31	0.568070	0.915000	0.380090
N321	N32	0.568070	0.085000	0.619910
N331	N33	0.380090	0.431930	0.085000
N341	N34	0.619910	0.431930	0.915000
N351	N35	0.380090	0.568070	0.915000
N361	N36	0.619910	0.568070	0.085000
N371	N37	0.380090	0.085000	0.568070
N381	N38	0.619910	0.915000	0.568070
N391	N39	0.380090	0.915000	0.431930
N401	N40	0.619910	0.085000	0.431930
N411	N41	0.085000	0.431930	0.619910
N421	N42	0.915000	0.431930	0.380090
N431	N43	0.915000	0.568070	0.619910
N441	N44	0.085000	0.568070	0.380090
N451	N45	0.431930	0.380090	0.915000
N461	N46	0.431930	0.619910	0.085000
N471	N47	0.568070	0.380090	0.085000
N481	N48	0.568070	0.619910	0.915000
O11	O1	0.000000	0.735000	0.500000
O21	O2	0.000000	0.265000	0.500000
O31	O3	0.500000	0.000000	0.735000
O41	O4	0.500000	0.000000	0.265000
O51	O5	0.735000	0.500000	0.000000
O61	O6	0.265000	0.500000	0.000000
O71	O7	0.735000	0.000000	0.500000
O81	O8	0.265000	0.000000	0.500000
O91	O9	0.000000	0.500000	0.265000
O101	O10	0.000000	0.500000	0.735000
O111	O11	0.500000	0.735000	0.000000
O121	O12	0.500000	0.265000	0.000000
