data_UTUMAY_freeONLY_PM
_symmetry_space_group_name_H-M	'P1'
_cell_length_a	12.034000
_cell_length_b	19.803000
_cell_length_c	16.389000
_cell_angle_alpha	90.000000
_cell_angle_beta	90.000000
_cell_angle_gamma	90.000000
_symmetry_Int_Tables_number 1

loop_
_symmetry_equiv_pos_as_xyz
'x,y,z'

loop_
_atom_site_label
_atom_site_type_symbol
_atom_site_fract_x
_atom_site_fract_y
_atom_site_fract_z
Zn11	Zn1	0.582780	0.331640	0.969410
Zn21	Zn2	0.917220	0.168360	0.969410
Zn31	Zn3	0.082780	0.668360	0.530590
Zn41	Zn4	0.417220	0.831640	0.530590
Zn51	Zn5	0.417220	0.668360	0.030590
Zn61	Zn6	0.082780	0.831640	0.030590
Zn71	Zn7	0.917220	0.331640	0.469410
Zn81	Zn8	0.582780	0.168360	0.469410
H11	H1	0.373700	0.326100	0.872800
H21	H2	0.209300	0.386400	0.856000
H31	H3	0.303300	0.514100	0.032500
H41	H4	0.465600	0.452800	0.050600
H51	H5	0.124100	0.494500	0.876400
H61	H6	0.151500	0.536800	0.953300
H71	H7	0.977800	0.487600	0.922300
H81	H8	0.905000	0.402500	0.868700
H91	H9	0.864300	0.287800	0.872800
H101	H10	0.100000	0.382000	0.068200
H111	H11	0.058900	0.266900	0.070300
H121	H12	0.801100	0.358100	0.738100
H131	H13	0.603500	0.350900	0.644800
H141	H14	0.126300	0.173900	0.872800
H151	H15	0.290700	0.113600	0.856000
H161	H16	0.196700	0.985900	0.032500
H171	H17	0.034400	0.047200	0.050600
H181	H18	0.375900	0.005500	0.876400
H191	H19	0.348500	0.963200	0.953300
H201	H20	0.522200	0.012400	0.922300
H211	H21	0.595000	0.097500	0.868700
H221	H22	0.635700	0.212200	0.872800
H231	H23	0.400000	0.118000	0.068200
H241	H24	0.441100	0.233100	0.070300
H251	H25	0.698900	0.141900	0.738100
H261	H26	0.896500	0.149100	0.644800
H271	H27	0.873700	0.673900	0.627200
H281	H28	0.709300	0.613600	0.644000
H291	H29	0.803300	0.485900	0.467500
H301	H30	0.965600	0.547200	0.449400
H311	H31	0.624100	0.505500	0.623600
H321	H32	0.651500	0.463200	0.546700
H331	H33	0.477800	0.512400	0.577700
H341	H34	0.405000	0.597500	0.631300
H351	H35	0.364300	0.712200	0.627200
H361	H36	0.600000	0.618000	0.431800
H371	H37	0.558900	0.733100	0.429700
H381	H38	0.301100	0.641900	0.761900
H391	H39	0.103500	0.649100	0.855200
H401	H40	0.626300	0.826100	0.627200
H411	H41	0.790700	0.886400	0.644000
H421	H42	0.696700	0.014100	0.467500
H431	H43	0.534400	0.952800	0.449400
H441	H44	0.875900	0.994500	0.623600
H451	H45	0.848500	0.036800	0.546700
H461	H46	0.022200	0.987600	0.577700
H471	H47	0.095000	0.902500	0.631300
H481	H48	0.135700	0.787800	0.627200
H491	H49	0.900000	0.882000	0.431800
H501	H50	0.941100	0.766900	0.429700
H511	H51	0.198900	0.858100	0.761900
H521	H52	0.396500	0.850900	0.855200
H531	H53	0.626300	0.673900	0.127200
H541	H54	0.790700	0.613600	0.144000
H551	H55	0.696700	0.485900	0.967500
H561	H56	0.534400	0.547200	0.949400
H571	H57	0.875900	0.505500	0.123600
H581	H58	0.848500	0.463200	0.046700
H591	H59	0.022200	0.512400	0.077700
H601	H60	0.095000	0.597500	0.131300
H611	H61	0.135700	0.712200	0.127200
H621	H62	0.900000	0.618000	0.931800
H631	H63	0.941100	0.733100	0.929700
H641	H64	0.198900	0.641900	0.261900
H651	H65	0.396500	0.649100	0.355200
H661	H66	0.873700	0.826100	0.127200
H671	H67	0.709300	0.886400	0.144000
H681	H68	0.803300	0.014100	0.967500
H691	H69	0.965600	0.952800	0.949400
H701	H70	0.624100	0.994500	0.123600
H711	H71	0.651500	0.036800	0.046700
H721	H72	0.477800	0.987600	0.077700
H731	H73	0.405000	0.902500	0.131300
H741	H74	0.364300	0.787800	0.127200
H751	H75	0.600000	0.882000	0.931800
H761	H76	0.558900	0.766900	0.929700
H771	H77	0.301100	0.858100	0.261900
H781	H78	0.103500	0.850900	0.355200
H791	H79	0.126300	0.326100	0.372800
H801	H80	0.290700	0.386400	0.356000
H811	H81	0.196700	0.514100	0.532500
H821	H82	0.034400	0.452800	0.550600
H831	H83	0.375900	0.494500	0.376400
H841	H84	0.348500	0.536800	0.453300
H851	H85	0.522200	0.487600	0.422300
H861	H86	0.595000	0.402500	0.368700
H871	H87	0.635700	0.287800	0.372800
H881	H88	0.400000	0.382000	0.568200
H891	H89	0.441100	0.266900	0.570300
H901	H90	0.698900	0.358100	0.238100
H911	H91	0.896500	0.350900	0.144800
H921	H92	0.373700	0.173900	0.372800
H931	H93	0.209300	0.113600	0.356000
H941	H94	0.303300	0.985900	0.532500
H951	H95	0.465600	0.047200	0.550600
H961	H96	0.124100	0.005500	0.376400
H971	H97	0.151500	0.963200	0.453300
H981	H98	0.977800	0.012400	0.422300
H991	H99	0.905000	0.097500	0.368700
H1001	H100	0.864300	0.212200	0.372800
H1011	H101	0.100000	0.118000	0.568200
H1021	H102	0.058900	0.233100	0.570300
H1031	H103	0.801100	0.141900	0.238100
H1041	H104	0.603500	0.149100	0.144800
C11	C1	0.359600	0.363880	0.904800
C21	C2	0.260700	0.399900	0.895200
C31	C3	0.238700	0.455590	0.943700
C41	C4	0.316600	0.476000	0.000800
C51	C5	0.414800	0.439700	0.010900
C61	C6	0.135800	0.491200	0.934800
C71	C7	0.023200	0.474900	0.969500
C81	C8	0.002500	0.403300	0.968800
C91	C9	0.934800	0.375400	0.909600
C101	C10	0.911400	0.306800	0.911500
C111	C11	0.052500	0.363200	0.029700
C121	C12	0.028200	0.294300	0.030200
C131	C13	0.655100	0.368300	0.799400
C141	C14	0.724500	0.360400	0.731000
C151	C15	0.679800	0.355900	0.651700
C161	C16	0.747600	0.358900	0.584800
C171	C17	0.140400	0.136120	0.904800
C181	C18	0.239300	0.100100	0.895200
C191	C19	0.261300	0.044410	0.943700
C201	C20	0.183400	0.024000	0.000800
C211	C21	0.085200	0.060300	0.010900
C221	C22	0.364200	0.008800	0.934800
C231	C23	0.476800	0.025100	0.969500
C241	C24	0.497500	0.096700	0.968800
C251	C25	0.565200	0.124600	0.909600
C261	C26	0.588600	0.193200	0.911500
C271	C27	0.447500	0.136800	0.029700
C281	C28	0.471800	0.205700	0.030200
C291	C29	0.844900	0.131700	0.799400
C301	C30	0.775500	0.139600	0.731000
C311	C31	0.820200	0.144100	0.651700
C321	C32	0.752400	0.141100	0.584800
C331	C33	0.859600	0.636120	0.595200
C341	C34	0.760700	0.600100	0.604800
C351	C35	0.738700	0.544410	0.556300
C361	C36	0.816600	0.524000	0.499200
C371	C37	0.914800	0.560300	0.489100
C381	C38	0.635800	0.508800	0.565200
C391	C39	0.523200	0.525100	0.530500
C401	C40	0.502500	0.596700	0.531200
C411	C41	0.434800	0.624600	0.590400
C421	C42	0.411400	0.693200	0.588500
C431	C43	0.552500	0.636800	0.470300
C441	C44	0.528200	0.705700	0.469800
C451	C45	0.155100	0.631700	0.700600
C461	C46	0.224500	0.639600	0.769000
C471	C47	0.179800	0.644100	0.848300
C481	C48	0.247600	0.641100	0.915200
C491	C49	0.640400	0.863880	0.595200
C501	C50	0.739300	0.899900	0.604800
C511	C51	0.761300	0.955590	0.556300
C521	C52	0.683400	0.976000	0.499200
C531	C53	0.585200	0.939700	0.489100
C541	C54	0.864200	0.991200	0.565200
C551	C55	0.976800	0.974900	0.530500
C561	C56	0.997500	0.903300	0.531200
C571	C57	0.065200	0.875400	0.590400
C581	C58	0.088600	0.806800	0.588500
C591	C59	0.947500	0.863200	0.470300
C601	C60	0.971800	0.794300	0.469800
C611	C61	0.344900	0.868300	0.700600
C621	C62	0.275500	0.860400	0.769000
C631	C63	0.320200	0.855900	0.848300
C641	C64	0.252400	0.858900	0.915200
C651	C65	0.640400	0.636120	0.095200
C661	C66	0.739300	0.600100	0.104800
C671	C67	0.761300	0.544410	0.056300
C681	C68	0.683400	0.524000	0.999200
C691	C69	0.585200	0.560300	0.989100
C701	C70	0.864200	0.508800	0.065200
C711	C71	0.976800	0.525100	0.030500
C721	C72	0.997500	0.596700	0.031200
C731	C73	0.065200	0.624600	0.090400
C741	C74	0.088600	0.693200	0.088500
C751	C75	0.947500	0.636800	0.970300
C761	C76	0.971800	0.705700	0.969800
C771	C77	0.344900	0.631700	0.200600
C781	C78	0.275500	0.639600	0.269000
C791	C79	0.320200	0.644100	0.348300
C801	C80	0.252400	0.641100	0.415200
C811	C81	0.859600	0.863880	0.095200
C821	C82	0.760700	0.899900	0.104800
C831	C83	0.738700	0.955590	0.056300
C841	C84	0.816600	0.976000	0.999200
C851	C85	0.914800	0.939700	0.989100
C861	C86	0.635800	0.991200	0.065200
C871	C87	0.523200	0.974900	0.030500
C881	C88	0.502500	0.903300	0.031200
C891	C89	0.434800	0.875400	0.090400
C901	C90	0.411400	0.806800	0.088500
C911	C91	0.552500	0.863200	0.970300
C921	C92	0.528200	0.794300	0.969800
C931	C93	0.155100	0.868300	0.200600
C941	C94	0.224500	0.860400	0.269000
C951	C95	0.179800	0.855900	0.348300
C961	C96	0.247600	0.858900	0.415200
C971	C97	0.140400	0.363880	0.404800
C981	C98	0.239300	0.399900	0.395200
C991	C99	0.261300	0.455590	0.443700
C1001	C100	0.183400	0.476000	0.500800
C1011	C101	0.085200	0.439700	0.510900
C1021	C102	0.364200	0.491200	0.434800
C1031	C103	0.476800	0.474900	0.469500
C1041	C104	0.497500	0.403300	0.468800
C1051	C105	0.565200	0.375400	0.409600
C1061	C106	0.588600	0.306800	0.411500
C1071	C107	0.447500	0.363200	0.529700
C1081	C108	0.471800	0.294300	0.530200
C1091	C109	0.844900	0.368300	0.299400
C1101	C110	0.775500	0.360400	0.231000
C1111	C111	0.820200	0.355900	0.151700
C1121	C112	0.752400	0.358900	0.084800
C1131	C113	0.359600	0.136120	0.404800
C1141	C114	0.260700	0.100100	0.395200
C1151	C115	0.238700	0.044410	0.443700
C1161	C116	0.316600	0.024000	0.500800
C1171	C117	0.414800	0.060300	0.510900
C1181	C118	0.135800	0.008800	0.434800
C1191	C119	0.023200	0.025100	0.469500
C1201	C120	0.002500	0.096700	0.468800
C1211	C121	0.934800	0.124600	0.409600
C1221	C122	0.911400	0.193200	0.411500
C1231	C123	0.052500	0.136800	0.529700
C1241	C124	0.028200	0.205700	0.530200
C1251	C125	0.655100	0.131700	0.299400
C1261	C126	0.724500	0.139600	0.231000
C1271	C127	0.679800	0.144100	0.151700
C1281	C128	0.747600	0.141100	0.084800
N11	N1	0.437200	0.384840	0.962550
N21	N2	0.959400	0.266500	0.972200
N31	N3	0.062800	0.115160	0.962550
N41	N4	0.540600	0.233500	0.972200
N51	N5	0.937200	0.615160	0.537450
N61	N6	0.459400	0.733500	0.527800
N71	N7	0.562800	0.884840	0.537450
N81	N8	0.040600	0.766500	0.527800
N91	N9	0.562800	0.615160	0.037450
N101	N10	0.040600	0.733500	0.027800
N111	N11	0.937200	0.884840	0.037450
N121	N12	0.459400	0.766500	0.027800
N131	N13	0.062800	0.384840	0.462550
N141	N14	0.540600	0.266500	0.472200
N151	N15	0.437200	0.115160	0.462550
N161	N16	0.959400	0.233500	0.472200
O11	O1	0.675500	0.339560	0.861160
O21	O2	0.571700	0.408800	0.794690
O31	O3	0.713000	0.384210	0.520570
O41	O4	0.844600	0.344170	0.586020
O51	O5	0.824500	0.160440	0.861160
O61	O6	0.928300	0.091200	0.794690
O71	O7	0.787000	0.115790	0.520570
O81	O8	0.655400	0.155830	0.586020
O91	O9	0.175500	0.660440	0.638840
O101	O10	0.071700	0.591200	0.705310
O111	O11	0.213000	0.615790	0.979430
O121	O12	0.344600	0.655830	0.913980
O131	O13	0.324500	0.839560	0.638840
O141	O14	0.428300	0.908800	0.705310
O151	O15	0.287000	0.884210	0.979430
O161	O16	0.155400	0.844170	0.913980
O171	O17	0.324500	0.660440	0.138840
O181	O18	0.428300	0.591200	0.205310
O191	O19	0.287000	0.615790	0.479430
O201	O20	0.155400	0.655830	0.413980
O211	O21	0.175500	0.839560	0.138840
O221	O22	0.071700	0.908800	0.205310
O231	O23	0.213000	0.884210	0.479430
O241	O24	0.344600	0.844170	0.413980
O251	O25	0.824500	0.339560	0.361160
O261	O26	0.928300	0.408800	0.294690
O271	O27	0.787000	0.384210	0.020570
O281	O28	0.655400	0.344170	0.086020
O291	O29	0.675500	0.160440	0.361160
O301	O30	0.571700	0.091200	0.294690
O311	O31	0.713000	0.115790	0.020570
O321	O32	0.844600	0.155830	0.086020
