data_UVAROZ_freeONLY_PM
_symmetry_space_group_name_H-M	'P1'
_cell_length_a	8.666000
_cell_length_b	13.187000
_cell_length_c	14.083300
_cell_angle_alpha	62.083900
_cell_angle_beta	84.118000
_cell_angle_gamma	77.356100
_symmetry_Int_Tables_number 1

loop_
_symmetry_equiv_pos_as_xyz
'x,y,z'

loop_
_atom_site_label
_atom_site_type_symbol
_atom_site_fract_x
_atom_site_fract_y
_atom_site_fract_z
Zn11	Zn1	0.798450	0.100490	0.823600
Zn21	Zn2	0.298450	0.924090	0.176400
H11	H1	0.068300	0.100400	0.470000
H21	H2	0.311000	0.053200	0.395800
H31	H3	0.533100	0.979500	0.665800
H41	H4	0.283800	0.016100	0.742800
H51	H5	0.689400	0.982100	0.520000
H61	H6	0.543300	0.992600	0.347800
H71	H7	0.706600	0.997900	0.196600
H81	H8	0.960100	0.968800	0.123600
H91	H9	0.167100	0.897100	0.388800
H101	H10	0.927800	0.932200	0.465400
H111	H11	0.449100	0.265300	0.919200
H121	H12	0.536200	0.441900	0.858400
H131	H13	0.507100	0.402900	0.160200
H141	H14	0.423000	0.230500	0.222600
H151	H15	0.608400	0.589400	0.886600
H161	H16	0.587500	0.564600	0.093600
H171	H17	0.719400	0.740000	0.823800
H181	H18	0.796900	0.916600	0.770600
H191	H19	0.678400	0.918200	0.046600
H201	H20	0.617800	0.732500	0.111800
H211	H21	0.568300	0.570400	0.530000
H221	H22	0.811000	0.449000	0.604200
H231	H23	0.033100	0.645300	0.334200
H241	H24	0.783800	0.758900	0.257200
H251	H25	0.189400	0.502100	0.480000
H261	H26	0.043300	0.340400	0.652200
H271	H27	0.206600	0.194500	0.803400
H281	H28	0.460100	0.092400	0.876400
H291	H29	0.667100	0.285900	0.611200
H301	H30	0.427800	0.397600	0.534600
H311	H31	0.949100	0.184500	0.080800
H321	H32	0.036200	0.300300	0.141600
H331	H33	0.007100	0.563100	0.839800
H341	H34	0.923000	0.453100	0.777400
H351	H35	0.108400	0.476000	0.113400
H361	H36	0.087500	0.658200	0.906400
H371	H37	0.219400	0.563800	0.176200
H381	H38	0.296900	0.687200	0.229400
H391	H39	0.178400	0.964800	0.953400
H401	H40	0.117800	0.844300	0.888200
C11	C1	0.001500	0.081600	0.665000
C21	C2	0.156600	0.057500	0.614200
C31	C3	0.162800	0.073000	0.510600
C41	C4	0.307500	0.048400	0.465400
C51	C5	0.447500	0.016800	0.521800
C61	C6	0.439000	0.003300	0.625400
C71	C7	0.289800	0.024700	0.671800
C81	C8	0.600900	0.993200	0.479200
C91	C9	0.631800	0.985200	0.386800
C101	C10	0.788100	0.966100	0.340800
C111	C11	0.798800	0.978400	0.237400
C121	C12	0.952700	0.960600	0.194400
C131	C13	0.072900	0.920000	0.348800
C141	C14	0.930700	0.938300	0.395400
C151	C15	0.373200	0.116100	0.118600
C161	C16	0.424800	0.229800	0.077200
C171	C17	0.460300	0.293500	0.968600
C181	C18	0.512200	0.399000	0.932400
C191	C19	0.529000	0.441500	0.002800
C201	C20	0.494700	0.375100	0.110800
C211	C21	0.444700	0.273000	0.148200
C221	C22	0.585400	0.551800	0.961200
C231	C23	0.607300	0.603800	0.018600
C241	C24	0.659400	0.716900	0.977000
C251	C25	0.712800	0.772900	0.871800
C261	C26	0.755700	0.878900	0.841000
C271	C27	0.690100	0.880700	0.002200
C281	C28	0.651300	0.771100	0.039400
C291	C29	0.501500	0.746600	0.335000
C301	C30	0.656600	0.671700	0.385800
C311	C31	0.662800	0.583600	0.489400
C321	C32	0.807500	0.513800	0.534600
C331	C33	0.947500	0.538600	0.478200
C341	C34	0.939000	0.628700	0.374600
C351	C35	0.789800	0.696500	0.328200
C361	C36	0.100900	0.472400	0.520800
C371	C37	0.131800	0.372000	0.613200
C381	C38	0.288100	0.306900	0.659200
C391	C39	0.298800	0.215800	0.762600
C401	C40	0.452700	0.155000	0.805600
C411	C41	0.572900	0.268800	0.651200
C421	C42	0.430700	0.333700	0.604600
C431	C43	0.873200	0.234700	0.881400
C441	C44	0.924800	0.307000	0.922800
C451	C45	0.960300	0.262100	0.031400
C461	C46	0.012200	0.331400	0.067600
C471	C47	0.029000	0.444300	0.997200
C481	C48	0.994700	0.485900	0.889200
C491	C49	0.944700	0.421200	0.851800
C501	C50	0.085400	0.513000	0.038800
C511	C51	0.107300	0.622400	0.981400
C521	C52	0.159400	0.693900	0.023000
C531	C53	0.212800	0.644700	0.128200
C541	C54	0.255700	0.719900	0.159000
C551	C55	0.190100	0.882900	0.997800
C561	C56	0.151300	0.810500	0.960600
N11	N1	0.083600	0.933800	0.246000
N21	N2	0.744300	0.931700	0.901200
N31	N3	0.583600	0.179800	0.754000
N41	N4	0.244300	0.832900	0.098800
O11	O1	0.004300	0.067000	0.760200
O21	O2	0.874400	0.108500	0.612800
O31	O3	0.355000	0.075600	0.055200
O41	O4	0.334300	0.067700	0.216600
O51	O5	0.504300	0.827200	0.239800
O61	O6	0.374400	0.721300	0.387200
O71	O7	0.855000	0.130800	0.944800
O81	O8	0.834300	0.284300	0.783400
