data_UXABOL_freeONLY_PM
_symmetry_space_group_name_H-M	'P1'
_cell_length_a	6.767000
_cell_length_b	11.231000
_cell_length_c	19.742500
_cell_angle_alpha	106.525000
_cell_angle_beta	90.920300
_cell_angle_gamma	90.000000
_symmetry_Int_Tables_number 1

loop_
_symmetry_equiv_pos_as_xyz
'x,y,z'

loop_
_atom_site_label
_atom_site_type_symbol
_atom_site_fract_x
_atom_site_fract_y
_atom_site_fract_z
Er11	Er1	0.809840	0.920250	0.259040
Er21	Er2	0.690160	0.661210	0.740960
Er31	Er3	0.190160	0.079750	0.740960
Er41	Er4	0.309840	0.338790	0.259040
H11	H1	0.471600	0.833200	0.035800
H21	H2	0.594900	0.075000	0.062400
H31	H3	0.485100	0.248300	0.432800
H41	H4	0.629000	0.013100	0.426200
H51	H5	0.619600	0.227600	0.546200
H61	H6	0.827900	0.011000	0.530000
H71	H7	0.676000	0.711000	0.326000
H81	H8	0.502000	0.803000	0.314000
H91	H9	0.065000	0.714300	0.174600
H101	H10	0.884000	0.648000	0.190000
H111	H11	0.247000	0.979000	0.242000
H121	H12	0.147000	0.893200	0.164400
H131	H13	0.028400	0.797400	0.964200
H141	H14	0.905100	0.012600	0.937600
H151	H15	0.014900	0.815500	0.567200
H161	H16	0.871000	0.586900	0.573800
H171	H17	0.880400	0.681400	0.453800
H181	H18	0.672100	0.481000	0.470000
H191	H19	0.824000	0.385000	0.674000
H201	H20	0.998000	0.489000	0.686000
H211	H21	0.435000	0.539700	0.825400
H221	H22	0.616000	0.458000	0.810000
H231	H23	0.253000	0.737000	0.758000
H241	H24	0.353000	0.728800	0.835600
H251	H25	0.528400	0.166800	0.964200
H261	H26	0.405100	0.925000	0.937600
H271	H27	0.514900	0.751700	0.567200
H281	H28	0.371000	0.986900	0.573800
H291	H29	0.380400	0.772400	0.453800
H301	H30	0.172100	0.989000	0.470000
H311	H31	0.324000	0.289000	0.674000
H321	H32	0.498000	0.197000	0.686000
H331	H33	0.935000	0.285700	0.825400
H341	H34	0.116000	0.352000	0.810000
H351	H35	0.753000	0.021000	0.758000
H361	H36	0.853000	0.106800	0.835600
H371	H37	0.971600	0.202600	0.035800
H381	H38	0.094900	0.987400	0.062400
H391	H39	0.985100	0.184500	0.432800
H401	H40	0.129000	0.413100	0.426200
H411	H41	0.119600	0.318600	0.546200
H421	H42	0.327900	0.519000	0.530000
H431	H43	0.176000	0.615000	0.326000
H441	H44	0.002000	0.511000	0.314000
H451	H45	0.565000	0.460300	0.174600
H461	H46	0.384000	0.542000	0.190000
H471	H47	0.747000	0.263000	0.242000
H481	H48	0.647000	0.271200	0.164400
C11	C1	0.627600	0.910920	0.130240
C21	C2	0.534900	0.905980	0.061360
C31	C3	0.538800	0.001210	0.034820
C41	C4	0.462300	0.111980	0.335160
C51	C5	0.514600	0.165600	0.410600
C61	C6	0.604700	0.096650	0.448100
C71	C7	0.664700	0.149220	0.521840
C81	C8	0.781700	0.088820	0.555240
C91	C9	0.842800	0.138620	0.630640
C101	C10	0.872400	0.780680	0.869760
C111	C11	0.965100	0.844620	0.938640
C121	C12	0.961200	0.966390	0.965180
C131	C13	0.037700	0.776820	0.664840
C141	C14	0.985400	0.755000	0.589400
C151	C15	0.895300	0.648550	0.551900
C161	C16	0.835300	0.627380	0.478160
C171	C17	0.718300	0.533580	0.444760
C181	C18	0.657200	0.507980	0.369360
C191	C19	0.372400	0.089080	0.869760
C201	C20	0.465100	0.094020	0.938640
C211	C21	0.461200	0.998790	0.965180
C221	C22	0.537700	0.888020	0.664840
C231	C23	0.485400	0.834400	0.589400
C241	C24	0.395300	0.903350	0.551900
C251	C25	0.335300	0.850780	0.478160
C261	C26	0.218300	0.911180	0.444760
C271	C27	0.157200	0.861380	0.369360
C281	C28	0.127600	0.219320	0.130240
C291	C29	0.034900	0.155380	0.061360
C301	C30	0.038800	0.033610	0.034820
C311	C31	0.962300	0.223180	0.335160
C321	C32	0.014600	0.245000	0.410600
C331	C33	0.104700	0.351450	0.448100
C341	C34	0.164700	0.372620	0.521840
C351	C35	0.281700	0.466420	0.555240
C361	C36	0.342800	0.492020	0.630640
O11	O1	0.722700	0.005880	0.164760
O21	O2	0.613600	0.820250	0.155300
O31	O3	0.511000	0.002500	0.302200
O41	O4	0.370200	0.181600	0.307000
O51	O5	0.990800	0.084280	0.648760
O61	O6	0.757200	0.229620	0.669840
O71	O7	0.640200	0.777710	0.304020
O81	O8	0.961200	0.725770	0.211740
O91	O9	0.125900	0.952670	0.211340
O101	O10	0.777300	0.841120	0.835240
O111	O11	0.886400	0.664950	0.844700
O121	O12	0.989000	0.700300	0.697800
O131	O13	0.129800	0.874600	0.693000
O141	O14	0.509200	0.435520	0.351240
O151	O15	0.742800	0.559780	0.330160
O161	O16	0.859800	0.473690	0.695980
O171	O17	0.538800	0.514030	0.788260
O181	O18	0.374100	0.741330	0.788660
O191	O19	0.277300	0.994120	0.835240
O201	O20	0.386400	0.179750	0.844700
O211	O21	0.489000	0.997500	0.697800
O221	O22	0.629800	0.818400	0.693000
O231	O23	0.009200	0.915720	0.351240
O241	O24	0.242800	0.770380	0.330160
O251	O25	0.359800	0.222290	0.695980
O261	O26	0.038800	0.274230	0.788260
O271	O27	0.874100	0.047330	0.788660
O281	O28	0.222700	0.158880	0.164760
O291	O29	0.113600	0.335050	0.155300
O301	O30	0.011000	0.299700	0.302200
O311	O31	0.870200	0.125400	0.307000
O321	O32	0.490800	0.564480	0.648760
O331	O33	0.257200	0.440220	0.669840
O341	O34	0.140200	0.526310	0.304020
O351	O35	0.461200	0.485970	0.211740
O361	O36	0.625900	0.258670	0.211340
