data_VATYEV_freeONLY_PM
_symmetry_space_group_name_H-M	'P1'
_cell_length_a	8.520000
_cell_length_b	9.510000
_cell_length_c	10.140000
_cell_angle_alpha	62.110000
_cell_angle_beta	76.150000
_cell_angle_gamma	73.730000
_symmetry_Int_Tables_number 1

loop_
_symmetry_equiv_pos_as_xyz
'x,y,z'

loop_
_atom_site_label
_atom_site_type_symbol
_atom_site_fract_x
_atom_site_fract_y
_atom_site_fract_z
Gd11	Gd1	0.667060	0.628030	0.159900
Gd21	Gd2	0.332940	0.371970	0.840100
C11	C1	0.013400	0.587300	0.951700
C21	C2	0.573300	0.023100	0.014600
C31	C3	0.447700	0.586800	0.483100
C41	C4	0.442100	0.462300	0.075000
C51	C5	0.986600	0.412700	0.048300
C61	C6	0.426700	0.976900	0.985400
C71	C7	0.552300	0.413200	0.516900
C81	C8	0.557900	0.537700	0.925000
O11	O1	0.918900	0.695800	0.984400
O21	O2	0.682700	0.908000	0.078200
O31	O3	0.472300	0.693400	0.350200
O41	O4	0.462600	0.480100	0.185000
O51	O5	0.567200	0.171000	0.968100
O61	O6	0.133100	0.607900	0.847300
O71	O7	0.340900	0.391000	0.073500
O81	O8	0.348200	0.603800	0.588800
O91	O9	0.865700	0.621000	0.303700
O101	O10	0.081100	0.304200	0.015600
O111	O11	0.317300	0.092000	0.921800
O121	O12	0.527700	0.306600	0.649800
O131	O13	0.537400	0.519900	0.815000
O141	O14	0.432800	0.829000	0.031900
O151	O15	0.866900	0.392100	0.152700
O161	O16	0.659100	0.609000	0.926500
O171	O17	0.651800	0.396200	0.411200
O181	O18	0.134300	0.379000	0.696300
