data_VEDFAN_freeONLY_PM
_symmetry_space_group_name_H-M	'P1'
_cell_length_a	11.439800
_cell_length_b	13.295500
_cell_length_c	26.248300
_cell_angle_alpha	90.000000
_cell_angle_beta	90.000000
_cell_angle_gamma	90.000000
_symmetry_Int_Tables_number 1

loop_
_symmetry_equiv_pos_as_xyz
'x,y,z'

loop_
_atom_site_label
_atom_site_type_symbol
_atom_site_fract_x
_atom_site_fract_y
_atom_site_fract_z
Co11	Co1	0.574160	0.442240	0.137050
Co21	Co2	0.317970	0.562460	0.080000
Co31	Co3	0.925840	0.557760	0.637050
Co41	Co4	0.182030	0.437540	0.580000
Co51	Co5	0.425840	0.942240	0.362950
Co61	Co6	0.682030	0.062460	0.420000
Co71	Co7	0.074160	0.057760	0.862950
Co81	Co8	0.817970	0.937540	0.920000
H11	H1	0.344200	0.408900	0.144100
H21	H2	0.383700	0.371500	0.090100
H31	H3	0.765200	0.605000	0.149800
H41	H4	0.965500	0.620900	0.146300
H51	H5	0.990100	0.324700	0.168500
H61	H6	0.788600	0.315900	0.166000
H71	H7	0.868200	0.083600	0.010400
H81	H8	0.782500	0.206100	0.059300
H91	H9	0.475000	0.131400	0.998600
H101	H10	0.567500	0.006800	0.953800
H111	H11	0.365200	0.818000	0.182700
H121	H12	0.366800	0.927500	0.249800
H131	H13	0.531000	0.734900	0.334600
H141	H14	0.542300	0.621800	0.269500
H151	H15	0.756600	0.682600	0.060300
H161	H16	0.841400	0.811800	0.016500
H171	H17	0.626100	0.775300	0.903700
H181	H18	0.526200	0.654900	0.947400
H191	H19	0.155800	0.591100	0.644100
H201	H20	0.116300	0.628500	0.590100
H211	H21	0.734800	0.395000	0.649800
H221	H22	0.534500	0.379100	0.646300
H231	H23	0.509900	0.675300	0.668500
H241	H24	0.711400	0.684100	0.666000
H251	H25	0.631800	0.916400	0.510400
H261	H26	0.717500	0.793900	0.559300
H271	H27	0.025000	0.868600	0.498600
H281	H28	0.932500	0.993200	0.453800
H291	H29	0.134800	0.182000	0.682700
H301	H30	0.133200	0.072500	0.749800
H311	H31	0.969000	0.265100	0.834600
H321	H32	0.957700	0.378200	0.769500
H331	H33	0.743400	0.317400	0.560300
H341	H34	0.658600	0.188200	0.516500
H351	H35	0.873900	0.224700	0.403700
H361	H36	0.973800	0.345100	0.447400
H371	H37	0.655800	0.908900	0.355900
H381	H38	0.616300	0.871500	0.409900
H391	H39	0.234800	0.105000	0.350200
H401	H40	0.034500	0.120900	0.353700
H411	H41	0.009900	0.824700	0.331500
H421	H42	0.211400	0.815900	0.334000
H431	H43	0.131800	0.583600	0.489600
H441	H44	0.217500	0.706100	0.440700
H451	H45	0.525000	0.631400	0.501400
H461	H46	0.432500	0.506800	0.546200
H471	H47	0.634800	0.318000	0.317300
H481	H48	0.633200	0.427500	0.250200
H491	H49	0.469000	0.234900	0.165400
H501	H50	0.457700	0.121800	0.230500
H511	H51	0.243400	0.182600	0.439700
H521	H52	0.158600	0.311800	0.483500
H531	H53	0.373900	0.275300	0.596300
H541	H54	0.473800	0.154900	0.552600
H551	H55	0.844200	0.091100	0.855900
H561	H56	0.883700	0.128500	0.909900
H571	H57	0.265200	0.895000	0.850200
H581	H58	0.465500	0.879100	0.853700
H591	H59	0.490100	0.175300	0.831500
H601	H60	0.288600	0.184100	0.834000
H611	H61	0.368200	0.416400	0.989600
H621	H62	0.282500	0.293900	0.940700
H631	H63	0.975000	0.368600	0.001400
H641	H64	0.067500	0.493200	0.046200
H651	H65	0.865200	0.682000	0.817300
H661	H66	0.866800	0.572500	0.750200
H671	H67	0.031000	0.765100	0.665400
H681	H68	0.042300	0.878200	0.730500
H691	H69	0.256600	0.817400	0.939700
H701	H70	0.341400	0.688200	0.983500
H711	H71	0.126100	0.724700	0.096300
H721	H72	0.026200	0.845100	0.052600
C11	C1	0.811100	0.547300	0.151840
C21	C2	0.931600	0.557800	0.150350
C31	C3	0.000200	0.473400	0.154910
C41	C4	0.946200	0.382400	0.162810
C51	C5	0.824600	0.378100	0.162090
C61	C6	0.133400	0.477300	0.148780
C71	C7	0.787900	0.093300	0.007860
C81	C8	0.736800	0.167400	0.037470
C91	C9	0.618000	0.183700	0.034430
C101	C10	0.555300	0.122800	0.001950
C111	C11	0.611900	0.049000	0.974430
C121	C12	0.557200	0.264700	0.064740
C131	C13	0.460700	0.632900	0.174200
C141	C14	0.454400	0.706900	0.217800
C151	C15	0.400900	0.799700	0.213120
C161	C16	0.401100	0.864600	0.253920
C171	C17	0.498200	0.752200	0.303390
C181	C18	0.504800	0.683200	0.264620
C191	C19	0.562000	0.580600	0.041970
C201	C20	0.627700	0.656300	0.009870
C211	C21	0.725800	0.702700	0.029100
C221	C22	0.777900	0.778800	0.001980
C231	C23	0.650800	0.758800	0.936400
C241	C24	0.591200	0.685200	0.962160
C251	C25	0.688900	0.452700	0.651840
C261	C26	0.568400	0.442200	0.650350
C271	C27	0.499800	0.526600	0.654910
C281	C28	0.553800	0.617600	0.662810
C291	C29	0.675400	0.621900	0.662090
C301	C30	0.366600	0.522700	0.648780
C311	C31	0.712100	0.906700	0.507860
C321	C32	0.763200	0.832600	0.537470
C331	C33	0.882000	0.816300	0.534430
C341	C34	0.944700	0.877200	0.501950
C351	C35	0.888100	0.951000	0.474430
C361	C36	0.942800	0.735300	0.564740
C371	C37	0.039300	0.367100	0.674200
C381	C38	0.045600	0.293100	0.717800
C391	C39	0.099100	0.200300	0.713120
C401	C40	0.098900	0.135400	0.753920
C411	C41	0.001800	0.247800	0.803390
C421	C42	0.995200	0.316800	0.764620
C431	C43	0.938000	0.419400	0.541970
C441	C44	0.872300	0.343700	0.509870
C451	C45	0.774200	0.297300	0.529100
C461	C46	0.722100	0.221200	0.501980
C471	C47	0.849200	0.241200	0.436400
C481	C48	0.908800	0.314800	0.462160
C491	C49	0.188900	0.047300	0.348160
C501	C50	0.068400	0.057800	0.349650
C511	C51	0.999800	0.973400	0.345090
C521	C52	0.053800	0.882400	0.337190
C531	C53	0.175400	0.878100	0.337910
C541	C54	0.866600	0.977300	0.351220
C551	C55	0.212100	0.593300	0.492140
C561	C56	0.263200	0.667400	0.462530
C571	C57	0.382000	0.683700	0.465570
C581	C58	0.444700	0.622800	0.498050
C591	C59	0.388100	0.549000	0.525570
C601	C60	0.442800	0.764700	0.435260
C611	C61	0.539300	0.132900	0.325800
C621	C62	0.545600	0.206900	0.282200
C631	C63	0.599100	0.299700	0.286880
C641	C64	0.598900	0.364600	0.246080
C651	C65	0.501800	0.252200	0.196610
C661	C66	0.495200	0.183200	0.235380
C671	C67	0.438000	0.080600	0.458030
C681	C68	0.372300	0.156300	0.490130
C691	C69	0.274200	0.202700	0.470900
C701	C70	0.222100	0.278800	0.498020
C711	C71	0.349200	0.258800	0.563600
C721	C72	0.408800	0.185200	0.537840
C731	C73	0.311100	0.952700	0.848160
C741	C74	0.431600	0.942200	0.849650
C751	C75	0.500200	0.026600	0.845090
C761	C76	0.446200	0.117600	0.837190
C771	C77	0.324600	0.121900	0.837910
C781	C78	0.633400	0.022700	0.851220
C791	C79	0.287900	0.406700	0.992140
C801	C80	0.236800	0.332600	0.962530
C811	C81	0.118000	0.316300	0.965570
C821	C82	0.055300	0.377200	0.998050
C831	C83	0.111900	0.451000	0.025570
C841	C84	0.057200	0.235300	0.935260
C851	C85	0.960700	0.867100	0.825800
C861	C86	0.954400	0.793100	0.782200
C871	C87	0.900900	0.700300	0.786880
C881	C88	0.901100	0.635400	0.746080
C891	C89	0.998200	0.747800	0.696610
C901	C90	0.004800	0.816800	0.735380
C911	C91	0.062000	0.919400	0.958030
C921	C92	0.127700	0.843700	0.990130
C931	C93	0.225800	0.797300	0.970900
C941	C94	0.277900	0.721200	0.998020
C951	C95	0.150800	0.741200	0.063600
C961	C96	0.091200	0.814800	0.037840
N11	N1	0.757900	0.458800	0.156090
N21	N2	0.727600	0.035400	0.975990
N31	N3	0.741900	0.808000	0.955570
N41	N4	0.448000	0.842210	0.299450
N51	N5	0.742100	0.541200	0.656090
N61	N6	0.772400	0.964600	0.475990
N71	N7	0.758100	0.192000	0.455570
N81	N8	0.052000	0.157790	0.799450
N91	N9	0.242100	0.958800	0.343910
N101	N10	0.272400	0.535400	0.524010
N111	N11	0.258100	0.308000	0.544430
N121	N12	0.552000	0.342210	0.200550
N131	N13	0.257900	0.041200	0.843910
N141	N14	0.227600	0.464600	0.024010
N151	N15	0.241900	0.692000	0.044430
N161	N16	0.948000	0.657790	0.700550
O11	O1	0.390270	0.426340	0.114310
O21	O2	0.527830	0.560020	0.181410
O31	O3	0.398720	0.651150	0.135970
O41	O4	0.615730	0.539640	0.077000
O51	O5	0.455880	0.568010	0.030070
O61	O6	0.171760	0.553410	0.126420
O71	O7	0.190900	0.404200	0.163720
O81	O8	0.450000	0.271800	0.059670
O91	O9	0.620600	0.318580	0.092610
O101	O10	0.109730	0.573660	0.614310
O111	O11	0.972170	0.439980	0.681410
O121	O12	0.101280	0.348850	0.635970
O131	O13	0.884270	0.460360	0.577000
O141	O14	0.044120	0.431990	0.530070
O151	O15	0.328240	0.446590	0.626420
O161	O16	0.309100	0.595800	0.663720
O171	O17	0.050000	0.728200	0.559670
O181	O18	0.879400	0.681420	0.592610
O191	O19	0.609730	0.926340	0.385690
O201	O20	0.472170	0.060020	0.318590
O211	O21	0.601280	0.151150	0.364030
O221	O22	0.384270	0.039640	0.423000
O231	O23	0.544120	0.068010	0.469930
O241	O24	0.828240	0.053410	0.373580
O251	O25	0.809100	0.904200	0.336280
O261	O26	0.550000	0.771800	0.440330
O271	O27	0.379400	0.818580	0.407390
O281	O28	0.890270	0.073660	0.885690
O291	O29	0.027830	0.939980	0.818590
O301	O30	0.898720	0.848850	0.864030
O311	O31	0.115730	0.960360	0.923000
O321	O32	0.955880	0.931990	0.969930
O331	O33	0.671760	0.946590	0.873580
O341	O34	0.690900	0.095800	0.836280
O351	O35	0.950000	0.228200	0.940330
O361	O36	0.120600	0.181420	0.907390
