data_VEDGAO_freeONLY_PM
_symmetry_space_group_name_H-M	'P1'
_cell_length_a	11.269000
_cell_length_b	13.382000
_cell_length_c	25.592000
_cell_angle_alpha	90.000000
_cell_angle_beta	90.000000
_cell_angle_gamma	90.000000
_symmetry_Int_Tables_number 1

loop_
_symmetry_equiv_pos_as_xyz
'x,y,z'

loop_
_atom_site_label
_atom_site_type_symbol
_atom_site_fract_x
_atom_site_fract_y
_atom_site_fract_z
Co11	Co1	0.917100	0.940080	0.636550
Co21	Co2	0.171420	0.059680	0.578860
Co31	Co3	0.582900	0.059920	0.136550
Co41	Co4	0.328580	0.940320	0.078860
Co51	Co5	0.082900	0.440080	0.863450
Co61	Co6	0.828580	0.559680	0.921140
Co71	Co7	0.417100	0.559920	0.363450
Co81	Co8	0.671420	0.440320	0.421140
H11	H1	0.108200	0.871300	0.587600
H21	H2	0.149300	0.909100	0.644100
H31	H3	0.712300	0.708500	0.560000
H41	H4	0.132400	0.313100	0.677000
H51	H5	0.622900	0.586200	0.509500
H61	H6	0.144400	0.424500	0.746800
H71	H7	0.930300	0.494300	0.455100
H81	H8	0.921200	0.138200	0.766200
H91	H9	0.521800	0.114800	0.658400
H101	H10	0.496600	0.814000	0.667800
H111	H11	0.031100	0.613900	0.503300
H121	H12	0.726500	0.099000	0.656400
H131	H13	0.853200	0.272900	0.397800
H141	H14	0.738200	0.188300	0.562900
H151	H15	0.956100	0.147100	0.440500
H161	H16	0.702700	0.805300	0.661400
H171	H17	0.944400	0.251400	0.834500
H181	H18	0.648300	0.312400	0.518000
H191	H19	0.391800	0.128700	0.087600
H201	H20	0.350700	0.090900	0.144100
H211	H21	0.787700	0.291500	0.060000
H221	H22	0.367600	0.686900	0.177000
H231	H23	0.877100	0.413800	0.009500
H241	H24	0.355600	0.575500	0.246800
H251	H25	0.569700	0.505700	0.955100
H261	H26	0.578800	0.861800	0.266200
H271	H27	0.978200	0.885200	0.158400
H281	H28	0.003400	0.186000	0.167800
H291	H29	0.468900	0.386100	0.003300
H301	H30	0.773500	0.901000	0.156400
H311	H31	0.646800	0.727100	0.897800
H321	H32	0.761800	0.811700	0.062900
H331	H33	0.543900	0.852900	0.940500
H341	H34	0.797300	0.194700	0.161400
H351	H35	0.555600	0.748600	0.334500
H361	H36	0.851700	0.687600	0.018000
H371	H37	0.891800	0.371300	0.912400
H381	H38	0.850700	0.409100	0.855900
H391	H39	0.287700	0.208500	0.940000
H401	H40	0.867600	0.813100	0.823000
H411	H41	0.377100	0.086200	0.990500
H421	H42	0.855600	0.924500	0.753200
H431	H43	0.069700	0.994300	0.044900
H441	H44	0.078800	0.638200	0.733800
H451	H45	0.478200	0.614800	0.841600
H461	H46	0.503400	0.314000	0.832200
H471	H47	0.968900	0.113900	0.996700
H481	H48	0.273500	0.599000	0.843600
H491	H49	0.146800	0.772900	0.102200
H501	H50	0.261800	0.688300	0.937100
H511	H51	0.043900	0.647100	0.059500
H521	H52	0.297300	0.305300	0.838600
H531	H53	0.055600	0.751400	0.665500
H541	H54	0.351700	0.812400	0.982000
H551	H55	0.608200	0.628700	0.412400
H561	H56	0.649300	0.590900	0.355900
H571	H57	0.212300	0.791500	0.440000
H581	H58	0.632400	0.186900	0.323000
H591	H59	0.122900	0.913800	0.490500
H601	H60	0.644400	0.075500	0.253200
H611	H61	0.430300	0.005700	0.544900
H621	H62	0.421200	0.361800	0.233800
H631	H63	0.021800	0.385200	0.341600
H641	H64	0.996600	0.686000	0.332200
H651	H65	0.531100	0.886100	0.496700
H661	H66	0.226500	0.401000	0.343600
H671	H67	0.353200	0.227100	0.602200
H681	H68	0.238200	0.311700	0.437100
H691	H69	0.456100	0.352900	0.559500
H701	H70	0.202700	0.694700	0.338600
H711	H71	0.444400	0.248600	0.165500
H721	H72	0.148300	0.187600	0.482000
C11	C1	0.352400	0.971600	0.654330
C21	C2	0.759000	0.666300	0.538360
C31	C3	0.883500	0.676900	0.536320
C41	C4	0.093200	0.298940	0.709030
C51	C5	0.485800	0.966000	0.660090
C61	C6	0.706800	0.593200	0.508000
C71	C7	0.925200	0.075160	0.538700
C81	C8	0.943600	0.759800	0.565600
C91	C9	0.100500	0.364500	0.750990
C101	C10	0.886100	0.539500	0.476130
C111	C11	0.969600	0.195700	0.761690
C121	C12	0.556900	0.050200	0.658570
C131	C13	0.027100	0.212300	0.715120
C141	C14	0.541900	0.873400	0.663580
C151	C15	0.946900	0.610400	0.504900
C161	C16	0.679000	0.040400	0.657270
C171	C17	0.831800	0.256900	0.432720
C181	C18	0.858300	0.152600	0.507090
C191	C19	0.022500	0.134470	0.672110
C201	C20	0.765500	0.204800	0.528880
C211	C21	0.892300	0.180100	0.457510
C221	C22	0.665300	0.868900	0.660750
C231	C23	0.983000	0.264000	0.802170
C241	C24	0.713300	0.279100	0.502000
C251	C25	0.147600	0.028400	0.154330
C261	C26	0.741000	0.333700	0.038360
C271	C27	0.616500	0.323100	0.036320
C281	C28	0.406800	0.701060	0.209030
C291	C29	0.014200	0.034000	0.160090
C301	C30	0.793200	0.406800	0.008000
C311	C31	0.574800	0.924840	0.038700
C321	C32	0.556400	0.240200	0.065600
C331	C33	0.399500	0.635500	0.250990
C341	C34	0.613900	0.460500	0.976130
C351	C35	0.530400	0.804300	0.261690
C361	C36	0.943100	0.949800	0.158570
C371	C37	0.472900	0.787700	0.215120
C381	C38	0.958100	0.126600	0.163580
C391	C39	0.553100	0.389600	0.004900
C401	C40	0.821000	0.959600	0.157270
C411	C41	0.668200	0.743100	0.932720
C421	C42	0.641700	0.847400	0.007090
C431	C43	0.477500	0.865530	0.172110
C441	C44	0.734500	0.795200	0.028880
C451	C45	0.607700	0.819900	0.957510
C461	C46	0.834700	0.131100	0.160750
C471	C47	0.517000	0.736000	0.302170
C481	C48	0.786700	0.720900	0.002000
C491	C49	0.647600	0.471600	0.845670
C501	C50	0.241000	0.166300	0.961640
C511	C51	0.116500	0.176900	0.963680
C521	C52	0.906800	0.798940	0.790970
C531	C53	0.514200	0.466000	0.839910
C541	C54	0.293200	0.093200	0.992000
C551	C55	0.074800	0.575160	0.961300
C561	C56	0.056400	0.259800	0.934400
C571	C57	0.899500	0.864500	0.749010
C581	C58	0.113900	0.039500	0.023870
C591	C59	0.030400	0.695700	0.738310
C601	C60	0.443100	0.550200	0.841430
C611	C61	0.972900	0.712300	0.784880
C621	C62	0.458100	0.373400	0.836420
C631	C63	0.053100	0.110400	0.995100
C641	C64	0.321000	0.540400	0.842730
C651	C65	0.168200	0.756900	0.067280
C661	C66	0.141700	0.652600	0.992910
C671	C67	0.977500	0.634470	0.827890
C681	C68	0.234500	0.704800	0.971120
C691	C69	0.107700	0.680100	0.042490
C701	C70	0.334700	0.368900	0.839250
C711	C71	0.017000	0.764000	0.697830
C721	C72	0.286700	0.779100	0.998000
C731	C73	0.852400	0.528400	0.345670
C741	C74	0.259000	0.833700	0.461640
C751	C75	0.383500	0.823100	0.463680
C761	C76	0.593200	0.201060	0.290970
C771	C77	0.985800	0.534000	0.339910
C781	C78	0.206800	0.906800	0.492000
C791	C79	0.425200	0.424840	0.461300
C801	C80	0.443600	0.740200	0.434400
C811	C81	0.600500	0.135500	0.249010
C821	C82	0.386100	0.960500	0.523870
C831	C83	0.469600	0.304300	0.238310
C841	C84	0.056900	0.449800	0.341430
C851	C85	0.527100	0.287700	0.284880
C861	C86	0.041900	0.626600	0.336420
C871	C87	0.446900	0.889600	0.495100
C881	C88	0.179000	0.459600	0.342730
C891	C89	0.331800	0.243100	0.567280
C901	C90	0.358300	0.347400	0.492910
C911	C91	0.522500	0.365530	0.327890
C921	C92	0.265500	0.295200	0.471120
C931	C93	0.392300	0.319900	0.542490
C941	C94	0.165300	0.631100	0.339250
C951	C95	0.483000	0.236000	0.197830
C961	C96	0.213300	0.220900	0.498000
N11	N1	0.732970	0.950370	0.657210
N21	N2	0.767230	0.531760	0.476630
N31	N3	0.048180	0.346640	0.797160
N41	N4	0.745800	0.309120	0.455030
N51	N5	0.767030	0.049630	0.157210
N61	N6	0.732770	0.468240	0.976630
N71	N7	0.451820	0.653360	0.297160
N81	N8	0.754200	0.690880	0.955030
N91	N9	0.267030	0.450370	0.842790
N101	N10	0.232770	0.031760	0.023370
N111	N11	0.951820	0.846640	0.702840
N121	N12	0.254200	0.809120	0.044970
N131	N13	0.232970	0.549630	0.342790
N141	N14	0.267230	0.968240	0.523370
N151	N15	0.548180	0.153360	0.202840
N161	N16	0.245800	0.190880	0.544970
O11	O1	0.032820	0.062690	0.525900
O21	O2	0.955240	0.061830	0.681110
O31	O3	0.314660	0.048490	0.630860
O41	O4	0.084610	0.150080	0.632360
O51	O5	0.869970	0.033620	0.574700
O61	O6	0.877140	0.814280	0.593330
O71	O7	0.101050	0.926690	0.613070
O81	O8	0.053660	0.767640	0.561250
O91	O9	0.291910	0.901190	0.671330
O101	O10	0.467180	0.937310	0.025900
O111	O11	0.544760	0.938170	0.181110
O121	O12	0.185340	0.951510	0.130860
O131	O13	0.415390	0.849920	0.132360
O141	O14	0.630030	0.966380	0.074700
O151	O15	0.622860	0.185720	0.093330
O161	O16	0.398950	0.073310	0.113070
O171	O17	0.446340	0.232360	0.061250
O181	O18	0.208090	0.098810	0.171330
O191	O19	0.967180	0.562690	0.974100
O201	O20	0.044760	0.561830	0.818890
O211	O21	0.685340	0.548490	0.869140
O221	O22	0.915390	0.650080	0.867640
O231	O23	0.130030	0.533620	0.925300
O241	O24	0.122860	0.314280	0.906670
O251	O25	0.898950	0.426690	0.886930
O261	O26	0.946340	0.267640	0.938750
O271	O27	0.708090	0.401190	0.828670
O281	O28	0.532820	0.437310	0.474100
O291	O29	0.455240	0.438170	0.318890
O301	O30	0.814660	0.451510	0.369140
O311	O31	0.584610	0.349920	0.367640
O321	O32	0.369970	0.466380	0.425300
O331	O33	0.377140	0.685720	0.406670
O341	O34	0.601050	0.573310	0.386930
O351	O35	0.553660	0.732360	0.438750
O361	O36	0.791910	0.598810	0.328670
