data_VEGXOW_freeONLY_PM
_symmetry_space_group_name_H-M	'P1'
_cell_length_a	7.127000
_cell_length_b	16.424000
_cell_length_c	31.803000
_cell_angle_alpha	90.000000
_cell_angle_beta	90.000000
_cell_angle_gamma	99.890000
_symmetry_Int_Tables_number 1

loop_
_symmetry_equiv_pos_as_xyz
'x,y,z'

loop_
_atom_site_label
_atom_site_type_symbol
_atom_site_fract_x
_atom_site_fract_y
_atom_site_fract_z
Co11	Co1	0.747630	0.601460	0.070680
Co21	Co2	0.273540	0.625140	0.073650
Co31	Co3	0.252370	0.898540	0.570680
Co41	Co4	0.726460	0.874860	0.573650
Co51	Co5	0.252370	0.398540	0.929320
Co61	Co6	0.726460	0.374860	0.926350
Co71	Co7	0.747630	0.101460	0.429320
Co81	Co8	0.273540	0.125140	0.426350
Co91	Co9	0.000000	0.500000	0.000000
Co101	Co10	0.000000	0.000000	0.500000
Co111	Co11	0.500000	0.500000	0.000000
Co121	Co12	0.500000	0.000000	0.500000
H11	H1	0.849900	0.232100	0.997000
H21	H2	0.941900	0.124900	0.033300
H31	H3	0.794400	0.218500	0.141900
H41	H4	0.672800	0.318800	0.105000
H51	H5	0.439000	0.504000	0.077500
H61	H6	0.790000	0.614000	0.997200
H71	H7	0.617100	0.034500	0.092700
H81	H8	0.465800	0.905300	0.072100
H91	H9	0.955000	0.825100	0.068700
H101	H10	0.105200	0.952700	0.091800
H111	H11	0.774000	0.610300	0.901100
H121	H12	0.602000	0.657600	0.848200
H131	H13	0.895900	0.555200	0.762100
H141	H14	0.073900	0.511900	0.814900
H151	H15	0.937700	0.731800	0.763800
H161	H16	0.121900	0.801000	0.710900
H171	H17	0.739700	0.702800	0.625500
H181	H18	0.564000	0.629600	0.677900
H191	H19	0.150100	0.267900	0.497000
H201	H20	0.058100	0.375100	0.533300
H211	H21	0.205600	0.281500	0.641900
H221	H22	0.327200	0.181200	0.605000
H231	H23	0.561000	0.996000	0.577500
H241	H24	0.210000	0.886000	0.497200
H251	H25	0.382900	0.465500	0.592700
H261	H26	0.534200	0.594700	0.572100
H271	H27	0.045000	0.674900	0.568700
H281	H28	0.894800	0.547300	0.591800
H291	H29	0.226000	0.889700	0.401100
H301	H30	0.398000	0.842400	0.348200
H311	H31	0.104100	0.944800	0.262100
H321	H32	0.926100	0.988100	0.314900
H331	H33	0.062300	0.768200	0.263800
H341	H34	0.878100	0.699000	0.210900
H351	H35	0.260300	0.797200	0.125500
H361	H36	0.436000	0.870400	0.177900
H371	H37	0.150100	0.767900	0.003000
H381	H38	0.058100	0.875100	0.966700
H391	H39	0.205600	0.781500	0.858100
H401	H40	0.327200	0.681200	0.895000
H411	H41	0.561000	0.496000	0.922500
H421	H42	0.210000	0.386000	0.002800
H431	H43	0.382900	0.965500	0.907300
H441	H44	0.534200	0.094700	0.927900
H451	H45	0.045000	0.174900	0.931300
H461	H46	0.894800	0.047300	0.908200
H471	H47	0.226000	0.389700	0.098900
H481	H48	0.398000	0.342400	0.151800
H491	H49	0.104100	0.444800	0.237900
H501	H50	0.926100	0.488100	0.185100
H511	H51	0.062300	0.268200	0.236200
H521	H52	0.878100	0.199000	0.289100
H531	H53	0.260300	0.297200	0.374500
H541	H54	0.436000	0.370400	0.322100
H551	H55	0.849900	0.732100	0.503000
H561	H56	0.941900	0.624900	0.466700
H571	H57	0.794400	0.718500	0.358100
H581	H58	0.672800	0.818800	0.395000
H591	H59	0.439000	0.004000	0.422500
H601	H60	0.790000	0.114000	0.502800
H611	H61	0.617100	0.534500	0.407300
H621	H62	0.465800	0.405300	0.427900
H631	H63	0.955000	0.325100	0.431300
H641	H64	0.105200	0.452700	0.408200
H651	H65	0.774000	0.110300	0.598900
H661	H66	0.602000	0.157600	0.651800
H671	H67	0.895900	0.055200	0.737900
H681	H68	0.073900	0.011900	0.685100
H691	H69	0.937700	0.231800	0.736200
H701	H70	0.121900	0.301000	0.789100
H711	H71	0.739700	0.202800	0.874500
H721	H72	0.564000	0.129600	0.822100
C11	C1	0.693700	0.356800	0.023840
C21	C2	0.751000	0.286400	0.047300
C31	C3	0.834300	0.228400	0.025960
C41	C4	0.893600	0.165400	0.047900
C51	C5	0.882500	0.161300	0.091700
C61	C6	0.801900	0.220000	0.112740
C71	C7	0.732000	0.281300	0.090710
C81	C8	0.965800	0.092000	0.113210
C91	C9	0.929000	0.086700	0.161170
C101	C10	0.180800	0.111800	0.106880
C111	C11	0.878000	0.006700	0.095180
C121	C12	0.684900	0.992100	0.088610
C131	C13	0.594400	0.914700	0.076000
C141	C14	0.693200	0.851400	0.069180
C151	C15	0.886500	0.866600	0.074290
C161	C16	0.976700	0.943500	0.087750
C171	C17	0.598500	0.764600	0.058740
C181	C18	0.039700	0.517500	0.897340
C191	C19	0.938400	0.554300	0.863550
C201	C20	0.798200	0.599200	0.873230
C211	C21	0.694800	0.627400	0.841530
C221	C22	0.729100	0.610600	0.799660
C231	C23	0.871700	0.566600	0.790020
C241	C24	0.977000	0.539700	0.821670
C251	C25	0.608800	0.634100	0.763210
C261	C26	0.488900	0.699200	0.776100
C271	C27	0.475600	0.553800	0.749900
C281	C28	0.730900	0.673100	0.726420
C291	C29	0.898700	0.725400	0.735960
C301	C30	0.008300	0.768000	0.704350
C311	C31	0.946500	0.760800	0.662980
C321	C32	0.780000	0.708500	0.653230
C331	C33	0.674200	0.664800	0.684700
C341	C34	0.056500	0.810600	0.629400
C351	C35	0.306300	0.143200	0.523840
C361	C36	0.249000	0.213600	0.547300
C371	C37	0.165700	0.271600	0.525960
C381	C38	0.106400	0.334600	0.547900
C391	C39	0.117500	0.338700	0.591700
C401	C40	0.198100	0.280000	0.612740
C411	C41	0.268000	0.218700	0.590710
C421	C42	0.034200	0.408000	0.613210
C431	C43	0.071000	0.413300	0.661170
C441	C44	0.819200	0.388200	0.606880
C451	C45	0.122000	0.493300	0.595180
C461	C46	0.315100	0.507900	0.588610
C471	C47	0.405600	0.585300	0.576000
C481	C48	0.306800	0.648600	0.569180
C491	C49	0.113500	0.633400	0.574290
C501	C50	0.023300	0.556500	0.587750
C511	C51	0.401500	0.735400	0.558740
C521	C52	0.960300	0.982500	0.397340
C531	C53	0.061600	0.945700	0.363550
C541	C54	0.201800	0.900800	0.373230
C551	C55	0.305200	0.872600	0.341530
C561	C56	0.270900	0.889400	0.299660
C571	C57	0.128300	0.933400	0.290020
C581	C58	0.023000	0.960300	0.321670
C591	C59	0.391200	0.865900	0.263210
C601	C60	0.511100	0.800800	0.276100
C611	C61	0.524400	0.946200	0.249900
C621	C62	0.269100	0.826900	0.226420
C631	C63	0.101300	0.774600	0.235960
C641	C64	0.991700	0.732000	0.204350
C651	C65	0.053500	0.739200	0.162980
C661	C66	0.220000	0.791500	0.153230
C671	C67	0.325800	0.835200	0.184700
C681	C68	0.943500	0.689400	0.129400
C691	C69	0.306300	0.643200	0.976160
C701	C70	0.249000	0.713600	0.952700
C711	C71	0.165700	0.771600	0.974040
C721	C72	0.106400	0.834600	0.952100
C731	C73	0.117500	0.838700	0.908300
C741	C74	0.198100	0.780000	0.887260
C751	C75	0.268000	0.718700	0.909290
C761	C76	0.034200	0.908000	0.886790
C771	C77	0.071000	0.913300	0.838830
C781	C78	0.819200	0.888200	0.893120
C791	C79	0.122000	0.993300	0.904820
C801	C80	0.315100	0.007900	0.911390
C811	C81	0.405600	0.085300	0.924000
C821	C82	0.306800	0.148600	0.930820
C831	C83	0.113500	0.133400	0.925710
C841	C84	0.023300	0.056500	0.912250
C851	C85	0.401500	0.235400	0.941260
C861	C86	0.960300	0.482500	0.102660
C871	C87	0.061600	0.445700	0.136450
C881	C88	0.201800	0.400800	0.126770
C891	C89	0.305200	0.372600	0.158470
C901	C90	0.270900	0.389400	0.200340
C911	C91	0.128300	0.433400	0.209980
C921	C92	0.023000	0.460300	0.178330
C931	C93	0.391200	0.365900	0.236790
C941	C94	0.511100	0.300800	0.223900
C951	C95	0.524400	0.446200	0.250100
C961	C96	0.269100	0.326900	0.273580
C971	C97	0.101300	0.274600	0.264040
C981	C98	0.991700	0.232000	0.295650
C991	C99	0.053500	0.239200	0.337020
C1001	C100	0.220000	0.291500	0.346770
C1011	C101	0.325800	0.335200	0.315300
C1021	C102	0.943500	0.189400	0.370600
C1031	C103	0.693700	0.856800	0.476160
C1041	C104	0.751000	0.786400	0.452700
C1051	C105	0.834300	0.728400	0.474040
C1061	C106	0.893600	0.665400	0.452100
C1071	C107	0.882500	0.661300	0.408300
C1081	C108	0.801900	0.720000	0.387260
C1091	C109	0.732000	0.781300	0.409290
C1101	C110	0.965800	0.592000	0.386790
C1111	C111	0.929000	0.586700	0.338830
C1121	C112	0.180800	0.611800	0.393120
C1131	C113	0.878000	0.506700	0.404820
C1141	C114	0.684900	0.492100	0.411390
C1151	C115	0.594400	0.414700	0.424000
C1161	C116	0.693200	0.351400	0.430820
C1171	C117	0.886500	0.366600	0.425710
C1181	C118	0.976700	0.443500	0.412250
C1191	C119	0.598500	0.264600	0.441260
C1201	C120	0.039700	0.017500	0.602660
C1211	C121	0.938400	0.054300	0.636450
C1221	C122	0.798200	0.099200	0.626770
C1231	C123	0.694800	0.127400	0.658470
C1241	C124	0.729100	0.110600	0.700340
C1251	C125	0.871700	0.066600	0.709980
C1261	C126	0.977000	0.039700	0.678330
C1271	C127	0.608800	0.134100	0.736790
C1281	C128	0.488900	0.199200	0.723900
C1291	C129	0.475600	0.053800	0.750100
C1301	C130	0.730900	0.173100	0.773580
C1311	C131	0.898700	0.225400	0.764040
C1321	C132	0.008300	0.268000	0.795650
C1331	C133	0.946500	0.260800	0.837020
C1341	C134	0.780000	0.208500	0.846770
C1351	C135	0.674200	0.164800	0.815300
C1361	C136	0.056500	0.310600	0.870600
O11	O1	0.560400	0.388610	0.035350
O21	O2	0.799500	0.383440	0.992400
O31	O3	0.697600	0.715360	0.045340
O41	O4	0.423700	0.747280	0.065430
O51	O5	0.947600	0.497240	0.931340
O61	O6	0.200400	0.503570	0.891120
O71	O7	0.229500	0.832200	0.633840
O81	O8	0.973700	0.830870	0.596870
O91	O9	0.467200	0.546520	0.064130
O101	O10	0.780800	0.565600	0.007670
O111	O11	0.439600	0.111390	0.535350
O121	O12	0.200500	0.116560	0.492400
O131	O13	0.302400	0.784640	0.545340
O141	O14	0.576300	0.752720	0.565430
O151	O15	0.052400	0.002760	0.431340
O161	O16	0.799600	0.996430	0.391120
O171	O17	0.770500	0.667800	0.133840
O181	O18	0.026300	0.669130	0.096870
O191	O19	0.532800	0.953480	0.564130
O201	O20	0.219200	0.934400	0.507670
O211	O21	0.439600	0.611390	0.964650
O221	O22	0.200500	0.616560	0.007600
O231	O23	0.302400	0.284640	0.954660
O241	O24	0.576300	0.252720	0.934570
O251	O25	0.052400	0.502760	0.068660
O261	O26	0.799600	0.496430	0.108880
O271	O27	0.770500	0.167800	0.366160
O281	O28	0.026300	0.169130	0.403130
O291	O29	0.532800	0.453480	0.935870
O301	O30	0.219200	0.434400	0.992330
O311	O31	0.560400	0.888610	0.464650
O321	O32	0.799500	0.883440	0.507600
O331	O33	0.697600	0.215360	0.454660
O341	O34	0.423700	0.247280	0.434570
O351	O35	0.947600	0.997240	0.568660
O361	O36	0.200400	0.003570	0.608880
O371	O37	0.229500	0.332200	0.866160
O381	O38	0.973700	0.330870	0.903130
O391	O39	0.467200	0.046520	0.435870
O401	O40	0.780800	0.065600	0.492330
F11	F1	0.017800	0.153860	0.181520
F21	F2	0.746300	0.081020	0.169330
F31	F3	0.983200	0.021220	0.178190
F41	F4	0.246400	0.191670	0.115160
F51	F5	0.274900	0.067620	0.131560
F61	F6	0.229100	0.098370	0.067430
F71	F7	0.591700	0.763950	0.794660
F81	F8	0.350500	0.668660	0.802920
F91	F9	0.406400	0.727910	0.743020
F101	F10	0.333400	0.567970	0.726450
F111	F11	0.568300	0.504300	0.728340
F121	F12	0.402800	0.511140	0.783520
F131	F13	0.982200	0.346140	0.681520
F141	F14	0.253700	0.418980	0.669330
F151	F15	0.016800	0.478780	0.678190
F161	F16	0.753600	0.308330	0.615160
F171	F17	0.725100	0.432380	0.631560
F181	F18	0.770900	0.401630	0.567430
F191	F19	0.408300	0.736050	0.294660
F201	F20	0.649500	0.831340	0.302920
F211	F21	0.593600	0.772090	0.243020
F221	F22	0.666600	0.932030	0.226450
F231	F23	0.431700	0.995700	0.228340
F241	F24	0.597200	0.988860	0.283520
F251	F25	0.982200	0.846140	0.818480
F261	F26	0.253700	0.918980	0.830670
F271	F27	0.016800	0.978780	0.821810
F281	F28	0.753600	0.808330	0.884840
F291	F29	0.725100	0.932380	0.868440
F301	F30	0.770900	0.901630	0.932570
F311	F31	0.408300	0.236050	0.205340
F321	F32	0.649500	0.331340	0.197080
F331	F33	0.593600	0.272090	0.256980
F341	F34	0.666600	0.432030	0.273550
F351	F35	0.431700	0.495700	0.271660
F361	F36	0.597200	0.488860	0.216480
F371	F37	0.017800	0.653860	0.318480
F381	F38	0.746300	0.581020	0.330670
F391	F39	0.983200	0.521220	0.321810
F401	F40	0.246400	0.691670	0.384840
F411	F41	0.274900	0.567620	0.368440
F421	F42	0.229100	0.598370	0.432570
F431	F43	0.591700	0.263950	0.705340
F441	F44	0.350500	0.168660	0.697080
F451	F45	0.406400	0.227910	0.756980
F461	F46	0.333400	0.067970	0.773550
F471	F47	0.568300	0.004300	0.771660
F481	F48	0.402800	0.011140	0.716480
