data_VEQBID_freeONLY_PM
_symmetry_space_group_name_H-M	'P1'
_cell_length_a	11.706000
_cell_length_b	18.186000
_cell_length_c	18.186000
_cell_angle_alpha	90.000000
_cell_angle_beta	90.000000
_cell_angle_gamma	90.000000
_symmetry_Int_Tables_number 1

loop_
_symmetry_equiv_pos_as_xyz
'x,y,z'

loop_
_atom_site_label
_atom_site_type_symbol
_atom_site_fract_x
_atom_site_fract_y
_atom_site_fract_z
Ni11	Ni1	0.160900	0.542890	0.939400
Ni21	Ni2	0.936000	0.593100	0.875760
Ni31	Ni3	0.660900	0.457110	0.060600
Ni41	Ni4	0.436000	0.406900	0.124240
Ni51	Ni5	0.910900	0.560600	0.042890
Ni61	Ni6	0.686000	0.624240	0.093100
Ni71	Ni7	0.410900	0.439400	0.957110
Ni81	Ni8	0.186000	0.375760	0.906900
Ni91	Ni9	0.589100	0.957110	0.439400
Ni101	Ni10	0.814000	0.906900	0.375760
Ni111	Ni11	0.089100	0.042890	0.560600
Ni121	Ni12	0.314000	0.093100	0.624240
Ni131	Ni13	0.839100	0.939400	0.542890
Ni141	Ni14	0.064000	0.875760	0.593100
Ni151	Ni15	0.339100	0.060600	0.457110
Ni161	Ni16	0.564000	0.124240	0.406900
Ni171	Ni17	0.000000	0.744400	0.744400
Ni181	Ni18	0.500000	0.255600	0.255600
Ni191	Ni19	0.750000	0.755600	0.244400
Ni201	Ni20	0.250000	0.244400	0.755600
H11	H1	0.891100	0.555900	0.745900
H21	H2	0.787800	0.543500	0.789100
H31	H3	0.109000	0.823300	0.833300
H41	H4	0.162800	0.832700	0.760900
H51	H5	0.889200	0.435000	0.746800
H61	H6	0.817100	0.372200	0.851000
H71	H7	0.728300	0.431800	0.826600
H81	H8	0.264000	0.754600	0.848800
H91	H9	0.333900	0.764700	0.736700
H101	H10	0.346600	0.683400	0.764600
H111	H11	0.284900	0.478100	0.844600
H121	H12	0.391100	0.444100	0.254100
H131	H13	0.287800	0.456500	0.210900
H141	H14	0.609000	0.176700	0.166700
H151	H15	0.662800	0.167300	0.239100
H161	H16	0.389200	0.565000	0.253200
H171	H17	0.317100	0.627800	0.149000
H181	H18	0.228300	0.568200	0.173400
H191	H19	0.764000	0.245400	0.151200
H201	H20	0.833900	0.235300	0.263300
H211	H21	0.846600	0.316600	0.235400
H221	H22	0.784900	0.521900	0.155400
H231	H23	0.641100	0.754100	0.055900
H241	H24	0.537800	0.710900	0.043500
H251	H25	0.859000	0.666700	0.323300
H261	H26	0.912800	0.739100	0.332700
H271	H27	0.639200	0.753200	0.935000
H281	H28	0.567100	0.649000	0.872200
H291	H29	0.478300	0.673400	0.931800
H301	H30	0.014000	0.651200	0.254600
H311	H31	0.083900	0.763300	0.264700
H321	H32	0.096600	0.735400	0.183400
H331	H33	0.034900	0.655400	0.978100
H341	H34	0.141100	0.245900	0.944100
H351	H35	0.037800	0.289100	0.956500
H361	H36	0.359000	0.333300	0.676700
H371	H37	0.412800	0.260900	0.667300
H381	H38	0.139200	0.246800	0.065000
H391	H39	0.067100	0.351000	0.127800
H401	H40	0.978300	0.326600	0.068200
H411	H41	0.514000	0.348800	0.745400
H421	H42	0.583900	0.236700	0.735300
H431	H43	0.596600	0.264600	0.816600
H441	H44	0.534900	0.344600	0.021900
H451	H45	0.858900	0.944100	0.245900
H461	H46	0.962200	0.956500	0.289100
H471	H47	0.641000	0.676700	0.333300
H481	H48	0.587200	0.667300	0.260900
H491	H49	0.860800	0.065000	0.246800
H501	H50	0.932900	0.127800	0.351000
H511	H51	0.021700	0.068200	0.326600
H521	H52	0.486000	0.745400	0.348800
H531	H53	0.416100	0.735300	0.236700
H541	H54	0.403400	0.816600	0.264600
H551	H55	0.465100	0.021900	0.344600
H561	H56	0.358900	0.055900	0.754100
H571	H57	0.462200	0.043500	0.710900
H581	H58	0.141000	0.323300	0.666700
H591	H59	0.087200	0.332700	0.739100
H601	H60	0.360800	0.935000	0.753200
H611	H61	0.432900	0.872200	0.649000
H621	H62	0.521700	0.931800	0.673400
H631	H63	0.986000	0.254600	0.651200
H641	H64	0.916100	0.264700	0.763300
H651	H65	0.903400	0.183400	0.735400
H661	H66	0.965100	0.978100	0.655400
H671	H67	0.108900	0.745900	0.555900
H681	H68	0.212200	0.789100	0.543500
H691	H69	0.891000	0.833300	0.823300
H701	H70	0.837200	0.760900	0.832700
H711	H71	0.110800	0.746800	0.435000
H721	H72	0.182900	0.851000	0.372200
H731	H73	0.271700	0.826600	0.431800
H741	H74	0.736000	0.848800	0.754600
H751	H75	0.666100	0.736700	0.764700
H761	H76	0.653400	0.764600	0.683400
H771	H77	0.715100	0.844600	0.478100
H781	H78	0.608900	0.254100	0.444100
H791	H79	0.712200	0.210900	0.456500
H801	H80	0.391000	0.166700	0.176700
H811	H81	0.337200	0.239100	0.167300
H821	H82	0.610800	0.253200	0.565000
H831	H83	0.682900	0.149000	0.627800
H841	H84	0.771700	0.173400	0.568200
H851	H85	0.236000	0.151200	0.245400
H861	H86	0.166100	0.263300	0.235300
H871	H87	0.153400	0.235400	0.316600
H881	H88	0.215100	0.155400	0.521900
C11	C1	0.009000	0.448000	0.827000
C21	C2	0.894000	0.458700	0.795100
C31	C3	0.804000	0.424700	0.847700
C41	C4	0.805000	0.456800	0.924300
C51	C5	0.150000	0.673700	0.840600
C61	C6	0.214000	0.736700	0.809000
C71	C7	0.292000	0.719800	0.745200
C81	C8	0.229000	0.695000	0.685000
C91	C9	0.509000	0.552000	0.173000
C101	C10	0.394000	0.541300	0.204900
C111	C11	0.304000	0.575300	0.152300
C121	C12	0.305000	0.543200	0.075700
C131	C13	0.650000	0.326300	0.159400
C141	C14	0.714000	0.263300	0.191000
C151	C15	0.792000	0.280200	0.254800
C161	C16	0.729000	0.305000	0.315000
C171	C17	0.759000	0.673000	0.948000
C181	C18	0.644000	0.704900	0.958700
C191	C19	0.554000	0.652300	0.924700
C201	C20	0.555000	0.575700	0.956800
C211	C21	0.900000	0.659400	0.173700
C221	C22	0.964000	0.691000	0.236700
C231	C23	0.042000	0.754800	0.219800
C241	C24	0.979000	0.815000	0.195000
C251	C25	0.259000	0.327000	0.052000
C261	C26	0.144000	0.295100	0.041300
C271	C27	0.054000	0.347700	0.075300
C281	C28	0.055000	0.424300	0.043200
C291	C29	0.400000	0.340600	0.826300
C301	C30	0.464000	0.309000	0.763300
C311	C31	0.542000	0.245200	0.780200
C321	C32	0.479000	0.185000	0.805000
C331	C33	0.741000	0.052000	0.327000
C341	C34	0.856000	0.041300	0.295100
C351	C35	0.946000	0.075300	0.347700
C361	C36	0.945000	0.043200	0.424300
C371	C37	0.600000	0.826300	0.340600
C381	C38	0.536000	0.763300	0.309000
C391	C39	0.458000	0.780200	0.245200
C401	C40	0.521000	0.805000	0.185000
C411	C41	0.241000	0.948000	0.673000
C421	C42	0.356000	0.958700	0.704900
C431	C43	0.446000	0.924700	0.652300
C441	C44	0.445000	0.956800	0.575700
C451	C45	0.100000	0.173700	0.659400
C461	C46	0.036000	0.236700	0.691000
C471	C47	0.958000	0.219800	0.754800
C481	C48	0.021000	0.195000	0.815000
C491	C49	0.991000	0.827000	0.448000
C501	C50	0.106000	0.795100	0.458700
C511	C51	0.196000	0.847700	0.424700
C521	C52	0.195000	0.924300	0.456800
C531	C53	0.850000	0.840600	0.673700
C541	C54	0.786000	0.809000	0.736700
C551	C55	0.708000	0.745200	0.719800
C561	C56	0.771000	0.685000	0.695000
C571	C57	0.491000	0.173000	0.552000
C581	C58	0.606000	0.204900	0.541300
C591	C59	0.696000	0.152300	0.575300
C601	C60	0.695000	0.075700	0.543200
C611	C61	0.350000	0.159400	0.326300
C621	C62	0.286000	0.191000	0.263300
C631	C63	0.208000	0.254800	0.280200
C641	C64	0.271000	0.315000	0.305000
N11	N1	0.864100	0.537800	0.788600
N21	N2	0.131000	0.800000	0.792100
N31	N3	0.364100	0.462200	0.211400
N41	N4	0.631000	0.200000	0.207900
N51	N5	0.614100	0.711400	0.037800
N61	N6	0.881000	0.707900	0.300000
N71	N7	0.114100	0.288600	0.962200
N81	N8	0.381000	0.292100	0.700000
N91	N9	0.885900	0.962200	0.288600
N101	N10	0.619000	0.700000	0.292100
N111	N11	0.385900	0.037800	0.711400
N121	N12	0.119000	0.300000	0.707900
N131	N13	0.135900	0.788600	0.537800
N141	N14	0.869000	0.792100	0.800000
N151	N15	0.635900	0.211400	0.462200
N161	N16	0.369000	0.207900	0.200000
O11	O1	0.054600	0.513900	0.851400
O21	O2	0.058300	0.391200	0.835500
O31	O3	0.748300	0.418700	0.972100
O41	O4	0.853100	0.515000	0.943200
O51	O5	0.043900	0.671700	0.824500
O61	O6	0.209400	0.631100	0.879100
O71	O7	0.118600	0.695900	0.680100
O81	O8	0.282000	0.655000	0.634000
O91	O9	0.273200	0.470700	0.897700
O101	O10	0.554600	0.486100	0.148600
O111	O11	0.558300	0.608800	0.164500
O121	O12	0.248300	0.581300	0.027900
O131	O13	0.353100	0.485000	0.056800
O141	O14	0.543900	0.328300	0.175500
O151	O15	0.709400	0.368900	0.120900
O161	O16	0.618600	0.304100	0.319900
O171	O17	0.782000	0.345000	0.366000
O181	O18	0.773200	0.529300	0.102300
O191	O19	0.804600	0.648600	0.013900
O201	O20	0.808300	0.664500	0.891200
O211	O21	0.498300	0.527900	0.918700
O221	O22	0.603100	0.556800	0.015000
O231	O23	0.793900	0.675500	0.171700
O241	O24	0.959400	0.620900	0.131100
O251	O25	0.868600	0.819900	0.195900
O261	O26	0.032000	0.866000	0.155000
O271	O27	0.023200	0.602300	0.970700
O281	O28	0.304600	0.351400	0.986100
O291	O29	0.308300	0.335500	0.108800
O301	O30	0.998300	0.472100	0.081300
O311	O31	0.103100	0.443200	0.985000
O321	O32	0.293900	0.324500	0.828300
O331	O33	0.459400	0.379100	0.868900
O341	O34	0.368600	0.180100	0.804100
O351	O35	0.532000	0.134000	0.845000
O361	O36	0.523200	0.397700	0.029300
O371	O37	0.695400	0.986100	0.351400
O381	O38	0.691700	0.108800	0.335500
O391	O39	0.001700	0.081300	0.472100
O401	O40	0.896900	0.985000	0.443200
O411	O41	0.706100	0.828300	0.324500
O421	O42	0.540600	0.868900	0.379100
O431	O43	0.631400	0.804100	0.180100
O441	O44	0.468000	0.845000	0.134000
O451	O45	0.476800	0.029300	0.397700
O461	O46	0.195400	0.013900	0.648600
O471	O47	0.191700	0.891200	0.664500
O481	O48	0.501700	0.918700	0.527900
O491	O49	0.396900	0.015000	0.556800
O501	O50	0.206100	0.171700	0.675500
O511	O51	0.040600	0.131100	0.620900
O521	O52	0.131400	0.195900	0.819900
O531	O53	0.968000	0.155000	0.866000
O541	O54	0.976800	0.970700	0.602300
O551	O55	0.945400	0.851400	0.513900
O561	O56	0.941700	0.835500	0.391200
O571	O57	0.251700	0.972100	0.418700
O581	O58	0.146900	0.943200	0.515000
O591	O59	0.956100	0.824500	0.671700
O601	O60	0.790600	0.879100	0.631100
O611	O61	0.881400	0.680100	0.695900
O621	O62	0.718000	0.634000	0.655000
O631	O63	0.726800	0.897700	0.470700
O641	O64	0.445400	0.148600	0.486100
O651	O65	0.441700	0.164500	0.608800
O661	O66	0.751700	0.027900	0.581300
O671	O67	0.646900	0.056800	0.485000
O681	O68	0.456100	0.175500	0.328300
O691	O69	0.290600	0.120900	0.368900
O701	O70	0.381400	0.319900	0.304100
O711	O71	0.218000	0.366000	0.345000
O721	O72	0.226800	0.102300	0.529300
