data_VEWXAY_freeONLY_PM
_symmetry_space_group_name_H-M	'P1'
_cell_length_a	17.125000
_cell_length_b	22.101500
_cell_length_c	24.938000
_cell_angle_alpha	90.000000
_cell_angle_beta	90.000000
_cell_angle_gamma	112.794000
_symmetry_Int_Tables_number 1

loop_
_symmetry_equiv_pos_as_xyz
'x,y,z'

loop_
_atom_site_label
_atom_site_type_symbol
_atom_site_fract_x
_atom_site_fract_y
_atom_site_fract_z
Cd11	Cd1	0.750000	0.500000	0.932260
Cd21	Cd2	0.250000	0.500000	0.432260
Cd31	Cd3	0.750000	0.000000	0.439290
Cd41	Cd4	0.750000	0.000000	0.939290
H11	H1	0.775300	0.877200	0.494500
H21	H2	0.725800	0.800400	0.561700
H31	H3	0.562900	0.880200	0.599800
H41	H4	0.614800	0.952200	0.530900
H51	H5	0.649900	0.721400	0.614500
H61	H6	0.704100	0.770000	0.659100
H71	H7	0.476200	0.689800	0.654000
H81	H8	0.469400	0.632400	0.693700
H91	H9	0.360900	0.618400	0.616300
H101	H10	0.270200	0.576200	0.545700
H111	H11	0.441400	0.538600	0.467300
H121	H12	0.536300	0.576000	0.537400
H131	H13	0.541500	0.715200	0.763500
H141	H14	0.549600	0.772400	0.723000
H151	H15	0.557600	0.821000	0.803200
H161	H16	0.590900	0.895800	0.873300
H171	H17	0.824200	0.929600	0.860400
H181	H18	0.797900	0.852800	0.792700
H191	H19	0.689300	0.687400	0.725000
H201	H20	0.649200	0.638000	0.677800
H211	H21	0.741400	0.633200	0.763700
H221	H22	0.790400	0.585200	0.829300
H231	H23	0.563700	0.480400	0.876700
H241	H24	0.508300	0.524000	0.811000
H251	H25	0.724700	0.122800	0.494500
H261	H26	0.774200	0.199600	0.561700
H271	H27	0.937100	0.119800	0.599800
H281	H28	0.885200	0.047800	0.530900
H291	H29	0.850100	0.278600	0.614500
H301	H30	0.795900	0.230000	0.659100
H311	H31	0.023800	0.310200	0.654000
H321	H32	0.030600	0.367600	0.693700
H331	H33	0.139100	0.381600	0.616300
H341	H34	0.229800	0.423800	0.545700
H351	H35	0.058600	0.461400	0.467300
H361	H36	0.963700	0.424000	0.537400
H371	H37	0.958500	0.284800	0.763500
H381	H38	0.950400	0.227600	0.723000
H391	H39	0.942400	0.179000	0.803200
H401	H40	0.909100	0.104200	0.873300
H411	H41	0.675800	0.070400	0.860400
H421	H42	0.702100	0.147200	0.792700
H431	H43	0.810700	0.312600	0.725000
H441	H44	0.850800	0.362000	0.677800
H451	H45	0.758600	0.366800	0.763700
H461	H46	0.709600	0.414800	0.829300
H471	H47	0.936300	0.519600	0.876700
H481	H48	0.991700	0.476000	0.811000
H491	H49	0.898100	0.122800	0.994500
H501	H50	0.925400	0.199600	0.061700
H511	H51	0.682700	0.119800	0.099800
H521	H52	0.662600	0.047800	0.030900
H531	H53	0.928500	0.278600	0.114500
H541	H54	0.934100	0.230000	0.159100
H551	H55	0.786400	0.310200	0.154000
H561	H56	0.837000	0.367600	0.193700
H571	H57	0.742500	0.381600	0.116300
H581	H58	0.694000	0.423800	0.045700
H591	H59	0.902800	0.461400	0.967300
H601	H60	0.960300	0.424000	0.037400
H611	H61	0.826300	0.284800	0.263500
H621	H62	0.777200	0.227600	0.223000
H631	H63	0.736600	0.179000	0.303200
H641	H64	0.695100	0.104200	0.373300
H651	H65	0.894600	0.070400	0.360400
H661	H66	0.945100	0.147200	0.292700
H671	H67	0.001900	0.312600	0.225000
H681	H68	0.011200	0.362000	0.177800
H691	H69	0.108200	0.366800	0.263700
H701	H70	0.205200	0.414800	0.329300
H711	H71	0.083300	0.519600	0.376700
H721	H72	0.984300	0.476000	0.311000
H731	H73	0.601900	0.877200	0.994500
H741	H74	0.574600	0.800400	0.061700
H751	H75	0.817300	0.880200	0.099800
H761	H76	0.837400	0.952200	0.030900
H771	H77	0.571500	0.721400	0.114500
H781	H78	0.565900	0.770000	0.159100
H791	H79	0.713600	0.689800	0.154000
H801	H80	0.663000	0.632400	0.193700
H811	H81	0.757500	0.618400	0.116300
H821	H82	0.806000	0.576200	0.045700
H831	H83	0.597200	0.538600	0.967300
H841	H84	0.539700	0.576000	0.037400
H851	H85	0.673700	0.715200	0.263500
H861	H86	0.722800	0.772400	0.223000
H871	H87	0.763400	0.821000	0.303200
H881	H88	0.804900	0.895800	0.373300
H891	H89	0.605400	0.929600	0.360400
H901	H90	0.554900	0.852800	0.292700
H911	H91	0.498100	0.687400	0.225000
H921	H92	0.488800	0.638000	0.177800
H931	H93	0.391800	0.633200	0.263700
H941	H94	0.294800	0.585200	0.329300
H951	H95	0.416700	0.480400	0.376700
H961	H96	0.515700	0.524000	0.311000
C11	C1	0.731200	0.877800	0.516060
C21	C2	0.702310	0.831620	0.556910
C31	C3	0.639900	0.832400	0.589640
C41	C4	0.606810	0.878220	0.578940
C51	C5	0.638520	0.921440	0.537280
C61	C6	0.647210	0.746820	0.645590
C71	C7	0.591650	0.702560	0.688450
C81	C8	0.504240	0.661680	0.666360
C91	C9	0.458110	0.601820	0.584160
C101	C10	0.378460	0.601720	0.586450
C111	C11	0.324690	0.576580	0.543780
C121	C12	0.424540	0.554080	0.498070
C131	C13	0.482670	0.577140	0.539660
C141	C14	0.576210	0.743420	0.735590
C151	C15	0.672380	0.825360	0.793420
C161	C16	0.613280	0.840760	0.815100
C171	C17	0.634370	0.887540	0.856710
C181	C18	0.768260	0.906720	0.849900
C191	C19	0.753230	0.859860	0.808840
C201	C20	0.636390	0.660380	0.707860
C211	C21	0.618890	0.586980	0.781850
C221	C22	0.703440	0.603080	0.786970
C231	C23	0.732350	0.574300	0.826960
C241	C24	0.600340	0.512880	0.854500
C251	C25	0.566790	0.538980	0.815130
C261	C26	0.768800	0.122200	0.516060
C271	C27	0.797690	0.168380	0.556910
C281	C28	0.860100	0.167600	0.589640
C291	C29	0.893190	0.121780	0.578940
C301	C30	0.861480	0.078560	0.537280
C311	C31	0.852790	0.253180	0.645590
C321	C32	0.908350	0.297440	0.688450
C331	C33	0.995760	0.338320	0.666360
C341	C34	0.041890	0.398180	0.584160
C351	C35	0.121540	0.398280	0.586450
C361	C36	0.175310	0.423420	0.543780
C371	C37	0.075460	0.445920	0.498070
C381	C38	0.017330	0.422860	0.539660
C391	C39	0.923790	0.256580	0.735590
C401	C40	0.827620	0.174640	0.793420
C411	C41	0.886720	0.159240	0.815100
C421	C42	0.865630	0.112460	0.856710
C431	C43	0.731740	0.093280	0.849900
C441	C44	0.746770	0.140140	0.808840
C451	C45	0.863610	0.339620	0.707860
C461	C46	0.881110	0.413020	0.781850
C471	C47	0.796560	0.396920	0.786970
C481	C48	0.767650	0.425700	0.826960
C491	C49	0.899660	0.487120	0.854500
C501	C50	0.933210	0.461020	0.815130
C511	C51	0.853400	0.122200	0.016060
C521	C52	0.870690	0.168380	0.056910
C531	C53	0.807500	0.167600	0.089640
C541	C54	0.728590	0.121780	0.078940
C551	C55	0.717080	0.078560	0.037280
C561	C56	0.900390	0.253180	0.145590
C571	C57	0.889090	0.297440	0.188450
C581	C58	0.842560	0.338320	0.166360
C591	C59	0.856290	0.398180	0.084160
C601	C60	0.776740	0.398280	0.086450
C611	C61	0.748110	0.423420	0.043780
C621	C62	0.870460	0.445920	0.998070
C631	C63	0.905530	0.422860	0.039660
C641	C64	0.832790	0.256580	0.235590
C651	C65	0.847020	0.174640	0.293420
C661	C66	0.772520	0.159240	0.315100
C671	C67	0.746830	0.112460	0.356710
C681	C68	0.861540	0.093280	0.349900
C691	C69	0.893370	0.140140	0.308840
C701	C70	0.976010	0.339620	0.207860
C711	C71	0.031910	0.413020	0.281850
C721	C72	0.100360	0.396920	0.286970
C731	C73	0.158050	0.425700	0.326960
C741	C74	0.087460	0.487120	0.354500
C751	C75	0.027810	0.461020	0.315130
C761	C76	0.646600	0.877800	0.016060
C771	C77	0.629310	0.831620	0.056910
C781	C78	0.692500	0.832400	0.089640
C791	C79	0.771410	0.878220	0.078940
C801	C80	0.782920	0.921440	0.037280
C811	C81	0.599610	0.746820	0.145590
C821	C82	0.610910	0.702560	0.188450
C831	C83	0.657440	0.661680	0.166360
C841	C84	0.643710	0.601820	0.084160
C851	C85	0.723260	0.601720	0.086450
C861	C86	0.751890	0.576580	0.043780
C871	C87	0.629540	0.554080	0.998070
C881	C88	0.594470	0.577140	0.039660
C891	C89	0.667210	0.743420	0.235590
C901	C90	0.652980	0.825360	0.293420
C911	C91	0.727480	0.840760	0.315100
C921	C92	0.753170	0.887540	0.356710
C931	C93	0.638460	0.906720	0.349900
C941	C94	0.606630	0.859860	0.308840
C951	C95	0.523990	0.660380	0.207860
C961	C96	0.468090	0.586980	0.281850
C971	C97	0.399640	0.603080	0.286970
C981	C98	0.341950	0.574300	0.326960
C991	C99	0.412540	0.512880	0.354500
C1001	C100	0.472190	0.538980	0.315130
N11	N1	0.699660	0.921980	0.506350
N21	N2	0.347220	0.552640	0.499500
N31	N3	0.683520	0.532460	0.862100
N41	N4	0.712620	0.920060	0.873290
N51	N5	0.800340	0.078020	0.506350
N61	N6	0.152780	0.447360	0.499500
N71	N7	0.816480	0.467540	0.862100
N81	N8	0.787380	0.079940	0.873290
N91	N9	0.777680	0.078020	0.006350
N101	N10	0.794580	0.447360	0.999500
N111	N11	0.151060	0.467540	0.362100
N121	N12	0.792560	0.079940	0.373290
N131	N13	0.722320	0.921980	0.006350
N141	N14	0.705420	0.552640	0.999500
N151	N15	0.348940	0.532460	0.362100
N161	N16	0.707440	0.920060	0.373290
O11	O1	0.608650	0.792760	0.631490
O21	O2	0.518130	0.625160	0.622710
O31	O3	0.664830	0.781440	0.754800
O41	O4	0.582030	0.612460	0.746070
O51	O5	0.891350	0.207240	0.631490
O61	O6	0.981870	0.374840	0.622710
O71	O7	0.835170	0.218560	0.754800
O81	O8	0.917970	0.387540	0.746070
O91	O9	0.815890	0.207240	0.131490
O101	O10	0.892970	0.374840	0.122710
O111	O11	0.883390	0.218560	0.254800
O121	O12	0.969570	0.387540	0.246070
O131	O13	0.684110	0.792760	0.131490
O141	O14	0.607030	0.625160	0.122710
O151	O15	0.616610	0.781440	0.254800
O161	O16	0.530430	0.612460	0.246070
Cd51	Cd5	0.750000	0.500000	0.567740
Cd61	Cd6	0.250000	0.500000	0.067740
Cd71	Cd7	0.250000	0.000000	0.060710
Cd81	Cd8	0.250000	0.000000	0.560710
H971	H97	0.101900	0.877200	0.005500
H981	H98	0.074600	0.800400	0.938300
H991	H99	0.317300	0.880200	0.900200
H1001	H100	0.337400	0.952200	0.969100
H1011	H101	0.071500	0.721400	0.885500
H1021	H102	0.065900	0.770000	0.840900
H1031	H103	0.213600	0.689800	0.846000
H1041	H104	0.163000	0.632400	0.806300
H1051	H105	0.257500	0.618400	0.883700
H1061	H106	0.306000	0.576200	0.954300
H1071	H107	0.097200	0.538600	0.032700
H1081	H108	0.039700	0.576000	0.962600
H1091	H109	0.173700	0.715200	0.736500
H1101	H110	0.222800	0.772400	0.777000
H1111	H111	0.263400	0.821000	0.696800
H1121	H112	0.304900	0.895800	0.626700
H1131	H113	0.105400	0.929600	0.639600
H1141	H114	0.054900	0.852800	0.707300
H1151	H115	0.998100	0.687400	0.775000
H1161	H116	0.988800	0.638000	0.822200
H1171	H117	0.891800	0.633200	0.736300
H1181	H118	0.794800	0.585200	0.670700
H1191	H119	0.916700	0.480400	0.623300
H1201	H120	0.015700	0.524000	0.689000
H1211	H121	0.398100	0.122800	0.005500
H1221	H122	0.425400	0.199600	0.938300
H1231	H123	0.182700	0.119800	0.900200
H1241	H124	0.162600	0.047800	0.969100
H1251	H125	0.428500	0.278600	0.885500
H1261	H126	0.434100	0.230000	0.840900
H1271	H127	0.286400	0.310200	0.846000
H1281	H128	0.337000	0.367600	0.806300
H1291	H129	0.242500	0.381600	0.883700
H1301	H130	0.194000	0.423800	0.954300
H1311	H131	0.402800	0.461400	0.032700
H1321	H132	0.460300	0.424000	0.962600
H1331	H133	0.326300	0.284800	0.736500
H1341	H134	0.277200	0.227600	0.777000
H1351	H135	0.236600	0.179000	0.696800
H1361	H136	0.195100	0.104200	0.626700
H1371	H137	0.394600	0.070400	0.639600
H1381	H138	0.445100	0.147200	0.707300
H1391	H139	0.501900	0.312600	0.775000
H1401	H140	0.511200	0.362000	0.822200
H1411	H141	0.608200	0.366800	0.736300
H1421	H142	0.705200	0.414800	0.670700
H1431	H143	0.583300	0.519600	0.623300
H1441	H144	0.484300	0.476000	0.689000
H1451	H145	0.224700	0.122800	0.505500
H1461	H146	0.274200	0.199600	0.438300
H1471	H147	0.437100	0.119800	0.400200
H1481	H148	0.385200	0.047800	0.469100
H1491	H149	0.350100	0.278600	0.385500
H1501	H150	0.295900	0.230000	0.340900
H1511	H151	0.523800	0.310200	0.346000
H1521	H152	0.530600	0.367600	0.306300
H1531	H153	0.639100	0.381600	0.383700
H1541	H154	0.729800	0.423800	0.454300
H1551	H155	0.558600	0.461400	0.532700
H1561	H156	0.463700	0.424000	0.462600
H1571	H157	0.458500	0.284800	0.236500
H1581	H158	0.450400	0.227600	0.277000
H1591	H159	0.442400	0.179000	0.196800
H1601	H160	0.409100	0.104200	0.126700
H1611	H161	0.175800	0.070400	0.139600
H1621	H162	0.202100	0.147200	0.207300
H1631	H163	0.310700	0.312600	0.275000
H1641	H164	0.350800	0.362000	0.322200
H1651	H165	0.258600	0.366800	0.236300
H1661	H166	0.209600	0.414800	0.170700
H1671	H167	0.436300	0.519600	0.123300
H1681	H168	0.491700	0.476000	0.189000
H1691	H169	0.275300	0.877200	0.505500
H1701	H170	0.225800	0.800400	0.438300
H1711	H171	0.062900	0.880200	0.400200
H1721	H172	0.114800	0.952200	0.469100
H1731	H173	0.149900	0.721400	0.385500
H1741	H174	0.204100	0.770000	0.340900
H1751	H175	0.976200	0.689800	0.346000
H1761	H176	0.969400	0.632400	0.306300
H1771	H177	0.860900	0.618400	0.383700
H1781	H178	0.770200	0.576200	0.454300
H1791	H179	0.941400	0.538600	0.532700
H1801	H180	0.036300	0.576000	0.462600
H1811	H181	0.041500	0.715200	0.236500
H1821	H182	0.049600	0.772400	0.277000
H1831	H183	0.057600	0.821000	0.196800
H1841	H184	0.090900	0.895800	0.126700
H1851	H185	0.324200	0.929600	0.139600
H1861	H186	0.297900	0.852800	0.207300
H1871	H187	0.189300	0.687400	0.275000
H1881	H188	0.149200	0.638000	0.322200
H1891	H189	0.241400	0.633200	0.236300
H1901	H190	0.290400	0.585200	0.170700
H1911	H191	0.063700	0.480400	0.123300
H1921	H192	0.008300	0.524000	0.189000
C1011	C101	0.146600	0.877800	0.983940
C1021	C102	0.129310	0.831620	0.943090
C1031	C103	0.192500	0.832400	0.910360
C1041	C104	0.271410	0.878220	0.921060
C1051	C105	0.282920	0.921440	0.962720
C1061	C106	0.099610	0.746820	0.854410
C1071	C107	0.110910	0.702560	0.811550
C1081	C108	0.157440	0.661680	0.833640
C1091	C109	0.143710	0.601820	0.915840
C1101	C110	0.223260	0.601720	0.913550
C1111	C111	0.251890	0.576580	0.956220
C1121	C112	0.129540	0.554080	0.001930
C1131	C113	0.094470	0.577140	0.960340
C1141	C114	0.167210	0.743420	0.764410
C1151	C115	0.152980	0.825360	0.706580
C1161	C116	0.227480	0.840760	0.684900
C1171	C117	0.253170	0.887540	0.643290
C1181	C118	0.138460	0.906720	0.650100
C1191	C119	0.106630	0.859860	0.691160
C1201	C120	0.023990	0.660380	0.792140
C1211	C121	0.968090	0.586980	0.718150
C1221	C122	0.899640	0.603080	0.713030
C1231	C123	0.841950	0.574300	0.673040
C1241	C124	0.912540	0.512880	0.645500
C1251	C125	0.972190	0.538980	0.684870
C1261	C126	0.353400	0.122200	0.983940
C1271	C127	0.370690	0.168380	0.943090
C1281	C128	0.307500	0.167600	0.910360
C1291	C129	0.228590	0.121780	0.921060
C1301	C130	0.217080	0.078560	0.962720
C1311	C131	0.400390	0.253180	0.854410
C1321	C132	0.389090	0.297440	0.811550
C1331	C133	0.342560	0.338320	0.833640
C1341	C134	0.356290	0.398180	0.915840
C1351	C135	0.276740	0.398280	0.913550
C1361	C136	0.248110	0.423420	0.956220
C1371	C137	0.370460	0.445920	0.001930
C1381	C138	0.405530	0.422860	0.960340
C1391	C139	0.332790	0.256580	0.764410
C1401	C140	0.347020	0.174640	0.706580
C1411	C141	0.272520	0.159240	0.684900
C1421	C142	0.246830	0.112460	0.643290
C1431	C143	0.361540	0.093280	0.650100
C1441	C144	0.393370	0.140140	0.691160
C1451	C145	0.476010	0.339620	0.792140
C1461	C146	0.531910	0.413020	0.718150
C1471	C147	0.600360	0.396920	0.713030
C1481	C148	0.658050	0.425700	0.673040
C1491	C149	0.587460	0.487120	0.645500
C1501	C150	0.527810	0.461020	0.684870
C1511	C151	0.268800	0.122200	0.483940
C1521	C152	0.297690	0.168380	0.443090
C1531	C153	0.360100	0.167600	0.410360
C1541	C154	0.393190	0.121780	0.421060
C1551	C155	0.361480	0.078560	0.462720
C1561	C156	0.352790	0.253180	0.354410
C1571	C157	0.408350	0.297440	0.311550
C1581	C158	0.495760	0.338320	0.333640
C1591	C159	0.541890	0.398180	0.415840
C1601	C160	0.621540	0.398280	0.413550
C1611	C161	0.675310	0.423420	0.456220
C1621	C162	0.575460	0.445920	0.501930
C1631	C163	0.517330	0.422860	0.460340
C1641	C164	0.423790	0.256580	0.264410
C1651	C165	0.327620	0.174640	0.206580
C1661	C166	0.386720	0.159240	0.184900
C1671	C167	0.365630	0.112460	0.143290
C1681	C168	0.231740	0.093280	0.150100
C1691	C169	0.246770	0.140140	0.191160
C1701	C170	0.363610	0.339620	0.292140
C1711	C171	0.381110	0.413020	0.218150
C1721	C172	0.296560	0.396920	0.213030
C1731	C173	0.267650	0.425700	0.173040
C1741	C174	0.399660	0.487120	0.145500
C1751	C175	0.433210	0.461020	0.184870
C1761	C176	0.231200	0.877800	0.483940
C1771	C177	0.202310	0.831620	0.443090
C1781	C178	0.139900	0.832400	0.410360
C1791	C179	0.106810	0.878220	0.421060
C1801	C180	0.138520	0.921440	0.462720
C1811	C181	0.147210	0.746820	0.354410
C1821	C182	0.091650	0.702560	0.311550
C1831	C183	0.004240	0.661680	0.333640
C1841	C184	0.958110	0.601820	0.415840
C1851	C185	0.878460	0.601720	0.413550
C1861	C186	0.824690	0.576580	0.456220
C1871	C187	0.924540	0.554080	0.501930
C1881	C188	0.982670	0.577140	0.460340
C1891	C189	0.076210	0.743420	0.264410
C1901	C190	0.172380	0.825360	0.206580
C1911	C191	0.113280	0.840760	0.184900
C1921	C192	0.134370	0.887540	0.143290
C1931	C193	0.268260	0.906720	0.150100
C1941	C194	0.253230	0.859860	0.191160
C1951	C195	0.136390	0.660380	0.292140
C1961	C196	0.118890	0.586980	0.218150
C1971	C197	0.203440	0.603080	0.213030
C1981	C198	0.232350	0.574300	0.173040
C1991	C199	0.100340	0.512880	0.145500
C2001	C200	0.066790	0.538980	0.184870
N171	N17	0.222320	0.921980	0.993650
N181	N18	0.205420	0.552640	0.000500
N191	N19	0.848940	0.532460	0.637900
N201	N20	0.207440	0.920060	0.626710
N211	N21	0.277680	0.078020	0.993650
N221	N22	0.294580	0.447360	0.000500
N231	N23	0.651060	0.467540	0.637900
N241	N24	0.292560	0.079940	0.626710
N251	N25	0.300340	0.078020	0.493650
N261	N26	0.652780	0.447360	0.500500
N271	N27	0.316480	0.467540	0.137900
N281	N28	0.287380	0.079940	0.126710
N291	N29	0.199660	0.921980	0.493650
N301	N30	0.847220	0.552640	0.500500
N311	N31	0.183520	0.532460	0.137900
N321	N32	0.212620	0.920060	0.126710
O171	O17	0.184110	0.792760	0.868510
O181	O18	0.107030	0.625160	0.877290
O191	O19	0.116610	0.781440	0.745200
O201	O20	0.030430	0.612460	0.753930
O211	O21	0.315890	0.207240	0.868510
O221	O22	0.392970	0.374840	0.877290
O231	O23	0.383390	0.218560	0.745200
O241	O24	0.469570	0.387540	0.753930
O251	O25	0.391350	0.207240	0.368510
O261	O26	0.481870	0.374840	0.377290
O271	O27	0.335170	0.218560	0.245200
O281	O28	0.417970	0.387540	0.253930
O291	O29	0.108650	0.792760	0.368510
O301	O30	0.018130	0.625160	0.377290
O311	O31	0.164830	0.781440	0.245200
O321	O32	0.082030	0.612460	0.253930
