data_VICDOC_freeONLY_PM
_symmetry_space_group_name_H-M	'P1'
_cell_length_a	7.104610
_cell_length_b	13.715200
_cell_length_c	22.951000
_cell_angle_alpha	87.702700
_cell_angle_beta	81.096500
_cell_angle_gamma	74.989100
_symmetry_Int_Tables_number 1

loop_
_symmetry_equiv_pos_as_xyz
'x,y,z'

loop_
_atom_site_label
_atom_site_type_symbol
_atom_site_fract_x
_atom_site_fract_y
_atom_site_fract_z
Fe11	Fe1	0.630040	0.250000	0.239920
Fe21	Fe2	0.119960	0.250000	0.260080
Fe31	Fe3	0.369960	0.750000	0.760080
Fe41	Fe4	0.880040	0.750000	0.739920
H11	H1	0.245280	0.993220	0.076780
H21	H2	0.178800	0.116760	0.139580
H31	H3	0.735470	0.124380	0.102740
H41	H4	0.723620	0.094240	0.011120
H51	H5	0.795600	0.838320	0.250000
H61	H6	0.725830	0.993500	0.250000
H71	H7	0.177940	0.506780	0.076780
H81	H8	0.181620	0.383240	0.139580
H91	H9	0.661790	0.375620	0.102740
H101	H10	0.765260	0.405760	0.011120
H111	H11	0.454400	0.661680	0.250000
H121	H12	0.524170	0.506500	0.250000
H131	H13	0.761500	0.993220	0.423220
H141	H14	0.704440	0.116760	0.360420
H151	H15	0.140150	0.124380	0.397260
H161	H16	0.182140	0.094240	0.488880
H171	H17	0.366080	0.838320	0.250000
H181	H18	0.280670	0.993500	0.250000
H191	H19	0.315280	0.506780	0.423220
H201	H20	0.435140	0.383240	0.360420
H211	H21	0.962590	0.375620	0.397260
H221	H22	0.828980	0.405760	0.488880
H231	H23	0.883920	0.661680	0.250000
H241	H24	0.969330	0.506500	0.250000
H251	H25	0.754720	0.006780	0.923220
H261	H26	0.821200	0.883240	0.860420
H271	H27	0.264530	0.875620	0.897260
H281	H28	0.276380	0.905760	0.988880
H291	H29	0.204400	0.161680	0.750000
H301	H30	0.274170	0.006500	0.750000
H311	H31	0.822060	0.493220	0.923220
H321	H32	0.818380	0.616760	0.860420
H331	H33	0.338210	0.624380	0.897260
H341	H34	0.234740	0.594240	0.988880
H351	H35	0.545600	0.338320	0.750000
H361	H36	0.475830	0.493500	0.750000
H371	H37	0.238500	0.006780	0.576780
H381	H38	0.295560	0.883240	0.639580
H391	H39	0.859850	0.875620	0.602740
H401	H40	0.817860	0.905760	0.511120
H411	H41	0.633920	0.161680	0.750000
H421	H42	0.719330	0.006500	0.750000
H431	H43	0.684720	0.493220	0.576780
H441	H44	0.564860	0.616760	0.639580
H451	H45	0.037410	0.624380	0.602740
H461	H46	0.171020	0.594240	0.511120
H471	H47	0.116080	0.338320	0.750000
H481	H48	0.030670	0.493500	0.750000
C11	C1	0.348690	0.995980	0.045600
C21	C2	0.481520	0.051960	0.052220
C31	C3	0.462260	0.106140	0.106680
C41	C4	0.292610	0.134500	0.147880
C51	C5	0.610210	0.138860	0.126840
C61	C6	0.632840	0.055980	0.006600
C71	C7	0.929330	0.802460	0.250000
C81	C8	0.828690	0.026060	0.250000
C91	C9	0.105710	0.504020	0.045600
C101	C10	0.966260	0.448040	0.052220
C111	C11	0.931060	0.393860	0.106680
C121	C12	0.059510	0.365500	0.147880
C131	C13	0.762950	0.361140	0.126840
C141	C14	0.860560	0.444020	0.006600
C151	C15	0.320670	0.697540	0.250000
C161	C16	0.421310	0.473940	0.250000
C171	C17	0.655330	0.995980	0.454400
C181	C18	0.466520	0.051960	0.447780
C191	C19	0.431600	0.106140	0.393320
C201	C20	0.572890	0.134500	0.352120
C211	C21	0.250930	0.138860	0.373160
C221	C22	0.311180	0.055980	0.493400
C231	C23	0.268210	0.802460	0.250000
C241	C24	0.145250	0.026060	0.250000
C251	C25	0.390270	0.504020	0.454400
C261	C26	0.585700	0.448040	0.447780
C271	C27	0.675080	0.393860	0.393320
C281	C28	0.574990	0.365500	0.352120
C291	C29	0.875910	0.361140	0.373160
C301	C30	0.695420	0.444020	0.493400
C311	C31	0.981790	0.697540	0.250000
C321	C32	0.104750	0.473940	0.250000
C331	C33	0.651310	0.004020	0.954400
C341	C34	0.518480	0.948040	0.947780
C351	C35	0.537740	0.893860	0.893320
C361	C36	0.707390	0.865500	0.852120
C371	C37	0.389790	0.861140	0.873160
C381	C38	0.367160	0.944020	0.993400
C391	C39	0.070670	0.197540	0.750000
C401	C40	0.171310	0.973940	0.750000
C411	C41	0.894290	0.495980	0.954400
C421	C42	0.033740	0.551960	0.947780
C431	C43	0.068940	0.606140	0.893320
C441	C44	0.940490	0.634500	0.852120
C451	C45	0.237050	0.638860	0.873160
C461	C46	0.139440	0.555980	0.993400
C471	C47	0.679330	0.302460	0.750000
C481	C48	0.578690	0.526060	0.750000
C491	C49	0.344670	0.004020	0.545600
C501	C50	0.533480	0.948040	0.552220
C511	C51	0.568400	0.893860	0.606680
C521	C52	0.427110	0.865500	0.647880
C531	C53	0.749070	0.861140	0.626840
C541	C54	0.688820	0.944020	0.506600
C551	C55	0.731790	0.197540	0.750000
C561	C56	0.854750	0.973940	0.750000
C571	C57	0.609730	0.495980	0.545600
C581	C58	0.414300	0.551960	0.552220
C591	C59	0.324920	0.606140	0.606680
C601	C60	0.425010	0.634500	0.647880
C611	C61	0.124090	0.638860	0.626840
C621	C62	0.304580	0.555980	0.506600
C631	C63	0.018210	0.302460	0.750000
C641	C64	0.895250	0.526060	0.750000
C651	C65	0.072540	0.854920	0.250000
C661	C66	0.017810	0.964380	0.250000
C671	C67	0.177460	0.645080	0.250000
C681	C68	0.232190	0.535620	0.250000
C691	C69	0.927460	0.145080	0.750000
C701	C70	0.982190	0.035620	0.750000
C711	C71	0.822540	0.354920	0.750000
C721	C72	0.767810	0.464380	0.750000
N11	N1	0.335690	0.184760	0.193520
N21	N2	0.531980	0.187440	0.180520
N31	N3	0.839250	0.125860	0.250000
N41	N4	0.970790	0.315240	0.193520
N51	N5	0.787500	0.312560	0.180520
N61	N6	0.410750	0.374140	0.250000
N71	N7	0.479550	0.184760	0.306480
N81	N8	0.280580	0.187440	0.319480
N91	N9	0.034890	0.125860	0.250000
N101	N10	0.713970	0.315240	0.306480
N111	N11	0.899940	0.312560	0.319480
N121	N12	0.215110	0.374140	0.250000
N131	N13	0.664310	0.815240	0.806480
N141	N14	0.468020	0.812560	0.819480
N151	N15	0.160750	0.874140	0.750000
N161	N16	0.029210	0.684760	0.806480
N171	N17	0.212500	0.687440	0.819480
N181	N18	0.589250	0.625860	0.750000
N191	N19	0.520450	0.815240	0.693520
N201	N20	0.719420	0.812560	0.680520
N211	N21	0.965110	0.874140	0.750000
N221	N22	0.286030	0.684760	0.693520
N231	N23	0.100060	0.687440	0.680520
N241	N24	0.784890	0.625860	0.750000
