data_VIGNOQ_freeONLY_PM
_symmetry_space_group_name_H-M	'P1'
_cell_length_a	12.004000
_cell_length_b	13.943000
_cell_length_c	22.746000
_cell_angle_alpha	95.776000
_cell_angle_beta	105.206000
_cell_angle_gamma	104.265000
_symmetry_Int_Tables_number 1

loop_
_symmetry_equiv_pos_as_xyz
'x,y,z'

loop_
_atom_site_label
_atom_site_type_symbol
_atom_site_fract_x
_atom_site_fract_y
_atom_site_fract_z
Na11	Na1	0.709500	0.301900	0.156800
Na21	Na2	0.290500	0.698100	0.843200
Ag11	Ag1	0.515770	0.439710	0.082610
Ag21	Ag2	0.854820	0.485310	0.145880
Ag31	Ag3	0.973860	0.650290	0.303520
Ag41	Ag4	0.397940	0.618720	0.174200
Ag51	Ag5	0.186360	0.925690	0.558950
Ag61	Ag6	0.316600	0.329410	0.934020
Ag71	Ag7	0.151340	0.163540	0.998430
Ag81	Ag8	0.484230	0.560290	0.917390
Ag91	Ag9	0.145180	0.514690	0.854120
Ag101	Ag10	0.026140	0.349710	0.696480
Ag111	Ag11	0.602060	0.381280	0.825800
Ag121	Ag12	0.813640	0.074310	0.441050
Ag131	Ag13	0.683400	0.670590	0.065980
Ag141	Ag14	0.848660	0.836460	0.001570
H11	H1	0.215000	0.792900	0.342800
H21	H2	0.352800	0.871100	0.432600
H31	H3	0.572700	0.728200	0.396900
H41	H4	0.433300	0.646800	0.304700
H51	H5	0.837100	0.590900	0.517500
H61	H6	0.698600	0.445100	0.509500
H71	H7	0.934100	0.468700	0.381300
H81	H8	0.784800	0.327900	0.370400
H91	H9	0.816900	0.724700	0.363100
H101	H10	0.846800	0.868700	0.431000
H111	H11	0.576200	0.824000	0.241400
H121	H12	0.658200	0.974500	0.306500
H131	H13	0.758800	0.252000	0.917800
H141	H14	0.902300	0.165200	0.919700
H151	H15	0.129700	0.360200	0.058300
H161	H16	0.998000	0.452900	0.058900
H171	H17	0.543900	0.024500	0.911800
H181	H18	0.635500	0.892300	0.914000
H191	H19	0.746000	0.133100	0.084600
H201	H20	0.818500	0.003300	0.089200
H211	H21	0.785000	0.207100	0.657200
H221	H22	0.647200	0.128900	0.567400
H231	H23	0.427300	0.271800	0.603100
H241	H24	0.566700	0.353200	0.695300
H251	H25	0.162900	0.409100	0.482500
H261	H26	0.301400	0.554900	0.490500
H271	H27	0.065900	0.531300	0.618700
H281	H28	0.215200	0.672100	0.629600
H291	H29	0.183100	0.275300	0.636900
H301	H30	0.153200	0.131300	0.569000
H311	H31	0.423800	0.176000	0.758600
H321	H32	0.341800	0.025500	0.693500
H331	H33	0.241200	0.748000	0.082200
H341	H34	0.097700	0.834800	0.080300
H351	H35	0.870300	0.639800	0.941700
H361	H36	0.002000	0.547100	0.941100
H371	H37	0.456100	0.975500	0.088200
H381	H38	0.364500	0.107700	0.086000
H391	H39	0.254000	0.866900	0.915400
H401	H40	0.181500	0.996700	0.910800
C11	C1	0.214900	0.659100	0.257500
C21	C2	0.304800	0.713000	0.315200
C31	C3	0.288000	0.777600	0.352900
C41	C4	0.372000	0.825000	0.407200
C51	C5	0.499000	0.741800	0.386200
C61	C6	0.415900	0.692700	0.331000
C71	C7	0.985700	0.647400	0.451100
C81	C8	0.900000	0.547500	0.445300
C91	C9	0.827000	0.536500	0.487400
C101	C10	0.748000	0.452000	0.483700
C111	C11	0.884600	0.467000	0.406700
C121	C12	0.799000	0.380800	0.402300
C131	C13	0.687500	0.674700	0.245500
C141	C14	0.706300	0.760200	0.291500
C151	C15	0.780000	0.773500	0.350200
C161	C16	0.798900	0.861300	0.390400
C171	C17	0.641000	0.834700	0.276800
C181	C18	0.683000	0.919300	0.318400
C191	C19	0.778900	0.423800	0.990100
C201	C20	0.864800	0.359500	0.985300
C211	C21	0.835000	0.276300	0.946300
C221	C22	0.922000	0.223800	0.948400
C231	C23	0.054500	0.337500	0.028700
C241	C24	0.977100	0.394400	0.030000
C251	C25	0.576000	0.175800	0.003000
C261	C26	0.637000	0.091200	0.998200
C271	C27	0.602000	0.021500	0.947000
C281	C28	0.658000	0.942800	0.948400
C291	C29	0.721000	0.083200	0.049700
C301	C30	0.768000	0.010000	0.051800
C311	C31	0.785100	0.340900	0.742500
C321	C32	0.695200	0.287000	0.684800
C331	C33	0.712000	0.222400	0.647100
C341	C34	0.628000	0.175000	0.592800
C351	C35	0.501000	0.258200	0.613800
C361	C36	0.584100	0.307300	0.669000
C371	C37	0.014300	0.352600	0.548900
C381	C38	0.100000	0.452500	0.554700
C391	C39	0.173000	0.463500	0.512600
C401	C40	0.252000	0.548000	0.516300
C411	C41	0.115400	0.533000	0.593300
C421	C42	0.201000	0.619200	0.597700
C431	C43	0.312500	0.325300	0.754500
C441	C44	0.293700	0.239800	0.708500
C451	C45	0.220000	0.226500	0.649800
C461	C46	0.201100	0.138700	0.609600
C471	C47	0.359000	0.165300	0.723200
C481	C48	0.317000	0.080700	0.681600
C491	C49	0.221100	0.576200	0.009900
C501	C50	0.135200	0.640500	0.014700
C511	C51	0.165000	0.723700	0.053700
C521	C52	0.078000	0.776200	0.051600
C531	C53	0.945500	0.662500	0.971300
C541	C54	0.022900	0.605600	0.970000
C551	C55	0.424000	0.824200	0.997000
C561	C56	0.363000	0.908800	0.001800
C571	C57	0.398000	0.978500	0.053000
C581	C58	0.342000	0.057200	0.051600
C591	C59	0.279000	0.916800	0.950300
C601	C60	0.232000	0.990000	0.948200
N11	N1	0.242400	0.619600	0.206700
N21	N2	0.133700	0.572000	0.164000
N31	N3	0.048100	0.583000	0.189600
N41	N4	0.477200	0.810400	0.426300
N51	N5	0.025900	0.685600	0.406200
N61	N6	0.100500	0.776500	0.433900
N71	N7	0.097100	0.792900	0.491100
N81	N8	0.022200	0.713500	0.504300
N91	N9	0.738900	0.369200	0.438500
N101	N10	0.777400	0.631500	0.242800
N111	N11	0.734000	0.561400	0.192700
N121	N12	0.621000	0.559500	0.166100
N131	N13	0.589900	0.630900	0.197600
N141	N14	0.755300	0.931900	0.375400
N151	N15	0.782600	0.481400	0.039100
N161	N16	0.698000	0.521500	0.021500
N171	N17	0.638600	0.490100	0.965700
N181	N18	0.688200	0.422700	0.940600
N191	N19	0.033900	0.254300	0.990000
N201	N20	0.600800	0.248200	0.051600
N211	N21	0.529400	0.302700	0.030600
N221	N22	0.460300	0.266100	0.974200
N231	N23	0.492000	0.185900	0.952800
N241	N24	0.746000	0.941800	0.001000
N251	N25	0.098500	0.633900	0.245900
N261	N26	0.757600	0.380400	0.793300
N271	N27	0.866300	0.428000	0.836000
N281	N28	0.951900	0.417000	0.810400
N291	N29	0.522800	0.189600	0.573700
N301	N30	0.974100	0.314400	0.593800
N311	N31	0.899500	0.223500	0.566100
N321	N32	0.902900	0.207100	0.508900
N331	N33	0.977800	0.286500	0.495700
N341	N34	0.261100	0.630800	0.561500
N351	N35	0.222600	0.368500	0.757200
N361	N36	0.266000	0.438600	0.807300
N371	N37	0.379000	0.440500	0.833900
N381	N38	0.410100	0.369100	0.802400
N391	N39	0.244700	0.068100	0.624600
N401	N40	0.217400	0.518600	0.960900
N411	N41	0.302000	0.478500	0.978500
N421	N42	0.361400	0.509900	0.034300
N431	N43	0.311800	0.577300	0.059400
N441	N44	0.966100	0.745700	0.010000
N451	N45	0.399200	0.751800	0.948400
N461	N46	0.470600	0.697300	0.969400
N471	N47	0.539700	0.733900	0.025800
N481	N48	0.508000	0.814100	0.047200
N491	N49	0.254000	0.058200	0.999000
N501	N50	0.901500	0.366100	0.754100
O11	O1	0.122000	0.255000	0.862700
O21	O2	0.878000	0.745000	0.137300
