data_VIGRIO_freeONLY_PM
_symmetry_space_group_name_H-M	'P1'
_cell_length_a	8.602730
_cell_length_b	13.264800
_cell_length_c	14.942000
_cell_angle_alpha	83.564900
_cell_angle_beta	73.269500
_cell_angle_gamma	71.078700
_symmetry_Int_Tables_number 1

loop_
_symmetry_equiv_pos_as_xyz
'x,y,z'

loop_
_atom_site_label
_atom_site_type_symbol
_atom_site_fract_x
_atom_site_fract_y
_atom_site_fract_z
Zn11	Zn1	0.838510	0.802340	0.945700
Zn21	Zn2	0.586550	0.697660	0.554300
Zn31	Zn3	0.161490	0.197660	0.054300
Zn41	Zn4	0.413450	0.302340	0.445700
Zn51	Zn5	0.000000	0.000000	0.000000
Zn61	Zn6	0.000000	0.500000	0.500000
H11	H1	0.728400	0.097300	0.725900
H21	H2	0.808300	0.230400	0.628800
H31	H3	0.270400	0.122400	0.675600
H41	H4	0.863300	0.591100	0.027300
H51	H5	0.725200	0.465600	0.058600
H61	H6	0.417900	0.638700	0.903700
H71	H7	0.564800	0.759200	0.877200
H81	H8	0.151000	0.740000	0.846000
H91	H9	0.088000	0.659000	0.837000
H101	H10	0.551600	0.402700	0.774100
H111	H11	0.667500	0.269600	0.871200
H121	H12	0.068400	0.377600	0.824400
H131	H13	0.481700	0.908900	0.472700
H141	H14	0.249400	0.034400	0.441400
H151	H15	0.960300	0.861300	0.596300
H161	H16	0.201200	0.740800	0.622800
H171	H17	0.737000	0.760000	0.654000
H181	H18	0.584000	0.841000	0.663000
H191	H19	0.271600	0.902700	0.274100
H201	H20	0.191700	0.769600	0.371200
H211	H21	0.729600	0.877600	0.324400
H221	H22	0.136700	0.408900	0.972700
H231	H23	0.274800	0.534400	0.941400
H241	H24	0.582100	0.361300	0.096300
H251	H25	0.435200	0.240800	0.122800
H261	H26	0.849000	0.260000	0.154000
H271	H27	0.912000	0.341000	0.163000
H281	H28	0.448400	0.597300	0.225900
H291	H29	0.332500	0.730400	0.128800
H301	H30	0.931600	0.622400	0.175600
H311	H31	0.518300	0.091100	0.527300
H321	H32	0.750600	0.965600	0.558600
H331	H33	0.039700	0.138700	0.403700
H341	H34	0.798800	0.259200	0.377200
H351	H35	0.263000	0.240000	0.346000
H361	H36	0.416000	0.159000	0.337000
C11	C1	0.884710	0.951280	0.828500
C21	C2	0.947700	0.032420	0.763580
C31	C3	0.836560	0.103180	0.717300
C41	C4	0.884710	0.182590	0.658390
C51	C5	0.045870	0.190670	0.643590
C61	C6	0.103410	0.276380	0.580400
C71	C7	0.160490	0.118160	0.687060
C81	C8	0.112220	0.039720	0.747240
C91	C9	0.770940	0.601420	0.003100
C101	C10	0.688050	0.525600	0.022500
C111	C11	0.549100	0.538600	0.988200
C121	C12	0.506650	0.627900	0.931000
C131	C13	0.596200	0.699900	0.915100
C141	C14	0.664490	0.548720	0.671500
C151	C15	0.743700	0.467580	0.736420
C161	C16	0.657040	0.396820	0.782700
C171	C17	0.725690	0.317410	0.841610
C181	C18	0.880130	0.309330	0.856410
C191	C19	0.960190	0.223620	0.919600
C201	C20	0.965710	0.381840	0.812940
C211	C21	0.899180	0.460280	0.752760
C221	C22	0.375460	0.898580	0.496900
C231	C23	0.236150	0.974400	0.477500
C241	C24	0.075900	0.961400	0.511800
C251	C25	0.065550	0.872100	0.569000
C261	C26	0.211200	0.800100	0.584900
C271	C27	0.115290	0.048720	0.171500
C281	C28	0.052300	0.967580	0.236420
C291	C29	0.163440	0.896820	0.282700
C301	C30	0.115290	0.817410	0.341610
C311	C31	0.954130	0.809330	0.356410
C321	C32	0.896590	0.723620	0.419600
C331	C33	0.839510	0.881840	0.312940
C341	C34	0.887780	0.960280	0.252760
C351	C35	0.229060	0.398580	0.996900
C361	C36	0.311950	0.474400	0.977500
C371	C37	0.450900	0.461400	0.011800
C381	C38	0.493350	0.372100	0.069000
C391	C39	0.403800	0.300100	0.084900
C401	C40	0.335510	0.451280	0.328500
C411	C41	0.256300	0.532420	0.263580
C421	C42	0.342960	0.603180	0.217300
C431	C43	0.274310	0.682590	0.158390
C441	C44	0.119870	0.690670	0.143590
C451	C45	0.039810	0.776380	0.080400
C461	C46	0.034290	0.618160	0.187060
C471	C47	0.100820	0.539720	0.247240
C481	C48	0.624540	0.101420	0.503100
C491	C49	0.763850	0.025600	0.522500
C501	C50	0.924100	0.038600	0.488200
C511	C51	0.934450	0.127900	0.431000
C521	C52	0.788800	0.199900	0.415100
S11	S1	0.272380	0.948840	0.796300
S21	S2	0.017520	0.551160	0.703700
S31	S3	0.727620	0.051160	0.203700
S41	S4	0.982480	0.448840	0.296300
N11	N1	0.725680	0.689360	0.951080
N21	N2	0.366120	0.810640	0.548920
N31	N3	0.274320	0.310640	0.048920
N41	N4	0.633880	0.189360	0.451080
O11	O1	0.910350	0.937230	0.910470
O21	O2	0.811310	0.897450	0.804930
O31	O3	0.996510	0.347680	0.549100
O41	O4	0.259840	0.268130	0.565190
O51	O5	0.432280	0.963000	0.742440
O61	O6	0.232370	0.981160	0.893500
O71	O7	0.263650	0.843600	0.788900
O81	O8	0.084600	0.705850	0.871950
O91	O9	0.758050	0.562770	0.589530
O101	O10	0.513690	0.602550	0.695070
O111	O11	0.893290	0.152320	0.950900
O121	O12	0.093160	0.231870	0.934810
O131	O13	0.137720	0.537000	0.757560
O141	O14	0.107030	0.518840	0.606500
O151	O15	0.896150	0.656400	0.711100
O161	O16	0.662400	0.794150	0.628050
O171	O17	0.089650	0.062770	0.089530
O181	O18	0.188690	0.102550	0.195070
O191	O19	0.003490	0.652320	0.450900
O201	O20	0.740160	0.731870	0.434810
O211	O21	0.567720	0.037000	0.257560
O221	O22	0.767630	0.018840	0.106500
O231	O23	0.736350	0.156400	0.211100
O241	O24	0.915400	0.294150	0.128050
O251	O25	0.241950	0.437230	0.410470
O261	O26	0.486310	0.397450	0.304930
O271	O27	0.106710	0.847680	0.049100
O281	O28	0.906840	0.768130	0.065190
O291	O29	0.862280	0.463000	0.242440
O301	O30	0.892970	0.481160	0.393500
O311	O31	0.103850	0.343600	0.288900
O321	O32	0.337600	0.205850	0.371950
