data_VITKUG_charged_PM
_symmetry_space_group_name_H-M	'P1'
_cell_length_a	10.594400
_cell_length_b	11.593400
_cell_length_c	15.822000
_cell_angle_alpha	106.130000
_cell_angle_beta	90.000000
_cell_angle_gamma	90.000000
_symmetry_Int_Tables_number 1

loop_
_symmetry_equiv_pos_as_xyz
'x,y,z'

loop_
_atom_site_label
_atom_site_type_symbol
_atom_site_fract_x
_atom_site_fract_y
_atom_site_fract_z
Cu11	Cu1	0.636770	0.985200	0.499210
Cu21	Cu2	0.636770	0.014800	0.000790
Cu31	Cu3	0.502420	0.140670	0.685620
Cu41	Cu4	0.497580	0.859330	0.314380
Cu51	Cu5	0.497580	0.140670	0.185620
Cu61	Cu6	0.363230	0.014800	0.500790
Cu71	Cu7	0.502420	0.859330	0.814380
Cu81	Cu8	0.363230	0.985200	0.999210
H11	H1	0.995500	0.054100	0.120600
H21	H2	0.505000	0.061300	0.400600
H31	H3	0.520300	0.501000	0.351900
H41	H4	0.495000	0.061300	0.900600
H51	H5	0.004500	0.054100	0.620600
H61	H6	0.995500	0.945900	0.379400
H71	H7	0.004500	0.945900	0.879400
H81	H8	0.495000	0.938700	0.599400
H91	H9	0.479700	0.499000	0.648100
H101	H10	0.505000	0.938700	0.099400
H111	H11	0.479700	0.501000	0.851900
H121	H12	0.520300	0.499000	0.148100
C11	C1	0.003200	0.032700	0.672900
C21	C2	0.236400	0.956200	0.834100
C31	C3	0.118300	0.017600	0.710800
C41	C4	0.494100	0.389700	0.520000
C51	C5	0.763600	0.043800	0.165900
C61	C6	0.111000	0.983000	0.289500
C71	C7	0.881700	0.017600	0.210800
C81	C8	0.881700	0.982400	0.289200
C91	C9	0.230800	0.961300	0.333300
C101	C10	0.517200	0.721700	0.140700
C111	C11	0.505900	0.610300	0.480000
C121	C12	0.517200	0.278300	0.359300
C131	C13	0.510200	0.497300	0.086500
C141	C14	0.510200	0.502700	0.413500
C151	C15	0.482800	0.278300	0.859300
C161	C16	0.996800	0.032700	0.172900
C171	C17	0.769200	0.961300	0.833300
C181	C18	0.118300	0.982400	0.789200
C191	C19	0.495600	0.607500	0.567400
C201	C20	0.476700	0.724600	0.952100
C211	C21	0.230800	0.038700	0.166700
C221	C22	0.996800	0.967300	0.327100
C231	C23	0.111000	0.017000	0.210500
C241	C24	0.523300	0.724600	0.452100
C251	C25	0.489800	0.497300	0.586500
C261	C26	0.482800	0.721700	0.640700
C271	C27	0.236400	0.043800	0.665900
C281	C28	0.889000	0.983000	0.789500
C291	C29	0.504400	0.392500	0.432600
C301	C30	0.523300	0.275400	0.047900
C311	C31	0.763600	0.956200	0.334100
C321	C32	0.769200	0.038700	0.666700
C331	C33	0.495600	0.392500	0.932600
C341	C34	0.505900	0.389700	0.020000
C351	C35	0.504400	0.607500	0.067400
C361	C36	0.476700	0.275400	0.547900
C371	C37	0.003200	0.967300	0.827100
C381	C38	0.494100	0.610300	0.980000
C391	C39	0.489800	0.502700	0.913500
C401	C40	0.889000	0.017000	0.710500
O11	O1	0.319500	0.891800	0.789300
O21	O2	0.319500	0.108200	0.710700
O31	O3	0.512500	0.284200	0.782700
O41	O4	0.498400	0.005800	0.582900
O51	O5	0.233900	0.999500	0.917200
O61	O6	0.440500	0.252000	0.097500
O71	O7	0.233200	0.010500	0.415200
O81	O8	0.559500	0.748000	0.902500
O91	O9	0.487500	0.715800	0.217300
O101	O10	0.622800	0.782700	0.474500
O111	O11	0.622800	0.217300	0.025500
O121	O12	0.501600	0.994200	0.417100
O131	O13	0.512500	0.715800	0.717300
O141	O14	0.498400	0.994200	0.917100
O151	O15	0.487500	0.284200	0.282700
O161	O16	0.766100	0.000500	0.082800
O171	O17	0.686300	0.104200	0.712000
O181	O18	0.766100	0.999500	0.417200
O191	O19	0.559500	0.252000	0.597500
O201	O20	0.377200	0.782700	0.974500
O211	O21	0.233900	0.000500	0.582800
O221	O22	0.680500	0.108200	0.210700
O231	O23	0.313700	0.895800	0.288000
O241	O24	0.501600	0.005800	0.082900
O251	O25	0.440500	0.748000	0.402500
O261	O26	0.680500	0.891800	0.289300
O271	O27	0.766800	0.010500	0.915200
O281	O28	0.442200	0.188200	0.877600
O291	O29	0.557800	0.188200	0.377600
O301	O30	0.557800	0.811800	0.122400
O311	O31	0.766800	0.989500	0.584800
O321	O32	0.686300	0.895800	0.788000
O331	O33	0.377200	0.217300	0.525500
O341	O34	0.442200	0.811800	0.622400
O351	O35	0.313700	0.104200	0.212000
O361	O36	0.233200	0.989500	0.084800
H131	H13	0.070500	0.653100	0.856600
H141	H14	0.216000	0.745900	0.013200
H151	H15	0.065200	0.548100	0.695400
H161	H16	0.207700	0.549100	0.963100
H171	H17	0.210500	0.546300	0.705800
H181	H18	0.069100	0.555300	0.965700
H191	H19	0.148500	0.303000	0.418200
H201	H20	0.213400	0.357200	0.644300
H211	H21	0.070500	0.346900	0.643400
H221	H22	0.216000	0.254100	0.486800
H231	H23	0.065200	0.451900	0.804600
H241	H24	0.069100	0.444700	0.534300
H251	H25	0.210500	0.453700	0.794200
H261	H26	0.074400	0.253300	0.475700
H271	H27	0.213400	0.642800	0.855700
H281	H28	0.148500	0.697000	0.081800
H291	H29	0.207700	0.450900	0.536900
H301	H30	0.074400	0.746700	0.024300
C411	C41	0.135400	0.508400	0.704100
C421	C42	0.135400	0.491600	0.795900
C431	C43	0.140200	0.406500	0.543000
C441	C44	0.138800	0.387500	0.632900
C451	C45	0.138800	0.612500	0.867100
C461	C46	0.140200	0.593500	0.957000
N11	N1	0.147700	0.708400	0.027500
N21	N2	0.147700	0.291600	0.472500
H311	H31	0.934800	0.548100	0.195400
H321	H32	0.929500	0.653100	0.356600
H331	H33	0.789500	0.546300	0.205800
H341	H34	0.784000	0.745900	0.513200
H351	H35	0.789500	0.453700	0.294200
H361	H36	0.786600	0.357200	0.144300
H371	H37	0.784000	0.254100	0.986800
H381	H38	0.934800	0.451900	0.304600
H391	H39	0.925600	0.746700	0.524300
H401	H40	0.930900	0.555300	0.465700
H411	H41	0.851500	0.303000	0.918200
H421	H42	0.851500	0.697000	0.581800
H431	H43	0.786600	0.642800	0.355700
H441	H44	0.925600	0.253300	0.975700
H451	H45	0.792300	0.450900	0.036900
H461	H46	0.792300	0.549100	0.463100
H471	H47	0.930900	0.444700	0.034300
H481	H48	0.929500	0.346900	0.143400
C471	C47	0.861200	0.612500	0.367100
C481	C48	0.859800	0.593500	0.457000
C491	C49	0.864600	0.508400	0.204100
C501	C50	0.861200	0.387500	0.132900
C511	C51	0.864600	0.491600	0.295900
C521	C52	0.859800	0.406500	0.043000
N31	N3	0.852300	0.708400	0.527500
N41	N4	0.852300	0.291600	0.972500
