data_VIWLAQ_freeONLY_PM
_symmetry_space_group_name_H-M	'P1'
_cell_length_a	10.856000
_cell_length_b	19.706000
_cell_length_c	22.799000
_cell_angle_alpha	90.000000
_cell_angle_beta	90.000000
_cell_angle_gamma	99.490000
_symmetry_Int_Tables_number 1

loop_
_symmetry_equiv_pos_as_xyz
'x,y,z'

loop_
_atom_site_label
_atom_site_type_symbol
_atom_site_fract_x
_atom_site_fract_y
_atom_site_fract_z
Nd11	Nd1	0.649610	0.347360	0.644420
Nd21	Nd2	0.850390	0.152640	0.144420
Nd31	Nd3	0.149610	0.847360	0.855580
Nd41	Nd4	0.458740	0.596730	0.851490
Nd51	Nd5	0.350390	0.652640	0.355580
Nd61	Nd6	0.541260	0.403270	0.148510
Nd71	Nd7	0.958740	0.096730	0.648510
Nd81	Nd8	0.041260	0.903270	0.351490
Cu11	Cu1	0.693700	0.344120	0.822990
Cu21	Cu2	0.090050	0.904120	0.173190
Cu31	Cu3	0.909950	0.095880	0.826810
Cu41	Cu4	0.193700	0.844120	0.677010
Cu51	Cu5	0.306300	0.655880	0.177010
Cu61	Cu6	0.590050	0.404120	0.326810
Cu71	Cu7	0.806300	0.155880	0.322990
Cu81	Cu8	0.409950	0.595880	0.673190
H11	H1	0.517900	0.997400	0.193100
H21	H2	0.391300	0.188500	0.699500
H31	H3	0.108700	0.311500	0.199500
H41	H4	0.381500	0.060500	0.302800
H51	H5	0.618500	0.939500	0.697200
H61	H6	0.482100	0.002600	0.806900
H71	H7	0.225600	0.251000	0.704400
H81	H8	0.086700	0.466100	0.086300
H91	H9	0.982100	0.502600	0.693100
H101	H10	0.017900	0.497400	0.306900
H111	H11	0.725600	0.751000	0.795600
H121	H12	0.586700	0.966100	0.413700
H131	H13	0.413300	0.033900	0.586300
H141	H14	0.891300	0.688500	0.800500
H151	H15	0.913300	0.533900	0.913700
H161	H16	0.118500	0.439500	0.802800
H171	H17	0.774400	0.749000	0.295600
H181	H18	0.274400	0.249000	0.204400
H191	H19	0.881500	0.560500	0.197200
H201	H20	0.608700	0.811500	0.300500
C11	C1	0.454100	0.832400	0.672200
C21	C2	0.536200	0.104800	0.793300
C31	C3	0.344200	0.954000	0.401300
C41	C4	0.141300	0.401500	0.784100
C51	C5	0.491200	0.838900	0.239400
C61	C6	0.814300	0.981900	0.762800
C71	C7	0.638900	0.969300	0.252400
C81	C8	0.928600	0.663800	0.207700
C91	C9	0.954100	0.332400	0.827800
C101	C10	0.463800	0.895200	0.206700
C111	C11	0.648900	0.108200	0.831900
C121	C12	0.036200	0.604800	0.706700
C131	C13	0.627700	0.998600	0.496600
C141	C14	0.872300	0.501400	0.996600
C151	C15	0.896100	0.720500	0.236600
C161	C16	0.076000	0.731800	0.728800
C171	C17	0.424000	0.768200	0.228800
C181	C18	0.209400	0.540700	0.239800
C191	C19	0.991200	0.338900	0.260600
C201	C20	0.641300	0.901500	0.715900
C211	C21	0.746200	0.909300	0.752600
C221	C22	0.463600	0.291700	0.274100
C231	C23	0.045900	0.667600	0.172200
C241	C24	0.314300	0.481900	0.737200
C251	C25	0.737500	0.506700	0.990500
C261	C26	0.253800	0.090700	0.247400
C271	C27	0.923400	0.480500	0.047800
C281	C28	0.536400	0.708300	0.725900
C291	C29	0.287400	0.417900	0.183100
C301	C30	0.071400	0.336200	0.792300
C311	C31	0.103900	0.279500	0.763400
C321	C32	0.571400	0.836200	0.707700
C331	C33	0.290600	0.959300	0.739800
C341	C34	0.099900	0.142700	0.186100
C351	C35	0.545900	0.167600	0.327800
C361	C36	0.372300	0.001400	0.503400
C371	C37	0.762500	0.993300	0.490500
C381	C38	0.576600	0.019500	0.547800
C391	C39	0.206500	0.288300	0.725400
C401	C40	0.237500	0.006700	0.509500
C411	C41	0.400100	0.357300	0.686100
C421	C42	0.246200	0.409300	0.747400
C431	C43	0.212600	0.082100	0.683100
C441	C44	0.709400	0.040700	0.260200
C451	C45	0.167400	0.412900	0.216000
C461	C46	0.138900	0.469300	0.247600
C471	C47	0.963800	0.395200	0.293300
C481	C48	0.552300	0.979500	0.448300
C491	C49	0.787400	0.917900	0.316900
C501	C50	0.008800	0.661100	0.739400
C511	C51	0.851100	0.391800	0.331900
C521	C52	0.706500	0.788300	0.774600
C531	C53	0.832600	0.587100	0.784000
C541	C54	0.148900	0.608200	0.668100
C551	C55	0.423400	0.980500	0.452200
C561	C56	0.720400	0.647600	0.280900
C571	C57	0.900100	0.857300	0.813900
C581	C58	0.793500	0.711700	0.274600
C591	C59	0.537200	0.960100	0.214100
C601	C60	0.220400	0.147600	0.219100
C611	C61	0.599900	0.642700	0.313900
C621	C62	0.858700	0.598500	0.215900
C631	C63	0.712600	0.582100	0.816900
C641	C64	0.408300	0.151600	0.721800
C651	C65	0.655800	0.046000	0.598700
C661	C66	0.396100	0.220500	0.263400
C671	C67	0.790600	0.459300	0.760200
C681	C68	0.279600	0.352400	0.719100
C691	C69	0.428600	0.163800	0.292300
C701	C70	0.036400	0.208300	0.774100
C711	C71	0.667400	0.912900	0.284000
C721	C72	0.753800	0.590700	0.252600
C731	C73	0.924000	0.268200	0.271200
C741	C74	0.861100	0.530700	0.752400
C751	C75	0.091700	0.348400	0.221800
C761	C76	0.844200	0.454000	0.098700
C771	C77	0.962800	0.539900	0.714100
C781	C78	0.963600	0.791700	0.225900
C791	C79	0.603900	0.779500	0.736600
C801	C80	0.332600	0.087100	0.716000
C811	C81	0.591700	0.848400	0.278200
C821	C82	0.947700	0.520500	0.948300
C831	C83	0.447700	0.020500	0.551700
C841	C84	0.351100	0.891800	0.168100
C851	C85	0.908300	0.651600	0.778200
C861	C86	0.076600	0.519500	0.952200
C871	C87	0.037200	0.460100	0.285900
C881	C88	0.358700	0.098500	0.284100
C891	C89	0.185700	0.018100	0.237200
C901	C90	0.685700	0.518100	0.262800
C911	C91	0.052300	0.479500	0.051700
C921	C92	0.262500	0.493300	0.009500
C931	C93	0.127700	0.498600	0.003400
C941	C94	0.361100	0.030700	0.747600
C951	C95	0.293500	0.211700	0.225400
C961	C96	0.508800	0.161100	0.760600
C971	C97	0.576000	0.231800	0.771200
C981	C98	0.779600	0.852400	0.780900
C991	C99	0.462800	0.039900	0.785900
C1001	C100	0.155800	0.546000	0.901300
O11	O1	0.331600	0.539400	0.039000
O21	O2	0.960800	0.348300	0.880500
O31	O3	0.301500	0.441800	0.987600
O41	O4	0.339400	0.800900	0.822000
O51	O5	0.839400	0.300900	0.678000
O61	O6	0.408400	0.726000	0.271000
O71	O7	0.853200	0.017600	0.719600
O81	O8	0.799000	0.882000	0.361600
O91	O9	0.525000	0.375100	0.821200
O101	O10	0.908400	0.226000	0.229000
O111	O11	0.668400	0.460600	0.961000
O121	O12	0.910300	0.820700	0.857900
O131	O13	0.824300	0.000600	0.815600
O141	O14	0.747500	0.370800	0.307700
O151	O15	0.006800	0.103700	0.207300
O161	O16	0.226000	0.560700	0.186800
O171	O17	0.160600	0.699100	0.322000
O181	O18	0.373300	0.775100	0.388800
O191	O19	0.103800	0.830900	0.962300
O201	O20	0.475000	0.624900	0.178800
O211	O21	0.489400	0.390500	0.041600
O221	O22	0.928000	0.939100	0.177900
O231	O23	0.091600	0.774000	0.771000
O241	O24	0.332700	0.899000	0.915500
O251	O25	0.675700	0.499400	0.315600
O261	O26	0.003800	0.807300	0.174800
O271	O27	0.496200	0.692700	0.674800
O281	O28	0.168400	0.960600	0.539000
O291	O29	0.388700	0.752400	0.177100
O301	O30	0.626700	0.224900	0.611200
O311	O31	0.269300	0.654300	0.080900
O321	O32	0.774000	0.055300	0.592000
O331	O33	0.759400	0.423600	0.716300
O341	O34	0.460800	0.848300	0.619500
O351	O35	0.146800	0.982400	0.280400
O361	O36	0.476400	0.717700	0.887400
O371	O37	0.599900	0.454600	0.601200
O381	O38	0.353200	0.517600	0.780400
O391	O39	0.410300	0.320700	0.642100
O401	O40	0.698500	0.558200	0.012400
O411	O41	0.230700	0.845700	0.580900
O421	O42	0.892000	0.086300	0.923700
O431	O43	0.247500	0.870800	0.192300
O441	O44	0.873300	0.275100	0.111200
O451	O45	0.039200	0.651700	0.119500
O461	O46	0.730700	0.345700	0.919100
O471	O47	0.198500	0.058200	0.487600
O481	O48	0.506800	0.603700	0.292700
O491	O49	0.801500	0.941800	0.512400
O501	O50	0.864300	0.412800	0.383300
O511	O51	0.524500	0.667000	0.768100
O521	O52	0.024500	0.167000	0.731900
O531	O53	0.646800	0.482400	0.219600
O541	O54	0.769300	0.154300	0.419100
O551	O55	0.724800	0.352700	0.190200
O561	O56	0.996200	0.192700	0.825200
O571	O57	0.604300	0.059400	0.645700
O581	O58	0.775200	0.147300	0.690200
O591	O59	0.832700	0.399000	0.584500
O601	O60	0.364300	0.912800	0.116700
O611	O61	0.975500	0.833000	0.268100
O621	O62	0.108000	0.913700	0.076300
O631	O63	0.126700	0.724900	0.888800
O641	O64	0.392000	0.586300	0.576300
O651	O65	0.646200	0.185100	0.298800
O661	O66	0.252500	0.629200	0.692300
O671	O67	0.591600	0.274000	0.729000
O681	O68	0.201000	0.118000	0.638400
O691	O69	0.353800	0.814900	0.701200
O701	O70	0.167300	0.601000	0.415500
O711	O71	0.099900	0.954600	0.898800
O721	O72	0.888700	0.252400	0.322900
O731	O73	0.752500	0.129200	0.807700
O741	O74	0.882500	0.955500	0.294400
O751	O75	0.608000	0.413700	0.423700
O761	O76	0.774000	0.439300	0.813200
O771	O77	0.611300	0.247600	0.822900
O781	O78	0.896200	0.169100	0.037700
O791	O79	0.975200	0.978800	0.604500
O801	O80	0.503800	0.307300	0.325200
O811	O81	0.617500	0.544500	0.794400
O821	O82	0.259400	0.923600	0.783700
O831	O83	0.831600	0.039400	0.461000
O841	O84	0.274000	0.939300	0.686800
O851	O85	0.299000	0.382000	0.138400
O861	O86	0.603800	0.330900	0.537700
O871	O87	0.025000	0.875100	0.678800
O881	O88	0.226000	0.944700	0.408000
O891	O89	0.510600	0.609500	0.958400
O901	O90	0.104300	0.559400	0.854300
O911	O91	0.726000	0.060700	0.313200
O921	O92	0.400100	0.545400	0.398800
O931	O93	0.660600	0.199100	0.178000
O941	O94	0.275200	0.647300	0.809800
O951	O95	0.135700	0.587200	0.616700
O961	O96	0.976400	0.217700	0.612600
O971	O97	0.493200	0.396300	0.707300
O981	O98	0.024800	0.021200	0.395500
O991	O99	0.523600	0.282300	0.112600
O1001	O100	0.396200	0.669100	0.462300
O1011	O101	0.572000	0.560900	0.677900
O1021	O102	0.475200	0.478800	0.895500
O1031	O103	0.524800	0.521200	0.104500
O1041	O104	0.089700	0.179300	0.142100
O1051	O105	0.240600	0.576400	0.283700
O1061	O106	0.667300	0.101000	0.084500
O1071	O107	0.224800	0.852700	0.309800
O1081	O108	0.589700	0.679300	0.357900
O1091	O109	0.111300	0.747600	0.677100
O1101	O110	0.701000	0.618000	0.861600
O1111	O111	0.900100	0.045400	0.101200
O1121	O112	0.072000	0.060900	0.822100
O1131	O113	0.853800	0.314900	0.798800
O1141	O114	0.382500	0.455500	0.205600
O1151	O115	0.117500	0.044500	0.705600
O1161	O116	0.146200	0.685100	0.201200
O1171	O117	0.175700	0.999400	0.184400
O1181	O118	0.740600	0.076400	0.216300
O1191	O119	0.274000	0.555300	0.908000
O1201	O120	0.726000	0.444700	0.092000
O1211	O121	0.635700	0.087200	0.883300
O1221	O122	0.324300	0.500600	0.684400
O1231	O123	0.539200	0.151700	0.380500
O1241	O124	0.475500	0.333000	0.231900
O1251	O125	0.428000	0.439100	0.322100
O1261	O126	0.395700	0.940600	0.354300
O1271	O127	0.993200	0.896300	0.792700
O1281	O128	0.010600	0.109500	0.541600
O1291	O129	0.975000	0.124900	0.321200
O1301	O130	0.895700	0.440600	0.145700
O1311	O131	0.023600	0.782300	0.387400
O1321	O132	0.989400	0.890500	0.458400
