data_VIXCUB_freeONLY_PM
_symmetry_space_group_name_H-M	'P1'
_cell_length_a	11.652500
_cell_length_b	18.355400
_cell_length_c	18.355400
_cell_angle_alpha	84.217600
_cell_angle_beta	71.493400
_cell_angle_gamma	71.493500
_symmetry_Int_Tables_number 1

loop_
_symmetry_equiv_pos_as_xyz
'x,y,z'

loop_
_atom_site_label
_atom_site_type_symbol
_atom_site_fract_x
_atom_site_fract_y
_atom_site_fract_z
Cu11	Cu1	0.414960	0.595230	0.257430
Cu21	Cu2	0.767620	0.904770	0.242570
Cu31	Cu3	0.672390	0.742570	0.095230
Cu41	Cu4	0.010190	0.757430	0.404770
Cu51	Cu5	0.585040	0.404770	0.742570
Cu61	Cu6	0.232380	0.095230	0.757430
Cu71	Cu7	0.327610	0.257430	0.904770
Cu81	Cu8	0.989810	0.242570	0.595230
Cu91	Cu9	0.500000	0.500000	0.500000
Cu101	Cu10	0.000000	0.000000	0.000000
Cu111	Cu11	0.000000	0.500000	0.000000
Cu121	Cu12	0.000000	0.000000	0.500000
H11	H1	0.972600	0.756000	0.569800
H21	H2	0.966200	0.727300	0.696100
H31	H3	0.129800	0.631000	0.727800
H41	H4	0.311000	0.567500	0.630500
H51	H5	0.184400	0.632300	0.228100
H61	H6	0.337100	0.675400	0.045600
H71	H7	0.243200	0.649800	0.013400
H81	H8	0.211700	0.737700	0.034900
H91	H9	0.003200	0.677100	0.197100
H101	H10	0.006100	0.745900	0.136300
H111	H11	0.020200	0.662300	0.109300
H121	H12	0.798400	0.744000	0.930200
H131	H13	0.889600	0.772700	0.803900
H141	H14	0.988600	0.869000	0.772200
H151	H15	0.009000	0.932500	0.869500
H161	H16	0.544800	0.867700	0.271900
H171	H17	0.558100	0.824600	0.454400
H181	H18	0.406400	0.850200	0.486600
H191	H19	0.484300	0.762300	0.465100
H201	H20	0.377400	0.822900	0.302900
H211	H21	0.388300	0.754100	0.363700
H221	H22	0.291800	0.837700	0.390700
H231	H23	0.542400	0.430200	0.256000
H241	H24	0.662300	0.303900	0.227300
H251	H25	0.857600	0.272200	0.131000
H261	H26	0.941500	0.369500	0.067500
H271	H27	0.412500	0.771900	0.132300
H281	H28	0.382700	0.954400	0.175400
H291	H29	0.256600	0.986600	0.149800
H301	H30	0.246600	0.965100	0.237700
H311	H31	0.200300	0.802900	0.177100
H321	H32	0.142400	0.863700	0.245900
H331	H33	0.129500	0.890700	0.162300
H341	H34	0.728600	0.069800	0.244000
H351	H35	0.693500	0.196100	0.272700
H361	H36	0.760800	0.227800	0.369000
H371	H37	0.878500	0.130500	0.432500
H381	H38	0.816700	0.728100	0.367700
H391	H39	0.012500	0.545600	0.324600
H401	H40	0.893000	0.513400	0.350200
H411	H41	0.949400	0.534900	0.262300
H421	H42	0.680300	0.697100	0.322900
H431	H43	0.752000	0.636300	0.254100
H441	H44	0.682500	0.609300	0.337700
H451	H45	0.027400	0.244000	0.430200
H461	H46	0.033800	0.272700	0.303900
H471	H47	0.870200	0.369000	0.272200
H481	H48	0.689000	0.432500	0.369500
H491	H49	0.815600	0.367700	0.771900
H501	H50	0.662900	0.324600	0.954400
H511	H51	0.756800	0.350200	0.986600
H521	H52	0.788300	0.262300	0.965100
H531	H53	0.996800	0.322900	0.802900
H541	H54	0.993900	0.254100	0.863700
H551	H55	0.979800	0.337700	0.890700
H561	H56	0.201600	0.256000	0.069800
H571	H57	0.110400	0.227300	0.196100
H581	H58	0.011400	0.131000	0.227800
H591	H59	0.991000	0.067500	0.130500
H601	H60	0.455200	0.132300	0.728100
H611	H61	0.441900	0.175400	0.545600
H621	H62	0.593600	0.149800	0.513400
H631	H63	0.515700	0.237700	0.534900
H641	H64	0.622600	0.177100	0.697100
H651	H65	0.611700	0.245900	0.636300
H661	H66	0.708200	0.162300	0.609300
H671	H67	0.457600	0.569800	0.744000
H681	H68	0.337700	0.696100	0.772700
H691	H69	0.142400	0.727800	0.869000
H701	H70	0.058500	0.630500	0.932500
H711	H71	0.587500	0.228100	0.867700
H721	H72	0.617300	0.045600	0.824600
H731	H73	0.743400	0.013400	0.850200
H741	H74	0.753400	0.034900	0.762300
H751	H75	0.799700	0.197100	0.822900
H761	H76	0.857600	0.136300	0.754100
H771	H77	0.870500	0.109300	0.837700
H781	H78	0.271400	0.930200	0.756000
H791	H79	0.306500	0.803900	0.727300
H801	H80	0.239200	0.772200	0.631000
H811	H81	0.121500	0.869500	0.567500
H821	H82	0.183300	0.271900	0.632300
H831	H83	0.987500	0.454400	0.675400
H841	H84	0.107000	0.486600	0.649800
H851	H85	0.050600	0.465100	0.737700
H861	H86	0.319700	0.302900	0.677100
H871	H87	0.248000	0.363700	0.745900
H881	H88	0.317500	0.390700	0.662300
C11	C1	0.360440	0.601450	0.410870
C21	C2	0.250470	0.657640	0.391820
C31	C3	0.145630	0.677120	0.522220
C41	C4	0.040810	0.717140	0.581440
C51	C5	0.037480	0.699920	0.656120
C61	C6	0.135890	0.643160	0.675460
C71	C7	0.242270	0.604890	0.617970
C81	C8	0.248030	0.621700	0.540640
C91	C9	0.235170	0.641140	0.178120
C101	C10	0.248100	0.684360	0.048840
C111	C11	0.040600	0.690520	0.143680
C121	C12	0.872760	0.898550	0.089130
C131	C13	0.799930	0.842360	0.108180
C141	C14	0.844970	0.822880	0.977780
C151	C15	0.839390	0.782860	0.918560
C161	C16	0.893520	0.800080	0.843880
C171	C17	0.954510	0.856840	0.824540
C181	C18	0.965130	0.895110	0.882030
C191	C19	0.910370	0.878300	0.959360
C201	C20	0.554430	0.858860	0.321880
C211	C21	0.481300	0.815640	0.451160
C221	C22	0.374800	0.809480	0.356320
C231	C23	0.771310	0.589130	0.101450
C241	C24	0.642290	0.608180	0.157640
C251	C25	0.667850	0.477780	0.177120
C261	C26	0.622250	0.418560	0.217140
C271	C27	0.693600	0.343880	0.199920
C281	C28	0.811350	0.324540	0.143160
C291	C29	0.860240	0.382030	0.104890
C301	C30	0.788670	0.459360	0.121700
C311	C31	0.413290	0.821880	0.141140
C321	C32	0.296940	0.951160	0.184360
C331	C33	0.184280	0.856320	0.190520
C341	C34	0.961890	0.910870	0.398550
C351	C35	0.908110	0.891820	0.342360
C361	C36	0.822750	0.022220	0.322880
C371	C37	0.757950	0.081440	0.282860
C381	C38	0.737400	0.156120	0.300080
C391	C39	0.779050	0.175460	0.356840
C401	C40	0.847160	0.117970	0.395110
C411	C41	0.869730	0.040640	0.378300
C421	C42	0.876310	0.678120	0.358860
C431	C43	0.932460	0.548840	0.315640
C441	C44	0.731120	0.643680	0.309480
C451	C45	0.639560	0.398550	0.589130
C461	C46	0.749530	0.342360	0.608180
C471	C47	0.854370	0.322880	0.477780
C481	C48	0.959190	0.282860	0.418560
C491	C49	0.962520	0.300080	0.343880
C501	C50	0.864110	0.356840	0.324540
C511	C51	0.757730	0.395110	0.382030
C521	C52	0.751970	0.378300	0.459360
C531	C53	0.764830	0.358860	0.821880
C541	C54	0.751900	0.315640	0.951160
C551	C55	0.959400	0.309480	0.856320
C561	C56	0.127240	0.101450	0.910870
C571	C57	0.200070	0.157640	0.891820
C581	C58	0.155030	0.177120	0.022220
C591	C59	0.160610	0.217140	0.081440
C601	C60	0.106480	0.199920	0.156120
C611	C61	0.045490	0.143160	0.175460
C621	C62	0.034870	0.104890	0.117970
C631	C63	0.089630	0.121700	0.040640
C641	C64	0.445570	0.141140	0.678120
C651	C65	0.518700	0.184360	0.548840
C661	C66	0.625200	0.190520	0.643680
C671	C67	0.228690	0.410870	0.898550
C681	C68	0.357710	0.391820	0.842360
C691	C69	0.332150	0.522220	0.822880
C701	C70	0.377750	0.581440	0.782860
C711	C71	0.306400	0.656120	0.800080
C721	C72	0.188650	0.675460	0.856840
C731	C73	0.139760	0.617970	0.895110
C741	C74	0.211330	0.540640	0.878300
C751	C75	0.586710	0.178120	0.858860
C761	C76	0.703060	0.048840	0.815640
C771	C77	0.815720	0.143680	0.809480
C781	C78	0.038110	0.089130	0.601450
C791	C79	0.091890	0.108180	0.657640
C801	C80	0.177250	0.977780	0.677120
C811	C81	0.242050	0.918560	0.717140
C821	C82	0.262600	0.843880	0.699920
C831	C83	0.220950	0.824540	0.643160
C841	C84	0.152840	0.882030	0.604890
C851	C85	0.130270	0.959360	0.621700
C861	C86	0.123690	0.321880	0.641140
C871	C87	0.067540	0.451160	0.684360
C881	C88	0.268880	0.356320	0.690520
N11	N1	0.355490	0.583730	0.482830
N21	N2	0.147300	0.692410	0.446570
N31	N3	0.177800	0.669960	0.126440
N41	N4	0.922050	0.916270	0.017170
N51	N5	0.786280	0.807590	0.053430
N61	N6	0.474200	0.830040	0.373560
N71	N7	0.838320	0.517170	0.083730
N81	N8	0.593870	0.553430	0.192410
N91	N9	0.304240	0.873560	0.169960
N101	N10	0.939220	0.982830	0.416270
N111	N11	0.839710	0.946570	0.307590
N121	N12	0.847760	0.626440	0.330040
N131	N13	0.644510	0.416270	0.517170
N141	N14	0.852700	0.307590	0.553430
N151	N15	0.822200	0.330040	0.873560
N161	N16	0.077950	0.083730	0.982830
N171	N17	0.213720	0.192410	0.946570
N181	N18	0.525800	0.169960	0.626440
N191	N19	0.161680	0.482830	0.916270
N201	N20	0.406130	0.446570	0.807590
N211	N21	0.695760	0.126440	0.830040
N221	N22	0.060780	0.017170	0.583730
N231	N23	0.160290	0.053430	0.692410
N241	N24	0.152240	0.373560	0.669960
Cl11	Cl1	0.596440	0.588000	0.507520
Cl21	Cl2	0.191960	0.912000	0.992480
Cl31	Cl3	0.103960	0.492480	0.088000
Cl41	Cl4	0.184440	0.007520	0.412000
Cl51	Cl5	0.403560	0.412000	0.492480
Cl61	Cl6	0.808040	0.088000	0.007520
Cl71	Cl7	0.896040	0.507520	0.912000
Cl81	Cl8	0.815560	0.992480	0.588000
O11	O1	0.457370	0.570130	0.354230
O21	O2	0.259870	0.669300	0.320640
O31	O3	0.352460	0.624370	0.166430
O41	O4	0.881730	0.929870	0.145770
O51	O5	0.749810	0.830700	0.179360
O61	O6	0.643260	0.875630	0.333570
O71	O7	0.811600	0.645770	0.070130
O81	O8	0.580510	0.679360	0.169300
O91	O9	0.518890	0.833570	0.124370
O101	O10	0.027500	0.854230	0.429870
O111	O11	0.929170	0.820640	0.330700
O121	O12	0.976830	0.666430	0.375630
O131	O13	0.542630	0.429870	0.645770
O141	O14	0.740130	0.330700	0.679360
O151	O15	0.647540	0.375630	0.833570
O161	O16	0.118270	0.070130	0.854230
O171	O17	0.250190	0.169300	0.820640
O181	O18	0.356740	0.124370	0.666430
O191	O19	0.188400	0.354230	0.929870
O201	O20	0.419490	0.320640	0.830700
O211	O21	0.481110	0.166430	0.875630
O221	O22	0.972500	0.145770	0.570130
O231	O23	0.070830	0.179360	0.669300
O241	O24	0.023170	0.333570	0.624370
