data_VOLQOD_freeONLY_PM
_symmetry_space_group_name_H-M	'P1'
_cell_length_a	19.377600
_cell_length_b	19.377600
_cell_length_c	31.613900
_cell_angle_alpha	105.796000
_cell_angle_beta	105.796000
_cell_angle_gamma	94.182900
_symmetry_Int_Tables_number 1

loop_
_symmetry_equiv_pos_as_xyz
'x,y,z'

loop_
_atom_site_label
_atom_site_type_symbol
_atom_site_fract_x
_atom_site_fract_y
_atom_site_fract_z
Zn11	Zn1	0.754960	0.531360	0.650200
Zn21	Zn2	0.608790	0.446210	0.573140
Zn31	Zn3	0.683870	0.379430	0.652150
Zn41	Zn4	0.755930	0.388110	0.573510
Zn51	Zn5	0.531360	0.754960	0.150200
Zn61	Zn6	0.446210	0.608790	0.073140
Zn71	Zn7	0.379430	0.683870	0.152150
Zn81	Zn8	0.388110	0.755930	0.073510
H11	H1	0.509800	0.383200	0.703400
H21	H2	0.424000	0.425000	0.740400
H31	H3	0.327700	0.501500	0.635900
H41	H4	0.413600	0.461800	0.599700
H51	H5	0.388600	0.523400	0.783100
H61	H6	0.185100	0.561300	0.780900
H71	H7	0.226200	0.475400	0.659700
H81	H8	0.376800	0.493800	0.850000
H91	H9	0.407700	0.530900	0.929700
H101	H10	0.294700	0.697500	0.927500
H111	H11	0.260300	0.660100	0.849400
H121	H12	0.105200	0.419000	0.639700
H131	H13	0.981000	0.408400	0.603600
H141	H14	0.978700	0.596900	0.698700
H151	H15	0.101200	0.607000	0.734800
H161	H16	0.553100	0.609700	0.525800
H171	H17	0.542100	0.697300	0.488000
H181	H18	0.731600	0.815800	0.583300
H191	H19	0.737200	0.729400	0.621500
H201	H20	0.586700	0.752100	0.442800
H211	H21	0.626600	0.959000	0.442900
H221	H22	0.672900	0.909100	0.562700
H231	H23	0.734400	0.052600	0.492500
H241	H24	0.757100	0.176500	0.528300
H251	H25	0.656200	0.146600	0.619600
H261	H26	0.633200	0.025600	0.585400
H271	H27	0.477900	0.774300	0.378100
H281	H28	0.434200	0.736600	0.297600
H291	H29	0.617600	0.836600	0.290900
H301	H30	0.662700	0.880100	0.373300
H311	H31	0.383200	0.509800	0.203400
H321	H32	0.425000	0.424000	0.240400
H331	H33	0.501500	0.327700	0.135900
H341	H34	0.461800	0.413600	0.099700
H351	H35	0.523400	0.388600	0.283100
H361	H36	0.561300	0.185100	0.280900
H371	H37	0.475400	0.226200	0.159700
H381	H38	0.493800	0.376800	0.350000
H391	H39	0.530900	0.407700	0.429700
H401	H40	0.697500	0.294700	0.427500
H411	H41	0.660100	0.260300	0.349400
H421	H42	0.419000	0.105200	0.139700
H431	H43	0.408400	0.981000	0.103600
H441	H44	0.596900	0.978700	0.198700
H451	H45	0.607000	0.101200	0.234800
H461	H46	0.609700	0.553100	0.025800
H471	H47	0.697300	0.542100	0.988000
H481	H48	0.815800	0.731600	0.083300
H491	H49	0.729400	0.737200	0.121500
H501	H50	0.752100	0.586700	0.942800
H511	H51	0.959000	0.626600	0.942900
H521	H52	0.909100	0.672900	0.062700
H531	H53	0.052600	0.734400	0.992500
H541	H54	0.176500	0.757100	0.028300
H551	H55	0.146600	0.656200	0.119600
H561	H56	0.025600	0.633200	0.085400
H571	H57	0.774300	0.477900	0.878100
H581	H58	0.736600	0.434200	0.797600
H591	H59	0.836600	0.617600	0.790900
H601	H60	0.880100	0.662700	0.873300
C11	C1	0.531500	0.402100	0.630600
C21	C2	0.470600	0.421000	0.649700
C31	C3	0.473800	0.408400	0.690200
C41	C4	0.422600	0.433200	0.711900
C51	C5	0.369300	0.469700	0.692500
C61	C6	0.365300	0.478900	0.650100
C71	C7	0.415900	0.455100	0.628700
C81	C8	0.315400	0.496000	0.717400
C91	C9	0.339600	0.522600	0.766300
C101	C10	0.289800	0.547200	0.789100
C111	C11	0.218600	0.544800	0.764700
C121	C12	0.194400	0.518600	0.716500
C131	C13	0.242300	0.493700	0.692500
C141	C14	0.314100	0.573700	0.840600
C151	C15	0.359800	0.535000	0.865600
C161	C16	0.379000	0.558200	0.913100
C171	C17	0.358400	0.618800	0.937300
C181	C18	0.311600	0.656400	0.911800
C191	C19	0.291400	0.634000	0.865700
C201	C20	0.116300	0.514300	0.691700
C211	C21	0.078800	0.454800	0.651800
C221	C22	0.004900	0.447900	0.630400
C231	C23	0.967400	0.498200	0.648100
C241	C24	0.004800	0.560200	0.687400
C251	C25	0.077400	0.566600	0.708500
C261	C26	0.656900	0.603100	0.600000
C271	C27	0.647100	0.661700	0.577400
C281	C28	0.588600	0.652200	0.537300
C291	C29	0.582300	0.704100	0.514700
C301	C30	0.635000	0.767200	0.530500
C311	C31	0.694600	0.774400	0.571700
C321	C32	0.698500	0.722700	0.594100
C331	C33	0.630700	0.822300	0.506600
C341	C34	0.604200	0.802000	0.459300
C351	C35	0.602200	0.852400	0.434700
C361	C36	0.627400	0.924000	0.459000
C371	C37	0.654800	0.946600	0.508000
C381	C38	0.655100	0.894500	0.529900
C391	C39	0.677700	0.025500	0.533200
C401	C40	0.717500	0.072300	0.518100
C411	C41	0.732200	0.144800	0.539400
C421	C42	0.709100	0.172100	0.578900
C431	C43	0.672100	0.126900	0.593700
C441	C44	0.657500	0.056100	0.573200
C451	C45	0.576500	0.830700	0.383500
C461	C46	0.506600	0.787600	0.360700
C471	C47	0.480900	0.765100	0.312700
C481	C48	0.520900	0.783100	0.286900
C491	C49	0.588900	0.824700	0.308800
C501	C50	0.616700	0.850100	0.358400
C511	C51	0.499600	0.759200	0.235400
C521	C52	0.722300	0.251500	0.596800
C531	C53	0.884800	0.484400	0.626700
C541	C54	0.378600	0.639400	0.988500
C551	C55	0.402100	0.531500	0.130600
C561	C56	0.421000	0.470600	0.149700
C571	C57	0.408400	0.473800	0.190200
C581	C58	0.433200	0.422600	0.211900
C591	C59	0.469700	0.369300	0.192500
C601	C60	0.478900	0.365300	0.150100
C611	C61	0.455100	0.415900	0.128700
C621	C62	0.496000	0.315400	0.217400
C631	C63	0.522600	0.339600	0.266300
C641	C64	0.547200	0.289800	0.289100
C651	C65	0.544800	0.218600	0.264700
C661	C66	0.518600	0.194400	0.216500
C671	C67	0.493700	0.242300	0.192500
C681	C68	0.573700	0.314100	0.340600
C691	C69	0.535000	0.359800	0.365600
C701	C70	0.558200	0.379000	0.413100
C711	C71	0.618800	0.358400	0.437300
C721	C72	0.656400	0.311600	0.411800
C731	C73	0.634000	0.291400	0.365700
C741	C74	0.514300	0.116300	0.191700
C751	C75	0.454800	0.078800	0.151800
C761	C76	0.447900	0.004900	0.130400
C771	C77	0.498200	0.967400	0.148100
C781	C78	0.560200	0.004800	0.187400
C791	C79	0.566600	0.077400	0.208500
C801	C80	0.603100	0.656900	0.100000
C811	C81	0.661700	0.647100	0.077400
C821	C82	0.652200	0.588600	0.037300
C831	C83	0.704100	0.582300	0.014700
C841	C84	0.767200	0.635000	0.030500
C851	C85	0.774400	0.694600	0.071700
C861	C86	0.722700	0.698500	0.094100
C871	C87	0.822300	0.630700	0.006600
C881	C88	0.802000	0.604200	0.959300
C891	C89	0.852400	0.602200	0.934700
C901	C90	0.924000	0.627400	0.959000
C911	C91	0.946600	0.654800	0.008000
C921	C92	0.894500	0.655100	0.029900
C931	C93	0.025500	0.677700	0.033200
C941	C94	0.072300	0.717500	0.018100
C951	C95	0.144800	0.732200	0.039400
C961	C96	0.172100	0.709100	0.078900
C971	C97	0.126900	0.672100	0.093700
C981	C98	0.056100	0.657500	0.073200
C991	C99	0.830700	0.576500	0.883500
C1001	C100	0.787600	0.506600	0.860700
C1011	C101	0.765100	0.480900	0.812700
C1021	C102	0.783100	0.520900	0.786900
C1031	C103	0.824700	0.588900	0.808800
C1041	C104	0.850100	0.616700	0.858400
C1051	C105	0.759200	0.499600	0.735400
C1061	C106	0.251500	0.722300	0.096800
C1071	C107	0.484400	0.884800	0.126700
C1081	C108	0.639400	0.378600	0.488500
O11	O1	0.700130	0.435950	0.612300
O21	O2	0.714870	0.609930	0.631540
O31	O3	0.604830	0.549170	0.583940
O41	O4	0.525740	0.412800	0.590910
O51	O5	0.583950	0.379250	0.652410
O61	O6	0.430850	0.733350	0.217230
O71	O7	0.544330	0.765870	0.215280
O81	O8	0.695810	0.280610	0.630070
O91	O9	0.758090	0.290110	0.580820
O101	O10	0.856170	0.429830	0.593650
O111	O11	0.853340	0.534540	0.647920
O121	O12	0.405130	0.596570	0.008060
O131	O13	0.367050	0.703950	0.008770
O141	O14	0.435950	0.700130	0.112300
O151	O15	0.609930	0.714870	0.131540
O161	O16	0.549170	0.604830	0.083940
O171	O17	0.412800	0.525740	0.090910
O181	O18	0.379250	0.583950	0.152410
O191	O19	0.733350	0.430850	0.717230
O201	O20	0.765870	0.544330	0.715280
O211	O21	0.280610	0.695810	0.130070
O221	O22	0.290110	0.758090	0.080820
O231	O23	0.429830	0.856170	0.093650
O241	O24	0.534540	0.853340	0.147920
O251	O25	0.596570	0.405130	0.508060
O261	O26	0.703950	0.367050	0.508770
Zn91	Zn9	0.468640	0.245040	0.849800
Zn101	Zn10	0.553790	0.391210	0.926860
Zn111	Zn11	0.620570	0.316130	0.847850
Zn121	Zn12	0.611890	0.244070	0.926490
Zn131	Zn13	0.245040	0.468640	0.349800
Zn141	Zn14	0.391210	0.553790	0.426860
Zn151	Zn15	0.316130	0.620570	0.347850
Zn161	Zn16	0.244070	0.611890	0.426490
H611	H61	0.616800	0.490200	0.796600
H621	H62	0.575000	0.576000	0.759600
H631	H63	0.498500	0.672300	0.864100
H641	H64	0.538200	0.586400	0.900300
H651	H65	0.476600	0.611400	0.716900
H661	H66	0.438700	0.814900	0.719100
H671	H67	0.524600	0.773800	0.840300
H681	H68	0.506200	0.623200	0.650000
H691	H69	0.469100	0.592300	0.570300
H701	H70	0.302500	0.705300	0.572500
H711	H71	0.339900	0.739700	0.650600
H721	H72	0.581000	0.894800	0.860300
H731	H73	0.591600	0.019000	0.896400
H741	H74	0.403100	0.021300	0.801300
H751	H75	0.393000	0.898800	0.765200
H761	H76	0.390300	0.446900	0.974200
H771	H77	0.302700	0.457900	0.012000
H781	H78	0.184200	0.268400	0.916700
H791	H79	0.270600	0.262800	0.878500
H801	H80	0.247900	0.413300	0.057200
H811	H81	0.041000	0.373400	0.057100
H821	H82	0.090900	0.327100	0.937300
H831	H83	0.947400	0.265600	0.007500
H841	H84	0.823500	0.242900	0.971700
H851	H85	0.853400	0.343800	0.880400
H861	H86	0.974400	0.366800	0.914600
H871	H87	0.225700	0.522100	0.121900
H881	H88	0.263400	0.565800	0.202400
H891	H89	0.163400	0.382400	0.209100
H901	H90	0.119900	0.337300	0.126700
H911	H91	0.490200	0.616800	0.296600
H921	H92	0.576000	0.575000	0.259600
H931	H93	0.672300	0.498500	0.364100
H941	H94	0.586400	0.538200	0.400300
H951	H95	0.611400	0.476600	0.216900
H961	H96	0.814900	0.438700	0.219100
H971	H97	0.773800	0.524600	0.340300
H981	H98	0.623200	0.506200	0.150000
H991	H99	0.592300	0.469100	0.070300
H1001	H100	0.705300	0.302500	0.072500
H1011	H101	0.739700	0.339900	0.150600
H1021	H102	0.894800	0.581000	0.360300
H1031	H103	0.019000	0.591600	0.396400
H1041	H104	0.021300	0.403100	0.301300
H1051	H105	0.898800	0.393000	0.265200
H1061	H106	0.446900	0.390300	0.474200
H1071	H107	0.457900	0.302700	0.512000
H1081	H108	0.268400	0.184200	0.416700
H1091	H109	0.262800	0.270600	0.378500
H1101	H110	0.413300	0.247900	0.557200
H1111	H111	0.373400	0.041000	0.557100
H1121	H112	0.327100	0.090900	0.437300
H1131	H113	0.265600	0.947400	0.507500
H1141	H114	0.242900	0.823500	0.471700
H1151	H115	0.343800	0.853400	0.380400
H1161	H116	0.366800	0.974400	0.414600
H1171	H117	0.522100	0.225700	0.621900
H1181	H118	0.565800	0.263400	0.702400
H1191	H119	0.382400	0.163400	0.709100
H1201	H120	0.337300	0.119900	0.626700
C1091	C109	0.597900	0.468500	0.869400
C1101	C110	0.579000	0.529400	0.850300
C1111	C111	0.591600	0.526200	0.809800
C1121	C112	0.566800	0.577400	0.788100
C1131	C113	0.530300	0.630700	0.807500
C1141	C114	0.521100	0.634700	0.849900
C1151	C115	0.544900	0.584100	0.871300
C1161	C116	0.504000	0.684600	0.782600
C1171	C117	0.477400	0.660400	0.733700
C1181	C118	0.452800	0.710200	0.710900
C1191	C119	0.455200	0.781400	0.735300
C1201	C120	0.481400	0.805600	0.783500
C1211	C121	0.506300	0.757700	0.807500
C1221	C122	0.426300	0.685900	0.659400
C1231	C123	0.465000	0.640200	0.634400
C1241	C124	0.441800	0.621000	0.586900
C1251	C125	0.381200	0.641600	0.562700
C1261	C126	0.343600	0.688400	0.588200
C1271	C127	0.366000	0.708600	0.634300
C1281	C128	0.485700	0.883700	0.808300
C1291	C129	0.545200	0.921200	0.848200
C1301	C130	0.552100	0.995100	0.869600
C1311	C131	0.501800	0.032600	0.851900
C1321	C132	0.439800	0.995200	0.812600
C1331	C133	0.433400	0.922600	0.791500
C1341	C134	0.396900	0.343100	0.900000
C1351	C135	0.338300	0.352900	0.922600
C1361	C136	0.347800	0.411400	0.962700
C1371	C137	0.295900	0.417700	0.985300
C1381	C138	0.232800	0.365000	0.969500
C1391	C139	0.225600	0.305400	0.928300
C1401	C140	0.277300	0.301500	0.905900
C1411	C141	0.177700	0.369300	0.993400
C1421	C142	0.198000	0.395800	0.040700
C1431	C143	0.147600	0.397800	0.065300
C1441	C144	0.076000	0.372600	0.041000
C1451	C145	0.053400	0.345200	0.992000
C1461	C146	0.105500	0.344900	0.970100
C1471	C147	0.974500	0.322300	0.966800
C1481	C148	0.927700	0.282500	0.981900
C1491	C149	0.855200	0.267800	0.960600
C1501	C150	0.827900	0.290900	0.921100
C1511	C151	0.873100	0.327900	0.906300
C1521	C152	0.943900	0.342500	0.926800
C1531	C153	0.169300	0.423500	0.116500
C1541	C154	0.212400	0.493400	0.139300
C1551	C155	0.234900	0.519100	0.187300
C1561	C156	0.216900	0.479100	0.213100
C1571	C157	0.175300	0.411100	0.191200
C1581	C158	0.149900	0.383300	0.141600
C1591	C159	0.240800	0.500400	0.264600
C1601	C160	0.748500	0.277700	0.903200
C1611	C161	0.515600	0.115200	0.873300
C1621	C162	0.360600	0.621400	0.511500
C1631	C163	0.468500	0.597900	0.369400
C1641	C164	0.529400	0.579000	0.350300
C1651	C165	0.526200	0.591600	0.309800
C1661	C166	0.577400	0.566800	0.288100
C1671	C167	0.630700	0.530300	0.307500
C1681	C168	0.634700	0.521100	0.349900
C1691	C169	0.584100	0.544900	0.371300
C1701	C170	0.684600	0.504000	0.282600
C1711	C171	0.660400	0.477400	0.233700
C1721	C172	0.710200	0.452800	0.210900
C1731	C173	0.781400	0.455200	0.235300
C1741	C174	0.805600	0.481400	0.283500
C1751	C175	0.757700	0.506300	0.307500
C1761	C176	0.685900	0.426300	0.159400
C1771	C177	0.640200	0.465000	0.134400
C1781	C178	0.621000	0.441800	0.086900
C1791	C179	0.641600	0.381200	0.062700
C1801	C180	0.688400	0.343600	0.088200
C1811	C181	0.708600	0.366000	0.134300
C1821	C182	0.883700	0.485700	0.308300
C1831	C183	0.921200	0.545200	0.348200
C1841	C184	0.995100	0.552100	0.369600
C1851	C185	0.032600	0.501800	0.351900
C1861	C186	0.995200	0.439800	0.312600
C1871	C187	0.922600	0.433400	0.291500
C1881	C188	0.343100	0.396900	0.400000
C1891	C189	0.352900	0.338300	0.422600
C1901	C190	0.411400	0.347800	0.462700
C1911	C191	0.417700	0.295900	0.485300
C1921	C192	0.365000	0.232800	0.469500
C1931	C193	0.305400	0.225600	0.428300
C1941	C194	0.301500	0.277300	0.405900
C1951	C195	0.369300	0.177700	0.493400
C1961	C196	0.395800	0.198000	0.540700
C1971	C197	0.397800	0.147600	0.565300
C1981	C198	0.372600	0.076000	0.541000
C1991	C199	0.345200	0.053400	0.492000
C2001	C200	0.344900	0.105500	0.470100
C2011	C201	0.322300	0.974500	0.466800
C2021	C202	0.282500	0.927700	0.481900
C2031	C203	0.267800	0.855200	0.460600
C2041	C204	0.290900	0.827900	0.421100
C2051	C205	0.327900	0.873100	0.406300
C2061	C206	0.342500	0.943900	0.426800
C2071	C207	0.423500	0.169300	0.616500
C2081	C208	0.493400	0.212400	0.639300
C2091	C209	0.519100	0.234900	0.687300
C2101	C210	0.479100	0.216900	0.713100
C2111	C211	0.411100	0.175300	0.691200
C2121	C212	0.383300	0.149900	0.641600
C2131	C213	0.500400	0.240800	0.764600
C2141	C214	0.277700	0.748500	0.403200
C2151	C215	0.115200	0.515600	0.373300
C2161	C216	0.621400	0.360600	0.011500
O271	O27	0.564050	0.299870	0.887700
O281	O28	0.390070	0.285130	0.868460
O291	O29	0.450830	0.395170	0.916060
O301	O30	0.587200	0.474260	0.909090
O311	O31	0.620750	0.416050	0.847590
O321	O32	0.266650	0.569150	0.282770
O331	O33	0.234130	0.455670	0.284720
O341	O34	0.719390	0.304190	0.869930
O351	O35	0.709890	0.241910	0.919180
O361	O36	0.570170	0.143830	0.906350
O371	O37	0.465460	0.146660	0.852080
O381	O38	0.403430	0.594870	0.491940
O391	O39	0.296050	0.632950	0.491230
O401	O40	0.299870	0.564050	0.387700
O411	O41	0.285130	0.390070	0.368460
O421	O42	0.395170	0.450830	0.416060
O431	O43	0.474260	0.587200	0.409090
O441	O44	0.416050	0.620750	0.347590
O451	O45	0.569150	0.266650	0.782770
O461	O46	0.455670	0.234130	0.784720
O471	O47	0.304190	0.719390	0.369930
O481	O48	0.241910	0.709890	0.419180
O491	O49	0.143830	0.570170	0.406350
O501	O50	0.146660	0.465460	0.352080
O511	O51	0.594870	0.403430	0.991940
O521	O52	0.632950	0.296050	0.991230
