data_VUKHOZ_freeONLY_PM
_symmetry_space_group_name_H-M	'P1'
_cell_length_a	6.768100
_cell_length_b	30.984000
_cell_length_c	30.984000
_cell_angle_alpha	90.000000
_cell_angle_beta	90.000000
_cell_angle_gamma	90.000000
_symmetry_Int_Tables_number 1

loop_
_symmetry_equiv_pos_as_xyz
'x,y,z'

loop_
_atom_site_label
_atom_site_type_symbol
_atom_site_fract_x
_atom_site_fract_y
_atom_site_fract_z
Ag11	Ag1	0.075330	0.558720	0.520250
Ag21	Ag2	0.637250	0.543290	0.490460
Ag31	Ag3	0.075330	0.941280	0.979750
Ag41	Ag4	0.637250	0.956710	0.009540
Ag51	Ag5	0.424670	0.520250	0.941280
Ag61	Ag6	0.862750	0.490460	0.956710
Ag71	Ag7	0.424670	0.979750	0.558720
Ag81	Ag8	0.862750	0.009540	0.543290
H11	H1	0.050300	0.700800	0.449800
H21	H2	0.952400	0.766100	0.419700
H31	H3	0.436500	0.713300	0.384400
H41	H4	0.533600	0.648800	0.413700
H51	H5	0.627600	0.795000	0.466400
H61	H6	0.654300	0.852500	0.513200
H71	H7	0.783200	0.930400	0.413800
H81	H8	0.736200	0.874600	0.366500
H91	H9	0.050300	0.799200	0.050200
H101	H10	0.952400	0.733900	0.080300
H111	H11	0.436500	0.786700	0.115600
H121	H12	0.533600	0.851200	0.086300
H131	H13	0.627600	0.705000	0.033600
H141	H14	0.654300	0.647500	0.986800
H151	H15	0.783200	0.569600	0.086200
H161	H16	0.736200	0.625400	0.133500
H171	H17	0.449700	0.449800	0.799200
H181	H18	0.547600	0.419700	0.733900
H191	H19	0.063500	0.384400	0.786700
H201	H20	0.966400	0.413700	0.851200
H211	H21	0.872400	0.466400	0.705000
H221	H22	0.845700	0.513200	0.647500
H231	H23	0.716800	0.413800	0.569600
H241	H24	0.763800	0.366500	0.625400
H251	H25	0.449700	0.050200	0.700800
H261	H26	0.547600	0.080300	0.766100
H271	H27	0.063500	0.115600	0.713300
H281	H28	0.966400	0.086300	0.648800
H291	H29	0.872400	0.033600	0.795000
H301	H30	0.845700	0.986800	0.852500
H311	H31	0.716800	0.086200	0.930400
H321	H32	0.763800	0.133500	0.874600
C11	C1	0.848800	0.625190	0.455000
C21	C2	0.800900	0.667830	0.435060
C31	C3	0.927000	0.703240	0.436800
C41	C4	0.867400	0.742510	0.418880
C51	C5	0.681600	0.746840	0.399680
C61	C6	0.559400	0.711120	0.397690
C71	C7	0.618000	0.672390	0.415190
C81	C8	0.627000	0.790910	0.380210
C91	C9	0.404300	0.794800	0.370760
C101	C10	0.739700	0.794090	0.336530
C111	C11	0.676800	0.828370	0.410990
C121	C12	0.654600	0.822420	0.455630
C131	C13	0.672500	0.856760	0.483790
C141	C14	0.717800	0.897810	0.468160
C151	C15	0.722300	0.935350	0.498070
C161	C16	0.746700	0.903400	0.424270
C171	C17	0.722300	0.869800	0.395960
C181	C18	0.848800	0.874810	0.045000
C191	C19	0.800900	0.832170	0.064940
C201	C20	0.927000	0.796760	0.063200
C211	C21	0.867400	0.757490	0.081120
C221	C22	0.681600	0.753160	0.100320
C231	C23	0.559400	0.788880	0.102310
C241	C24	0.618000	0.827610	0.084810
C251	C25	0.627000	0.709090	0.119790
C261	C26	0.404300	0.705200	0.129240
C271	C27	0.739700	0.705910	0.163470
C281	C28	0.676800	0.671630	0.089010
C291	C29	0.654600	0.677580	0.044370
C301	C30	0.672500	0.643240	0.016210
C311	C31	0.717800	0.602190	0.031840
C321	C32	0.722300	0.564650	0.001930
C331	C33	0.746700	0.596600	0.075730
C341	C34	0.722300	0.630200	0.104040
C351	C35	0.651200	0.455000	0.874810
C361	C36	0.699100	0.435060	0.832170
C371	C37	0.573000	0.436800	0.796760
C381	C38	0.632600	0.418880	0.757490
C391	C39	0.818400	0.399680	0.753160
C401	C40	0.940600	0.397690	0.788880
C411	C41	0.882000	0.415190	0.827610
C421	C42	0.873000	0.380210	0.709090
C431	C43	0.095700	0.370760	0.705200
C441	C44	0.760300	0.336530	0.705910
C451	C45	0.823200	0.410990	0.671630
C461	C46	0.845400	0.455630	0.677580
C471	C47	0.827500	0.483790	0.643240
C481	C48	0.782200	0.468160	0.602190
C491	C49	0.777700	0.498070	0.564650
C501	C50	0.753300	0.424270	0.596600
C511	C51	0.777700	0.395960	0.630200
C521	C52	0.651200	0.045000	0.625190
C531	C53	0.699100	0.064940	0.667830
C541	C54	0.573000	0.063200	0.703240
C551	C55	0.632600	0.081120	0.742510
C561	C56	0.818400	0.100320	0.746840
C571	C57	0.940600	0.102310	0.711120
C581	C58	0.882000	0.084810	0.672390
C591	C59	0.873000	0.119790	0.790910
C601	C60	0.095700	0.129240	0.794800
C611	C61	0.760300	0.163470	0.794090
C621	C62	0.823200	0.089010	0.828370
C631	C63	0.845400	0.044370	0.822420
C641	C64	0.827500	0.016210	0.856760
C651	C65	0.782200	0.031840	0.897810
C661	C66	0.777700	0.001930	0.935350
C671	C67	0.753300	0.075730	0.903400
C681	C68	0.777700	0.104040	0.869800
O11	O1	0.738000	0.593880	0.445000
O21	O2	0.990500	0.621950	0.481040
O31	O3	0.665100	0.930770	0.536070
O41	O4	0.785000	0.971730	0.482560
O51	O5	0.738000	0.906120	0.055000
O61	O6	0.990500	0.878050	0.018960
O71	O7	0.665100	0.569230	0.963930
O81	O8	0.785000	0.528270	0.017440
O91	O9	0.762000	0.445000	0.906120
O101	O10	0.509500	0.481040	0.878050
O111	O11	0.834900	0.536070	0.569230
O121	O12	0.715000	0.482560	0.528270
O131	O13	0.762000	0.055000	0.593880
O141	O14	0.509500	0.018960	0.621950
O151	O15	0.834900	0.963930	0.930770
O161	O16	0.715000	0.017440	0.971730
F11	F1	0.343800	0.769770	0.338360
F21	F2	0.298800	0.783860	0.405720
F31	F3	0.351400	0.835040	0.360560
F41	F4	0.728300	0.757510	0.314450
F51	F5	0.930300	0.802960	0.342860
F61	F6	0.667100	0.825490	0.310850
F71	F7	0.343800	0.730230	0.161640
F81	F8	0.298800	0.716140	0.094280
F91	F9	0.351400	0.664960	0.139440
F101	F10	0.728300	0.742490	0.185550
F111	F11	0.930300	0.697040	0.157140
F121	F12	0.667100	0.674510	0.189150
F131	F13	0.156200	0.338360	0.730230
F141	F14	0.201200	0.405720	0.716140
F151	F15	0.148600	0.360560	0.664960
F161	F16	0.771700	0.314450	0.742490
F171	F17	0.569700	0.342860	0.697040
F181	F18	0.832900	0.310850	0.674510
F191	F19	0.156200	0.161640	0.769770
F201	F20	0.201200	0.094280	0.783860
F211	F21	0.148600	0.139440	0.835040
F221	F22	0.771700	0.185550	0.757510
F231	F23	0.569700	0.157140	0.802960
F241	F24	0.832900	0.189150	0.825490
Ag91	Ag9	0.575330	0.479750	0.058720
Ag101	Ag10	0.137250	0.509540	0.043280
Ag111	Ag11	0.575330	0.020250	0.441280
Ag121	Ag12	0.137250	0.990460	0.456710
Ag131	Ag13	0.924670	0.441280	0.479750
Ag141	Ag14	0.362750	0.456710	0.509540
Ag151	Ag15	0.924670	0.058720	0.020250
Ag161	Ag16	0.362750	0.043280	0.990460
H331	H33	0.550300	0.550200	0.200800
H341	H34	0.452400	0.580300	0.266100
H351	H35	0.936500	0.615600	0.213300
H361	H36	0.033600	0.586300	0.148800
H371	H37	0.127600	0.533600	0.295000
H381	H38	0.154300	0.486800	0.352500
H391	H39	0.283200	0.586200	0.430400
H401	H40	0.236200	0.633500	0.374600
H411	H41	0.550300	0.949800	0.299200
H421	H42	0.452400	0.919700	0.233900
H431	H43	0.936500	0.884400	0.286700
H441	H44	0.033600	0.913700	0.351200
H451	H45	0.127600	0.966400	0.205000
H461	H46	0.154300	0.013200	0.147500
H471	H47	0.283200	0.913800	0.069600
H481	H48	0.236200	0.866500	0.125400
H491	H49	0.949700	0.299200	0.550200
H501	H50	0.047600	0.233900	0.580300
H511	H51	0.563500	0.286700	0.615600
H521	H52	0.466400	0.351200	0.586300
H531	H53	0.372400	0.205000	0.533600
H541	H54	0.345700	0.147500	0.486800
H551	H55	0.216800	0.069600	0.586200
H561	H56	0.263800	0.125400	0.633500
H571	H57	0.949700	0.200800	0.949800
H581	H58	0.047600	0.266100	0.919700
H591	H59	0.563500	0.213300	0.884400
H601	H60	0.466400	0.148800	0.913700
H611	H61	0.372400	0.295000	0.966400
H621	H62	0.345700	0.352500	0.013200
H631	H63	0.216800	0.430400	0.913800
H641	H64	0.263800	0.374600	0.866500
C691	C69	0.348800	0.545000	0.125190
C701	C70	0.300900	0.564940	0.167830
C711	C71	0.427000	0.563200	0.203240
C721	C72	0.367400	0.581120	0.242510
C731	C73	0.181600	0.600320	0.246840
C741	C74	0.059400	0.602310	0.211120
C751	C75	0.118000	0.584810	0.172390
C761	C76	0.127000	0.619790	0.290910
C771	C77	0.904300	0.629240	0.294800
C781	C78	0.239700	0.663470	0.294090
C791	C79	0.176800	0.589010	0.328370
C801	C80	0.154600	0.544370	0.322420
C811	C81	0.172500	0.516210	0.356760
C821	C82	0.217800	0.531840	0.397810
C831	C83	0.222300	0.501930	0.435350
C841	C84	0.246700	0.575730	0.403400
C851	C85	0.222300	0.604040	0.369800
C861	C86	0.348800	0.955000	0.374810
C871	C87	0.300900	0.935060	0.332170
C881	C88	0.427000	0.936800	0.296760
C891	C89	0.367400	0.918880	0.257490
C901	C90	0.181600	0.899680	0.253160
C911	C91	0.059400	0.897690	0.288880
C921	C92	0.118000	0.915190	0.327610
C931	C93	0.127000	0.880210	0.209090
C941	C94	0.904300	0.870760	0.205200
C951	C95	0.239700	0.836530	0.205910
C961	C96	0.176800	0.910990	0.171630
C971	C97	0.154600	0.955630	0.177580
C981	C98	0.172500	0.983790	0.143240
C991	C99	0.217800	0.968160	0.102190
C1001	C100	0.222300	0.998070	0.064650
C1011	C101	0.246700	0.924270	0.096600
C1021	C102	0.222300	0.895960	0.130200
C1031	C103	0.151200	0.374810	0.545000
C1041	C104	0.199100	0.332170	0.564940
C1051	C105	0.073000	0.296760	0.563200
C1061	C106	0.132600	0.257490	0.581120
C1071	C107	0.318400	0.253160	0.600320
C1081	C108	0.440600	0.288880	0.602310
C1091	C109	0.382000	0.327610	0.584810
C1101	C110	0.373000	0.209090	0.619790
C1111	C111	0.595700	0.205200	0.629240
C1121	C112	0.260300	0.205910	0.663470
C1131	C113	0.323200	0.171630	0.589010
C1141	C114	0.345400	0.177580	0.544370
C1151	C115	0.327500	0.143240	0.516210
C1161	C116	0.282200	0.102190	0.531840
C1171	C117	0.277700	0.064650	0.501930
C1181	C118	0.253300	0.096600	0.575730
C1191	C119	0.277700	0.130200	0.604040
C1201	C120	0.151200	0.125190	0.955000
C1211	C121	0.199100	0.167830	0.935060
C1221	C122	0.073000	0.203240	0.936800
C1231	C123	0.132600	0.242510	0.918880
C1241	C124	0.318400	0.246840	0.899680
C1251	C125	0.440600	0.211120	0.897690
C1261	C126	0.382000	0.172390	0.915190
C1271	C127	0.373000	0.290910	0.880210
C1281	C128	0.595700	0.294800	0.870760
C1291	C129	0.260300	0.294090	0.836530
C1301	C130	0.323200	0.328370	0.910990
C1311	C131	0.345400	0.322420	0.955630
C1321	C132	0.327500	0.356760	0.983790
C1331	C133	0.282200	0.397810	0.968160
C1341	C134	0.277700	0.435350	0.998070
C1351	C135	0.253300	0.403400	0.924270
C1361	C136	0.277700	0.369800	0.895960
O171	O17	0.238000	0.555000	0.093880
O181	O18	0.490500	0.518960	0.121950
O191	O19	0.165100	0.463930	0.430770
O201	O20	0.285000	0.517440	0.471730
O211	O21	0.238000	0.945000	0.406120
O221	O22	0.490500	0.981040	0.378050
O231	O23	0.165100	0.036070	0.069230
O241	O24	0.285000	0.982560	0.028270
O251	O25	0.262000	0.406120	0.555000
O261	O26	0.009500	0.378050	0.518960
O271	O27	0.334900	0.069230	0.463930
O281	O28	0.215000	0.028270	0.517440
O291	O29	0.262000	0.093880	0.945000
O301	O30	0.009500	0.121950	0.981040
O311	O31	0.334900	0.430770	0.036070
O321	O32	0.215000	0.471730	0.982560
F251	F25	0.843800	0.661640	0.269770
F261	F26	0.798800	0.594280	0.283860
F271	F27	0.851400	0.639440	0.335040
F281	F28	0.228300	0.685550	0.257510
F291	F29	0.430300	0.657140	0.302960
F301	F30	0.167100	0.689150	0.325490
F311	F31	0.843800	0.838360	0.230230
F321	F32	0.798800	0.905720	0.216140
F331	F33	0.851400	0.860560	0.164960
F341	F34	0.228300	0.814450	0.242490
F351	F35	0.430300	0.842860	0.197040
F361	F36	0.167100	0.810850	0.174510
F371	F37	0.656200	0.230230	0.661640
F381	F38	0.701200	0.216140	0.594280
F391	F39	0.648600	0.164960	0.639440
F401	F40	0.271700	0.242490	0.685550
F411	F41	0.069700	0.197040	0.657140
F421	F42	0.332900	0.174510	0.689150
F431	F43	0.656200	0.269770	0.838360
F441	F44	0.701200	0.283860	0.905720
F451	F45	0.648600	0.335040	0.860560
F461	F46	0.271700	0.257510	0.814450
F471	F47	0.069700	0.302960	0.842860
F481	F48	0.332900	0.325490	0.810850
