data_VUSKEA_freeONLY_PM
_symmetry_space_group_name_H-M	'P1'
_cell_length_a	18.251900
_cell_length_b	18.251900
_cell_length_c	18.252000
_cell_angle_alpha	60.003700
_cell_angle_beta	60.003700
_cell_angle_gamma	60.000500
_symmetry_Int_Tables_number 1

loop_
_symmetry_equiv_pos_as_xyz
'x,y,z'

loop_
_atom_site_label
_atom_site_type_symbol
_atom_site_fract_x
_atom_site_fract_y
_atom_site_fract_z
Zn11	Zn1	0.881270	0.706390	0.206240
Zn21	Zn2	0.293610	0.118730	0.793760
Zn31	Zn3	0.118730	0.293610	0.793760
Zn41	Zn4	0.706390	0.881270	0.206240
Zn51	Zn5	0.706060	0.706060	0.381330
Zn61	Zn6	0.706240	0.706240	0.206140
Zn71	Zn7	0.293940	0.293940	0.618670
Zn81	Zn8	0.293760	0.293760	0.793860
H11	H1	0.546300	0.060900	0.349800
H21	H2	0.543100	0.846100	0.561500
H31	H3	0.547200	0.059800	0.046100
H41	H4	0.543200	0.848600	0.043800
H51	H5	0.062600	0.846600	0.048600
H61	H6	0.939100	0.453700	0.650200
H71	H7	0.153900	0.456900	0.438500
H81	H8	0.940200	0.452800	0.953900
H91	H9	0.151400	0.456800	0.956200
H101	H10	0.153400	0.937400	0.951400
H111	H11	0.453700	0.939100	0.650200
H121	H12	0.456900	0.153900	0.438500
H131	H13	0.452800	0.940200	0.953900
H141	H14	0.456800	0.151400	0.956200
H151	H15	0.937400	0.153400	0.951400
H161	H16	0.060900	0.546300	0.349800
H171	H17	0.846100	0.543100	0.561500
H181	H18	0.059800	0.547200	0.046100
H191	H19	0.848600	0.543200	0.043800
H201	H20	0.846600	0.062600	0.048600
H211	H21	0.544400	0.544400	0.347700
H221	H22	0.543300	0.543300	0.563800
H231	H23	0.455600	0.455600	0.652300
H241	H24	0.456700	0.456700	0.436200
C11	C1	0.612200	0.889800	0.386200
C21	C2	0.552500	0.947900	0.447400
C31	C3	0.527600	0.035200	0.412000
C41	C4	0.526400	0.908200	0.535500
C51	C5	0.613400	0.886600	0.109100
C61	C6	0.556100	0.945100	0.053800
C71	C7	0.529200	0.033600	0.028100
C81	C8	0.526400	0.910600	0.026300
C91	C9	0.036500	0.908700	0.028500
C101	C10	0.110200	0.387800	0.613800
C111	C11	0.052100	0.447500	0.552600
C121	C12	0.964800	0.472400	0.588000
C131	C13	0.091800	0.473600	0.464500
C141	C14	0.113400	0.386600	0.890900
C151	C15	0.054900	0.443900	0.946200
C161	C16	0.966400	0.470800	0.971900
C171	C17	0.089400	0.473600	0.973700
C181	C18	0.091300	0.963500	0.971500
C191	C19	0.387800	0.110200	0.613800
C201	C20	0.447500	0.052100	0.552600
C211	C21	0.472400	0.964800	0.588000
C221	C22	0.473600	0.091800	0.464500
C231	C23	0.386600	0.113400	0.890900
C241	C24	0.443900	0.054900	0.946200
C251	C25	0.470800	0.966400	0.971900
C261	C26	0.473600	0.089400	0.973700
C271	C27	0.963500	0.091300	0.971500
C281	C28	0.889800	0.612200	0.386200
C291	C29	0.947900	0.552500	0.447400
C301	C30	0.035200	0.527600	0.412000
C311	C31	0.908200	0.526400	0.535500
C321	C32	0.886600	0.613400	0.109100
C331	C33	0.945100	0.556100	0.053800
C341	C34	0.033600	0.529200	0.028100
C351	C35	0.910600	0.526400	0.026300
C361	C36	0.908700	0.036500	0.028500
C371	C37	0.611400	0.611400	0.393000
C381	C38	0.554200	0.554200	0.445200
C391	C39	0.527000	0.527000	0.409700
C401	C40	0.525800	0.525800	0.536700
C411	C41	0.884800	0.884800	0.117100
C421	C42	0.946500	0.946500	0.053700
C431	C43	0.388600	0.388600	0.607000
C441	C44	0.445800	0.445800	0.554800
C451	C45	0.473000	0.473000	0.590300
C461	C46	0.474200	0.474200	0.463300
C471	C47	0.115200	0.115200	0.882900
C481	C48	0.053500	0.053500	0.946300
O11	O1	0.631600	0.804400	0.432100
O21	O2	0.633700	0.933700	0.302000
O31	O3	0.630200	0.803400	0.135600
O41	O4	0.633100	0.930700	0.131600
O51	O5	0.930800	0.802400	0.134400
O61	O6	0.195600	0.368400	0.567900
O71	O7	0.066300	0.366300	0.698000
O81	O8	0.196600	0.369800	0.864400
O91	O9	0.069300	0.366900	0.868400
O101	O10	0.197600	0.069200	0.865600
O111	O11	0.368400	0.195600	0.567900
O121	O12	0.366300	0.066300	0.698000
O131	O13	0.369800	0.196600	0.864400
O141	O14	0.366900	0.069300	0.868400
O151	O15	0.069200	0.197600	0.865600
O161	O16	0.804400	0.631600	0.432100
O171	O17	0.933700	0.633700	0.302000
O181	O18	0.803400	0.630200	0.135600
O191	O19	0.930700	0.633100	0.131600
O201	O20	0.802400	0.930800	0.134400
O211	O21	0.750200	0.750200	0.250300
O221	O22	0.632600	0.632600	0.431400
O231	O23	0.630300	0.630300	0.310000
O241	O24	0.249800	0.249800	0.749700
O251	O25	0.367400	0.367400	0.568600
O261	O26	0.369700	0.369700	0.690000
