data_WAHREE_freeONLY_PM
_symmetry_space_group_name_H-M	'P1'
_cell_length_a	7.199200
_cell_length_b	18.950300
_cell_length_c	20.404300
_cell_angle_alpha	106.648000
_cell_angle_beta	90.000000
_cell_angle_gamma	90.000000
_symmetry_Int_Tables_number 1

loop_
_symmetry_equiv_pos_as_xyz
'x,y,z'

loop_
_atom_site_label
_atom_site_type_symbol
_atom_site_fract_x
_atom_site_fract_y
_atom_site_fract_z
Co11	Co1	0.668670	0.026180	0.475480
Co21	Co2	0.668670	0.473820	0.024520
Co31	Co3	0.331330	0.973820	0.524520
Co41	Co4	0.331330	0.526180	0.975480
H11	H1	0.985200	0.169700	0.583100
H21	H2	0.438500	0.254000	0.520800
H31	H3	0.971400	0.411600	0.834200
H41	H4	0.855400	0.285800	0.617000
H51	H5	0.310500	0.370900	0.557700
H61	H6	0.499300	0.481700	0.769300
H71	H7	0.095000	0.389700	0.727100
H81	H8	0.141400	0.088900	0.366900
H91	H9	0.830400	0.269400	0.389900
H101	H10	0.030700	0.308600	0.321400
H111	H11	0.342500	0.130800	0.298600
H121	H12	0.627500	0.461700	0.662000
H131	H13	0.619700	0.170300	0.468800
H141	H14	0.985200	0.330300	0.916900
H151	H15	0.438500	0.246000	0.979200
H161	H16	0.971400	0.088400	0.665800
H171	H17	0.855400	0.214200	0.883000
H181	H18	0.310500	0.129100	0.942300
H191	H19	0.499300	0.018300	0.730700
H201	H20	0.095000	0.110300	0.772900
H211	H21	0.141400	0.411100	0.133100
H221	H22	0.830400	0.230600	0.110100
H231	H23	0.030700	0.191400	0.178600
H241	H24	0.342500	0.369200	0.201400
H251	H25	0.627500	0.038300	0.838000
H261	H26	0.619700	0.329700	0.031200
H271	H27	0.014800	0.830300	0.416900
H281	H28	0.561500	0.746000	0.479200
H291	H29	0.028600	0.588400	0.165800
H301	H30	0.144600	0.714200	0.383000
H311	H31	0.689500	0.629100	0.442300
H321	H32	0.500700	0.518300	0.230700
H331	H33	0.905000	0.610300	0.272900
H341	H34	0.858600	0.911100	0.633100
H351	H35	0.169600	0.730600	0.610100
H361	H36	0.969300	0.691400	0.678600
H371	H37	0.657500	0.869200	0.701400
H381	H38	0.372500	0.538300	0.338000
H391	H39	0.380300	0.829700	0.531200
H401	H40	0.014800	0.669700	0.083100
H411	H41	0.561500	0.754000	0.020800
H421	H42	0.028600	0.911600	0.334200
H431	H43	0.144600	0.785800	0.117000
H441	H44	0.689500	0.870900	0.057700
H451	H45	0.500700	0.981700	0.269300
H461	H46	0.905000	0.889700	0.227100
H471	H47	0.858600	0.588900	0.866900
H481	H48	0.169600	0.769400	0.889900
H491	H49	0.969300	0.808600	0.821400
H501	H50	0.657500	0.630800	0.798600
H511	H51	0.372500	0.961700	0.162000
H521	H52	0.380300	0.670300	0.968800
C11	C1	0.639100	0.463110	0.882010
C21	C2	0.314600	0.126200	0.531400
C31	C3	0.051400	0.210010	0.578210
C41	C4	0.231600	0.201000	0.550300
C51	C5	0.322200	0.260300	0.541500
C61	C6	0.827600	0.145000	0.423300
C71	C7	0.839900	0.418300	0.556500
C81	C8	0.113600	0.480600	0.625700
C91	C9	0.447700	0.310600	0.295500
C101	C10	0.721600	0.447580	0.812180
C111	C11	0.901600	0.421200	0.799400
C121	C12	0.975800	0.415770	0.614570
C131	C13	0.068800	0.340430	0.591630
C141	C14	0.875300	0.425940	0.683240
C151	C15	0.974300	0.279700	0.598400
C161	C16	0.244400	0.330600	0.562800
C171	C17	0.619500	0.463400	0.760800
C181	C18	0.976000	0.409200	0.735800
C191	C19	0.117300	0.133000	0.357100
C201	C20	0.960900	0.174100	0.384000
C211	C21	0.931800	0.240400	0.370700
C221	C22	0.051100	0.263500	0.329600
C231	C23	0.202700	0.221400	0.299500
C241	C24	0.236600	0.158000	0.315700
C251	C25	0.697200	0.451730	0.696730
C261	C26	0.639100	0.036890	0.617990
C271	C27	0.314600	0.373800	0.968600
C281	C28	0.051400	0.289990	0.921790
C291	C29	0.231600	0.299000	0.949700
C301	C30	0.322200	0.239700	0.958500
C311	C31	0.827600	0.355000	0.076700
C321	C32	0.839900	0.081700	0.943500
C331	C33	0.113600	0.019400	0.874300
C341	C34	0.447700	0.189400	0.204500
C351	C35	0.721600	0.052420	0.687820
C361	C36	0.901600	0.078800	0.700600
C371	C37	0.975800	0.084230	0.885430
C381	C38	0.068800	0.159570	0.908370
C391	C39	0.875300	0.074060	0.816760
C401	C40	0.974300	0.220300	0.901600
C411	C41	0.244400	0.169400	0.937200
C421	C42	0.619500	0.036600	0.739200
C431	C43	0.976000	0.090800	0.764200
C441	C44	0.117300	0.367000	0.142900
C451	C45	0.960900	0.325900	0.116000
C461	C46	0.931800	0.259600	0.129300
C471	C47	0.051100	0.236500	0.170400
C481	C48	0.202700	0.278600	0.200500
C491	C49	0.236600	0.342000	0.184300
C501	C50	0.697200	0.048270	0.803270
C511	C51	0.360900	0.536890	0.117990
C521	C52	0.685400	0.873800	0.468600
C531	C53	0.948600	0.789990	0.421790
C541	C54	0.768400	0.799000	0.449700
C551	C55	0.677800	0.739700	0.458500
C561	C56	0.172400	0.855000	0.576700
C571	C57	0.160100	0.581700	0.443500
C581	C58	0.886400	0.519400	0.374300
C591	C59	0.552300	0.689400	0.704500
C601	C60	0.278400	0.552420	0.187820
C611	C61	0.098400	0.578800	0.200600
C621	C62	0.024200	0.584230	0.385430
C631	C63	0.931200	0.659570	0.408370
C641	C64	0.124700	0.574060	0.316760
C651	C65	0.025700	0.720300	0.401600
C661	C66	0.755600	0.669400	0.437200
C671	C67	0.380500	0.536600	0.239200
C681	C68	0.024000	0.590800	0.264200
C691	C69	0.882700	0.867000	0.642900
C701	C70	0.039100	0.825900	0.616000
C711	C71	0.068200	0.759600	0.629300
C721	C72	0.948900	0.736500	0.670400
C731	C73	0.797300	0.778600	0.700500
C741	C74	0.763400	0.842000	0.684300
C751	C75	0.302800	0.548270	0.303270
C761	C76	0.360900	0.963110	0.382010
C771	C77	0.685400	0.626200	0.031400
C781	C78	0.948600	0.710010	0.078210
C791	C79	0.768400	0.701000	0.050300
C801	C80	0.677800	0.760300	0.041500
C811	C81	0.172400	0.645000	0.923300
C821	C82	0.160100	0.918300	0.056500
C831	C83	0.886400	0.980600	0.125700
C841	C84	0.552300	0.810600	0.795500
C851	C85	0.278400	0.947580	0.312180
C861	C86	0.098400	0.921200	0.299400
C871	C87	0.024200	0.915770	0.114570
C881	C88	0.931200	0.840430	0.091630
C891	C89	0.124700	0.925940	0.183240
C901	C90	0.025700	0.779700	0.098400
C911	C91	0.755600	0.830600	0.062800
C921	C92	0.380500	0.963400	0.260800
C931	C93	0.024000	0.909200	0.235800
C941	C94	0.882700	0.633000	0.857100
C951	C95	0.039100	0.674100	0.884000
C961	C96	0.068200	0.740400	0.870700
C971	C97	0.948900	0.763500	0.829600
C981	C98	0.797300	0.721400	0.799500
C991	C99	0.763400	0.658000	0.815700
C1001	C100	0.302800	0.951730	0.196730
C1011	C101	0.324400	0.250000	0.250000
C1021	C102	0.675600	0.750000	0.750000
O11	O1	0.734500	0.445940	0.927140
O21	O2	0.484400	0.494490	0.891790
O31	O3	0.473400	0.117280	0.503620
O41	O4	0.226800	0.075410	0.543240
O51	O5	0.683500	0.187130	0.443530
O61	O6	0.847500	0.086510	0.435690
O71	O7	0.734500	0.054060	0.572860
O81	O8	0.484400	0.005510	0.608210
O91	O9	0.473400	0.382720	0.996380
O101	O10	0.226800	0.424590	0.956760
O111	O11	0.683500	0.312870	0.056470
O121	O12	0.847500	0.413490	0.064310
O131	O13	0.265500	0.554060	0.072860
O141	O14	0.515600	0.505510	0.108210
O151	O15	0.526600	0.882720	0.496380
O161	O16	0.773200	0.924590	0.456760
O171	O17	0.316500	0.812870	0.556470
O181	O18	0.152500	0.913490	0.564310
O191	O19	0.265500	0.945940	0.427140
O201	O20	0.515600	0.994490	0.391790
O211	O21	0.526600	0.617280	0.003620
O221	O22	0.773200	0.575410	0.043240
O231	O23	0.316500	0.687130	0.943530
O241	O24	0.152500	0.586510	0.935690
F11	F1	0.701000	0.371940	0.551590
F21	F2	0.924900	0.400260	0.496450
F31	F3	0.765000	0.484160	0.564670
F41	F4	0.184700	0.486730	0.567770
F51	F5	0.251400	0.474580	0.665580
F61	F6	0.029700	0.544360	0.656180
F71	F7	0.353800	0.371030	0.325230
F81	F8	0.588500	0.330430	0.259980
F91	F9	0.525500	0.288960	0.346510
F101	F10	0.701000	0.128060	0.948410
F111	F11	0.924900	0.099740	0.003550
F121	F12	0.765000	0.015840	0.935330
F131	F13	0.184700	0.013270	0.932230
F141	F14	0.251400	0.025420	0.834420
F151	F15	0.029700	0.955640	0.843820
F161	F16	0.353800	0.128970	0.174770
F171	F17	0.588500	0.169570	0.240020
F181	F18	0.525500	0.211040	0.153490
F191	F19	0.299000	0.628060	0.448410
F201	F20	0.075100	0.599740	0.503550
F211	F21	0.235000	0.515840	0.435330
F221	F22	0.815300	0.513270	0.432230
F231	F23	0.748600	0.525420	0.334420
F241	F24	0.970300	0.455640	0.343820
F251	F25	0.646200	0.628970	0.674770
F261	F26	0.411500	0.669570	0.740020
F271	F27	0.474500	0.711040	0.653490
F281	F28	0.299000	0.871940	0.051590
F291	F29	0.075100	0.900260	0.996450
F301	F30	0.235000	0.984160	0.064670
F311	F31	0.815300	0.986730	0.067770
F321	F32	0.748600	0.974580	0.165580
F331	F33	0.970300	0.044360	0.156180
F341	F34	0.646200	0.871030	0.825230
F351	F35	0.411500	0.830430	0.759980
F361	F36	0.474500	0.788960	0.846510
