data_WALCET_freeONLY_PM
_symmetry_space_group_name_H-M	'P1'
_cell_length_a	13.009400
_cell_length_b	13.803300
_cell_length_c	16.828100
_cell_angle_alpha	90.000000
_cell_angle_beta	90.000000
_cell_angle_gamma	90.000000
_symmetry_Int_Tables_number 1

loop_
_symmetry_equiv_pos_as_xyz
'x,y,z'

loop_
_atom_site_label
_atom_site_type_symbol
_atom_site_fract_x
_atom_site_fract_y
_atom_site_fract_z
Zn11	Zn1	0.425610	0.977870	0.404490
Zn21	Zn2	0.476830	0.907300	0.075980
Zn31	Zn3	0.574390	0.522130	0.904490
Zn41	Zn4	0.523170	0.592700	0.575980
Zn51	Zn5	0.925610	0.022130	0.095510
Zn61	Zn6	0.976830	0.092700	0.424020
Zn71	Zn7	0.074390	0.477870	0.595510
Zn81	Zn8	0.023170	0.407300	0.924020
Zn91	Zn9	0.574390	0.022130	0.595510
Zn101	Zn10	0.523170	0.092700	0.924020
Zn111	Zn11	0.425610	0.477870	0.095510
Zn121	Zn12	0.476830	0.407300	0.424020
Zn131	Zn13	0.074390	0.977870	0.904490
Zn141	Zn14	0.023170	0.907300	0.575980
Zn151	Zn15	0.925610	0.522130	0.404490
Zn161	Zn16	0.976830	0.592700	0.075980
H11	H1	0.251000	0.865800	0.502200
H21	H2	0.446300	0.195200	0.354800
H31	H3	0.172500	0.167400	0.355900
H41	H4	0.279100	0.132400	0.341400
H51	H5	0.586200	0.237600	0.624400
H61	H6	0.564700	0.331300	0.583700
H71	H7	0.749000	0.634200	0.002200
H81	H8	0.553700	0.304800	0.854800
H91	H9	0.827500	0.332600	0.855900
H101	H10	0.720900	0.367600	0.841400
H111	H11	0.413800	0.262400	0.124400
H121	H12	0.435300	0.168700	0.083700
H131	H13	0.751000	0.134200	0.997800
H141	H14	0.946300	0.804800	0.145200
H151	H15	0.672500	0.832600	0.144100
H161	H16	0.779100	0.867600	0.158600
H171	H17	0.086200	0.762400	0.875600
H181	H18	0.064700	0.668700	0.916300
H191	H19	0.249000	0.365800	0.497800
H201	H20	0.053700	0.695200	0.645200
H211	H21	0.327500	0.667400	0.644100
H221	H22	0.220900	0.632400	0.658600
H231	H23	0.913800	0.737600	0.375600
H241	H24	0.935300	0.831300	0.416300
H251	H25	0.749000	0.134200	0.497800
H261	H26	0.553700	0.804800	0.645200
H271	H27	0.827500	0.832600	0.644100
H281	H28	0.720900	0.867600	0.658600
H291	H29	0.413800	0.762400	0.375600
H301	H30	0.435300	0.668700	0.416300
H311	H31	0.251000	0.365800	0.997800
H321	H32	0.446300	0.695200	0.145200
H331	H33	0.172500	0.667400	0.144100
H341	H34	0.279100	0.632400	0.158600
H351	H35	0.586200	0.737600	0.875600
H361	H36	0.564700	0.831300	0.916300
H371	H37	0.249000	0.865800	0.002200
H381	H38	0.053700	0.195200	0.854800
H391	H39	0.327500	0.167400	0.855900
H401	H40	0.220900	0.132400	0.841400
H411	H41	0.913800	0.237600	0.124400
H421	H42	0.935300	0.331300	0.083700
H431	H43	0.751000	0.634200	0.502200
H441	H44	0.946300	0.304800	0.354800
H451	H45	0.672500	0.332600	0.355900
H461	H46	0.779100	0.367600	0.341400
H471	H47	0.086200	0.262400	0.624400
H481	H48	0.064700	0.168700	0.583700
C11	C1	0.468400	0.910300	0.245700
C21	C2	0.422400	0.008200	0.222290
C31	C3	0.202200	0.047400	0.411500
C41	C4	0.221800	0.920400	0.479090
C51	C5	0.527100	0.220260	0.520090
C61	C6	0.471100	0.188210	0.406310
C71	C7	0.531600	0.589700	0.745700
C81	C8	0.577600	0.491800	0.722290
C91	C9	0.797800	0.452600	0.911500
C101	C10	0.778200	0.579600	0.979090
C111	C11	0.472900	0.279740	0.020090
C121	C12	0.528900	0.311790	0.906310
C131	C13	0.968400	0.089700	0.254300
C141	C14	0.922400	0.991800	0.277710
C151	C15	0.702200	0.952600	0.088500
C161	C16	0.721800	0.079600	0.020910
C171	C17	0.027100	0.779740	0.979910
C181	C18	0.971100	0.811790	0.093690
C191	C19	0.031600	0.410300	0.754300
C201	C20	0.077600	0.508200	0.777710
C211	C21	0.297800	0.547400	0.588500
C221	C22	0.278200	0.420400	0.520910
C231	C23	0.972900	0.720260	0.479910
C241	C24	0.028900	0.688210	0.593690
C251	C25	0.531600	0.089700	0.754300
C261	C26	0.577600	0.991800	0.777710
C271	C27	0.797800	0.952600	0.588500
C281	C28	0.778200	0.079600	0.520910
C291	C29	0.472900	0.779740	0.479910
C301	C30	0.528900	0.811790	0.593690
C311	C31	0.468400	0.410300	0.254300
C321	C32	0.422400	0.508200	0.277710
C331	C33	0.202200	0.547400	0.088500
C341	C34	0.221800	0.420400	0.020910
C351	C35	0.527100	0.720260	0.979910
C361	C36	0.471100	0.688210	0.093690
C371	C37	0.031600	0.910300	0.745700
C381	C38	0.077600	0.008200	0.722290
C391	C39	0.297800	0.047400	0.911500
C401	C40	0.278200	0.920400	0.979090
C411	C41	0.972900	0.220260	0.020090
C421	C42	0.028900	0.188210	0.906310
C431	C43	0.968400	0.589700	0.245700
C441	C44	0.922400	0.491800	0.222290
C451	C45	0.702200	0.452600	0.411500
C461	C46	0.721800	0.579600	0.479090
C471	C47	0.027100	0.279740	0.520090
C481	C48	0.971100	0.311790	0.406310
N11	N1	0.272890	0.979240	0.429020
N21	N2	0.127370	0.947550	0.492000
N31	N3	0.113610	0.031450	0.447980
N41	N4	0.220100	0.125300	0.363700
N51	N5	0.523000	0.124010	0.515520
N61	N6	0.485950	0.104160	0.440060
N71	N7	0.495110	0.263190	0.453020
N81	N8	0.563800	0.269000	0.583810
N91	N9	0.727110	0.520760	0.929020
N101	N10	0.872630	0.552450	0.992000
N111	N11	0.886390	0.468550	0.947980
N121	N12	0.779900	0.374700	0.863700
N131	N13	0.477000	0.375990	0.015520
N141	N14	0.514050	0.395840	0.940060
N151	N15	0.504890	0.236810	0.953020
N161	N16	0.436200	0.231000	0.083810
N171	N17	0.772890	0.020760	0.070980
N181	N18	0.627370	0.052450	0.008000
N191	N19	0.613610	0.968550	0.052020
N201	N20	0.720100	0.874700	0.136300
N211	N21	0.023000	0.875990	0.984480
N221	N22	0.985950	0.895840	0.059940
N231	N23	0.995110	0.736810	0.046980
N241	N24	0.063800	0.731000	0.916190
N251	N25	0.227110	0.479240	0.570980
N261	N26	0.372630	0.447550	0.508000
N271	N27	0.386390	0.531450	0.552020
N281	N28	0.279900	0.625300	0.636300
N291	N29	0.977000	0.624010	0.484480
N301	N30	0.014050	0.604160	0.559940
N311	N31	0.004890	0.763190	0.546980
N321	N32	0.936200	0.769000	0.416190
N331	N33	0.727110	0.020760	0.570980
N341	N34	0.872630	0.052450	0.508000
N351	N35	0.886390	0.968550	0.552020
N361	N36	0.779900	0.874700	0.636300
N371	N37	0.477000	0.875990	0.484480
N381	N38	0.514050	0.895840	0.559940
N391	N39	0.504890	0.736810	0.546980
N401	N40	0.436200	0.731000	0.416190
N411	N41	0.272890	0.479240	0.070980
N421	N42	0.127370	0.447550	0.008000
N431	N43	0.113610	0.531450	0.052020
N441	N44	0.220100	0.625300	0.136300
N451	N45	0.523000	0.624010	0.984480
N461	N46	0.485950	0.604160	0.059940
N471	N47	0.495110	0.763190	0.046980
N481	N48	0.563800	0.769000	0.916190
N491	N49	0.227110	0.979240	0.929020
N501	N50	0.372630	0.947550	0.992000
N511	N51	0.386390	0.031450	0.947980
N521	N52	0.279900	0.125300	0.863700
N531	N53	0.977000	0.124010	0.015520
N541	N54	0.014050	0.104160	0.940060
N551	N55	0.004890	0.263190	0.953020
N561	N56	0.936200	0.269000	0.083810
N571	N57	0.772890	0.520760	0.429020
N581	N58	0.627370	0.552450	0.492000
N591	N59	0.613610	0.468550	0.447980
N601	N60	0.720100	0.374700	0.363700
N611	N61	0.023000	0.375990	0.515520
N621	N62	0.985950	0.395840	0.440060
N631	N63	0.995110	0.236810	0.453020
N641	N64	0.063800	0.231000	0.583810
O11	O1	0.476200	0.891110	0.317910
O21	O2	0.394600	0.060390	0.278320
O31	O3	0.497700	0.855810	0.191340
O41	O4	0.418200	0.024520	0.149530
O51	O5	0.523800	0.608890	0.817910
O61	O6	0.605400	0.439610	0.778320
O71	O7	0.502300	0.644190	0.691340
O81	O8	0.581800	0.475480	0.649530
O91	O9	0.976200	0.108890	0.182090
O101	O10	0.894600	0.939610	0.221680
O111	O11	0.997700	0.144190	0.308660
O121	O12	0.918200	0.975480	0.350470
O131	O13	0.023800	0.391110	0.682090
O141	O14	0.105400	0.560390	0.721680
O151	O15	0.002300	0.355810	0.808660
O161	O16	0.081800	0.524520	0.850470
O171	O17	0.523800	0.108890	0.682090
O181	O18	0.605400	0.939610	0.721680
O191	O19	0.502300	0.144190	0.808660
O201	O20	0.581800	0.975480	0.850470
O211	O21	0.476200	0.391110	0.182090
O221	O22	0.394600	0.560390	0.221680
O231	O23	0.497700	0.355810	0.308660
O241	O24	0.418200	0.524520	0.350470
O251	O25	0.023800	0.891110	0.817910
O261	O26	0.105400	0.060390	0.778320
O271	O27	0.002300	0.855810	0.691340
O281	O28	0.081800	0.024520	0.649530
O291	O29	0.976200	0.608890	0.317910
O301	O30	0.894600	0.439610	0.278320
O311	O31	0.997700	0.644190	0.191340
O321	O32	0.918200	0.475480	0.149530
