data_WEBKOD_freeONLY_PM
_symmetry_space_group_name_H-M	'P1'
_cell_length_a	12.049500
_cell_length_b	12.277300
_cell_length_c	19.102800
_cell_angle_alpha	91.669000
_cell_angle_beta	96.850000
_cell_angle_gamma	117.945000
_symmetry_Int_Tables_number 1

loop_
_symmetry_equiv_pos_as_xyz
'x,y,z'

loop_
_atom_site_label
_atom_site_type_symbol
_atom_site_fract_x
_atom_site_fract_y
_atom_site_fract_z
Cd11	Cd1	0.769110	0.502330	0.778540
Cd21	Cd2	0.588590	0.669690	0.698120
Cd31	Cd3	0.426550	0.321770	0.801990
Cd41	Cd4	0.230890	0.497670	0.221460
Cd51	Cd5	0.411410	0.330310	0.301880
Cd61	Cd6	0.573450	0.678230	0.198010
H11	H1	0.713100	0.542800	0.973200
H21	H2	0.701800	0.575400	0.095000
H31	H3	0.085300	0.330500	0.777400
H41	H4	0.213900	0.647300	0.683200
H51	H5	0.722100	0.144400	0.688600
H61	H6	0.457400	0.981500	0.814400
H71	H7	0.453700	0.793700	0.786200
H81	H8	0.714600	0.959300	0.660300
H91	H9	0.895700	0.334700	0.780500
H101	H10	0.028100	0.651700	0.692200
H111	H11	0.966800	0.004400	0.670700
H121	H12	0.097900	0.858900	0.827500
H131	H13	0.156600	0.182500	0.695000
H141	H14	0.282000	0.048200	0.850200
H151	H15	0.304900	0.242300	0.559000
H161	H16	0.682200	0.474500	0.557600
H171	H17	0.636000	0.442800	0.433400
H181	H18	0.271600	0.228700	0.437200
H191	H19	0.545000	0.755100	0.927700
H201	H20	0.532100	0.778400	0.047200
H211	H21	0.286900	0.457200	0.026800
H221	H22	0.298200	0.424600	0.905000
H231	H23	0.914700	0.669500	0.222600
H241	H24	0.786100	0.352700	0.316800
H251	H25	0.277900	0.855600	0.311400
H261	H26	0.542600	0.018500	0.185600
H271	H27	0.546300	0.206300	0.213800
H281	H28	0.285400	0.040700	0.339700
H291	H29	0.104300	0.665300	0.219500
H301	H30	0.971900	0.348300	0.307800
H311	H31	0.033200	0.995600	0.329300
H321	H32	0.902100	0.141100	0.172500
H331	H33	0.843400	0.817500	0.305000
H341	H34	0.718000	0.951800	0.149800
H351	H35	0.695100	0.757700	0.441000
H361	H36	0.317800	0.525500	0.442400
H371	H37	0.364000	0.557200	0.566600
H381	H38	0.728400	0.771300	0.562800
H391	H39	0.455000	0.244900	0.072300
H401	H40	0.467900	0.221600	0.952800
C11	C1	0.177000	0.494400	0.734400
C21	C2	0.301000	0.495400	0.737500
C31	C3	0.673000	0.588700	0.987500
C41	C4	0.617900	0.638200	0.937000
C51	C5	0.618400	0.608500	0.860200
C61	C6	0.882200	0.790200	0.735300
C71	C7	0.516800	0.388800	0.653300
C81	C8	0.666800	0.609400	0.060500
C91	C9	0.076000	0.398200	0.760400
C101	C10	0.007800	0.910700	0.747900
C111	C11	0.595300	0.203100	0.775500
C121	C12	0.151500	0.584400	0.705900
C131	C13	0.591600	0.083900	0.757400
C141	C14	0.666800	0.073200	0.709400
C151	C15	0.512300	0.978800	0.783300
C161	C16	0.508700	0.865100	0.765500
C171	C17	0.661300	0.962400	0.692300
C181	C18	0.961700	0.400900	0.761700
C191	C19	0.039100	0.585100	0.709600
C201	C20	0.029800	0.010100	0.707900
C211	C21	0.106700	0.925500	0.800500
C221	C22	0.143900	0.116200	0.723100
C231	C23	0.217500	0.037900	0.812800
C241	C24	0.496600	0.365500	0.573100
C251	C25	0.374400	0.287200	0.534400
C261	C26	0.597700	0.423300	0.534500
C271	C27	0.568800	0.402200	0.460200
C281	C28	0.355500	0.275500	0.462000
C291	C29	0.573100	0.713200	0.960400
C301	C30	0.568100	0.728900	0.032500
C311	C31	0.874000	0.394000	0.993000
C321	C32	0.814000	0.394000	0.921300
C331	C33	0.823000	0.505600	0.265600
C341	C34	0.699000	0.504600	0.262500
C351	C35	0.327000	0.411300	0.012500
C361	C36	0.382100	0.361800	0.063000
C371	C37	0.381600	0.391500	0.139800
C381	C38	0.117800	0.209800	0.264700
C391	C39	0.483200	0.611200	0.346700
C401	C40	0.333200	0.390600	0.939500
C411	C41	0.924000	0.601800	0.239600
C421	C42	0.992200	0.089300	0.252100
C431	C43	0.404700	0.796900	0.224500
C441	C44	0.848500	0.415600	0.294100
C451	C45	0.408400	0.916100	0.242600
C461	C46	0.333200	0.926800	0.290600
C471	C47	0.487700	0.021200	0.216700
C481	C48	0.491300	0.134900	0.234500
C491	C49	0.338700	0.037600	0.307700
C501	C50	0.038300	0.599100	0.238300
C511	C51	0.960900	0.414900	0.290400
C521	C52	0.970200	0.989900	0.292100
C531	C53	0.893300	0.074500	0.199500
C541	C54	0.856100	0.883800	0.276900
C551	C55	0.782500	0.962100	0.187200
C561	C56	0.503400	0.634500	0.426900
C571	C57	0.625600	0.712800	0.465600
C581	C58	0.402300	0.576700	0.465500
C591	C59	0.431200	0.597800	0.539800
C601	C60	0.644500	0.724500	0.538000
C611	C61	0.426900	0.286800	0.039600
C621	C62	0.431900	0.271100	0.967500
C631	C63	0.126000	0.606000	0.007000
C641	C64	0.186000	0.606000	0.078700
N11	N1	0.582300	0.854100	0.719100
N21	N2	0.940400	0.491400	0.737900
N31	N3	0.237400	0.134500	0.773100
N41	N4	0.453000	0.328900	0.425200
N51	N5	0.611600	0.677600	0.081600
N61	N6	0.417700	0.145900	0.280900
N71	N7	0.059600	0.508600	0.262100
N81	N8	0.762600	0.865500	0.226900
N91	N9	0.547000	0.671100	0.574800
N101	N10	0.388400	0.322400	0.918400
O11	O1	0.617000	0.686400	0.820000
O21	O2	0.613300	0.489100	0.680300
O31	O3	0.374300	0.563100	0.693800
O41	O4	0.618600	0.508300	0.842200
O51	O5	0.525500	0.205300	0.818100
O61	O6	0.324300	0.435900	0.781100
O71	O7	0.797300	0.787900	0.693400
O81	O8	0.439900	0.313900	0.684100
O91	O9	0.878100	0.706700	0.773900
O101	O10	0.673500	0.294500	0.747500
O111	O11	0.866000	0.489000	0.892500
O121	O12	0.383000	0.313600	0.180000
O131	O13	0.386700	0.510900	0.319700
O141	O14	0.625700	0.436900	0.306200
O151	O15	0.381400	0.491700	0.157800
O161	O16	0.474500	0.794700	0.181900
O171	O17	0.675700	0.564100	0.218900
O181	O18	0.202700	0.212100	0.306600
O191	O19	0.560100	0.686100	0.315900
O201	O20	0.121900	0.293300	0.226100
O211	O21	0.326500	0.705500	0.252500
O221	O22	0.134000	0.511000	0.107500
