data_WEFCAN_freeONLY_PM
_symmetry_space_group_name_H-M	'P1'
_cell_length_a	8.984610
_cell_length_b	12.325900
_cell_length_c	24.022900
_cell_angle_alpha	90.000000
_cell_angle_beta	90.000000
_cell_angle_gamma	111.374000
_symmetry_Int_Tables_number 1

loop_
_symmetry_equiv_pos_as_xyz
'x,y,z'

loop_
_atom_site_label
_atom_site_type_symbol
_atom_site_fract_x
_atom_site_fract_y
_atom_site_fract_z
Fe11	Fe1	0.500000	0.500000	0.500000
Fe21	Fe2	0.000000	0.500000	0.000000
H11	H1	0.843500	0.598200	0.551200
H21	H2	0.000300	0.730400	0.613400
H31	H3	0.611700	0.792400	0.662000
H41	H4	0.468800	0.657600	0.598000
H51	H5	0.821500	0.972000	0.690700
H61	H6	0.773900	0.875000	0.737100
H71	H7	0.156500	0.401800	0.551200
H81	H8	0.999700	0.269600	0.613400
H91	H9	0.388300	0.207600	0.662000
H101	H10	0.531200	0.342400	0.598000
H111	H11	0.178500	0.028000	0.690700
H121	H12	0.226100	0.125000	0.737100
H131	H13	0.754700	0.598200	0.948800
H141	H14	0.730100	0.730400	0.886600
H151	H15	0.180700	0.792400	0.838000
H161	H16	0.188800	0.657600	0.902000
H171	H17	0.150500	0.972000	0.809300
H181	H18	0.101100	0.875000	0.762900
H191	H19	0.245300	0.401800	0.948800
H201	H20	0.269900	0.269600	0.886600
H211	H21	0.819300	0.207600	0.838000
H221	H22	0.811200	0.342400	0.902000
H231	H23	0.849500	0.028000	0.809300
H241	H24	0.898900	0.125000	0.762900
H251	H25	0.156500	0.401800	0.448800
H261	H26	0.999700	0.269600	0.386600
H271	H27	0.388300	0.207600	0.338000
H281	H28	0.531200	0.342400	0.402000
H291	H29	0.178500	0.028000	0.309300
H301	H30	0.226100	0.125000	0.262900
H311	H31	0.843500	0.598200	0.448800
H321	H32	0.000300	0.730400	0.386600
H331	H33	0.611700	0.792400	0.338000
H341	H34	0.468800	0.657600	0.402000
H351	H35	0.821500	0.972000	0.309300
H361	H36	0.773900	0.875000	0.262900
H371	H37	0.245300	0.401800	0.051200
H381	H38	0.269900	0.269600	0.113400
H391	H39	0.819300	0.207600	0.162000
H401	H40	0.811200	0.342400	0.098000
H411	H41	0.849500	0.028000	0.190700
H421	H42	0.898900	0.125000	0.237100
H431	H43	0.754700	0.598200	0.051200
H441	H44	0.730100	0.730400	0.113400
H451	H45	0.180700	0.792400	0.162000
H461	H46	0.188800	0.657600	0.098000
H471	H47	0.150500	0.972000	0.190700
H481	H48	0.101100	0.875000	0.237100
C11	C1	0.796480	0.638560	0.573400
C21	C2	0.891720	0.717240	0.610840
C31	C3	0.823220	0.776840	0.644850
C41	C4	0.661990	0.754180	0.639750
C51	C5	0.577990	0.673580	0.600860
C61	C6	0.860800	0.924000	0.713950
C71	C7	0.203520	0.361440	0.573400
C81	C8	0.108280	0.282760	0.610840
C91	C9	0.176780	0.223160	0.644850
C101	C10	0.338010	0.245820	0.639750
C111	C11	0.422010	0.326420	0.600860
C121	C12	0.139200	0.076000	0.713950
C131	C13	0.842080	0.638560	0.926600
C141	C14	0.825520	0.717240	0.889160
C151	C15	0.953620	0.776840	0.855150
C161	C16	0.092190	0.754180	0.860250
C171	C17	0.095590	0.673580	0.899140
C181	C18	0.063200	0.924000	0.786050
C191	C19	0.157920	0.361440	0.926600
C201	C20	0.174480	0.282760	0.889160
C211	C21	0.046380	0.223160	0.855150
C221	C22	0.907810	0.245820	0.860250
C231	C23	0.904410	0.326420	0.899140
C241	C24	0.936800	0.076000	0.786050
C251	C25	0.203520	0.361440	0.426600
C261	C26	0.108280	0.282760	0.389160
C271	C27	0.176780	0.223160	0.355150
C281	C28	0.338010	0.245820	0.360250
C291	C29	0.422010	0.326420	0.399140
C301	C30	0.139200	0.076000	0.286050
C311	C31	0.796480	0.638560	0.426600
C321	C32	0.891720	0.717240	0.389160
C331	C33	0.823220	0.776840	0.355150
C341	C34	0.661990	0.754180	0.360250
C351	C35	0.577990	0.673580	0.399140
C361	C36	0.860800	0.924000	0.286050
C371	C37	0.157920	0.361440	0.073400
C381	C38	0.174480	0.282760	0.110840
C391	C39	0.046380	0.223160	0.144850
C401	C40	0.907810	0.245820	0.139750
C411	C41	0.904410	0.326420	0.100860
C421	C42	0.936800	0.076000	0.213950
C431	C43	0.842080	0.638560	0.073400
C441	C44	0.825520	0.717240	0.110840
C451	C45	0.953620	0.776840	0.144850
C461	C46	0.092190	0.754180	0.139750
C471	C47	0.095590	0.673580	0.100860
C481	C48	0.063200	0.924000	0.213950
C491	C49	0.719470	0.341540	0.500000
C501	C50	0.280530	0.658460	0.500000
C511	C51	0.622070	0.341540	0.000000
C521	C52	0.377930	0.658460	0.000000
C531	C53	0.000000	0.000000	0.750000
C541	C54	0.000000	0.000000	0.250000
S11	S1	0.801530	0.243100	0.500000
S21	S2	0.198470	0.756900	0.500000
S31	S3	0.441570	0.243100	0.000000
S41	S4	0.558430	0.756900	0.000000
N11	N1	0.641440	0.616280	0.566770
N21	N2	0.358560	0.383720	0.566770
N31	N3	0.974840	0.616280	0.933230
N41	N4	0.025160	0.383720	0.933230
N51	N5	0.358560	0.383720	0.433230
N61	N6	0.641440	0.616280	0.433230
N71	N7	0.025160	0.383720	0.066770
N81	N8	0.974840	0.616280	0.066770
N91	N9	0.660660	0.409920	0.500000
N101	N10	0.339340	0.590080	0.500000
N111	N11	0.749260	0.409920	0.000000
N121	N12	0.250740	0.590080	0.000000
O11	O1	0.923290	0.854380	0.680390
O21	O2	0.076710	0.145620	0.680390
O31	O3	0.931090	0.854380	0.819610
O41	O4	0.068910	0.145620	0.819610
O51	O5	0.076710	0.145620	0.319610
O61	O6	0.923290	0.854380	0.319610
O71	O7	0.068910	0.145620	0.180390
O81	O8	0.931090	0.854380	0.180390
