data_WEMNAF_freeONLY_PM
_symmetry_space_group_name_H-M	'P1'
_cell_length_a	8.910000
_cell_length_b	12.007000
_cell_length_c	12.526000
_cell_angle_alpha	77.708000
_cell_angle_beta	76.629000
_cell_angle_gamma	76.378000
_symmetry_Int_Tables_number 1

loop_
_symmetry_equiv_pos_as_xyz
'x,y,z'

loop_
_atom_site_label
_atom_site_type_symbol
_atom_site_fract_x
_atom_site_fract_y
_atom_site_fract_z
Zn11	Zn1	0.286380	0.746750	0.903930
Zn21	Zn2	0.713620	0.253250	0.096070
Zn31	Zn3	0.000000	0.000000	0.000000
H11	H1	0.020400	0.400100	0.264100
H21	H2	0.894700	0.516000	0.254900
H31	H3	0.023200	0.604700	0.055100
H41	H4	0.427200	0.611200	0.117800
H51	H5	0.766300	0.649300	0.321700
H61	H6	0.728400	0.726400	0.414800
H71	H7	0.801100	0.823500	0.159400
H81	H8	0.157200	0.907400	0.224500
H91	H9	0.109900	0.270900	0.365200
H101	H10	0.176500	0.224600	0.475300
H111	H11	0.344400	0.254200	0.200900
H121	H12	0.652900	0.338500	0.326600
H131	H13	0.350400	0.065200	0.007500
H141	H14	0.979600	0.599900	0.735900
H151	H15	0.105300	0.484000	0.745100
H161	H16	0.976800	0.395300	0.944900
H171	H17	0.572800	0.388800	0.882200
H181	H18	0.233700	0.350700	0.678300
H191	H19	0.271600	0.273600	0.585200
H201	H20	0.198900	0.176500	0.840600
H211	H21	0.842800	0.092600	0.775500
H221	H22	0.890100	0.729100	0.634800
H231	H23	0.823500	0.775400	0.524700
H241	H24	0.655600	0.745800	0.799100
H251	H25	0.347100	0.661500	0.673400
H261	H26	0.649600	0.934800	0.992500
C11	C1	0.998300	0.490100	0.390800
C21	C2	0.913000	0.589700	0.434600
C31	C3	0.083100	0.399500	0.456900
C41	C4	0.998200	0.481300	0.271900
C51	C5	0.108300	0.594600	0.089800
C61	C6	0.326900	0.596700	0.125500
C71	C7	0.813000	0.684500	0.365500
C81	C8	0.880700	0.827800	0.194200
C91	C9	0.072300	0.872400	0.230600
C101	C10	0.169800	0.288300	0.413100
C111	C11	0.394200	0.275800	0.248700
C121	C12	0.559500	0.321800	0.318800
C131	C13	0.385300	0.897400	0.971800
C141	C14	0.428100	0.999600	0.996500
C151	C15	0.001700	0.509900	0.609200
C161	C16	0.087000	0.410300	0.565400
C171	C17	0.916900	0.600500	0.543100
C181	C18	0.001800	0.518700	0.728100
C191	C19	0.891700	0.405400	0.910200
C201	C20	0.673100	0.403300	0.874500
C211	C21	0.187000	0.315500	0.634500
C221	C22	0.119300	0.172200	0.805800
C231	C23	0.927700	0.127600	0.769400
C241	C24	0.830200	0.711700	0.586900
C251	C25	0.605800	0.724200	0.751300
C261	C26	0.440500	0.678200	0.681200
C271	C27	0.614700	0.102600	0.028200
C281	C28	0.571900	0.000400	0.003500
S11	S1	0.946770	0.799800	0.859990
S21	S2	0.053230	0.200200	0.140010
N11	N1	0.242000	0.632800	0.043600
N21	N2	0.116100	0.540300	0.192300
N31	N3	0.256400	0.539800	0.216200
N41	N4	0.984100	0.896300	0.153000
N51	N5	0.905600	0.766600	0.290800
N61	N6	0.028400	0.794300	0.317300
N71	N7	0.541800	0.290700	0.225300
N81	N8	0.328600	0.296200	0.350500
N91	N9	0.433700	0.326200	0.397200
N101	N10	0.758000	0.367200	0.956400
N111	N11	0.883900	0.459700	0.807700
N121	N12	0.743600	0.460200	0.783800
N131	N13	0.015900	0.103700	0.847000
N141	N14	0.094400	0.233400	0.709200
N151	N15	0.971600	0.205700	0.682700
N161	N16	0.458200	0.709300	0.774700
N171	N17	0.671400	0.703800	0.649500
N181	N18	0.566300	0.673800	0.602800
O11	O1	0.118300	0.760700	0.820300
O21	O2	0.926800	0.868600	0.947400
O31	O3	0.874900	0.698900	0.904500
O41	O4	0.878300	0.868600	0.766300
O51	O5	0.248600	0.908600	0.947400
O61	O6	0.478600	0.802800	0.971300
O71	O7	0.881700	0.239300	0.179700
O81	O8	0.073200	0.131400	0.052600
O91	O9	0.125100	0.301100	0.095500
O101	O10	0.121700	0.131400	0.233700
O111	O11	0.751400	0.091400	0.052600
O121	O12	0.521400	0.197200	0.028700
