data_WICGEV_freeONLY_PM
_symmetry_space_group_name_H-M	'P1'
_cell_length_a	10.197900
_cell_length_b	11.784300
_cell_length_c	14.919900
_cell_angle_alpha	91.800300
_cell_angle_beta	90.000000
_cell_angle_gamma	90.000000
_symmetry_Int_Tables_number 1

loop_
_symmetry_equiv_pos_as_xyz
'x,y,z'

loop_
_atom_site_label
_atom_site_type_symbol
_atom_site_fract_x
_atom_site_fract_y
_atom_site_fract_z
Mn11	Mn1	0.932950	0.989810	0.562680
Mn21	Mn2	0.620820	0.990270	0.618910
Mn31	Mn3	0.541580	0.744740	0.747800
Mn41	Mn4	0.456850	0.503450	0.881270
Mn51	Mn5	0.143600	0.512660	0.935480
Mn61	Mn6	0.539580	0.244990	0.752370
Mn71	Mn7	0.432950	0.010190	0.437320
Mn81	Mn8	0.120820	0.009730	0.381090
Mn91	Mn9	0.041580	0.255260	0.252200
Mn101	Mn10	0.956850	0.496550	0.118730
Mn111	Mn11	0.643600	0.487340	0.064520
Mn121	Mn12	0.039580	0.755010	0.247630
H11	H1	0.783000	0.902800	0.380400
H21	H2	0.918300	0.181100	0.711000
H31	H3	0.993800	0.734000	0.507700
H41	H4	0.836000	0.745400	0.721700
H51	H5	0.392400	0.046900	0.826700
H61	H6	0.830500	0.213800	0.471900
H71	H7	0.254700	0.750700	0.774700
H81	H8	0.695800	0.441900	0.678400
H91	H9	0.748300	0.703600	0.968600
H101	H10	0.293200	0.603100	0.114400
H111	H11	0.164900	0.306900	0.789100
H121	H12	0.566000	0.229300	0.014300
H131	H13	0.283000	0.097200	0.619600
H141	H14	0.418300	0.818900	0.289000
H151	H15	0.493800	0.266000	0.492300
H161	H16	0.336000	0.254600	0.278300
H171	H17	0.892400	0.953100	0.173300
H181	H18	0.330500	0.786200	0.528100
H191	H19	0.754700	0.249300	0.225300
H201	H20	0.195800	0.558100	0.321600
H211	H21	0.248300	0.296400	0.031400
H221	H22	0.793200	0.396900	0.885600
H231	H23	0.664900	0.693100	0.210900
H241	H24	0.066000	0.770700	0.985700
C11	C1	0.714500	0.927900	0.417100
C21	C2	0.829400	0.166700	0.702900
C31	C3	0.019200	0.772800	0.457200
C41	C4	0.819100	0.808600	0.687800
C51	C5	0.446200	0.005100	0.787600
C61	C6	0.899000	0.193600	0.433500
C71	C7	0.268000	0.686900	0.808700
C81	C8	0.639800	0.485600	0.714600
C91	C9	0.682000	0.683800	0.928400
C101	C10	0.361700	0.574500	0.079300
C111	C11	0.253100	0.323300	0.798700
C121	C12	0.550200	0.267400	0.961700
C131	C13	0.214500	0.072100	0.582900
C141	C14	0.329400	0.833300	0.297100
C151	C15	0.519200	0.227200	0.542800
C161	C16	0.319100	0.191400	0.312200
C171	C17	0.946200	0.994900	0.212400
C181	C18	0.399000	0.806400	0.566500
C191	C19	0.768000	0.313100	0.191300
C201	C20	0.139800	0.514400	0.285400
C211	C21	0.182000	0.316200	0.071600
C221	C22	0.861700	0.425500	0.920700
C231	C23	0.753100	0.676700	0.201300
C241	C24	0.050200	0.732600	0.038300
O11	O1	0.742300	0.946200	0.500000
O21	O2	0.609400	0.939600	0.381200
O31	O3	0.797200	0.092500	0.644800
O41	O4	0.748600	0.223200	0.751200
O51	O5	0.031900	0.880400	0.465100
O61	O6	0.038500	0.716400	0.386700
O71	O7	0.913000	0.852900	0.651300
O81	O8	0.698800	0.842200	0.683300
O91	O9	0.514600	0.059200	0.731700
O101	O10	0.446600	0.898700	0.793500
O111	O11	0.958600	0.101500	0.447400
O121	O12	0.925900	0.259800	0.371600
O131	O13	0.382900	0.649600	0.812100
O141	O14	0.169500	0.647300	0.846300
O151	O15	0.638900	0.587200	0.702800
O161	O16	0.571200	0.432500	0.772200
O171	O17	0.665900	0.747300	0.865600
O181	O18	0.618400	0.594300	0.944500
O191	O19	0.338700	0.554000	0.997000
O201	O20	0.471400	0.559100	0.117700
O211	O21	0.277700	0.404800	0.857200
O221	O22	0.328700	0.267300	0.756000
O231	O23	0.541600	0.375800	0.968900
O241	O24	0.539900	0.208700	0.893100
O251	O25	0.242300	0.053800	0.500000
O261	O26	0.109400	0.060400	0.618800
O271	O27	0.297200	0.907500	0.355200
O281	O28	0.248600	0.776800	0.248800
O291	O29	0.531900	0.119600	0.534900
O301	O30	0.538500	0.283600	0.613300
O311	O31	0.413000	0.147100	0.348700
O321	O32	0.198800	0.157800	0.316700
O331	O33	0.014600	0.940800	0.268300
O341	O34	0.946600	0.101300	0.206500
O351	O35	0.458600	0.898500	0.552600
O361	O36	0.425900	0.740200	0.628400
O371	O37	0.882900	0.350400	0.187900
O381	O38	0.669500	0.352700	0.153700
O391	O39	0.138900	0.412800	0.297200
O401	O40	0.071200	0.567500	0.227800
O411	O41	0.165900	0.252700	0.134400
O421	O42	0.118400	0.405700	0.055500
O431	O43	0.838700	0.446000	0.003000
O441	O44	0.971400	0.440900	0.882300
O451	O45	0.777700	0.595200	0.142800
O461	O46	0.828700	0.732700	0.244000
O471	O47	0.041600	0.624200	0.031100
O481	O48	0.039900	0.791300	0.106900
