data_WIDZOA_freeONLY_PM
_symmetry_space_group_name_H-M	'P1'
_cell_length_a	12.122900
_cell_length_b	12.609900
_cell_length_c	14.281900
_cell_angle_alpha	98.410000
_cell_angle_beta	90.000000
_cell_angle_gamma	90.000000
_symmetry_Int_Tables_number 1

loop_
_symmetry_equiv_pos_as_xyz
'x,y,z'

loop_
_atom_site_label
_atom_site_type_symbol
_atom_site_fract_x
_atom_site_fract_y
_atom_site_fract_z
Cd11	Cd1	0.953660	0.465250	0.119540
Cd21	Cd2	0.453660	0.534750	0.380460
Cd31	Cd3	0.046340	0.534750	0.880460
Cd41	Cd4	0.546340	0.465250	0.619540
H11	H1	0.696800	0.517200	0.142300
H21	H2	0.567100	0.650400	0.150600
H31	H3	0.622800	0.826400	0.152500
H41	H4	0.934700	0.722900	0.134000
H51	H5	0.785400	0.061800	0.147000
H61	H6	0.702900	0.999100	0.203300
H71	H7	0.700000	0.982200	0.092400
H81	H8	0.100300	0.864600	0.089900
H91	H9	0.205700	0.931400	0.123700
H101	H10	0.163900	0.927000	0.019400
H111	H11	0.279800	0.096200	0.106700
H121	H12	0.342400	0.269100	0.104300
H131	H13	0.217800	0.406000	0.105900
H141	H14	0.971700	0.208300	0.111500
H151	H15	0.837900	0.227700	0.310900
H161	H16	0.722000	0.240300	0.265300
H171	H17	0.728100	0.285800	0.435000
H181	H18	0.796900	0.387200	0.420200
H191	H19	0.196800	0.482800	0.357700
H201	H20	0.067100	0.349600	0.349400
H211	H21	0.122800	0.173600	0.347500
H221	H22	0.434700	0.277100	0.366000
H231	H23	0.285400	0.938200	0.353000
H241	H24	0.202900	0.000900	0.296700
H251	H25	0.200000	0.017800	0.407600
H261	H26	0.600300	0.135400	0.410100
H271	H27	0.705700	0.068600	0.376300
H281	H28	0.663900	0.073000	0.480600
H291	H29	0.779800	0.903800	0.393300
H301	H30	0.842400	0.730900	0.395700
H311	H31	0.717800	0.594000	0.394100
H321	H32	0.471700	0.791700	0.388500
H331	H33	0.337900	0.772300	0.189100
H341	H34	0.222000	0.759700	0.234700
H351	H35	0.228100	0.714200	0.065000
H361	H36	0.296900	0.612800	0.079800
H371	H37	0.303200	0.482800	0.857700
H381	H38	0.432900	0.349600	0.849400
H391	H39	0.377200	0.173600	0.847500
H401	H40	0.065300	0.277100	0.866000
H411	H41	0.214600	0.938200	0.853000
H421	H42	0.297100	0.000900	0.796700
H431	H43	0.300000	0.017800	0.907600
H441	H44	0.899700	0.135400	0.910100
H451	H45	0.794300	0.068600	0.876300
H461	H46	0.836100	0.073000	0.980600
H471	H47	0.720200	0.903800	0.893300
H481	H48	0.657600	0.730900	0.895700
H491	H49	0.782200	0.594000	0.894100
H501	H50	0.028300	0.791700	0.888500
H511	H51	0.162100	0.772300	0.689100
H521	H52	0.278000	0.759700	0.734700
H531	H53	0.271900	0.714200	0.565000
H541	H54	0.203100	0.612800	0.579800
H551	H55	0.803200	0.517200	0.642300
H561	H56	0.932900	0.650400	0.650600
H571	H57	0.877200	0.826400	0.652500
H581	H58	0.565300	0.722900	0.634000
H591	H59	0.714600	0.061800	0.647000
H601	H60	0.797100	0.999100	0.703300
H611	H61	0.800000	0.982200	0.592400
H621	H62	0.399700	0.864600	0.589900
H631	H63	0.294300	0.931400	0.623700
H641	H64	0.336100	0.927000	0.519400
H651	H65	0.220200	0.096200	0.606700
H661	H66	0.157600	0.269100	0.604300
H671	H67	0.282200	0.406000	0.605900
H681	H68	0.528300	0.208300	0.611500
H691	H69	0.662100	0.227700	0.810900
H701	H70	0.778000	0.240300	0.765300
H711	H71	0.771900	0.285800	0.935000
H721	H72	0.703100	0.387200	0.920200
C11	C1	0.719790	0.587500	0.141930
C21	C2	0.641650	0.667010	0.147580
C31	C3	0.674790	0.771710	0.148690
C41	C4	0.786510	0.794810	0.144010
C51	C5	0.859630	0.708750	0.137450
C61	C6	0.828750	0.905890	0.144520
C71	C7	0.746900	0.995300	0.147000
C81	C8	0.071180	0.024780	0.113860
C91	C9	0.141600	0.928290	0.084100
C101	C10	0.117310	0.133530	0.111030
C111	C11	0.229980	0.152450	0.107720
C121	C12	0.267190	0.255020	0.106020
C131	C13	0.191810	0.336750	0.106950
C141	C14	0.047330	0.220450	0.110710
C151	C15	0.832620	0.351960	0.234150
C161	C16	0.782760	0.279600	0.298330
C171	C17	0.740630	0.337750	0.392320
C181	C18	0.635440	0.399080	0.383120
C191	C19	0.219790	0.412500	0.358070
C201	C20	0.141650	0.332990	0.352420
C211	C21	0.174790	0.228290	0.351310
C221	C22	0.286510	0.205190	0.355990
C231	C23	0.359630	0.291250	0.362550
C241	C24	0.328750	0.094110	0.355480
C251	C25	0.246900	0.004700	0.353000
C261	C26	0.571180	0.975220	0.386140
C271	C27	0.641600	0.071710	0.415900
C281	C28	0.617310	0.866470	0.388970
C291	C29	0.729980	0.847550	0.392280
C301	C30	0.767190	0.744980	0.393980
C311	C31	0.691810	0.663250	0.393050
C321	C32	0.547330	0.779550	0.389290
C331	C33	0.332620	0.648040	0.265850
C341	C34	0.282760	0.720400	0.201670
C351	C35	0.240630	0.662250	0.107680
C361	C36	0.135440	0.600920	0.116880
C371	C37	0.280210	0.412500	0.858070
C381	C38	0.358350	0.332990	0.852420
C391	C39	0.325210	0.228290	0.851310
C401	C40	0.213490	0.205190	0.855990
C411	C41	0.140370	0.291250	0.862550
C421	C42	0.171250	0.094110	0.855480
C431	C43	0.253100	0.004700	0.853000
C441	C44	0.928820	0.975220	0.886140
C451	C45	0.858400	0.071710	0.915900
C461	C46	0.882690	0.866470	0.888970
C471	C47	0.770020	0.847550	0.892280
C481	C48	0.732810	0.744980	0.893980
C491	C49	0.808190	0.663250	0.893050
C501	C50	0.952670	0.779550	0.889290
C511	C51	0.167380	0.648040	0.765850
C521	C52	0.217240	0.720400	0.701670
C531	C53	0.259370	0.662250	0.607680
C541	C54	0.364560	0.600920	0.616880
C551	C55	0.780210	0.587500	0.641930
C561	C56	0.858350	0.667010	0.647580
C571	C57	0.825210	0.771710	0.648690
C581	C58	0.713490	0.794810	0.644010
C591	C59	0.640370	0.708750	0.637450
C601	C60	0.671250	0.905890	0.644520
C611	C61	0.753100	0.995300	0.647000
C621	C62	0.428820	0.024780	0.613860
C631	C63	0.358400	0.928290	0.584100
C641	C64	0.382690	0.133530	0.611030
C651	C65	0.270020	0.152450	0.607720
C661	C66	0.232810	0.255020	0.606020
C671	C67	0.308190	0.336750	0.606950
C681	C68	0.452670	0.220450	0.610710
C691	C69	0.667380	0.351960	0.734150
C701	C70	0.717240	0.279600	0.798330
C711	C71	0.759370	0.337750	0.892320
C721	C72	0.864560	0.399080	0.883120
N11	N1	0.828050	0.607330	0.135900
N21	N2	0.932460	0.915580	0.140460
N31	N3	0.970680	0.020970	0.140170
N41	N4	0.082320	0.320890	0.109250
N51	N5	0.328050	0.392670	0.364100
N61	N6	0.432460	0.084420	0.359540
N71	N7	0.470680	0.979030	0.359830
N81	N8	0.582320	0.679110	0.390750
N91	N9	0.171950	0.392670	0.864100
N101	N10	0.067540	0.084420	0.859540
N111	N11	0.029320	0.979030	0.859830
N121	N12	0.917680	0.679110	0.890750
N131	N13	0.671950	0.607330	0.635900
N141	N14	0.567540	0.915580	0.640460
N151	N15	0.529320	0.020970	0.640170
N161	N16	0.417680	0.320890	0.609250
O11	O1	0.896400	0.425850	0.268970
O21	O2	0.814840	0.333320	0.146580
O31	O3	0.602040	0.416570	0.304490
O41	O4	0.583040	0.435520	0.457450
O51	O5	0.396400	0.574150	0.231030
O61	O6	0.314840	0.666680	0.353420
O71	O7	0.102040	0.583430	0.195510
O81	O8	0.083040	0.564480	0.042550
O91	O9	0.103600	0.574150	0.731030
O101	O10	0.185160	0.666680	0.853420
O111	O11	0.397960	0.583430	0.695510
O121	O12	0.416960	0.564480	0.542550
O131	O13	0.603600	0.425850	0.768970
O141	O14	0.685160	0.333320	0.646580
O151	O15	0.897960	0.416570	0.804490
O161	O16	0.916960	0.435520	0.957450
