data_WOBHEB_freeONLY_PM
_symmetry_space_group_name_H-M	'P1'
_cell_length_a	6.669390
_cell_length_b	15.322800
_cell_length_c	15.322800
_cell_angle_alpha	62.067900
_cell_angle_beta	81.657700
_cell_angle_gamma	98.342300
_symmetry_Int_Tables_number 1

loop_
_symmetry_equiv_pos_as_xyz
'x,y,z'

loop_
_atom_site_label
_atom_site_type_symbol
_atom_site_fract_x
_atom_site_fract_y
_atom_site_fract_z
Zn11	Zn1	0.383380	0.426340	0.311000
Zn21	Zn2	0.694380	0.311000	0.262660
Zn31	Zn3	0.957040	0.262660	0.426340
Zn41	Zn4	0.616620	0.573660	0.689000
Zn51	Zn5	0.305620	0.689000	0.737340
Zn61	Zn6	0.042960	0.737340	0.573660
H11	H1	0.682900	0.549900	0.469200
H21	H2	0.315800	0.604600	0.254200
H31	H3	0.204000	0.572000	0.209000
H41	H4	0.152100	0.469200	0.980900
H51	H5	0.570000	0.254200	0.141200
H61	H6	0.413000	0.209000	0.219000
H71	H7	0.133000	0.980900	0.549900
H81	H8	0.711200	0.141200	0.604600
H91	H9	0.632000	0.219000	0.572000
H101	H10	0.317100	0.450100	0.530800
H111	H11	0.684200	0.395400	0.745800
H121	H12	0.796000	0.428000	0.791000
H131	H13	0.847900	0.530800	0.019100
H141	H14	0.430000	0.745800	0.858800
H151	H15	0.587000	0.791000	0.781000
H161	H16	0.867000	0.019100	0.450100
H171	H17	0.288800	0.858800	0.395400
H181	H18	0.368000	0.781000	0.428000
C11	C1	0.755910	0.438470	0.386240
C21	C2	0.885390	0.466110	0.446340
C31	C3	0.820190	0.530180	0.480710
C41	C4	0.071090	0.434370	0.467700
C51	C5	0.142150	0.386240	0.175290
C61	C6	0.331730	0.446340	0.087550
C71	C7	0.300900	0.480710	0.989110
C81	C8	0.538790	0.467700	0.097930
C91	C9	0.317440	0.175290	0.438470
C101	C10	0.419280	0.087550	0.466110
C111	C11	0.290010	0.989110	0.530180
C121	C12	0.636720	0.097930	0.434370
C131	C13	0.244090	0.561530	0.613760
C141	C14	0.114610	0.533890	0.553660
C151	C15	0.179810	0.469820	0.519290
C161	C16	0.928910	0.565630	0.532300
C171	C17	0.857850	0.613760	0.824710
C181	C18	0.668270	0.553660	0.912450
C191	C19	0.699100	0.519290	0.010890
C201	C20	0.461210	0.532300	0.902070
C211	C21	0.682560	0.824710	0.561530
C221	C22	0.580720	0.912450	0.533890
C231	C23	0.709990	0.010890	0.469820
C241	C24	0.363280	0.902070	0.565630
O11	O1	0.603560	0.477530	0.366350
O21	O2	0.804900	0.378840	0.356340
O31	O3	0.147640	0.370090	0.440170
O41	O4	0.312920	0.569220	0.228660
O51	O5	0.969910	0.366350	0.156120
O61	O6	0.161240	0.356340	0.264820
O71	O7	0.587810	0.440170	0.189740
O81	O8	0.541580	0.228660	0.202120
O91	O9	0.126030	0.156120	0.477530
O101	O10	0.426060	0.264820	0.378840
O111	O11	0.777550	0.189740	0.370090
O121	O12	0.743700	0.202120	0.569220
O131	O13	0.396440	0.522470	0.633650
O141	O14	0.195100	0.621160	0.643660
O151	O15	0.852360	0.629910	0.559830
O161	O16	0.687080	0.430780	0.771340
O171	O17	0.030090	0.633650	0.843880
O181	O18	0.838760	0.643660	0.735180
O191	O19	0.412190	0.559830	0.810260
O201	O20	0.458420	0.771340	0.797880
O211	O21	0.873970	0.843880	0.522470
O221	O22	0.573940	0.735180	0.621160
O231	O23	0.222450	0.810260	0.629910
O241	O24	0.256300	0.797880	0.430780
