data_WOBHOL_freeONLY_PM
_symmetry_space_group_name_H-M	'P1'
_cell_length_a	6.864170
_cell_length_b	15.138300
_cell_length_c	15.138300
_cell_angle_alpha	62.242300
_cell_angle_beta	81.306800
_cell_angle_gamma	98.693200
_symmetry_Int_Tables_number 1

loop_
_symmetry_equiv_pos_as_xyz
'x,y,z'

loop_
_atom_site_label
_atom_site_type_symbol
_atom_site_fract_x
_atom_site_fract_y
_atom_site_fract_z
Zn11	Zn1	0.611470	0.328270	0.409000
Zn21	Zn2	0.020470	0.409000	0.262730
Zn31	Zn3	0.283200	0.262730	0.328270
Zn41	Zn4	0.388530	0.671730	0.591000
Zn51	Zn5	0.979530	0.591000	0.737270
Zn61	Zn6	0.716800	0.737270	0.671730
H11	H1	0.305280	0.474470	0.554660
H21	H2	0.859940	0.554660	0.970870
H31	H3	0.830810	0.970870	0.474470
H41	H4	0.694720	0.525530	0.445340
H51	H5	0.140060	0.445340	0.029130
H61	H6	0.169190	0.029130	0.525530
C11	C1	0.240660	0.395370	0.434850
C21	C2	0.113310	0.442320	0.471720
C31	C3	0.931960	0.457390	0.439750
C41	C4	0.179230	0.483810	0.534330
C51	C5	0.675510	0.434850	0.169780
C61	C6	0.585030	0.471720	0.085960
C71	C7	0.371710	0.439750	0.102860
C81	C8	0.713560	0.534330	0.981860
C91	C9	0.845290	0.169780	0.395370
C101	C10	0.670990	0.085960	0.442320
C111	C11	0.474570	0.102860	0.457390
C121	C12	0.695420	0.981860	0.483810
C131	C13	0.759340	0.604630	0.565150
C141	C14	0.886690	0.557680	0.528280
C151	C15	0.068040	0.542610	0.560250
C161	C16	0.820770	0.516190	0.465670
C171	C17	0.324490	0.565150	0.830220
C181	C18	0.414970	0.528280	0.914040
C191	C19	0.628290	0.560250	0.897140
C201	C20	0.286440	0.465670	0.018140
C211	C21	0.154710	0.830220	0.604630
C221	C22	0.329010	0.914040	0.557680
C231	C23	0.525430	0.897140	0.542610
C241	C24	0.304580	0.018140	0.516190
O11	O1	0.395300	0.376270	0.469420
O21	O2	0.179120	0.354250	0.384670
O31	O3	0.887860	0.433020	0.365580
O41	O4	0.864720	0.469420	0.154310
O51	O5	0.563790	0.384670	0.261080
O61	O6	0.253440	0.365580	0.201400
O71	O7	0.019030	0.154310	0.376270
O81	O8	0.824870	0.261080	0.354250
O91	O9	0.454840	0.201400	0.433020
O101	O10	0.604700	0.623730	0.530580
O111	O11	0.820880	0.645750	0.615330
O121	O12	0.112140	0.566980	0.634420
O131	O13	0.135280	0.530580	0.845690
O141	O14	0.436210	0.615330	0.738920
O151	O15	0.746560	0.634420	0.798600
O161	O16	0.980970	0.845690	0.623730
O171	O17	0.175130	0.738920	0.645750
O181	O18	0.545160	0.798600	0.566980
