data_WOGHEG_freeONLY_PM
_symmetry_space_group_name_H-M	'P1'
_cell_length_a	7.927300
_cell_length_b	10.556000
_cell_length_c	13.155000
_cell_angle_alpha	107.260000
_cell_angle_beta	107.060000
_cell_angle_gamma	90.650000
_symmetry_Int_Tables_number 1

loop_
_symmetry_equiv_pos_as_xyz
'x,y,z'

loop_
_atom_site_label
_atom_site_type_symbol
_atom_site_fract_x
_atom_site_fract_y
_atom_site_fract_z
Zn11	Zn1	0.273830	0.954630	0.701830
Zn21	Zn2	0.614270	0.129230	0.822060
H11	H1	0.550200	0.158600	0.140600
H21	H2	0.566000	0.151800	0.322600
H31	H3	0.238100	0.841500	0.176100
H41	H4	0.219600	0.849400	0.005800
H51	H5	0.306700	0.932800	0.381900
H61	H6	0.579700	0.140400	0.460900
H71	H7	0.240300	0.452100	0.802800
H81	H8	0.918100	0.285900	0.728800
H91	H9	0.125200	0.627300	0.811500
H101	H10	0.950600	0.807600	0.818300
H111	H11	0.507000	0.575600	0.690200
H121	H12	0.664900	0.396200	0.697200
H131	H13	0.712800	0.395300	0.996300
H141	H14	0.964300	0.530000	0.124700
H151	H15	0.268400	0.246400	0.026200
H161	H16	0.017000	0.111600	0.897900
H171	H17	0.620600	0.821400	0.507300
H181	H18	0.872300	0.944900	0.645100
H191	H19	0.178900	0.701400	0.499300
H201	H20	0.927200	0.578000	0.361500
C11	C1	0.393000	0.017000	0.943600
C21	C2	0.391000	0.006000	0.046800
C31	C3	0.482000	0.088000	0.143300
C41	C4	0.492000	0.087000	0.260200
C51	C5	0.392000	0.989000	0.274500
C61	C6	0.307000	0.913200	0.176200
C71	C7	0.296000	0.914900	0.066700
C81	C8	0.388000	0.991000	0.375000
C91	C9	0.502000	0.079000	0.467300
C101	C10	0.501000	0.076000	0.589500
C111	C11	0.279000	0.249400	0.779500
C121	C12	0.175000	0.369200	0.780000
C131	C13	0.988000	0.366000	0.748900
C141	C14	0.909000	0.485000	0.748600
C151	C15	0.002000	0.613200	0.787000
C161	C16	0.891000	0.722000	0.785000
C171	C17	0.715000	0.714100	0.741300
C181	C18	0.620000	0.832000	0.747200
C191	C19	0.630300	0.588400	0.712700
C201	C20	0.728000	0.479200	0.717200
C211	C21	0.824200	0.365400	0.002300
C221	C22	0.974800	0.446100	0.079200
C231	C23	0.141300	0.401500	0.088200
C241	C24	0.157100	0.276200	0.020200
C251	C25	0.006400	0.195500	0.943400
C261	C26	0.304800	0.482700	0.171600
C271	C27	0.611100	0.631600	0.330700
C281	C28	0.749000	0.687400	0.420700
C291	C29	0.732500	0.797400	0.505700
C301	C30	0.883300	0.871300	0.588300
C311	C31	0.067000	0.725500	0.500900
C321	C32	0.916200	0.651500	0.418300
N11	N1	0.840000	0.240100	0.934400
N21	N2	0.467300	0.431200	0.181500
N31	N3	0.620500	0.505600	0.261100
N41	N4	0.448600	0.683100	0.320700
N51	N5	0.295400	0.608700	0.241100
N61	N6	0.050600	0.835400	0.585900
O11	O1	0.524000	0.081200	0.940100
O21	O2	0.260000	0.950100	0.852600
O31	O3	0.619000	0.137600	0.667700
O41	O4	0.373000	0.994000	0.584100
O51	O5	0.442000	0.273400	0.818500
O61	O6	0.177200	0.135600	0.736000
O71	O7	0.701000	0.946100	0.793300
O81	O8	0.449800	0.817600	0.704700
