data_WOHBIF_freeONLY_PM
_symmetry_space_group_name_H-M	'P1'
_cell_length_a	9.107500
_cell_length_b	12.506000
_cell_length_c	12.506000
_cell_angle_alpha	113.532000
_cell_angle_beta	101.397000
_cell_angle_gamma	78.603100
_symmetry_Int_Tables_number 1

loop_
_symmetry_equiv_pos_as_xyz
'x,y,z'

loop_
_atom_site_label
_atom_site_type_symbol
_atom_site_fract_x
_atom_site_fract_y
_atom_site_fract_z
Cu11	Cu1	0.683990	0.773710	0.173710
Cu21	Cu2	0.829270	0.760340	0.371280
Cu31	Cu3	0.316010	0.173710	0.773710
Cu41	Cu4	0.170730	0.371280	0.760340
H11	H1	0.440800	0.940100	0.085100
H21	H2	0.264900	0.942800	0.928400
H31	H3	0.399500	0.601700	0.765500
H41	H4	0.580400	0.610000	0.924400
H51	H5	0.944400	0.933000	0.614800
H61	H6	0.122600	0.944600	0.775800
H71	H7	0.234800	0.593000	0.628600
H81	H8	0.053200	0.593100	0.470700
H91	H9	0.481200	0.537900	0.328500
H101	H10	0.300800	0.602000	0.141400
H111	H11	0.269100	0.501200	0.179000
H121	H12	0.509400	0.393700	0.124500
H131	H13	0.531200	0.492200	0.079800
H141	H14	0.374700	0.722200	0.457800
H151	H15	0.270500	0.746500	0.348700
H161	H16	0.244200	0.642400	0.383600
H171	H17	0.166900	0.858700	0.202500
H181	H18	0.239100	0.034200	0.353000
H191	H19	0.204100	0.945000	0.404400
H201	H20	0.961500	0.059700	0.441100
H211	H21	0.006100	0.151600	0.397400
H221	H22	0.125000	0.028500	0.160300
H231	H23	0.005700	0.940000	0.081000
H241	H24	0.956100	0.054100	0.191100
H251	H25	0.559200	0.085100	0.940100
H261	H26	0.735100	0.928400	0.942800
H271	H27	0.600500	0.765500	0.601700
H281	H28	0.419600	0.924400	0.610000
H291	H29	0.055600	0.614800	0.933000
H301	H30	0.877400	0.775800	0.944600
H311	H31	0.765200	0.628600	0.593000
H321	H32	0.946800	0.470700	0.593100
H331	H33	0.518800	0.328500	0.537900
H341	H34	0.699200	0.141400	0.602000
H351	H35	0.730900	0.179000	0.501200
H361	H36	0.490600	0.124500	0.393700
H371	H37	0.468800	0.079800	0.492200
H381	H38	0.625300	0.457800	0.722200
H391	H39	0.729500	0.348700	0.746500
H401	H40	0.755800	0.383600	0.642400
H411	H41	0.833100	0.202500	0.858700
H421	H42	0.760900	0.353000	0.034200
H431	H43	0.795900	0.404400	0.945000
H441	H44	0.038500	0.441100	0.059700
H451	H45	0.993900	0.397400	0.151600
H461	H46	0.875000	0.160300	0.028500
H471	H47	0.994300	0.081000	0.940000
H481	H48	0.043900	0.191100	0.054100
C11	C1	0.434600	0.869300	0.017700
C21	C2	0.327600	0.871400	0.925000
C31	C3	0.310700	0.772500	0.828500
C41	C4	0.406900	0.674200	0.830600
C51	C5	0.514200	0.679500	0.926300
C61	C6	0.003400	0.862300	0.617900
C71	C7	0.109400	0.870100	0.715100
C81	C8	0.196500	0.769400	0.723800
C91	C9	0.175200	0.664500	0.628900
C101	C10	0.066400	0.665400	0.534800
C111	C11	0.554400	0.669100	0.297100
C121	C12	0.432100	0.600200	0.296800
C131	C13	0.349600	0.540900	0.173500
C141	C14	0.455100	0.451400	0.089600
C151	C15	0.373200	0.387000	0.971200
C161	C16	0.320300	0.685500	0.379100
C171	C17	0.959200	0.864100	0.245300
C181	C18	0.086300	0.923200	0.238800
C191	C19	0.157400	0.997700	0.361700
C201	C20	0.047200	0.095090	0.436710
C211	C21	0.119100	0.161900	0.561500
C221	C22	0.039200	0.992460	0.161140
C231	C23	0.565400	0.017700	0.869300
C241	C24	0.672400	0.925000	0.871400
C251	C25	0.689300	0.828500	0.772500
C261	C26	0.593100	0.830600	0.674200
C271	C27	0.485800	0.926300	0.679500
C281	C28	0.996600	0.617900	0.862300
C291	C29	0.890600	0.715100	0.870100
C301	C30	0.803500	0.723800	0.769400
C311	C31	0.824800	0.628900	0.664500
C321	C32	0.933600	0.534800	0.665400
C331	C33	0.445600	0.297100	0.669100
C341	C34	0.567900	0.296800	0.600200
C351	C35	0.650400	0.173500	0.540900
C361	C36	0.544900	0.089600	0.451400
C371	C37	0.626800	0.971200	0.387000
C381	C38	0.679700	0.379100	0.685500
C391	C39	0.040800	0.245300	0.864100
C401	C40	0.913700	0.238800	0.923200
C411	C41	0.842600	0.361700	0.997700
C421	C42	0.952800	0.436710	0.095090
C431	C43	0.880900	0.561500	0.161900
C441	C44	0.960800	0.161140	0.992460
N11	N1	0.529700	0.776400	0.020200
N21	N2	0.978400	0.763300	0.529100
N31	N3	0.470300	0.020200	0.776400
N41	N4	0.021600	0.529100	0.763300
O11	O1	0.534100	0.711010	0.218990
O21	O2	0.668200	0.676540	0.375260
O31	O3	0.393800	0.274540	0.934060
O41	O4	0.291300	0.444060	0.913740
O51	O5	0.856400	0.837760	0.158240
O61	O6	0.968200	0.840830	0.335370
O71	O7	0.215000	0.102690	0.610910
O81	O8	0.076000	0.269610	0.605590
O91	O9	0.465900	0.218990	0.711010
O101	O10	0.331800	0.375260	0.676540
O111	O11	0.606200	0.934060	0.274540
O121	O12	0.708700	0.913740	0.444060
O131	O13	0.143600	0.158240	0.837760
O141	O14	0.031800	0.335370	0.840830
O151	O15	0.785000	0.610910	0.102690
O161	O16	0.924000	0.605590	0.269610
