data_WOHSIV_freeONLY_PM
_symmetry_space_group_name_H-M	'P1'
_cell_length_a	8.975000
_cell_length_b	19.243000
_cell_length_c	21.130000
_cell_angle_alpha	90.000000
_cell_angle_beta	90.000000
_cell_angle_gamma	90.000000
_symmetry_Int_Tables_number 1

loop_
_symmetry_equiv_pos_as_xyz
'x,y,z'

loop_
_atom_site_label
_atom_site_type_symbol
_atom_site_fract_x
_atom_site_fract_y
_atom_site_fract_z
Na11	Na1	0.136000	0.004900	0.664600
Na21	Na2	0.364000	0.995100	0.164600
Na31	Na3	0.864000	0.504900	0.835400
Na41	Na4	0.636000	0.495100	0.335400
Cu11	Cu1	0.008400	0.079900	0.410190
Cu21	Cu2	0.703700	0.174600	0.362500
Cu31	Cu3	0.491600	0.920100	0.910190
Cu41	Cu4	0.796300	0.825400	0.862500
Cu51	Cu5	0.991600	0.579900	0.089810
Cu61	Cu6	0.296300	0.674600	0.137500
Cu71	Cu7	0.508400	0.420100	0.589810
Cu81	Cu8	0.203700	0.325400	0.637500
H11	H1	0.847960	0.169230	0.460590
H21	H2	0.850970	0.953440	0.562450
H31	H3	0.648090	0.978970	0.634420
H41	H4	0.627290	0.093390	0.671770
H51	H5	0.748200	0.184490	0.626030
H61	H6	0.934730	0.164180	0.551680
H71	H7	0.340510	0.892880	0.480830
H81	H8	0.443710	0.874000	0.380100
H91	H9	0.345750	0.930580	0.290920
H101	H10	0.965030	0.091910	0.197820
H111	H11	0.839000	0.179210	0.139860
H121	H12	0.842000	0.292710	0.180220
H131	H13	0.940140	0.316260	0.280010
H141	H14	0.034990	0.227320	0.341090
H151	H15	0.379400	0.147070	0.178360
H161	H16	0.311330	0.267110	0.175010
H171	H17	0.442690	0.349300	0.242110
H181	H18	0.781230	0.987730	0.250690
H191	H19	0.889150	0.879590	0.285970
H201	H20	0.884640	0.845740	0.391960
H211	H21	0.762430	0.918010	0.465550
H221	H22	0.659660	0.026080	0.432310
H231	H23	0.661270	0.243630	0.502840
H241	H24	0.762440	0.298670	0.594290
H251	H25	0.939790	0.382960	0.586880
H261	H26	0.003860	0.423370	0.484790
H271	H27	0.898010	0.377240	0.390990
H281	H28	0.652040	0.830770	0.960590
H291	H29	0.649030	0.046560	0.062450
H301	H30	0.851910	0.021030	0.134420
H311	H31	0.872710	0.906610	0.171770
H321	H32	0.751800	0.815510	0.126030
H331	H33	0.565270	0.835820	0.051680
H341	H34	0.159490	0.107120	0.980830
H351	H35	0.056290	0.126000	0.880100
H361	H36	0.154250	0.069420	0.790920
H371	H37	0.534970	0.908090	0.697820
H381	H38	0.661000	0.820790	0.639860
H391	H39	0.658000	0.707290	0.680220
H401	H40	0.559860	0.683740	0.780010
H411	H41	0.465010	0.772680	0.841090
H421	H42	0.120600	0.852930	0.678360
H431	H43	0.188670	0.732890	0.675010
H441	H44	0.057310	0.650700	0.742110
H451	H45	0.718770	0.012270	0.750690
H461	H46	0.610850	0.120410	0.785970
H471	H47	0.615360	0.154260	0.891960
H481	H48	0.737570	0.081990	0.965550
H491	H49	0.840340	0.973920	0.932310
H501	H50	0.838730	0.756370	0.002840
H511	H51	0.737560	0.701330	0.094290
H521	H52	0.560210	0.617040	0.086880
H531	H53	0.496140	0.576630	0.984790
H541	H54	0.601990	0.622760	0.890990
H551	H55	0.152040	0.669230	0.039410
H561	H56	0.149030	0.453440	0.937550
H571	H57	0.351910	0.478970	0.865580
H581	H58	0.372710	0.593390	0.828230
H591	H59	0.251800	0.684490	0.873970
H601	H60	0.065270	0.664180	0.948320
H611	H61	0.659490	0.392880	0.019170
H621	H62	0.556290	0.374000	0.119900
H631	H63	0.654250	0.430580	0.209080
H641	H64	0.034970	0.591910	0.302180
H651	H65	0.161000	0.679210	0.360140
H661	H66	0.158000	0.792710	0.319780
H671	H67	0.059860	0.816260	0.219990
H681	H68	0.965010	0.727320	0.158910
H691	H69	0.620600	0.647070	0.321640
H701	H70	0.688670	0.767110	0.324990
H711	H71	0.557310	0.849300	0.257890
H721	H72	0.218770	0.487730	0.249310
H731	H73	0.110850	0.379590	0.214030
H741	H74	0.115360	0.345740	0.108040
H751	H75	0.237570	0.418010	0.034450
H761	H76	0.340340	0.526080	0.067690
H771	H77	0.338730	0.743630	0.997160
H781	H78	0.237560	0.798670	0.905710
H791	H79	0.060210	0.882960	0.913120
H801	H80	0.996140	0.923370	0.015210
H811	H81	0.101990	0.877240	0.109010
H821	H82	0.347960	0.330770	0.539410
H831	H83	0.350970	0.546560	0.437550
H841	H84	0.148090	0.521030	0.365580
H851	H85	0.127290	0.406610	0.328230
H861	H86	0.248200	0.315510	0.373970
H871	H87	0.434730	0.335820	0.448320
H881	H88	0.840510	0.607120	0.519170
H891	H89	0.943710	0.626000	0.619900
H901	H90	0.845750	0.569420	0.709080
H911	H91	0.465030	0.408090	0.802180
H921	H92	0.339000	0.320790	0.860140
H931	H93	0.342000	0.207290	0.819780
H941	H94	0.440140	0.183740	0.719990
H951	H95	0.534990	0.272680	0.658910
H961	H96	0.879400	0.352930	0.821640
H971	H97	0.811330	0.232890	0.824990
H981	H98	0.942690	0.150700	0.757890
H991	H99	0.281230	0.512270	0.749310
H1001	H100	0.389150	0.620410	0.714030
H1011	H101	0.384640	0.654260	0.608040
H1021	H102	0.262430	0.581990	0.534450
H1031	H103	0.159660	0.473920	0.567690
H1041	H104	0.161270	0.256370	0.497160
H1051	H105	0.262440	0.201330	0.405710
H1061	H106	0.439790	0.117040	0.413120
H1071	H107	0.503860	0.076630	0.515210
H1081	H108	0.398010	0.122760	0.609010
C11	C1	0.907000	0.055000	0.547300
C21	C2	0.826000	0.000000	0.575000
C31	C3	0.719000	0.015000	0.619000
C41	C4	0.693000	0.084000	0.637000
C51	C5	0.774000	0.135000	0.612000
C61	C6	0.878000	0.123000	0.568500
C71	C7	0.121000	0.993900	0.509500
C81	C8	0.199000	0.974600	0.451300
C91	C9	0.308000	0.921000	0.444900
C101	C10	0.366000	0.912000	0.386000
C111	C11	0.315000	0.945000	0.334200
C121	C12	0.208000	0.996400	0.341500
C131	C13	0.147000	0.045500	0.292900
C141	C14	0.003000	0.147500	0.276400
C151	C15	0.944000	0.136000	0.218000
C161	C16	0.884000	0.188000	0.183000
C171	C17	0.882000	0.255000	0.206000
C181	C18	0.940000	0.268000	0.265000
C191	C19	0.997000	0.215700	0.299800
C201	C20	0.707000	0.015100	0.340100
C211	C21	0.781000	0.973200	0.297700
C221	C22	0.841000	0.912000	0.317000
C231	C23	0.835000	0.889900	0.380000
C241	C24	0.767000	0.932000	0.421600
C251	C25	0.708000	0.994000	0.402000
C261	C26	0.570000	0.085000	0.270200
C271	C27	0.511000	0.159800	0.257100
C281	C28	0.418000	0.181000	0.212000
C291	C29	0.387000	0.250000	0.206000
C301	C30	0.456000	0.299500	0.247000
C311	C31	0.551000	0.274400	0.289700
C321	C32	0.632000	0.315400	0.340200
C331	C33	0.759000	0.307300	0.439400
C341	C34	0.726000	0.282700	0.497400
C351	C35	0.789000	0.313000	0.551800
C361	C36	0.893000	0.365000	0.548000
C371	C37	0.928000	0.388000	0.487000
C381	C38	0.866000	0.361000	0.433000
C391	C39	0.593000	0.945000	0.047300
C401	C40	0.674000	0.000000	0.075000
C411	C41	0.781000	0.985000	0.119000
C421	C42	0.807000	0.916000	0.137000
C431	C43	0.726000	0.865000	0.112000
C441	C44	0.622000	0.877000	0.068500
C451	C45	0.379000	0.006100	0.009500
C461	C46	0.301000	0.025400	0.951300
C471	C47	0.192000	0.079000	0.944900
C481	C48	0.134000	0.088000	0.886000
C491	C49	0.185000	0.055000	0.834200
C501	C50	0.292000	0.003600	0.841500
C511	C51	0.353000	0.954500	0.792900
C521	C52	0.497000	0.852500	0.776400
C531	C53	0.556000	0.864000	0.718000
C541	C54	0.616000	0.812000	0.683000
C551	C55	0.618000	0.745000	0.706000
C561	C56	0.560000	0.732000	0.765000
C571	C57	0.503000	0.784300	0.799800
C581	C58	0.793000	0.984900	0.840100
C591	C59	0.719000	0.026800	0.797700
C601	C60	0.659000	0.088000	0.817000
C611	C61	0.665000	0.110100	0.880000
C621	C62	0.733000	0.068000	0.921600
C631	C63	0.792000	0.006000	0.902000
C641	C64	0.930000	0.915000	0.770200
C651	C65	0.989000	0.840200	0.757100
C661	C66	0.082000	0.819000	0.712000
C671	C67	0.113000	0.750000	0.706000
C681	C68	0.044000	0.700500	0.747000
C691	C69	0.949000	0.725600	0.789700
C701	C70	0.868000	0.684600	0.840200
C711	C71	0.741000	0.692700	0.939400
C721	C72	0.774000	0.717300	0.997400
C731	C73	0.711000	0.687000	0.051800
C741	C74	0.607000	0.635000	0.048000
C751	C75	0.572000	0.612000	0.987000
C761	C76	0.634000	0.639000	0.933000
C771	C77	0.093000	0.555000	0.952700
C781	C78	0.174000	0.500000	0.925000
C791	C79	0.281000	0.515000	0.881000
C801	C80	0.307000	0.584000	0.863000
C811	C81	0.226000	0.635000	0.888000
C821	C82	0.122000	0.623000	0.931500
C831	C83	0.879000	0.493900	0.990500
C841	C84	0.801000	0.474600	0.048700
C851	C85	0.692000	0.421000	0.055100
C861	C86	0.634000	0.412000	0.114000
C871	C87	0.685000	0.445000	0.165800
C881	C88	0.792000	0.496400	0.158500
C891	C89	0.853000	0.545500	0.207100
C901	C90	0.997000	0.647500	0.223600
C911	C91	0.056000	0.636000	0.282000
C921	C92	0.116000	0.688000	0.317000
C931	C93	0.118000	0.755000	0.294000
C941	C94	0.060000	0.768000	0.235000
C951	C95	0.003000	0.715700	0.200200
C961	C96	0.293000	0.515100	0.159900
C971	C97	0.219000	0.473200	0.202300
C981	C98	0.159000	0.412000	0.183000
C991	C99	0.165000	0.389900	0.120000
C1001	C100	0.233000	0.432000	0.078400
C1011	C101	0.292000	0.494000	0.098000
C1021	C102	0.430000	0.585000	0.229800
C1031	C103	0.489000	0.659800	0.242900
C1041	C104	0.582000	0.681000	0.288000
C1051	C105	0.613000	0.750000	0.294000
C1061	C106	0.544000	0.799500	0.253000
C1071	C107	0.449000	0.774400	0.210300
C1081	C108	0.368000	0.815400	0.159800
C1091	C109	0.241000	0.807300	0.060600
C1101	C110	0.274000	0.782700	0.002600
C1111	C111	0.211000	0.813000	0.948200
C1121	C112	0.107000	0.865000	0.952000
C1131	C113	0.072000	0.888000	0.013000
C1141	C114	0.134000	0.861000	0.067000
C1151	C115	0.407000	0.445000	0.452700
C1161	C116	0.326000	0.500000	0.425000
C1171	C117	0.219000	0.485000	0.381000
C1181	C118	0.193000	0.416000	0.363000
C1191	C119	0.274000	0.365000	0.388000
C1201	C120	0.378000	0.377000	0.431500
C1211	C121	0.621000	0.506100	0.490500
C1221	C122	0.699000	0.525400	0.548700
C1231	C123	0.808000	0.579000	0.555100
C1241	C124	0.866000	0.588000	0.614000
C1251	C125	0.815000	0.555000	0.665800
C1261	C126	0.708000	0.503600	0.658500
C1271	C127	0.647000	0.454500	0.707100
C1281	C128	0.503000	0.352500	0.723600
C1291	C129	0.444000	0.364000	0.782000
C1301	C130	0.384000	0.312000	0.817000
C1311	C131	0.382000	0.245000	0.794000
C1321	C132	0.440000	0.232000	0.735000
C1331	C133	0.497000	0.284300	0.700200
C1341	C134	0.207000	0.484900	0.659900
C1351	C135	0.281000	0.526800	0.702300
C1361	C136	0.341000	0.588000	0.683000
C1371	C137	0.335000	0.610100	0.620000
C1381	C138	0.267000	0.568000	0.578400
C1391	C139	0.208000	0.506000	0.598000
C1401	C140	0.070000	0.415000	0.729800
C1411	C141	0.011000	0.340200	0.742900
C1421	C142	0.918000	0.319000	0.788000
C1431	C143	0.887000	0.250000	0.794000
C1441	C144	0.956000	0.200500	0.753000
C1451	C145	0.051000	0.225600	0.710300
C1461	C146	0.132000	0.184600	0.659800
C1471	C147	0.259000	0.192700	0.560600
C1481	C148	0.226000	0.217300	0.502600
C1491	C149	0.289000	0.187000	0.448200
C1501	C150	0.393000	0.135000	0.452000
C1511	C151	0.428000	0.112000	0.513000
C1521	C152	0.366000	0.139000	0.567000
N11	N1	0.018000	0.042000	0.499300
N21	N2	0.153000	0.008200	0.399400
N31	N3	0.062000	0.095900	0.318200
N41	N4	0.646000	0.081700	0.322600
N51	N5	0.575000	0.207100	0.295800
N61	N6	0.685000	0.275200	0.385900
N71	N7	0.482000	0.958000	0.999300
N81	N8	0.347000	0.991800	0.899400
N91	N9	0.438000	0.904100	0.818200
N101	N10	0.854000	0.918300	0.822600
N111	N11	0.925000	0.792900	0.795800
N121	N12	0.815000	0.724800	0.885900
N131	N13	0.982000	0.542000	0.000700
N141	N14	0.847000	0.508200	0.100600
N151	N15	0.938000	0.595900	0.181800
N161	N16	0.354000	0.581700	0.177400
N171	N17	0.425000	0.707100	0.204200
N181	N18	0.315000	0.775200	0.114100
N191	N19	0.518000	0.458000	0.500700
N201	N20	0.653000	0.491800	0.600600
N211	N21	0.562000	0.404100	0.681800
N221	N22	0.146000	0.418300	0.677400
N231	N23	0.075000	0.292900	0.704200
N241	N24	0.185000	0.224800	0.614100
O11	O1	0.852000	0.145600	0.419300
O21	O2	0.157000	0.964900	0.560700
O31	O3	0.178000	0.037000	0.236200
O41	O4	0.532000	0.039700	0.233200
O51	O5	0.643000	0.379600	0.332200
O61	O6	0.648000	0.854400	0.919300
O71	O7	0.343000	0.035100	0.060700
O81	O8	0.322000	0.963000	0.736200
O91	O9	0.968000	0.960300	0.733200
O101	O10	0.857000	0.620400	0.832200
O111	O11	0.148000	0.645600	0.080700
O121	O12	0.843000	0.464900	0.939300
O131	O13	0.822000	0.537000	0.263800
O141	O14	0.468000	0.539700	0.266800
O151	O15	0.357000	0.879600	0.167800
O161	O16	0.352000	0.354400	0.580700
O171	O17	0.657000	0.535100	0.439300
O181	O18	0.678000	0.463000	0.763800
O191	O19	0.032000	0.460300	0.766800
O201	O20	0.143000	0.120400	0.667800
