data_WOLMUG_freeONLY_PM
_symmetry_space_group_name_H-M	'P1'
_cell_length_a	17.371400
_cell_length_b	19.310100
_cell_length_c	18.190300
_cell_angle_alpha	99.346000
_cell_angle_beta	90.000000
_cell_angle_gamma	90.000000
_symmetry_Int_Tables_number 1

loop_
_symmetry_equiv_pos_as_xyz
'x,y,z'

loop_
_atom_site_label
_atom_site_type_symbol
_atom_site_fract_x
_atom_site_fract_y
_atom_site_fract_z
Ag11	Ag1	0.864480	0.742710	0.744700
Ag21	Ag2	0.978940	0.610620	0.659120
Ag31	Ag3	0.928200	0.238640	0.240210
Ag41	Ag4	0.052950	0.106740	0.156440
Ag51	Ag5	0.364480	0.257290	0.755300
Ag61	Ag6	0.478940	0.389380	0.840880
Ag71	Ag7	0.428200	0.761360	0.259790
Ag81	Ag8	0.552950	0.893260	0.343560
Ag91	Ag9	0.135520	0.257290	0.255300
Ag101	Ag10	0.021060	0.389380	0.340880
Ag111	Ag11	0.071800	0.761360	0.759790
Ag121	Ag12	0.947050	0.893260	0.843560
Ag131	Ag13	0.635520	0.742710	0.244700
Ag141	Ag14	0.521060	0.610620	0.159120
Ag151	Ag15	0.571800	0.238640	0.740210
Ag161	Ag16	0.447050	0.106740	0.656440
H11	H1	0.814200	0.682400	0.887200
H21	H2	0.835000	0.589500	0.951100
H31	H3	0.980700	0.515900	0.788500
H41	H4	0.092000	0.166700	0.010900
H51	H5	0.059700	0.256000	0.944700
H61	H6	0.920600	0.331200	0.111600
H71	H7	0.034900	0.463700	0.870600
H81	H8	0.064100	0.367300	0.927300
H91	H9	0.858800	0.385600	0.028900
H101	H10	0.829800	0.478100	0.971900
H111	H11	0.042300	0.337000	0.491600
H121	H12	0.022400	0.243900	0.553400
H131	H13	0.919500	0.145900	0.368800
H141	H14	0.817600	0.796000	0.597800
H151	H15	0.836200	0.889400	0.532700
H161	H16	0.949400	0.984000	0.712300
H171	H17	0.039500	0.133700	0.575500
H181	H18	0.013700	0.037300	0.632900
H191	H19	0.822300	0.995900	0.506000
H201	H20	0.852100	0.091600	0.446500
H211	H21	0.954300	0.456500	0.680700
H221	H22	0.873800	0.366900	0.644700
H231	H23	0.845300	0.427500	0.450600
H241	H24	0.664400	0.007300	0.300300
H251	H25	0.718100	0.109900	0.339600
H261	H26	0.629600	0.112300	0.542400
H271	H27	0.813300	0.319100	0.408600
H281	H28	0.747500	0.215700	0.368400
H291	H29	0.707700	0.196400	0.580500
H301	H30	0.776700	0.296500	0.621400
H311	H31	0.314200	0.317600	0.612800
H321	H32	0.335000	0.410500	0.548900
H331	H33	0.480700	0.484100	0.711500
H341	H34	0.592000	0.833300	0.489100
H351	H35	0.559700	0.744000	0.555300
H361	H36	0.420600	0.668800	0.388400
H371	H37	0.534900	0.536300	0.629400
H381	H38	0.564100	0.632700	0.572700
H391	H39	0.358800	0.614400	0.471100
H401	H40	0.329800	0.521900	0.528100
H411	H41	0.542300	0.663000	0.008400
H421	H42	0.522400	0.756100	0.946600
H431	H43	0.419500	0.854100	0.131200
H441	H44	0.317600	0.204000	0.902200
H451	H45	0.336200	0.110600	0.967300
H461	H46	0.449400	0.016000	0.787700
H471	H47	0.539500	0.866300	0.924500
H481	H48	0.513700	0.962700	0.867100
H491	H49	0.322300	0.004100	0.994000
H501	H50	0.352100	0.908400	0.053500
H511	H51	0.454300	0.543500	0.819300
H521	H52	0.373800	0.633100	0.855300
H531	H53	0.345300	0.572500	0.049400
H541	H54	0.164400	0.992700	0.199700
H551	H55	0.218100	0.890100	0.160400
H561	H56	0.129600	0.887700	0.957600
H571	H57	0.313300	0.680900	0.091400
H581	H58	0.247500	0.784300	0.131600
H591	H59	0.207700	0.803600	0.919500
H601	H60	0.276700	0.703500	0.878600
H611	H61	0.185800	0.317600	0.112800
H621	H62	0.165000	0.410500	0.048900
H631	H63	0.019300	0.484100	0.211500
H641	H64	0.908000	0.833300	0.989100
H651	H65	0.940300	0.744000	0.055300
H661	H66	0.079400	0.668800	0.888400
H671	H67	0.965100	0.536300	0.129400
H681	H68	0.935900	0.632700	0.072700
H691	H69	0.141200	0.614400	0.971100
H701	H70	0.170200	0.521900	0.028100
H711	H71	0.957700	0.663000	0.508400
H721	H72	0.977600	0.756100	0.446600
H731	H73	0.080500	0.854100	0.631200
H741	H74	0.182400	0.204000	0.402200
H751	H75	0.163800	0.110600	0.467300
H761	H76	0.050600	0.016000	0.287700
H771	H77	0.960500	0.866300	0.424500
H781	H78	0.986300	0.962700	0.367100
H791	H79	0.177700	0.004100	0.494000
H801	H80	0.147900	0.908400	0.553500
H811	H81	0.045700	0.543500	0.319300
H821	H82	0.126200	0.633100	0.355300
H831	H83	0.154700	0.572500	0.549400
H841	H84	0.335600	0.992700	0.699700
H851	H85	0.281900	0.890100	0.660400
H861	H86	0.370400	0.887700	0.457600
H871	H87	0.186700	0.680900	0.591400
H881	H88	0.252500	0.784300	0.631600
H891	H89	0.292300	0.803600	0.419500
H901	H90	0.223300	0.703500	0.378600
H911	H91	0.685800	0.682400	0.387200
H921	H92	0.665000	0.589500	0.451100
H931	H93	0.519300	0.515900	0.288500
H941	H94	0.408000	0.166700	0.510900
H951	H95	0.440300	0.256000	0.444700
H961	H96	0.579400	0.331200	0.611600
H971	H97	0.465100	0.463700	0.370600
H981	H98	0.435900	0.367300	0.427300
H991	H99	0.641200	0.385600	0.528900
H1001	H100	0.670200	0.478100	0.471900
H1011	H101	0.457700	0.337000	0.991600
H1021	H102	0.477600	0.243900	0.053400
H1031	H103	0.580500	0.145900	0.868800
H1041	H104	0.682400	0.796000	0.097800
H1051	H105	0.663800	0.889400	0.032700
H1061	H106	0.550600	0.984000	0.212300
H1071	H107	0.460500	0.133700	0.075500
H1081	H108	0.486300	0.037300	0.132900
H1091	H109	0.677700	0.995900	0.006000
H1101	H110	0.647900	0.091600	0.946500
H1111	H111	0.545700	0.456500	0.180700
H1121	H112	0.626200	0.366900	0.144700
H1131	H113	0.654700	0.427500	0.950600
H1141	H114	0.835600	0.007300	0.800300
H1151	H115	0.781900	0.109900	0.839600
H1161	H116	0.870400	0.112300	0.042400
H1171	H117	0.686700	0.319100	0.908600
H1181	H118	0.752500	0.215700	0.868400
H1191	H119	0.792300	0.196400	0.080500
H1201	H120	0.723300	0.296500	0.121400
C11	C1	0.849500	0.647500	0.867100
C21	C2	0.860800	0.591400	0.906100
C31	C3	0.910100	0.540000	0.876600
C41	C4	0.945300	0.549800	0.810500
C51	C5	0.055400	0.200500	0.030700
C61	C6	0.036900	0.254500	0.991300
C71	C7	0.985500	0.305200	0.020600
C81	C8	0.955100	0.296800	0.088800
C91	C9	0.927700	0.479700	0.912300
C101	C10	0.998300	0.447100	0.901700
C111	C11	0.016200	0.389700	0.936400
C121	C12	0.965300	0.365800	0.983300
C131	C13	0.894600	0.400700	0.996100
C141	C14	0.877500	0.455400	0.961900
C151	C15	0.017900	0.296600	0.466300
C161	C16	0.004800	0.241900	0.504200
C171	C17	0.965400	0.184100	0.469000
C181	C18	0.944700	0.185300	0.395300
C191	C19	0.846400	0.834900	0.620400
C201	C20	0.856500	0.891200	0.580900
C211	C21	0.896000	0.947800	0.614100
C221	C22	0.922800	0.945000	0.686700
C231	C23	0.948600	0.122600	0.507000
C241	C24	0.995700	0.106100	0.561600
C251	C25	0.979800	0.049300	0.596800
C261	C26	0.912600	0.009500	0.578200
C271	C27	0.865600	0.024000	0.520700
C281	C28	0.883600	0.081100	0.485200
C291	C29	0.925700	0.454300	0.636500
C301	C30	0.881200	0.399400	0.612100
C311	C31	0.844600	0.385300	0.543400
C321	C32	0.862100	0.434000	0.500300
C331	C33	0.654900	0.030400	0.349000
C341	C34	0.687600	0.089600	0.373100
C351	C35	0.680300	0.125900	0.446700
C361	C36	0.635100	0.092700	0.491900
C371	C37	0.801200	0.319400	0.518500
C381	C38	0.792200	0.294000	0.444000
C391	C39	0.752600	0.232200	0.419800
C401	C40	0.720200	0.194200	0.471200
C411	C41	0.729800	0.220700	0.545000
C421	C42	0.770100	0.281100	0.570000
C431	C43	0.349500	0.352500	0.632900
C441	C44	0.360800	0.408600	0.593900
C451	C45	0.410100	0.460000	0.623400
C461	C46	0.445300	0.450200	0.689500
C471	C47	0.555400	0.799500	0.469300
C481	C48	0.536900	0.745500	0.508700
C491	C49	0.485500	0.694800	0.479400
C501	C50	0.455100	0.703200	0.411200
C511	C51	0.427700	0.520300	0.587700
C521	C52	0.498300	0.552900	0.598300
C531	C53	0.516200	0.610300	0.563600
C541	C54	0.465300	0.634200	0.516700
C551	C55	0.394600	0.599300	0.503900
C561	C56	0.377500	0.544600	0.538100
C571	C57	0.517900	0.703400	0.033700
C581	C58	0.504800	0.758100	0.995800
C591	C59	0.465400	0.815900	0.031000
C601	C60	0.444700	0.814700	0.104700
C611	C61	0.346400	0.165100	0.879600
C621	C62	0.356500	0.108800	0.919100
C631	C63	0.396000	0.052200	0.885900
C641	C64	0.422800	0.055000	0.813300
C651	C65	0.448600	0.877400	0.993000
C661	C66	0.495700	0.893900	0.938400
C671	C67	0.479800	0.950700	0.903200
C681	C68	0.412600	0.990500	0.921800
C691	C69	0.365600	0.976000	0.979300
C701	C70	0.383600	0.918900	0.014800
C711	C71	0.425700	0.545700	0.863500
C721	C72	0.381200	0.600600	0.887900
C731	C73	0.344600	0.614700	0.956600
C741	C74	0.362100	0.566000	0.999700
C751	C75	0.154900	0.969600	0.151000
C761	C76	0.187600	0.910400	0.126900
C771	C77	0.180300	0.874100	0.053300
C781	C78	0.135100	0.907300	0.008100
C791	C79	0.301200	0.680600	0.981500
C801	C80	0.292200	0.706000	0.056000
C811	C81	0.252600	0.767800	0.080200
C821	C82	0.220200	0.805800	0.028800
C831	C83	0.229800	0.779300	0.955000
C841	C84	0.270100	0.718900	0.930000
C851	C85	0.150500	0.352500	0.132900
C861	C86	0.139200	0.408600	0.093900
C871	C87	0.089900	0.460000	0.123400
C881	C88	0.054700	0.450200	0.189500
C891	C89	0.944600	0.799500	0.969300
C901	C90	0.963100	0.745500	0.008700
C911	C91	0.014500	0.694800	0.979400
C921	C92	0.044900	0.703200	0.911200
C931	C93	0.072300	0.520300	0.087700
C941	C94	0.001700	0.552900	0.098300
C951	C95	0.983800	0.610300	0.063600
C961	C96	0.034700	0.634200	0.016700
C971	C97	0.105400	0.599300	0.003900
C981	C98	0.122500	0.544600	0.038100
C991	C99	0.982100	0.703400	0.533700
C1001	C100	0.995200	0.758100	0.495800
C1011	C101	0.034600	0.815900	0.531000
C1021	C102	0.055300	0.814700	0.604700
C1031	C103	0.153600	0.165100	0.379600
C1041	C104	0.143500	0.108800	0.419100
C1051	C105	0.104000	0.052200	0.385900
C1061	C106	0.077200	0.055000	0.313300
C1071	C107	0.051400	0.877400	0.493000
C1081	C108	0.004300	0.893900	0.438400
C1091	C109	0.020200	0.950700	0.403200
C1101	C110	0.087400	0.990500	0.421800
C1111	C111	0.134400	0.976000	0.479300
C1121	C112	0.116400	0.918900	0.514800
C1131	C113	0.074300	0.545700	0.363500
C1141	C114	0.118800	0.600600	0.387900
C1151	C115	0.155400	0.614700	0.456600
C1161	C116	0.137900	0.566000	0.499700
C1171	C117	0.345100	0.969600	0.651000
C1181	C118	0.312400	0.910400	0.626900
C1191	C119	0.319700	0.874100	0.553300
C1201	C120	0.364900	0.907300	0.508100
C1211	C121	0.198800	0.680600	0.481500
C1221	C122	0.207800	0.706000	0.556000
C1231	C123	0.247400	0.767800	0.580200
C1241	C124	0.279800	0.805800	0.528800
C1251	C125	0.270200	0.779300	0.455000
C1261	C126	0.229900	0.718900	0.430000
C1271	C127	0.650500	0.647500	0.367100
C1281	C128	0.639200	0.591400	0.406100
C1291	C129	0.589900	0.540000	0.376600
C1301	C130	0.554700	0.549800	0.310500
C1311	C131	0.444600	0.200500	0.530700
C1321	C132	0.463100	0.254500	0.491300
C1331	C133	0.514500	0.305200	0.520600
C1341	C134	0.544900	0.296800	0.588800
C1351	C135	0.572300	0.479700	0.412300
C1361	C136	0.501700	0.447100	0.401700
C1371	C137	0.483800	0.389700	0.436400
C1381	C138	0.534700	0.365800	0.483300
C1391	C139	0.605400	0.400700	0.496100
C1401	C140	0.622500	0.455400	0.461900
C1411	C141	0.482100	0.296600	0.966300
C1421	C142	0.495200	0.241900	0.004200
C1431	C143	0.534600	0.184100	0.969000
C1441	C144	0.555300	0.185300	0.895300
C1451	C145	0.653600	0.834900	0.120400
C1461	C146	0.643500	0.891200	0.080900
C1471	C147	0.604000	0.947800	0.114100
C1481	C148	0.577200	0.945000	0.186700
C1491	C149	0.551400	0.122600	0.007000
C1501	C150	0.504300	0.106100	0.061600
C1511	C151	0.520200	0.049300	0.096800
C1521	C152	0.587400	0.009500	0.078200
C1531	C153	0.634400	0.024000	0.020700
C1541	C154	0.616400	0.081100	0.985200
C1551	C155	0.574300	0.454300	0.136500
C1561	C156	0.618800	0.399400	0.112100
C1571	C157	0.655400	0.385300	0.043400
C1581	C158	0.637900	0.434000	0.000300
C1591	C159	0.845100	0.030400	0.849000
C1601	C160	0.812400	0.089600	0.873100
C1611	C161	0.819700	0.125900	0.946700
C1621	C162	0.864900	0.092700	0.991900
C1631	C163	0.698800	0.319400	0.018500
C1641	C164	0.707800	0.294000	0.944000
C1651	C165	0.747400	0.232200	0.919800
C1661	C166	0.779800	0.194200	0.971200
C1671	C167	0.770200	0.220700	0.045000
C1681	C168	0.729900	0.281100	0.070000
N11	N1	0.883200	0.655100	0.806500
N21	N2	0.931000	0.605600	0.776400
N31	N3	0.022400	0.195700	0.095900
N41	N4	0.970900	0.244200	0.124300
N51	N5	0.997900	0.295500	0.395600
N61	N6	0.958800	0.239000	0.360700
N71	N7	0.874500	0.833900	0.685700
N81	N8	0.912200	0.889900	0.720500
N91	N9	0.928600	0.504500	0.597800
N101	N10	0.905200	0.494500	0.528800
N111	N11	0.607000	0.001600	0.394000
N121	N12	0.597300	0.030800	0.464600
N131	N13	0.383200	0.344900	0.693500
N141	N14	0.431000	0.394400	0.723600
N151	N15	0.522400	0.804300	0.404100
N161	N16	0.470900	0.755800	0.375700
N171	N17	0.497900	0.704500	0.104400
N181	N18	0.458800	0.761000	0.139300
N191	N19	0.374500	0.166100	0.814300
N201	N20	0.412200	0.110100	0.779500
N211	N21	0.428600	0.495500	0.902200
N221	N22	0.405200	0.505500	0.971200
N231	N23	0.107000	0.998400	0.106000
N241	N24	0.097300	0.969200	0.035400
N251	N25	0.116800	0.344900	0.193500
N261	N26	0.069000	0.394400	0.223600
N271	N27	0.977600	0.804300	0.904100
N281	N28	0.029100	0.755800	0.875700
N291	N29	0.002100	0.704500	0.604400
N301	N30	0.041200	0.761000	0.639300
N311	N31	0.125500	0.166100	0.314300
N321	N32	0.087800	0.110100	0.279500
N331	N33	0.071400	0.495500	0.402200
N341	N34	0.094800	0.505500	0.471200
N351	N35	0.393000	0.998400	0.606000
N361	N36	0.402700	0.969200	0.535400
N371	N37	0.616800	0.655100	0.306500
N381	N38	0.569000	0.605600	0.276400
N391	N39	0.477600	0.195700	0.595900
N401	N40	0.529100	0.244200	0.624300
N411	N41	0.502100	0.295500	0.895600
N421	N42	0.541200	0.239000	0.860700
N431	N43	0.625500	0.833900	0.185700
N441	N44	0.587800	0.889900	0.220500
N451	N45	0.571400	0.504500	0.097800
N461	N46	0.594800	0.494500	0.028800
N471	N47	0.893000	0.001600	0.894000
N481	N48	0.902700	0.030800	0.964600
