data_WOLRIZ_freeONLY_PM
_symmetry_space_group_name_H-M	'P1'
_cell_length_a	15.500600
_cell_length_b	15.500600
_cell_length_c	18.336800
_cell_angle_alpha	115.003000
_cell_angle_beta	115.003000
_cell_angle_gamma	90.000000
_symmetry_Int_Tables_number 1

loop_
_symmetry_equiv_pos_as_xyz
'x,y,z'

loop_
_atom_site_label
_atom_site_type_symbol
_atom_site_fract_x
_atom_site_fract_y
_atom_site_fract_z
Cu11	Cu1	0.884180	0.884180	0.000000
Cu21	Cu2	0.115820	0.115820	0.000000
Cu31	Cu3	0.884180	0.115820	0.000000
Cu41	Cu4	0.115820	0.884180	0.000000
Cu51	Cu5	0.883160	0.883160	0.189520
Cu61	Cu6	0.306360	0.306360	0.189520
Cu71	Cu7	0.883160	0.306360	0.189520
Cu81	Cu8	0.306360	0.883160	0.189520
Cu91	Cu9	0.693640	0.116840	0.810480
Cu101	Cu10	0.116840	0.693640	0.810480
Cu111	Cu11	0.693640	0.693640	0.810480
Cu121	Cu12	0.116840	0.116840	0.810480
H11	H1	0.022900	0.837200	0.303000
H21	H2	0.082500	0.801000	0.421800
H31	H3	0.280100	0.465800	0.303000
H41	H4	0.339300	0.620800	0.421800
H51	H5	0.837200	0.280100	0.303000
H61	H6	0.801000	0.339300	0.421800
H71	H7	0.465800	0.022900	0.303000
H81	H8	0.620800	0.082500	0.421800
H91	H9	0.719900	0.162800	0.697000
H101	H10	0.660700	0.199000	0.578200
H111	H11	0.977100	0.534200	0.697000
H121	H12	0.917500	0.379200	0.578200
H131	H13	0.534200	0.719900	0.697000
H141	H14	0.379200	0.660700	0.578200
H151	H15	0.162800	0.977100	0.697000
H161	H16	0.199000	0.917500	0.578200
H171	H17	0.977100	0.162800	0.697000
H181	H18	0.917500	0.199000	0.578200
H191	H19	0.719900	0.534200	0.697000
H201	H20	0.660700	0.379200	0.578200
H211	H21	0.162800	0.719900	0.697000
H221	H22	0.199000	0.660700	0.578200
H231	H23	0.534200	0.977100	0.697000
H241	H24	0.379200	0.917500	0.578200
H251	H25	0.280100	0.837200	0.303000
H261	H26	0.339300	0.801000	0.421800
H271	H27	0.022900	0.465800	0.303000
H281	H28	0.082500	0.620800	0.421800
H291	H29	0.465800	0.280100	0.303000
H301	H30	0.620800	0.339300	0.421800
H311	H31	0.837200	0.022900	0.303000
H321	H32	0.801000	0.082500	0.421800
C11	C1	0.086630	0.828930	0.326060
C21	C2	0.122640	0.807040	0.397480
C31	C3	0.239430	0.497130	0.326060
C41	C4	0.274840	0.590440	0.397480
C51	C5	0.828930	0.239430	0.326060
C61	C6	0.807040	0.274840	0.397480
C71	C7	0.497130	0.086630	0.326060
C81	C8	0.590440	0.122640	0.397480
C91	C9	0.760570	0.171070	0.673940
C101	C10	0.725160	0.192960	0.602520
C111	C11	0.913370	0.502870	0.673940
C121	C12	0.877360	0.409560	0.602520
C131	C13	0.502870	0.760570	0.673940
C141	C14	0.409560	0.725160	0.602520
C151	C15	0.171070	0.913370	0.673940
C161	C16	0.192960	0.877360	0.602520
C171	C17	0.913370	0.171070	0.673940
C181	C18	0.877360	0.192960	0.602520
C191	C19	0.760570	0.502870	0.673940
C201	C20	0.725160	0.409560	0.602520
C211	C21	0.171070	0.760570	0.673940
C221	C22	0.192960	0.725160	0.602520
C231	C23	0.502870	0.913370	0.673940
C241	C24	0.409560	0.877360	0.602520
C251	C25	0.239430	0.828930	0.326060
C261	C26	0.274840	0.807040	0.397480
C271	C27	0.086630	0.497130	0.326060
C281	C28	0.122640	0.590440	0.397480
C291	C29	0.497130	0.239430	0.326060
C301	C30	0.590440	0.274840	0.397480
C311	C31	0.828930	0.086630	0.326060
C321	C32	0.807040	0.122640	0.397480
C331	C33	0.103920	0.854720	0.207840
C341	C34	0.144270	0.838770	0.288540
C351	C35	0.216860	0.793860	0.433720
C361	C36	0.103920	0.353120	0.207840
C371	C37	0.144270	0.449770	0.288540
C381	C38	0.216860	0.639860	0.433720
C391	C39	0.854720	0.103920	0.207840
C401	C40	0.838770	0.144270	0.288540
C411	C41	0.793860	0.216860	0.433720
C421	C42	0.353120	0.103920	0.207840
C431	C43	0.449770	0.144270	0.288540
C441	C44	0.639860	0.216860	0.433720
C451	C45	0.896080	0.145280	0.792160
C461	C46	0.855730	0.161230	0.711460
C471	C47	0.783140	0.206140	0.566280
C481	C48	0.896080	0.646880	0.792160
C491	C49	0.855730	0.550230	0.711460
C501	C50	0.783140	0.360140	0.566280
C511	C51	0.646880	0.896080	0.792160
C521	C52	0.550230	0.855730	0.711460
C531	C53	0.360140	0.783140	0.566280
C541	C54	0.145280	0.896080	0.792160
C551	C55	0.161230	0.855730	0.711460
C561	C56	0.206140	0.783140	0.566280
C571	C57	0.250000	0.750000	0.500000
C581	C58	0.750000	0.250000	0.500000
N11	N1	0.005130	0.871280	0.095680
N21	N2	0.011080	0.861080	0.166020
N31	N3	0.090550	0.224400	0.095680
N41	N4	0.154940	0.304940	0.166020
N51	N5	0.871280	0.090550	0.095680
N61	N6	0.861080	0.154940	0.166020
N71	N7	0.224400	0.005130	0.095680
N81	N8	0.304940	0.011080	0.166020
N91	N9	0.909450	0.128720	0.904320
N101	N10	0.845060	0.138920	0.833980
N111	N11	0.994870	0.775600	0.904320
N121	N12	0.988920	0.695060	0.833980
N131	N13	0.775600	0.909450	0.904320
N141	N14	0.695060	0.845060	0.833980
N151	N15	0.128720	0.994870	0.904320
N161	N16	0.138920	0.988920	0.833980
N171	N17	0.994870	0.128720	0.904320
N181	N18	0.988920	0.138920	0.833980
N191	N19	0.909450	0.775600	0.904320
N201	N20	0.845060	0.695060	0.833980
N211	N21	0.128720	0.909450	0.904320
N221	N22	0.138920	0.845060	0.833980
N231	N23	0.775600	0.994870	0.904320
N241	N24	0.695060	0.988920	0.833980
N251	N25	0.090550	0.871280	0.095680
N261	N26	0.154940	0.861080	0.166020
N271	N27	0.005130	0.224400	0.095680
N281	N28	0.011080	0.304940	0.166020
N291	N29	0.224400	0.090550	0.095680
N301	N30	0.304940	0.154940	0.166020
N311	N31	0.871280	0.005130	0.095680
N321	N32	0.861080	0.011080	0.166020
Cl11	Cl1	0.000000	0.000000	0.000000
O11	O1	0.786000	0.786000	0.000000
O21	O2	0.214000	0.214000	0.000000
O31	O3	0.786000	0.214000	0.000000
O41	O4	0.214000	0.786000	0.000000
O51	O5	0.973900	0.973900	0.309800
O61	O6	0.335900	0.335900	0.309800
O71	O7	0.973900	0.335900	0.309800
O81	O8	0.335900	0.973900	0.309800
O91	O9	0.664100	0.026100	0.690200
O101	O10	0.026100	0.664100	0.690200
O111	O11	0.664100	0.664100	0.690200
O121	O12	0.026100	0.026100	0.690200
