data_WORLAS_freeONLY_PM
_symmetry_space_group_name_H-M	'P1'
_cell_length_a	17.912800
_cell_length_b	20.000200
_cell_length_c	20.872500
_cell_angle_alpha	71.645000
_cell_angle_beta	70.305000
_cell_angle_gamma	68.981000
_symmetry_Int_Tables_number 1

loop_
_symmetry_equiv_pos_as_xyz
'x,y,z'

loop_
_atom_site_label
_atom_site_type_symbol
_atom_site_fract_x
_atom_site_fract_y
_atom_site_fract_z
Zn11	Zn1	0.866570	0.840520	0.881640
Zn21	Zn2	0.457550	0.274990	0.458680
Zn31	Zn3	0.719520	0.851650	0.022330
Zn41	Zn4	0.869050	0.711520	0.017070
Zn51	Zn5	0.891050	0.858600	0.023520
Zn61	Zn6	0.309820	0.420720	0.459330
Zn71	Zn7	0.276720	0.275880	0.453100
Zn81	Zn8	0.306330	0.292360	0.589390
H11	H1	0.739600	0.563100	0.158300
H21	H2	0.728200	0.445700	0.229700
H31	H3	0.719400	0.771700	0.735300
H41	H4	0.142800	0.388300	0.300100
H51	H5	0.599400	0.147100	0.313700
H61	H6	0.021700	0.527600	0.924400
H71	H7	0.444000	0.186200	0.735800
H81	H8	0.109100	0.671700	0.639700
H91	H9	0.127600	0.996000	0.641400
H101	H10	0.738500	0.687900	0.777200
H111	H11	0.639100	0.142900	0.571600
H121	H12	0.103600	0.446900	0.852900
H131	H13	0.987200	0.043500	0.919300
H141	H14	0.187900	0.421500	0.736900
H151	H15	0.729600	0.086900	0.232400
H161	H16	0.645800	0.378500	0.314500
H171	H17	0.622700	0.765500	0.932100
H181	H18	0.448300	0.554700	0.325800
H191	H19	0.738000	0.004600	0.767900
H201	H20	0.645000	0.738400	0.784600
H211	H21	0.819000	0.766100	0.809600
H221	H22	0.052000	0.132400	0.848300
H231	H23	0.533500	0.742900	0.157200
H241	H24	0.013500	0.577000	0.148500
H251	H25	0.619100	0.844100	0.879800
H261	H26	0.132700	0.181500	0.730900
H271	H27	0.070200	0.459000	0.217300
H281	H28	0.459200	0.670700	0.239500
H291	H29	0.723300	0.073900	0.643600
H301	H30	0.160100	0.684700	0.215500
H311	H31	0.198600	0.590700	0.570000
H321	H32	0.073800	0.754600	0.143600
H331	H33	0.795800	0.008300	0.157400
H341	H34	0.579300	0.966800	0.179800
H351	H35	0.041200	0.946600	0.760600
H361	H36	0.389700	0.106200	0.341100
H371	H37	0.198800	0.079400	0.571900
H381	H38	0.536600	0.033800	0.929700
H391	H39	0.033900	0.697700	0.756700
H401	H40	0.580100	0.789100	0.869100
H411	H41	0.215800	0.566500	0.290700
H421	H42	0.458300	0.121600	0.859100
H431	H43	0.453800	0.025500	0.265100
C11	C1	0.446900	0.098500	0.318500
C21	C2	0.022900	0.622300	0.846100
C31	C3	0.703800	0.705500	0.093900
C41	C4	0.769600	0.773200	0.845800
C51	C5	0.130100	0.032400	0.660100
C61	C6	0.098800	0.480000	0.233000
C71	C7	0.565400	0.037500	0.242100
C81	C8	0.193500	0.471900	0.299300
C91	C9	0.090800	0.091800	0.758500
C101	C10	0.011900	0.987400	0.845700
C111	C11	0.171300	0.472700	0.717500
C121	C12	0.173800	0.138600	0.645300
C131	C13	0.977300	0.719000	0.095800
C141	C14	0.608400	0.989500	0.193000
C151	C15	0.046300	0.983100	0.777600
C161	C16	0.645600	0.015500	0.855100
C171	C17	0.514100	0.097500	0.839400
C181	C18	0.051500	0.094700	0.830100
C191	C19	0.671300	0.468300	0.247800
C201	C20	0.171300	0.082200	0.619000
C211	C21	0.130400	0.661900	0.202900
C221	C22	0.693000	0.978000	0.166100
C231	C23	0.615200	0.072800	0.256800
C241	C24	0.242600	0.426400	0.354800
C251	C25	0.559300	0.692400	0.173100
C261	C26	0.101600	0.597900	0.732600
C271	C27	0.090100	0.034700	0.732300
C281	C28	0.549600	0.574600	0.250100
C291	C29	0.700000	0.958000	0.899500
C301	C30	0.561200	0.047600	0.881300
C311	C31	0.666000	0.094000	0.662600
C321	C32	0.043500	0.598100	0.162800
C331	C33	0.223400	0.190800	0.600600
C341	C34	0.446200	0.185900	0.379700
C351	C35	0.013300	0.042200	0.871700
C361	C36	0.699400	0.061600	0.223700
C371	C37	0.478700	0.215100	0.599000
C381	C38	0.500300	0.161200	0.718400
C391	C39	0.485400	0.049800	0.273400
C401	C40	0.570600	0.122300	0.302700
C411	C41	0.187400	0.544800	0.275400
C421	C42	0.139600	0.587400	0.228700
C431	C43	0.516500	0.649400	0.222100
C441	C44	0.143100	0.438000	0.279800
C451	C45	0.646600	0.660100	0.144400
C461	C46	0.631500	0.078600	0.737500
C471	C47	0.080000	0.703300	0.160100
C481	C48	0.617700	0.136000	0.620800
C491	C49	0.681800	0.584500	0.174000
C501	C50	0.738500	0.015500	0.179400
C511	C51	0.966400	0.674000	0.892700
C521	C52	0.090500	0.498100	0.832900
C531	C53	0.548100	0.114900	0.764300
C541	C54	0.177100	0.573100	0.618400
C551	C55	0.635600	0.542400	0.223400
C561	C56	0.504300	0.532400	0.304600
C571	C57	0.241400	0.444000	0.603000
C581	C58	0.489500	0.134100	0.330100
C591	C59	0.196200	0.497300	0.648100
C601	C60	0.622200	0.429500	0.298300
C611	C61	0.484300	0.416600	0.383600
C621	C62	0.050100	0.646500	0.776500
C631	C63	0.736700	0.927300	0.115300
C641	C64	0.681300	0.028300	0.785300
C651	C65	0.121300	0.521100	0.761900
C661	C66	0.132600	0.142800	0.713800
C671	C67	0.625100	0.792500	0.883600
C681	C68	0.538500	0.460400	0.327900
C691	C69	0.094900	0.554300	0.207500
C701	C70	0.534200	0.170400	0.649400
C711	C71	0.127100	0.621000	0.660400
C721	C72	0.042000	0.545600	0.875900
C731	C73	0.967300	0.932700	0.893300
C741	C74	0.037200	0.669800	0.140700
C751	C75	0.701800	0.737600	0.778800
N11	N1	0.705800	0.760100	0.837800
O11	O1	0.232800	0.231500	0.632600
O21	O2	0.257500	0.376400	0.631200
O31	O3	0.518300	0.345900	0.398400
O41	O4	0.367900	0.203300	0.397600
O51	O5	0.813700	0.917100	0.092000
O61	O6	0.892600	0.864900	0.771500
O71	O7	0.412500	0.448800	0.411400
O81	O8	0.958000	0.888300	0.864800
O91	O9	0.340500	0.315000	0.488400
O101	O10	0.957600	0.740800	0.865800
O111	O11	0.946100	0.929100	0.958600
O121	O12	0.771600	0.792900	0.893200
O131	O13	0.404700	0.241100	0.626300
O141	O14	0.257500	0.359100	0.366400
O151	O15	0.251400	0.192400	0.540300
O161	O16	0.971200	0.785600	0.072800
O171	O17	0.932700	0.646800	0.955600
O181	O18	0.490900	0.205300	0.401200
O191	O19	0.773600	0.941200	0.878100
O201	O20	0.837900	0.816500	0.986500
O211	O21	0.777300	0.673300	0.074400
O221	O22	0.513700	0.223300	0.534500
O231	O23	0.262900	0.471500	0.536800
O241	O24	0.656900	0.927500	0.961500
O251	O25	0.254000	0.466000	0.388400
O261	O26	0.690700	0.902500	0.099500
O271	O27	0.666500	0.774100	0.073200
O281	O28	0.940100	0.683500	0.081000
Zn91	Zn9	0.108950	0.141400	0.976480
Zn101	Zn10	0.280480	0.148350	0.977670
Zn111	Zn11	0.133430	0.159480	0.118360
Zn121	Zn12	0.690180	0.579280	0.540670
Zn131	Zn13	0.723280	0.724120	0.546900
Zn141	Zn14	0.130950	0.288480	0.982930
Zn151	Zn15	0.542450	0.725010	0.541320
Zn161	Zn16	0.693670	0.707640	0.410610
H441	H44	0.801200	0.920600	0.428100
H451	H45	0.926200	0.245400	0.856400
H461	H46	0.929800	0.541000	0.782700
H471	H47	0.896400	0.553100	0.147100
H481	H48	0.280600	0.228300	0.264700
H491	H49	0.857200	0.611700	0.699900
H501	H50	0.360900	0.857100	0.428400
H511	H51	0.204200	0.991700	0.842600
H521	H52	0.400600	0.852900	0.686300
H531	H53	0.986500	0.423000	0.851500
H541	H54	0.466500	0.257100	0.842800
H551	H55	0.610300	0.893800	0.658900
H561	H56	0.541700	0.878400	0.140900
H571	H57	0.354200	0.621500	0.685500
H581	H58	0.463400	0.966200	0.070300
H591	H59	0.978300	0.472400	0.075600
H601	H60	0.271800	0.554300	0.770300
H611	H61	0.546200	0.974500	0.734900
H621	H62	0.380900	0.155900	0.120200
H631	H63	0.181000	0.233900	0.190400
H641	H64	0.556000	0.813800	0.264200
H651	H65	0.377300	0.234500	0.067900
H661	H66	0.540800	0.329300	0.760500
H671	H67	0.867300	0.818500	0.269100
H681	H68	0.872400	0.004000	0.358600
H691	H69	0.890900	0.328300	0.360300
H701	H70	0.966100	0.302300	0.243300
H711	H71	0.551700	0.445300	0.674200
H721	H72	0.801400	0.409300	0.430000
H731	H73	0.420700	0.033200	0.820200
H741	H74	0.784200	0.433500	0.709300
H751	H75	0.270400	0.913100	0.767600
H761	H76	0.958800	0.053400	0.239400
H771	H77	0.839900	0.315300	0.784500
H781	H78	0.355000	0.261600	0.215400
H791	H79	0.276700	0.926100	0.356400
H801	H80	0.812100	0.578500	0.263100
H811	H81	0.260400	0.436900	0.841700
H821	H82	0.948000	0.867600	0.151700
H831	H83	0.419900	0.210900	0.130900
H841	H84	0.012800	0.956500	0.080700
H851	H85	0.261500	0.312100	0.222800
H861	H86	0.262000	0.995400	0.232100
C761	C76	0.438800	0.952400	0.118700
C771	C77	0.298200	0.262400	0.221200
C781	C78	0.828700	0.917800	0.381000
C791	C79	0.977100	0.377700	0.153900
C801	C80	0.757400	0.573600	0.645200
C811	C81	0.803800	0.502700	0.351900
C821	C82	0.296200	0.294500	0.906100
C831	C83	0.300000	0.042000	0.100500
C841	C84	0.364400	0.457600	0.776600
C851	C85	0.032700	0.067300	0.106700
C861	C86	0.776600	0.809200	0.399400
C871	C87	0.382300	0.864000	0.379200
C881	C88	0.374900	0.207500	0.116400
C891	C89	0.353400	0.339900	0.855600
C901	C90	0.450400	0.425400	0.749900
C911	C91	0.334000	0.906000	0.337400
C921	C92	0.869900	0.967600	0.339900
C931	C93	0.465800	0.829600	0.350600
C941	C94	0.758600	0.556000	0.397000
C951	C95	0.905100	0.445700	0.792500
C961	C96	0.949900	0.353500	0.223500
C971	C97	0.384800	0.927200	0.743200
C981	C98	0.878700	0.478900	0.238100
C991	C99	0.318700	0.971700	0.214700
C1001	C100	0.867400	0.857200	0.286200
C1011	C101	0.377800	0.570500	0.701700
C1021	C102	0.909500	0.501900	0.167100
C1031	C103	0.962800	0.330200	0.859300
C1041	C104	0.898400	0.402100	0.267400
C1051	C105	0.368500	0.921400	0.262500
C1061	C106	0.318200	0.415500	0.826000
C1071	C107	0.434600	0.962500	0.757900
C1081	C108	0.828700	0.527300	0.282500
C1091	C109	0.485900	0.902500	0.160600
C1101	C110	0.956500	0.401900	0.837200
C1111	C111	0.812600	0.455200	0.724600
C1121	C112	0.461500	0.539600	0.672100
C1131	C113	0.483500	0.350600	0.777900
C1141	C114	0.988100	0.012600	0.154300
C1151	C115	0.263300	0.072700	0.884700
C1161	C116	0.826200	0.861400	0.354700
C1171	C117	0.958000	0.454400	0.124100
C1181	C118	0.514600	0.950200	0.726600
C1191	C119	0.872900	0.379000	0.339600
C1201	C120	0.328700	0.531700	0.752200
C1211	C121	0.307000	0.022000	0.833900
C1221	C122	0.856900	0.562000	0.720200
C1231	C123	0.822900	0.426900	0.381600
C1241	C124	0.261500	0.984500	0.820600
C1251	C125	0.033600	0.326000	0.107300
C1261	C126	0.860400	0.412600	0.771300
C1271	C127	0.953700	0.016900	0.222400
C1281	C128	0.553100	0.901500	0.681500
C1291	C129	0.300600	0.938400	0.776300
C1301	C130	0.515700	0.583400	0.616400
C1311	C131	0.022700	0.281000	0.904200
C1321	C132	0.391600	0.010500	0.807000
C1331	C133	0.869600	0.338100	0.797100
C1341	C134	0.230400	0.226800	0.154200
C1351	C135	0.429400	0.877700	0.697300
C1361	C136	0.920000	0.296700	0.839900
C1371	C137	0.553800	0.814100	0.620300
C1381	C138	0.510500	0.865900	0.669900
C1391	C139	0.909900	0.965300	0.267700
C1401	C140	0.354400	0.984500	0.144900
C1411	C141	0.806500	0.528100	0.700700
C1421	C142	0.499700	0.838800	0.281600
C1431	C143	0.901200	0.520000	0.767000
C1441	C144	0.948500	0.905300	0.169900
C1451	C145	0.909200	0.908200	0.241500
C1461	C146	0.521300	0.784900	0.401000
C1471	C147	0.495700	0.467600	0.695400
C1481	C148	0.986700	0.957800	0.128300
C1491	C149	0.440700	0.307600	0.826900
C1501	C150	0.451900	0.885100	0.235700
N21	N2	0.294200	0.239900	0.162200
O291	O29	0.509100	0.794700	0.598800
O301	O30	0.481700	0.654100	0.601600
O311	O31	0.742500	0.623600	0.368800
O321	O32	0.186300	0.082900	0.908000
O331	O33	0.343100	0.072500	0.038500
O341	O34	0.028800	0.214400	0.927200
O351	O35	0.309300	0.097500	0.900500
O361	O36	0.067300	0.353200	0.044400
O371	O37	0.107400	0.135100	0.228500
O381	O38	0.659500	0.685000	0.511600
O391	O39	0.595300	0.758900	0.373700
O401	O40	0.746000	0.534000	0.611600
O411	O41	0.053900	0.070900	0.041400
O421	O42	0.228400	0.207100	0.106800
O431	O43	0.767200	0.768500	0.367400
O441	O44	0.486300	0.776700	0.465500
O451	O45	0.748600	0.807600	0.459700
O461	O46	0.632100	0.796700	0.602400
O471	O47	0.226400	0.058800	0.121900
O481	O48	0.042000	0.111700	0.135200
O491	O49	0.162100	0.183500	0.013500
O501	O50	0.587500	0.551200	0.588600
O511	O51	0.222700	0.326700	0.925600
O521	O52	0.737100	0.528500	0.463200
O531	O53	0.742500	0.640900	0.633600
O541	O54	0.042400	0.259200	0.134200
O551	O55	0.333500	0.225900	0.926800
O561	O56	0.059900	0.316500	0.919000
