data_WUDNAK_freeONLY_PM
_symmetry_space_group_name_H-M	'P1'
_cell_length_a	10.850000
_cell_length_b	11.534000
_cell_length_c	13.608000
_cell_angle_alpha	66.170000
_cell_angle_beta	81.400000
_cell_angle_gamma	63.150000
_symmetry_Int_Tables_number 1

loop_
_symmetry_equiv_pos_as_xyz
'x,y,z'

loop_
_atom_site_label
_atom_site_type_symbol
_atom_site_fract_x
_atom_site_fract_y
_atom_site_fract_z
Co11	Co1	0.442080	0.075150	0.791780
Co21	Co2	0.557920	0.924850	0.208220
Co31	Co3	0.000000	0.000000	0.000000
H11	H1	0.159900	0.310700	0.787200
H21	H2	0.968300	0.466100	0.674800
H31	H3	0.203100	0.404400	0.429800
H41	H4	0.385000	0.248600	0.549000
H51	H5	0.825000	0.330500	0.912700
H61	H6	0.822000	0.528300	0.913300
H71	H7	0.185000	0.292400	0.075400
H81	H8	0.179100	0.101200	0.069400
H91	H9	0.855800	0.083800	0.193500
H101	H10	0.873200	0.010400	0.375100
H111	H11	0.223500	0.678800	0.376200
H121	H12	0.196100	0.762900	0.193700
H131	H13	0.900600	0.780700	0.733200
H141	H14	0.867400	0.870200	0.550500
H151	H15	0.277100	0.678700	0.531400
H161	H16	0.293400	0.596600	0.715200
H171	H17	0.544000	0.663800	0.870100
H181	H18	0.383600	0.719100	0.872200
H191	H19	0.589300	0.615300	0.051400
H201	H20	0.434600	0.641500	0.071900
H211	H21	0.622000	0.079000	0.655000
H221	H22	0.612100	0.168000	0.699000
H231	H23	0.562400	0.876300	0.972000
H241	H24	0.840100	0.689300	0.212800
H251	H25	0.031700	0.533900	0.325200
H261	H26	0.796900	0.595600	0.570200
H271	H27	0.615000	0.751400	0.451000
H281	H28	0.175000	0.669500	0.087300
H291	H29	0.178000	0.471700	0.086700
H301	H30	0.815000	0.707600	0.924600
H311	H31	0.820900	0.898800	0.930600
H321	H32	0.144200	0.916200	0.806500
H331	H33	0.126800	0.989600	0.624900
H341	H34	0.776500	0.321200	0.623800
H351	H35	0.803900	0.237100	0.806300
H361	H36	0.099400	0.219300	0.266800
H371	H37	0.132600	0.129800	0.449500
H381	H38	0.722900	0.321300	0.468600
H391	H39	0.706600	0.403400	0.284800
H401	H40	0.456000	0.336200	0.129900
H411	H41	0.616400	0.280900	0.127800
H421	H42	0.410700	0.384700	0.948600
H431	H43	0.565400	0.358500	0.928100
H441	H44	0.378000	0.921000	0.345000
H451	H45	0.387900	0.832000	0.301000
H461	H46	0.437600	0.123700	0.028000
C11	C1	0.168300	0.327700	0.714300
C21	C2	0.052200	0.422300	0.646700
C31	C3	0.061200	0.451600	0.537700
C41	C4	0.190100	0.385600	0.502800
C51	C5	0.299400	0.292300	0.575100
C61	C6	0.898700	0.322200	0.946400
C71	C7	0.896000	0.442000	0.947000
C81	C8	0.001900	0.436200	0.997000
C91	C9	0.109300	0.303600	0.042000
C101	C10	0.105100	0.188300	0.037900
C111	C11	0.930700	0.000500	0.230700
C121	C12	0.941000	0.957400	0.340200
C131	C13	0.052300	0.835000	0.399200
C141	C14	0.147300	0.762200	0.341100
C151	C15	0.129200	0.813100	0.230900
C161	C16	0.978000	0.759700	0.691900
C171	C17	0.956400	0.813800	0.581500
C181	C18	0.069100	0.782700	0.518300
C191	C19	0.197500	0.701100	0.570300
C201	C20	0.205900	0.652900	0.681700
C211	C21	0.445600	0.842900	0.738700
C221	C22	0.457800	0.748000	0.858300
C231	C23	0.454000	0.805500	0.943100
C241	C24	0.497100	0.685700	0.054100
C251	C25	0.496000	0.735700	0.142800
C261	C26	0.307500	0.921600	0.943600
C271	C27	0.831700	0.672300	0.285700
C281	C28	0.947800	0.577700	0.353300
C291	C29	0.938800	0.548400	0.462300
C301	C30	0.809900	0.614400	0.497200
C311	C31	0.700600	0.707700	0.424900
C321	C32	0.101300	0.677800	0.053600
C331	C33	0.104000	0.558000	0.053000
C341	C34	0.998100	0.563800	0.003000
C351	C35	0.890700	0.696400	0.958000
C361	C36	0.894900	0.811700	0.962100
C371	C37	0.069300	0.999500	0.769300
C381	C38	0.059000	0.042600	0.659800
C391	C39	0.947700	0.165000	0.600800
C401	C40	0.852700	0.237800	0.658900
C411	C41	0.870800	0.186900	0.769100
C421	C42	0.022000	0.240300	0.308100
C431	C43	0.043600	0.186200	0.418500
C441	C44	0.930900	0.217300	0.481700
C451	C45	0.802500	0.298900	0.429700
C461	C46	0.794100	0.347100	0.318300
C471	C47	0.554400	0.157100	0.261300
C481	C48	0.542200	0.252000	0.141700
C491	C49	0.546000	0.194500	0.056900
C501	C50	0.502900	0.314300	0.945900
C511	C51	0.504000	0.264300	0.857200
C521	C52	0.692500	0.078400	0.056400
N11	N1	0.290200	0.260300	0.680900
N21	N2	0.002400	0.193200	0.992100
N31	N3	0.022000	0.929700	0.174600
N41	N4	0.100300	0.680300	0.743200
N51	N5	0.709800	0.739700	0.319100
N61	N6	0.997600	0.806800	0.007900
N71	N7	0.978000	0.070300	0.825400
N81	N8	0.899700	0.319700	0.256800
O11	O1	0.617900	0.090000	0.711500
O21	O2	0.438700	0.962800	0.708710
O31	O3	0.444500	0.789700	0.676000
O41	O4	0.550700	0.865600	0.913600
O51	O5	0.218600	0.883800	0.998210
O61	O6	0.286300	0.045500	0.888700
O71	O7	0.464300	0.677700	0.235000
O81	O8	0.529300	0.836700	0.113450
O91	O9	0.382100	0.910000	0.288500
O101	O10	0.561300	0.037200	0.291290
O111	O11	0.555500	0.210300	0.324000
O121	O12	0.449300	0.134400	0.086400
O131	O13	0.781400	0.116200	0.001790
O141	O14	0.713700	0.954500	0.111300
O151	O15	0.535700	0.322300	0.765000
O161	O16	0.470700	0.163300	0.886550
