data_WUTBUI_freeONLY_PM
_symmetry_space_group_name_H-M	'P1'
_cell_length_a	13.559000
_cell_length_b	13.559000
_cell_length_c	14.999000
_cell_angle_alpha	90.000000
_cell_angle_beta	90.000000
_cell_angle_gamma	120.000000
_symmetry_Int_Tables_number 1

loop_
_symmetry_equiv_pos_as_xyz
'x,y,z'

loop_
_atom_site_label
_atom_site_type_symbol
_atom_site_fract_x
_atom_site_fract_y
_atom_site_fract_z
La11	La1	0.333330	0.666660	0.830480
La21	La2	0.666670	0.333340	0.669520
La31	La3	0.666670	0.333340	0.169520
La41	La4	0.333330	0.666660	0.330480
Cu11	Cu1	0.500000	0.500000	0.000000
Cu21	Cu2	0.000000	0.500000	0.000000
Cu31	Cu3	0.500000	0.000000	0.000000
Cu41	Cu4	0.000000	0.500000	0.500000
Cu51	Cu5	0.500000	0.500000	0.500000
Cu61	Cu6	0.500000	0.000000	0.500000
H11	H1	0.673200	0.647500	0.076400
H21	H2	0.542500	0.728300	0.127900
H31	H3	0.601900	0.679200	0.188500
H41	H4	0.707300	0.744900	0.953000
H51	H5	0.681000	0.816800	0.020800
H61	H6	0.974300	0.326800	0.076400
H71	H7	0.185800	0.457500	0.127900
H81	H8	0.077300	0.398100	0.188500
H91	H9	0.037600	0.292700	0.953000
H101	H10	0.135800	0.319000	0.020800
H111	H11	0.352500	0.025700	0.076400
H121	H12	0.271700	0.814200	0.127900
H131	H13	0.320800	0.922700	0.188500
H141	H14	0.255100	0.962400	0.953000
H151	H15	0.183200	0.864200	0.020800
H161	H16	0.025700	0.352500	0.423600
H171	H17	0.814200	0.271700	0.372100
H181	H18	0.922700	0.320800	0.311500
H191	H19	0.962400	0.255100	0.547000
H201	H20	0.864200	0.183200	0.479200
H211	H21	0.647500	0.673200	0.423600
H221	H22	0.728300	0.542500	0.372100
H231	H23	0.679200	0.601900	0.311500
H241	H24	0.744900	0.707300	0.547000
H251	H25	0.816800	0.681000	0.479200
H261	H26	0.326800	0.974300	0.423600
H271	H27	0.457500	0.185800	0.372100
H281	H28	0.398100	0.077300	0.311500
H291	H29	0.292700	0.037600	0.547000
H301	H30	0.319000	0.135800	0.479200
H311	H31	0.326800	0.352500	0.923600
H321	H32	0.457500	0.271700	0.872100
H331	H33	0.398100	0.320800	0.811500
H341	H34	0.292700	0.255100	0.047000
H351	H35	0.319000	0.183200	0.979200
H361	H36	0.025700	0.673200	0.923600
H371	H37	0.814200	0.542500	0.872100
H381	H38	0.922700	0.601900	0.811500
H391	H39	0.962400	0.707300	0.047000
H401	H40	0.864200	0.681000	0.979200
H411	H41	0.647500	0.974300	0.923600
H421	H42	0.728300	0.185800	0.872100
H431	H43	0.679200	0.077300	0.811500
H441	H44	0.744900	0.037600	0.047000
H451	H45	0.816800	0.135800	0.979200
H461	H46	0.974300	0.647500	0.576400
H471	H47	0.185800	0.728300	0.627900
H481	H48	0.077300	0.679200	0.688500
H491	H49	0.037600	0.744900	0.453000
H501	H50	0.135800	0.816800	0.520800
H511	H51	0.352500	0.326800	0.576400
H521	H52	0.271700	0.457500	0.627900
H531	H53	0.320800	0.398100	0.688500
H541	H54	0.255100	0.292700	0.453000
H551	H55	0.183200	0.319000	0.520800
H561	H56	0.673200	0.025700	0.576400
H571	H57	0.542500	0.814200	0.627900
H581	H58	0.601900	0.922700	0.688500
H591	H59	0.707300	0.962400	0.453000
H601	H60	0.681000	0.864200	0.520800
C11	C1	0.553100	0.663400	0.136900
C21	C2	0.438600	0.559800	0.156400
C31	C3	0.549000	0.728200	0.932000
C41	C4	0.648500	0.744000	0.990400
C51	C5	0.110300	0.446900	0.136900
C61	C6	0.121200	0.561400	0.156400
C71	C7	0.179200	0.451000	0.932000
C81	C8	0.095500	0.351500	0.990400
C91	C9	0.336600	0.889700	0.136900
C101	C10	0.440200	0.878800	0.156400
C111	C11	0.271800	0.820800	0.932000
C121	C12	0.256000	0.904500	0.990400
C131	C13	0.889700	0.336600	0.363100
C141	C14	0.878800	0.440200	0.343600
C151	C15	0.820800	0.271800	0.568000
C161	C16	0.904500	0.256000	0.509600
C171	C17	0.663400	0.553100	0.363100
C181	C18	0.559800	0.438600	0.343600
C191	C19	0.728200	0.549000	0.568000
C201	C20	0.744000	0.648500	0.509600
C211	C21	0.446900	0.110300	0.363100
C221	C22	0.561400	0.121200	0.343600
C231	C23	0.451000	0.179200	0.568000
C241	C24	0.351500	0.095500	0.509600
C251	C25	0.446900	0.336600	0.863100
C261	C26	0.561400	0.440200	0.843600
C271	C27	0.451000	0.271800	0.068000
C281	C28	0.351500	0.256000	0.009600
C291	C29	0.889700	0.553100	0.863100
C301	C30	0.878800	0.438600	0.843600
C311	C31	0.820800	0.549000	0.068000
C321	C32	0.904500	0.648500	0.009600
C331	C33	0.663400	0.110300	0.863100
C341	C34	0.559800	0.121200	0.843600
C351	C35	0.728200	0.179200	0.068000
C361	C36	0.744000	0.095500	0.009600
C371	C37	0.110300	0.663400	0.636900
C381	C38	0.121200	0.559800	0.656400
C391	C39	0.179200	0.728200	0.432000
C401	C40	0.095500	0.744000	0.490400
C411	C41	0.336600	0.446900	0.636900
C421	C42	0.440200	0.561400	0.656400
C431	C43	0.271800	0.451000	0.432000
C441	C44	0.256000	0.351500	0.490400
C451	C45	0.553100	0.889700	0.636900
C461	C46	0.438600	0.878800	0.656400
C471	C47	0.549000	0.820800	0.432000
C481	C48	0.648500	0.904500	0.490400
N11	N1	0.611100	0.650900	0.057800
N21	N2	0.039800	0.388900	0.057800
N31	N3	0.349100	0.960200	0.057800
N41	N4	0.960200	0.349100	0.442200
N51	N5	0.650900	0.611100	0.442200
N61	N6	0.388900	0.039800	0.442200
N71	N7	0.388900	0.349100	0.942200
N81	N8	0.960200	0.611100	0.942200
N91	N9	0.650900	0.039800	0.942200
N101	N10	0.039800	0.650900	0.557800
N111	N11	0.349100	0.388900	0.557800
N121	N12	0.611100	0.960200	0.557800
O11	O1	0.453400	0.636300	0.943200
O21	O2	0.562200	0.801200	0.876800
O31	O3	0.402000	0.476600	0.104500
O41	O4	0.388300	0.564500	0.224100
O51	O5	0.182900	0.546600	0.943200
O61	O6	0.239000	0.437800	0.876800
O71	O7	0.074600	0.598000	0.104500
O81	O8	0.176200	0.611700	0.224100
O91	O9	0.363700	0.817100	0.943200
O101	O10	0.198800	0.761000	0.876800
O111	O11	0.523400	0.925400	0.104500
O121	O12	0.435500	0.823800	0.224100
O131	O13	0.817100	0.363700	0.556800
O141	O14	0.761000	0.198800	0.623200
O151	O15	0.925400	0.523400	0.395500
O161	O16	0.823800	0.435500	0.275900
O171	O17	0.636300	0.453400	0.556800
O181	O18	0.801200	0.562200	0.623200
O191	O19	0.476600	0.402000	0.395500
O201	O20	0.564500	0.388300	0.275900
O211	O21	0.546600	0.182900	0.556800
O221	O22	0.437800	0.239000	0.623200
O231	O23	0.598000	0.074600	0.395500
O241	O24	0.611700	0.176200	0.275900
O251	O25	0.546600	0.363700	0.056800
O261	O26	0.437800	0.198800	0.123200
O271	O27	0.598000	0.523400	0.895500
O281	O28	0.611700	0.435500	0.775900
O291	O29	0.817100	0.453400	0.056800
O301	O30	0.761000	0.562200	0.123200
O311	O31	0.925400	0.402000	0.895500
O321	O32	0.823800	0.388300	0.775900
O331	O33	0.636300	0.182900	0.056800
O341	O34	0.801200	0.239000	0.123200
O351	O35	0.476600	0.074600	0.895500
O361	O36	0.564500	0.176200	0.775900
O371	O37	0.182900	0.636300	0.443200
O381	O38	0.239000	0.801200	0.376800
O391	O39	0.074600	0.476600	0.604500
O401	O40	0.176200	0.564500	0.724100
O411	O41	0.363700	0.546600	0.443200
O421	O42	0.198800	0.437800	0.376800
O431	O43	0.523400	0.598000	0.604500
O441	O44	0.435500	0.611700	0.724100
O451	O45	0.453400	0.817100	0.443200
O461	O46	0.562200	0.761000	0.376800
O471	O47	0.402000	0.925400	0.604500
O481	O48	0.388300	0.823800	0.724100
