data_WUTBIW_freeONLY_PM
_symmetry_space_group_name_H-M	'P1'
_cell_length_a	13.402700
_cell_length_b	13.402700
_cell_length_c	14.669000
_cell_angle_alpha	90.000000
_cell_angle_beta	90.000000
_cell_angle_gamma	120.000000
_symmetry_Int_Tables_number 1

loop_
_symmetry_equiv_pos_as_xyz
'x,y,z'

loop_
_atom_site_label
_atom_site_type_symbol
_atom_site_fract_x
_atom_site_fract_y
_atom_site_fract_z
Nd11	Nd1	0.333330	0.666660	0.831110
Nd21	Nd2	0.666670	0.333340	0.668890
Nd31	Nd3	0.666670	0.333340	0.168890
Nd41	Nd4	0.333330	0.666660	0.331110
Cu11	Cu1	0.000000	0.500000	0.000000
Cu21	Cu2	0.500000	0.000000	0.000000
Cu31	Cu3	0.500000	0.500000	0.000000
Cu41	Cu4	0.500000	0.500000	0.500000
Cu51	Cu5	0.500000	0.000000	0.500000
Cu61	Cu6	0.000000	0.500000	0.500000
H11	H1	0.040400	0.292500	0.951900
H21	H2	0.139500	0.320000	0.021700
H31	H3	0.975200	0.326300	0.077300
H41	H4	0.190800	0.458900	0.126800
H51	H5	0.082600	0.397300	0.190200
H61	H6	0.252100	0.959600	0.951900
H71	H7	0.180500	0.860500	0.021700
H81	H8	0.351100	0.024800	0.077300
H91	H9	0.268100	0.809200	0.126800
H101	H10	0.314700	0.917400	0.190200
H111	H11	0.707500	0.747900	0.951900
H121	H12	0.680000	0.819500	0.021700
H131	H13	0.673700	0.648900	0.077300
H141	H14	0.541100	0.731900	0.126800
H151	H15	0.602700	0.685300	0.190200
H161	H16	0.747900	0.707500	0.548100
H171	H17	0.819500	0.680000	0.478300
H181	H18	0.648900	0.673700	0.422700
H191	H19	0.731900	0.541100	0.373200
H201	H20	0.685300	0.602700	0.309800
H211	H21	0.292500	0.040400	0.548100
H221	H22	0.320000	0.139500	0.478300
H231	H23	0.326300	0.975200	0.422700
H241	H24	0.458900	0.190800	0.373200
H251	H25	0.397300	0.082600	0.309800
H261	H26	0.959600	0.252100	0.548100
H271	H27	0.860500	0.180500	0.478300
H281	H28	0.024800	0.351100	0.422700
H291	H29	0.809200	0.268100	0.373200
H301	H30	0.917400	0.314700	0.309800
H311	H31	0.959600	0.707500	0.048100
H321	H32	0.860500	0.680000	0.978300
H331	H33	0.024800	0.673700	0.922700
H341	H34	0.809200	0.541100	0.873200
H351	H35	0.917400	0.602700	0.809800
H361	H36	0.747900	0.040400	0.048100
H371	H37	0.819500	0.139500	0.978300
H381	H38	0.648900	0.975200	0.922700
H391	H39	0.731900	0.190800	0.873200
H401	H40	0.685300	0.082600	0.809800
H411	H41	0.292500	0.252100	0.048100
H421	H42	0.320000	0.180500	0.978300
H431	H43	0.326300	0.351100	0.922700
H441	H44	0.458900	0.268100	0.873200
H451	H45	0.397300	0.314700	0.809800
H461	H46	0.252100	0.292500	0.451900
H471	H47	0.180500	0.320000	0.521700
H481	H48	0.351100	0.326300	0.577300
H491	H49	0.268100	0.458900	0.626800
H501	H50	0.314700	0.397300	0.690200
H511	H51	0.707500	0.959600	0.451900
H521	H52	0.680000	0.860500	0.521700
H531	H53	0.673700	0.024800	0.577300
H541	H54	0.541100	0.809200	0.626800
H551	H55	0.602700	0.917400	0.690200
H561	H56	0.040400	0.747900	0.451900
H571	H57	0.139500	0.819500	0.521700
H581	H58	0.975200	0.648900	0.577300
H591	H59	0.190800	0.731900	0.626800
H601	H60	0.082600	0.685300	0.690200
C11	C1	0.181800	0.453100	0.932200
C21	C2	0.098200	0.352100	0.990400
C31	C3	0.114200	0.447000	0.137600
C41	C4	0.122600	0.560500	0.157200
C51	C5	0.271300	0.818200	0.932200
C61	C6	0.253900	0.901800	0.990400
C71	C7	0.332800	0.885800	0.137600
C81	C8	0.437900	0.877400	0.157200
C91	C9	0.546900	0.728700	0.932200
C101	C10	0.647900	0.746100	0.990400
C111	C11	0.553000	0.667200	0.137600
C121	C12	0.439500	0.562100	0.157200
C131	C13	0.728700	0.546900	0.567800
C141	C14	0.746100	0.647900	0.509600
C151	C15	0.667200	0.553000	0.362400
C161	C16	0.562100	0.439500	0.342800
C171	C17	0.453100	0.181800	0.567800
C181	C18	0.352100	0.098200	0.509600
C191	C19	0.447000	0.114200	0.362400
C201	C20	0.560500	0.122600	0.342800
C211	C21	0.818200	0.271300	0.567800
C221	C22	0.901800	0.253900	0.509600
C231	C23	0.885800	0.332800	0.362400
C241	C24	0.877400	0.437900	0.342800
C251	C25	0.818200	0.546900	0.067800
C261	C26	0.901800	0.647900	0.009600
C271	C27	0.885800	0.553000	0.862400
C281	C28	0.877400	0.439500	0.842800
C291	C29	0.728700	0.181800	0.067800
C301	C30	0.746100	0.098200	0.009600
C311	C31	0.667200	0.114200	0.862400
C321	C32	0.562100	0.122600	0.842800
C331	C33	0.453100	0.271300	0.067800
C341	C34	0.352100	0.253900	0.009600
C351	C35	0.447000	0.332800	0.862400
C361	C36	0.560500	0.437900	0.842800
C371	C37	0.271300	0.453100	0.432200
C381	C38	0.253900	0.352100	0.490400
C391	C39	0.332800	0.447000	0.637600
C401	C40	0.437900	0.560500	0.657200
C411	C41	0.546900	0.818200	0.432200
C421	C42	0.647900	0.901800	0.490400
C431	C43	0.553000	0.885800	0.637600
C441	C44	0.439500	0.877400	0.657200
C451	C45	0.181800	0.728700	0.432200
C461	C46	0.098200	0.746100	0.490400
C471	C47	0.114200	0.667200	0.637600
C481	C48	0.122600	0.562100	0.657200
N11	N1	0.041100	0.389400	0.058010
N21	N2	0.348300	0.958900	0.058010
N31	N3	0.610600	0.651700	0.058010
N41	N4	0.651700	0.610600	0.441990
N51	N5	0.389400	0.041100	0.441990
N61	N6	0.958900	0.348300	0.441990
N71	N7	0.958900	0.610600	0.941990
N81	N8	0.651700	0.041100	0.941990
N91	N9	0.389400	0.348300	0.941990
N101	N10	0.348300	0.389400	0.558010
N111	N11	0.610600	0.958900	0.558010
N121	N12	0.041100	0.651700	0.558010
O11	O1	0.242340	0.439020	0.875920
O21	O2	0.184800	0.547800	0.943090
O31	O3	0.074100	0.598000	0.105520
O41	O4	0.178300	0.615000	0.225610
O51	O5	0.196680	0.757660	0.875920
O61	O6	0.363000	0.815200	0.943090
O71	O7	0.523900	0.925900	0.105520
O81	O8	0.436700	0.821700	0.225610
O91	O9	0.560980	0.803320	0.875920
O101	O10	0.452200	0.637000	0.943090
O111	O11	0.402000	0.476100	0.105520
O121	O12	0.385000	0.563300	0.225610
O131	O13	0.803320	0.560980	0.624080
O141	O14	0.637000	0.452200	0.556910
O151	O15	0.476100	0.402000	0.394480
O161	O16	0.563300	0.385000	0.274390
O171	O17	0.439020	0.242340	0.624080
O181	O18	0.547800	0.184800	0.556910
O191	O19	0.598000	0.074100	0.394480
O201	O20	0.615000	0.178300	0.274390
O211	O21	0.757660	0.196680	0.624080
O221	O22	0.815200	0.363000	0.556910
O231	O23	0.925900	0.523900	0.394480
O241	O24	0.821700	0.436700	0.274390
O251	O25	0.757660	0.560980	0.124080
O261	O26	0.815200	0.452200	0.056910
O271	O27	0.925900	0.402000	0.894480
O281	O28	0.821700	0.385000	0.774390
O291	O29	0.803320	0.242340	0.124080
O301	O30	0.637000	0.184800	0.056910
O311	O31	0.476100	0.074100	0.894480
O321	O32	0.563300	0.178300	0.774390
O331	O33	0.439020	0.196680	0.124080
O341	O34	0.547800	0.363000	0.056910
O351	O35	0.598000	0.523900	0.894480
O361	O36	0.615000	0.436700	0.774390
O371	O37	0.196680	0.439020	0.375920
O381	O38	0.363000	0.547800	0.443090
O391	O39	0.523900	0.598000	0.605520
O401	O40	0.436700	0.615000	0.725610
O411	O41	0.560980	0.757660	0.375920
O421	O42	0.452200	0.815200	0.443090
O431	O43	0.402000	0.925900	0.605520
O441	O44	0.385000	0.821700	0.725610
O451	O45	0.242340	0.803320	0.375920
O461	O46	0.184800	0.637000	0.443090
O471	O47	0.074100	0.476100	0.605520
O481	O48	0.178300	0.563300	0.725610
