data_XADGAM_freeONLY_PM
_symmetry_space_group_name_H-M	'P1'
_cell_length_a	10.983800
_cell_length_b	14.433600
_cell_length_c	16.122900
_cell_angle_alpha	90.000000
_cell_angle_beta	92.867100
_cell_angle_gamma	90.000000
_symmetry_Int_Tables_number 1

loop_
_symmetry_equiv_pos_as_xyz
'x,y,z'

loop_
_atom_site_label
_atom_site_type_symbol
_atom_site_fract_x
_atom_site_fract_y
_atom_site_fract_z
Zn11	Zn1	0.966890	0.624740	0.965840
Zn21	Zn2	0.476370	0.147600	0.588830
H11	H1	0.695500	0.899200	0.919400
H21	H2	0.587400	0.000300	0.832600
H31	H3	0.722700	0.935000	0.572500
H41	H4	0.851900	0.827800	0.516300
H51	H5	0.952900	0.718200	0.605800
H61	H6	0.933600	0.725200	0.743400
H71	H7	0.376400	0.264000	0.836600
H81	H8	0.273800	0.356200	0.929200
H91	H9	0.110200	0.596800	0.764100
H101	H10	0.122400	0.632400	0.625500
H111	H11	0.216600	0.535800	0.536500
H121	H12	0.304900	0.401800	0.582600
H131	H13	0.509400	0.984500	0.477300
H141	H14	0.417400	0.907200	0.367300
H151	H15	0.109700	0.036200	0.413200
H161	H16	0.212300	0.117300	0.517800
H171	H17	0.281100	0.679000	0.204400
H181	H18	0.189100	0.603200	0.094200
H191	H19	0.971100	0.809200	0.045700
H201	H20	0.057100	0.897400	0.151600
H211	H21	0.416000	0.248100	0.423600
H221	H22	0.513300	0.323600	0.319900
H231	H23	0.828000	0.293900	0.453300
H241	H24	0.730400	0.217800	0.551600
H251	H25	0.625300	0.533700	0.140200
H261	H26	0.725600	0.618500	0.043400
H271	H27	0.014100	0.456800	0.076500
H281	H28	0.926200	0.386000	0.188000
C11	C1	0.841500	0.761400	0.890500
C21	C2	0.782100	0.831700	0.833700
C31	C3	0.706100	0.896400	0.862600
C41	C4	0.642500	0.959300	0.810600
C51	C5	0.661500	0.960400	0.726400
C61	C6	0.763500	0.892200	0.606900
C71	C7	0.840400	0.828400	0.573100
C81	C8	0.902500	0.762800	0.627700
C91	C9	0.888500	0.765500	0.709000
C101	C10	0.805400	0.828900	0.745300
C111	C11	0.746100	0.893300	0.692200
C121	C12	0.588500	0.030600	0.673200
C131	C13	0.388400	0.268700	0.676300
C141	C14	0.327200	0.334200	0.734500
C151	C15	0.332200	0.315100	0.816800
C161	C16	0.270900	0.371700	0.873100
C171	C17	0.207000	0.449600	0.846500
C181	C18	0.150500	0.557000	0.729300
C191	C19	0.157400	0.577800	0.645900
C201	C20	0.214500	0.520000	0.592400
C211	C21	0.267700	0.440400	0.620000
C221	C22	0.267300	0.414900	0.704500
C231	C23	0.205200	0.475100	0.761500
C241	C24	0.142900	0.501000	0.912700
C251	C25	0.428600	0.998500	0.462400
C261	C26	0.372700	0.949200	0.397300
C271	C27	0.256500	0.961900	0.378000
C281	C28	0.192600	0.026400	0.424300
C291	C29	0.255400	0.075100	0.487000
C301	C30	0.184300	0.916100	0.308600
C311	C31	0.234200	0.842700	0.269000
C321	C32	0.175100	0.796700	0.195800
C331	C33	0.217000	0.706700	0.173900
C341	C34	0.161700	0.662100	0.107700
C351	C35	0.034100	0.783200	0.078600
C361	C36	0.083500	0.837100	0.143300
C371	C37	0.499700	0.257500	0.429300
C381	C38	0.558300	0.302200	0.366400
C391	C39	0.686700	0.315400	0.372700
C401	C40	0.744500	0.284100	0.445300
C411	C41	0.685700	0.239900	0.505200
C421	C42	0.755500	0.353600	0.306400
C431	C43	0.698200	0.403800	0.245000
C441	C44	0.768500	0.451100	0.178500
C451	C45	0.706400	0.520700	0.130900
C461	C46	0.765400	0.569600	0.070800
C471	C47	0.937800	0.475800	0.092300
C481	C48	0.882600	0.431000	0.157900
N11	N1	0.374600	0.064700	0.505300
N21	N2	0.067700	0.700300	0.060100
N31	N3	0.562000	0.226700	0.499700
N41	N4	0.879700	0.547300	0.051500
O11	O1	0.951700	0.739500	0.883400
O21	O2	0.782000	0.736500	0.951500
O31	O3	0.636000	0.069100	0.613700
O41	O4	0.483300	0.048900	0.693400
O51	O5	0.503300	0.255900	0.688600
O61	O6	0.328600	0.231400	0.619600
O71	O7	0.173200	0.491000	0.984600
O81	O8	0.054200	0.552200	0.887000
Zn31	Zn3	0.033110	0.124740	0.034160
Zn41	Zn4	0.523630	0.647600	0.411170
H291	H29	0.304500	0.399200	0.080600
H301	H30	0.412600	0.500300	0.167400
H311	H31	0.277300	0.435000	0.427500
H321	H32	0.148100	0.327800	0.483700
H331	H33	0.047100	0.218200	0.394200
H341	H34	0.066400	0.225200	0.256600
H351	H35	0.623600	0.764000	0.163400
H361	H36	0.726200	0.856200	0.070800
H371	H37	0.889800	0.096800	0.235900
H381	H38	0.877600	0.132400	0.374500
H391	H39	0.783400	0.035800	0.463500
H401	H40	0.695100	0.901800	0.417400
H411	H41	0.490600	0.484500	0.522700
H421	H42	0.582600	0.407200	0.632700
H431	H43	0.890300	0.536200	0.586800
H441	H44	0.787700	0.617300	0.482200
H451	H45	0.718900	0.179000	0.795600
H461	H46	0.810900	0.103200	0.905800
H471	H47	0.028900	0.309200	0.954300
H481	H48	0.942900	0.397400	0.848400
H491	H49	0.584000	0.748100	0.576400
H501	H50	0.486700	0.823600	0.680100
H511	H51	0.172000	0.793900	0.546700
H521	H52	0.269600	0.717800	0.448400
H531	H53	0.374700	0.033700	0.859800
H541	H54	0.274400	0.118500	0.956600
H551	H55	0.985900	0.956800	0.923500
H561	H56	0.073800	0.886000	0.812000
C491	C49	0.158500	0.261400	0.109500
C501	C50	0.217900	0.331700	0.166300
C511	C51	0.293900	0.396400	0.137400
C521	C52	0.357500	0.459300	0.189400
C531	C53	0.338500	0.460400	0.273600
C541	C54	0.236500	0.392200	0.393100
C551	C55	0.159600	0.328400	0.426900
C561	C56	0.097500	0.262800	0.372300
C571	C57	0.111500	0.265500	0.291000
C581	C58	0.194600	0.328900	0.254700
C591	C59	0.253900	0.393300	0.307800
C601	C60	0.411500	0.530600	0.326800
C611	C61	0.611600	0.768700	0.323700
C621	C62	0.672800	0.834200	0.265500
C631	C63	0.667800	0.815100	0.183200
C641	C64	0.729100	0.871700	0.126900
C651	C65	0.793000	0.949600	0.153500
C661	C66	0.849500	0.057000	0.270700
C671	C67	0.842600	0.077800	0.354100
C681	C68	0.785500	0.020000	0.407600
C691	C69	0.732300	0.940400	0.380000
C701	C70	0.732700	0.914900	0.295500
C711	C71	0.794800	0.975100	0.238500
C721	C72	0.857100	0.001000	0.087300
C731	C73	0.571400	0.498500	0.537600
C741	C74	0.627300	0.449200	0.602700
C751	C75	0.743500	0.461900	0.622000
C761	C76	0.807400	0.526400	0.575700
C771	C77	0.744600	0.575100	0.513000
C781	C78	0.815700	0.416100	0.691400
C791	C79	0.765800	0.342700	0.731000
C801	C80	0.824900	0.296700	0.804200
C811	C81	0.783000	0.206700	0.826100
C821	C82	0.838300	0.162100	0.892300
C831	C83	0.965900	0.283200	0.921400
C841	C84	0.916500	0.337100	0.856700
C851	C85	0.500300	0.757500	0.570700
C861	C86	0.441700	0.802200	0.633600
C871	C87	0.313300	0.815400	0.627300
C881	C88	0.255500	0.784100	0.554700
C891	C89	0.314300	0.739900	0.494800
C901	C90	0.244500	0.853600	0.693600
C911	C91	0.301800	0.903800	0.755000
C921	C92	0.231500	0.951100	0.821500
C931	C93	0.293600	0.020700	0.869100
C941	C94	0.234600	0.069600	0.929200
C951	C95	0.062200	0.975800	0.907700
C961	C96	0.117400	0.931000	0.842100
N51	N5	0.625400	0.564700	0.494700
N61	N6	0.932300	0.200300	0.939900
N71	N7	0.438000	0.726700	0.500300
N81	N8	0.120300	0.047300	0.948500
O91	O9	0.048300	0.239500	0.116600
O101	O10	0.218000	0.236500	0.048500
O111	O11	0.364000	0.569100	0.386300
O121	O12	0.516700	0.548900	0.306600
O131	O13	0.496700	0.755900	0.311400
O141	O14	0.671400	0.731400	0.380400
O151	O15	0.826800	0.991000	0.015400
O161	O16	0.945800	0.052200	0.113000
