data_XALTEK_freeONLY_PM
_symmetry_space_group_name_H-M	'P1'
_cell_length_a	8.738800
_cell_length_b	11.741700
_cell_length_c	15.123800
_cell_angle_alpha	90.000000
_cell_angle_beta	92.605000
_cell_angle_gamma	90.000000
_symmetry_Int_Tables_number 1

loop_
_symmetry_equiv_pos_as_xyz
'x,y,z'

loop_
_atom_site_label
_atom_site_type_symbol
_atom_site_fract_x
_atom_site_fract_y
_atom_site_fract_z
Cu11	Cu1	0.310410	0.155420	0.751670
Cu21	Cu2	0.501360	0.341540	0.864070
Cu31	Cu3	0.689590	0.155420	0.748330
Cu41	Cu4	0.498640	0.341540	0.635930
Cu51	Cu5	0.689590	0.844580	0.248330
Cu61	Cu6	0.498640	0.658460	0.135930
Cu71	Cu7	0.310410	0.844580	0.251670
Cu81	Cu8	0.501360	0.658460	0.364070
H11	H1	0.325000	0.129000	0.550400
H21	H2	0.500300	0.099500	0.545800
H31	H3	0.480300	0.956000	0.650800
H41	H4	0.346500	0.934900	0.579400
H51	H5	0.480100	0.552900	0.851200
H61	H6	0.386300	0.518500	0.923900
H71	H7	0.130900	0.385300	0.748100
H81	H8	0.159200	0.363300	0.850300
H91	H9	0.195800	0.556100	0.832900
H101	H10	0.297500	0.536900	0.751000
H111	H11	0.176400	0.002100	0.668400
H121	H12	0.280400	0.948000	0.733900
H131	H13	0.675000	0.129000	0.949600
H141	H14	0.499700	0.099500	0.954200
H151	H15	0.519700	0.956000	0.849200
H161	H16	0.653500	0.934900	0.920600
H171	H17	0.519900	0.552900	0.648800
H181	H18	0.613700	0.518500	0.576100
H191	H19	0.869100	0.385300	0.751900
H201	H20	0.840800	0.363300	0.649700
H211	H21	0.804200	0.556100	0.667100
H221	H22	0.702500	0.536900	0.749000
H231	H23	0.823600	0.002100	0.831600
H241	H24	0.719600	0.948000	0.766100
H251	H25	0.675000	0.871000	0.449600
H261	H26	0.499700	0.900500	0.454200
H271	H27	0.519700	0.044000	0.349200
H281	H28	0.653500	0.065100	0.420600
H291	H29	0.519900	0.447100	0.148800
H301	H30	0.613700	0.481500	0.076100
H311	H31	0.869100	0.614700	0.251900
H321	H32	0.840800	0.636700	0.149700
H331	H33	0.804200	0.443900	0.167100
H341	H34	0.702500	0.463100	0.249000
H351	H35	0.823600	0.997900	0.331600
H361	H36	0.719600	0.052000	0.266100
H371	H37	0.325000	0.871000	0.050400
H381	H38	0.500300	0.900500	0.045800
H391	H39	0.480300	0.044000	0.150800
H401	H40	0.346500	0.065100	0.079400
H411	H41	0.480100	0.447100	0.351200
H421	H42	0.386300	0.481500	0.423900
H431	H43	0.130900	0.614700	0.248100
H441	H44	0.159200	0.636700	0.350300
H451	H45	0.195800	0.443900	0.332900
H461	H46	0.297500	0.463100	0.251000
H471	H47	0.176400	0.997900	0.168400
H481	H48	0.280400	0.052000	0.233900
Au11	Au1	0.000000	0.000000	0.000000
Au21	Au2	0.000000	0.000000	0.500000
Au31	Au3	0.000000	0.500000	0.000000
Au41	Au4	0.000000	0.500000	0.500000
C11	C1	0.106800	0.074800	0.902300
C21	C2	0.812300	0.424500	0.950050
C31	C3	0.415000	0.103200	0.584600
C41	C4	0.386000	0.987100	0.624500
C51	C5	0.207000	0.387400	0.796800
C61	C6	0.271600	0.506500	0.808100
C71	C7	0.893200	0.074800	0.597700
C81	C8	0.187700	0.424500	0.549950
C91	C9	0.585000	0.103200	0.915400
C101	C10	0.614000	0.987100	0.875500
C111	C11	0.793000	0.387400	0.703200
C121	C12	0.728400	0.506500	0.691900
C131	C13	0.893200	0.925200	0.097700
C141	C14	0.187700	0.575500	0.049950
C151	C15	0.585000	0.896800	0.415400
C161	C16	0.614000	0.012900	0.375500
C171	C17	0.793000	0.612600	0.203200
C181	C18	0.728400	0.493500	0.191900
C191	C19	0.106800	0.925200	0.402300
C201	C20	0.812300	0.575500	0.450050
C211	C21	0.415000	0.896800	0.084600
C221	C22	0.386000	0.012900	0.124500
C231	C23	0.207000	0.612600	0.296800
C241	C24	0.271600	0.493500	0.308100
N11	N1	0.171600	0.116200	0.845940
N21	N2	0.699600	0.385000	0.922290
N31	N3	0.410900	0.501640	0.868260
N41	N4	0.271800	0.004000	0.693350
N51	N5	0.828400	0.116200	0.654060
N61	N6	0.300400	0.385000	0.577710
N71	N7	0.589100	0.501640	0.631740
N81	N8	0.728200	0.004000	0.806650
N91	N9	0.828400	0.883800	0.154060
N101	N10	0.300400	0.615000	0.077710
N111	N11	0.589100	0.498360	0.131740
N121	N12	0.728200	0.996000	0.306650
N131	N13	0.171600	0.883800	0.345940
N141	N14	0.699600	0.615000	0.422290
N151	N15	0.410900	0.498360	0.368260
N161	N16	0.271800	0.996000	0.193350
O11	O1	0.332200	0.315040	0.778940
O21	O2	0.449200	0.179010	0.656230
O31	O3	0.667800	0.315040	0.721060
O41	O4	0.550800	0.179010	0.843770
O51	O5	0.667800	0.684960	0.221060
O61	O6	0.550800	0.820990	0.343770
O71	O7	0.332200	0.684960	0.278940
O81	O8	0.449200	0.820990	0.156230
