data_XAMHEA_manual_PM
_symmetry_space_group_name_H-M	'P1'
_cell_length_a	17.116800
_cell_length_b	17.221500
_cell_length_c	17.221500
_cell_angle_alpha	90.000000
_cell_angle_beta	90.000000
_cell_angle_gamma	90.000000
_symmetry_Int_Tables_number 1

loop_
_symmetry_equiv_pos_as_xyz
'x,y,z'

loop_
_atom_site_label
_atom_site_type_symbol
_atom_site_fract_x
_atom_site_fract_y
_atom_site_fract_z
Zn11	Zn1	0.055190	0.934620	0.434620
Zn21	Zn2	0.055190	0.065380	0.565380
Zn31	Zn3	0.184390	0.934370	0.565630
Zn41	Zn4	0.184390	0.065630	0.434370
H51	H5	0.045050	0.897890	0.197810
H61	H6	0.048460	0.896420	0.050680
H71	H7	0.185440	0.100130	0.201620
H81	H8	0.504650	0.889670	0.698600
H91	H9	0.264010	0.213270	0.042240
H101	H10	0.269920	0.145970	0.126630
H111	H11	0.182260	0.208560	0.113380
H121	H12	0.045050	0.102110	0.802190
H131	H13	0.048460	0.103580	0.949320
H141	H14	0.186030	0.899090	0.800070
H151	H15	0.207540	0.767440	0.938460
H161	H16	0.295200	0.830030	0.925210
H171	H17	0.213450	0.834740	0.854070
H181	H18	0.045050	0.302190	0.602110
H191	H19	0.048460	0.449320	0.603580
H201	H20	0.186030	0.300070	0.399090
H211	H21	0.546350	0.798940	0.656930
H221	H22	0.213450	0.354070	0.334740
H231	H23	0.295200	0.425210	0.330030
H241	H24	0.207540	0.438460	0.267440
H251	H25	0.045050	0.697810	0.397890
H261	H26	0.048460	0.550680	0.396420
H271	H27	0.185440	0.701620	0.600130
H281	H28	0.818400	0.090660	0.590660
H291	H29	0.669900	0.089210	0.589210
H301	H30	0.818400	0.909340	0.409340
H311	H31	0.669900	0.910790	0.410790
H321	H32	0.418650	0.908810	0.591190
H331	H33	0.462950	0.848000	0.607870
H341	H34	0.418650	0.091190	0.408810
C351	C35	0.117300	0.000500	0.290800
C361	C36	0.115300	0.999500	0.204500
C371	C37	0.078700	0.945000	0.165500
C381	C38	0.080500	0.944000	0.083900
C391	C39	0.118600	0.997100	0.044200
C401	C40	0.154300	0.050600	0.081700
C411	C41	0.153500	0.052900	0.167800
C421	C42	0.229100	0.173400	0.082100
C431	C43	0.117300	0.999500	0.709200
C441	C44	0.115300	0.000500	0.795500
C451	C45	0.078700	0.055000	0.834500
C461	C46	0.080500	0.056000	0.916100
C471	C47	0.118600	0.002900	0.955800
C481	C48	0.154300	0.949400	0.918300
C491	C49	0.153500	0.947100	0.832200
C501	C50	0.229100	0.826600	0.917900
C511	C51	0.117300	0.209200	0.499500
C521	C52	0.115300	0.295500	0.500500
C531	C53	0.078700	0.334500	0.555000
C541	C54	0.080500	0.416100	0.556000
C551	C55	0.118600	0.455800	0.502900
C561	C56	0.154300	0.418300	0.449400
C571	C57	0.153500	0.332200	0.447100
C581	C58	0.229100	0.417900	0.326600
C591	C59	0.117300	0.790800	0.500500
C601	C60	0.115300	0.704500	0.499500
C611	C61	0.078700	0.665500	0.445000
C621	C62	0.080500	0.583900	0.444000
C631	C63	0.118600	0.544200	0.497100
C641	C64	0.154300	0.581700	0.550600
C651	C65	0.153500	0.667800	0.552900
C661	C66	0.785900	0.049800	0.549800
C671	C67	0.704000	0.049000	0.549000
C681	C68	0.785900	0.950200	0.450200
C691	C69	0.704000	0.951000	0.451000
C701	C70	0.532400	0.950940	0.549060
C711	C71	0.450800	0.949800	0.550200
C721	C72	0.518900	0.857500	0.642500
C731	C73	0.532400	0.049060	0.450940
C741	C74	0.450800	0.050200	0.449800
C751	C75	0.908600	0.000000	0.500000
C761	C76	0.828200	0.000000	0.500000
C771	C77	0.659800	0.000000	0.500000
C781	C78	0.578500	0.000000	0.500000
C791	C79	0.415300	0.000000	0.500000
C801	C80	0.323700	0.000000	0.500000
O811	O81	0.072000	0.950400	0.325230
O821	O82	0.157700	0.048300	0.325400
O831	O83	0.193100	0.114100	0.037300
O841	O84	0.072000	0.049600	0.674770
O851	O85	0.157700	0.951700	0.674600
O861	O86	0.193100	0.885900	0.962700
O871	O87	0.072000	0.174770	0.549600
O881	O88	0.157700	0.174600	0.451700
O891	O89	0.193100	0.462700	0.385900
O901	O90	0.072000	0.825230	0.450400
O911	O91	0.157700	0.825400	0.548300
O921	O92	0.944200	0.947500	0.447500
O931	O93	0.944200	0.052500	0.552500
O941	O94	0.291000	0.946000	0.554000
O951	O95	0.570700	0.901000	0.599000
O961	O96	0.291000	0.054000	0.446000
O971	O97	0.119000	0.000000	0.500000
Zn981	Zn98	0.944810	0.434620	0.065380
Zn991	Zn99	0.944810	0.565380	0.934620
Zn1001	Zn100	0.815610	0.565630	0.065630
Zn1011	Zn101	0.815610	0.434370	0.934370
H1021	H102	0.954950	0.197810	0.102110
H1031	H103	0.951540	0.050680	0.103580
H1041	H104	0.813970	0.199930	0.899090
H1051	H105	0.519430	0.678520	0.102090
H1061	H106	0.816570	0.099510	0.781670
H1071	H107	0.743970	0.136510	0.853160
H1081	H108	0.723270	0.046230	0.797380
H1091	H109	0.954950	0.802190	0.897890
H1101	H110	0.951540	0.949320	0.896420
H1111	H111	0.813970	0.800070	0.100910
H1121	H112	0.799270	0.858060	0.175900
H1131	H113	0.705970	0.911340	0.160200
H1141	H114	0.778570	0.948340	0.231690
H1151	H115	0.954950	0.602110	0.697810
H1161	H116	0.951540	0.603580	0.550680
H1171	H117	0.814560	0.399870	0.701620
H1181	H118	0.447190	0.682790	0.182790
H1191	H119	0.954950	0.397890	0.302190
H1201	H120	0.951540	0.396420	0.449320
H1211	H121	0.813970	0.600910	0.300070
H1221	H122	0.705970	0.660200	0.411340
H1231	H123	0.799270	0.675900	0.358060
H1241	H124	0.778570	0.731690	0.448340
H1251	H125	0.181600	0.590660	0.909340
H1261	H126	0.330100	0.589210	0.910790
H1271	H127	0.181600	0.409340	0.090660
H1281	H128	0.330100	0.410790	0.089210
H1291	H129	0.581350	0.591190	0.091190
H1301	H130	0.519430	0.602090	0.178520
H1311	H131	0.581350	0.408810	0.908810
C1321	C132	0.882700	0.290800	0.999500
C1331	C133	0.884700	0.204500	0.000500
C1341	C134	0.921300	0.165500	0.055000
C1351	C135	0.919500	0.083900	0.056000
C1361	C136	0.881400	0.044200	0.002900
C1371	C137	0.845700	0.081700	0.949400
C1381	C138	0.846500	0.167800	0.947100
C1391	C139	0.770900	0.082100	0.826600
C1401	C140	0.882700	0.709200	0.000500
C1411	C141	0.884700	0.795500	0.999500
C1421	C142	0.921300	0.834500	0.945000
C1431	C143	0.919500	0.916100	0.944000
C1441	C144	0.881400	0.955800	0.997100
C1451	C145	0.845700	0.918300	0.050600
C1461	C146	0.846500	0.832200	0.052900
C1471	C147	0.770900	0.917900	0.173400
C1481	C148	0.882700	0.499500	0.790800
C1491	C149	0.884700	0.500500	0.704500
C1501	C150	0.921300	0.555000	0.665500
C1511	C151	0.919500	0.556000	0.583900
C1521	C152	0.881400	0.502900	0.544200
C1531	C153	0.845700	0.449400	0.581700
C1541	C154	0.846500	0.447100	0.667800
C1551	C155	0.882700	0.500500	0.209200
C1561	C156	0.884700	0.499500	0.295500
C1571	C157	0.921300	0.445000	0.334500
C1581	C158	0.919500	0.444000	0.416100
C1591	C159	0.881400	0.497100	0.455800
C1601	C160	0.845700	0.550600	0.418300
C1611	C161	0.846500	0.552900	0.332200
C1621	C162	0.770900	0.673400	0.417900
C1631	C163	0.214100	0.549800	0.950200
C1641	C164	0.296000	0.549000	0.951000
C1651	C165	0.214100	0.450200	0.049800
C1661	C166	0.296000	0.451000	0.049000
C1671	C167	0.467600	0.549060	0.049060
C1681	C168	0.549200	0.550200	0.050200
C1691	C169	0.481100	0.642500	0.142500
C1701	C170	0.467600	0.450940	0.950940
C1711	C171	0.549200	0.449800	0.949800
C1721	C172	0.091400	0.500000	0.000000
C1731	C173	0.171800	0.500000	0.000000
C1741	C174	0.340200	0.500000	0.000000
C1751	C175	0.421500	0.500000	0.000000
C1761	C176	0.584700	0.500000	0.000000
C1771	C177	0.676300	0.500000	0.000000
O1781	O178	0.928000	0.325230	0.049600
O1791	O179	0.842300	0.325400	0.951700
O1801	O180	0.806900	0.037300	0.885900
O1811	O181	0.928000	0.674770	0.950400
O1821	O182	0.842300	0.674600	0.048300
O1831	O183	0.806900	0.962700	0.114100
O1841	O184	0.928000	0.549600	0.825230
O1851	O185	0.842300	0.451700	0.825400
O1861	O186	0.928000	0.450400	0.174770
O1871	O187	0.842300	0.548300	0.174600
O1881	O188	0.806900	0.614100	0.462700
O1891	O189	0.055800	0.447500	0.052500
O1901	O190	0.055800	0.552500	0.947500
O1911	O191	0.709000	0.554000	0.054000
O1921	O192	0.429300	0.599000	0.099000
O1931	O193	0.709000	0.446000	0.946000
O1941	O194	0.881000	0.500000	0.000000
H1951	H195	0.187530	0.548910	0.597670
H1961	H196	0.566840	0.089120	0.410880
H1971	H197	0.812470	0.402330	0.548910
H1981	H198	0.433160	0.410880	0.910880
