data_XAPDEY_freeONLY_PM
_symmetry_space_group_name_H-M	'P1'
_cell_length_a	13.707300
_cell_length_b	27.873000
_cell_length_c	45.852000
_cell_angle_alpha	90.000000
_cell_angle_beta	90.000000
_cell_angle_gamma	90.000000
_symmetry_Int_Tables_number 1

loop_
_symmetry_equiv_pos_as_xyz
'x,y,z'

loop_
_atom_site_label
_atom_site_type_symbol
_atom_site_fract_x
_atom_site_fract_y
_atom_site_fract_z
Zn11	Zn1	0.161870	0.942350	0.429830
Zn21	Zn2	0.142670	0.755520	0.689080
Zn31	Zn3	0.350740	0.972140	0.586740
Zn41	Zn4	0.838130	0.557650	0.929830
Zn51	Zn5	0.857330	0.744480	0.189080
Zn61	Zn6	0.649260	0.527860	0.086740
Zn71	Zn7	0.661870	0.057650	0.070170
Zn81	Zn8	0.642670	0.244480	0.810920
Zn91	Zn9	0.850740	0.027860	0.913260
Zn101	Zn10	0.338130	0.442350	0.570170
Zn111	Zn11	0.357330	0.255520	0.310920
Zn121	Zn12	0.149260	0.472140	0.413260
H11	H1	0.961800	0.960700	0.455000
H21	H2	0.868100	0.941000	0.495400
H31	H3	0.103200	0.873300	0.529300
H41	H4	0.191400	0.896200	0.488700
H51	H5	0.657400	0.935100	0.530700
H61	H6	0.500400	0.964000	0.538300
H71	H7	0.500000	0.913600	0.619000
H81	H8	0.656300	0.884200	0.613400
H91	H9	0.844900	0.818500	0.637500
H101	H10	0.932100	0.782000	0.674400
H111	H11	0.180800	0.809900	0.635800
H121	H12	0.101300	0.846000	0.596800
H131	H13	0.919200	0.665000	0.228200
H141	H14	0.981200	0.653700	0.275000
H151	H15	0.031300	0.796200	0.279600
H161	H16	0.972800	0.803200	0.231900
H171	H17	0.079200	0.585200	0.330000
H181	H18	0.107600	0.512400	0.353200
H191	H19	0.117200	0.575300	0.429900
H201	H20	0.094800	0.650000	0.408700
H211	H21	0.125200	0.765100	0.412600
H221	H22	0.156600	0.835100	0.438200
H231	H23	0.087100	0.914200	0.370200
H241	H24	0.059900	0.846300	0.341800
H251	H25	0.038200	0.539300	0.955000
H261	H26	0.131900	0.559000	0.995400
H271	H27	0.896800	0.626700	0.029300
H281	H28	0.808600	0.603800	0.988700
H291	H29	0.342600	0.564900	0.030700
H301	H30	0.499600	0.536000	0.038300
H311	H31	0.500000	0.586400	0.119000
H321	H32	0.343700	0.615800	0.113400
H331	H33	0.155100	0.681500	0.137500
H341	H34	0.067900	0.718000	0.174400
H351	H35	0.819200	0.690100	0.135800
H361	H36	0.898700	0.654000	0.096800
H371	H37	0.080800	0.835000	0.728200
H381	H38	0.018800	0.846300	0.775000
H391	H39	0.968700	0.703800	0.779600
H401	H40	0.027200	0.696800	0.731900
H411	H41	0.920800	0.914800	0.830000
H421	H42	0.892400	0.987600	0.853200
H431	H43	0.882800	0.924700	0.929900
H441	H44	0.905200	0.850000	0.908700
H451	H45	0.874800	0.734900	0.912600
H461	H46	0.843400	0.664900	0.938200
H471	H47	0.912900	0.585800	0.870200
H481	H48	0.940100	0.653700	0.841800
H491	H49	0.461800	0.039300	0.045000
H501	H50	0.368100	0.059000	0.004600
H511	H51	0.603200	0.126700	0.970700
H521	H52	0.691400	0.103800	0.011300
H531	H53	0.157400	0.064900	0.969300
H541	H54	0.000400	0.036000	0.961700
H551	H55	0.000000	0.086400	0.881000
H561	H56	0.156300	0.115800	0.886600
H571	H57	0.344900	0.181500	0.862500
H581	H58	0.432100	0.218000	0.825600
H591	H59	0.680800	0.190100	0.864200
H601	H60	0.601300	0.154000	0.903200
H611	H61	0.419200	0.335000	0.271800
H621	H62	0.481200	0.346300	0.225000
H631	H63	0.531300	0.203800	0.220400
H641	H64	0.472800	0.196800	0.268100
H651	H65	0.579200	0.414800	0.170000
H661	H66	0.607600	0.487600	0.146800
H671	H67	0.617200	0.424700	0.070100
H681	H68	0.594800	0.350000	0.091300
H691	H69	0.625200	0.234900	0.087400
H701	H70	0.656600	0.164900	0.061800
H711	H71	0.587100	0.085800	0.129800
H721	H72	0.559900	0.153700	0.158200
H731	H73	0.538200	0.460700	0.545000
H741	H74	0.631900	0.441000	0.504600
H751	H75	0.396800	0.373300	0.470700
H761	H76	0.308600	0.396200	0.511300
H771	H77	0.842600	0.435100	0.469300
H781	H78	0.999600	0.464000	0.461700
H791	H79	0.000000	0.413600	0.381000
H801	H80	0.843700	0.384200	0.386600
H811	H81	0.655100	0.318500	0.362500
H821	H82	0.567900	0.282000	0.325600
H831	H83	0.319200	0.309900	0.364200
H841	H84	0.398700	0.346000	0.403200
H851	H85	0.580800	0.165000	0.771800
H861	H86	0.518800	0.153700	0.725000
H871	H87	0.468700	0.296200	0.720400
H881	H88	0.527200	0.303200	0.768100
H891	H89	0.420800	0.085200	0.670000
H901	H90	0.392400	0.012400	0.646800
H911	H91	0.382800	0.075300	0.570100
H921	H92	0.405200	0.150000	0.591300
H931	H93	0.374800	0.265100	0.587400
H941	H94	0.343400	0.335100	0.561800
H951	H95	0.412900	0.414200	0.629800
H961	H96	0.440100	0.346300	0.658200
C11	C1	0.990600	0.942600	0.470340
C21	C2	0.934000	0.930500	0.494180
C31	C3	0.974200	0.903300	0.516090
C41	C4	0.072600	0.890900	0.514130
C51	C5	0.124400	0.904700	0.489900
C61	C6	0.917000	0.889600	0.542520
C71	C7	0.776500	0.890500	0.568100
C81	C8	0.911900	0.857600	0.587730
C91	C9	0.674600	0.906600	0.571210
C101	C10	0.626500	0.930500	0.549080
C111	C11	0.532900	0.947900	0.553740
C121	C12	0.532800	0.918400	0.600960
C131	C13	0.625500	0.900600	0.597710
C141	C14	0.964000	0.835000	0.612430
C151	C15	0.914000	0.816500	0.636390
C161	C16	0.966700	0.795200	0.658340
C171	C17	0.111600	0.811200	0.635810
C181	C18	0.064800	0.832900	0.612480
C191	C19	0.942000	0.692000	0.238870
C201	C20	0.978500	0.685000	0.266820
C211	C21	0.010800	0.723800	0.282590
C221	C22	0.008600	0.768700	0.269440
C231	C23	0.972600	0.772600	0.241150
C241	C24	0.041300	0.719100	0.313430
C251	C25	0.074600	0.673400	0.353080
C261	C26	0.077400	0.754200	0.356560
C271	C27	0.086700	0.625700	0.367050
C281	C28	0.088500	0.584100	0.350480
C291	C29	0.104300	0.540800	0.364620
C301	C30	0.110800	0.577400	0.409360
C311	C31	0.097100	0.622100	0.396810
C321	C32	0.092000	0.798000	0.374280
C331	C33	0.118700	0.795400	0.403250
C341	C34	0.135800	0.837200	0.418430
C351	C35	0.096100	0.883500	0.378640
C361	C36	0.079400	0.843300	0.361550
C371	C37	0.009400	0.557400	0.970340
C381	C38	0.066000	0.569500	0.994180
C391	C39	0.025800	0.596700	0.016090
C401	C40	0.927400	0.609100	0.014130
C411	C41	0.875600	0.595300	0.989900
C421	C42	0.083000	0.610400	0.042520
C431	C43	0.223500	0.609500	0.068100
C441	C44	0.088100	0.642400	0.087730
C451	C45	0.325400	0.593400	0.071210
C461	C46	0.373500	0.569500	0.049080
C471	C47	0.467100	0.552100	0.053740
C481	C48	0.467200	0.581600	0.100960
C491	C49	0.374500	0.599400	0.097710
C501	C50	0.036000	0.665000	0.112430
C511	C51	0.086000	0.683500	0.136390
C521	C52	0.033300	0.704800	0.158340
C531	C53	0.888400	0.688800	0.135810
C541	C54	0.935200	0.667100	0.112480
C551	C55	0.058000	0.808000	0.738870
C561	C56	0.021500	0.815000	0.766820
C571	C57	0.989200	0.776200	0.782590
C581	C58	0.991400	0.731300	0.769440
C591	C59	0.027400	0.727400	0.741150
C601	C60	0.958700	0.780900	0.813430
C611	C61	0.925400	0.826600	0.853080
C621	C62	0.922600	0.745800	0.856560
C631	C63	0.913300	0.874300	0.867050
C641	C64	0.911500	0.915900	0.850480
C651	C65	0.895700	0.959200	0.864620
C661	C66	0.889200	0.922600	0.909360
C671	C67	0.902900	0.877900	0.896810
C681	C68	0.908000	0.702000	0.874280
C691	C69	0.881300	0.704600	0.903250
C701	C70	0.864200	0.662800	0.918430
C711	C71	0.903900	0.616500	0.878640
C721	C72	0.920600	0.656700	0.861550
C731	C73	0.490600	0.057400	0.029660
C741	C74	0.434000	0.069500	0.005820
C751	C75	0.474200	0.096700	0.983910
C761	C76	0.572600	0.109100	0.985870
C771	C77	0.624400	0.095300	0.010100
C781	C78	0.417000	0.110400	0.957480
C791	C79	0.276500	0.109500	0.931900
C801	C80	0.411900	0.142400	0.912270
C811	C81	0.174600	0.093400	0.928790
C821	C82	0.126500	0.069500	0.950920
C831	C83	0.032900	0.052100	0.946260
C841	C84	0.032800	0.081600	0.899040
C851	C85	0.125500	0.099400	0.902290
C861	C86	0.464000	0.165000	0.887570
C871	C87	0.414000	0.183500	0.863610
C881	C88	0.466700	0.204800	0.841660
C891	C89	0.611600	0.188800	0.864190
C901	C90	0.564800	0.167100	0.887520
C911	C91	0.442000	0.308000	0.261130
C921	C92	0.478500	0.315000	0.233180
C931	C93	0.510800	0.276200	0.217410
C941	C94	0.508600	0.231300	0.230560
C951	C95	0.472600	0.227400	0.258850
C961	C96	0.541300	0.280900	0.186570
C971	C97	0.574600	0.326600	0.146920
C981	C98	0.577400	0.245800	0.143440
C991	C99	0.586700	0.374300	0.132950
C1001	C100	0.588500	0.415900	0.149520
C1011	C101	0.604300	0.459200	0.135380
C1021	C102	0.610800	0.422600	0.090640
C1031	C103	0.597100	0.377900	0.103190
C1041	C104	0.592000	0.202000	0.125720
C1051	C105	0.618700	0.204600	0.096750
C1061	C106	0.635800	0.162800	0.081570
C1071	C107	0.596100	0.116500	0.121360
C1081	C108	0.579400	0.156700	0.138450
C1091	C109	0.509400	0.442600	0.529660
C1101	C110	0.566000	0.430500	0.505820
C1111	C111	0.525800	0.403300	0.483910
C1121	C112	0.427400	0.390900	0.485870
C1131	C113	0.375600	0.404700	0.510100
C1141	C114	0.583000	0.389600	0.457480
C1151	C115	0.723500	0.390500	0.431900
C1161	C116	0.588100	0.357600	0.412270
C1171	C117	0.825400	0.406600	0.428790
C1181	C118	0.873500	0.430500	0.450920
C1191	C119	0.967100	0.447900	0.446260
C1201	C120	0.967200	0.418400	0.399040
C1211	C121	0.874500	0.400600	0.402290
C1221	C122	0.536000	0.335000	0.387570
C1231	C123	0.586000	0.316500	0.363610
C1241	C124	0.533300	0.295200	0.341660
C1251	C125	0.388400	0.311200	0.364190
C1261	C126	0.435200	0.332900	0.387520
C1271	C127	0.558000	0.192000	0.761130
C1281	C128	0.521500	0.185000	0.733180
C1291	C129	0.489200	0.223800	0.717410
C1301	C130	0.491400	0.268700	0.730560
C1311	C131	0.527400	0.272600	0.758850
C1321	C132	0.458700	0.219100	0.686570
C1331	C133	0.425400	0.173400	0.646920
C1341	C134	0.422600	0.254200	0.643440
C1351	C135	0.413300	0.125700	0.632950
C1361	C136	0.411500	0.084100	0.649520
C1371	C137	0.395700	0.040800	0.635380
C1381	C138	0.389200	0.077400	0.590640
C1391	C139	0.402900	0.122100	0.603190
C1401	C140	0.408000	0.298000	0.625720
C1411	C141	0.381300	0.295400	0.596750
C1421	C142	0.364200	0.337200	0.581570
C1431	C143	0.403900	0.383500	0.621360
C1441	C144	0.420600	0.343300	0.638450
I11	I1	0.080520	0.010770	0.402610
I21	I2	0.342610	0.932390	0.441320
I31	I3	0.300860	0.802720	0.696380
I41	I4	0.150820	0.666590	0.676610
I51	I5	0.266500	0.922670	0.625990
I61	I6	0.275020	0.990040	0.537110
I71	I7	0.919480	0.489230	0.902610
I81	I8	0.657390	0.567610	0.941320
I91	I9	0.699140	0.697280	0.196380
I101	I10	0.849180	0.833410	0.176610
I111	I11	0.733500	0.577330	0.125990
I121	I12	0.724980	0.509960	0.037110
I131	I13	0.580520	0.989230	0.097390
I141	I14	0.842610	0.067610	0.058680
I151	I15	0.800860	0.197280	0.803620
I161	I16	0.650820	0.333410	0.823390
I171	I17	0.766500	0.077330	0.874010
I181	I18	0.775020	0.009960	0.962890
I191	I19	0.419480	0.510770	0.597390
I201	I20	0.157390	0.432390	0.558680
I211	I21	0.199140	0.302720	0.303620
I221	I22	0.349180	0.166590	0.323390
I231	I23	0.233500	0.422670	0.374010
I241	I24	0.224980	0.490040	0.462890
N11	N1	0.084900	0.929700	0.467880
N21	N2	0.822200	0.901700	0.543310
N31	N3	0.817100	0.867840	0.590810
N41	N4	0.965300	0.867600	0.564020
N51	N5	0.486600	0.942600	0.579520
N61	N6	0.063900	0.792200	0.658320
N71	N7	0.938000	0.735200	0.226660
N81	N8	0.051000	0.674640	0.324520
N91	N9	0.088100	0.711910	0.369920
N101	N10	0.053800	0.759940	0.328500
N111	N11	0.115200	0.537040	0.393630
N121	N12	0.124400	0.880900	0.406500
N131	N13	0.915100	0.570300	0.967880
N141	N14	0.177800	0.598300	0.043310
N151	N15	0.182900	0.632160	0.090810
N161	N16	0.034700	0.632400	0.064020
N171	N17	0.513400	0.557400	0.079520
N181	N18	0.936100	0.707800	0.158320
N191	N19	0.062000	0.764800	0.726660
N201	N20	0.949000	0.825360	0.824520
N211	N21	0.911900	0.788090	0.869920
N221	N22	0.946200	0.740060	0.828500
N231	N23	0.884800	0.962960	0.893630
N241	N24	0.875600	0.619100	0.906500
N251	N25	0.584900	0.070300	0.032120
N261	N26	0.322200	0.098300	0.956690
N271	N27	0.317100	0.132160	0.909190
N281	N28	0.465300	0.132400	0.935980
N291	N29	0.986600	0.057400	0.920480
N301	N30	0.563900	0.207800	0.841680
N311	N31	0.438000	0.264800	0.273340
N321	N32	0.551000	0.325360	0.175480
N331	N33	0.588100	0.288090	0.130080
N341	N34	0.553800	0.240060	0.171500
N351	N35	0.615200	0.462960	0.106370
N361	N36	0.624400	0.119100	0.093500
N371	N37	0.415100	0.429700	0.532120
N381	N38	0.677800	0.401700	0.456690
N391	N39	0.682900	0.367840	0.409190
N401	N40	0.534700	0.367600	0.435980
N411	N41	0.013400	0.442600	0.420480
N421	N42	0.436100	0.292200	0.341680
N431	N43	0.562000	0.235200	0.773340
N441	N44	0.449000	0.174640	0.675480
N451	N45	0.411900	0.211910	0.630080
N461	N46	0.446200	0.259940	0.671500
N471	N47	0.384800	0.037040	0.606370
N481	N48	0.375600	0.380900	0.593500
Zn131	Zn13	0.838130	0.057650	0.570170
Zn141	Zn14	0.857330	0.244480	0.310920
Zn151	Zn15	0.649260	0.027860	0.413260
Zn161	Zn16	0.161870	0.442350	0.070170
Zn171	Zn17	0.142670	0.255520	0.810920
Zn181	Zn18	0.350740	0.472140	0.913260
Zn191	Zn19	0.338130	0.942350	0.929830
Zn201	Zn20	0.357330	0.755520	0.189080
Zn211	Zn21	0.149260	0.972140	0.086740
Zn221	Zn22	0.661870	0.557650	0.429830
Zn231	Zn23	0.642670	0.744480	0.689080
Zn241	Zn24	0.850740	0.527860	0.586740
H971	H97	0.038200	0.039300	0.545000
H981	H98	0.131900	0.059000	0.504600
H991	H99	0.896800	0.126700	0.470700
H1001	H100	0.808600	0.103800	0.511300
H1011	H101	0.342600	0.064900	0.469300
H1021	H102	0.499600	0.036000	0.461700
H1031	H103	0.500000	0.086400	0.381000
H1041	H104	0.343700	0.115800	0.386600
H1051	H105	0.155100	0.181500	0.362500
H1061	H106	0.067900	0.218000	0.325600
H1071	H107	0.819200	0.190100	0.364200
H1081	H108	0.898700	0.154000	0.403200
H1091	H109	0.080800	0.335000	0.771800
H1101	H110	0.018800	0.346300	0.725000
H1111	H111	0.968700	0.203800	0.720400
H1121	H112	0.027200	0.196800	0.768100
H1131	H113	0.920800	0.414800	0.670000
H1141	H114	0.892400	0.487600	0.646800
H1151	H115	0.882800	0.424700	0.570100
H1161	H116	0.905200	0.350000	0.591300
H1171	H117	0.874800	0.234900	0.587400
H1181	H118	0.843400	0.164900	0.561800
H1191	H119	0.912900	0.085800	0.629800
H1201	H120	0.940100	0.153700	0.658200
H1211	H121	0.961800	0.460700	0.045000
H1221	H122	0.868100	0.441000	0.004600
H1231	H123	0.103200	0.373300	0.970700
H1241	H124	0.191400	0.396200	0.011300
H1251	H125	0.657400	0.435100	0.969300
H1261	H126	0.500400	0.464000	0.961700
H1271	H127	0.500000	0.413600	0.881000
H1281	H128	0.656300	0.384200	0.886600
H1291	H129	0.844900	0.318500	0.862500
H1301	H130	0.932100	0.282000	0.825600
H1311	H131	0.180800	0.309900	0.864200
H1321	H132	0.101300	0.346000	0.903200
H1331	H133	0.919200	0.165000	0.271800
H1341	H134	0.981200	0.153700	0.225000
H1351	H135	0.031300	0.296200	0.220400
H1361	H136	0.972800	0.303200	0.268100
H1371	H137	0.079200	0.085200	0.170000
H1381	H138	0.107600	0.012400	0.146800
H1391	H139	0.117200	0.075300	0.070100
H1401	H140	0.094800	0.150000	0.091300
H1411	H141	0.125200	0.265100	0.087400
H1421	H142	0.156600	0.335100	0.061800
H1431	H143	0.087100	0.414200	0.129800
H1441	H144	0.059900	0.346300	0.158200
H1451	H145	0.538200	0.960700	0.955000
H1461	H146	0.631900	0.941000	0.995400
H1471	H147	0.396800	0.873300	0.029300
H1481	H148	0.308600	0.896200	0.988700
H1491	H149	0.842600	0.935100	0.030700
H1501	H150	0.999600	0.964000	0.038300
H1511	H151	0.000000	0.913600	0.119000
H1521	H152	0.843700	0.884200	0.113400
H1531	H153	0.655100	0.818500	0.137500
H1541	H154	0.567900	0.782000	0.174400
H1551	H155	0.319200	0.809900	0.135800
H1561	H156	0.398700	0.846000	0.096800
H1571	H157	0.580800	0.665000	0.728200
H1581	H158	0.518800	0.653700	0.775000
H1591	H159	0.468700	0.796200	0.779600
H1601	H160	0.527200	0.803200	0.731900
H1611	H161	0.420800	0.585200	0.830000
H1621	H162	0.392400	0.512400	0.853200
H1631	H163	0.382800	0.575300	0.929900
H1641	H164	0.405200	0.650000	0.908700
H1651	H165	0.374800	0.765100	0.912600
H1661	H166	0.343400	0.835100	0.938200
H1671	H167	0.412900	0.914200	0.870200
H1681	H168	0.440100	0.846300	0.841800
H1691	H169	0.461800	0.539300	0.455000
H1701	H170	0.368100	0.559000	0.495400
H1711	H171	0.603200	0.626700	0.529300
H1721	H172	0.691400	0.603800	0.488700
H1731	H173	0.157400	0.564900	0.530700
H1741	H174	0.000400	0.536000	0.538300
H1751	H175	0.000000	0.586400	0.619000
H1761	H176	0.156300	0.615800	0.613400
H1771	H177	0.344900	0.681500	0.637500
H1781	H178	0.432100	0.718000	0.674400
H1791	H179	0.680800	0.690100	0.635800
H1801	H180	0.601300	0.654000	0.596800
H1811	H181	0.419200	0.835000	0.228200
H1821	H182	0.481200	0.846300	0.275000
H1831	H183	0.531300	0.703800	0.279600
H1841	H184	0.472800	0.696800	0.231900
H1851	H185	0.579200	0.914800	0.330000
H1861	H186	0.607600	0.987600	0.353200
H1871	H187	0.617200	0.924700	0.429900
H1881	H188	0.594800	0.850000	0.408700
H1891	H189	0.625200	0.734900	0.412600
H1901	H190	0.656600	0.664900	0.438200
H1911	H191	0.587100	0.585800	0.370200
H1921	H192	0.559900	0.653700	0.341800
C1451	C145	0.009400	0.057400	0.529660
C1461	C146	0.066000	0.069500	0.505820
C1471	C147	0.025800	0.096700	0.483910
C1481	C148	0.927400	0.109100	0.485870
C1491	C149	0.875600	0.095300	0.510100
C1501	C150	0.083000	0.110400	0.457480
C1511	C151	0.223500	0.109500	0.431900
C1521	C152	0.088100	0.142400	0.412270
C1531	C153	0.325400	0.093400	0.428790
C1541	C154	0.373500	0.069500	0.450920
C1551	C155	0.467100	0.052100	0.446260
C1561	C156	0.467200	0.081600	0.399040
C1571	C157	0.374500	0.099400	0.402290
C1581	C158	0.036000	0.165000	0.387570
C1591	C159	0.086000	0.183500	0.363610
C1601	C160	0.033300	0.204800	0.341660
C1611	C161	0.888400	0.188800	0.364190
C1621	C162	0.935200	0.167100	0.387520
C1631	C163	0.058000	0.308000	0.761130
C1641	C164	0.021500	0.315000	0.733180
C1651	C165	0.989200	0.276200	0.717410
C1661	C166	0.991400	0.231300	0.730560
C1671	C167	0.027400	0.227400	0.758850
C1681	C168	0.958700	0.280900	0.686570
C1691	C169	0.925400	0.326600	0.646920
C1701	C170	0.922600	0.245800	0.643440
C1711	C171	0.913300	0.374300	0.632950
C1721	C172	0.911500	0.415900	0.649520
C1731	C173	0.895700	0.459200	0.635380
C1741	C174	0.889200	0.422600	0.590640
C1751	C175	0.902900	0.377900	0.603190
C1761	C176	0.908000	0.202000	0.625720
C1771	C177	0.881300	0.204600	0.596750
C1781	C178	0.864200	0.162800	0.581570
C1791	C179	0.903900	0.116500	0.621360
C1801	C180	0.920600	0.156700	0.638450
C1811	C181	0.990600	0.442600	0.029660
C1821	C182	0.934000	0.430500	0.005820
C1831	C183	0.974200	0.403300	0.983910
C1841	C184	0.072600	0.390900	0.985870
C1851	C185	0.124400	0.404700	0.010100
C1861	C186	0.917000	0.389600	0.957480
C1871	C187	0.776500	0.390500	0.931900
C1881	C188	0.911900	0.357600	0.912270
C1891	C189	0.674600	0.406600	0.928790
C1901	C190	0.626500	0.430500	0.950920
C1911	C191	0.532900	0.447900	0.946260
C1921	C192	0.532800	0.418400	0.899040
C1931	C193	0.625500	0.400600	0.902290
C1941	C194	0.964000	0.335000	0.887570
C1951	C195	0.914000	0.316500	0.863610
C1961	C196	0.966700	0.295200	0.841660
C1971	C197	0.111600	0.311200	0.864190
C1981	C198	0.064800	0.332900	0.887520
C1991	C199	0.942000	0.192000	0.261130
C2001	C200	0.978500	0.185000	0.233180
C2011	C201	0.010800	0.223800	0.217410
C2021	C202	0.008600	0.268700	0.230560
C2031	C203	0.972600	0.272600	0.258850
C2041	C204	0.041300	0.219100	0.186570
C2051	C205	0.074600	0.173400	0.146920
C2061	C206	0.077400	0.254200	0.143440
C2071	C207	0.086700	0.125700	0.132950
C2081	C208	0.088500	0.084100	0.149520
C2091	C209	0.104300	0.040800	0.135380
C2101	C210	0.110800	0.077400	0.090640
C2111	C211	0.097100	0.122100	0.103190
C2121	C212	0.092000	0.298000	0.125720
C2131	C213	0.118700	0.295400	0.096750
C2141	C214	0.135800	0.337200	0.081570
C2151	C215	0.096100	0.383500	0.121360
C2161	C216	0.079400	0.343300	0.138450
C2171	C217	0.509400	0.942600	0.970340
C2181	C218	0.566000	0.930500	0.994180
C2191	C219	0.525800	0.903300	0.016090
C2201	C220	0.427400	0.890900	0.014130
C2211	C221	0.375600	0.904700	0.989900
C2221	C222	0.583000	0.889600	0.042520
C2231	C223	0.723500	0.890500	0.068100
C2241	C224	0.588100	0.857600	0.087730
C2251	C225	0.825400	0.906600	0.071210
C2261	C226	0.873500	0.930500	0.049080
C2271	C227	0.967100	0.947900	0.053740
C2281	C228	0.967200	0.918400	0.100960
C2291	C229	0.874500	0.900600	0.097710
C2301	C230	0.536000	0.835000	0.112430
C2311	C231	0.586000	0.816500	0.136390
C2321	C232	0.533300	0.795200	0.158340
C2331	C233	0.388400	0.811200	0.135810
C2341	C234	0.435200	0.832900	0.112480
C2351	C235	0.558000	0.692000	0.738870
C2361	C236	0.521500	0.685000	0.766820
C2371	C237	0.489200	0.723800	0.782590
C2381	C238	0.491400	0.768700	0.769440
C2391	C239	0.527400	0.772600	0.741150
C2401	C240	0.458700	0.719100	0.813430
C2411	C241	0.425400	0.673400	0.853080
C2421	C242	0.422600	0.754200	0.856560
C2431	C243	0.413300	0.625700	0.867050
C2441	C244	0.411500	0.584100	0.850480
C2451	C245	0.395700	0.540800	0.864620
C2461	C246	0.389200	0.577400	0.909360
C2471	C247	0.402900	0.622100	0.896810
C2481	C248	0.408000	0.798000	0.874280
C2491	C249	0.381300	0.795400	0.903250
C2501	C250	0.364200	0.837200	0.918430
C2511	C251	0.403900	0.883500	0.878640
C2521	C252	0.420600	0.843300	0.861550
C2531	C253	0.490600	0.557400	0.470340
C2541	C254	0.434000	0.569500	0.494180
C2551	C255	0.474200	0.596700	0.516090
C2561	C256	0.572600	0.609100	0.514130
C2571	C257	0.624400	0.595300	0.489900
C2581	C258	0.417000	0.610400	0.542520
C2591	C259	0.276500	0.609500	0.568100
C2601	C260	0.411900	0.642400	0.587730
C2611	C261	0.174600	0.593400	0.571210
C2621	C262	0.126500	0.569500	0.549080
C2631	C263	0.032900	0.552100	0.553740
C2641	C264	0.032800	0.581600	0.600960
C2651	C265	0.125500	0.599400	0.597710
C2661	C266	0.464000	0.665000	0.612430
C2671	C267	0.414000	0.683500	0.636390
C2681	C268	0.466700	0.704800	0.658340
C2691	C269	0.611600	0.688800	0.635810
C2701	C270	0.564800	0.667100	0.612480
C2711	C271	0.442000	0.808000	0.238870
C2721	C272	0.478500	0.815000	0.266820
C2731	C273	0.510800	0.776200	0.282590
C2741	C274	0.508600	0.731300	0.269440
C2751	C275	0.472600	0.727400	0.241150
C2761	C276	0.541300	0.780900	0.313430
C2771	C277	0.574600	0.826600	0.353080
C2781	C278	0.577400	0.745800	0.356560
C2791	C279	0.586700	0.874300	0.367050
C2801	C280	0.588500	0.915900	0.350480
C2811	C281	0.604300	0.959200	0.364620
C2821	C282	0.610800	0.922600	0.409360
C2831	C283	0.597100	0.877900	0.396810
C2841	C284	0.592000	0.702000	0.374280
C2851	C285	0.618700	0.704600	0.403250
C2861	C286	0.635800	0.662800	0.418430
C2871	C287	0.596100	0.616500	0.378640
C2881	C288	0.579400	0.656700	0.361550
I251	I25	0.919480	0.989230	0.597390
I261	I26	0.657390	0.067610	0.558680
I271	I27	0.699140	0.197280	0.303620
I281	I28	0.849180	0.333410	0.323390
I291	I29	0.733500	0.077330	0.374010
I301	I30	0.724980	0.009960	0.462890
I311	I31	0.080520	0.510770	0.097390
I321	I32	0.342610	0.432390	0.058680
I331	I33	0.300860	0.302720	0.803620
I341	I34	0.150820	0.166590	0.823390
I351	I35	0.266500	0.422670	0.874010
I361	I36	0.275020	0.490040	0.962890
I371	I37	0.419480	0.010770	0.902610
I381	I38	0.157390	0.932390	0.941320
I391	I39	0.199140	0.802720	0.196380
I401	I40	0.349180	0.666590	0.176610
I411	I41	0.233500	0.922670	0.125990
I421	I42	0.224980	0.990040	0.037110
I431	I43	0.580520	0.489230	0.402610
I441	I44	0.842610	0.567610	0.441320
I451	I45	0.800860	0.697280	0.696380
I461	I46	0.650820	0.833410	0.676610
I471	I47	0.766500	0.577330	0.625990
I481	I48	0.775020	0.509960	0.537110
N491	N49	0.915100	0.070300	0.532120
N501	N50	0.177800	0.098300	0.456690
N511	N51	0.182900	0.132160	0.409190
N521	N52	0.034700	0.132400	0.435980
N531	N53	0.513400	0.057400	0.420480
N541	N54	0.936100	0.207800	0.341680
N551	N55	0.062000	0.264800	0.773340
N561	N56	0.949000	0.325360	0.675480
N571	N57	0.911900	0.288090	0.630080
N581	N58	0.946200	0.240060	0.671500
N591	N59	0.884800	0.462960	0.606370
N601	N60	0.875600	0.119100	0.593500
N611	N61	0.084900	0.429700	0.032120
N621	N62	0.822200	0.401700	0.956690
N631	N63	0.817100	0.367840	0.909190
N641	N64	0.965300	0.367600	0.935980
N651	N65	0.486600	0.442600	0.920480
N661	N66	0.063900	0.292200	0.841680
N671	N67	0.938000	0.235200	0.273340
N681	N68	0.051000	0.174640	0.175480
N691	N69	0.088100	0.211910	0.130080
N701	N70	0.053800	0.259940	0.171500
N711	N71	0.115200	0.037040	0.106370
N721	N72	0.124400	0.380900	0.093500
N731	N73	0.415100	0.929700	0.967880
N741	N74	0.677800	0.901700	0.043310
N751	N75	0.682900	0.867840	0.090810
N761	N76	0.534700	0.867600	0.064020
N771	N77	0.013400	0.942600	0.079520
N781	N78	0.436100	0.792200	0.158320
N791	N79	0.562000	0.735200	0.726660
N801	N80	0.449000	0.674640	0.824520
N811	N81	0.411900	0.711910	0.869920
N821	N82	0.446200	0.759940	0.828500
N831	N83	0.384800	0.537040	0.893630
N841	N84	0.375600	0.880900	0.906500
N851	N85	0.584900	0.570300	0.467880
N861	N86	0.322200	0.598300	0.543310
N871	N87	0.317100	0.632160	0.590810
N881	N88	0.465300	0.632400	0.564020
N891	N89	0.986600	0.557400	0.579520
N901	N90	0.563900	0.707800	0.658320
N911	N91	0.438000	0.764800	0.226660
N921	N92	0.551000	0.825360	0.324520
N931	N93	0.588100	0.788090	0.369920
N941	N94	0.553800	0.740060	0.328500
N951	N95	0.615200	0.962960	0.393630
N961	N96	0.624400	0.619100	0.406500
