data_XEGKEB_freeONLY_PM
_symmetry_space_group_name_H-M	'P1'
_cell_length_a	13.362000
_cell_length_b	19.486800
_cell_length_c	19.486800
_cell_angle_alpha	101.901000
_cell_angle_beta	93.039400
_cell_angle_gamma	93.039400
_symmetry_Int_Tables_number 1

loop_
_symmetry_equiv_pos_as_xyz
'x,y,z'

loop_
_atom_site_label
_atom_site_type_symbol
_atom_site_fract_x
_atom_site_fract_y
_atom_site_fract_z
Gd11	Gd1	0.352520	0.487460	0.963260
Gd21	Gd2	0.147480	0.036740	0.512540
Gd31	Gd3	0.647480	0.512540	0.036740
Gd41	Gd4	0.852520	0.963260	0.487460
H11	H1	0.569000	0.386000	0.197000
H21	H2	0.299500	0.332000	0.098600
H31	H3	0.286500	0.248200	0.444200
H41	H4	0.340100	0.073000	0.308800
H51	H5	0.673300	0.349400	0.932200
H61	H6	0.493800	0.337400	0.759400
H71	H7	0.250000	0.462000	0.116800
H81	H8	0.052300	0.537500	0.058700
H91	H9	0.975300	0.487400	0.086000
H101	H10	0.017200	0.558300	0.135300
H111	H11	0.152000	0.466000	0.216800
H121	H12	0.036500	0.472800	0.204000
H131	H13	0.085800	0.404500	0.167900
H141	H14	0.242800	0.349200	0.843600
H151	H15	0.031600	0.295000	0.939800
H161	H16	0.088100	0.245700	0.980700
H171	H17	0.104600	0.327500	0.005500
H181	H18	0.205700	0.241300	0.817700
H191	H19	0.104200	0.213700	0.842300
H201	H20	0.112300	0.286900	0.820900
H211	H21	0.931000	0.803000	0.614000
H221	H22	0.200500	0.901400	0.668000
H231	H23	0.213500	0.555800	0.751800
H241	H24	0.159900	0.691200	0.927000
H251	H25	0.826700	0.067800	0.650600
H261	H26	0.006200	0.240600	0.662600
H271	H27	0.250000	0.883200	0.538000
H281	H28	0.447700	0.941300	0.462500
H291	H29	0.524700	0.914000	0.512600
H301	H30	0.482800	0.864700	0.441700
H311	H31	0.348000	0.783200	0.534000
H321	H32	0.463500	0.796000	0.527200
H331	H33	0.414200	0.832100	0.595500
H341	H34	0.257200	0.156400	0.650800
H351	H35	0.468400	0.060200	0.705000
H361	H36	0.411900	0.019300	0.754300
H371	H37	0.395400	0.994500	0.672500
H381	H38	0.294300	0.182300	0.758700
H391	H39	0.395800	0.157700	0.786300
H401	H40	0.387700	0.179100	0.713100
H411	H41	0.431000	0.614000	0.803000
H421	H42	0.700500	0.668000	0.901400
H431	H43	0.713500	0.751800	0.555800
H441	H44	0.659900	0.927000	0.691200
H451	H45	0.326700	0.650600	0.067800
H461	H46	0.506200	0.662600	0.240600
H471	H47	0.750000	0.538000	0.883200
H481	H48	0.947700	0.462500	0.941300
H491	H49	0.024700	0.512600	0.914000
H501	H50	0.982800	0.441700	0.864700
H511	H51	0.848000	0.534000	0.783200
H521	H52	0.963500	0.527200	0.796000
H531	H53	0.914200	0.595500	0.832100
H541	H54	0.757200	0.650800	0.156400
H551	H55	0.968400	0.705000	0.060200
H561	H56	0.911900	0.754300	0.019300
H571	H57	0.895400	0.672500	0.994500
H581	H58	0.794300	0.758700	0.182300
H591	H59	0.895800	0.786300	0.157700
H601	H60	0.887700	0.713100	0.179100
H611	H61	0.069000	0.197000	0.386000
H621	H62	0.799500	0.098600	0.332000
H631	H63	0.786500	0.444200	0.248200
H641	H64	0.840100	0.308800	0.073000
H651	H65	0.173300	0.932200	0.349400
H661	H66	0.993800	0.759400	0.337400
H671	H67	0.750000	0.116800	0.462000
H681	H68	0.552300	0.058700	0.537500
H691	H69	0.475300	0.086000	0.487400
H701	H70	0.517200	0.135300	0.558300
H711	H71	0.652000	0.216800	0.466000
H721	H72	0.536500	0.204000	0.472800
H731	H73	0.585800	0.167900	0.404500
H741	H74	0.742800	0.843600	0.349200
H751	H75	0.531600	0.939800	0.295000
H761	H76	0.588100	0.980700	0.245700
H771	H77	0.604600	0.005500	0.327500
H781	H78	0.705700	0.817700	0.241300
H791	H79	0.604200	0.842300	0.213700
H801	H80	0.612300	0.820900	0.286900
C11	C1	0.460000	0.412500	0.087700
C21	C2	0.438100	0.364600	0.139200
C31	C3	0.507400	0.360400	0.192000
C41	C4	0.483700	0.317100	0.237700
C51	C5	0.393300	0.276700	0.234300
C61	C6	0.321700	0.288000	0.181400
C71	C7	0.346400	0.328700	0.134500
C81	C8	0.367500	0.234300	0.287700
C91	C9	0.333200	0.263800	0.351600
C101	C10	0.304900	0.225300	0.400300
C111	C11	0.304000	0.153100	0.383700
C121	C12	0.339600	0.121700	0.321100
C131	C13	0.375200	0.163000	0.275800
C141	C14	0.262600	0.109900	0.433300
C151	C15	0.506000	0.400400	0.895400
C161	C16	0.576500	0.355400	0.851800
C171	C17	0.660600	0.335500	0.883700
C181	C18	0.727600	0.294200	0.843400
C191	C19	0.713000	0.274800	0.770600
C201	C20	0.623000	0.291800	0.741800
C211	C21	0.555000	0.329400	0.780600
C221	C22	0.203000	0.486500	0.096900
C231	C23	0.033000	0.519000	0.099000
C241	C24	0.096000	0.454600	0.183000
C251	C25	0.223800	0.348200	0.888600
C261	C26	0.093000	0.289400	0.965400
C271	C27	0.147600	0.254700	0.842900
C281	C28	0.040000	0.912300	0.587500
C291	C29	0.061900	0.860800	0.635400
C301	C30	0.992600	0.808000	0.639600
C311	C31	0.016300	0.762300	0.682900
C321	C32	0.106700	0.765700	0.723300
C331	C33	0.178300	0.818600	0.712000
C341	C34	0.153600	0.865500	0.671300
C351	C35	0.132500	0.712300	0.765700
C361	C36	0.166800	0.648400	0.736200
C371	C37	0.195100	0.599700	0.774700
C381	C38	0.196000	0.616300	0.846900
C391	C39	0.160400	0.678900	0.878300
C401	C40	0.124800	0.724200	0.837000
C411	C41	0.237400	0.566700	0.890100
C421	C42	0.994000	0.104600	0.599600
C431	C43	0.923500	0.148200	0.644600
C441	C44	0.839400	0.116300	0.664500
C451	C45	0.772400	0.156600	0.705800
C461	C46	0.787000	0.229400	0.725200
C471	C47	0.877000	0.258200	0.708200
C481	C48	0.945000	0.219400	0.670600
C491	C49	0.297000	0.903100	0.513500
C501	C50	0.467000	0.901000	0.481000
C511	C51	0.404000	0.817000	0.545400
C521	C52	0.276200	0.111400	0.651800
C531	C53	0.407000	0.034600	0.710600
C541	C54	0.352400	0.157100	0.745300
C551	C55	0.540000	0.587500	0.912300
C561	C56	0.561900	0.635400	0.860800
C571	C57	0.492600	0.639600	0.808000
C581	C58	0.516300	0.682900	0.762300
C591	C59	0.606700	0.723300	0.765700
C601	C60	0.678300	0.712000	0.818600
C611	C61	0.653600	0.671300	0.865500
C621	C62	0.632500	0.765700	0.712300
C631	C63	0.666800	0.736200	0.648400
C641	C64	0.695100	0.774700	0.599700
C651	C65	0.696000	0.846900	0.616300
C661	C66	0.660400	0.878300	0.678900
C671	C67	0.624800	0.837000	0.724200
C681	C68	0.737400	0.890100	0.566700
C691	C69	0.494000	0.599600	0.104600
C701	C70	0.423500	0.644600	0.148200
C711	C71	0.339400	0.664500	0.116300
C721	C72	0.272400	0.705800	0.156600
C731	C73	0.287000	0.725200	0.229400
C741	C74	0.377000	0.708200	0.258200
C751	C75	0.445000	0.670600	0.219400
C761	C76	0.797000	0.513500	0.903100
C771	C77	0.967000	0.481000	0.901000
C781	C78	0.904000	0.545400	0.817000
C791	C79	0.776200	0.651800	0.111400
C801	C80	0.907000	0.710600	0.034600
C811	C81	0.852400	0.745300	0.157100
C821	C82	0.960000	0.087700	0.412500
C831	C83	0.938100	0.139200	0.364600
C841	C84	0.007400	0.192000	0.360400
C851	C85	0.983700	0.237700	0.317100
C861	C86	0.893300	0.234300	0.276700
C871	C87	0.821700	0.181400	0.288000
C881	C88	0.846400	0.134500	0.328700
C891	C89	0.867500	0.287700	0.234300
C901	C90	0.833200	0.351600	0.263800
C911	C91	0.804900	0.400300	0.225300
C921	C92	0.804000	0.383700	0.153100
C931	C93	0.839600	0.321100	0.121700
C941	C94	0.875200	0.275800	0.163000
C951	C95	0.762600	0.433300	0.109900
C961	C96	0.006000	0.895400	0.400400
C971	C97	0.076500	0.851800	0.355400
C981	C98	0.160600	0.883700	0.335500
C991	C99	0.227600	0.843400	0.294200
C1001	C100	0.213000	0.770600	0.274800
C1011	C101	0.123000	0.741800	0.291800
C1021	C102	0.055000	0.780600	0.329400
C1031	C103	0.703000	0.096900	0.486500
C1041	C104	0.533000	0.099000	0.519000
C1051	C105	0.596000	0.183000	0.454600
C1061	C106	0.723800	0.888600	0.348200
C1071	C107	0.593000	0.965400	0.289400
C1081	C108	0.647600	0.842900	0.254700
N11	N1	0.559400	0.316300	0.295900
N21	N2	0.223000	0.252800	0.173400
N31	N3	0.329300	0.342900	0.375500
N41	N4	0.414700	0.127200	0.211800
N51	N5	0.816900	0.274200	0.878400
N61	N6	0.602000	0.272200	0.662800
N71	N7	0.114000	0.484800	0.124000
N81	N8	0.179900	0.289600	0.917800
N91	N9	0.940600	0.704100	0.683700
N101	N10	0.277000	0.826600	0.747200
N111	N11	0.170700	0.624500	0.657100
N121	N12	0.085300	0.788200	0.872800
N131	N13	0.683100	0.121600	0.725800
N141	N14	0.898000	0.337200	0.727800
N151	N15	0.386000	0.876000	0.515200
N161	N16	0.320100	0.082200	0.710400
N171	N17	0.440600	0.683700	0.704100
N181	N18	0.777000	0.747200	0.826600
N191	N19	0.670700	0.657100	0.624500
N201	N20	0.585300	0.872800	0.788200
N211	N21	0.183100	0.725800	0.121600
N221	N22	0.398000	0.727800	0.337200
N231	N23	0.886000	0.515200	0.876000
N241	N24	0.820100	0.710400	0.082200
N251	N25	0.059400	0.295900	0.316300
N261	N26	0.723000	0.173400	0.252800
N271	N27	0.829300	0.375500	0.342900
N281	N28	0.914700	0.211800	0.127200
N291	N29	0.316900	0.878400	0.274200
N301	N30	0.102000	0.662800	0.272200
N311	N31	0.614000	0.124000	0.484800
N321	N32	0.679900	0.917800	0.289600
O11	O1	0.389800	0.416900	0.045100
O21	O2	0.545400	0.444000	0.098200
O31	O3	0.250800	0.139200	0.494200
O41	O4	0.236100	0.047900	0.407100
O51	O5	0.619000	0.365700	0.310300
O61	O6	0.552200	0.285200	0.336600
O71	O7	0.158700	0.273700	0.140500
O81	O8	0.203000	0.208900	0.207100
O91	O9	0.318000	0.375700	0.329900
O101	O10	0.335000	0.366900	0.439100
O111	O11	0.452000	0.157400	0.171400
O121	O12	0.425000	0.064300	0.204700
O131	O13	0.415900	0.399100	0.870100
O141	O14	0.538800	0.439300	0.952100
O151	O15	0.818000	0.274600	0.937000
O161	O16	0.892000	0.271800	0.852200
O171	O17	0.670000	0.261600	0.623600
O181	O18	0.517000	0.268300	0.641300
O191	O19	0.232900	0.513000	0.052200
O201	O20	0.227200	0.393800	0.940400
O211	O21	0.110200	0.954900	0.583100
O221	O22	0.954600	0.901800	0.556000
O231	O23	0.249200	0.505800	0.860800
O241	O24	0.263900	0.592900	0.952100
O251	O25	0.881000	0.689700	0.634300
O261	O26	0.947800	0.663400	0.714800
O271	O27	0.341300	0.859500	0.726300
O281	O28	0.297000	0.792900	0.791100
O291	O29	0.182000	0.670100	0.624300
O301	O30	0.165000	0.560900	0.633100
O311	O31	0.048000	0.828600	0.842600
O321	O32	0.075000	0.795300	0.935700
O331	O33	0.084100	0.129900	0.600900
O341	O34	0.961200	0.047900	0.560700
O351	O35	0.682000	0.063000	0.725400
O361	O36	0.608000	0.147800	0.728200
O371	O37	0.830000	0.376400	0.738400
O381	O38	0.983000	0.358700	0.731700
O391	O39	0.267100	0.947800	0.487000
O401	O40	0.272800	0.059600	0.606200
O411	O41	0.610200	0.583100	0.954900
O421	O42	0.454600	0.556000	0.901800
O431	O43	0.749200	0.860800	0.505800
O441	O44	0.763900	0.952100	0.592900
O451	O45	0.381000	0.634300	0.689700
O461	O46	0.447800	0.714800	0.663400
O471	O47	0.841300	0.726300	0.859500
O481	O48	0.797000	0.791100	0.792900
O491	O49	0.682000	0.624300	0.670100
O501	O50	0.665000	0.633100	0.560900
O511	O51	0.548000	0.842600	0.828600
O521	O52	0.575000	0.935700	0.795300
O531	O53	0.584100	0.600900	0.129900
O541	O54	0.461200	0.560700	0.047900
O551	O55	0.182000	0.725400	0.063000
O561	O56	0.108000	0.728200	0.147800
O571	O57	0.330000	0.738400	0.376400
O581	O58	0.483000	0.731700	0.358700
O591	O59	0.767100	0.487000	0.947800
O601	O60	0.772800	0.606200	0.059600
O611	O61	0.889800	0.045100	0.416900
O621	O62	0.045400	0.098200	0.444000
O631	O63	0.750800	0.494200	0.139200
O641	O64	0.736100	0.407100	0.047900
O651	O65	0.119000	0.310300	0.365700
O661	O66	0.052200	0.336600	0.285200
O671	O67	0.658700	0.140500	0.273700
O681	O68	0.703000	0.207100	0.208900
O691	O69	0.818000	0.329900	0.375700
O701	O70	0.835000	0.439100	0.366900
O711	O71	0.952000	0.171400	0.157400
O721	O72	0.925000	0.204700	0.064300
O731	O73	0.915900	0.870100	0.399100
O741	O74	0.038800	0.952100	0.439300
O751	O75	0.318000	0.937000	0.274600
O761	O76	0.392000	0.852200	0.271800
O771	O77	0.170000	0.623600	0.261600
O781	O78	0.017000	0.641300	0.268300
O791	O79	0.732900	0.052200	0.513000
O801	O80	0.727200	0.940400	0.393800
