data_XEGKOL_freeONLY_PM
_symmetry_space_group_name_H-M	'P1'
_cell_length_a	14.636000
_cell_length_b	19.266200
_cell_length_c	19.266200
_cell_angle_alpha	101.241000
_cell_angle_beta	92.700000
_cell_angle_gamma	92.700000
_symmetry_Int_Tables_number 1

loop_
_symmetry_equiv_pos_as_xyz
'x,y,z'

loop_
_atom_site_label
_atom_site_type_symbol
_atom_site_fract_x
_atom_site_fract_y
_atom_site_fract_z
Gd11	Gd1	0.368750	0.455270	0.982470
Gd21	Gd2	0.131250	0.017530	0.544730
Gd31	Gd3	0.631250	0.544730	0.017530
Gd41	Gd4	0.868750	0.982470	0.455270
H11	H1	0.447400	0.309300	0.132100
H21	H2	0.696500	0.406600	0.165400
H31	H3	0.758000	0.058300	0.237900
H41	H4	0.672700	0.174100	0.417900
H51	H5	0.685700	0.430500	0.859700
H61	H6	0.516100	0.258000	0.841600
H71	H7	0.255400	0.470800	0.822000
H81	H8	0.109900	0.342100	0.866900
H91	H9	0.075900	0.325300	0.786700
H101	H10	0.017600	0.370900	0.842900
H111	H11	0.150900	0.491200	0.747800
H121	H12	0.050400	0.489600	0.772400
H131	H13	0.083900	0.424900	0.719100
H141	H14	0.143300	0.489400	0.996000
H151	H15	0.027600	0.560200	0.985400
H161	H16	0.215600	0.716300	0.977700
H171	H17	0.326400	0.638700	0.988100
H181	H18	0.050200	0.744100	0.976900
H191	H19	0.052600	0.867900	0.690700
H201	H20	0.803500	0.834600	0.593400
H211	H21	0.742000	0.762100	0.941700
H221	H22	0.827300	0.582100	0.825900
H231	H23	0.814300	0.140300	0.569500
H241	H24	0.983900	0.158400	0.742000
H251	H25	0.244600	0.178000	0.529200
H261	H26	0.390100	0.133100	0.657900
H271	H27	0.424100	0.213300	0.674700
H281	H28	0.482400	0.157100	0.629100
H291	H29	0.349100	0.252200	0.508800
H301	H30	0.449600	0.227600	0.510400
H311	H31	0.416100	0.280900	0.575100
H321	H32	0.356700	0.004000	0.510600
H331	H33	0.472400	0.014600	0.439800
H341	H34	0.284400	0.022300	0.283700
H351	H35	0.173600	0.011900	0.361300
H361	H36	0.449800	0.023100	0.255900
H371	H37	0.552600	0.690700	0.867900
H381	H38	0.303500	0.593400	0.834600
H391	H39	0.242000	0.941700	0.762100
H401	H40	0.327300	0.825900	0.582100
H411	H41	0.314300	0.569500	0.140300
H421	H42	0.483900	0.742000	0.158400
H431	H43	0.744600	0.529200	0.178000
H441	H44	0.890100	0.657900	0.133100
H451	H45	0.924100	0.674700	0.213300
H461	H46	0.982400	0.629100	0.157100
H471	H47	0.849100	0.508800	0.252200
H481	H48	0.949600	0.510400	0.227600
H491	H49	0.916100	0.575100	0.280900
H501	H50	0.856700	0.510600	0.004000
H511	H51	0.972400	0.439800	0.014600
H521	H52	0.784400	0.283700	0.022300
H531	H53	0.673600	0.361300	0.011900
H541	H54	0.949800	0.255900	0.023100
H551	H55	0.947400	0.132100	0.309300
H561	H56	0.196500	0.165400	0.406600
H571	H57	0.258000	0.237900	0.058300
H581	H58	0.172700	0.417900	0.174100
H591	H59	0.185700	0.859700	0.430500
H601	H60	0.016100	0.841600	0.258000
H611	H61	0.755400	0.822000	0.470800
H621	H62	0.609900	0.866900	0.342100
H631	H63	0.575900	0.786700	0.325300
H641	H64	0.517600	0.842900	0.370900
H651	H65	0.650900	0.747800	0.491200
H661	H66	0.550400	0.772400	0.489600
H671	H67	0.583900	0.719100	0.424900
H681	H68	0.643300	0.996000	0.489400
H691	H69	0.527600	0.985400	0.560200
H701	H70	0.715600	0.977700	0.716300
H711	H71	0.826400	0.988100	0.638700
H721	H72	0.550200	0.976900	0.744100
C11	C1	0.539000	0.421500	0.099900
C21	C2	0.567100	0.368200	0.141800
C31	C3	0.507700	0.312500	0.150500
C41	C4	0.539100	0.260900	0.187300
C51	C5	0.626600	0.263000	0.216800
C61	C6	0.684500	0.318000	0.205600
C71	C7	0.655300	0.369900	0.170100
C81	C8	0.658200	0.206300	0.256100
C91	C9	0.699800	0.148400	0.225400
C101	C10	0.731800	0.098600	0.261800
C111	C11	0.724400	0.109400	0.335000
C121	C12	0.680700	0.167300	0.369500
C131	C13	0.649400	0.214300	0.330500
C141	C14	0.766300	0.059400	0.377400
C151	C15	0.523700	0.391400	0.905200
C161	C16	0.591900	0.350600	0.858200
C171	C17	0.671600	0.382400	0.842800
C181	C18	0.731600	0.340300	0.800500
C191	C19	0.716400	0.270000	0.775000
C201	C20	0.634700	0.238700	0.791100
C211	C21	0.571300	0.279100	0.832100
C221	C22	0.218000	0.442200	0.844000
C231	C23	0.079000	0.360200	0.829800
C241	C24	0.102000	0.461600	0.759400
C251	C25	0.158300	0.535800	0.991800
C261	C26	0.088100	0.577600	0.985800
C271	C27	0.109000	0.647700	0.980300
C281	C28	0.199100	0.670000	0.981200
C291	C29	0.265400	0.622500	0.987300
C301	C30	0.034400	0.697200	0.978800
C311	C31	0.961000	0.900100	0.578500
C321	C32	0.932900	0.858200	0.631800
C331	C33	0.992300	0.849500	0.687500
C341	C34	0.960900	0.812700	0.739100
C351	C35	0.873400	0.783200	0.737000
C361	C36	0.815500	0.794400	0.682000
C371	C37	0.844700	0.829900	0.630100
C381	C38	0.841800	0.743900	0.793700
C391	C39	0.800200	0.774600	0.851600
C401	C40	0.768200	0.738200	0.901400
C411	C41	0.775600	0.665000	0.890600
C421	C42	0.819300	0.630500	0.832700
C431	C43	0.850600	0.669500	0.785700
C441	C44	0.733700	0.622600	0.940600
C451	C45	0.976300	0.094800	0.608600
C461	C46	0.908100	0.141800	0.649400
C471	C47	0.828400	0.157200	0.617600
C481	C48	0.768400	0.199500	0.659700
C491	C49	0.783600	0.225000	0.730000
C501	C50	0.865300	0.208900	0.761300
C511	C51	0.928700	0.167900	0.720900
C521	C52	0.282000	0.156000	0.557800
C531	C53	0.421000	0.170200	0.639800
C541	C54	0.398000	0.240600	0.538400
C551	C55	0.341700	0.008200	0.464200
C561	C56	0.411900	0.014200	0.422400
C571	C57	0.391000	0.019700	0.352300
C581	C58	0.300900	0.018800	0.330000
C591	C59	0.234600	0.012700	0.377500
C601	C60	0.465600	0.021200	0.302800
C611	C61	0.461000	0.578500	0.900100
C621	C62	0.432900	0.631800	0.858200
C631	C63	0.492300	0.687500	0.849500
C641	C64	0.460900	0.739100	0.812700
C651	C65	0.373400	0.737000	0.783200
C661	C66	0.315500	0.682000	0.794400
C671	C67	0.344700	0.630100	0.829900
C681	C68	0.341800	0.793700	0.743900
C691	C69	0.300200	0.851600	0.774600
C701	C70	0.268200	0.901400	0.738200
C711	C71	0.275600	0.890600	0.665000
C721	C72	0.319300	0.832700	0.630500
C731	C73	0.350600	0.785700	0.669500
C741	C74	0.233700	0.940600	0.622600
C751	C75	0.476300	0.608600	0.094800
C761	C76	0.408100	0.649400	0.141800
C771	C77	0.328400	0.617600	0.157200
C781	C78	0.268400	0.659700	0.199500
C791	C79	0.283600	0.730000	0.225000
C801	C80	0.365300	0.761300	0.208900
C811	C81	0.428700	0.720900	0.167900
C821	C82	0.782000	0.557800	0.156000
C831	C83	0.921000	0.639800	0.170200
C841	C84	0.898000	0.538400	0.240600
C851	C85	0.841700	0.464200	0.008200
C861	C86	0.911900	0.422400	0.014200
C871	C87	0.891000	0.352300	0.019700
C881	C88	0.800900	0.330000	0.018800
C891	C89	0.734600	0.377500	0.012700
C901	C90	0.965600	0.302800	0.021200
C911	C91	0.039000	0.099900	0.421500
C921	C92	0.067100	0.141800	0.368200
C931	C93	0.007700	0.150500	0.312500
C941	C94	0.039100	0.187300	0.260900
C951	C95	0.126600	0.216800	0.263000
C961	C96	0.184500	0.205600	0.318000
C971	C97	0.155300	0.170100	0.369900
C981	C98	0.158200	0.256100	0.206300
C991	C99	0.199800	0.225400	0.148400
C1001	C100	0.231800	0.261800	0.098600
C1011	C101	0.224400	0.335000	0.109400
C1021	C102	0.180700	0.369500	0.167300
C1031	C103	0.149400	0.330500	0.214300
C1041	C104	0.266300	0.377400	0.059400
C1051	C105	0.023700	0.905200	0.391400
C1061	C106	0.091900	0.858200	0.350600
C1071	C107	0.171600	0.842800	0.382400
C1081	C108	0.231600	0.800500	0.340300
C1091	C109	0.216400	0.775000	0.270000
C1101	C110	0.134700	0.791100	0.238700
C1111	C111	0.071300	0.832100	0.279100
C1121	C112	0.718000	0.844000	0.442200
C1131	C113	0.579000	0.829800	0.360200
C1141	C114	0.602000	0.759400	0.461600
C1151	C115	0.658300	0.991800	0.535800
C1161	C116	0.588100	0.985800	0.577600
C1171	C117	0.609000	0.980300	0.647700
C1181	C118	0.699100	0.981200	0.670000
C1191	C119	0.765400	0.987300	0.622500
C1201	C120	0.534400	0.978800	0.697200
N11	N1	0.468400	0.204800	0.194800
N21	N2	0.782200	0.324300	0.229900
N31	N3	0.714400	0.132800	0.147800
N41	N4	0.600300	0.272800	0.368400
N51	N5	0.815700	0.379700	0.784100
N61	N6	0.611900	0.163100	0.772300
N71	N7	0.132000	0.429700	0.818500
N81	N8	0.248400	0.555000	0.992200
N91	N9	0.031600	0.805200	0.795200
N101	N10	0.717800	0.770100	0.675700
N111	N11	0.785600	0.852200	0.867200
N121	N12	0.899700	0.631600	0.727200
N131	N13	0.684300	0.215900	0.620300
N141	N14	0.888100	0.227700	0.836900
N151	N15	0.368000	0.181500	0.570300
N161	N16	0.251600	0.007800	0.445000
N171	N17	0.531600	0.795200	0.805200
N181	N18	0.217800	0.675700	0.770100
N191	N19	0.285600	0.867200	0.852200
N201	N20	0.399700	0.727200	0.631600
N211	N21	0.184300	0.620300	0.215900
N221	N22	0.388100	0.836900	0.227700
N231	N23	0.868000	0.570300	0.181500
N241	N24	0.751600	0.445000	0.007800
N251	N25	0.968400	0.194800	0.204800
N261	N26	0.282200	0.229900	0.324300
N271	N27	0.214400	0.147800	0.132800
N281	N28	0.100300	0.368400	0.272800
N291	N29	0.315700	0.784100	0.379700
N301	N30	0.111900	0.772300	0.163100
N311	N31	0.632000	0.818500	0.429700
N321	N32	0.748400	0.992200	0.555000
O11	O1	0.461900	0.409300	0.067900
O21	O2	0.594800	0.471800	0.099200
O31	O3	0.767600	0.075000	0.443800
O41	O4	0.795700	0.003600	0.344400
O51	O5	0.406300	0.190600	0.149600
O61	O6	0.477000	0.177300	0.245300
O71	O7	0.833100	0.365800	0.205600
O81	O8	0.808000	0.287200	0.269800
O91	O9	0.709900	0.183100	0.116500
O101	O10	0.733600	0.073100	0.120500
O111	O11	0.599000	0.328500	0.346700
O121	O12	0.563300	0.264500	0.422500
O131	O13	0.553300	0.447300	0.946500
O141	O14	0.443800	0.367300	0.900300
O151	O15	0.848100	0.427100	0.829100
O161	O16	0.849800	0.358000	0.728800
O171	O17	0.677100	0.124200	0.773800
O181	O18	0.539600	0.139600	0.765400
O191	O19	0.253300	0.420100	0.893300
O201	O20	0.953800	0.679500	0.979900
O211	O21	0.038100	0.932100	0.590700
O221	O22	0.905200	0.900800	0.528200
O231	O23	0.732400	0.556200	0.925000
O241	O24	0.704300	0.655600	0.996400
O251	O25	0.093700	0.850400	0.809400
O261	O26	0.023000	0.754700	0.822700
O271	O27	0.666900	0.794400	0.634200
O281	O28	0.692000	0.730200	0.712800
O291	O29	0.790100	0.883500	0.816900
O301	O30	0.766400	0.879500	0.926900
O311	O31	0.901000	0.653300	0.671500
O321	O32	0.936700	0.577500	0.735500
O331	O33	0.946700	0.053500	0.552700
O341	O34	0.056200	0.099700	0.632700
O351	O35	0.651900	0.170900	0.572900
O361	O36	0.650200	0.271200	0.642000
O371	O37	0.822900	0.226200	0.875800
O381	O38	0.960400	0.234600	0.860400
O391	O39	0.246700	0.106700	0.579900
O401	O40	0.546200	0.020100	0.320500
O411	O41	0.538100	0.590700	0.932100
O421	O42	0.405200	0.528200	0.900800
O431	O43	0.232400	0.925000	0.556200
O441	O44	0.204300	0.996400	0.655600
O451	O45	0.593700	0.809400	0.850400
O461	O46	0.523000	0.822700	0.754700
O471	O47	0.166900	0.634200	0.794400
O481	O48	0.192000	0.712800	0.730200
O491	O49	0.290100	0.816900	0.883500
O501	O50	0.266400	0.926900	0.879500
O511	O51	0.401000	0.671500	0.653300
O521	O52	0.436700	0.735500	0.577500
O531	O53	0.446700	0.552700	0.053500
O541	O54	0.556200	0.632700	0.099700
O551	O55	0.151900	0.572900	0.170900
O561	O56	0.150200	0.642000	0.271200
O571	O57	0.322900	0.875800	0.226200
O581	O58	0.460400	0.860400	0.234600
O591	O59	0.746700	0.579900	0.106700
O601	O60	0.046200	0.320500	0.020100
O611	O61	0.961900	0.067900	0.409300
O621	O62	0.094800	0.099200	0.471800
O631	O63	0.267600	0.443800	0.075000
O641	O64	0.295700	0.344400	0.003600
O651	O65	0.906300	0.149600	0.190600
O661	O66	0.977000	0.245300	0.177300
O671	O67	0.333100	0.205600	0.365800
O681	O68	0.308000	0.269800	0.287200
O691	O69	0.209900	0.116500	0.183100
O701	O70	0.233600	0.120500	0.073100
O711	O71	0.099000	0.346700	0.328500
O721	O72	0.063300	0.422500	0.264500
O731	O73	0.053300	0.946500	0.447300
O741	O74	0.943800	0.900300	0.367300
O751	O75	0.348100	0.829100	0.427100
O761	O76	0.349800	0.728800	0.358000
O771	O77	0.177100	0.773800	0.124200
O781	O78	0.039600	0.765400	0.139600
O791	O79	0.753300	0.893300	0.420100
O801	O80	0.453800	0.979900	0.679500
