data_XEHSIN_freeONLY_PM
_symmetry_space_group_name_H-M	'P1'
_cell_length_a	9.818400
_cell_length_b	11.296200
_cell_length_c	14.584700
_cell_angle_alpha	91.662000
_cell_angle_beta	90.000000
_cell_angle_gamma	90.000000
_symmetry_Int_Tables_number 1

loop_
_symmetry_equiv_pos_as_xyz
'x,y,z'

loop_
_atom_site_label
_atom_site_type_symbol
_atom_site_fract_x
_atom_site_fract_y
_atom_site_fract_z
Mg11	Mg1	0.579600	0.743550	0.364890
Mg21	Mg2	0.388860	0.759830	0.190740
Mg31	Mg3	0.079600	0.756450	0.135110
Mg41	Mg4	0.888860	0.740170	0.309260
Mg51	Mg5	0.420400	0.256450	0.635110
Mg61	Mg6	0.611140	0.240170	0.809260
Mg71	Mg7	0.920400	0.243550	0.864890
Mg81	Mg8	0.111140	0.259830	0.690740
Mg91	Mg9	0.500000	0.000000	0.500000
Mg101	Mg10	0.000000	0.500000	0.000000
Mg111	Mg11	0.500000	0.500000	0.500000
Mg121	Mg12	0.000000	0.000000	0.000000
H11	H1	0.455000	0.023300	0.238100
H21	H2	0.881200	0.946400	0.451100
H31	H3	0.795100	0.505800	0.483000
H41	H4	0.741000	0.639300	0.130700
H51	H5	0.342600	0.804700	0.570000
H61	H6	0.299900	0.522400	0.272700
H71	H7	0.955000	0.476700	0.261900
H81	H8	0.381200	0.553600	0.048900
H91	H9	0.295100	0.994200	0.017000
H101	H10	0.241000	0.860700	0.369300
H111	H11	0.842600	0.695300	0.930000
H121	H12	0.799900	0.977600	0.227300
H131	H13	0.545000	0.976700	0.761900
H141	H14	0.118800	0.053600	0.548900
H151	H15	0.204900	0.494200	0.517000
H161	H16	0.259000	0.360700	0.869300
H171	H17	0.657400	0.195300	0.430000
H181	H18	0.700100	0.477600	0.727300
H191	H19	0.045000	0.523300	0.738100
H201	H20	0.618800	0.446400	0.951100
H211	H21	0.704900	0.005800	0.983000
H221	H22	0.759000	0.139300	0.630700
H231	H23	0.157400	0.304700	0.070000
H241	H24	0.200100	0.022400	0.772700
C11	C1	0.479500	0.980600	0.290800
C21	C2	0.787400	0.926600	0.445450
C31	C3	0.776100	0.568700	0.443080
C41	C4	0.670700	0.670300	0.169210
C51	C5	0.400200	0.759300	0.530250
C61	C6	0.364800	0.549900	0.316670
C71	C7	0.979500	0.519400	0.209200
C81	C8	0.287400	0.573400	0.054550
C91	C9	0.276100	0.931300	0.056920
C101	C10	0.170700	0.829700	0.330790
C111	C11	0.900200	0.740700	0.969750
C121	C12	0.864800	0.950100	0.183330
C131	C13	0.520500	0.019400	0.709200
C141	C14	0.212600	0.073400	0.554550
C151	C15	0.223900	0.431300	0.556920
C161	C16	0.329300	0.329700	0.830790
C171	C17	0.599800	0.240700	0.469750
C181	C18	0.635200	0.450100	0.683330
C191	C19	0.020500	0.480600	0.790800
C201	C20	0.712600	0.426600	0.945450
C211	C21	0.723900	0.068700	0.943080
C221	C22	0.829300	0.170300	0.669210
C231	C23	0.099800	0.259300	0.030250
C241	C24	0.135200	0.049900	0.816670
O11	O1	0.493660	0.869180	0.280800
O21	O2	0.494870	0.037840	0.363370
O31	O3	0.756140	0.844070	0.387480
O41	O4	0.706920	0.982930	0.494660
O51	O5	0.652100	0.600750	0.436440
O61	O6	0.873860	0.611730	0.402640
O71	O7	0.700710	0.691840	0.252970
O81	O8	0.557770	0.686100	0.133570
O91	O9	0.474370	0.816060	0.474740
O101	O10	0.396750	0.650710	0.536940
O111	O11	0.418860	0.650310	0.303780
O121	O12	0.389260	0.484880	0.381330
O131	O13	0.993660	0.630820	0.219200
O141	O14	0.994870	0.462160	0.136630
O151	O15	0.256140	0.655930	0.112520
O161	O16	0.206920	0.517070	0.005340
O171	O17	0.152100	0.899250	0.063560
O181	O18	0.373860	0.888270	0.097360
O191	O19	0.200710	0.808160	0.247030
O201	O20	0.057770	0.813900	0.366430
O211	O21	0.974370	0.683940	0.025260
O221	O22	0.896750	0.849290	0.963060
O231	O23	0.918860	0.849690	0.196220
O241	O24	0.889260	0.015120	0.118670
O251	O25	0.506340	0.130820	0.719200
O261	O26	0.505130	0.962160	0.636630
O271	O27	0.243860	0.155930	0.612520
O281	O28	0.293080	0.017070	0.505340
O291	O29	0.347900	0.399250	0.563560
O301	O30	0.126140	0.388270	0.597360
O311	O31	0.299290	0.308160	0.747030
O321	O32	0.442230	0.313900	0.866430
O331	O33	0.525630	0.183940	0.525260
O341	O34	0.603250	0.349290	0.463060
O351	O35	0.581140	0.349690	0.696220
O361	O36	0.610740	0.515120	0.618670
O371	O37	0.006340	0.369180	0.780800
O381	O38	0.005130	0.537840	0.863370
O391	O39	0.743860	0.344070	0.887480
O401	O40	0.793080	0.482930	0.994660
O411	O41	0.847900	0.100750	0.936440
O421	O42	0.626140	0.111730	0.902640
O431	O43	0.799290	0.191840	0.752970
O441	O44	0.942230	0.186100	0.633570
O451	O45	0.025630	0.316060	0.974740
O461	O46	0.103250	0.150710	0.036940
O471	O47	0.081140	0.150310	0.803780
O481	O48	0.110740	0.984880	0.881330
