data_XEHSAF_freeONLY_PM
_symmetry_space_group_name_H-M	'P1'
_cell_length_a	9.833900
_cell_length_b	11.279000
_cell_length_c	14.766000
_cell_angle_alpha	91.565000
_cell_angle_beta	90.000000
_cell_angle_gamma	90.000000
_symmetry_Int_Tables_number 1

loop_
_symmetry_equiv_pos_as_xyz
'x,y,z'

loop_
_atom_site_label
_atom_site_type_symbol
_atom_site_fract_x
_atom_site_fract_y
_atom_site_fract_z
Mg11	Mg1	0.074980	0.756740	0.134930
Mg21	Mg2	0.883050	0.739800	0.306020
Mg31	Mg3	0.574980	0.743260	0.365070
Mg41	Mg4	0.383050	0.760200	0.193980
Mg51	Mg5	0.925020	0.243260	0.865070
Mg61	Mg6	0.116950	0.260200	0.693980
Mg71	Mg7	0.425020	0.256740	0.634930
Mg81	Mg8	0.616950	0.239800	0.806020
Mg91	Mg9	0.000000	0.500000	0.000000
Mg101	Mg10	0.500000	0.000000	0.500000
Mg111	Mg11	0.000000	0.000000	0.000000
Mg121	Mg12	0.500000	0.500000	0.500000
H11	H1	0.951500	0.475400	0.258600
H21	H2	0.380600	0.559100	0.049000
H31	H3	0.292200	0.998700	0.023100
H41	H4	0.233900	0.858100	0.369200
H51	H5	0.838300	0.695700	0.931900
H61	H6	0.789300	0.976200	0.220900
H71	H7	0.451500	0.024600	0.241400
H81	H8	0.880600	0.940900	0.451000
H91	H9	0.792200	0.501300	0.476900
H101	H10	0.733900	0.641900	0.130800
H111	H11	0.338300	0.804300	0.568100
H121	H12	0.289300	0.523800	0.279100
H131	H13	0.048500	0.524600	0.741400
H141	H14	0.619400	0.440900	0.951000
H151	H15	0.707800	0.001300	0.976900
H161	H16	0.766100	0.141900	0.630800
H171	H17	0.161700	0.304300	0.068100
H181	H18	0.210700	0.023800	0.779100
H191	H19	0.548500	0.975400	0.758600
H201	H20	0.119400	0.059100	0.549000
H211	H21	0.207800	0.498700	0.523100
H221	H22	0.266100	0.358100	0.869200
H231	H23	0.661700	0.195700	0.431900
H241	H24	0.710700	0.476200	0.720900
C11	C1	0.976370	0.518350	0.206640
C21	C2	0.286580	0.577340	0.054700
C31	C3	0.272910	0.935290	0.062190
C41	C4	0.164260	0.827230	0.330690
C51	C5	0.897440	0.740770	0.970330
C61	C6	0.856960	0.949250	0.179270
C71	C7	0.476370	0.981650	0.293360
C81	C8	0.786580	0.922660	0.445300
C91	C9	0.772910	0.564710	0.437810
C101	C10	0.664260	0.672770	0.169310
C111	C11	0.397440	0.759230	0.529670
C121	C12	0.356960	0.550750	0.320730
C131	C13	0.023630	0.481650	0.793360
C141	C14	0.713420	0.422660	0.945300
C151	C15	0.727090	0.064710	0.937810
C161	C16	0.835740	0.172770	0.669310
C171	C17	0.102560	0.259230	0.029670
C181	C18	0.143040	0.050750	0.820730
C191	C19	0.523630	0.018350	0.706640
C201	C20	0.213420	0.077340	0.554700
C211	C21	0.227090	0.435290	0.562190
C221	C22	0.335740	0.327230	0.830690
C231	C23	0.602560	0.240770	0.470330
C241	C24	0.643040	0.449250	0.679270
O11	O1	0.988340	0.630330	0.216680
O21	O2	0.994200	0.460620	0.135340
O31	O3	0.252890	0.657970	0.113220
O41	O4	0.206750	0.521320	0.005000
O51	O5	0.149450	0.900210	0.065900
O61	O6	0.369730	0.894110	0.104910
O71	O7	0.194700	0.808090	0.247680
O81	O8	0.051750	0.809110	0.365670
O91	O9	0.971670	0.683460	0.025650
O101	O10	0.896330	0.849580	0.962830
O111	O11	0.913860	0.849730	0.194760
O121	O12	0.882330	0.013290	0.114890
O131	O13	0.488340	0.869670	0.283320
O141	O14	0.494200	0.039380	0.364660
O151	O15	0.752890	0.842030	0.386780
O161	O16	0.706750	0.978680	0.495000
O171	O17	0.649450	0.599790	0.434100
O181	O18	0.869730	0.605890	0.395090
O191	O19	0.694700	0.691910	0.252320
O201	O20	0.551750	0.690890	0.134330
O211	O21	0.471670	0.816540	0.474350
O221	O22	0.396330	0.650420	0.537170
O231	O23	0.413860	0.650270	0.305240
O241	O24	0.382330	0.486710	0.385110
O251	O25	0.011660	0.369670	0.783320
O261	O26	0.005800	0.539380	0.864660
O271	O27	0.747110	0.342030	0.886780
O281	O28	0.793250	0.478680	0.995000
O291	O29	0.850550	0.099790	0.934100
O301	O30	0.630270	0.105890	0.895090
O311	O31	0.805300	0.191910	0.752320
O321	O32	0.948250	0.190890	0.634330
O331	O33	0.028330	0.316540	0.974350
O341	O34	0.103670	0.150420	0.037170
O351	O35	0.086140	0.150270	0.805240
O361	O36	0.117670	0.986710	0.885110
O371	O37	0.511660	0.130330	0.716680
O381	O38	0.505800	0.960620	0.635340
O391	O39	0.247110	0.157970	0.613220
O401	O40	0.293250	0.021320	0.505000
O411	O41	0.350550	0.400210	0.565900
O421	O42	0.130270	0.394110	0.604910
O431	O43	0.305300	0.308090	0.747680
O441	O44	0.448250	0.309110	0.865670
O451	O45	0.528330	0.183460	0.525650
O461	O46	0.603670	0.349580	0.462830
O471	O47	0.586140	0.349730	0.694760
O481	O48	0.617670	0.513290	0.614890
