data_XEJTIR_freeONLY_PM
_symmetry_space_group_name_H-M	'P1'
_cell_length_a	12.448600
_cell_length_b	15.036000
_cell_length_c	16.596100
_cell_angle_alpha	90.000000
_cell_angle_beta	92.074000
_cell_angle_gamma	90.000000
_symmetry_Int_Tables_number 1

loop_
_symmetry_equiv_pos_as_xyz
'x,y,z'

loop_
_atom_site_label
_atom_site_type_symbol
_atom_site_fract_x
_atom_site_fract_y
_atom_site_fract_z
Al11	Al1	0.518230	0.516790	0.253770
Al21	Al2	0.518230	0.983210	0.753770
Cu11	Cu1	0.977410	0.478630	0.768510
Cu21	Cu2	0.977410	0.021370	0.268510
H11	H1	0.562700	0.478900	0.441200
H21	H2	0.658700	0.460400	0.561800
H31	H3	0.920100	0.571600	0.465100
H41	H4	0.823400	0.590600	0.344200
H51	H5	0.301900	0.430400	0.195300
H61	H6	0.164300	0.326600	0.183200
H71	H7	0.257500	0.223200	0.400400
H81	H8	0.392400	0.329400	0.413100
H91	H9	0.280000	0.590500	0.292700
H101	H10	0.147700	0.695800	0.312400
H111	H11	0.310700	0.871900	0.180500
H121	H12	0.444500	0.767700	0.162300
H131	H13	0.859400	0.541900	0.070000
H141	H14	0.740000	0.532500	0.173700
H151	H15	0.645500	0.414100	0.921100
H161	H16	0.527200	0.403500	0.025100
H171	H17	0.562700	0.021100	0.941200
H181	H18	0.658700	0.039600	0.061800
H191	H19	0.920100	0.928400	0.965100
H201	H20	0.823400	0.909400	0.844200
H211	H21	0.301900	0.069600	0.695300
H221	H22	0.164300	0.173400	0.683200
H231	H23	0.257500	0.276800	0.900400
H241	H24	0.392400	0.170600	0.913100
H251	H25	0.280000	0.909500	0.792700
H261	H26	0.147700	0.804200	0.812400
H271	H27	0.310700	0.628100	0.680500
H281	H28	0.444500	0.732300	0.662300
H291	H29	0.859400	0.958100	0.570000
H301	H30	0.740000	0.967500	0.673700
H311	H31	0.645500	0.085900	0.421100
H321	H32	0.527200	0.096500	0.525100
C11	C1	0.683170	0.537330	0.380590
C21	C2	0.635300	0.498110	0.446000
C31	C3	0.692400	0.487050	0.517400
C41	C4	0.798700	0.514130	0.525740
C51	C5	0.847200	0.552900	0.460380
C61	C6	0.789700	0.564140	0.388750
C71	C7	0.857300	0.501020	0.600500
C81	C8	0.361680	0.389790	0.304680
C91	C9	0.292700	0.388180	0.237040
C101	C10	0.211500	0.326510	0.229490
C111	C11	0.198570	0.263610	0.290450
C121	C12	0.266500	0.265440	0.358630
C131	C13	0.346800	0.328130	0.365920
C141	C14	0.119200	0.194760	0.282020
C151	C15	0.377300	0.669370	0.227740
C161	C16	0.287200	0.648440	0.270720
C171	C17	0.208300	0.710530	0.281880
C181	C18	0.216900	0.794770	0.248690
C191	C19	0.304900	0.814600	0.204160
C201	C20	0.384500	0.752990	0.193390
C211	C21	0.136400	0.861280	0.260070
C221	C22	0.621400	0.466100	0.110740
C231	C23	0.791800	0.513630	0.060970
C241	C24	0.720900	0.507780	0.122490
C251	C25	0.764400	0.478170	0.985630
C261	C26	0.665000	0.437660	0.972740
C271	C27	0.594800	0.431580	0.034450
C281	C28	0.836700	0.482560	0.920090
C291	C29	0.683170	0.962670	0.880590
C301	C30	0.635300	0.001890	0.946000
C311	C31	0.692400	0.012950	0.017400
C321	C32	0.798700	0.985870	0.025740
C331	C33	0.847200	0.947100	0.960380
C341	C34	0.789700	0.935860	0.888750
C351	C35	0.857300	0.998980	0.100500
C361	C36	0.361680	0.110210	0.804680
C371	C37	0.292700	0.111820	0.737040
C381	C38	0.211500	0.173490	0.729490
C391	C39	0.198570	0.236390	0.790450
C401	C40	0.266500	0.234560	0.858630
C411	C41	0.346800	0.171870	0.865920
C421	C42	0.119200	0.305240	0.782020
C431	C43	0.377300	0.830630	0.727740
C441	C44	0.287200	0.851560	0.770720
C451	C45	0.208300	0.789470	0.781880
C461	C46	0.216900	0.705230	0.748690
C471	C47	0.304900	0.685400	0.704160
C481	C48	0.384500	0.747010	0.693390
C491	C49	0.136400	0.638720	0.760070
C501	C50	0.621400	0.033900	0.610740
C511	C51	0.791800	0.986370	0.560970
C521	C52	0.720900	0.992220	0.622490
C531	C53	0.764400	0.021830	0.485630
C541	C54	0.665000	0.062340	0.472740
C551	C55	0.594800	0.068420	0.534450
C561	C56	0.836700	0.017440	0.420090
N11	N1	0.890070	0.482420	0.865470
N21	N2	0.059570	0.136920	0.277000
N31	N3	0.075770	0.916900	0.267180
N41	N4	0.901580	0.488860	0.660840
N51	N5	0.890070	0.017580	0.365470
N61	N6	0.059570	0.363080	0.777000
N71	N7	0.075770	0.583100	0.767180
N81	N8	0.901580	0.011140	0.160840
O11	O1	0.630960	0.550620	0.310180
O21	O2	0.440820	0.449760	0.313850
O31	O3	0.455650	0.611110	0.216520
O41	O4	0.552340	0.456090	0.169210
O51	O5	0.630960	0.949380	0.810180
O61	O6	0.440820	0.050240	0.813850
O71	O7	0.455650	0.888890	0.716520
O81	O8	0.552340	0.043910	0.669210
Al31	Al3	0.481770	0.016790	0.246230
Al41	Al4	0.481770	0.483210	0.746230
Cu31	Cu3	0.022590	0.978630	0.731490
Cu41	Cu4	0.022590	0.521370	0.231490
H331	H33	0.437300	0.978900	0.058800
H341	H34	0.341300	0.960400	0.938200
H351	H35	0.079900	0.071600	0.034900
H361	H36	0.176600	0.090600	0.155800
H371	H37	0.698100	0.930400	0.304700
H381	H38	0.835700	0.826600	0.316800
H391	H39	0.742500	0.723200	0.099600
H401	H40	0.607600	0.829400	0.086900
H411	H41	0.720000	0.090500	0.207300
H421	H42	0.852300	0.195800	0.187600
H431	H43	0.689300	0.371900	0.319500
H441	H44	0.555500	0.267700	0.337700
H451	H45	0.140600	0.041900	0.430000
H461	H46	0.260000	0.032500	0.326300
H471	H47	0.354500	0.914100	0.578900
H481	H48	0.472800	0.903500	0.474900
H491	H49	0.437300	0.521100	0.558800
H501	H50	0.341300	0.539600	0.438200
H511	H51	0.079900	0.428400	0.534900
H521	H52	0.176600	0.409400	0.655800
H531	H53	0.698100	0.569600	0.804700
H541	H54	0.835700	0.673400	0.816800
H551	H55	0.742500	0.776800	0.599600
H561	H56	0.607600	0.670600	0.586900
H571	H57	0.720000	0.409500	0.707300
H581	H58	0.852300	0.304200	0.687600
H591	H59	0.689300	0.128100	0.819500
H601	H60	0.555500	0.232300	0.837700
H611	H61	0.140600	0.458100	0.930000
H621	H62	0.260000	0.467500	0.826300
H631	H63	0.354500	0.585900	0.078900
H641	H64	0.472800	0.596500	0.974900
C571	C57	0.316830	0.037330	0.119410
C581	C58	0.364700	0.998110	0.054000
C591	C59	0.307600	0.987050	0.982600
C601	C60	0.201300	0.014130	0.974260
C611	C61	0.152800	0.052900	0.039620
C621	C62	0.210300	0.064140	0.111250
C631	C63	0.142700	0.001020	0.899500
C641	C64	0.638320	0.889790	0.195320
C651	C65	0.707300	0.888180	0.262960
C661	C66	0.788500	0.826510	0.270510
C671	C67	0.801430	0.763610	0.209550
C681	C68	0.733500	0.765440	0.141370
C691	C69	0.653200	0.828130	0.134080
C701	C70	0.880800	0.694760	0.217980
C711	C71	0.622700	0.169370	0.272260
C721	C72	0.712800	0.148440	0.229280
C731	C73	0.791700	0.210530	0.218120
C741	C74	0.783100	0.294770	0.251310
C751	C75	0.695100	0.314600	0.295840
C761	C76	0.615500	0.252990	0.306610
C771	C77	0.863600	0.361280	0.239930
C781	C78	0.378600	0.966100	0.389260
C791	C79	0.208200	0.013630	0.439030
C801	C80	0.279100	0.007780	0.377510
C811	C81	0.235600	0.978170	0.514370
C821	C82	0.335000	0.937660	0.527260
C831	C83	0.405200	0.931580	0.465550
C841	C84	0.163300	0.982560	0.579910
C851	C85	0.316830	0.462670	0.619410
C861	C86	0.364700	0.501890	0.554000
C871	C87	0.307600	0.512950	0.482600
C881	C88	0.201300	0.485870	0.474260
C891	C89	0.152800	0.447100	0.539620
C901	C90	0.210300	0.435860	0.611250
C911	C91	0.142700	0.498980	0.399500
C921	C92	0.638320	0.610210	0.695320
C931	C93	0.707300	0.611820	0.762960
C941	C94	0.788500	0.673490	0.770510
C951	C95	0.801430	0.736390	0.709550
C961	C96	0.733500	0.734560	0.641370
C971	C97	0.653200	0.671870	0.634080
C981	C98	0.880800	0.805240	0.717980
C991	C99	0.622700	0.330630	0.772260
C1001	C100	0.712800	0.351560	0.729280
C1011	C101	0.791700	0.289470	0.718120
C1021	C102	0.783100	0.205230	0.751310
C1031	C103	0.695100	0.185400	0.795840
C1041	C104	0.615500	0.247010	0.806610
C1051	C105	0.863600	0.138720	0.739930
C1061	C106	0.378600	0.533900	0.889260
C1071	C107	0.208200	0.486370	0.939030
C1081	C108	0.279100	0.492220	0.877510
C1091	C109	0.235600	0.521830	0.014370
C1101	C110	0.335000	0.562340	0.027260
C1111	C111	0.405200	0.568420	0.965550
C1121	C112	0.163300	0.517440	0.079910
N91	N9	0.109930	0.982420	0.634530
N101	N10	0.940430	0.636920	0.223000
N111	N11	0.924230	0.416900	0.232820
N121	N12	0.098420	0.988860	0.839160
N131	N13	0.109930	0.517580	0.134530
N141	N14	0.940430	0.863080	0.723000
N151	N15	0.924230	0.083100	0.732820
N161	N16	0.098420	0.511140	0.339160
O91	O9	0.369040	0.050620	0.189820
O101	O10	0.559180	0.949760	0.186150
O111	O11	0.544350	0.111110	0.283480
O121	O12	0.447660	0.956090	0.330790
O131	O13	0.369040	0.449380	0.689820
O141	O14	0.559180	0.550240	0.686150
O151	O15	0.544350	0.388890	0.783480
O161	O16	0.447660	0.543910	0.830790
