data_XEKDUO_freeONLY_PM
_symmetry_space_group_name_H-M	'P1'
_cell_length_a	4.353560
_cell_length_b	12.900200
_cell_length_c	12.900200
_cell_angle_alpha	61.248100
_cell_angle_beta	83.540900
_cell_angle_gamma	96.459100
_symmetry_Int_Tables_number 1

loop_
_symmetry_equiv_pos_as_xyz
'x,y,z'

loop_
_atom_site_label
_atom_site_type_symbol
_atom_site_fract_x
_atom_site_fract_y
_atom_site_fract_z
Co11	Co1	0.699910	0.162570	0.838340
Co21	Co2	0.538250	0.838340	0.999090
Co31	Co3	0.537340	0.999090	0.162570
P11	P1	0.062030	0.000000	0.000000
H11	H1	0.985200	0.447600	0.696200
H21	H2	0.937900	0.611200	0.525000
H31	H3	0.443000	0.237600	0.622100
H41	H4	0.388700	0.397300	0.440400
H51	H5	0.681400	0.696200	0.856200
H61	H6	0.462900	0.525000	0.863800
H71	H7	0.065100	0.622100	0.140300
H81	H8	0.829100	0.440400	0.162300
H91	H9	0.537600	0.856200	0.447600
H101	H10	0.326700	0.863800	0.611200
H111	H11	0.205400	0.140300	0.237600
H121	H12	0.991400	0.162300	0.397300
C11	C1	0.643600	0.529200	0.469100
C21	C2	0.597700	0.636500	0.363400
C31	C3	0.857500	0.437800	0.645300
C41	C4	0.825400	0.534600	0.544400
C51	C5	0.544500	0.315900	0.601400
C61	C6	0.501600	0.409600	0.493800
C71	C7	0.112700	0.469100	0.001700
C81	C8	0.961100	0.363400	0.000100
C91	C9	0.502800	0.645300	0.916900
C101	C10	0.369800	0.544400	0.921000
C111	C11	0.145900	0.601400	0.082700
C121	C12	0.995400	0.493800	0.096600
C131	C13	0.114400	0.001700	0.529200
C141	C14	0.961200	0.000100	0.636500
C151	C15	0.419700	0.916900	0.437800
C161	C16	0.290800	0.921000	0.534600
C171	C17	0.228600	0.082700	0.315900
C181	C18	0.092000	0.096600	0.409600
N11	N1	0.706500	0.322800	0.676700
N21	N2	0.521400	0.751800	0.186800
N31	N3	0.536300	0.813000	0.245900
N41	N4	0.559200	0.639200	0.258400
N51	N5	0.576000	0.740800	0.357000
N61	N6	0.383200	0.676700	0.000500
N71	N7	0.708200	0.186800	0.061400
N81	N8	0.782200	0.245900	0.941100
N91	N9	0.817600	0.258400	0.102400
N101	N10	0.933000	0.357000	0.902200
N111	N11	0.383700	0.000500	0.322800
N121	N12	0.769600	0.061400	0.751800
N131	N13	0.723300	0.941100	0.813000
N141	N14	0.920000	0.102400	0.639200
N151	N15	0.835200	0.902200	0.740800
O11	O1	0.226100	0.114700	0.885300
O21	O2	0.111400	0.885300	0.000000
O31	O3	0.111400	0.000000	0.114700
O41	O4	0.699730	0.000000	0.000000
