data_XEQLEM01_freeONLY_PM
_symmetry_space_group_name_H-M	'P1'
_cell_length_a	9.846000
_cell_length_b	10.997500
_cell_length_c	12.841500
_cell_angle_alpha	90.000000
_cell_angle_beta	90.000000
_cell_angle_gamma	99.390000
_symmetry_Int_Tables_number 1

loop_
_symmetry_equiv_pos_as_xyz
'x,y,z'

loop_
_atom_site_label
_atom_site_type_symbol
_atom_site_fract_x
_atom_site_fract_y
_atom_site_fract_z
Mg11	Mg1	0.124100	0.752100	0.057900
Mg21	Mg2	0.372400	0.250960	0.557300
Mg31	Mg3	0.627600	0.749040	0.057300
Mg41	Mg4	0.875900	0.247900	0.557900
H11	H1	0.101400	0.013500	0.279300
H21	H2	0.649400	0.476800	0.117300
H31	H3	0.620700	0.752700	0.302300
H41	H4	0.393000	0.133400	0.168200
H51	H5	0.333000	0.648000	0.756700
H61	H6	0.051400	0.494600	0.885500
H71	H7	0.386900	0.257500	0.310500
H81	H8	0.618300	0.021100	0.996000
H91	H9	0.086200	0.137600	0.419500
H101	H10	0.654700	0.498300	0.827300
H111	H11	0.379300	0.247300	0.802300
H121	H12	0.607000	0.866600	0.668200
H131	H13	0.381000	0.370900	0.944800
H141	H14	0.913800	0.862400	0.919500
H151	H15	0.305800	0.879400	0.878700
H161	H16	0.898600	0.986500	0.779300
H171	H17	0.619000	0.629100	0.444800
H181	H18	0.613100	0.742500	0.810500
H191	H19	0.305100	0.007100	0.738600
H201	H20	0.694900	0.992900	0.238600
H211	H21	0.694200	0.120600	0.378700
H221	H22	0.948600	0.505400	0.385500
H231	H23	0.345300	0.501700	0.327300
H241	H24	0.667800	0.366400	0.690700
H251	H25	0.945100	0.635200	0.247000
H261	H26	0.054900	0.364800	0.747000
H271	H27	0.394900	0.848200	0.360000
H281	H28	0.667000	0.352000	0.256700
H291	H29	0.381700	0.978900	0.496000
H301	H30	0.332200	0.633600	0.190700
H311	H31	0.350600	0.523200	0.617300
H321	H32	0.605100	0.151800	0.860000
C11	C1	0.983600	0.967700	0.799200
C21	C2	0.973400	0.393800	0.761800
C31	C3	0.776100	0.020200	0.274700
C41	C4	0.252800	0.605300	0.228500
C51	C5	0.354200	0.523000	0.868700
C61	C6	0.627700	0.670200	0.292200
C71	C7	0.903500	0.897700	0.154200
C81	C8	0.392200	0.931000	0.347400
C91	C9	0.647000	0.509400	0.184000
C101	C10	0.153900	0.397700	0.461000
C111	C11	0.387800	0.174000	0.320800
C121	C12	0.608100	0.900200	0.734700
C131	C13	0.391900	0.099800	0.234700
C141	C14	0.607800	0.069000	0.847400
C151	C15	0.385800	0.010700	0.428800
C161	C16	0.344800	0.566800	0.767600
C171	C17	0.394500	0.974700	0.247300
C181	C18	0.353000	0.490600	0.684000
C191	C19	0.614200	0.989300	0.928800
C201	C20	0.612200	0.826000	0.820800
C211	C21	0.370700	0.403300	0.879000
C221	C22	0.222900	0.902600	0.858700
C231	C23	0.629300	0.596700	0.379000
C241	C24	0.006600	0.107700	0.382400
C251	C25	0.096500	0.102300	0.654200
C261	C26	0.972100	0.470600	0.846400
C271	C27	0.898000	0.983900	0.244700
C281	C28	0.993400	0.892300	0.882400
C291	C29	0.655200	0.433200	0.267600
C301	C30	0.737800	0.472500	0.812000
C311	C31	0.777100	0.097400	0.358700
C321	C32	0.262200	0.527500	0.312000
C331	C33	0.027900	0.529400	0.346400
C341	C34	0.026600	0.606200	0.261800
C351	C35	0.597200	0.108400	0.654200
C361	C36	0.605500	0.025300	0.747300
C371	C37	0.102000	0.016100	0.744700
C381	C38	0.016400	0.032300	0.299200
C391	C39	0.223900	0.979800	0.774700
C401	C40	0.372300	0.329800	0.792200
C411	C41	0.148500	0.488800	0.372000
C421	C42	0.846100	0.602300	0.961000
C431	C43	0.652400	0.392600	0.460500
C441	C44	0.747200	0.394700	0.728500
C451	C45	0.402800	0.891600	0.154200
C461	C46	0.851500	0.511200	0.872000
C471	C47	0.645800	0.477000	0.368700
C481	C48	0.347600	0.607400	0.960500
N11	N1	0.135300	0.641900	0.199400
N21	N2	0.111700	0.859300	0.913100
N31	N3	0.888300	0.140700	0.413100
N41	N4	0.864700	0.358100	0.699400
N51	N5	0.385100	0.132100	0.417200
N61	N6	0.364300	0.370000	0.694300
N71	N7	0.635700	0.630000	0.194300
N81	N8	0.614900	0.867900	0.917200
O11	O1	0.513800	0.853900	0.146000
O21	O2	0.950600	0.630500	0.013700
O31	O3	0.764800	0.357100	0.474600
O41	O4	0.203900	0.131800	0.601400
O51	O5	0.796100	0.868200	0.101400
O61	O6	0.049400	0.369500	0.513700
O71	O7	0.015400	0.865200	0.137900
O81	O8	0.546800	0.367800	0.512900
O91	O9	0.733800	0.642100	0.970500
O101	O10	0.984600	0.134800	0.637900
O111	O11	0.303300	0.872400	0.094100
O121	O12	0.453200	0.632200	0.012900
O131	O13	0.486200	0.146100	0.646000
O141	O14	0.235200	0.642900	0.974600
O151	O15	0.266200	0.357900	0.470500
O161	O16	0.696700	0.127600	0.594100
