data_XEZPUP_freeONLY_PM
_symmetry_space_group_name_H-M	'P1'
_cell_length_a	9.987000
_cell_length_b	11.664000
_cell_length_c	22.771000
_cell_angle_alpha	90.000000
_cell_angle_beta	90.000000
_cell_angle_gamma	100.588000
_symmetry_Int_Tables_number 1

loop_
_symmetry_equiv_pos_as_xyz
'x,y,z'

loop_
_atom_site_label
_atom_site_type_symbol
_atom_site_fract_x
_atom_site_fract_y
_atom_site_fract_z
Mn11	Mn1	0.584440	0.883560	0.949870
Mn21	Mn2	0.415560	0.616440	0.449870
Mn31	Mn3	0.415560	0.116440	0.050130
Mn41	Mn4	0.584440	0.383560	0.550130
H11	H1	0.854500	0.013900	0.004600
H21	H2	0.010600	0.182000	0.006700
H31	H3	0.796700	0.307300	0.881500
H41	H4	0.646000	0.134800	0.883800
H51	H5	0.000300	0.434500	0.917200
H61	H6	0.150400	0.348800	0.001300
H71	H7	0.341100	0.487500	0.040500
H81	H8	0.496800	0.658600	0.033200
H91	H9	0.314600	0.751100	0.897300
H101	H10	0.152900	0.585900	0.901400
H111	H11	0.010900	0.810300	0.881100
H121	H12	0.152500	0.746300	0.814300
H131	H13	0.692900	0.629300	0.797600
H141	H14	0.109500	0.497200	0.808500
H151	H15	0.259600	0.476600	0.802100
H161	H16	0.139400	0.388500	0.773900
H171	H17	0.328500	0.457200	0.690700
H181	H18	0.205900	0.690200	0.587900
H191	H19	0.060300	0.727800	0.659400
H201	H20	0.145500	0.486100	0.504600
H211	H21	0.989400	0.318000	0.506700
H221	H22	0.203300	0.192700	0.381500
H231	H23	0.354000	0.365200	0.383800
H241	H24	0.999700	0.065500	0.417200
H251	H25	0.849600	0.151200	0.501300
H261	H26	0.658900	0.012500	0.540500
H271	H27	0.503200	0.841400	0.533200
H281	H28	0.685400	0.748900	0.397300
H291	H29	0.847100	0.914100	0.401400
H301	H30	0.989100	0.689700	0.381100
H311	H31	0.847500	0.753700	0.314300
H321	H32	0.307100	0.870700	0.297600
H331	H33	0.890500	0.002800	0.308500
H341	H34	0.740400	0.023400	0.302100
H351	H35	0.860600	0.111500	0.273900
H361	H36	0.671500	0.042800	0.190700
H371	H37	0.794100	0.809800	0.087900
H381	H38	0.939700	0.772200	0.159400
H391	H39	0.145500	0.986100	0.995400
H401	H40	0.989400	0.818000	0.993300
H411	H41	0.203300	0.692700	0.118500
H421	H42	0.354000	0.865200	0.116200
H431	H43	0.999700	0.565500	0.082800
H441	H44	0.849600	0.651200	0.998700
H451	H45	0.658900	0.512500	0.959500
H461	H46	0.503200	0.341400	0.966800
H471	H47	0.685400	0.248900	0.102700
H481	H48	0.847100	0.414100	0.098600
H491	H49	0.989100	0.189700	0.118900
H501	H50	0.847500	0.253700	0.185700
H511	H51	0.307100	0.370700	0.202400
H521	H52	0.890500	0.502800	0.191500
H531	H53	0.740400	0.523400	0.197900
H541	H54	0.860600	0.611500	0.226100
H551	H55	0.671500	0.542800	0.309300
H561	H56	0.794100	0.309800	0.412100
H571	H57	0.939700	0.272200	0.340600
H581	H58	0.854500	0.513900	0.495400
H591	H59	0.010600	0.682000	0.493300
H601	H60	0.796700	0.807300	0.618500
H611	H61	0.646000	0.634800	0.616200
H621	H62	0.000300	0.934500	0.582800
H631	H63	0.150400	0.848800	0.498700
H641	H64	0.341100	0.987500	0.459500
H651	H65	0.496800	0.158600	0.466800
H661	H66	0.314600	0.251100	0.602700
H671	H67	0.152900	0.085900	0.598600
H681	H68	0.010900	0.310300	0.618900
H691	H69	0.152500	0.246300	0.685700
H701	H70	0.692900	0.129300	0.702400
H711	H71	0.109500	0.997200	0.691500
H721	H72	0.259600	0.976600	0.697900
H731	H73	0.139400	0.888500	0.726100
H741	H74	0.328500	0.957200	0.809300
H751	H75	0.205900	0.190200	0.912100
H761	H76	0.060300	0.227800	0.840600
C11	C1	0.842700	0.073900	0.979400
C21	C2	0.936700	0.174900	0.981200
C31	C3	0.921000	0.266100	0.944900
C41	C4	0.810400	0.248900	0.907400
C51	C5	0.720900	0.144300	0.908800
C61	C6	0.019300	0.377800	0.943000
C71	C7	0.131600	0.404200	0.974600
C81	C8	0.228300	0.514200	0.970600
C91	C9	0.333100	0.539600	0.010400
C101	C10	0.427200	0.642900	0.005600
C111	C11	0.320500	0.696700	0.926600
C121	C12	0.223200	0.597100	0.928700
C131	C13	0.743100	0.778700	0.885100
C141	C14	0.837500	0.730600	0.844800
C151	C15	0.974100	0.762200	0.850400
C161	C16	0.058800	0.722700	0.810200
C171	C17	0.010400	0.650100	0.764500
C181	C18	0.786500	0.654400	0.800700
C191	C19	0.872400	0.613900	0.760400
C201	C20	0.104800	0.618000	0.719500
C211	C21	0.187800	0.536500	0.729300
C221	C22	0.172800	0.469000	0.783000
C231	C23	0.274500	0.513200	0.684500
C241	C24	0.282500	0.569500	0.632200
C251	C25	0.377300	0.544200	0.585000
C261	C26	0.201800	0.650200	0.623400
C271	C27	0.114800	0.672700	0.666600
C281	C28	0.157300	0.426100	0.479400
C291	C29	0.063300	0.325100	0.481200
C301	C30	0.079000	0.233900	0.444900
C311	C31	0.189600	0.251100	0.407400
C321	C32	0.279100	0.355700	0.408800
C331	C33	0.980700	0.122200	0.443000
C341	C34	0.868400	0.095800	0.474600
C351	C35	0.771700	0.985800	0.470600
C361	C36	0.666900	0.960400	0.510400
C371	C37	0.572800	0.857100	0.505600
C381	C38	0.679500	0.803300	0.426600
C391	C39	0.776800	0.902900	0.428700
C401	C40	0.256900	0.721300	0.385100
C411	C41	0.162500	0.769400	0.344800
C421	C42	0.025900	0.737800	0.350400
C431	C43	0.941200	0.777300	0.310200
C441	C44	0.989600	0.849900	0.264500
C451	C45	0.213500	0.845600	0.300700
C461	C46	0.127600	0.886100	0.260400
C471	C47	0.895200	0.882000	0.219500
C481	C48	0.812200	0.963500	0.229300
C491	C49	0.827200	0.031000	0.283000
C501	C50	0.725500	0.986800	0.184500
C511	C51	0.717500	0.930500	0.132200
C521	C52	0.622700	0.955800	0.085000
C531	C53	0.798200	0.849800	0.123400
C541	C54	0.885200	0.827300	0.166600
C551	C55	0.157300	0.926100	0.020600
C561	C56	0.063300	0.825100	0.018800
C571	C57	0.079000	0.733900	0.055100
C581	C58	0.189600	0.751100	0.092600
C591	C59	0.279100	0.855700	0.091200
C601	C60	0.980700	0.622200	0.057000
C611	C61	0.868400	0.595800	0.025400
C621	C62	0.771700	0.485800	0.029400
C631	C63	0.666900	0.460400	0.989600
C641	C64	0.572800	0.357100	0.994400
C651	C65	0.679500	0.303300	0.073400
C661	C66	0.776800	0.402900	0.071300
C671	C67	0.256900	0.221300	0.114900
C681	C68	0.162500	0.269400	0.155200
C691	C69	0.025900	0.237800	0.149600
C701	C70	0.941200	0.277300	0.189800
C711	C71	0.989600	0.349900	0.235500
C721	C72	0.213500	0.345600	0.199300
C731	C73	0.127600	0.386100	0.239600
C741	C74	0.895200	0.382000	0.280500
C751	C75	0.812200	0.463500	0.270700
C761	C76	0.827200	0.531000	0.217000
C771	C77	0.725500	0.486800	0.315500
C781	C78	0.717500	0.430500	0.367800
C791	C79	0.622700	0.455800	0.415000
C801	C80	0.798200	0.349800	0.376600
C811	C81	0.885200	0.327300	0.333400
C821	C82	0.842700	0.573900	0.520600
C831	C83	0.936700	0.674900	0.518800
C841	C84	0.921000	0.766100	0.555100
C851	C85	0.810400	0.748900	0.592600
C861	C86	0.720900	0.644300	0.591200
C871	C87	0.019300	0.877800	0.557000
C881	C88	0.131600	0.904200	0.525400
C891	C89	0.228300	0.014200	0.529400
C901	C90	0.333100	0.039600	0.489600
C911	C91	0.427200	0.142900	0.494400
C921	C92	0.320500	0.196700	0.573400
C931	C93	0.223200	0.097100	0.571300
C941	C94	0.743100	0.278700	0.614900
C951	C95	0.837500	0.230600	0.655200
C961	C96	0.974100	0.262200	0.649600
C971	C97	0.058800	0.222700	0.689800
C981	C98	0.010400	0.150100	0.735500
C991	C99	0.786500	0.154400	0.699300
C1001	C100	0.872400	0.113900	0.739600
C1011	C101	0.104800	0.118000	0.780500
C1021	C102	0.187800	0.036500	0.770700
C1031	C103	0.172800	0.969000	0.717000
C1041	C104	0.274500	0.013200	0.815500
C1051	C105	0.282500	0.069500	0.867800
C1061	C106	0.377300	0.044200	0.915000
C1071	C107	0.201800	0.150200	0.876600
C1081	C108	0.114800	0.172700	0.833400
N11	N1	0.421700	0.718300	0.964250
N21	N2	0.734900	0.055800	0.943710
N31	N3	0.578300	0.781700	0.464250
N41	N4	0.265100	0.444200	0.443710
N51	N5	0.578300	0.281700	0.035750
N61	N6	0.265100	0.944200	0.056290
N71	N7	0.421700	0.218300	0.535750
N81	N8	0.734900	0.555800	0.556290
O11	O1	0.633100	0.801100	0.864570
O21	O2	0.773800	0.799100	0.936830
O31	O3	0.434900	0.458300	0.592370
O41	O4	0.392700	0.610000	0.540800
O51	O5	0.366900	0.698900	0.364570
O61	O6	0.226200	0.700900	0.436830
O71	O7	0.565100	0.041700	0.092370
O81	O8	0.607300	0.890000	0.040800
O91	O9	0.366900	0.198900	0.135430
O101	O10	0.226200	0.200900	0.063170
O111	O11	0.565100	0.541700	0.407630
O121	O12	0.607300	0.390000	0.459200
O131	O13	0.633100	0.301100	0.635430
O141	O14	0.773800	0.299100	0.563170
O151	O15	0.434900	0.958300	0.907630
O161	O16	0.392700	0.110000	0.959200
