data_XIDBUJ_freeONLY_PM
_symmetry_space_group_name_H-M	'P1'
_cell_length_a	11.721000
_cell_length_b	14.954600
_cell_length_c	14.954600
_cell_angle_alpha	96.448500
_cell_angle_beta	107.060000
_cell_angle_gamma	107.060000
_symmetry_Int_Tables_number 1

loop_
_symmetry_equiv_pos_as_xyz
'x,y,z'

loop_
_atom_site_label
_atom_site_type_symbol
_atom_site_fract_x
_atom_site_fract_y
_atom_site_fract_z
Zn11	Zn1	0.881900	0.805430	0.560810
Zn21	Zn2	0.881900	0.560810	0.805430
H11	H1	0.080500	0.740400	0.509800
H21	H2	0.293000	0.795700	0.530700
H31	H3	0.314800	0.050300	0.661500
H41	H4	0.104900	0.988700	0.639500
H51	H5	0.495500	0.846900	0.568500
H61	H6	0.807400	0.082600	0.657600
H71	H7	0.951600	0.379800	0.848000
H81	H8	0.871600	0.216500	0.795100
H91	H9	0.554900	0.243900	0.624500
H101	H10	0.644600	0.404900	0.678100
H111	H11	0.080500	0.509800	0.740400
H121	H12	0.293000	0.530700	0.795700
H131	H13	0.314800	0.661500	0.050300
H141	H14	0.104900	0.639500	0.988700
H151	H15	0.495500	0.568500	0.846900
H161	H16	0.807400	0.657600	0.082600
H171	H17	0.951600	0.848000	0.379800
H181	H18	0.871600	0.795100	0.216500
H191	H19	0.554900	0.624500	0.243900
H201	H20	0.644600	0.678100	0.404900
C11	C1	0.128600	0.803700	0.541300
C21	C2	0.256600	0.836600	0.553400
C31	C3	0.330300	0.930400	0.599600
C41	C4	0.269500	0.986500	0.630700
C51	C5	0.143100	0.949100	0.616900
C61	C6	0.468400	0.971100	0.613500
C71	C7	0.535900	0.912600	0.592200
C81	C8	0.663800	0.955500	0.607100
C91	C9	0.721000	0.052700	0.645300
C101	C10	0.647900	0.105500	0.664900
C111	C11	0.871200	0.351800	0.801400
C121	C12	0.823600	0.253500	0.770500
C131	C13	0.702900	0.210300	0.701900
C141	C14	0.636700	0.270000	0.669200
C151	C15	0.690600	0.366500	0.702300
C161	C16	0.740400	0.896200	0.583400
C171	C17	0.128600	0.541300	0.803700
C181	C18	0.256600	0.553400	0.836600
C191	C19	0.330300	0.599600	0.930400
C201	C20	0.269500	0.630700	0.986500
C211	C21	0.143100	0.616900	0.949100
C221	C22	0.468400	0.613500	0.971100
C231	C23	0.535900	0.592200	0.912600
C241	C24	0.663800	0.607100	0.955500
C251	C25	0.721000	0.645300	0.052700
C261	C26	0.647900	0.664900	0.105500
C271	C27	0.871200	0.801400	0.351800
C281	C28	0.823600	0.770500	0.253500
C291	C29	0.702900	0.701900	0.210300
C301	C30	0.636700	0.669200	0.270000
C311	C31	0.690600	0.702300	0.366500
C321	C32	0.740400	0.583400	0.896200
C331	C33	0.912400	0.727400	0.727400
C341	C34	0.866700	0.641800	0.641800
N11	N1	0.071600	0.858780	0.572780
N21	N2	0.523000	0.065230	0.648370
N31	N3	0.807400	0.408980	0.768080
N41	N4	0.071600	0.572780	0.858780
N51	N5	0.523000	0.648370	0.065230
N61	N6	0.807400	0.768080	0.408980
O11	O1	0.689800	0.807800	0.559600
O21	O2	0.852000	0.939560	0.588280
O31	O3	0.929300	0.808170	0.708650
O41	O4	0.850000	0.659880	0.559820
O51	O5	0.689800	0.559600	0.807800
O61	O6	0.852000	0.588280	0.939560
O71	O7	0.929300	0.708650	0.808170
O81	O8	0.850000	0.559820	0.659880
Zn31	Zn3	0.118100	0.439190	0.194570
Zn41	Zn4	0.118100	0.194570	0.439190
H211	H21	0.919500	0.490200	0.259600
H221	H22	0.707000	0.469300	0.204300
H231	H23	0.685200	0.338500	0.949700
H241	H24	0.895100	0.360500	0.011300
H251	H25	0.504500	0.431500	0.153100
H261	H26	0.192600	0.342400	0.917400
H271	H27	0.048400	0.152000	0.620200
H281	H28	0.128400	0.204900	0.783500
H291	H29	0.445100	0.375500	0.756100
H301	H30	0.355400	0.321900	0.595100
H311	H31	0.919500	0.259600	0.490200
H321	H32	0.707000	0.204300	0.469300
H331	H33	0.685200	0.949700	0.338500
H341	H34	0.895100	0.011300	0.360500
H351	H35	0.504500	0.153100	0.431500
H361	H36	0.192600	0.917400	0.342400
H371	H37	0.048400	0.620200	0.152000
H381	H38	0.128400	0.783500	0.204900
H391	H39	0.445100	0.756100	0.375500
H401	H40	0.355400	0.595100	0.321900
C351	C35	0.871400	0.458700	0.196300
C361	C36	0.743400	0.446600	0.163400
C371	C37	0.669700	0.400400	0.069600
C381	C38	0.730500	0.369300	0.013500
C391	C39	0.856900	0.383100	0.050900
C401	C40	0.531600	0.386500	0.028900
C411	C41	0.464100	0.407800	0.087400
C421	C42	0.336200	0.392900	0.044500
C431	C43	0.279000	0.354700	0.947300
C441	C44	0.352100	0.335100	0.894500
C451	C45	0.128800	0.198600	0.648200
C461	C46	0.176400	0.229500	0.746500
C471	C47	0.297100	0.298100	0.789700
C481	C48	0.363300	0.330800	0.730000
C491	C49	0.309400	0.297700	0.633500
C501	C50	0.259600	0.416600	0.103800
C511	C51	0.871400	0.196300	0.458700
C521	C52	0.743400	0.163400	0.446600
C531	C53	0.669700	0.069600	0.400400
C541	C54	0.730500	0.013500	0.369300
C551	C55	0.856900	0.050900	0.383100
C561	C56	0.531600	0.028900	0.386500
C571	C57	0.464100	0.087400	0.407800
C581	C58	0.336200	0.044500	0.392900
C591	C59	0.279000	0.947300	0.354700
C601	C60	0.352100	0.894500	0.335100
C611	C61	0.128800	0.648200	0.198600
C621	C62	0.176400	0.746500	0.229500
C631	C63	0.297100	0.789700	0.298100
C641	C64	0.363300	0.730000	0.330800
C651	C65	0.309400	0.633500	0.297700
C661	C66	0.259600	0.103800	0.416600
C671	C67	0.087600	0.272600	0.272600
C681	C68	0.133300	0.358200	0.358200
N71	N7	0.928400	0.427220	0.141220
N81	N8	0.477000	0.351630	0.934770
N91	N9	0.192600	0.231920	0.591020
N101	N10	0.928400	0.141220	0.427220
N111	N11	0.477000	0.934770	0.351630
N121	N12	0.192600	0.591020	0.231920
O91	O9	0.310200	0.440400	0.192200
O101	O10	0.148000	0.411720	0.060440
O111	O11	0.070700	0.291350	0.191830
O121	O12	0.150000	0.440180	0.340120
O131	O13	0.310200	0.192200	0.440400
O141	O14	0.148000	0.060440	0.411720
O151	O15	0.070700	0.191830	0.291350
O161	O16	0.150000	0.340120	0.440180
