data_XIGFOJ_manual_PM
_symmetry_space_group_name_H-M	'P1'
_cell_length_a	9.038900
_cell_length_b	24.498000
_cell_length_c	45.853000
_cell_angle_alpha	90.000000
_cell_angle_beta	90.000000
_cell_angle_gamma	90.000000
_symmetry_Int_Tables_number 1

loop_
_symmetry_equiv_pos_as_xyz
'x,y,z'

loop_
_atom_site_label
_atom_site_type_symbol
_atom_site_fract_x
_atom_site_fract_y
_atom_site_fract_z
Cd11	Cd1	0.914120	0.537130	0.850850
Cd21	Cd2	0.414120	0.962870	0.649150
Cd31	Cd3	0.585880	0.462870	0.850850
Cd41	Cd4	0.085880	0.037130	0.649150
Cd51	Cd5	0.085880	0.462870	0.149150
Cd61	Cd6	0.585880	0.037130	0.350850
Cd71	Cd7	0.414120	0.537130	0.149150
Cd81	Cd8	0.914120	0.962870	0.350850
Cd91	Cd9	0.250000	0.500000	0.813250
Cd101	Cd10	0.750000	0.000000	0.686750
Cd111	Cd11	0.750000	0.500000	0.186750
Cd121	Cd12	0.250000	0.000000	0.313250
H11	H1	0.980500	0.445400	0.754600
H21	H2	0.969900	0.374800	0.721600
H31	H3	0.770700	0.283400	0.781900
H41	H4	0.789500	0.352100	0.815300
H51	H5	0.042100	0.290900	0.703400
H61	H6	0.045100	0.213100	0.676700
H71	H7	0.679900	0.161100	0.717400
H81	H8	0.672200	0.239700	0.743500
H91	H9	0.448600	0.534200	0.913200
H101	H10	0.441100	0.540900	0.963300
H111	H11	0.168400	0.425100	0.006900
H121	H12	0.181300	0.428100	0.058700
H131	H13	0.480500	0.054600	0.745400
H141	H14	0.469900	0.125200	0.778400
H151	H15	0.270700	0.216600	0.718100
H161	H16	0.289500	0.147900	0.684700
H171	H17	0.542100	0.209100	0.796600
H181	H18	0.545100	0.286900	0.823300
H191	H19	0.179900	0.338900	0.782600
H201	H20	0.172200	0.260300	0.756500
H211	H21	0.948600	0.965800	0.586800
H221	H22	0.941100	0.959100	0.536700
H231	H23	0.668400	0.074900	0.493100
H241	H24	0.681300	0.071900	0.441300
H251	H25	0.519500	0.554600	0.754600
H261	H26	0.530100	0.625200	0.721600
H271	H27	0.729300	0.716600	0.781900
H281	H28	0.710500	0.647900	0.815300
H291	H29	0.457900	0.709100	0.703400
H301	H30	0.454900	0.786900	0.676700
H311	H31	0.820100	0.838900	0.717400
H321	H32	0.827800	0.760300	0.743500
H331	H33	0.051400	0.465800	0.913200
H341	H34	0.058900	0.459100	0.963300
H351	H35	0.331600	0.574900	0.006900
H361	H36	0.318700	0.571900	0.058700
H371	H37	0.019500	0.945400	0.745400
H381	H38	0.030100	0.874800	0.778400
H391	H39	0.229300	0.783400	0.718100
H401	H40	0.210500	0.852100	0.684700
H411	H41	0.957900	0.790900	0.796600
H421	H42	0.954900	0.713100	0.823300
H431	H43	0.320100	0.661100	0.782600
H441	H44	0.327800	0.739700	0.756500
H451	H45	0.551400	0.034200	0.586800
H461	H46	0.558900	0.040900	0.536700
H471	H47	0.831600	0.925100	0.493100
H481	H48	0.818700	0.928100	0.441300
H491	H49	0.019500	0.554600	0.245400
H501	H50	0.030100	0.625200	0.278400
H511	H51	0.229300	0.716600	0.218100
H521	H52	0.210500	0.647900	0.184700
H531	H53	0.957900	0.709100	0.296600
H541	H54	0.954900	0.786900	0.323300
H551	H55	0.320100	0.838900	0.282600
H561	H56	0.327800	0.760300	0.256500
H571	H57	0.551400	0.465800	0.086800
H581	H58	0.558900	0.459100	0.036700
H591	H59	0.831600	0.574900	0.993100
H601	H60	0.818700	0.571900	0.941300
H611	H61	0.519500	0.945400	0.254600
H621	H62	0.530100	0.874800	0.221600
H631	H63	0.729300	0.783400	0.281900
H641	H64	0.710500	0.852100	0.315300
H651	H65	0.457900	0.790900	0.203400
H661	H66	0.454900	0.713100	0.176700
H671	H67	0.820100	0.661100	0.217400
H681	H68	0.827800	0.739700	0.243500
H691	H69	0.051400	0.034200	0.413200
H701	H70	0.058900	0.040900	0.463300
H711	H71	0.331600	0.925100	0.506900
H721	H72	0.318700	0.928100	0.558700
H731	H73	0.480500	0.445400	0.245400
H741	H74	0.469900	0.374800	0.278400
H751	H75	0.270700	0.283400	0.218100
H761	H76	0.289500	0.352100	0.184700
H771	H77	0.542100	0.290900	0.296600
H781	H78	0.545100	0.213100	0.323300
H791	H79	0.179900	0.161100	0.282600
H801	H80	0.172200	0.239700	0.256500
H811	H81	0.948600	0.534200	0.086800
H821	H82	0.941100	0.540900	0.036700
H831	H83	0.668400	0.425100	0.993100
H841	H84	0.681300	0.428100	0.941300
H851	H85	0.980500	0.054600	0.254600
H861	H86	0.969900	0.125200	0.221600
H871	H87	0.770700	0.216600	0.281900
H881	H88	0.789500	0.147900	0.315300
H891	H89	0.042100	0.209100	0.203400
H901	H90	0.045100	0.286900	0.176700
H911	H91	0.679900	0.338900	0.217400
H921	H92	0.672200	0.260300	0.243500
H931	H93	0.448600	0.965800	0.413200
H941	H94	0.441100	0.959100	0.463300
H951	H95	0.168400	0.074900	0.506900
H961	H96	0.181300	0.071900	0.558700
C11	C1	0.900800	0.451030	0.810120
C21	C2	0.886400	0.407750	0.788560
C31	C3	0.938700	0.412400	0.760360
C41	C4	0.931900	0.370330	0.740280
C51	C5	0.867200	0.321380	0.748570
C61	C6	0.814600	0.316170	0.776420
C71	C7	0.824300	0.357410	0.796390
C81	C8	0.862900	0.273850	0.727920
C91	C9	0.970100	0.264500	0.706710
C101	C10	0.972100	0.217850	0.690770
C111	C11	0.868200	0.177350	0.695010
C121	C12	0.754000	0.187050	0.714930
C131	C13	0.750100	0.233720	0.730660
C141	C14	0.881800	0.121850	0.680890
C151	C15	0.366700	0.521180	0.923260
C161	C16	0.364900	0.523500	0.953300
C171	C17	0.203300	0.456200	0.016280
C181	C18	0.210400	0.460000	0.049350
C191	C19	0.400800	0.048970	0.689880
C201	C20	0.386400	0.092250	0.711440
C211	C21	0.438700	0.087600	0.739640
C221	C22	0.431900	0.129670	0.759720
C231	C23	0.367200	0.178620	0.751430
C241	C24	0.314600	0.183830	0.723580
C251	C25	0.324300	0.142590	0.703610
C261	C26	0.362900	0.226150	0.772080
C271	C27	0.470100	0.235500	0.793290
C281	C28	0.472100	0.282150	0.809230
C291	C29	0.368200	0.322650	0.804990
C301	C30	0.254000	0.312950	0.785070
C311	C31	0.250100	0.266280	0.769340
C321	C32	0.381800	0.378150	0.819110
C331	C33	0.866700	0.978820	0.576740
C341	C34	0.864900	0.976500	0.546700
C351	C35	0.703300	0.043800	0.483720
C361	C36	0.710400	0.040000	0.450650
C371	C37	0.599200	0.548970	0.810120
C381	C38	0.613600	0.592250	0.788560
C391	C39	0.561300	0.587600	0.760360
C401	C40	0.568100	0.629670	0.740280
C411	C41	0.632800	0.678620	0.748570
C421	C42	0.685400	0.683830	0.776420
C431	C43	0.675700	0.642590	0.796390
C441	C44	0.637100	0.726150	0.727920
C451	C45	0.529900	0.735500	0.706710
C461	C46	0.527900	0.782150	0.690770
C471	C47	0.631800	0.822650	0.695010
C481	C48	0.746000	0.812950	0.714930
C491	C49	0.749900	0.766280	0.730660
C501	C50	0.618200	0.878150	0.680890
C511	C51	0.133300	0.478820	0.923260
C521	C52	0.135100	0.476500	0.953300
C531	C53	0.296700	0.543800	0.016280
C541	C54	0.289600	0.540000	0.049350
C551	C55	0.099200	0.951030	0.689880
C561	C56	0.113600	0.907750	0.711440
C571	C57	0.061300	0.912400	0.739640
C581	C58	0.068100	0.870330	0.759720
C591	C59	0.132800	0.821380	0.751430
C601	C60	0.185400	0.816170	0.723580
C611	C61	0.175700	0.857410	0.703610
C621	C62	0.137100	0.773850	0.772080
C631	C63	0.029900	0.764500	0.793290
C641	C64	0.027900	0.717850	0.809230
C651	C65	0.131800	0.677350	0.804990
C661	C66	0.246000	0.687050	0.785070
C671	C67	0.249900	0.733720	0.769340
C681	C68	0.118200	0.621850	0.819110
C691	C69	0.633300	0.021180	0.576740
C701	C70	0.635100	0.023500	0.546700
C711	C71	0.796700	0.956200	0.483720
C721	C72	0.789600	0.960000	0.450650
C731	C73	0.099200	0.548970	0.189880
C741	C74	0.113600	0.592250	0.211440
C751	C75	0.061300	0.587600	0.239640
C761	C76	0.068100	0.629670	0.259720
C771	C77	0.132800	0.678620	0.251430
C781	C78	0.185400	0.683830	0.223580
C791	C79	0.175700	0.642590	0.203610
C801	C80	0.137100	0.726150	0.272080
C811	C81	0.029900	0.735500	0.293290
C821	C82	0.027900	0.782150	0.309230
C831	C83	0.131800	0.822650	0.304990
C841	C84	0.246000	0.812950	0.285070
C851	C85	0.249900	0.766280	0.269340
C861	C86	0.118200	0.878150	0.319110
C871	C87	0.633300	0.478820	0.076740
C881	C88	0.635100	0.476500	0.046700
C891	C89	0.796700	0.543800	0.983720
C901	C90	0.789600	0.540000	0.950650
C911	C91	0.599200	0.951030	0.310120
C921	C92	0.613600	0.907750	0.288560
C931	C93	0.561300	0.912400	0.260360
C941	C94	0.568100	0.870330	0.240280
C951	C95	0.632800	0.821380	0.248570
C961	C96	0.685400	0.816170	0.276420
C971	C97	0.675700	0.857410	0.296390
C981	C98	0.637100	0.773850	0.227920
C991	C99	0.529900	0.764500	0.206710
C1001	C100	0.527900	0.717850	0.190770
C1011	C101	0.631800	0.677350	0.195010
C1021	C102	0.746000	0.687050	0.214930
C1031	C103	0.749900	0.733720	0.230660
C1041	C104	0.618200	0.621850	0.180890
C1051	C105	0.133300	0.021180	0.423260
C1061	C106	0.135100	0.023500	0.453300
C1071	C107	0.296700	0.956200	0.516280
C1081	C108	0.289600	0.960000	0.549350
C1091	C109	0.400800	0.451030	0.189880
C1101	C110	0.386400	0.407750	0.211440
C1111	C111	0.438700	0.412400	0.239640
C1121	C112	0.431900	0.370330	0.259720
C1131	C113	0.367200	0.321380	0.251430
C1141	C114	0.314600	0.316170	0.223580
C1151	C115	0.324300	0.357410	0.203610
C1161	C116	0.362900	0.273850	0.272080
C1171	C117	0.470100	0.264500	0.293290
C1181	C118	0.472100	0.217850	0.309230
C1191	C119	0.368200	0.177350	0.304990
C1201	C120	0.254000	0.187050	0.285070
C1211	C121	0.250100	0.233720	0.269340
C1221	C122	0.381800	0.121850	0.319110
C1231	C123	0.866700	0.521180	0.076740
C1241	C124	0.864900	0.523500	0.046700
C1251	C125	0.703300	0.456200	0.983720
C1261	C126	0.710400	0.460000	0.950650
C1271	C127	0.900800	0.048970	0.310120
C1281	C128	0.886400	0.092250	0.288560
C1291	C129	0.938700	0.087600	0.260360
C1301	C130	0.931900	0.129670	0.240280
C1311	C131	0.867200	0.178620	0.248570
C1321	C132	0.814600	0.183830	0.276420
C1331	C133	0.824300	0.142590	0.296390
C1341	C134	0.862900	0.226150	0.227920
C1351	C135	0.970100	0.235500	0.206710
C1361	C136	0.972100	0.282150	0.190770
C1371	C137	0.868200	0.322650	0.195010
C1381	C138	0.754000	0.312950	0.214930
C1391	C139	0.750100	0.266280	0.230660
C1401	C140	0.881800	0.378150	0.180890
C1411	C141	0.366700	0.978820	0.423260
C1421	C142	0.364900	0.976500	0.453300
C1431	C143	0.203300	0.043800	0.516280
C1441	C144	0.210400	0.040000	0.549350
C1451	C145	0.250000	0.500000	0.875110
C1461	C146	0.250000	0.500000	0.908060
C1471	C147	0.250000	0.500000	0.968570
C1481	C148	0.250000	0.500000	0.001220
C1491	C149	0.250000	0.500000	0.067990
C1501	C150	0.250000	0.500000	0.102010
C1511	C151	0.750000	0.000000	0.624890
C1521	C152	0.750000	0.000000	0.591940
C1531	C153	0.750000	0.000000	0.531430
C1541	C154	0.750000	0.000000	0.498780
C1551	C155	0.750000	0.000000	0.432010
C1561	C156	0.750000	0.000000	0.397990
C1571	C157	0.750000	0.500000	0.124890
C1581	C158	0.750000	0.500000	0.091940
C1591	C159	0.750000	0.500000	0.031430
C1601	C160	0.750000	0.500000	0.998780
C1611	C161	0.750000	0.500000	0.932010
C1621	C162	0.750000	0.500000	0.897990
C1631	C163	0.250000	0.000000	0.375110
C1641	C164	0.250000	0.000000	0.408060
C1651	C165	0.250000	0.000000	0.468570
C1661	C166	0.250000	0.000000	0.501220
C1671	C167	0.250000	0.000000	0.567990
C1681	C168	0.250000	0.000000	0.602010
O11	O1	0.982800	0.492690	0.804540
O21	O2	0.829600	0.448560	0.833930
O31	O3	0.996100	0.113710	0.666040
O41	O4	0.781500	0.089480	0.685090
O51	O5	0.131400	0.491310	0.861620
O61	O6	0.176100	0.460000	0.105200
O71	O7	0.482800	0.007310	0.695460
O81	O8	0.329600	0.051440	0.666070
O91	O9	0.496100	0.386290	0.833960
O101	O10	0.281500	0.410520	0.814910
O111	O11	0.631400	0.008690	0.638380
O121	O12	0.676100	0.040000	0.394800
O131	O13	0.517200	0.507310	0.804540
O141	O14	0.670400	0.551440	0.833930
O151	O15	0.503900	0.886290	0.666040
O161	O16	0.718500	0.910520	0.685090
O171	O17	0.368600	0.508690	0.861620
O181	O18	0.323900	0.540000	0.105200
O191	O19	0.017200	0.992690	0.695460
O201	O20	0.170400	0.948560	0.666070
O211	O21	0.003900	0.613710	0.833960
O221	O22	0.218500	0.589480	0.814910
O231	O23	0.868600	0.991310	0.638380
O241	O24	0.823900	0.960000	0.394800
O251	O25	0.017200	0.507310	0.195460
O261	O26	0.170400	0.551440	0.166070
O271	O27	0.003900	0.886290	0.333960
O281	O28	0.218500	0.910520	0.314910
O291	O29	0.868600	0.508690	0.138380
O301	O30	0.823900	0.540000	0.894800
O311	O31	0.517200	0.992690	0.304540
O321	O32	0.670400	0.948560	0.333930
O331	O33	0.503900	0.613710	0.166040
O341	O34	0.718500	0.589480	0.185090
O351	O35	0.368600	0.991310	0.361620
O361	O36	0.323900	0.960000	0.605200
O371	O37	0.482800	0.492690	0.195460
O381	O38	0.329600	0.448560	0.166070
O391	O39	0.496100	0.113710	0.333960
O401	O40	0.281500	0.089480	0.314910
O411	O41	0.631400	0.491310	0.138380
O421	O42	0.676100	0.460000	0.894800
O431	O43	0.982800	0.007310	0.304540
O441	O44	0.829600	0.051440	0.333930
O451	O45	0.996100	0.386290	0.166040
O461	O46	0.781500	0.410520	0.185090
O471	O47	0.131400	0.008690	0.361620
O481	O48	0.176100	0.040000	0.605200
