data_XIHRIQ_freeONLY_PM
_symmetry_space_group_name_H-M	'P1'
_cell_length_a	10.725000
_cell_length_b	13.331000
_cell_length_c	15.261400
_cell_angle_alpha	65.641000
_cell_angle_beta	86.004000
_cell_angle_gamma	74.007000
_symmetry_Int_Tables_number 1

loop_
_symmetry_equiv_pos_as_xyz
'x,y,z'

loop_
_atom_site_label
_atom_site_type_symbol
_atom_site_fract_x
_atom_site_fract_y
_atom_site_fract_z
Co11	Co1	0.128620	0.013400	0.588570
Co21	Co2	0.871380	0.986600	0.411430
H11	H1	0.211700	0.752100	0.697800
H21	H2	0.141500	0.599800	0.802000
H31	H3	0.802100	0.816100	0.801800
H41	H4	0.877900	0.966400	0.696000
H51	H5	0.970400	0.517700	0.903300
H61	H6	0.849400	0.396400	0.925800
H71	H7	0.754500	0.250700	0.031300
H81	H8	0.613500	0.283800	0.141300
H91	H9	0.436500	0.587700	0.223000
H101	H10	0.512800	0.735500	0.111000
H111	H11	0.658100	0.704000	0.004600
H121	H12	0.307300	0.470300	0.231100
H131	H13	0.460500	0.169000	0.353700
H141	H14	0.373700	0.038600	0.475500
H151	H15	0.062000	0.276900	0.465300
H161	H16	0.140700	0.413500	0.347500
H171	H17	0.509600	0.923500	0.781600
H181	H18	0.618800	0.923300	0.906000
H191	H19	0.286500	0.081900	0.982200
H201	H20	0.178100	0.080300	0.854100
H211	H21	0.447800	0.396000	0.433300
H221	H22	0.600400	0.235000	0.441200
H231	H23	0.844700	0.294000	0.585500
H241	H24	0.689400	0.457300	0.578100
H251	H25	0.788300	0.247900	0.302200
H261	H26	0.858500	0.400200	0.198000
H271	H27	0.197900	0.183900	0.198200
H281	H28	0.122100	0.033600	0.304000
H291	H29	0.029600	0.482300	0.096700
H301	H30	0.150600	0.603600	0.074200
H311	H31	0.245500	0.749300	0.968700
H321	H32	0.386500	0.716200	0.858700
H331	H33	0.563500	0.412300	0.777000
H341	H34	0.487200	0.264500	0.889000
H351	H35	0.341900	0.296000	0.995400
H361	H36	0.692700	0.529700	0.768900
H371	H37	0.539500	0.831000	0.646300
H381	H38	0.626300	0.961400	0.524500
H391	H39	0.938000	0.723100	0.534700
H401	H40	0.859300	0.586500	0.652500
H411	H41	0.490400	0.076500	0.218400
H421	H42	0.381200	0.076700	0.094000
H431	H43	0.713500	0.918100	0.017800
H441	H44	0.821900	0.919700	0.145900
H451	H45	0.552200	0.604000	0.566700
H461	H46	0.399600	0.765000	0.558800
H471	H47	0.155300	0.706000	0.414500
H481	H48	0.310600	0.542700	0.421900
C11	C1	0.127800	0.765600	0.719000
C21	C2	0.086200	0.673400	0.781600
C31	C3	0.962100	0.690700	0.813800
C41	C4	0.886100	0.801300	0.781100
C51	C5	0.931900	0.892100	0.717600
C61	C6	0.915700	0.591600	0.881900
C71	C7	0.755000	0.516700	0.973600
C81	C8	0.790000	0.410400	0.969500
C91	C9	0.732800	0.321700	0.034200
C101	C10	0.647800	0.342000	0.098900
C111	C11	0.611100	0.447900	0.103000
C121	C12	0.521800	0.472000	0.170700
C131	C13	0.490400	0.575500	0.175800
C141	C14	0.539300	0.663300	0.110100
C151	C15	0.623900	0.645100	0.045800
C161	C16	0.662300	0.537500	0.039500
C171	C17	0.361900	0.396800	0.261700
C181	C18	0.310200	0.307300	0.337600
C191	C19	0.379700	0.193000	0.375900
C201	C20	0.325600	0.114900	0.448300
C211	C21	0.143200	0.254900	0.442700
C221	C22	0.189900	0.337500	0.372000
C231	C23	0.334400	0.996900	0.805300
C241	C24	0.462200	0.954700	0.822100
C251	C25	0.529300	0.954800	0.897600
C261	C26	0.465600	0.000400	0.959100
C271	C27	0.333000	0.048600	0.942700
C281	C28	0.267200	0.047100	0.865000
C291	C29	0.549600	0.448600	0.502400
C301	C30	0.528100	0.377100	0.464000
C311	C31	0.619400	0.279900	0.468900
C321	C32	0.738200	0.248500	0.514400
C331	C33	0.764200	0.314500	0.554400
C341	C34	0.670400	0.413600	0.549300
C351	C35	0.264600	0.999700	0.723400
C361	C36	0.839300	0.143000	0.517800
C371	C37	0.872200	0.234400	0.281000
C381	C38	0.913800	0.326600	0.218400
C391	C39	0.037900	0.309300	0.186200
C401	C40	0.113900	0.198700	0.218900
C411	C41	0.068100	0.107900	0.282400
C421	C42	0.084300	0.408400	0.118100
C431	C43	0.245000	0.483300	0.026400
C441	C44	0.210000	0.589600	0.030500
C451	C45	0.267200	0.678300	0.965800
C461	C46	0.352200	0.658000	0.901100
C471	C47	0.388900	0.552100	0.897000
C481	C48	0.478200	0.528000	0.829300
C491	C49	0.509600	0.424500	0.824200
C501	C50	0.460700	0.336700	0.889900
C511	C51	0.376100	0.354900	0.954200
C521	C52	0.337700	0.462500	0.960500
C531	C53	0.638100	0.603200	0.738300
C541	C54	0.689800	0.692700	0.662400
C551	C55	0.620300	0.807000	0.624100
C561	C56	0.674400	0.885100	0.551700
C571	C57	0.856800	0.745100	0.557300
C581	C58	0.810100	0.662500	0.628000
C591	C59	0.665600	0.003100	0.194700
C601	C60	0.537800	0.045300	0.177900
C611	C61	0.470700	0.045200	0.102400
C621	C62	0.534400	0.999600	0.040900
C631	C63	0.667000	0.951400	0.057300
C641	C64	0.732800	0.952900	0.135000
C651	C65	0.450400	0.551400	0.497600
C661	C66	0.471900	0.622900	0.536000
C671	C67	0.380600	0.720100	0.531100
C681	C68	0.261800	0.751500	0.485600
C691	C69	0.235800	0.685500	0.445600
C701	C70	0.329600	0.586400	0.450700
C711	C71	0.735400	0.000300	0.276600
C721	C72	0.160700	0.857000	0.482200
N11	N1	0.053600	0.873600	0.687100
N21	N2	0.799400	0.609600	0.910400
N31	N3	0.478100	0.375500	0.237800
N41	N4	0.208800	0.143700	0.480800
N51	N5	0.946400	0.126400	0.312900
N61	N6	0.200600	0.390400	0.089600
N71	N7	0.521900	0.624500	0.762200
N81	N8	0.791200	0.856300	0.519200
O11	O1	0.315400	0.946100	0.676800
O21	O2	0.146500	0.059600	0.704100
O31	O3	0.951400	0.127400	0.549100
O41	O4	0.804900	0.079400	0.488200
O51	O5	0.684600	0.053900	0.323200
O61	O6	0.853500	0.940400	0.295900
O71	O7	0.048600	0.872600	0.450900
O81	O8	0.195100	0.920600	0.511800
