data_XIHXAP_freeONLY_PM
_symmetry_space_group_name_H-M	'P1'
_cell_length_a	12.646000
_cell_length_b	14.834000
_cell_length_c	16.052100
_cell_angle_alpha	90.000000
_cell_angle_beta	98.126300
_cell_angle_gamma	90.000000
_symmetry_Int_Tables_number 1

loop_
_symmetry_equiv_pos_as_xyz
'x,y,z'

loop_
_atom_site_label
_atom_site_type_symbol
_atom_site_fract_x
_atom_site_fract_y
_atom_site_fract_z
Mn11	Mn1	0.022490	0.248710	0.015300
Mn21	Mn2	0.477510	0.748710	0.484700
Mn31	Mn3	0.977510	0.751290	0.984700
Mn41	Mn4	0.522490	0.251290	0.515300
Mn51	Mn5	0.000000	0.000000	0.000000
Mn61	Mn6	0.500000	0.500000	0.500000
Mn71	Mn7	0.000000	0.500000	0.000000
Mn81	Mn8	0.500000	0.000000	0.500000
H11	H1	0.718700	0.054700	0.808700
H21	H2	0.544700	0.052900	0.746100
H31	H3	0.472300	0.245900	0.904900
H41	H4	0.652600	0.254200	0.961300
H51	H5	0.207500	0.111100	0.614600
H61	H6	0.320900	0.140100	0.897500
H71	H7	0.050900	0.016900	0.602800
H81	H8	0.875800	0.010500	0.543800
H91	H9	0.807400	0.203800	0.704600
H101	H10	0.980900	0.201300	0.767400
H111	H11	0.265900	0.066100	0.298200
H121	H12	0.260700	0.171700	0.297600
H131	H13	0.338900	0.121600	0.245700
H141	H14	0.025300	0.374100	0.880800
H151	H15	0.905700	0.368200	0.896900
H161	H16	0.781300	0.554700	0.691300
H171	H17	0.955300	0.552900	0.753900
H181	H18	0.027700	0.745900	0.595100
H191	H19	0.847400	0.754200	0.538700
H201	H20	0.292500	0.611100	0.885400
H211	H21	0.179100	0.640100	0.602500
H221	H22	0.449100	0.516900	0.897200
H231	H23	0.624200	0.510500	0.956200
H241	H24	0.692600	0.703800	0.795400
H251	H25	0.519100	0.701300	0.732600
H261	H26	0.234100	0.566100	0.201800
H271	H27	0.239300	0.671700	0.202400
H281	H28	0.161100	0.621600	0.254300
H291	H29	0.474700	0.874100	0.619200
H301	H30	0.594300	0.868200	0.603100
H311	H31	0.281300	0.945300	0.191300
H321	H32	0.455300	0.947100	0.253900
H331	H33	0.527700	0.754100	0.095100
H341	H34	0.347400	0.745800	0.038700
H351	H35	0.792500	0.888900	0.385400
H361	H36	0.679100	0.859900	0.102500
H371	H37	0.949100	0.983100	0.397200
H381	H38	0.124200	0.989500	0.456200
H391	H39	0.192600	0.796200	0.295400
H401	H40	0.019100	0.798700	0.232600
H411	H41	0.734100	0.933900	0.701800
H421	H42	0.739300	0.828300	0.702400
H431	H43	0.661100	0.878400	0.754300
H441	H44	0.974700	0.625900	0.119200
H451	H45	0.094300	0.631800	0.103100
H461	H46	0.218700	0.445300	0.308700
H471	H47	0.044700	0.447100	0.246100
H481	H48	0.972300	0.254100	0.404900
H491	H49	0.152600	0.245800	0.461300
H501	H50	0.707500	0.388900	0.114600
H511	H51	0.820900	0.359900	0.397500
H521	H52	0.550900	0.483100	0.102800
H531	H53	0.375800	0.489500	0.043800
H541	H54	0.307400	0.296200	0.204600
H551	H55	0.480900	0.298700	0.267400
H561	H56	0.765900	0.433900	0.798200
H571	H57	0.760700	0.328300	0.797600
H581	H58	0.838900	0.378400	0.745700
H591	H59	0.525300	0.125900	0.380800
H601	H60	0.405700	0.131800	0.396900
C11	C1	0.820000	0.150100	0.935600
C21	C2	0.705100	0.153700	0.892600
C31	C3	0.670000	0.093900	0.827800
C41	C4	0.565400	0.091300	0.791200
C51	C5	0.489500	0.146600	0.821600
C61	C6	0.521800	0.207900	0.885200
C71	C7	0.630300	0.212000	0.919700
C81	C8	0.371900	0.138700	0.786000
C91	C9	0.336300	0.129300	0.699500
C101	C10	0.409300	0.133700	0.632600
C111	C11	0.229800	0.118300	0.672000
C121	C12	0.152500	0.117600	0.727100
C131	C13	0.188300	0.126600	0.813900
C141	C14	0.113900	0.122700	0.880400
C151	C15	0.297300	0.135800	0.840100
C161	C16	0.034600	0.112400	0.691000
C171	C17	0.001100	0.053600	0.623600
C181	C18	0.896800	0.049800	0.588300
C191	C19	0.820600	0.105100	0.619000
C201	C20	0.855500	0.164400	0.685100
C211	C21	0.960100	0.164500	0.721000
C221	C22	0.703800	0.107800	0.578200
C231	C23	0.150100	0.116300	0.134700
C241	C24	0.270300	0.119200	0.264600
C251	C25	0.680000	0.650100	0.564400
C261	C26	0.794900	0.653700	0.607400
C271	C27	0.830000	0.593900	0.672200
C281	C28	0.934600	0.591300	0.708800
C291	C29	0.010500	0.646600	0.678400
C301	C30	0.978200	0.707900	0.614800
C311	C31	0.869700	0.712000	0.580300
C321	C32	0.128100	0.638700	0.714000
C331	C33	0.163700	0.629300	0.800500
C341	C34	0.090700	0.633700	0.867400
C351	C35	0.270200	0.618300	0.828000
C361	C36	0.347500	0.617600	0.772900
C371	C37	0.311700	0.626600	0.686100
C381	C38	0.386100	0.622700	0.619600
C391	C39	0.202700	0.635800	0.659900
C401	C40	0.465400	0.612400	0.809000
C411	C41	0.498900	0.553600	0.876400
C421	C42	0.603200	0.549800	0.911700
C431	C43	0.679400	0.605100	0.881000
C441	C44	0.644500	0.664400	0.814900
C451	C45	0.539900	0.664500	0.779000
C461	C46	0.796200	0.607800	0.921800
C471	C47	0.349900	0.616300	0.365300
C481	C48	0.229700	0.619200	0.235400
C491	C49	0.180000	0.849900	0.064400
C501	C50	0.294900	0.846300	0.107400
C511	C51	0.330000	0.906100	0.172200
C521	C52	0.434600	0.908700	0.208800
C531	C53	0.510500	0.853400	0.178400
C541	C54	0.478200	0.792100	0.114800
C551	C55	0.369700	0.788000	0.080300
C561	C56	0.628100	0.861300	0.214000
C571	C57	0.663700	0.870700	0.300500
C581	C58	0.590700	0.866300	0.367400
C591	C59	0.770200	0.881700	0.328000
C601	C60	0.847500	0.882400	0.272900
C611	C61	0.811700	0.873400	0.186100
C621	C62	0.886100	0.877300	0.119600
C631	C63	0.702700	0.864200	0.159900
C641	C64	0.965400	0.887600	0.309000
C651	C65	0.998900	0.946400	0.376400
C661	C66	0.103200	0.950200	0.411700
C671	C67	0.179400	0.894900	0.381000
C681	C68	0.144500	0.835600	0.314900
C691	C69	0.039900	0.835500	0.279000
C701	C70	0.296200	0.892200	0.421800
C711	C71	0.849900	0.883700	0.865300
C721	C72	0.729700	0.880800	0.735400
C731	C73	0.320000	0.349900	0.435600
C741	C74	0.205100	0.346300	0.392600
C751	C75	0.170000	0.406100	0.327800
C761	C76	0.065400	0.408700	0.291200
C771	C77	0.989500	0.353400	0.321600
C781	C78	0.021800	0.292100	0.385200
C791	C79	0.130300	0.288000	0.419700
C801	C80	0.871900	0.361300	0.286000
C811	C81	0.836300	0.370700	0.199500
C821	C82	0.909300	0.366300	0.132600
C831	C83	0.729800	0.381700	0.172000
C841	C84	0.652500	0.382400	0.227100
C851	C85	0.688300	0.373400	0.313900
C861	C86	0.613900	0.377300	0.380400
C871	C87	0.797300	0.364200	0.340100
C881	C88	0.534600	0.387600	0.191000
C891	C89	0.501100	0.446400	0.123600
C901	C90	0.396800	0.450200	0.088300
C911	C91	0.320600	0.394900	0.119000
C921	C92	0.355500	0.335600	0.185100
C931	C93	0.460100	0.335500	0.221000
C941	C94	0.203800	0.392200	0.078200
C951	C95	0.650100	0.383700	0.634700
C961	C96	0.770300	0.380800	0.764600
N11	N1	0.187900	0.116200	0.192800
N21	N2	0.312100	0.616200	0.307200
N31	N3	0.812100	0.883800	0.807200
N41	N4	0.687900	0.383800	0.692800
O11	O1	0.860700	0.224300	0.958800
O21	O2	0.860500	0.075300	0.945500
O31	O3	0.454400	0.208100	0.623400
O41	O4	0.418700	0.064500	0.590100
O51	O5	0.096200	0.195900	0.913900
O61	O6	0.080900	0.046800	0.898700
O71	O7	0.660000	0.035100	0.559300
O81	O8	0.665000	0.185200	0.566700
O91	O9	0.072000	0.117800	0.079500
O101	O10	0.979000	0.373200	0.924100
O111	O11	0.639300	0.724300	0.541200
O121	O12	0.639500	0.575300	0.554500
O131	O13	0.045600	0.708100	0.876600
O141	O14	0.081300	0.564500	0.909900
O151	O15	0.403800	0.695900	0.586100
O161	O16	0.419100	0.546800	0.601300
O171	O17	0.840000	0.535100	0.940700
O181	O18	0.835000	0.685200	0.933300
O191	O19	0.428000	0.617800	0.420500
O201	O20	0.521000	0.873200	0.575900
O211	O21	0.139300	0.775700	0.041200
O221	O22	0.139500	0.924700	0.054500
O231	O23	0.545600	0.791900	0.376600
O241	O24	0.581300	0.935500	0.409900
O251	O25	0.903800	0.804100	0.086100
O261	O26	0.919100	0.953200	0.101300
O271	O27	0.340000	0.964900	0.440700
O281	O28	0.335000	0.814800	0.433300
O291	O29	0.928000	0.882200	0.920500
O301	O30	0.021000	0.626800	0.075900
O311	O31	0.360700	0.275700	0.458800
O321	O32	0.360500	0.424700	0.445500
O331	O33	0.954400	0.291900	0.123400
O341	O34	0.918700	0.435500	0.090100
O351	O35	0.596200	0.304100	0.413900
O361	O36	0.580900	0.453200	0.398700
O371	O37	0.160000	0.464900	0.059300
O381	O38	0.165000	0.314800	0.066700
O391	O39	0.572000	0.382200	0.579500
O401	O40	0.479000	0.126800	0.424100
