data_XIMPOA_freeONLY_PM
_symmetry_space_group_name_H-M	'P1'
_cell_length_a	14.552000
_cell_length_b	15.639000
_cell_length_c	16.764000
_cell_angle_alpha	90.000000
_cell_angle_beta	90.000000
_cell_angle_gamma	90.000000
_symmetry_Int_Tables_number 1

loop_
_symmetry_equiv_pos_as_xyz
'x,y,z'

loop_
_atom_site_label
_atom_site_type_symbol
_atom_site_fract_x
_atom_site_fract_y
_atom_site_fract_z
Zn11	Zn1	0.656080	0.476330	0.210360
Zn21	Zn2	0.913230	0.974030	0.262380
Zn31	Zn3	0.156080	0.023670	0.789640
Zn41	Zn4	0.413230	0.525970	0.737620
H11	H1	0.734800	0.712300	0.384300
H21	H2	0.808100	0.710100	0.233200
H31	H3	0.549000	0.503700	0.965900
H41	H4	0.563800	0.334400	0.927600
H51	H5	0.773200	0.316100	0.145400
H61	H6	0.901900	0.252000	0.217800
H71	H7	0.801300	0.441500	0.345300
H81	H8	0.995400	0.299400	0.343800
H91	H9	0.957700	0.376700	0.393300
H101	H10	0.902600	0.346600	0.522200
H111	H11	0.865100	0.249800	0.621300
H121	H12	0.862700	0.060300	0.461800
H131	H13	0.897800	0.157700	0.360600
H141	H14	0.839400	0.023700	0.592200
H151	H15	0.779600	0.091900	0.637000
H161	H16	0.993800	0.148100	0.837200
H171	H17	0.853300	0.170400	0.760300
H181	H18	0.008300	0.001400	0.647400
H191	H19	0.985200	0.891100	0.429900
H201	H20	0.108900	0.952500	0.509100
H211	H21	0.075900	0.092100	0.314900
H221	H22	0.236100	0.071500	0.475900
H231	H23	0.221600	0.125000	0.397900
H241	H24	0.137500	0.109600	0.595900
H251	H25	0.094800	0.224200	0.675000
H261	H26	0.121600	0.381000	0.487400
H271	H27	0.160400	0.265600	0.407200
H281	H28	0.028000	0.376200	0.674200
H291	H29	0.065300	0.439300	0.609000
H301	H30	0.292900	0.392200	0.834600
H311	H31	0.142800	0.336500	0.792800
H321	H32	0.231800	0.497400	0.629500
H331	H33	0.234800	0.787700	0.615700
H341	H34	0.308100	0.789900	0.766800
H351	H35	0.049000	0.996300	0.034100
H361	H36	0.063800	0.165600	0.072400
H371	H37	0.273200	0.183900	0.854600
H381	H38	0.401900	0.248000	0.782200
H391	H39	0.301300	0.058500	0.654700
H401	H40	0.495400	0.200600	0.656200
H411	H41	0.457700	0.123300	0.606700
H421	H42	0.402600	0.153400	0.477800
H431	H43	0.365100	0.250200	0.378700
H441	H44	0.362700	0.439700	0.538200
H451	H45	0.397800	0.342300	0.639400
H461	H46	0.339400	0.476300	0.407800
H471	H47	0.279600	0.408100	0.363000
H481	H48	0.493800	0.351900	0.162800
H491	H49	0.353300	0.329600	0.239700
H501	H50	0.508300	0.498600	0.352600
H511	H51	0.485200	0.608900	0.570100
H521	H52	0.608900	0.547500	0.490900
H531	H53	0.575900	0.407900	0.685100
H541	H54	0.736100	0.428500	0.524100
H551	H55	0.721600	0.375000	0.602100
H561	H56	0.637500	0.390400	0.404100
H571	H57	0.594800	0.275800	0.325000
H581	H58	0.621600	0.119000	0.512600
H591	H59	0.660400	0.234400	0.592800
H601	H60	0.528000	0.123800	0.325800
H611	H61	0.565300	0.060700	0.391000
H621	H62	0.792900	0.107800	0.165400
H631	H63	0.642800	0.163500	0.207200
H641	H64	0.731800	0.002600	0.370500
C11	C1	0.700600	0.608600	0.310000
C21	C2	0.744400	0.690900	0.333200
C31	C3	0.796800	0.734500	0.282900
C41	C4	0.838900	0.819100	0.299500
C51	C5	0.614200	0.427100	0.052400
C61	C6	0.566100	0.447300	0.975000
C71	C7	0.546800	0.391100	0.919800
C81	C8	0.498600	0.415200	0.845300
C91	C9	0.794900	0.333500	0.195000
C101	C10	0.865700	0.297400	0.234900
C111	C11	0.809600	0.402000	0.304400
C121	C12	0.940600	0.323200	0.368100
C131	C13	0.906600	0.262000	0.431800
C141	C14	0.895300	0.289100	0.509600
C151	C15	0.873100	0.230800	0.569200
C161	C16	0.862800	0.145500	0.552000
C171	C17	0.871300	0.117800	0.474000
C181	C18	0.892800	0.176300	0.413100
C191	C19	0.840400	0.080300	0.616000
C201	C20	0.978900	0.121300	0.789400
C211	C21	0.901200	0.133600	0.747300
C221	C22	0.987300	0.040200	0.685200
C231	C23	0.019000	0.939600	0.416800
C241	C24	0.087200	0.972800	0.460500
C251	C25	0.068300	0.049600	0.353200
C261	C26	0.190900	0.102700	0.444900
C271	C27	0.156400	0.176300	0.493700
C281	C28	0.134700	0.164200	0.574000
C291	C29	0.109200	0.232800	0.621600
C301	C30	0.105100	0.315100	0.588700
C311	C31	0.124600	0.326500	0.509400
C321	C32	0.149100	0.257200	0.461300
C331	C33	0.081000	0.390400	0.641800
C341	C34	0.262000	0.406600	0.788000
C351	C35	0.179000	0.375500	0.765100
C361	C36	0.229000	0.464500	0.675600
C371	C37	0.200600	0.891400	0.690000
C381	C38	0.244400	0.809100	0.666800
C391	C39	0.296800	0.765500	0.717100
C401	C40	0.338900	0.680900	0.700500
C411	C41	0.114200	0.072900	0.947600
C421	C42	0.066100	0.052700	0.025000
C431	C43	0.046800	0.108900	0.080200
C441	C44	0.998600	0.084800	0.154700
C451	C45	0.294900	0.166500	0.805000
C461	C46	0.365700	0.202600	0.765100
C471	C47	0.309600	0.098000	0.695600
C481	C48	0.440600	0.176800	0.631900
C491	C49	0.406600	0.238000	0.568200
C501	C50	0.395300	0.210900	0.490400
C511	C51	0.373100	0.269200	0.430800
C521	C52	0.362800	0.354500	0.448000
C531	C53	0.371300	0.382200	0.526000
C541	C54	0.392800	0.323700	0.586900
C551	C55	0.340400	0.419700	0.384000
C561	C56	0.478900	0.378700	0.210600
C571	C57	0.401200	0.366400	0.252700
C581	C58	0.487300	0.459800	0.314800
C591	C59	0.519000	0.560400	0.583200
C601	C60	0.587200	0.527200	0.539500
C611	C61	0.568300	0.450400	0.646800
C621	C62	0.690900	0.397300	0.555100
C631	C63	0.656400	0.323700	0.506300
C641	C64	0.634700	0.335800	0.426000
C651	C65	0.609200	0.267200	0.378400
C661	C66	0.605100	0.184900	0.411300
C671	C67	0.624600	0.173500	0.490600
C681	C68	0.649100	0.242800	0.538700
C691	C69	0.581000	0.109600	0.358200
C701	C70	0.762000	0.093400	0.212000
C711	C71	0.679000	0.124500	0.234900
C721	C72	0.729000	0.035500	0.324400
N11	N1	0.760000	0.400100	0.239500
N21	N2	0.873300	0.341000	0.305200
N31	N3	0.033100	0.062300	0.749700
N41	N4	0.906300	0.081000	0.681200
N51	N5	0.006600	0.988500	0.349100
N61	N6	0.118800	0.042900	0.419300
N71	N7	0.293100	0.463200	0.730630
N81	N8	0.158900	0.412400	0.693900
N91	N9	0.260000	0.099900	0.760500
N101	N10	0.373300	0.159000	0.694800
N111	N11	0.533100	0.437700	0.250300
N121	N12	0.406300	0.419000	0.318800
N131	N13	0.506600	0.511500	0.650900
N141	N14	0.618800	0.457100	0.580700
N151	N15	0.793100	0.036800	0.269370
N161	N16	0.658900	0.087600	0.306100
O11	O1	0.696400	0.591670	0.236630
O21	O2	0.675000	0.558400	0.362300
O31	O3	0.877800	0.854590	0.239500
O41	O4	0.832100	0.854180	0.366230
O51	O5	0.627100	0.492400	0.097220
O61	O6	0.634700	0.352800	0.070600
O71	O7	0.465300	0.491900	0.841720
O81	O8	0.493700	0.362090	0.791300
O91	O9	0.196400	0.908330	0.763370
O101	O10	0.175000	0.941600	0.637700
O111	O11	0.377800	0.645410	0.760500
O121	O12	0.332100	0.645820	0.633770
O131	O13	0.127100	0.007600	0.902780
O141	O14	0.134700	0.147200	0.929400
O151	O15	0.965300	0.008100	0.158280
O161	O16	0.993700	0.137910	0.208700
Zn51	Zn5	0.843920	0.523670	0.710360
Zn61	Zn6	0.586770	0.025970	0.762380
Zn71	Zn7	0.343920	0.976330	0.289640
Zn81	Zn8	0.086770	0.474030	0.237620
H651	H65	0.765200	0.287700	0.884300
H661	H66	0.691900	0.289900	0.733200
H671	H67	0.951000	0.496300	0.465900
H681	H68	0.936200	0.665600	0.427600
H691	H69	0.726800	0.683900	0.645400
H701	H70	0.598100	0.748000	0.717800
H711	H71	0.698700	0.558500	0.845300
H721	H72	0.504600	0.700600	0.843800
H731	H73	0.542300	0.623300	0.893300
H741	H74	0.597400	0.653400	0.022200
H751	H75	0.634900	0.750200	0.121300
H761	H76	0.637300	0.939700	0.961800
H771	H77	0.602200	0.842300	0.860600
H781	H78	0.660600	0.976300	0.092200
H791	H79	0.720400	0.908100	0.137000
H801	H80	0.506200	0.851900	0.337200
H811	H81	0.646700	0.829600	0.260300
H821	H82	0.491700	0.998600	0.147400
H831	H83	0.514800	0.108900	0.929900
H841	H84	0.391100	0.047500	0.009100
H851	H85	0.424100	0.907900	0.814900
H861	H86	0.263900	0.928500	0.975900
H871	H87	0.278400	0.875000	0.897900
H881	H88	0.362500	0.890400	0.095900
H891	H89	0.405200	0.775800	0.175000
H901	H90	0.378400	0.619000	0.987400
H911	H91	0.339600	0.734400	0.907200
H921	H92	0.472000	0.623800	0.174200
H931	H93	0.434700	0.560700	0.109000
H941	H94	0.207100	0.607800	0.334600
H951	H95	0.357200	0.663500	0.292800
H961	H96	0.268200	0.502600	0.129500
H971	H97	0.265200	0.212300	0.115700
H981	H98	0.191900	0.210100	0.266800
H991	H99	0.451000	0.003700	0.534100
H1001	H100	0.436200	0.834400	0.572400
H1011	H101	0.226800	0.816100	0.354600
H1021	H102	0.098100	0.752000	0.282200
H1031	H103	0.198700	0.941500	0.154700
H1041	H104	0.004600	0.799400	0.156200
H1051	H105	0.042300	0.876700	0.106700
H1061	H106	0.097400	0.846600	0.977800
H1071	H107	0.134900	0.749800	0.878700
H1081	H108	0.137300	0.560300	0.038200
H1091	H109	0.102200	0.657700	0.139400
H1101	H110	0.160600	0.523700	0.907800
H1111	H111	0.220400	0.591900	0.863000
H1121	H112	0.006200	0.648100	0.662800
H1131	H113	0.146700	0.670400	0.739700
H1141	H114	0.991700	0.501400	0.852600
H1151	H115	0.014800	0.391100	0.070100
H1161	H116	0.891100	0.452500	0.990900
H1171	H117	0.924100	0.592100	0.185100
H1181	H118	0.763900	0.571500	0.024100
H1191	H119	0.778400	0.625000	0.102100
H1201	H120	0.862500	0.609600	0.904100
H1211	H121	0.905200	0.724200	0.825000
H1221	H122	0.878400	0.881000	0.012600
H1231	H123	0.839600	0.765600	0.092800
H1241	H124	0.972000	0.876200	0.825800
H1251	H125	0.934700	0.939300	0.891000
H1261	H126	0.707100	0.892200	0.665400
H1271	H127	0.857200	0.836500	0.707200
H1281	H128	0.768200	0.997400	0.870500
C731	C73	0.799400	0.391400	0.810000
C741	C74	0.755600	0.309100	0.833200
C751	C75	0.703200	0.265500	0.782900
C761	C76	0.661100	0.180900	0.799500
C771	C77	0.885800	0.572900	0.552400
C781	C78	0.933900	0.552700	0.475000
C791	C79	0.953200	0.608900	0.419800
C801	C80	0.001400	0.584800	0.345300
C811	C81	0.705100	0.666500	0.695000
C821	C82	0.634300	0.702600	0.734900
C831	C83	0.690400	0.598000	0.804400
C841	C84	0.559400	0.676800	0.868100
C851	C85	0.593400	0.738000	0.931800
C861	C86	0.604700	0.710900	0.009600
C871	C87	0.626900	0.769200	0.069200
C881	C88	0.637200	0.854500	0.052000
C891	C89	0.628700	0.882200	0.974000
C901	C90	0.607200	0.823700	0.913100
C911	C91	0.659600	0.919700	0.116000
C921	C92	0.521100	0.878700	0.289400
C931	C93	0.598800	0.866400	0.247300
C941	C94	0.512700	0.959800	0.185200
C951	C95	0.481000	0.060400	0.916800
C961	C96	0.412800	0.027200	0.960500
C971	C97	0.431700	0.950400	0.853200
C981	C98	0.309100	0.897300	0.944900
C991	C99	0.343600	0.823700	0.993700
C1001	C100	0.365300	0.835800	0.074000
C1011	C101	0.390800	0.767200	0.121600
C1021	C102	0.394900	0.684900	0.088700
C1031	C103	0.375400	0.673500	0.009400
C1041	C104	0.350900	0.742800	0.961300
C1051	C105	0.419000	0.609600	0.141800
C1061	C106	0.238000	0.593400	0.288000
C1071	C107	0.321000	0.624500	0.265100
C1081	C108	0.271000	0.535500	0.175600
C1091	C109	0.299400	0.108600	0.190000
C1101	C110	0.255600	0.190900	0.166800
C1111	C111	0.203200	0.234500	0.217100
C1121	C112	0.161100	0.319100	0.200500
C1131	C113	0.385800	0.927100	0.447600
C1141	C114	0.433900	0.947300	0.525000
C1151	C115	0.453200	0.891100	0.580200
C1161	C116	0.501400	0.915200	0.654700
C1171	C117	0.205100	0.833500	0.305000
C1181	C118	0.134300	0.797400	0.265100
C1191	C119	0.190400	0.902000	0.195600
C1201	C120	0.059400	0.823200	0.131900
C1211	C121	0.093400	0.762000	0.068200
C1221	C122	0.104700	0.789100	0.990400
C1231	C123	0.126900	0.730800	0.930800
C1241	C124	0.137200	0.645500	0.948000
C1251	C125	0.128700	0.617800	0.026000
C1261	C126	0.107200	0.676300	0.086900
C1271	C127	0.159600	0.580300	0.884000
C1281	C128	0.021100	0.621300	0.710600
C1291	C129	0.098800	0.633600	0.752700
C1301	C130	0.012700	0.540200	0.814800
C1311	C131	0.981000	0.439600	0.083200
C1321	C132	0.912800	0.472800	0.039500
C1331	C133	0.931700	0.549600	0.146800
C1341	C134	0.809100	0.602700	0.055100
C1351	C135	0.843600	0.676300	0.006300
C1361	C136	0.865300	0.664200	0.926000
C1371	C137	0.890800	0.732800	0.878400
C1381	C138	0.894900	0.815100	0.911300
C1391	C139	0.875400	0.826500	0.990600
C1401	C140	0.850900	0.757200	0.038700
C1411	C141	0.919000	0.890400	0.858200
C1421	C142	0.738000	0.906600	0.712000
C1431	C143	0.821000	0.875500	0.734900
C1441	C144	0.771000	0.964500	0.824400
N171	N17	0.740000	0.599900	0.739500
N181	N18	0.626700	0.659000	0.805200
N191	N19	0.466900	0.937700	0.249700
N201	N20	0.593700	0.919000	0.181200
N211	N21	0.493400	0.011500	0.849100
N221	N22	0.381200	0.957100	0.919300
N231	N23	0.206900	0.536800	0.230630
N241	N24	0.341100	0.587600	0.193900
N251	N25	0.240000	0.900100	0.260500
N261	N26	0.126700	0.841000	0.194800
N271	N27	0.966900	0.562300	0.750300
N281	N28	0.093700	0.581000	0.818800
N291	N29	0.993400	0.488500	0.150900
N301	N30	0.881200	0.542900	0.080700
N311	N31	0.706900	0.963200	0.769370
N321	N32	0.841100	0.912400	0.806100
O171	O17	0.803600	0.408330	0.736630
O181	O18	0.825000	0.441600	0.862300
O191	O19	0.622200	0.145410	0.739500
O201	O20	0.667900	0.145820	0.866230
O211	O21	0.872900	0.507600	0.597220
O221	O22	0.865300	0.647200	0.570600
O231	O23	0.034700	0.508100	0.341720
O241	O24	0.006300	0.637910	0.291300
O251	O25	0.303600	0.091670	0.263370
O261	O26	0.325000	0.058400	0.137700
O271	O27	0.122200	0.354590	0.260500
O281	O28	0.167900	0.354180	0.133770
O291	O29	0.372900	0.992400	0.402780
O301	O30	0.365300	0.852800	0.429400
O311	O31	0.534700	0.991900	0.658280
O321	O32	0.506300	0.862090	0.708700
