data_XIPBII_freeONLY_PM
_symmetry_space_group_name_H-M	'P1'
_cell_length_a	15.276400
_cell_length_b	15.431800
_cell_length_c	15.431800
_cell_angle_alpha	120.000000
_cell_angle_beta	90.000000
_cell_angle_gamma	90.000000
_symmetry_Int_Tables_number 1

loop_
_symmetry_equiv_pos_as_xyz
'x,y,z'

loop_
_atom_site_label
_atom_site_type_symbol
_atom_site_fract_x
_atom_site_fract_y
_atom_site_fract_z
Nd11	Nd1	0.750000	0.333330	0.666660
Nd21	Nd2	0.750000	0.666670	0.333340
Nd31	Nd3	0.250000	0.666670	0.333340
Nd41	Nd4	0.250000	0.333330	0.666660
Co11	Co1	0.000000	0.500000	0.500000
Co21	Co2	0.000000	0.000000	0.500000
Co31	Co3	0.000000	0.500000	0.000000
Co41	Co4	0.500000	0.000000	0.500000
Co51	Co5	0.500000	0.500000	0.500000
Co61	Co6	0.500000	0.500000	0.000000
H11	H1	0.844400	0.712900	0.765900
H21	H2	0.844400	0.053000	0.287100
H31	H3	0.844400	0.234100	0.947000
H41	H4	0.844400	0.287100	0.234100
H51	H5	0.844400	0.947000	0.712900
H61	H6	0.844400	0.765900	0.053000
H71	H7	0.655600	0.947000	0.234100
H81	H8	0.655600	0.765900	0.712900
H91	H9	0.655600	0.287100	0.053000
H101	H10	0.655600	0.053000	0.765900
H111	H11	0.655600	0.234100	0.287100
H121	H12	0.655600	0.712900	0.947000
H131	H13	0.155600	0.287100	0.234100
H141	H14	0.155600	0.947000	0.712900
H151	H15	0.155600	0.765900	0.053000
H161	H16	0.155600	0.712900	0.765900
H171	H17	0.155600	0.053000	0.287100
H181	H18	0.155600	0.234100	0.947000
H191	H19	0.344400	0.053000	0.765900
H201	H20	0.344400	0.234100	0.287100
H211	H21	0.344400	0.712900	0.947000
H221	H22	0.344400	0.947000	0.234100
H231	H23	0.344400	0.765900	0.712900
H241	H24	0.344400	0.287100	0.053000
H251	H25	0.750000	0.800000	0.900000
H261	H26	0.750000	0.100000	0.200000
H271	H27	0.750000	0.100000	0.900000
H281	H28	0.750000	0.200000	0.100000
H291	H29	0.750000	0.900000	0.800000
H301	H30	0.750000	0.900000	0.100000
H311	H31	0.250000	0.200000	0.100000
H321	H32	0.250000	0.900000	0.800000
H331	H33	0.250000	0.900000	0.100000
H341	H34	0.250000	0.800000	0.900000
H351	H35	0.250000	0.100000	0.200000
H361	H36	0.250000	0.100000	0.900000
C11	C1	0.861200	0.511500	0.646500
C21	C2	0.803400	0.575400	0.735000
C31	C3	0.806000	0.679000	0.785400
C41	C4	0.861200	0.135000	0.488500
C51	C5	0.803400	0.159600	0.424600
C61	C6	0.806000	0.106400	0.321000
C71	C7	0.861200	0.353500	0.865000
C81	C8	0.803400	0.265000	0.840400
C91	C9	0.806000	0.214600	0.893600
C101	C10	0.861200	0.488500	0.353500
C111	C11	0.803400	0.424600	0.265000
C121	C12	0.806000	0.321000	0.214600
C131	C13	0.861200	0.865000	0.511500
C141	C14	0.803400	0.840400	0.575400
C151	C15	0.806000	0.893600	0.679000
C161	C16	0.861200	0.646500	0.135000
C171	C17	0.803400	0.735000	0.159600
C181	C18	0.806000	0.785400	0.106400
C191	C19	0.638800	0.865000	0.353500
C201	C20	0.696600	0.840400	0.265000
C211	C21	0.694000	0.893600	0.214600
C221	C22	0.638800	0.646500	0.511500
C231	C23	0.696600	0.735000	0.575400
C241	C24	0.694000	0.785400	0.679000
C251	C25	0.638800	0.488500	0.135000
C261	C26	0.696600	0.424600	0.159600
C271	C27	0.694000	0.321000	0.106400
C281	C28	0.638800	0.135000	0.646500
C291	C29	0.696600	0.159600	0.735000
C301	C30	0.694000	0.106400	0.785400
C311	C31	0.638800	0.353500	0.488500
C321	C32	0.696600	0.265000	0.424600
C331	C33	0.694000	0.214600	0.321000
C341	C34	0.638800	0.511500	0.865000
C351	C35	0.696600	0.575400	0.840400
C361	C36	0.694000	0.679000	0.893600
C371	C37	0.138800	0.488500	0.353500
C381	C38	0.196600	0.424600	0.265000
C391	C39	0.194000	0.321000	0.214600
C401	C40	0.138800	0.865000	0.511500
C411	C41	0.196600	0.840400	0.575400
C421	C42	0.194000	0.893600	0.679000
C431	C43	0.138800	0.646500	0.135000
C441	C44	0.196600	0.735000	0.159600
C451	C45	0.194000	0.785400	0.106400
C461	C46	0.138800	0.511500	0.646500
C471	C47	0.196600	0.575400	0.735000
C481	C48	0.194000	0.679000	0.785400
C491	C49	0.138800	0.135000	0.488500
C501	C50	0.196600	0.159600	0.424600
C511	C51	0.194000	0.106400	0.321000
C521	C52	0.138800	0.353500	0.865000
C531	C53	0.196600	0.265000	0.840400
C541	C54	0.194000	0.214600	0.893600
C551	C55	0.361200	0.135000	0.646500
C561	C56	0.303400	0.159600	0.735000
C571	C57	0.306000	0.106400	0.785400
C581	C58	0.361200	0.353500	0.488500
C591	C59	0.303400	0.265000	0.424600
C601	C60	0.306000	0.214600	0.321000
C611	C61	0.361200	0.511500	0.865000
C621	C62	0.303400	0.575400	0.840400
C631	C63	0.306000	0.679000	0.893600
C641	C64	0.361200	0.865000	0.353500
C651	C65	0.303400	0.840400	0.265000
C661	C66	0.306000	0.893600	0.214600
C671	C67	0.361200	0.646500	0.511500
C681	C68	0.303400	0.735000	0.575400
C691	C69	0.306000	0.785400	0.679000
C701	C70	0.361200	0.488500	0.135000
C711	C71	0.303400	0.424600	0.159600
C721	C72	0.306000	0.321000	0.106400
C731	C73	0.750000	0.730400	0.865200
C741	C74	0.750000	0.134800	0.269600
C751	C75	0.750000	0.134800	0.865200
C761	C76	0.750000	0.269600	0.134800
C771	C77	0.750000	0.865200	0.730400
C781	C78	0.750000	0.865200	0.134800
C791	C79	0.250000	0.269600	0.134800
C801	C80	0.250000	0.865200	0.730400
C811	C81	0.250000	0.865200	0.134800
C821	C82	0.250000	0.730400	0.865200
C831	C83	0.250000	0.134800	0.269600
C841	C84	0.250000	0.134800	0.865200
N11	N1	0.750000	0.524900	0.762450
N21	N2	0.750000	0.237550	0.475100
N31	N3	0.750000	0.237550	0.762450
N41	N4	0.750000	0.475100	0.237550
N51	N5	0.750000	0.762450	0.524900
N61	N6	0.750000	0.762450	0.237550
N71	N7	0.250000	0.475100	0.237550
N81	N8	0.250000	0.762450	0.524900
N91	N9	0.250000	0.762450	0.237550
N101	N10	0.250000	0.524900	0.762450
N111	N11	0.250000	0.237550	0.475100
N121	N12	0.250000	0.237550	0.762450
O11	O1	0.858500	0.417400	0.613400
O21	O2	0.906000	0.554600	0.612600
O31	O3	0.858500	0.196000	0.582600
O41	O4	0.906000	0.058000	0.445400
O51	O5	0.858500	0.386600	0.804000
O61	O6	0.906000	0.387400	0.942000
O71	O7	0.858500	0.582600	0.386600
O81	O8	0.906000	0.445400	0.387400
O91	O9	0.858500	0.804000	0.417400
O101	O10	0.906000	0.942000	0.554600
O111	O11	0.858500	0.613400	0.196000
O121	O12	0.906000	0.612600	0.058000
O131	O13	0.641500	0.804000	0.386600
O141	O14	0.594000	0.942000	0.387400
O151	O15	0.641500	0.613400	0.417400
O161	O16	0.594000	0.612600	0.554600
O171	O17	0.641500	0.582600	0.196000
O181	O18	0.594000	0.445400	0.058000
O191	O19	0.641500	0.196000	0.613400
O201	O20	0.594000	0.058000	0.612600
O211	O21	0.641500	0.386600	0.582600
O221	O22	0.594000	0.387400	0.445400
O231	O23	0.641500	0.417400	0.804000
O241	O24	0.594000	0.554600	0.942000
O251	O25	0.141500	0.582600	0.386600
O261	O26	0.094000	0.445400	0.387400
O271	O27	0.141500	0.804000	0.417400
O281	O28	0.094000	0.942000	0.554600
O291	O29	0.141500	0.613400	0.196000
O301	O30	0.094000	0.612600	0.058000
O311	O31	0.141500	0.417400	0.613400
O321	O32	0.094000	0.554600	0.612600
O331	O33	0.141500	0.196000	0.582600
O341	O34	0.094000	0.058000	0.445400
O351	O35	0.141500	0.386600	0.804000
O361	O36	0.094000	0.387400	0.942000
O371	O37	0.358500	0.196000	0.613400
O381	O38	0.406000	0.058000	0.612600
O391	O39	0.358500	0.386600	0.582600
O401	O40	0.406000	0.387400	0.445400
O411	O41	0.358500	0.417400	0.804000
O421	O42	0.406000	0.554600	0.942000
O431	O43	0.358500	0.804000	0.386600
O441	O44	0.406000	0.942000	0.387400
O451	O45	0.358500	0.613400	0.417400
O461	O46	0.406000	0.612600	0.554600
O471	O47	0.358500	0.582600	0.196000
O481	O48	0.406000	0.445400	0.058000
O491	O49	0.000000	0.355500	0.488800
O501	O50	0.000000	0.133300	0.644500
O511	O51	0.000000	0.511200	0.866700
O521	O52	0.000000	0.644500	0.511200
O531	O53	0.000000	0.866700	0.355500
O541	O54	0.000000	0.488800	0.133300
O551	O55	0.500000	0.866700	0.511200
O561	O56	0.500000	0.488800	0.355500
O571	O57	0.500000	0.644500	0.133300
O581	O58	0.500000	0.133300	0.488800
O591	O59	0.500000	0.511200	0.644500
O601	O60	0.500000	0.355500	0.866700
