data_XIPBOO_freeONLY_PM
_symmetry_space_group_name_H-M	'P1'
_cell_length_a	15.212000
_cell_length_b	15.212000
_cell_length_c	15.451000
_cell_angle_alpha	90.000000
_cell_angle_beta	90.000000
_cell_angle_gamma	120.000000
_symmetry_Int_Tables_number 1

loop_
_symmetry_equiv_pos_as_xyz
'x,y,z'

loop_
_atom_site_label
_atom_site_type_symbol
_atom_site_fract_x
_atom_site_fract_y
_atom_site_fract_z
Gd11	Gd1	0.666670	0.333340	0.750000
Gd21	Gd2	0.333330	0.666660	0.750000
Gd31	Gd3	0.333330	0.666660	0.250000
Gd41	Gd4	0.666670	0.333340	0.250000
Co11	Co1	0.500000	0.500000	0.000000
Co21	Co2	0.000000	0.500000	0.000000
Co31	Co3	0.500000	0.000000	0.000000
Co41	Co4	0.000000	0.500000	0.500000
Co51	Co5	0.500000	0.500000	0.500000
Co61	Co6	0.500000	0.000000	0.500000
H11	H1	0.521300	0.340700	0.036700
H21	H2	0.767000	0.713900	0.845200
H31	H3	0.819400	0.478700	0.036700
H41	H4	0.946900	0.233000	0.845200
H51	H5	0.659300	0.180600	0.036700
H61	H6	0.286100	0.053100	0.845200
H71	H7	0.478700	0.659300	0.036700
H81	H8	0.233000	0.286100	0.845200
H91	H9	0.180600	0.521300	0.036700
H101	H10	0.053100	0.767000	0.845200
H111	H11	0.340700	0.819400	0.036700
H121	H12	0.713900	0.946900	0.845200
H131	H13	0.180600	0.659300	0.463300
H141	H14	0.053100	0.286100	0.654800
H151	H15	0.340700	0.521300	0.463300
H161	H16	0.713900	0.767000	0.654800
H171	H17	0.478700	0.819400	0.463300
H181	H18	0.233000	0.946900	0.654800
H191	H19	0.819400	0.340700	0.463300
H201	H20	0.946900	0.713900	0.654800
H211	H21	0.659300	0.478700	0.463300
H221	H22	0.286100	0.233000	0.654800
H231	H23	0.521300	0.180600	0.463300
H241	H24	0.767000	0.053100	0.654800
H251	H25	0.478700	0.659300	0.963300
H261	H26	0.233000	0.286100	0.154800
H271	H27	0.180600	0.521300	0.963300
H281	H28	0.053100	0.767000	0.154800
H291	H29	0.340700	0.819400	0.963300
H301	H30	0.713900	0.946900	0.154800
H311	H31	0.521300	0.340700	0.963300
H321	H32	0.767000	0.713900	0.154800
H331	H33	0.819400	0.478700	0.963300
H341	H34	0.946900	0.233000	0.154800
H351	H35	0.659300	0.180600	0.963300
H361	H36	0.286100	0.053100	0.154800
H371	H37	0.819400	0.340700	0.536700
H381	H38	0.946900	0.713900	0.345200
H391	H39	0.659300	0.478700	0.536700
H401	H40	0.286100	0.233000	0.345200
H411	H41	0.521300	0.180600	0.536700
H421	H42	0.767000	0.053100	0.345200
H431	H43	0.180600	0.659300	0.536700
H441	H44	0.053100	0.286100	0.345200
H451	H45	0.340700	0.521300	0.536700
H461	H46	0.713900	0.767000	0.345200
H471	H47	0.478700	0.819400	0.536700
H481	H48	0.233000	0.946900	0.345200
H491	H49	0.901000	0.802000	0.750000
H501	H50	0.901000	0.099000	0.750000
H511	H51	0.198000	0.099000	0.750000
H521	H52	0.099000	0.198000	0.750000
H531	H53	0.099000	0.901000	0.750000
H541	H54	0.802000	0.901000	0.750000
H551	H55	0.099000	0.198000	0.250000
H561	H56	0.099000	0.901000	0.250000
H571	H57	0.802000	0.901000	0.250000
H581	H58	0.901000	0.802000	0.250000
H591	H59	0.901000	0.099000	0.250000
H601	H60	0.198000	0.099000	0.250000
C11	C1	0.645500	0.508900	0.861100
C21	C2	0.734700	0.574000	0.804000
C31	C3	0.785900	0.679400	0.806500
C41	C4	0.863400	0.354500	0.861100
C51	C5	0.839300	0.265300	0.804000
C61	C6	0.893500	0.214100	0.806500
C71	C7	0.491100	0.136600	0.861100
C81	C8	0.426000	0.160700	0.804000
C91	C9	0.320600	0.106500	0.806500
C101	C10	0.354500	0.491100	0.861100
C111	C11	0.265300	0.426000	0.804000
C121	C12	0.214100	0.320600	0.806500
C131	C13	0.136600	0.645500	0.861100
C141	C14	0.160700	0.734700	0.804000
C151	C15	0.106500	0.785900	0.806500
C161	C16	0.508900	0.863400	0.861100
C171	C17	0.574000	0.839300	0.804000
C181	C18	0.679400	0.893500	0.806500
C191	C19	0.136600	0.491100	0.638900
C201	C20	0.160700	0.426000	0.696000
C211	C21	0.106500	0.320600	0.693500
C221	C22	0.508900	0.645500	0.638900
C231	C23	0.574000	0.734700	0.696000
C241	C24	0.679400	0.785900	0.693500
C251	C25	0.354500	0.863400	0.638900
C261	C26	0.265300	0.839300	0.696000
C271	C27	0.214100	0.893500	0.693500
C281	C28	0.863400	0.508900	0.638900
C291	C29	0.839300	0.574000	0.696000
C301	C30	0.893500	0.679400	0.693500
C311	C31	0.491100	0.354500	0.638900
C321	C32	0.426000	0.265300	0.696000
C331	C33	0.320600	0.214100	0.693500
C341	C34	0.645500	0.136600	0.638900
C351	C35	0.734700	0.160700	0.696000
C361	C36	0.785900	0.106500	0.693500
C371	C37	0.354500	0.491100	0.138900
C381	C38	0.265300	0.426000	0.196000
C391	C39	0.214100	0.320600	0.193500
C401	C40	0.136600	0.645500	0.138900
C411	C41	0.160700	0.734700	0.196000
C421	C42	0.106500	0.785900	0.193500
C431	C43	0.508900	0.863400	0.138900
C441	C44	0.574000	0.839300	0.196000
C451	C45	0.679400	0.893500	0.193500
C461	C46	0.645500	0.508900	0.138900
C471	C47	0.734700	0.574000	0.196000
C481	C48	0.785900	0.679400	0.193500
C491	C49	0.863400	0.354500	0.138900
C501	C50	0.839300	0.265300	0.196000
C511	C51	0.893500	0.214100	0.193500
C521	C52	0.491100	0.136600	0.138900
C531	C53	0.426000	0.160700	0.196000
C541	C54	0.320600	0.106500	0.193500
C551	C55	0.863400	0.508900	0.361100
C561	C56	0.839300	0.574000	0.304000
C571	C57	0.893500	0.679400	0.306500
C581	C58	0.491100	0.354500	0.361100
C591	C59	0.426000	0.265300	0.304000
C601	C60	0.320600	0.214100	0.306500
C611	C61	0.645500	0.136600	0.361100
C621	C62	0.734700	0.160700	0.304000
C631	C63	0.785900	0.106500	0.306500
C641	C64	0.136600	0.491100	0.361100
C651	C65	0.160700	0.426000	0.304000
C661	C66	0.106500	0.320600	0.306500
C671	C67	0.508900	0.645500	0.361100
C681	C68	0.574000	0.734700	0.304000
C691	C69	0.679400	0.785900	0.306500
C701	C70	0.354500	0.863400	0.361100
C711	C71	0.265300	0.839300	0.304000
C721	C72	0.214100	0.893500	0.306500
C731	C73	0.865700	0.731400	0.750000
C741	C74	0.865700	0.134300	0.750000
C751	C75	0.268600	0.134300	0.750000
C761	C76	0.134300	0.268600	0.750000
C771	C77	0.134300	0.865700	0.750000
C781	C78	0.731400	0.865700	0.750000
C791	C79	0.134300	0.268600	0.250000
C801	C80	0.134300	0.865700	0.250000
C811	C81	0.731400	0.865700	0.250000
C821	C82	0.865700	0.731400	0.250000
C831	C83	0.865700	0.134300	0.250000
C841	C84	0.268600	0.134300	0.250000
N11	N1	0.761280	0.522560	0.750000
N21	N2	0.761280	0.238720	0.750000
N31	N3	0.477440	0.238720	0.750000
N41	N4	0.238720	0.477440	0.750000
N51	N5	0.238720	0.761280	0.750000
N61	N6	0.522560	0.761280	0.750000
N71	N7	0.238720	0.477440	0.250000
N81	N8	0.238720	0.761280	0.250000
N91	N9	0.522560	0.761280	0.250000
N101	N10	0.761280	0.522560	0.250000
N111	N11	0.761280	0.238720	0.250000
N121	N12	0.477440	0.238720	0.250000
O11	O1	0.611520	0.413840	0.857060
O21	O2	0.613500	0.553300	0.907180
O31	O3	0.802320	0.388480	0.857060
O41	O4	0.939800	0.386500	0.907180
O51	O5	0.586160	0.197680	0.857060
O61	O6	0.446700	0.060200	0.907180
O71	O7	0.388480	0.586160	0.857060
O81	O8	0.386500	0.446700	0.907180
O91	O9	0.197680	0.611520	0.857060
O101	O10	0.060200	0.613500	0.907180
O111	O11	0.413840	0.802320	0.857060
O121	O12	0.553300	0.939800	0.907180
O131	O13	0.197680	0.586160	0.642940
O141	O14	0.060200	0.446700	0.592820
O151	O15	0.413840	0.611520	0.642940
O161	O16	0.553300	0.613500	0.592820
O171	O17	0.388480	0.802320	0.642940
O181	O18	0.386500	0.939800	0.592820
O191	O19	0.802320	0.413840	0.642940
O201	O20	0.939800	0.553300	0.592820
O211	O21	0.586160	0.388480	0.642940
O221	O22	0.446700	0.386500	0.592820
O231	O23	0.611520	0.197680	0.642940
O241	O24	0.613500	0.060200	0.592820
O251	O25	0.388480	0.586160	0.142940
O261	O26	0.386500	0.446700	0.092820
O271	O27	0.197680	0.611520	0.142940
O281	O28	0.060200	0.613500	0.092820
O291	O29	0.413840	0.802320	0.142940
O301	O30	0.553300	0.939800	0.092820
O311	O31	0.611520	0.413840	0.142940
O321	O32	0.613500	0.553300	0.092820
O331	O33	0.802320	0.388480	0.142940
O341	O34	0.939800	0.386500	0.092820
O351	O35	0.586160	0.197680	0.142940
O361	O36	0.446700	0.060200	0.092820
O371	O37	0.802320	0.413840	0.357060
O381	O38	0.939800	0.553300	0.407180
O391	O39	0.586160	0.388480	0.357060
O401	O40	0.446700	0.386500	0.407180
O411	O41	0.611520	0.197680	0.357060
O421	O42	0.613500	0.060200	0.407180
O431	O43	0.197680	0.586160	0.357060
O441	O44	0.060200	0.446700	0.407180
O451	O45	0.413840	0.611520	0.357060
O461	O46	0.553300	0.613500	0.407180
O471	O47	0.388480	0.802320	0.357060
O481	O48	0.386500	0.939800	0.407180
O491	O49	0.486400	0.352200	0.000000
O501	O50	0.865800	0.513600	0.000000
O511	O51	0.647800	0.134200	0.000000
O521	O52	0.513600	0.647800	0.000000
O531	O53	0.134200	0.486400	0.000000
O541	O54	0.352200	0.865800	0.000000
O551	O55	0.134200	0.647800	0.500000
O561	O56	0.352200	0.486400	0.500000
O571	O57	0.513600	0.865800	0.500000
O581	O58	0.865800	0.352200	0.500000
O591	O59	0.647800	0.513600	0.500000
O601	O60	0.486400	0.134200	0.500000
