data_XOGXAU_freeONLY_PM
_symmetry_space_group_name_H-M	'P1'
_cell_length_a	13.968000
_cell_length_b	14.611000
_cell_length_c	20.566000
_cell_angle_alpha	75.250000
_cell_angle_beta	85.510000
_cell_angle_gamma	69.000000
_symmetry_Int_Tables_number 1

loop_
_symmetry_equiv_pos_as_xyz
'x,y,z'

loop_
_atom_site_label
_atom_site_type_symbol
_atom_site_fract_x
_atom_site_fract_y
_atom_site_fract_z
Cd11	Cd1	0.529810	0.733930	0.040550
Cd21	Cd2	0.470190	0.266070	0.959450
Cd31	Cd3	0.990280	0.760430	0.440260
Cd41	Cd4	0.500000	0.000000	0.000000
Cd51	Cd5	0.009720	0.239570	0.559740
Cd61	Cd6	0.000000	0.500000	0.500000
H11	H1	0.719100	0.130300	0.952700
H21	H2	0.598000	0.569400	0.556400
H31	H3	0.621600	0.693000	0.900600
H41	H4	0.026300	0.710000	0.946000
H51	H5	0.236800	0.890000	0.853600
H61	H6	0.913300	0.262000	0.279900
H71	H7	0.583700	0.678100	0.835600
H81	H8	0.940200	0.324200	0.775300
H91	H9	0.965700	0.050000	0.325400
H101	H10	0.466400	0.822900	0.415800
H111	H11	0.734300	0.223200	0.664300
H121	H12	0.701300	0.489500	0.088700
H131	H13	0.752300	0.466000	0.899200
H141	H14	0.597700	0.330600	0.272700
H151	H15	0.685000	0.206500	0.773200
H161	H16	0.210400	0.845800	0.729000
H171	H17	0.753900	0.591000	0.537500
H181	H18	0.092400	0.848700	0.880100
H191	H19	0.916500	0.062500	0.772300
H201	H20	0.847400	0.112000	0.593300
H211	H21	0.643500	0.376100	0.906000
H221	H22	0.378400	0.307000	0.099400
H231	H23	0.246100	0.409000	0.462500
H241	H24	0.416200	0.662000	0.598800
H251	H25	0.726400	0.983200	0.486600
H261	H26	0.402000	0.430600	0.443600
H271	H27	0.071800	0.071300	0.955800
H281	H28	0.727800	0.378600	0.375500
H291	H29	0.966400	0.708900	0.634600
H301	H30	0.388900	0.742900	0.773600
H311	H31	0.611100	0.257100	0.226400
H321	H32	0.152600	0.888000	0.406700
H331	H33	0.825700	0.018900	0.395300
H341	H34	0.227100	0.092100	0.941000
H351	H35	0.907600	0.151300	0.119900
H361	H36	0.132300	0.308500	0.040900
H371	H37	0.870300	0.040700	0.883500
H381	H38	0.280900	0.869700	0.047300
H391	H39	0.247700	0.534000	0.100800
H401	H40	0.083500	0.937500	0.227700
H411	H41	0.378000	0.152400	0.601800
H421	H42	0.068900	0.807400	0.769800
H431	H43	0.047400	0.103200	0.316200
H441	H44	0.109500	0.230100	0.426500
H451	H45	0.356500	0.623900	0.094000
H461	H46	0.890500	0.769900	0.573500
H471	H47	0.622000	0.847600	0.398200
H481	H48	0.298700	0.510500	0.911300
H491	H49	0.789600	0.154200	0.271000
H501	H50	0.885000	0.815200	0.635700
H511	H51	0.973700	0.290000	0.054000
H521	H52	0.763200	0.110000	0.146400
H531	H53	0.433500	0.533400	0.827600
H541	H54	0.034300	0.950000	0.674600
H551	H55	0.896500	0.303200	0.886500
H561	H56	0.588700	0.582100	0.283900
H571	H57	0.033600	0.291100	0.365400
H581	H58	0.867700	0.691500	0.959100
H591	H59	0.261500	0.972200	0.414500
H601	H60	0.103500	0.696800	0.113500
H611	H61	0.086700	0.738000	0.720100
H621	H62	0.272200	0.621400	0.624500
H631	H63	0.760900	0.367100	0.567300
H641	H64	0.529400	0.779000	0.858200
H651	H65	0.115000	0.184800	0.364300
H661	H66	0.411300	0.417900	0.716100
H671	H67	0.059800	0.675800	0.224700
H681	H68	0.541700	0.572900	0.394900
H691	H69	0.786700	0.512400	0.990800
H701	H70	0.533600	0.177100	0.584200
H711	H71	0.738500	0.027800	0.585500
H721	H72	0.273600	0.016800	0.513400
H731	H73	0.520300	0.580000	0.811100
H741	H74	0.470600	0.221000	0.141800
H751	H75	0.771500	0.224700	0.320000
H761	H76	0.258500	0.636100	0.772900
H771	H77	0.245500	0.708000	0.820500
H781	H78	0.952600	0.896800	0.683800
H791	H79	0.174300	0.981100	0.604700
H801	H80	0.754500	0.292000	0.179500
H811	H81	0.402300	0.669400	0.727300
H821	H82	0.928200	0.928700	0.044200
H831	H83	0.458300	0.427100	0.605100
H841	H84	0.416300	0.321900	0.164400
H851	H85	0.931100	0.192600	0.230200
H861	H86	0.129700	0.959300	0.116500
H871	H87	0.772900	0.907900	0.059000
H881	H88	0.228500	0.775300	0.680000
H891	H89	0.315000	0.793500	0.226800
H901	H90	0.213300	0.487600	0.009200
H911	H91	0.265700	0.776800	0.335700
H921	H92	0.239100	0.632900	0.432700
H931	H93	0.479700	0.420000	0.188900
H941	H94	0.583800	0.338000	0.401200
H951	H95	0.741500	0.363900	0.227100
H961	H96	0.566500	0.466600	0.172400
C11	C1	0.726500	0.116900	0.051700
C21	C2	0.106100	0.906700	0.561700
C31	C3	0.025000	0.248900	0.031700
C41	C4	0.303800	0.362200	0.487000
C51	C5	0.803300	0.739100	0.453800
C61	C6	0.996500	0.176800	0.424100
C71	C7	0.360700	0.747600	0.260500
C81	C8	0.823800	0.868200	0.035600
C91	C9	0.449400	0.593700	0.824600
C101	C10	0.003500	0.823200	0.575900
C111	C11	0.629200	0.090800	0.068600
C121	C12	0.241800	0.866900	0.013700
C131	C13	0.784000	0.122200	0.102000
C141	C14	0.268400	0.697100	0.776400
C151	C15	0.093900	0.799300	0.725500
C161	C16	0.930000	0.775200	0.607700
C171	C17	0.296200	0.278400	0.534600
C181	C18	0.128800	0.854600	0.913800
C191	C19	0.524400	0.776000	0.440100
C201	C20	0.738800	0.480800	0.994700
C211	C21	0.381100	0.655600	0.564600
C221	C22	0.485900	0.702900	0.170700
C231	C23	0.696200	0.637800	0.513000
C241	C24	0.600100	0.327800	0.622900
C251	C25	0.898000	0.120300	0.498100
C261	C26	0.879000	0.169100	0.897500
C271	C27	0.100000	0.745700	0.135900
C281	C28	0.067200	0.804600	0.238300
C291	C29	0.719600	0.450400	0.939500
C301	C30	0.654300	0.398500	0.942300
C311	C31	0.582100	0.327800	0.500500
C321	C32	0.603100	0.624600	0.523700
C331	C33	0.244200	0.618400	0.530700
C341	C34	0.514100	0.297100	0.829300
C351	C35	0.102000	0.879700	0.501900
C361	C36	0.176200	0.131800	0.964400
C371	C37	0.884900	0.098200	0.861900
C381	C38	0.151400	0.846200	0.030600
C391	C39	0.755800	0.381600	0.469300
C401	C40	0.704500	0.369700	0.419400
C411	C41	0.828900	0.039000	0.434200
C421	C42	0.196700	0.260900	0.546200
C431	C43	0.222300	0.955800	0.451200
C441	C44	0.845200	0.416800	0.452500
C451	C45	0.273500	0.883100	0.948300
C461	C46	0.848600	0.153800	0.969400
C471	C47	0.417900	0.672200	0.499500
C481	C48	0.723200	0.363100	0.533500
C491	C49	0.482700	0.308600	0.513200
C501	C50	0.511000	0.337700	0.085000
C511	C51	0.094100	0.839900	0.979400
C521	C52	0.550600	0.406300	0.175400
C531	C53	0.171100	0.961000	0.565800
C541	C54	0.195900	0.202400	0.989700
C551	C55	0.804100	0.797600	0.010300
C561	C56	0.396900	0.375400	0.476300
C571	C57	0.926300	0.266400	0.797300
C581	C58	0.364800	0.661700	0.448900
C591	C59	0.932800	0.195400	0.761700
C601	C60	0.280400	0.549600	0.060500
C611	C61	0.906100	0.200700	0.274500
C621	C62	0.158100	0.905000	0.446500
C631	C63	0.900000	0.254300	0.864100
C641	C64	0.023700	0.888400	0.673300
C651	C65	0.382400	0.209200	0.570500
C661	C66	0.070000	0.224800	0.392300
C671	C67	0.617600	0.790800	0.429500
C681	C68	0.777700	0.044200	0.548800
C691	C69	0.115100	0.901800	0.138100
C701	C70	0.121000	0.830900	0.102500
C711	C71	0.623700	0.413600	0.058300
C721	C72	0.399900	0.672200	0.377100
C731	C73	0.731600	0.302900	0.223600
C741	C74	0.345700	0.601500	0.057700
C751	C75	0.504900	0.383700	0.639100
C761	C76	0.331600	0.738600	0.325400
C771	C77	0.297900	0.215500	0.978800
C781	C78	0.960000	0.211200	0.689200
C791	C79	0.216000	0.877800	0.898000
C801	C80	0.202700	0.784600	0.723900
C811	C81	0.004900	0.177100	0.007400
C821	C82	0.309600	0.534200	0.947000
C831	C83	0.893900	0.093300	0.438300
C841	C84	0.276800	0.636900	0.466500
C851	C85	0.379700	0.681100	0.771200
C861	C86	0.995100	0.822900	0.992600
C871	C87	0.703800	0.721600	0.465400
C881	C88	0.702100	0.784500	0.021200
C891	C89	0.871200	0.145400	0.086200
C901	C90	0.489000	0.662300	0.915000
C911	C91	0.879700	0.739200	0.976600
C921	C92	0.083000	0.119500	0.973200
C931	C93	0.524000	0.623100	0.294000
C941	C94	0.476000	0.376900	0.706000
C951	C95	0.261200	0.519200	0.005300
C961	C96	0.975000	0.751100	0.968300
C971	C97	0.912200	0.111500	0.794900
C981	C98	0.495100	0.616300	0.360900
C991	C99	0.690400	0.465800	0.053000
C1001	C100	0.668400	0.261400	0.674600
C1011	C101	0.120300	0.260800	0.023400
C1021	C102	0.905900	0.160100	0.020600
C1031	C103	0.841900	0.095000	0.553500
C1041	C104	0.376300	0.586400	0.941700
C1051	C105	0.154800	0.583200	0.547500
C1061	C106	0.635200	0.338300	0.551100
C1071	C107	0.040000	0.788800	0.310800
C1081	C108	0.295500	0.630300	0.580600
C1091	C109	0.229200	0.983200	0.510900
C1101	C110	0.087800	0.888500	0.205100
C1111	C111	0.770800	0.016800	0.489100
C1121	C112	0.620300	0.318900	0.228800
C1131	C113	0.541300	0.310700	0.756900
C1141	C114	0.562600	0.707200	0.873600
C1151	C115	0.475600	0.224000	0.559900
C1161	C116	0.797300	0.215400	0.276100
C1171	C117	0.917000	0.880500	0.026800
C1181	C118	0.073700	0.733600	0.202700
C1191	C119	0.758200	0.133100	0.986300
C1201	C120	0.606600	0.382200	0.002100
C1211	C121	0.458700	0.689300	0.243100
C1221	C122	0.437400	0.292800	0.126400
C1231	C123	0.618900	0.344400	0.435400
C1241	C124	0.976300	0.111600	0.326700
C1251	C125	0.517300	0.691400	0.486800
C1261	C126	0.393400	0.617800	0.997900
C1271	C127	0.639300	0.252400	0.739500
C1281	C128	0.370800	0.909200	0.931400
N11	N1	0.533500	0.336100	0.021200
N21	N2	0.562700	0.383900	0.109900
N31	N3	0.466500	0.663900	0.978800
N41	N4	0.954000	0.129900	0.393400
N51	N5	0.046000	0.870100	0.606600
N61	N6	0.437300	0.616100	0.890100
N71	N7	0.037200	0.825200	0.512700
N81	N8	0.962800	0.174800	0.487300
O11	O1	0.099000	0.591800	0.497800
O21	O2	0.808500	0.821800	0.422900
O31	O3	0.572400	0.104300	0.018900
O41	O4	0.116000	0.333400	0.520900
O51	O5	0.975800	0.485200	0.611800
O61	O6	0.309300	0.288100	0.993800
O71	O7	0.030800	0.855300	0.340300
O81	O8	0.427600	0.895700	0.981100
O91	O9	0.139100	0.544400	0.606900
O101	O10	0.031100	0.706600	0.341900
O111	O11	0.432900	0.780800	0.128700
O121	O12	0.969200	0.144700	0.659700
O131	O13	0.614100	0.053400	0.126400
O141	O14	0.901000	0.408200	0.502200
O151	O15	0.860900	0.455600	0.393100
O161	O16	0.370700	0.154000	0.955100
O171	O17	0.563000	0.639200	0.154100
O181	O18	0.567100	0.219200	0.871300
O191	O19	0.629300	0.846000	0.044900
O201	O20	0.437000	0.360800	0.845900
O211	O21	0.385900	0.946600	0.873600
O221	O22	0.024200	0.514800	0.388200
O231	O23	0.431500	0.982700	0.104200
O241	O24	0.568500	0.017300	0.895800
O251	O25	0.968900	0.293400	0.658100
O261	O26	0.884000	0.666600	0.479100
O271	O27	0.690700	0.711900	0.006200
O281	O28	0.191500	0.178200	0.577100
