data_XOHLEM_freeONLY_PM
_symmetry_space_group_name_H-M	'P1'
_cell_length_a	10.578700
_cell_length_b	10.578700
_cell_length_c	15.828000
_cell_angle_alpha	90.000000
_cell_angle_beta	90.000000
_cell_angle_gamma	104.376000
_symmetry_Int_Tables_number 1

loop_
_symmetry_equiv_pos_as_xyz
'x,y,z'

loop_
_atom_site_label
_atom_site_type_symbol
_atom_site_fract_x
_atom_site_fract_y
_atom_site_fract_z
Zn11	Zn1	0.128860	0.237520	0.923790
Zn21	Zn2	0.442070	0.278710	0.943360
Zn31	Zn3	0.871140	0.762480	0.423790
Zn41	Zn4	0.557930	0.721290	0.443360
Zn51	Zn5	0.762480	0.871140	0.576210
Zn61	Zn6	0.721290	0.557930	0.556640
Zn71	Zn7	0.237520	0.128860	0.076210
Zn81	Zn8	0.278710	0.442070	0.056640
H11	H1	0.505700	0.080500	0.712000
H21	H2	0.253900	0.829900	0.549400
H31	H3	0.114600	0.046200	0.716300
H41	H4	0.494300	0.919500	0.212000
H51	H5	0.746100	0.170100	0.049400
H61	H6	0.885400	0.953800	0.216300
H71	H7	0.919500	0.494300	0.788000
H81	H8	0.170100	0.746100	0.950600
H91	H9	0.953800	0.885400	0.783700
H101	H10	0.080500	0.505700	0.288000
H111	H11	0.829900	0.253900	0.450600
H121	H12	0.046200	0.114600	0.283700
C11	C1	0.315500	0.089100	0.719700
C21	C2	0.422300	0.050700	0.689800
C31	C3	0.389300	0.952500	0.615200
C41	C4	0.267500	0.896700	0.589200
C51	C5	0.154300	0.939900	0.622900
C61	C6	0.184500	0.025700	0.688400
C71	C7	0.329000	0.174400	0.791500
C81	C8	0.510000	0.901400	0.583300
C91	C9	0.029000	0.896000	0.577200
C101	C10	0.684500	0.910900	0.219700
C111	C11	0.577700	0.949300	0.189800
C121	C12	0.610700	0.047500	0.115200
C131	C13	0.732500	0.103300	0.089200
C141	C14	0.845700	0.060100	0.122900
C151	C15	0.815500	0.974300	0.188400
C161	C16	0.671000	0.825600	0.291500
C171	C17	0.490000	0.098600	0.083300
C181	C18	0.971000	0.104000	0.077200
C191	C19	0.910900	0.684500	0.780300
C201	C20	0.949300	0.577700	0.810200
C211	C21	0.047500	0.610700	0.884800
C221	C22	0.103300	0.732500	0.910800
C231	C23	0.060100	0.845700	0.877100
C241	C24	0.974300	0.815500	0.811600
C251	C25	0.825600	0.671000	0.708500
C261	C26	0.098600	0.490000	0.916700
C271	C27	0.104000	0.971000	0.922800
C281	C28	0.089100	0.315500	0.280300
C291	C29	0.050700	0.422300	0.310200
C301	C30	0.952500	0.389300	0.384800
C311	C31	0.896700	0.267500	0.410800
C321	C32	0.939900	0.154300	0.377100
C331	C33	0.025700	0.184500	0.311600
C341	C34	0.174400	0.329000	0.208500
C351	C35	0.901400	0.510000	0.416700
C361	C36	0.896000	0.029000	0.422800
O11	O1	0.250910	0.246090	0.804600
O21	O2	0.431290	0.175510	0.842330
O31	O3	0.617070	0.936930	0.617700
O41	O4	0.474870	0.829130	0.518600
O51	O5	0.943660	0.953140	0.607420
O61	O6	0.011130	0.801590	0.529100
O71	O7	0.749090	0.753910	0.304600
O81	O8	0.568710	0.824490	0.342330
O91	O9	0.382930	0.063070	0.117700
O101	O10	0.525130	0.170870	0.018600
O111	O11	0.056340	0.046860	0.107420
O121	O12	0.988870	0.198410	0.029100
O131	O13	0.753910	0.749090	0.695400
O141	O14	0.824490	0.568710	0.657670
O151	O15	0.063070	0.382930	0.882300
O161	O16	0.170870	0.525130	0.981400
O171	O17	0.046860	0.056340	0.892580
O181	O18	0.198410	0.988870	0.970900
O191	O19	0.246090	0.250910	0.195400
O201	O20	0.175510	0.431290	0.157670
O211	O21	0.936930	0.617070	0.382300
O221	O22	0.829130	0.474870	0.481400
O231	O23	0.953140	0.943660	0.392580
O241	O24	0.801590	0.011130	0.470900
O251	O25	0.283200	0.283200	0.000000
O261	O26	0.716800	0.716800	0.500000
