data_XOJWEZ_freeONLY_PM
_symmetry_space_group_name_H-M	'P1'
_cell_length_a	7.180980
_cell_length_b	11.351100
_cell_length_c	11.351100
_cell_angle_alpha	66.322100
_cell_angle_beta	71.560000
_cell_angle_gamma	71.559900
_symmetry_Int_Tables_number 1

loop_
_symmetry_equiv_pos_as_xyz
'x,y,z'

loop_
_atom_site_label
_atom_site_type_symbol
_atom_site_fract_x
_atom_site_fract_y
_atom_site_fract_z
Cu11	Cu1	0.340520	0.888890	0.611110
Cu21	Cu2	0.840520	0.111110	0.388890
H11	H1	0.753900	0.848100	0.441300
H21	H2	0.266200	0.628500	0.677100
H31	H3	0.415500	0.493300	0.724900
H41	H4	0.332000	0.529100	0.599900
H51	H5	0.074900	0.755000	0.331200
H61	H6	0.059100	0.649500	0.280500
H71	H7	0.144700	0.604400	0.406600
H81	H8	0.043300	0.151900	0.558700
H91	H9	0.571800	0.371500	0.322900
H101	H10	0.633700	0.506700	0.275100
H111	H11	0.461000	0.470900	0.400100
H121	H12	0.161100	0.245000	0.668800
H131	H13	0.989100	0.350500	0.719500
H141	H14	0.155700	0.395600	0.593400
H151	H15	0.253900	0.941300	0.348100
H161	H16	0.766200	0.177100	0.128500
H171	H17	0.915500	0.224900	0.993300
H181	H18	0.832000	0.099900	0.029100
H191	H19	0.574900	0.831200	0.255000
H201	H20	0.559100	0.780500	0.149500
H211	H21	0.644700	0.906600	0.104400
H221	H22	0.543300	0.058700	0.651900
H231	H23	0.071800	0.822900	0.871500
H241	H24	0.133700	0.775100	0.006700
H251	H25	0.961000	0.900100	0.970900
H261	H26	0.661100	0.168800	0.745000
H271	H27	0.489100	0.219500	0.850500
H281	H28	0.655700	0.093400	0.895600
C11	C1	0.737400	0.568200	0.501600
C21	C2	0.844600	0.667000	0.440000
C31	C3	0.547500	0.625200	0.564600
C41	C4	0.375000	0.563700	0.649100
C51	C5	0.048500	0.669100	0.357500
C61	C6	0.807200	0.431800	0.498400
C71	C7	0.951600	0.333000	0.560000
C81	C8	0.737300	0.374800	0.435400
C91	C9	0.587800	0.436300	0.350900
C101	C10	0.075100	0.330900	0.642500
C111	C11	0.237400	0.001600	0.068200
C121	C12	0.344600	0.940000	0.167000
C131	C13	0.047500	0.064600	0.125200
C141	C14	0.875000	0.149100	0.063700
C151	C15	0.548500	0.857500	0.169100
C161	C16	0.307200	0.998400	0.931800
C171	C17	0.451600	0.060000	0.833000
C181	C18	0.237300	0.935400	0.874800
C191	C19	0.087800	0.850900	0.936300
C201	C20	0.575100	0.142500	0.830900
Br11	Br1	0.493030	0.094740	0.405260
Br21	Br2	0.993030	0.905260	0.594740
N11	N1	0.541060	0.750240	0.544440
N21	N2	0.721400	0.773300	0.468500
N31	N3	0.835740	0.249760	0.455560
N41	N4	0.963200	0.226700	0.531500
N51	N5	0.041060	0.044440	0.250240
N61	N6	0.221400	0.968500	0.273300
N71	N7	0.335740	0.955560	0.749760
N81	N8	0.463200	0.031500	0.726700
