data_XOKHAH_freeONLY_PM
_symmetry_space_group_name_H-M	'P1'
_cell_length_a	13.657000
_cell_length_b	18.777000
_cell_length_c	19.983000
_cell_angle_alpha	90.000000
_cell_angle_beta	90.000000
_cell_angle_gamma	90.000000
_symmetry_Int_Tables_number 1

loop_
_symmetry_equiv_pos_as_xyz
'x,y,z'

loop_
_atom_site_label
_atom_site_type_symbol
_atom_site_fract_x
_atom_site_fract_y
_atom_site_fract_z
Zn11	Zn1	0.366320	0.060720	0.107270
Zn21	Zn2	0.406520	0.951080	0.990300
Zn31	Zn3	0.633680	0.439280	0.607270
Zn41	Zn4	0.593480	0.548920	0.490300
Zn51	Zn5	0.633680	0.939280	0.892730
Zn61	Zn6	0.593480	0.048920	0.009700
Zn71	Zn7	0.366320	0.560720	0.392730
Zn81	Zn8	0.406520	0.451080	0.509700
H11	H1	0.410300	0.688000	0.214800
H21	H2	0.418900	0.776000	0.134700
H31	H3	0.397600	0.925200	0.274500
H41	H4	0.385200	0.838600	0.355000
H51	H5	0.041500	0.060700	0.096100
H61	H6	0.118500	0.949000	0.934400
H71	H7	0.399400	0.786700	0.020400
H81	H8	0.381700	0.678200	0.963000
H91	H9	0.360200	0.681000	0.848600
H101	H10	0.327600	0.999800	0.704500
H111	H11	0.332100	0.096500	0.773000
H121	H12	0.364300	0.081700	0.885500
H131	H13	0.566000	0.910000	0.995000
H141	H14	0.589700	0.812000	0.714800
H151	H15	0.581100	0.724000	0.634700
H161	H16	0.602400	0.574800	0.774500
H171	H17	0.614800	0.661400	0.855000
H181	H18	0.958500	0.439300	0.596100
H191	H19	0.881500	0.551000	0.434400
H201	H20	0.600600	0.713300	0.520400
H211	H21	0.618300	0.821800	0.463000
H221	H22	0.639800	0.819000	0.348600
H231	H23	0.672400	0.500200	0.204500
H241	H24	0.667900	0.403500	0.273000
H251	H25	0.635700	0.418300	0.385500
H261	H26	0.434000	0.590000	0.495000
H271	H27	0.589700	0.312000	0.785200
H281	H28	0.581100	0.224000	0.865300
H291	H29	0.602400	0.074800	0.725500
H301	H30	0.614800	0.161400	0.645000
H311	H31	0.958500	0.939300	0.903900
H321	H32	0.881500	0.051000	0.065600
H331	H33	0.600600	0.213300	0.979600
H341	H34	0.618300	0.321800	0.037000
H351	H35	0.639800	0.319000	0.151400
H361	H36	0.672400	0.000200	0.295500
H371	H37	0.667900	0.903500	0.227000
H381	H38	0.635700	0.918300	0.114500
H391	H39	0.434000	0.090000	0.005000
H401	H40	0.410300	0.188000	0.285200
H411	H41	0.418900	0.276000	0.365300
H421	H42	0.397600	0.425200	0.225500
H431	H43	0.385200	0.338600	0.145000
H441	H44	0.041500	0.560700	0.403900
H451	H45	0.118500	0.449000	0.565600
H461	H46	0.399400	0.286700	0.479600
H471	H47	0.381700	0.178200	0.537000
H481	H48	0.360200	0.181000	0.651400
H491	H49	0.327600	0.499800	0.795500
H501	H50	0.332100	0.596500	0.727000
H511	H51	0.364300	0.581700	0.614500
H521	H52	0.566000	0.410000	0.505000
C11	C1	0.395500	0.754100	0.293100
C21	C2	0.406500	0.735700	0.227300
C31	C3	0.411900	0.789100	0.179300
C41	C4	0.407300	0.859400	0.194400
C51	C5	0.398700	0.877500	0.262100
C61	C6	0.392100	0.825600	0.310400
C71	C7	0.385400	0.697900	0.347300
C81	C8	0.409400	0.916000	0.141600
C91	C9	0.204100	0.007500	0.038500
C101	C10	0.097300	0.003300	0.019600
C111	C11	0.024800	0.035600	0.057600
C121	C12	0.070400	0.969200	0.961300
C131	C13	0.390100	0.787100	0.974300
C141	C14	0.379600	0.721200	0.940100
C151	C15	0.366500	0.723200	0.872600
C161	C16	0.362400	0.787200	0.840200
C171	C17	0.351000	0.787800	0.767700
C181	C18	0.348400	0.860400	0.733900
C191	C19	0.351400	0.926300	0.777100
C201	C20	0.338600	0.994200	0.750200
C211	C21	0.342100	0.051100	0.790300
C221	C22	0.361100	0.041700	0.858100
C231	C23	0.366800	0.919200	0.844000
C241	C24	0.373600	0.848500	0.877100
C251	C25	0.604500	0.745900	0.793100
C261	C26	0.593500	0.764300	0.727300
C271	C27	0.588100	0.710900	0.679300
C281	C28	0.592700	0.640600	0.694400
C291	C29	0.601300	0.622500	0.762100
C301	C30	0.607900	0.674400	0.810400
C311	C31	0.614600	0.802100	0.847300
C321	C32	0.590600	0.584000	0.641600
C331	C33	0.795900	0.492500	0.538500
C341	C34	0.902700	0.496700	0.519600
C351	C35	0.975200	0.464400	0.557600
C361	C36	0.929600	0.530800	0.461300
C371	C37	0.609900	0.712900	0.474300
C381	C38	0.620400	0.778800	0.440100
C391	C39	0.633500	0.776800	0.372600
C401	C40	0.637600	0.712800	0.340200
C411	C41	0.649000	0.712200	0.267700
C421	C42	0.651600	0.639600	0.233900
C431	C43	0.648600	0.573700	0.277100
C441	C44	0.661400	0.505800	0.250200
C451	C45	0.657900	0.448900	0.290300
C461	C46	0.638900	0.458300	0.358100
C471	C47	0.633200	0.580800	0.344000
C481	C48	0.626400	0.651500	0.377100
C491	C49	0.604500	0.245900	0.706900
C501	C50	0.593500	0.264300	0.772700
C511	C51	0.588100	0.210900	0.820700
C521	C52	0.592700	0.140600	0.805600
C531	C53	0.601300	0.122500	0.737900
C541	C54	0.607900	0.174400	0.689600
C551	C55	0.614600	0.302100	0.652700
C561	C56	0.590600	0.084000	0.858400
C571	C57	0.795900	0.992500	0.961500
C581	C58	0.902700	0.996700	0.980400
C591	C59	0.975200	0.964400	0.942400
C601	C60	0.929600	0.030800	0.038700
C611	C61	0.609900	0.212900	0.025700
C621	C62	0.620400	0.278800	0.059900
C631	C63	0.633500	0.276800	0.127400
C641	C64	0.637600	0.212800	0.159800
C651	C65	0.649000	0.212200	0.232300
C661	C66	0.651600	0.139600	0.266100
C671	C67	0.648600	0.073700	0.222900
C681	C68	0.661400	0.005800	0.249800
C691	C69	0.657900	0.948900	0.209700
C701	C70	0.638900	0.958300	0.141900
C711	C71	0.633200	0.080800	0.156000
C721	C72	0.626400	0.151500	0.122900
C731	C73	0.395500	0.254100	0.206900
C741	C74	0.406500	0.235700	0.272700
C751	C75	0.411900	0.289100	0.320700
C761	C76	0.407300	0.359400	0.305600
C771	C77	0.398700	0.377500	0.237900
C781	C78	0.392100	0.325600	0.189600
C791	C79	0.385400	0.197900	0.152700
C801	C80	0.409400	0.416000	0.358400
C811	C81	0.204100	0.507500	0.461500
C821	C82	0.097300	0.503300	0.480400
C831	C83	0.024800	0.535600	0.442400
C841	C84	0.070400	0.469200	0.538700
C851	C85	0.390100	0.287100	0.525700
C861	C86	0.379600	0.221200	0.559900
C871	C87	0.366500	0.223200	0.627400
C881	C88	0.362400	0.287200	0.659800
C891	C89	0.351000	0.287800	0.732300
C901	C90	0.348400	0.360400	0.766100
C911	C91	0.351400	0.426300	0.722900
C921	C92	0.338600	0.494200	0.749800
C931	C93	0.342100	0.551100	0.709700
C941	C94	0.361100	0.541700	0.641900
C951	C95	0.366800	0.419200	0.656000
C961	C96	0.373600	0.348500	0.622900
N11	N1	0.386900	0.848800	0.942900
N21	N2	0.375100	0.976800	0.885900
N31	N3	0.613100	0.651200	0.442900
N41	N4	0.624900	0.523200	0.385900
N51	N5	0.613100	0.151200	0.057100
N61	N6	0.624900	0.023200	0.114100
N71	N7	0.386900	0.348800	0.557100
N81	N8	0.375100	0.476800	0.614100
O11	O1	0.389800	0.633400	0.327200
O21	O2	0.372000	0.717200	0.404000
O31	O3	0.424500	0.898200	0.082800
O41	O4	0.394100	0.978200	0.163700
O51	O5	0.260100	0.966300	0.008700
O61	O6	0.227300	0.051200	0.083800
O71	O7	0.342200	0.735400	0.734100
O81	O8	0.342900	0.866700	0.672100
O91	O9	0.559100	0.946300	0.976500
O101	O10	0.610200	0.866600	0.827200
O111	O11	0.628000	0.782800	0.904000
O121	O12	0.575500	0.601800	0.582800
O131	O13	0.605900	0.521800	0.663700
O141	O14	0.739900	0.533700	0.508700
O151	O15	0.772700	0.448800	0.583800
O161	O16	0.657800	0.764600	0.234100
O171	O17	0.657100	0.633300	0.172100
O181	O18	0.440900	0.553700	0.476500
O191	O19	0.610200	0.366600	0.672800
O201	O20	0.628000	0.282800	0.596000
O211	O21	0.575500	0.101800	0.917200
O221	O22	0.605900	0.021800	0.836300
O231	O23	0.739900	0.033700	0.991300
O241	O24	0.772700	0.948800	0.916200
O251	O25	0.657800	0.264600	0.265900
O261	O26	0.657100	0.133300	0.327900
O271	O27	0.440900	0.053700	0.023500
O281	O28	0.389800	0.133400	0.172800
O291	O29	0.372000	0.217200	0.096000
O301	O30	0.424500	0.398200	0.417200
O311	O31	0.394100	0.478200	0.336300
O321	O32	0.260100	0.466300	0.491300
O331	O33	0.227300	0.551200	0.416200
O341	O34	0.342200	0.235400	0.765900
O351	O35	0.342900	0.366700	0.827900
O361	O36	0.559100	0.446300	0.523500
Zn91	Zn9	0.866320	0.939280	0.392730
Zn101	Zn10	0.906520	0.048920	0.509700
Zn111	Zn11	0.133680	0.560720	0.892730
Zn121	Zn12	0.093480	0.451080	0.009700
Zn131	Zn13	0.133680	0.060720	0.607270
Zn141	Zn14	0.093480	0.951080	0.490300
Zn151	Zn15	0.866320	0.439280	0.107270
Zn161	Zn16	0.906520	0.548920	0.990300
H531	H53	0.910300	0.312000	0.285200
H541	H54	0.918900	0.224000	0.365300
H551	H55	0.897600	0.074800	0.225500
H561	H56	0.885200	0.161400	0.145000
H571	H57	0.541500	0.939300	0.403900
H581	H58	0.618500	0.051000	0.565600
H591	H59	0.899400	0.213300	0.479600
H601	H60	0.881700	0.321800	0.537000
H611	H61	0.860200	0.319000	0.651400
H621	H62	0.827600	0.000200	0.795500
H631	H63	0.832100	0.903500	0.727000
H641	H64	0.864300	0.918300	0.614500
H651	H65	0.066000	0.090000	0.505000
H661	H66	0.089700	0.188000	0.785200
H671	H67	0.081100	0.276000	0.865300
H681	H68	0.102400	0.425200	0.725500
H691	H69	0.114800	0.338600	0.645000
H701	H70	0.458500	0.560700	0.903900
H711	H71	0.381500	0.449000	0.065600
H721	H72	0.100600	0.286700	0.979600
H731	H73	0.118300	0.178200	0.037000
H741	H74	0.139800	0.181000	0.151400
H751	H75	0.172400	0.499800	0.295500
H761	H76	0.167900	0.596500	0.227000
H771	H77	0.135700	0.581700	0.114500
H781	H78	0.934000	0.410000	0.005000
H791	H79	0.089700	0.688000	0.714800
H801	H80	0.081100	0.776000	0.634700
H811	H81	0.102400	0.925200	0.774500
H821	H82	0.114800	0.838600	0.855000
H831	H83	0.458500	0.060700	0.596100
H841	H84	0.381500	0.949000	0.434400
H851	H85	0.100600	0.786700	0.520400
H861	H86	0.118300	0.678200	0.463000
H871	H87	0.139800	0.681000	0.348600
H881	H88	0.172400	0.999800	0.204500
H891	H89	0.167900	0.096500	0.273000
H901	H90	0.135700	0.081700	0.385500
H911	H91	0.934000	0.910000	0.495000
H921	H92	0.910300	0.812000	0.214800
H931	H93	0.918900	0.724000	0.134700
H941	H94	0.897600	0.574800	0.274500
H951	H95	0.885200	0.661400	0.355000
H961	H96	0.541500	0.439300	0.096100
H971	H97	0.618500	0.551000	0.934400
H981	H98	0.899400	0.713300	0.020400
H991	H99	0.881700	0.821800	0.963000
H1001	H100	0.860200	0.819000	0.848600
H1011	H101	0.827600	0.500200	0.704500
H1021	H102	0.832100	0.403500	0.773000
H1031	H103	0.864300	0.418300	0.885500
H1041	H104	0.066000	0.590000	0.995000
C971	C97	0.895500	0.245900	0.206900
C981	C98	0.906500	0.264300	0.272700
C991	C99	0.911900	0.210900	0.320700
C1001	C100	0.907300	0.140600	0.305600
C1011	C101	0.898700	0.122500	0.237900
C1021	C102	0.892100	0.174400	0.189600
C1031	C103	0.885400	0.302100	0.152700
C1041	C104	0.909400	0.084000	0.358400
C1051	C105	0.704100	0.992500	0.461500
C1061	C106	0.597300	0.996700	0.480400
C1071	C107	0.524800	0.964400	0.442400
C1081	C108	0.570400	0.030800	0.538700
C1091	C109	0.890100	0.212900	0.525700
C1101	C110	0.879600	0.278800	0.559900
C1111	C111	0.866500	0.276800	0.627400
C1121	C112	0.862400	0.212800	0.659800
C1131	C113	0.851000	0.212200	0.732300
C1141	C114	0.848400	0.139600	0.766100
C1151	C115	0.851400	0.073700	0.722900
C1161	C116	0.838600	0.005800	0.749800
C1171	C117	0.842100	0.948900	0.709700
C1181	C118	0.861100	0.958300	0.641900
C1191	C119	0.866800	0.080800	0.656000
C1201	C120	0.873600	0.151500	0.622900
C1211	C121	0.104500	0.254100	0.706900
C1221	C122	0.093500	0.235700	0.772700
C1231	C123	0.088100	0.289100	0.820700
C1241	C124	0.092700	0.359400	0.805600
C1251	C125	0.101300	0.377500	0.737900
C1261	C126	0.107900	0.325600	0.689600
C1271	C127	0.114600	0.197900	0.652700
C1281	C128	0.090600	0.416000	0.858400
C1291	C129	0.295900	0.507500	0.961500
C1301	C130	0.402700	0.503300	0.980400
C1311	C131	0.475200	0.535600	0.942400
C1321	C132	0.429600	0.469200	0.038700
C1331	C133	0.109900	0.287100	0.025700
C1341	C134	0.120400	0.221200	0.059900
C1351	C135	0.133500	0.223200	0.127400
C1361	C136	0.137600	0.287200	0.159800
C1371	C137	0.149000	0.287800	0.232300
C1381	C138	0.151600	0.360400	0.266100
C1391	C139	0.148600	0.426300	0.222900
C1401	C140	0.161400	0.494200	0.249800
C1411	C141	0.157900	0.551100	0.209700
C1421	C142	0.138900	0.541700	0.141900
C1431	C143	0.133200	0.419200	0.156000
C1441	C144	0.126400	0.348500	0.122900
C1451	C145	0.104500	0.754100	0.793100
C1461	C146	0.093500	0.735700	0.727300
C1471	C147	0.088100	0.789100	0.679300
C1481	C148	0.092700	0.859400	0.694400
C1491	C149	0.101300	0.877500	0.762100
C1501	C150	0.107900	0.825600	0.810400
C1511	C151	0.114600	0.697900	0.847300
C1521	C152	0.090600	0.916000	0.641600
C1531	C153	0.295900	0.007500	0.538500
C1541	C154	0.402700	0.003300	0.519600
C1551	C155	0.475200	0.035600	0.557600
C1561	C156	0.429600	0.969200	0.461300
C1571	C157	0.109900	0.787100	0.474300
C1581	C158	0.120400	0.721200	0.440100
C1591	C159	0.133500	0.723200	0.372600
C1601	C160	0.137600	0.787200	0.340200
C1611	C161	0.149000	0.787800	0.267700
C1621	C162	0.151600	0.860400	0.233900
C1631	C163	0.148600	0.926300	0.277100
C1641	C164	0.161400	0.994200	0.250200
C1651	C165	0.157900	0.051100	0.290300
C1661	C166	0.138900	0.041700	0.358100
C1671	C167	0.133200	0.919200	0.344000
C1681	C168	0.126400	0.848500	0.377100
C1691	C169	0.895500	0.745900	0.293100
C1701	C170	0.906500	0.764300	0.227300
C1711	C171	0.911900	0.710900	0.179300
C1721	C172	0.907300	0.640600	0.194400
C1731	C173	0.898700	0.622500	0.262100
C1741	C174	0.892100	0.674400	0.310400
C1751	C175	0.885400	0.802100	0.347300
C1761	C176	0.909400	0.584000	0.141600
C1771	C177	0.704100	0.492500	0.038500
C1781	C178	0.597300	0.496700	0.019600
C1791	C179	0.524800	0.464400	0.057600
C1801	C180	0.570400	0.530800	0.961300
C1811	C181	0.890100	0.712900	0.974300
C1821	C182	0.879600	0.778800	0.940100
C1831	C183	0.866500	0.776800	0.872600
C1841	C184	0.862400	0.712800	0.840200
C1851	C185	0.851000	0.712200	0.767700
C1861	C186	0.848400	0.639600	0.733900
C1871	C187	0.851400	0.573700	0.777100
C1881	C188	0.838600	0.505800	0.750200
C1891	C189	0.842100	0.448900	0.790300
C1901	C190	0.861100	0.458300	0.858100
C1911	C191	0.866800	0.580800	0.844000
C1921	C192	0.873600	0.651500	0.877100
N91	N9	0.886900	0.151200	0.557100
N101	N10	0.875100	0.023200	0.614100
N111	N11	0.113100	0.348800	0.057100
N121	N12	0.124900	0.476800	0.114100
N131	N13	0.113100	0.848800	0.442900
N141	N14	0.124900	0.976800	0.385900
N151	N15	0.886900	0.651200	0.942900
N161	N16	0.875100	0.523200	0.885900
O371	O37	0.889800	0.366600	0.172800
O381	O38	0.872000	0.282800	0.096000
O391	O39	0.924500	0.101800	0.417200
O401	O40	0.894100	0.021800	0.336300
O411	O41	0.760100	0.033700	0.491300
O421	O42	0.727300	0.948800	0.416200
O431	O43	0.842200	0.264600	0.765900
O441	O44	0.842900	0.133300	0.827900
O451	O45	0.059100	0.053700	0.523500
O461	O46	0.110200	0.133400	0.672800
O471	O47	0.128000	0.217200	0.596000
O481	O48	0.075500	0.398200	0.917200
O491	O49	0.105900	0.478200	0.836300
O501	O50	0.239900	0.466300	0.991300
O511	O51	0.272700	0.551200	0.916200
O521	O52	0.157800	0.235400	0.265900
O531	O53	0.157100	0.366700	0.327900
O541	O54	0.940900	0.446300	0.023500
O551	O55	0.110200	0.633400	0.827200
O561	O56	0.128000	0.717200	0.904000
O571	O57	0.075500	0.898200	0.582800
O581	O58	0.105900	0.978200	0.663700
O591	O59	0.239900	0.966300	0.508700
O601	O60	0.272700	0.051200	0.583800
O611	O61	0.157800	0.735400	0.234100
O621	O62	0.157100	0.866700	0.172100
O631	O63	0.940900	0.946300	0.476500
O641	O64	0.889800	0.866600	0.327200
O651	O65	0.872000	0.782800	0.404000
O661	O66	0.924500	0.601800	0.082800
O671	O67	0.894100	0.521800	0.163700
O681	O68	0.760100	0.533700	0.008700
O691	O69	0.727300	0.448800	0.083800
O701	O70	0.842200	0.764600	0.734100
O711	O71	0.842900	0.633300	0.672100
O721	O72	0.059100	0.553700	0.976500
