data_XOLYUS_freeONLY_PM
_symmetry_space_group_name_H-M	'P1'
_cell_length_a	6.302900
_cell_length_b	16.413000
_cell_length_c	17.139000
_cell_angle_alpha	90.000000
_cell_angle_beta	98.630000
_cell_angle_gamma	90.000000
_symmetry_Int_Tables_number 1

loop_
_symmetry_equiv_pos_as_xyz
'x,y,z'

loop_
_atom_site_label
_atom_site_type_symbol
_atom_site_fract_x
_atom_site_fract_y
_atom_site_fract_z
Co11	Co1	0.759400	0.522690	0.322690
Co21	Co2	0.925730	0.589520	0.507940
Co31	Co3	0.740600	0.022690	0.177310
Co41	Co4	0.574270	0.089520	0.992060
Co51	Co5	0.240600	0.477310	0.677310
Co61	Co6	0.074270	0.410480	0.492060
Co71	Co7	0.259400	0.977310	0.822690
Co81	Co8	0.425730	0.910480	0.007940
H11	H1	0.127100	0.662400	0.631200
H21	H2	0.697700	0.464500	0.462400
H31	H3	0.061300	0.880900	0.583100
H41	H4	0.181900	0.899200	0.653400
H51	H5	0.663500	0.811300	0.381800
H61	H6	0.718400	0.482500	0.583200
H71	H7	0.610600	0.575300	0.618300
H81	H8	0.922200	0.787800	0.282200
H91	H9	0.318100	0.698400	0.536800
H101	H10	0.115400	0.761600	0.504800
H111	H11	0.389800	0.788800	0.658400
H121	H12	0.390600	0.844300	0.568600
H131	H13	0.084800	0.789000	0.718400
H141	H14	0.874100	0.852100	0.690400
H151	H15	0.793600	0.716100	0.644500
H161	H16	0.790700	0.762900	0.565600
H171	H17	0.372900	0.162400	0.868800
H181	H18	0.802300	0.964500	0.037600
H191	H19	0.438700	0.380900	0.916900
H201	H20	0.318100	0.399200	0.846600
H211	H21	0.836500	0.311300	0.118200
H221	H22	0.781600	0.982500	0.916800
H231	H23	0.889400	0.075300	0.881700
H241	H24	0.577800	0.287800	0.217800
H251	H25	0.181900	0.198400	0.963200
H261	H26	0.384600	0.261600	0.995200
H271	H27	0.110200	0.288800	0.841600
H281	H28	0.109400	0.344300	0.931400
H291	H29	0.415200	0.289000	0.781600
H301	H30	0.625900	0.352100	0.809600
H311	H31	0.706400	0.216100	0.855500
H321	H32	0.709300	0.262900	0.934400
H331	H33	0.872900	0.337600	0.368800
H341	H34	0.302300	0.535500	0.537600
H351	H35	0.938700	0.119100	0.416900
H361	H36	0.818100	0.100800	0.346600
H371	H37	0.336500	0.188700	0.618200
H381	H38	0.281600	0.517500	0.416800
H391	H39	0.389400	0.424700	0.381700
H401	H40	0.077800	0.212200	0.717800
H411	H41	0.681900	0.301600	0.463200
H421	H42	0.884600	0.238400	0.495200
H431	H43	0.610200	0.211200	0.341600
H441	H44	0.609400	0.155700	0.431400
H451	H45	0.915200	0.211000	0.281600
H461	H46	0.125900	0.147900	0.309600
H471	H47	0.206400	0.283900	0.355500
H481	H48	0.209300	0.237100	0.434400
H491	H49	0.627100	0.837600	0.131200
H501	H50	0.197700	0.035500	0.962400
H511	H51	0.561300	0.619100	0.083100
H521	H52	0.681900	0.600800	0.153400
H531	H53	0.163500	0.688700	0.881800
H541	H54	0.218400	0.017500	0.083200
H551	H55	0.110600	0.924700	0.118300
H561	H56	0.422200	0.712200	0.782200
H571	H57	0.818100	0.801600	0.036800
H581	H58	0.615400	0.738400	0.004800
H591	H59	0.889800	0.711200	0.158400
H601	H60	0.890600	0.655700	0.068600
H611	H61	0.584800	0.711000	0.218400
H621	H62	0.374100	0.647900	0.190400
H631	H63	0.293600	0.783900	0.144500
H641	H64	0.290700	0.737100	0.065600
C11	C1	0.559000	0.662100	0.395930
C21	C2	0.079500	0.649500	0.356400
C31	C3	0.522900	0.950400	0.305800
C41	C4	0.419400	0.734900	0.369770
C51	C5	0.516700	0.810200	0.362480
C61	C6	0.403400	0.875600	0.325650
C71	C7	0.185300	0.866100	0.298380
C81	C8	0.085000	0.792000	0.307360
C91	C9	0.200200	0.725900	0.342080
C101	C10	0.049100	0.934200	0.260200
C111	C11	0.209800	0.738900	0.552600
C121	C12	0.306300	0.809500	0.603200
C131	C13	0.985700	0.812600	0.668500
C141	C14	0.895000	0.741800	0.618000
C151	C15	0.941000	0.162100	0.104070
C161	C16	0.420500	0.149500	0.143600
C171	C17	0.977100	0.450400	0.194200
C181	C18	0.080600	0.234900	0.130230
C191	C19	0.983300	0.310200	0.137520
C201	C20	0.096600	0.375600	0.174350
C211	C21	0.314700	0.366100	0.201620
C221	C22	0.415000	0.292000	0.192640
C231	C23	0.299800	0.225900	0.157920
C241	C24	0.450900	0.434200	0.239800
C251	C25	0.290200	0.238900	0.947400
C261	C26	0.193700	0.309500	0.896800
C271	C27	0.514300	0.312600	0.831500
C281	C28	0.605000	0.241800	0.882000
C291	C29	0.441000	0.337900	0.604070
C301	C30	0.920500	0.350500	0.643600
C311	C31	0.477100	0.049600	0.694200
C321	C32	0.580600	0.265100	0.630230
C331	C33	0.483300	0.189800	0.637520
C341	C34	0.596600	0.124400	0.674350
C351	C35	0.814700	0.133900	0.701620
C361	C36	0.915000	0.208000	0.692640
C371	C37	0.799800	0.274100	0.657920
C381	C38	0.950900	0.065800	0.739800
C391	C39	0.790200	0.261100	0.447400
C401	C40	0.693700	0.190500	0.396800
C411	C41	0.014300	0.187400	0.331500
C421	C42	0.105000	0.258200	0.382000
C431	C43	0.059000	0.837900	0.895930
C441	C44	0.579500	0.850500	0.856400
C451	C45	0.022900	0.549600	0.805800
C461	C46	0.919400	0.765100	0.869770
C471	C47	0.016700	0.689800	0.862480
C481	C48	0.903400	0.624400	0.825650
C491	C49	0.685300	0.633900	0.798380
C501	C50	0.585000	0.708000	0.807360
C511	C51	0.700200	0.774100	0.842080
C521	C52	0.549100	0.565800	0.760200
C531	C53	0.709800	0.761100	0.052600
C541	C54	0.806300	0.690500	0.103200
C551	C55	0.485700	0.687400	0.168500
C561	C56	0.395000	0.758200	0.118000
N11	N1	0.056200	0.689360	0.589180
N21	N2	0.129200	0.861300	0.625200
N31	N3	0.443800	0.189360	0.910820
N41	N4	0.370800	0.361300	0.874800
N51	N5	0.943800	0.310640	0.410820
N61	N6	0.870800	0.138700	0.374800
N71	N7	0.556200	0.810640	0.089180
N81	N8	0.629200	0.638700	0.125200
O11	O1	0.526600	0.599830	0.354240
O21	O2	0.835100	0.487210	0.438070
O31	O3	0.926800	0.628010	0.304930
O41	O4	0.533700	0.957520	0.234010
O51	O5	0.942000	0.918610	0.192210
O61	O6	0.703500	0.672100	0.454690
O71	O7	0.135300	0.615080	0.422830
O81	O8	0.693200	0.545420	0.576820
O91	O9	0.035000	0.999190	0.294000
O101	O10	0.607200	0.995450	0.359500
O111	O11	0.973400	0.099830	0.145760
O121	O12	0.664900	0.987210	0.061930
O131	O13	0.573200	0.128010	0.195070
O141	O14	0.966300	0.457520	0.265990
O151	O15	0.558000	0.418610	0.307790
O161	O16	0.796500	0.172100	0.045310
O171	O17	0.364700	0.115080	0.077170
O181	O18	0.806800	0.045420	0.923180
O191	O19	0.465000	0.499190	0.206000
O201	O20	0.892800	0.495450	0.140500
O211	O21	0.473400	0.400170	0.645760
O221	O22	0.164900	0.512790	0.561930
O231	O23	0.073200	0.371990	0.695070
O241	O24	0.466300	0.042480	0.765990
O251	O25	0.058000	0.081390	0.807790
O261	O26	0.296500	0.327900	0.545310
O271	O27	0.864700	0.384920	0.577170
O281	O28	0.306800	0.454580	0.423180
O291	O29	0.965000	0.000810	0.706000
O301	O30	0.392800	0.004550	0.640500
O311	O31	0.026600	0.900170	0.854240
O321	O32	0.335100	0.012790	0.938070
O331	O33	0.426800	0.871990	0.804930
O341	O34	0.033700	0.542480	0.734010
O351	O35	0.442000	0.581390	0.692210
O361	O36	0.203500	0.827900	0.954690
O371	O37	0.635300	0.884920	0.922830
O381	O38	0.193200	0.954580	0.076820
O391	O39	0.535000	0.500810	0.794000
O401	O40	0.107200	0.504550	0.859500
