data_XOVPIH_freeONLY_PM
_symmetry_space_group_name_H-M	'P1'
_cell_length_a	9.227500
_cell_length_b	9.771000
_cell_length_c	10.699000
_cell_angle_alpha	67.810000
_cell_angle_beta	84.490000
_cell_angle_gamma	61.840000
_symmetry_Int_Tables_number 1

loop_
_symmetry_equiv_pos_as_xyz
'x,y,z'

loop_
_atom_site_label
_atom_site_type_symbol
_atom_site_fract_x
_atom_site_fract_y
_atom_site_fract_z
Ce11	Ce1	0.722850	0.043840	0.983140
Ce21	Ce2	0.277150	0.956160	0.016860
H11	H1	0.101200	0.449000	0.133000
H21	H2	0.066300	0.460700	0.275800
H31	H3	0.880100	0.397000	0.130200
H41	H4	0.828100	0.426000	0.265900
H51	H5	0.132000	0.161900	0.248100
H61	H6	0.073600	0.188900	0.383200
H71	H7	0.859700	0.126900	0.370300
H81	H8	0.033300	0.975000	0.379200
H91	H9	0.329800	0.096700	0.651200
H101	H10	0.383300	0.231100	0.560600
H111	H11	0.587000	0.881200	0.627700
H121	H12	0.632800	0.019000	0.531500
H131	H13	0.727200	0.316300	0.768600
H141	H14	0.844800	0.299400	0.850900
H151	H15	0.437900	0.387600	0.992200
H161	H16	0.380000	0.290600	0.972100
H171	H17	0.898800	0.551000	0.867000
H181	H18	0.933700	0.539300	0.724200
H191	H19	0.119900	0.603000	0.869800
H201	H20	0.171900	0.574000	0.734100
H211	H21	0.868000	0.838100	0.751900
H221	H22	0.926400	0.811100	0.616800
H231	H23	0.140300	0.873100	0.629700
H241	H24	0.966700	0.025000	0.620800
H251	H25	0.670200	0.903300	0.348800
H261	H26	0.616700	0.768900	0.439400
H271	H27	0.413000	0.118800	0.372300
H281	H28	0.367200	0.981000	0.468500
H291	H29	0.272800	0.683700	0.231400
H301	H30	0.155200	0.700600	0.149100
H311	H31	0.562100	0.612400	0.007800
H321	H32	0.620000	0.709400	0.027900
C11	C1	0.906000	0.672700	0.122700
C21	C2	0.014300	0.485100	0.190000
C31	C3	0.921600	0.384200	0.216000
C41	C4	0.035800	0.200400	0.296500
C51	C5	0.955800	0.088600	0.321800
C61	C6	0.903400	0.086700	0.193100
C71	C7	0.510600	0.094500	0.748900
C81	C8	0.423800	0.116700	0.625700
C91	C9	0.541700	0.994800	0.560400
C101	C10	0.094000	0.327300	0.877300
C111	C11	0.985700	0.514900	0.810000
C121	C12	0.078400	0.615800	0.784000
C131	C13	0.964200	0.799600	0.703500
C141	C14	0.044200	0.911400	0.678200
C151	C15	0.096600	0.913300	0.806900
C161	C16	0.489400	0.905500	0.251100
C171	C17	0.576200	0.883300	0.374300
C181	C18	0.458300	0.005200	0.439600
O11	O1	0.921500	0.767700	0.171200
O21	O2	0.807100	0.734500	0.021500
O31	O3	0.757100	0.119600	0.172600
O41	O4	0.008200	0.050000	0.111000
O51	O5	0.625800	0.133900	0.735100
O61	O6	0.474800	0.032000	0.866000
O71	O7	0.754300	0.298800	0.850300
O81	O8	0.463700	0.310400	0.961600
O91	O9	0.078500	0.232300	0.828800
O101	O10	0.192900	0.265500	0.978500
O111	O11	0.242900	0.880400	0.827400
O121	O12	0.991800	0.950000	0.889000
O131	O13	0.374200	0.866100	0.264900
O141	O14	0.525200	0.968000	0.134000
O151	O15	0.245700	0.701200	0.149700
O161	O16	0.536300	0.689600	0.038400
