data_XOVVIO_freeONLY_PM
_symmetry_space_group_name_H-M	'P1'
_cell_length_a	9.924000
_cell_length_b	11.738000
_cell_length_c	15.203000
_cell_angle_alpha	94.770000
_cell_angle_beta	98.940000
_cell_angle_gamma	112.620000
_symmetry_Int_Tables_number 1

loop_
_symmetry_equiv_pos_as_xyz
'x,y,z'

loop_
_atom_site_label
_atom_site_type_symbol
_atom_site_fract_x
_atom_site_fract_y
_atom_site_fract_z
Zn11	Zn1	0.985440	0.067570	0.792060
Zn21	Zn2	0.443280	0.108600	0.568350
Zn31	Zn3	0.113750	0.815160	0.833460
Zn41	Zn4	0.014560	0.932430	0.207940
Zn51	Zn5	0.556720	0.891400	0.431650
Zn61	Zn6	0.886250	0.184840	0.166540
Zn71	Zn7	0.500000	0.000000	0.000000
H11	H1	0.769800	0.536800	0.940100
H21	H2	0.262800	0.668700	0.590500
H31	H3	0.681800	0.965100	0.855500
H41	H4	0.063400	0.177200	0.009200
H51	H5	0.710700	0.152800	0.731200
H61	H6	0.827600	0.932500	0.588700
H71	H7	0.173100	0.137800	0.639400
H81	H8	0.355600	0.911900	0.708200
H91	H9	0.201600	0.490500	0.832700
H101	H10	0.534000	0.379200	0.898600
H111	H11	0.625800	0.745800	0.913000
H121	H12	0.699600	0.502600	0.675000
H131	H13	0.295600	0.482100	0.565500
H141	H14	0.606200	0.803900	0.708100
H151	H15	0.230200	0.463200	0.059900
H161	H16	0.737200	0.331300	0.409500
H171	H17	0.318200	0.034900	0.144500
H181	H18	0.936600	0.822800	0.990800
H191	H19	0.289300	0.847200	0.268800
H201	H20	0.172400	0.067500	0.411300
H211	H21	0.826900	0.862200	0.360600
H221	H22	0.644400	0.088100	0.291800
H231	H23	0.798400	0.509500	0.167300
H241	H24	0.466000	0.620800	0.101400
H251	H25	0.374200	0.254200	0.087000
H261	H26	0.300400	0.497400	0.325000
H271	H27	0.704400	0.517900	0.434500
H281	H28	0.393800	0.196100	0.291900
C11	C1	0.754400	0.014700	0.905300
C21	C2	0.961900	0.129600	0.988500
C31	C3	0.712900	0.097600	0.684400
C41	C4	0.775800	0.978200	0.607500
C51	C5	0.194200	0.077000	0.666800
C61	C6	0.293300	0.954300	0.703800
C71	C7	0.348900	0.734700	0.866300
C81	C8	0.238900	0.283000	0.852500
C91	C9	0.404900	0.634300	0.873400
C101	C10	0.302300	0.509700	0.853400
C111	C11	0.350600	0.414600	0.864400
C121	C12	0.501300	0.442900	0.891800
C131	C13	0.603100	0.566500	0.909100
C141	C14	0.556800	0.663100	0.900700
C151	C15	0.828500	0.740500	0.755200
C161	C16	0.441600	0.336000	0.581800
C171	C17	0.676900	0.665500	0.699300
C181	C18	0.632900	0.540500	0.664600
C191	C19	0.491400	0.472600	0.615100
C201	C20	0.391400	0.528200	0.599100
C211	C21	0.435100	0.652300	0.633200
C221	C22	0.577800	0.720600	0.684200
C231	C23	0.245600	0.985300	0.094700
C241	C24	0.038100	0.870400	0.011500
C251	C25	0.287100	0.902400	0.315600
C261	C26	0.224200	0.021800	0.392500
C271	C27	0.805800	0.923000	0.333200
C281	C28	0.706700	0.045700	0.296200
C291	C29	0.651100	0.265300	0.133700
C301	C30	0.761100	0.717000	0.147500
C311	C31	0.595100	0.365700	0.126600
C321	C32	0.697700	0.490300	0.146600
C331	C33	0.649400	0.585400	0.135600
C341	C34	0.498700	0.557100	0.108200
C351	C35	0.396900	0.433500	0.090900
C361	C36	0.443200	0.336900	0.099300
C371	C37	0.171500	0.259500	0.244800
C381	C38	0.558400	0.664000	0.418200
C391	C39	0.323100	0.334500	0.300700
C401	C40	0.367100	0.459500	0.335400
C411	C41	0.508600	0.527400	0.384900
C421	C42	0.608600	0.471800	0.400900
C431	C43	0.564900	0.347700	0.366800
C441	C44	0.422200	0.279400	0.315800
N11	N1	0.723800	0.039900	0.984100
N21	N2	0.900200	0.067500	0.903700
N31	N3	0.860200	0.114500	0.038400
N41	N4	0.816400	0.050100	0.688000
N51	N5	0.614200	0.057500	0.607500
N61	N6	0.656400	0.978400	0.557900
N71	N7	0.121300	0.017500	0.725700
N81	N8	0.185600	0.935600	0.749900
N91	N9	0.302500	0.040900	0.650100
N101	N10	0.276200	0.960100	0.015900
N111	N11	0.099800	0.932500	0.096300
N121	N12	0.139800	0.885500	0.961600
N131	N13	0.183600	0.949900	0.312000
N141	N14	0.385800	0.942500	0.392500
N151	N15	0.343600	0.021600	0.442100
N161	N16	0.878700	0.982500	0.274300
N171	N17	0.814400	0.064400	0.250100
N181	N18	0.697500	0.959100	0.349900
O11	O1	0.434200	0.848400	0.888600
O21	O2	0.208600	0.697500	0.836800
O31	O3	0.108000	0.255200	0.805400
O41	O4	0.271200	0.201700	0.888600
O51	O5	0.753600	0.599800	0.936200
O61	O6	0.864300	0.848700	0.790800
O71	O7	0.921000	0.686900	0.764700
O81	O8	0.539900	0.289300	0.598500
O91	O9	0.311700	0.270800	0.542000
O101	O10	0.344400	0.715800	0.621000
O111	O11	0.496500	0.125000	0.908800
O121	O12	0.565800	0.151600	0.111400
O131	O13	0.791400	0.302500	0.163200
O141	O14	0.892000	0.744800	0.194600
O151	O15	0.728800	0.798300	0.111400
O161	O16	0.246400	0.400200	0.063800
O171	O17	0.135700	0.151300	0.209200
O181	O18	0.079000	0.313100	0.235300
O191	O19	0.460100	0.710700	0.401500
O201	O20	0.688300	0.729200	0.458000
O211	O21	0.655600	0.284200	0.379000
O221	O22	0.503500	0.875000	0.091200
