data_XULCIR_freeONLY_PM
_symmetry_space_group_name_H-M	'P1'
_cell_length_a	11.628400
_cell_length_b	16.314800
_cell_length_c	17.886100
_cell_angle_alpha	90.000000
_cell_angle_beta	90.000000
_cell_angle_gamma	90.000000
_symmetry_Int_Tables_number 1

loop_
_symmetry_equiv_pos_as_xyz
'x,y,z'

loop_
_atom_site_label
_atom_site_type_symbol
_atom_site_fract_x
_atom_site_fract_y
_atom_site_fract_z
Mn11	Mn1	0.500000	0.110420	0.181730
Mn21	Mn2	0.500000	0.889580	0.818270
Mn31	Mn3	0.500000	0.389580	0.681730
Mn41	Mn4	0.500000	0.610420	0.318270
Mn51	Mn5	0.500000	0.500000	0.000000
Mn61	Mn6	0.500000	0.000000	0.500000
Fe11	Fe1	0.500000	0.197940	0.900440
Fe21	Fe2	0.500000	0.802060	0.099560
Fe31	Fe3	0.500000	0.302060	0.400440
Fe41	Fe4	0.500000	0.697940	0.599560
H11	H1	0.284000	0.172100	0.276100
H21	H2	0.088600	0.167900	0.282400
H31	H3	0.285900	0.041200	0.095500
H41	H4	0.089700	0.033600	0.095500
H51	H5	0.715500	0.425300	0.917600
H61	H6	0.911000	0.423600	0.914700
H71	H7	0.566500	0.598700	0.876800
H81	H8	0.284000	0.827900	0.723900
H91	H9	0.088600	0.832100	0.717600
H101	H10	0.285900	0.958800	0.904500
H111	H11	0.089700	0.966400	0.904500
H121	H12	0.715500	0.574700	0.082400
H131	H13	0.911000	0.576400	0.085300
H141	H14	0.566500	0.401300	0.123200
H151	H15	0.716000	0.327900	0.776100
H161	H16	0.911400	0.332100	0.782400
H171	H17	0.714100	0.458800	0.595500
H181	H18	0.910300	0.466400	0.595500
H191	H19	0.284500	0.074700	0.417600
H201	H20	0.089000	0.076400	0.414700
H211	H21	0.433500	0.901300	0.376800
H221	H22	0.716000	0.672100	0.223900
H231	H23	0.911400	0.667900	0.217600
H241	H24	0.714100	0.541200	0.404500
H251	H25	0.910300	0.533600	0.404500
H261	H26	0.284500	0.925300	0.582400
H271	H27	0.089000	0.923600	0.585300
H281	H28	0.433500	0.098700	0.623200
H291	H29	0.716000	0.827900	0.723900
H301	H30	0.911400	0.832100	0.717600
H311	H31	0.714100	0.958800	0.904500
H321	H32	0.910300	0.966400	0.904500
H331	H33	0.284500	0.574700	0.082400
H341	H34	0.089000	0.576400	0.085300
H351	H35	0.433500	0.401300	0.123200
H361	H36	0.716000	0.172100	0.276100
H371	H37	0.911400	0.167900	0.282400
H381	H38	0.714100	0.041200	0.095500
H391	H39	0.910300	0.033600	0.095500
H401	H40	0.284500	0.425300	0.917600
H411	H41	0.089000	0.423600	0.914700
H421	H42	0.433500	0.598700	0.876800
H431	H43	0.284000	0.672100	0.223900
H441	H44	0.088600	0.667900	0.217600
H451	H45	0.285900	0.541200	0.404500
H461	H46	0.089700	0.533600	0.404500
H471	H47	0.715500	0.925300	0.582400
H481	H48	0.911000	0.923600	0.585300
H491	H49	0.566500	0.098700	0.623200
H501	H50	0.284000	0.327900	0.776100
H511	H51	0.088600	0.332100	0.782400
H521	H52	0.285900	0.458800	0.595500
H531	H53	0.089700	0.466400	0.595500
H541	H54	0.715500	0.074700	0.417600
H551	H55	0.911000	0.076400	0.414700
H561	H56	0.566500	0.901300	0.376800
H571	H57	0.500000	0.010600	0.313600
H581	H58	0.500000	0.101800	0.330800
H591	H59	0.500000	0.989400	0.686400
H601	H60	0.500000	0.898200	0.669200
H611	H61	0.500000	0.489400	0.813600
H621	H62	0.500000	0.398200	0.830800
H631	H63	0.500000	0.510600	0.186400
H641	H64	0.500000	0.601800	0.169200
C11	C1	0.669000	0.197300	0.901600
C21	C2	0.244200	0.143900	0.239100
C31	C3	0.126500	0.141800	0.243300
C41	C4	0.245500	0.067500	0.133400
C51	C5	0.127100	0.062500	0.133100
C61	C6	0.064100	0.100600	0.188800
C71	C7	0.755100	0.456900	0.952300
C81	C8	0.873500	0.455400	0.950300
C91	C9	0.669000	0.802700	0.098400
C101	C10	0.244200	0.856100	0.760900
C111	C11	0.126500	0.858200	0.756700
C121	C12	0.245500	0.932500	0.866600
C131	C13	0.127100	0.937500	0.866900
C141	C14	0.064100	0.899400	0.811200
C151	C15	0.755100	0.543100	0.047700
C161	C16	0.873500	0.544600	0.049700
C171	C17	0.331000	0.302700	0.401600
C181	C18	0.755800	0.356100	0.739100
C191	C19	0.873500	0.358200	0.743300
C201	C20	0.754500	0.432500	0.633400
C211	C21	0.872900	0.437500	0.633100
C221	C22	0.935900	0.399400	0.688800
C231	C23	0.244900	0.043100	0.452300
C241	C24	0.126500	0.044600	0.450300
C251	C25	0.331000	0.697300	0.598400
C261	C26	0.755800	0.643900	0.260900
C271	C27	0.873500	0.641800	0.256700
C281	C28	0.754500	0.567500	0.366600
C291	C29	0.872900	0.562500	0.366900
C301	C30	0.935900	0.600600	0.311200
C311	C31	0.244900	0.956900	0.547700
C321	C32	0.126500	0.955400	0.549700
C331	C33	0.331000	0.802700	0.098400
C341	C34	0.755800	0.856100	0.760900
C351	C35	0.873500	0.858200	0.756700
C361	C36	0.754500	0.932500	0.866600
C371	C37	0.872900	0.937500	0.866900
C381	C38	0.935900	0.899400	0.811200
C391	C39	0.244900	0.543100	0.047700
C401	C40	0.126500	0.544600	0.049700
C411	C41	0.331000	0.197300	0.901600
C421	C42	0.755800	0.143900	0.239100
C431	C43	0.873500	0.141800	0.243300
C441	C44	0.754500	0.067500	0.133400
C451	C45	0.872900	0.062500	0.133100
C461	C46	0.935900	0.100600	0.188800
C471	C47	0.244900	0.456900	0.952300
C481	C48	0.126500	0.455400	0.950300
C491	C49	0.669000	0.697300	0.598400
C501	C50	0.244200	0.643900	0.260900
C511	C51	0.126500	0.641800	0.256700
C521	C52	0.245500	0.567500	0.366600
C531	C53	0.127100	0.562500	0.366900
C541	C54	0.064100	0.600600	0.311200
C551	C55	0.755100	0.956900	0.547700
C561	C56	0.873500	0.955400	0.549700
C571	C57	0.669000	0.302700	0.401600
C581	C58	0.244200	0.356100	0.739100
C591	C59	0.126500	0.358200	0.743300
C601	C60	0.245500	0.432500	0.633400
C611	C61	0.127100	0.437500	0.633100
C621	C62	0.064100	0.399400	0.688800
C631	C63	0.755100	0.043100	0.452300
C641	C64	0.873500	0.044600	0.450300
C651	C65	0.500000	0.164400	0.003800
C661	C66	0.500000	0.310300	0.933700
C671	C67	0.500000	0.238400	0.798100
C681	C68	0.500000	0.085600	0.867400
C691	C69	0.500000	0.835600	0.996200
C701	C70	0.500000	0.689700	0.066300
C711	C71	0.500000	0.761600	0.201900
C721	C72	0.500000	0.914400	0.132600
C731	C73	0.500000	0.335600	0.503800
C741	C74	0.500000	0.189700	0.433700
C751	C75	0.500000	0.261600	0.298100
C761	C76	0.500000	0.414400	0.367400
C771	C77	0.500000	0.664400	0.496200
C781	C78	0.500000	0.810300	0.566300
C791	C79	0.500000	0.738400	0.701900
C801	C80	0.500000	0.585600	0.632600
C811	C81	0.935900	0.500000	0.000000
C821	C82	0.064100	0.000000	0.500000
C831	C83	0.064100	0.500000	0.000000
C841	C84	0.935900	0.000000	0.500000
N11	N1	0.768200	0.197800	0.902300
N21	N2	0.305000	0.107920	0.185300
N31	N3	0.768200	0.802200	0.097700
N41	N4	0.305000	0.892080	0.814700
N51	N5	0.231800	0.302200	0.402300
N61	N6	0.695000	0.392080	0.685300
N71	N7	0.231800	0.697800	0.597700
N81	N8	0.695000	0.607920	0.314700
N91	N9	0.231800	0.802200	0.097700
N101	N10	0.695000	0.892080	0.814700
N111	N11	0.231800	0.197800	0.902300
N121	N12	0.695000	0.107920	0.185300
N131	N13	0.768200	0.697800	0.597700
N141	N14	0.305000	0.607920	0.314700
N151	N15	0.768200	0.302200	0.402300
N161	N16	0.305000	0.392080	0.685300
N171	N17	0.500000	0.148500	0.066200
N181	N18	0.500000	0.378300	0.950000
N191	N19	0.500000	0.270600	0.740600
N201	N20	0.500000	0.019100	0.848600
N211	N21	0.500000	0.851500	0.933800
N221	N22	0.500000	0.621700	0.050000
N231	N23	0.500000	0.729400	0.259400
N241	N24	0.500000	0.980900	0.151400
N251	N25	0.500000	0.351500	0.566200
N261	N26	0.500000	0.121700	0.450000
N271	N27	0.500000	0.229400	0.240600
N281	N28	0.500000	0.480900	0.348600
N291	N29	0.500000	0.648500	0.433800
N301	N30	0.500000	0.878300	0.550000
N311	N31	0.500000	0.770600	0.759400
N321	N32	0.500000	0.519100	0.651400
N331	N33	0.694800	0.500000	0.000000
N341	N34	0.305200	0.000000	0.500000
N351	N35	0.305200	0.500000	0.000000
N361	N36	0.694800	0.000000	0.500000
O11	O1	0.500000	0.062200	0.296600
O21	O2	0.500000	0.567600	0.889510
O31	O3	0.500000	0.937800	0.703400
O41	O4	0.500000	0.432400	0.110490
O51	O5	0.500000	0.437800	0.796600
O61	O6	0.500000	0.932400	0.389510
O71	O7	0.500000	0.562200	0.203400
O81	O8	0.500000	0.067600	0.610490
