data_XUMFIV_freeONLY_PM
_symmetry_space_group_name_H-M	'P1'
_cell_length_a	11.406000
_cell_length_b	12.453000
_cell_length_c	13.759000
_cell_angle_alpha	110.452000
_cell_angle_beta	101.878000
_cell_angle_gamma	108.214000
_symmetry_Int_Tables_number 1

loop_
_symmetry_equiv_pos_as_xyz
'x,y,z'

loop_
_atom_site_label
_atom_site_type_symbol
_atom_site_fract_x
_atom_site_fract_y
_atom_site_fract_z
Cu11	Cu1	0.500000	0.500000	0.500000
Cu21	Cu2	0.500000	0.000000	0.000000
Cu31	Cu3	0.500000	0.500000	0.000000
H11	H1	0.533300	0.285500	0.532000
H21	H2	0.416800	0.105600	0.547000
H31	H3	0.117200	0.214700	0.547100
H41	H4	0.240500	0.387000	0.524800
H51	H5	0.513300	0.171200	0.898100
H61	H6	0.403500	0.183700	0.742800
H71	H7	0.130700	0.829800	0.640200
H81	H8	0.247600	0.826000	0.795600
H91	H9	0.783200	0.180300	0.040400
H101	H10	0.941500	0.180700	0.961600
H111	H11	0.700000	0.822200	0.731200
H121	H12	0.543600	0.833800	0.814700
H131	H13	0.355600	0.292800	0.055000
H141	H14	0.160500	0.109600	0.973400
H151	H15	0.053200	0.198200	0.722900
H161	H16	0.251400	0.374100	0.807400
H171	H17	0.466700	0.714500	0.468000
H181	H18	0.583200	0.894400	0.453000
H191	H19	0.882800	0.785300	0.452900
H201	H20	0.759500	0.613000	0.475200
H211	H21	0.486700	0.828800	0.101900
H221	H22	0.596500	0.816300	0.257200
H231	H23	0.869300	0.170200	0.359800
H241	H24	0.752400	0.174000	0.204400
H251	H25	0.216800	0.819700	0.959600
H261	H26	0.058500	0.819300	0.038400
H271	H27	0.300000	0.177800	0.268800
H281	H28	0.456400	0.166200	0.185300
H291	H29	0.644400	0.707200	0.945000
H301	H30	0.839500	0.890400	0.026600
H311	H31	0.946800	0.801800	0.277100
H321	H32	0.748600	0.625900	0.192600
C11	C1	0.446800	0.269500	0.533600
C21	C2	0.379100	0.162900	0.543700
C31	C3	0.252700	0.141900	0.549000
C41	C4	0.202100	0.226200	0.542900
C51	C5	0.276800	0.329400	0.530400
C61	C6	0.434900	0.100500	0.844300
C71	C7	0.370200	0.109200	0.752100
C81	C8	0.255500	0.005800	0.673700
C91	C9	0.210100	0.900800	0.691900
C101	C10	0.279900	0.899400	0.784700
C111	C11	0.765600	0.106900	0.976400
C121	C12	0.860500	0.107700	0.930300
C131	C13	0.838500	0.002200	0.837800
C141	C14	0.718400	0.897100	0.794200
C151	C15	0.626300	0.904800	0.845400
C161	C16	0.294400	0.272200	0.985900
C171	C17	0.177700	0.163000	0.938000
C181	C18	0.087500	0.133300	0.838400
C191	C19	0.114900	0.214700	0.790100
C201	C20	0.232500	0.319400	0.841500
C211	C21	0.757000	0.608300	0.697500
C221	C22	0.618700	0.420000	0.819000
C231	C23	0.753000	0.416000	0.842000
C241	C24	0.553200	0.730500	0.466400
C251	C25	0.620900	0.837100	0.456300
C261	C26	0.747300	0.858100	0.451000
C271	C27	0.797900	0.773800	0.457100
C281	C28	0.723200	0.670600	0.469600
C291	C29	0.565100	0.899500	0.155700
C301	C30	0.629800	0.890800	0.247900
C311	C31	0.744500	0.994200	0.326300
C321	C32	0.789900	0.099200	0.308100
C331	C33	0.720100	0.100600	0.215300
C341	C34	0.234400	0.893100	0.023600
C351	C35	0.139500	0.892300	0.069700
C361	C36	0.161500	0.997800	0.162200
C371	C37	0.281600	0.102900	0.205800
C381	C38	0.373700	0.095200	0.154600
C391	C39	0.705600	0.727800	0.014100
C401	C40	0.822300	0.837000	0.062000
C411	C41	0.912500	0.866700	0.161600
C421	C42	0.885100	0.785300	0.209900
C431	C43	0.767500	0.680600	0.158500
C441	C44	0.243000	0.391700	0.302500
C451	C45	0.381300	0.580000	0.181000
C461	C46	0.247000	0.584000	0.158000
S11	S1	0.156050	0.003280	0.555530
S21	S2	0.946210	0.987150	0.763780
S31	S3	0.903200	0.682300	0.789100
S41	S4	0.356790	0.638770	0.869080
S51	S5	0.843950	0.996720	0.444470
S61	S6	0.053790	0.012850	0.236220
S71	S7	0.096800	0.317700	0.210900
S81	S8	0.643210	0.361230	0.130920
N11	N1	0.396900	0.350800	0.525900
N21	N2	0.392700	0.997800	0.861500
N31	N3	0.647500	0.006800	0.935800
N41	N4	0.323600	0.349400	0.938300
N51	N5	0.652100	0.557000	0.632100
N61	N6	0.603100	0.649200	0.474100
N71	N7	0.607300	0.002200	0.138500
N81	N8	0.352500	0.993200	0.064200
N91	N9	0.676400	0.650600	0.061700
N101	N10	0.347900	0.443000	0.367900
O11	O1	0.396600	0.611700	0.963900
O21	O2	0.405000	0.775300	0.907400
O31	O3	0.418600	0.588900	0.788500
O41	O4	0.213900	0.580100	0.816600
O51	O5	0.508400	0.435400	0.838800
O61	O6	0.603400	0.388300	0.036100
O71	O7	0.595000	0.224700	0.092600
O81	O8	0.581400	0.411100	0.211500
O91	O9	0.786100	0.419900	0.183400
O101	O10	0.491600	0.564600	0.161200
