data_XUVHEB_freeONLY_PM
_symmetry_space_group_name_H-M	'P1'
_cell_length_a	14.532000
_cell_length_b	18.184000
_cell_length_c	25.037000
_cell_angle_alpha	90.000000
_cell_angle_beta	90.000000
_cell_angle_gamma	90.000000
_symmetry_Int_Tables_number 1

loop_
_symmetry_equiv_pos_as_xyz
'x,y,z'

loop_
_atom_site_label
_atom_site_type_symbol
_atom_site_fract_x
_atom_site_fract_y
_atom_site_fract_z
Zn11	Zn1	0.535360	0.943150	0.648080
Zn21	Zn2	0.464640	0.556850	0.648080
Zn31	Zn3	0.035360	0.556850	0.148080
Zn41	Zn4	0.964640	0.943150	0.148080
Zn51	Zn5	0.500000	0.750000	0.648370
Zn61	Zn6	0.000000	0.750000	0.148370
H11	H1	0.478800	0.066000	0.574600
H21	H2	0.462800	0.191500	0.573500
H31	H3	0.554000	0.198400	0.723600
H41	H4	0.569500	0.072200	0.721100
H51	H5	0.630900	0.521500	0.508700
H61	H6	0.715400	0.524600	0.430600
H71	H7	0.731000	0.744200	0.439700
H81	H8	0.646600	0.742300	0.518100
H91	H9	0.821800	0.531500	0.375900
H101	H10	0.765400	0.737900	0.356400
H111	H11	0.839400	0.917400	0.671600
H121	H12	0.984200	0.870100	0.674900
H131	H13	0.886500	0.669700	0.651100
H141	H14	0.739400	0.717600	0.643400
H151	H15	0.900900	0.531100	0.297400
H161	H16	0.859500	0.738800	0.282700
H171	H17	0.521200	0.434000	0.574600
H181	H18	0.537200	0.308500	0.573500
H191	H19	0.446000	0.301600	0.723600
H201	H20	0.430500	0.427800	0.721100
H211	H21	0.369100	0.978500	0.508700
H221	H22	0.284600	0.975400	0.430600
H231	H23	0.269000	0.755800	0.439700
H241	H24	0.353400	0.757700	0.518100
H251	H25	0.178200	0.968500	0.375900
H261	H26	0.234600	0.762100	0.356400
H271	H27	0.160600	0.582600	0.671600
H281	H28	0.015800	0.629900	0.674900
H291	H29	0.113500	0.830300	0.651100
H301	H30	0.260600	0.782400	0.643400
H311	H31	0.099100	0.968900	0.297400
H321	H32	0.140500	0.761200	0.282700
H331	H33	0.978800	0.434000	0.074600
H341	H34	0.962800	0.308500	0.073500
H351	H35	0.054000	0.301600	0.223600
H361	H36	0.069500	0.427800	0.221100
H371	H37	0.130900	0.978500	0.008700
H381	H38	0.215400	0.975400	0.930600
H391	H39	0.231000	0.755800	0.939700
H401	H40	0.146600	0.757700	0.018100
H411	H41	0.321800	0.968500	0.875900
H421	H42	0.265400	0.762100	0.856400
H431	H43	0.339400	0.582600	0.171600
H441	H44	0.484200	0.629900	0.174900
H451	H45	0.386500	0.830300	0.151100
H461	H46	0.239400	0.782400	0.143400
H471	H47	0.400900	0.968900	0.797400
H481	H48	0.359500	0.761200	0.782700
H491	H49	0.021200	0.066000	0.074600
H501	H50	0.037200	0.191500	0.073500
H511	H51	0.946000	0.198400	0.223600
H521	H52	0.930500	0.072200	0.221100
H531	H53	0.869100	0.521500	0.008700
H541	H54	0.784600	0.524600	0.930600
H551	H55	0.769000	0.744200	0.939700
H561	H56	0.853400	0.742300	0.018100
H571	H57	0.678200	0.531500	0.875900
H581	H58	0.734600	0.737900	0.856400
H591	H59	0.660600	0.917400	0.171600
H601	H60	0.515800	0.870100	0.174900
H611	H61	0.613500	0.669700	0.151100
H621	H62	0.760600	0.717600	0.143400
H631	H63	0.599100	0.531100	0.797400
H641	H64	0.640500	0.738800	0.782700
C11	C1	0.494100	0.092900	0.604900
C21	C2	0.484000	0.168300	0.604300
C31	C3	0.504900	0.209500	0.648600
C41	C4	0.538000	0.172600	0.692900
C51	C5	0.547200	0.096600	0.691100
C61	C6	0.626800	0.632400	0.520100
C71	C7	0.650000	0.566300	0.494600
C81	C8	0.701700	0.568300	0.448200
C91	C9	0.733500	0.634800	0.427200
C101	C10	0.711000	0.699500	0.453600
C111	C11	0.659300	0.698600	0.500300
C121	C12	0.788000	0.635500	0.377100
C131	C13	0.827200	0.575400	0.357100
C141	C14	0.796100	0.695100	0.346700
C151	C15	0.678200	0.853400	0.651200
C161	C16	0.773800	0.822800	0.655700
C171	C17	0.848300	0.867300	0.666100
C181	C18	0.935000	0.838700	0.668300
C191	C19	0.952000	0.765100	0.661100
C201	C20	0.877700	0.720300	0.653700
C211	C21	0.788800	0.748900	0.649900
C221	C22	0.936900	0.632400	0.229200
C231	C23	0.887600	0.634300	0.280600
C241	C24	0.875800	0.575200	0.309400
C251	C25	0.849800	0.694600	0.300400
C261	C26	0.567500	0.631700	0.569000
C271	C27	0.505900	0.407100	0.604900
C281	C28	0.516000	0.331700	0.604300
C291	C29	0.495100	0.290500	0.648600
C301	C30	0.462000	0.327400	0.692900
C311	C31	0.452800	0.403400	0.691100
C321	C32	0.373200	0.867600	0.520100
C331	C33	0.350000	0.933700	0.494600
C341	C34	0.298300	0.931700	0.448200
C351	C35	0.266500	0.865200	0.427200
C361	C36	0.289000	0.800500	0.453600
C371	C37	0.340700	0.801400	0.500300
C381	C38	0.212000	0.864500	0.377100
C391	C39	0.172800	0.924600	0.357100
C401	C40	0.203900	0.804900	0.346700
C411	C41	0.321800	0.646600	0.651200
C421	C42	0.226200	0.677200	0.655700
C431	C43	0.151700	0.632700	0.666100
C441	C44	0.065000	0.661300	0.668300
C451	C45	0.048000	0.734900	0.661100
C461	C46	0.122300	0.779700	0.653700
C471	C47	0.211200	0.751100	0.649900
C481	C48	0.063100	0.867600	0.229200
C491	C49	0.112400	0.865700	0.280600
C501	C50	0.124200	0.924800	0.309400
C511	C51	0.150200	0.805400	0.300400
C521	C52	0.432500	0.868300	0.569000
C531	C53	0.994100	0.407100	0.104900
C541	C54	0.984000	0.331700	0.104300
C551	C55	0.004900	0.290500	0.148600
C561	C56	0.038000	0.327400	0.192900
C571	C57	0.047200	0.403400	0.191100
C581	C58	0.126800	0.867600	0.020100
C591	C59	0.150000	0.933700	0.994600
C601	C60	0.201700	0.931700	0.948200
C611	C61	0.233500	0.865200	0.927200
C621	C62	0.211000	0.800500	0.953600
C631	C63	0.159300	0.801400	0.000300
C641	C64	0.288000	0.864500	0.877100
C651	C65	0.327200	0.924600	0.857100
C661	C66	0.296100	0.804900	0.846700
C671	C67	0.178200	0.646600	0.151200
C681	C68	0.273800	0.677200	0.155700
C691	C69	0.348300	0.632700	0.166100
C701	C70	0.435000	0.661300	0.168300
C711	C71	0.452000	0.734900	0.161100
C721	C72	0.377700	0.779700	0.153700
C731	C73	0.288800	0.751100	0.149900
C741	C74	0.436900	0.867600	0.729200
C751	C75	0.387600	0.865700	0.780600
C761	C76	0.375800	0.924800	0.809400
C771	C77	0.349800	0.805400	0.800400
C781	C78	0.067500	0.868300	0.069000
C791	C79	0.005900	0.092900	0.104900
C801	C80	0.016000	0.168300	0.104300
C811	C81	0.995100	0.209500	0.148600
C821	C82	0.962000	0.172600	0.192900
C831	C83	0.952800	0.096600	0.191100
C841	C84	0.873200	0.632400	0.020100
C851	C85	0.850000	0.566300	0.994600
C861	C86	0.798300	0.568300	0.948200
C871	C87	0.766500	0.634800	0.927200
C881	C88	0.789000	0.699500	0.953600
C891	C89	0.840700	0.698600	0.000300
C901	C90	0.712000	0.635500	0.877100
C911	C91	0.672800	0.575400	0.857100
C921	C92	0.703900	0.695100	0.846700
C931	C93	0.821800	0.853400	0.151200
C941	C94	0.726200	0.822800	0.155700
C951	C95	0.651700	0.867300	0.166100
C961	C96	0.565000	0.838700	0.168300
C971	C97	0.548000	0.765100	0.161100
C981	C98	0.622300	0.720300	0.153700
C991	C99	0.711200	0.748900	0.149900
C1001	C100	0.563100	0.632400	0.729200
C1011	C101	0.612400	0.634300	0.780600
C1021	C102	0.624200	0.575200	0.809400
C1031	C103	0.650200	0.694600	0.800400
C1041	C104	0.932500	0.631700	0.069000
N11	N1	0.525200	0.057200	0.648190
N21	N2	0.474800	0.442800	0.648190
N31	N3	0.025200	0.442800	0.148190
N41	N4	0.974800	0.057200	0.148190
O11	O1	0.666400	0.920600	0.652900
O21	O2	0.970000	0.574000	0.214370
O31	O3	0.532700	0.572200	0.582610
O41	O4	0.556000	0.688800	0.592200
O51	O5	0.615200	0.814600	0.645300
O61	O6	0.944600	0.687600	0.204200
O71	O7	0.333600	0.579400	0.652900
O81	O8	0.030000	0.926000	0.214370
O91	O9	0.467300	0.927800	0.582610
O101	O10	0.444000	0.811200	0.592200
O111	O11	0.384800	0.685400	0.645300
O121	O12	0.055400	0.812400	0.204200
O131	O13	0.166400	0.579400	0.152900
O141	O14	0.470000	0.926000	0.714370
O151	O15	0.032700	0.927800	0.082610
O161	O16	0.056000	0.811200	0.092200
O171	O17	0.115200	0.685400	0.145300
O181	O18	0.444600	0.812400	0.704200
O191	O19	0.833600	0.920600	0.152900
O201	O20	0.530000	0.574000	0.714370
O211	O21	0.967300	0.572200	0.082610
O221	O22	0.944000	0.688800	0.092200
O231	O23	0.884800	0.814600	0.145300
O241	O24	0.555400	0.687600	0.704200
Zn71	Zn7	0.964640	0.443150	0.851920
Zn81	Zn8	0.035360	0.056850	0.851920
Zn91	Zn9	0.464640	0.056850	0.351920
Zn101	Zn10	0.535360	0.443150	0.351920
Zn111	Zn11	0.000000	0.250000	0.851630
Zn121	Zn12	0.500000	0.250000	0.351630
H651	H65	0.021200	0.566000	0.925400
H661	H66	0.037200	0.691500	0.926500
H671	H67	0.946000	0.698400	0.776400
H681	H68	0.930500	0.572200	0.778900
H691	H69	0.869100	0.021500	0.991300
H701	H70	0.784600	0.024600	0.069400
H711	H71	0.769000	0.244200	0.060300
H721	H72	0.853400	0.242300	0.981900
H731	H73	0.678200	0.031500	0.124100
H741	H74	0.734600	0.237900	0.143600
H751	H75	0.660600	0.417400	0.828400
H761	H76	0.515800	0.370100	0.825100
H771	H77	0.613500	0.169700	0.848900
H781	H78	0.760600	0.217600	0.856600
H791	H79	0.599100	0.031100	0.202600
H801	H80	0.640500	0.238800	0.217300
H811	H81	0.978800	0.934000	0.925400
H821	H82	0.962800	0.808500	0.926500
H831	H83	0.054000	0.801600	0.776400
H841	H84	0.069500	0.927800	0.778900
H851	H85	0.130900	0.478500	0.991300
H861	H86	0.215400	0.475400	0.069400
H871	H87	0.231000	0.255800	0.060300
H881	H88	0.146600	0.257700	0.981900
H891	H89	0.321800	0.468500	0.124100
H901	H90	0.265400	0.262100	0.143600
H911	H91	0.339400	0.082600	0.828400
H921	H92	0.484200	0.129900	0.825100
H931	H93	0.386500	0.330300	0.848900
H941	H94	0.239400	0.282400	0.856600
H951	H95	0.400900	0.468900	0.202600
H961	H96	0.359500	0.261200	0.217300
H971	H97	0.521200	0.934000	0.425400
H981	H98	0.537200	0.808500	0.426500
H991	H99	0.446000	0.801600	0.276400
H1001	H100	0.430500	0.927800	0.278900
H1011	H101	0.369100	0.478500	0.491300
H1021	H102	0.284600	0.475400	0.569400
H1031	H103	0.269000	0.255800	0.560300
H1041	H104	0.353400	0.257700	0.481900
H1051	H105	0.178200	0.468500	0.624100
H1061	H106	0.234600	0.262100	0.643600
H1071	H107	0.160600	0.082600	0.328400
H1081	H108	0.015800	0.129900	0.325100
H1091	H109	0.113500	0.330300	0.348900
H1101	H110	0.260600	0.282400	0.356600
H1111	H111	0.099100	0.468900	0.702600
H1121	H112	0.140500	0.261200	0.717300
H1131	H113	0.478800	0.566000	0.425400
H1141	H114	0.462800	0.691500	0.426500
H1151	H115	0.554000	0.698400	0.276400
H1161	H116	0.569500	0.572200	0.278900
H1171	H117	0.630900	0.021500	0.491300
H1181	H118	0.715400	0.024600	0.569400
H1191	H119	0.731000	0.244200	0.560300
H1201	H120	0.646600	0.242300	0.481900
H1211	H121	0.821800	0.031500	0.624100
H1221	H122	0.765400	0.237900	0.643600
H1231	H123	0.839400	0.417400	0.328400
H1241	H124	0.984200	0.370100	0.325100
H1251	H125	0.886500	0.169700	0.348900
H1261	H126	0.739400	0.217600	0.356600
H1271	H127	0.900900	0.031100	0.702600
H1281	H128	0.859500	0.238800	0.717300
C1051	C105	0.005900	0.592900	0.895100
C1061	C106	0.016000	0.668300	0.895700
C1071	C107	0.995100	0.709500	0.851400
C1081	C108	0.962000	0.672600	0.807100
C1091	C109	0.952800	0.596600	0.808900
C1101	C110	0.873200	0.132400	0.979900
C1111	C111	0.850000	0.066300	0.005400
C1121	C112	0.798300	0.068300	0.051800
C1131	C113	0.766500	0.134800	0.072800
C1141	C114	0.789000	0.199500	0.046400
C1151	C115	0.840700	0.198600	0.999700
C1161	C116	0.712000	0.135500	0.122900
C1171	C117	0.672800	0.075400	0.142900
C1181	C118	0.703900	0.195100	0.153300
C1191	C119	0.821800	0.353400	0.848800
C1201	C120	0.726200	0.322800	0.844300
C1211	C121	0.651700	0.367300	0.833900
C1221	C122	0.565000	0.338700	0.831700
C1231	C123	0.548000	0.265100	0.838900
C1241	C124	0.622300	0.220300	0.846300
C1251	C125	0.711200	0.248900	0.850100
C1261	C126	0.563100	0.132400	0.270800
C1271	C127	0.612400	0.134300	0.219400
C1281	C128	0.624200	0.075200	0.190600
C1291	C129	0.650200	0.194600	0.199600
C1301	C130	0.932500	0.131700	0.931000
C1311	C131	0.994100	0.907100	0.895100
C1321	C132	0.984000	0.831700	0.895700
C1331	C133	0.004900	0.790500	0.851400
C1341	C134	0.038000	0.827400	0.807100
C1351	C135	0.047200	0.903400	0.808900
C1361	C136	0.126800	0.367600	0.979900
C1371	C137	0.150000	0.433700	0.005400
C1381	C138	0.201700	0.431700	0.051800
C1391	C139	0.233500	0.365200	0.072800
C1401	C140	0.211000	0.300500	0.046400
C1411	C141	0.159300	0.301400	0.999700
C1421	C142	0.288000	0.364500	0.122900
C1431	C143	0.327200	0.424600	0.142900
C1441	C144	0.296100	0.304900	0.153300
C1451	C145	0.178200	0.146600	0.848800
C1461	C146	0.273800	0.177200	0.844300
C1471	C147	0.348300	0.132700	0.833900
C1481	C148	0.435000	0.161300	0.831700
C1491	C149	0.452000	0.234900	0.838900
C1501	C150	0.377700	0.279700	0.846300
C1511	C151	0.288800	0.251100	0.850100
C1521	C152	0.436900	0.367600	0.270800
C1531	C153	0.387600	0.365700	0.219400
C1541	C154	0.375800	0.424800	0.190600
C1551	C155	0.349800	0.305400	0.199600
C1561	C156	0.067500	0.368300	0.931000
C1571	C157	0.505900	0.907100	0.395100
C1581	C158	0.516000	0.831700	0.395700
C1591	C159	0.495100	0.790500	0.351400
C1601	C160	0.462000	0.827400	0.307100
C1611	C161	0.452800	0.903400	0.308900
C1621	C162	0.373200	0.367600	0.479900
C1631	C163	0.350000	0.433700	0.505400
C1641	C164	0.298300	0.431700	0.551800
C1651	C165	0.266500	0.365200	0.572800
C1661	C166	0.289000	0.300500	0.546400
C1671	C167	0.340700	0.301400	0.499700
C1681	C168	0.212000	0.364500	0.622900
C1691	C169	0.172800	0.424600	0.642900
C1701	C170	0.203900	0.304900	0.653300
C1711	C171	0.321800	0.146600	0.348800
C1721	C172	0.226200	0.177200	0.344300
C1731	C173	0.151700	0.132700	0.333900
C1741	C174	0.065000	0.161300	0.331700
C1751	C175	0.048000	0.234900	0.338900
C1761	C176	0.122300	0.279700	0.346300
C1771	C177	0.211200	0.251100	0.350100
C1781	C178	0.063100	0.367600	0.770800
C1791	C179	0.112400	0.365700	0.719400
C1801	C180	0.124200	0.424800	0.690600
C1811	C181	0.150200	0.305400	0.699600
C1821	C182	0.432500	0.368300	0.431000
C1831	C183	0.494100	0.592900	0.395100
C1841	C184	0.484000	0.668300	0.395700
C1851	C185	0.504900	0.709500	0.351400
C1861	C186	0.538000	0.672600	0.307100
C1871	C187	0.547200	0.596600	0.308900
C1881	C188	0.626800	0.132400	0.479900
C1891	C189	0.650000	0.066300	0.505400
C1901	C190	0.701700	0.068300	0.551800
C1911	C191	0.733500	0.134800	0.572800
C1921	C192	0.711000	0.199500	0.546400
C1931	C193	0.659300	0.198600	0.499700
C1941	C194	0.788000	0.135500	0.622900
C1951	C195	0.827200	0.075400	0.642900
C1961	C196	0.796100	0.195100	0.653300
C1971	C197	0.678200	0.353400	0.348800
C1981	C198	0.773800	0.322800	0.344300
C1991	C199	0.848300	0.367300	0.333900
C2001	C200	0.935000	0.338700	0.331700
C2011	C201	0.952000	0.265100	0.338900
C2021	C202	0.877700	0.220300	0.346300
C2031	C203	0.788800	0.248900	0.350100
C2041	C204	0.936900	0.132400	0.770800
C2051	C205	0.887600	0.134300	0.719400
C2061	C206	0.875800	0.075200	0.690600
C2071	C207	0.849800	0.194600	0.699600
C2081	C208	0.567500	0.131700	0.431000
N51	N5	0.974800	0.557200	0.851810
N61	N6	0.025200	0.942800	0.851810
N71	N7	0.474800	0.942800	0.351810
N81	N8	0.525200	0.557200	0.351810
O251	O25	0.833600	0.420600	0.847100
O261	O26	0.530000	0.074000	0.285630
O271	O27	0.967300	0.072200	0.917390
O281	O28	0.944000	0.188800	0.907800
O291	O29	0.884800	0.314600	0.854700
O301	O30	0.555400	0.187600	0.295800
O311	O31	0.166400	0.079400	0.847100
O321	O32	0.470000	0.426000	0.285630
O331	O33	0.032700	0.427800	0.917390
O341	O34	0.056000	0.311200	0.907800
O351	O35	0.115200	0.185400	0.854700
O361	O36	0.444600	0.312400	0.295800
O371	O37	0.333600	0.079400	0.347100
O381	O38	0.030000	0.426000	0.785630
O391	O39	0.467300	0.427800	0.417390
O401	O40	0.444000	0.311200	0.407800
O411	O41	0.384800	0.185400	0.354700
O421	O42	0.055400	0.312400	0.795800
O431	O43	0.666400	0.420600	0.347100
O441	O44	0.970000	0.074000	0.785630
O451	O45	0.532700	0.072200	0.417390
O461	O46	0.556000	0.188800	0.407800
O471	O47	0.615200	0.314600	0.354700
O481	O48	0.944600	0.187600	0.795800
