data_XUZDUS_freeONLY_PM
_symmetry_space_group_name_H-M	'P1'
_cell_length_a	11.100300
_cell_length_b	12.300100
_cell_length_c	43.003000
_cell_angle_alpha	90.000000
_cell_angle_beta	90.000000
_cell_angle_gamma	90.000000
_symmetry_Int_Tables_number 1

loop_
_symmetry_equiv_pos_as_xyz
'x,y,z'

loop_
_atom_site_label
_atom_site_type_symbol
_atom_site_fract_x
_atom_site_fract_y
_atom_site_fract_z
Ag11	Ag1	0.496600	0.884680	0.981900
Ag21	Ag2	0.657080	0.596660	0.867940
Ag31	Ag3	0.683020	0.869230	0.254200
Ag41	Ag4	0.503400	0.615320	0.481900
Ag51	Ag5	0.342920	0.903340	0.367940
Ag61	Ag6	0.316980	0.630770	0.754200
Ag71	Ag7	0.996600	0.115320	0.518100
Ag81	Ag8	0.157080	0.403340	0.632060
Ag91	Ag9	0.183020	0.130770	0.245800
Ag101	Ag10	0.003400	0.384680	0.018100
Ag111	Ag11	0.842920	0.096660	0.132060
Ag121	Ag12	0.816980	0.369230	0.745800
Ag131	Ag13	0.503400	0.115320	0.018100
Ag141	Ag14	0.342920	0.403340	0.132060
Ag151	Ag15	0.316980	0.130770	0.745800
Ag161	Ag16	0.496600	0.384680	0.518100
Ag171	Ag17	0.657080	0.096660	0.632060
Ag181	Ag18	0.683020	0.369230	0.245800
Ag191	Ag19	0.003400	0.884680	0.481900
Ag201	Ag20	0.842920	0.596660	0.367940
Ag211	Ag21	0.816980	0.869230	0.754200
Ag221	Ag22	0.996600	0.615320	0.981900
Ag231	Ag23	0.157080	0.903340	0.867940
Ag241	Ag24	0.183020	0.630770	0.254200
H11	H1	0.431300	0.960500	0.106400
H21	H2	0.473500	0.906300	0.156400
H31	H3	0.668100	0.658100	0.123600
H41	H4	0.624600	0.713300	0.073300
H51	H5	0.640500	0.770600	0.921100
H61	H6	0.517600	0.707900	0.922500
H71	H7	0.726000	0.725300	0.997600
H81	H8	0.766200	0.782300	0.966600
H91	H9	0.539900	0.627400	0.000100
H101	H10	0.456300	0.619600	0.970700
H111	H11	0.828800	0.544400	0.925300
H121	H12	0.829000	0.671500	0.922400
H131	H13	0.765100	0.457700	0.973500
H141	H14	0.724900	0.529800	0.001800
H151	H15	0.518500	0.507600	0.927000
H161	H16	0.642000	0.445900	0.928500
H171	H17	0.795000	0.503200	0.809000
H181	H18	0.670500	0.442600	0.808300
H191	H19	0.680500	0.768000	0.814100
H201	H20	0.800600	0.701200	0.812000
H211	H21	0.483700	0.545400	0.810900
H221	H22	0.486400	0.672700	0.813500
H231	H23	0.773600	0.620600	0.735300
H241	H24	0.856500	0.612400	0.764800
H251	H25	0.580200	0.526000	0.734400
H261	H26	0.540400	0.456700	0.763300
H271	H27	0.548600	0.781400	0.769100
H281	H28	0.585000	0.723800	0.737900
H291	H29	0.568700	0.539500	0.606400
H301	H30	0.526500	0.593700	0.656400
H311	H31	0.331900	0.841900	0.623600
H321	H32	0.375400	0.786700	0.573300
H331	H33	0.359500	0.729400	0.421100
H341	H34	0.482400	0.792100	0.422500
H351	H35	0.274000	0.774700	0.497600
H361	H36	0.233800	0.717700	0.466600
H371	H37	0.460100	0.872600	0.500100
H381	H38	0.543700	0.880400	0.470700
H391	H39	0.171200	0.955600	0.425300
H401	H40	0.171000	0.828500	0.422400
H411	H41	0.234900	0.042300	0.473500
H421	H42	0.275100	0.970200	0.501800
H431	H43	0.481500	0.992400	0.427000
H441	H44	0.358000	0.054100	0.428500
H451	H45	0.205000	0.996800	0.309000
H461	H46	0.329500	0.057400	0.308300
H471	H47	0.319500	0.732000	0.314100
H481	H48	0.199400	0.798800	0.312000
H491	H49	0.516300	0.954600	0.310900
H501	H50	0.513600	0.827300	0.313500
H511	H51	0.226400	0.879400	0.235300
H521	H52	0.143500	0.887600	0.264800
H531	H53	0.419800	0.974000	0.234400
H541	H54	0.459600	0.043300	0.263300
H551	H55	0.451400	0.718600	0.269100
H561	H56	0.415000	0.776200	0.237900
H571	H57	0.931300	0.039500	0.393600
H581	H58	0.973500	0.093700	0.343600
H591	H59	0.168100	0.341900	0.376400
H601	H60	0.124600	0.286700	0.426700
H611	H61	0.140500	0.229400	0.578900
H621	H62	0.017600	0.292100	0.577500
H631	H63	0.226000	0.274700	0.502400
H641	H64	0.266200	0.217700	0.533400
H651	H65	0.039900	0.372600	0.499900
H661	H66	0.956300	0.380400	0.529300
H671	H67	0.328800	0.455600	0.574700
H681	H68	0.329000	0.328500	0.577600
H691	H69	0.265100	0.542300	0.526500
H701	H70	0.224900	0.470200	0.498200
H711	H71	0.018500	0.492400	0.573000
H721	H72	0.142000	0.554100	0.571500
H731	H73	0.295000	0.496800	0.691000
H741	H74	0.170500	0.557400	0.691700
H751	H75	0.180500	0.232000	0.685900
H761	H76	0.300600	0.298800	0.688000
H771	H77	0.983700	0.454600	0.689100
H781	H78	0.986400	0.327300	0.686500
H791	H79	0.273600	0.379400	0.764700
H801	H80	0.356500	0.387600	0.735200
H811	H81	0.080200	0.474000	0.765600
H821	H82	0.040400	0.543300	0.736700
H831	H83	0.048600	0.218600	0.730900
H841	H84	0.085000	0.276200	0.762100
H851	H85	0.068700	0.460500	0.893600
H861	H86	0.026500	0.406300	0.843600
H871	H87	0.831900	0.158100	0.876400
H881	H88	0.875400	0.213300	0.926700
H891	H89	0.859500	0.270600	0.078900
H901	H90	0.982400	0.207900	0.077500
H911	H91	0.774000	0.225300	0.002400
H921	H92	0.733800	0.282300	0.033400
H931	H93	0.960100	0.127400	0.999900
H941	H94	0.043700	0.119600	0.029300
H951	H95	0.671200	0.044400	0.074700
H961	H96	0.671000	0.171500	0.077600
H971	H97	0.734900	0.957700	0.026500
H981	H98	0.775100	0.029800	0.998200
H991	H99	0.981500	0.007600	0.073000
H1001	H100	0.858000	0.945900	0.071500
H1011	H101	0.705000	0.003200	0.191000
H1021	H102	0.829500	0.942600	0.191700
H1031	H103	0.819500	0.268000	0.185900
H1041	H104	0.699400	0.201200	0.188000
H1051	H105	0.016300	0.045400	0.189100
H1061	H106	0.013600	0.172700	0.186500
H1071	H107	0.726400	0.120600	0.264700
H1081	H108	0.643500	0.112400	0.235200
H1091	H109	0.919800	0.026000	0.265600
H1101	H110	0.959600	0.956700	0.236700
H1111	H111	0.951400	0.281400	0.230900
H1121	H112	0.915000	0.223800	0.262100
H1131	H113	0.568700	0.039500	0.893600
H1141	H114	0.526500	0.093700	0.843600
H1151	H115	0.331900	0.341900	0.876400
H1161	H116	0.375400	0.286700	0.926700
H1171	H117	0.359500	0.229400	0.078900
H1181	H118	0.482400	0.292100	0.077500
H1191	H119	0.274000	0.274700	0.002400
H1201	H120	0.233800	0.217700	0.033400
H1211	H121	0.460100	0.372600	0.999900
H1221	H122	0.543700	0.380400	0.029300
H1231	H123	0.171200	0.455600	0.074700
H1241	H124	0.171000	0.328500	0.077600
H1251	H125	0.234900	0.542300	0.026500
H1261	H126	0.275100	0.470200	0.998200
H1271	H127	0.481500	0.492400	0.073000
H1281	H128	0.358000	0.554100	0.071500
H1291	H129	0.205000	0.496800	0.191000
H1301	H130	0.329500	0.557400	0.191700
H1311	H131	0.319500	0.232000	0.185900
H1321	H132	0.199400	0.298800	0.188000
H1331	H133	0.516300	0.454600	0.189100
H1341	H134	0.513600	0.327300	0.186500
H1351	H135	0.226400	0.379400	0.264700
H1361	H136	0.143500	0.387600	0.235200
H1371	H137	0.419800	0.474000	0.265600
H1381	H138	0.459600	0.543300	0.236700
H1391	H139	0.451400	0.218600	0.230900
H1401	H140	0.415000	0.276200	0.262100
H1411	H141	0.431300	0.460500	0.393600
H1421	H142	0.473500	0.406300	0.343600
H1431	H143	0.668100	0.158100	0.376400
H1441	H144	0.624600	0.213300	0.426700
H1451	H145	0.640500	0.270600	0.578900
H1461	H146	0.517600	0.207900	0.577500
H1471	H147	0.726000	0.225300	0.502400
H1481	H148	0.766200	0.282300	0.533400
H1491	H149	0.539900	0.127400	0.499900
H1501	H150	0.456300	0.119600	0.529300
H1511	H151	0.828800	0.044400	0.574700
H1521	H152	0.829000	0.171500	0.577600
H1531	H153	0.765100	0.957700	0.526500
H1541	H154	0.724900	0.029800	0.498200
H1551	H155	0.518500	0.007600	0.573000
H1561	H156	0.642000	0.945900	0.571500
H1571	H157	0.795000	0.003200	0.691000
H1581	H158	0.670500	0.942600	0.691700
H1591	H159	0.680500	0.268000	0.685900
H1601	H160	0.800600	0.201200	0.688000
H1611	H161	0.483700	0.045400	0.689100
H1621	H162	0.486400	0.172700	0.686500
H1631	H163	0.773600	0.120600	0.764700
H1641	H164	0.856500	0.112400	0.735200
H1651	H165	0.580200	0.026000	0.765600
H1661	H166	0.540400	0.956700	0.736700
H1671	H167	0.548600	0.281400	0.730900
H1681	H168	0.585000	0.223800	0.762100
H1691	H169	0.068700	0.960500	0.606400
H1701	H170	0.026500	0.906300	0.656400
H1711	H171	0.831900	0.658100	0.623600
H1721	H172	0.875400	0.713300	0.573300
H1731	H173	0.859500	0.770600	0.421100
H1741	H174	0.982400	0.707900	0.422500
H1751	H175	0.774000	0.725300	0.497600
H1761	H176	0.733800	0.782300	0.466600
H1771	H177	0.960100	0.627400	0.500100
H1781	H178	0.043700	0.619600	0.470700
H1791	H179	0.671200	0.544400	0.425300
H1801	H180	0.671000	0.671500	0.422400
H1811	H181	0.734900	0.457700	0.473500
H1821	H182	0.775100	0.529800	0.501800
H1831	H183	0.981500	0.507600	0.427000
H1841	H184	0.858000	0.445900	0.428500
H1851	H185	0.705000	0.503200	0.309000
H1861	H186	0.829500	0.442600	0.308300
H1871	H187	0.819500	0.768000	0.314100
H1881	H188	0.699400	0.701200	0.312000
H1891	H189	0.016300	0.545400	0.310900
H1901	H190	0.013600	0.672700	0.313500
H1911	H191	0.726400	0.620600	0.235300
H1921	H192	0.643500	0.612400	0.264800
H1931	H193	0.919800	0.526000	0.234400
H1941	H194	0.959600	0.456700	0.263300
H1951	H195	0.951400	0.781400	0.269100
H1961	H196	0.915000	0.723800	0.237900
H1971	H197	0.931300	0.539500	0.106400
H1981	H198	0.973500	0.593700	0.156400
H1991	H199	0.168100	0.841900	0.123600
H2001	H200	0.124600	0.786700	0.073300
H2011	H201	0.140500	0.729400	0.921100
H2021	H202	0.017600	0.792100	0.922500
H2031	H203	0.226000	0.774700	0.997600
H2041	H204	0.266200	0.717700	0.966600
H2051	H205	0.039900	0.872600	0.000100
H2061	H206	0.956300	0.880400	0.970700
H2071	H207	0.328800	0.955600	0.925300
H2081	H208	0.329000	0.828500	0.922400
H2091	H209	0.265100	0.042300	0.973500
H2101	H210	0.224900	0.970200	0.001800
H2111	H211	0.018500	0.992400	0.927000
H2121	H212	0.142000	0.054100	0.928500
H2131	H213	0.295000	0.996800	0.809000
H2141	H214	0.170500	0.057400	0.808300
H2151	H215	0.180500	0.732000	0.814100
H2161	H216	0.300600	0.798800	0.812000
H2171	H217	0.983700	0.954600	0.810900
H2181	H218	0.986400	0.827300	0.813500
H2191	H219	0.273600	0.879400	0.735300
H2201	H220	0.356500	0.887600	0.764800
H2211	H221	0.080200	0.974000	0.734400
H2221	H222	0.040400	0.043300	0.763300
H2231	H223	0.048600	0.718600	0.769100
H2241	H224	0.085000	0.776200	0.737900
C11	C1	0.502800	0.882500	0.051640
C21	C2	0.524900	0.845000	0.084470
C31	C3	0.480100	0.900100	0.109650
C41	C4	0.505300	0.868200	0.139580
C51	C5	0.578000	0.779700	0.144470
C61	C6	0.621600	0.719800	0.120040
C71	C7	0.595100	0.753000	0.090030
C81	C8	0.600000	0.708100	0.930020
C91	C9	0.725300	0.719200	0.975070
C101	C10	0.539500	0.621700	0.977560
C111	C11	0.787200	0.610100	0.931550
C121	C12	0.724400	0.524500	0.979300
C131	C13	0.600800	0.512200	0.934480
C141	C14	0.712300	0.508000	0.801790
C151	C15	0.717600	0.704100	0.804980
C161	C16	0.526600	0.610300	0.804370
C171	C17	0.773400	0.615600	0.757830
C181	C18	0.582900	0.522000	0.756900
C191	C19	0.587600	0.717700	0.760410
C201	C20	0.497200	0.617500	0.551640
C211	C21	0.475100	0.655000	0.584470
C221	C22	0.519900	0.599900	0.609650
C231	C23	0.494700	0.631800	0.639580
C241	C24	0.422000	0.720300	0.644470
C251	C25	0.378400	0.780200	0.620040
C261	C26	0.404900	0.747000	0.590030
C271	C27	0.400000	0.791900	0.430020
C281	C28	0.274700	0.780800	0.475070
C291	C29	0.460500	0.878300	0.477560
C301	C30	0.212800	0.889900	0.431550
C311	C31	0.275600	0.975500	0.479300
C321	C32	0.399200	0.987800	0.434480
C331	C33	0.287700	0.992000	0.301790
C341	C34	0.282400	0.795900	0.304980
C351	C35	0.473400	0.889700	0.304370
C361	C36	0.226600	0.884400	0.257830
C371	C37	0.417100	0.978000	0.256900
C381	C38	0.412400	0.782300	0.260410
C391	C39	0.002800	0.117500	0.448360
C401	C40	0.024900	0.155000	0.415530
C411	C41	0.980100	0.099900	0.390350
C421	C42	0.005300	0.131800	0.360420
C431	C43	0.078000	0.220300	0.355530
C441	C44	0.121600	0.280200	0.379960
C451	C45	0.095100	0.247000	0.409970
C461	C46	0.100000	0.291900	0.569980
C471	C47	0.225300	0.280800	0.524930
C481	C48	0.039500	0.378300	0.522440
C491	C49	0.287200	0.389900	0.568450
C501	C50	0.224400	0.475500	0.520700
C511	C51	0.100800	0.487800	0.565520
C521	C52	0.212300	0.492000	0.698210
C531	C53	0.217600	0.295900	0.695020
C541	C54	0.026600	0.389700	0.695630
C551	C55	0.273400	0.384400	0.742170
C561	C56	0.082900	0.478000	0.743100
C571	C57	0.087600	0.282300	0.739590
C581	C58	0.997200	0.382500	0.948360
C591	C59	0.975100	0.345000	0.915530
C601	C60	0.019900	0.400100	0.890350
C611	C61	0.994700	0.368200	0.860420
C621	C62	0.922000	0.279700	0.855530
C631	C63	0.878400	0.219800	0.879960
C641	C64	0.904900	0.253000	0.909970
C651	C65	0.900000	0.208100	0.069980
C661	C66	0.774700	0.219200	0.024930
C671	C67	0.960500	0.121700	0.022440
C681	C68	0.712800	0.110100	0.068450
C691	C69	0.775600	0.024500	0.020700
C701	C70	0.899200	0.012200	0.065520
C711	C71	0.787700	0.008000	0.198210
C721	C72	0.782400	0.204100	0.195020
C731	C73	0.973400	0.110300	0.195630
C741	C74	0.726600	0.115600	0.242170
C751	C75	0.917100	0.022000	0.243100
C761	C76	0.912400	0.217700	0.239590
C771	C77	0.497200	0.117500	0.948360
C781	C78	0.475100	0.155000	0.915530
C791	C79	0.519900	0.099900	0.890350
C801	C80	0.494700	0.131800	0.860420
C811	C81	0.422000	0.220300	0.855530
C821	C82	0.378400	0.280200	0.879960
C831	C83	0.404900	0.247000	0.909970
C841	C84	0.400000	0.291900	0.069980
C851	C85	0.274700	0.280800	0.024930
C861	C86	0.460500	0.378300	0.022440
C871	C87	0.212800	0.389900	0.068450
C881	C88	0.275600	0.475500	0.020700
C891	C89	0.399200	0.487800	0.065520
C901	C90	0.287700	0.492000	0.198210
C911	C91	0.282400	0.295900	0.195020
C921	C92	0.473400	0.389700	0.195630
C931	C93	0.226600	0.384400	0.242170
C941	C94	0.417100	0.478000	0.243100
C951	C95	0.412400	0.282300	0.239590
C961	C96	0.502800	0.382500	0.448360
C971	C97	0.524900	0.345000	0.415530
C981	C98	0.480100	0.400100	0.390350
C991	C99	0.505300	0.368200	0.360420
C1001	C100	0.578000	0.279700	0.355530
C1011	C101	0.621600	0.219800	0.379960
C1021	C102	0.595100	0.253000	0.409970
C1031	C103	0.600000	0.208100	0.569980
C1041	C104	0.725300	0.219200	0.524930
C1051	C105	0.539500	0.121700	0.522440
C1061	C106	0.787200	0.110100	0.568450
C1071	C107	0.724400	0.024500	0.520700
C1081	C108	0.600800	0.012200	0.565520
C1091	C109	0.712300	0.008000	0.698210
C1101	C110	0.717600	0.204100	0.695020
C1111	C111	0.526600	0.110300	0.695630
C1121	C112	0.773400	0.115600	0.742170
C1131	C113	0.582900	0.022000	0.743100
C1141	C114	0.587600	0.217700	0.739590
C1151	C115	0.997200	0.882500	0.551640
C1161	C116	0.975100	0.845000	0.584470
C1171	C117	0.019900	0.900100	0.609650
C1181	C118	0.994700	0.868200	0.639580
C1191	C119	0.922000	0.779700	0.644470
C1201	C120	0.878400	0.719800	0.620040
C1211	C121	0.904900	0.753000	0.590030
C1221	C122	0.900000	0.708100	0.430020
C1231	C123	0.774700	0.719200	0.475070
C1241	C124	0.960500	0.621700	0.477560
C1251	C125	0.712800	0.610100	0.431550
C1261	C126	0.775600	0.524500	0.479300
C1271	C127	0.899200	0.512200	0.434480
C1281	C128	0.787700	0.508000	0.301790
C1291	C129	0.782400	0.704100	0.304980
C1301	C130	0.973400	0.610300	0.304370
C1311	C131	0.726600	0.615600	0.257830
C1321	C132	0.917100	0.522000	0.256900
C1331	C133	0.912400	0.717700	0.260410
C1341	C134	0.002800	0.617500	0.051640
C1351	C135	0.024900	0.655000	0.084470
C1361	C136	0.980100	0.599900	0.109650
C1371	C137	0.005300	0.631800	0.139580
C1381	C138	0.078000	0.720300	0.144470
C1391	C139	0.121600	0.780200	0.120040
C1401	C140	0.095100	0.747000	0.090030
C1411	C141	0.100000	0.791900	0.930020
C1421	C142	0.225300	0.780800	0.975070
C1431	C143	0.039500	0.878300	0.977560
C1441	C144	0.287200	0.889900	0.931550
C1451	C145	0.224400	0.975500	0.979300
C1461	C146	0.100800	0.987800	0.934480
C1471	C147	0.212300	0.992000	0.801790
C1481	C148	0.217600	0.795900	0.804980
C1491	C149	0.026600	0.889700	0.804370
C1501	C150	0.273400	0.884400	0.757830
C1511	C151	0.082900	0.978000	0.756900
C1521	C152	0.087600	0.782300	0.760410
S11	S1	0.612710	0.738500	0.183130
S21	S2	0.387290	0.761500	0.683130
S31	S3	0.112710	0.261500	0.316870
S41	S4	0.887290	0.238500	0.816870
S51	S5	0.387290	0.261500	0.816870
S61	S6	0.612710	0.238500	0.316870
S71	S7	0.887290	0.738500	0.683130
S81	S8	0.112710	0.761500	0.183130
N11	N1	0.599700	0.717900	0.964030
N21	N2	0.661600	0.606900	0.919580
N31	N3	0.791200	0.619700	0.965780
N41	N4	0.600200	0.521100	0.968250
N51	N5	0.653000	0.605300	0.815980
N61	N6	0.715400	0.713700	0.770930
N71	N7	0.710600	0.515400	0.767340
N81	N8	0.522100	0.618700	0.770290
N91	N9	0.400300	0.782100	0.464030
N101	N10	0.338400	0.893100	0.419580
N111	N11	0.208800	0.880300	0.465780
N121	N12	0.399800	0.978900	0.468250
N131	N13	0.347000	0.894700	0.315980
N141	N14	0.284600	0.786300	0.270930
N151	N15	0.289400	0.984600	0.267340
N161	N16	0.477900	0.881300	0.270290
N171	N17	0.099700	0.282100	0.535970
N181	N18	0.161600	0.393100	0.580420
N191	N19	0.291200	0.380300	0.534220
N201	N20	0.100200	0.478900	0.531750
N211	N21	0.153000	0.394700	0.684020
N221	N22	0.215400	0.286300	0.729070
N231	N23	0.210600	0.484600	0.732660
N241	N24	0.022100	0.381300	0.729710
N251	N25	0.900300	0.217900	0.035970
N261	N26	0.838400	0.106900	0.080420
N271	N27	0.708800	0.119700	0.034220
N281	N28	0.899800	0.021100	0.031750
N291	N29	0.847000	0.105300	0.184020
N301	N30	0.784600	0.213700	0.229070
N311	N31	0.789400	0.015400	0.232660
N321	N32	0.977900	0.118700	0.229710
N331	N33	0.400300	0.282100	0.035970
N341	N34	0.338400	0.393100	0.080420
N351	N35	0.208800	0.380300	0.034220
N361	N36	0.399800	0.478900	0.031750
N371	N37	0.347000	0.394700	0.184020
N381	N38	0.284600	0.286300	0.229070
N391	N39	0.289400	0.484600	0.232660
N401	N40	0.477900	0.381300	0.229710
N411	N41	0.599700	0.217900	0.535970
N421	N42	0.661600	0.106900	0.580420
N431	N43	0.791200	0.119700	0.534220
N441	N44	0.600200	0.021100	0.531750
N451	N45	0.653000	0.105300	0.684020
N461	N46	0.715400	0.213700	0.729070
N471	N47	0.710600	0.015400	0.732660
N481	N48	0.522100	0.118700	0.729710
N491	N49	0.900300	0.717900	0.464030
N501	N50	0.838400	0.606900	0.419580
N511	N51	0.708800	0.619700	0.465780
N521	N52	0.899800	0.521100	0.468250
N531	N53	0.847000	0.605300	0.315980
N541	N54	0.784600	0.713700	0.270930
N551	N55	0.789400	0.515400	0.267340
N561	N56	0.977900	0.618700	0.270290
N571	N57	0.099700	0.782100	0.964030
N581	N58	0.161600	0.893100	0.919580
N591	N59	0.291200	0.880300	0.965780
N601	N60	0.100200	0.978900	0.968250
N611	N61	0.153000	0.894700	0.815980
N621	N62	0.215400	0.786300	0.770930
N631	N63	0.210600	0.984600	0.767340
N641	N64	0.022100	0.881300	0.770290
O11	O1	0.553100	0.831000	0.030140
O21	O2	0.438300	0.965900	0.048210
O31	O3	0.585800	0.831100	0.202820
O41	O4	0.739500	0.709800	0.183100
O51	O5	0.536900	0.645800	0.189690
O61	O6	0.446900	0.669000	0.530140
O71	O7	0.561700	0.534100	0.548210
O81	O8	0.414200	0.668900	0.702820
O91	O9	0.260500	0.790200	0.683100
O101	O10	0.463100	0.854200	0.689690
O111	O11	0.053100	0.169000	0.469860
O121	O12	0.938300	0.034100	0.451790
O131	O13	0.085800	0.168900	0.297180
O141	O14	0.239500	0.290200	0.316900
O151	O15	0.036900	0.354200	0.310310
O161	O16	0.946900	0.331000	0.969860
O171	O17	0.061700	0.465900	0.951790
O181	O18	0.914200	0.331100	0.797180
O191	O19	0.760500	0.209800	0.816900
O201	O20	0.963100	0.145800	0.810310
O211	O21	0.446900	0.169000	0.969860
O221	O22	0.561700	0.034100	0.951790
O231	O23	0.414200	0.168900	0.797180
O241	O24	0.260500	0.290200	0.816900
O251	O25	0.463100	0.354200	0.810310
O261	O26	0.553100	0.331000	0.469860
O271	O27	0.438300	0.465900	0.451790
O281	O28	0.585800	0.331100	0.297180
O291	O29	0.739500	0.209800	0.316900
O301	O30	0.536900	0.145800	0.310310
O311	O31	0.946900	0.831000	0.530140
O321	O32	0.061700	0.965900	0.548210
O331	O33	0.914200	0.831100	0.702820
O341	O34	0.760500	0.709800	0.683100
O351	O35	0.963100	0.645800	0.689690
O361	O36	0.053100	0.669000	0.030140
O371	O37	0.938300	0.534100	0.048210
O381	O38	0.085800	0.668900	0.202820
O391	O39	0.239500	0.790200	0.183100
O401	O40	0.036900	0.854200	0.189690
