data_YAHPED_freeONLY_PM
_symmetry_space_group_name_H-M	'P1'
_cell_length_a	11.248000
_cell_length_b	14.945000
_cell_length_c	16.801000
_cell_angle_alpha	90.000000
_cell_angle_beta	90.000000
_cell_angle_gamma	103.732000
_symmetry_Int_Tables_number 1

loop_
_symmetry_equiv_pos_as_xyz
'x,y,z'

loop_
_atom_site_label
_atom_site_type_symbol
_atom_site_fract_x
_atom_site_fract_y
_atom_site_fract_z
Ni11	Ni1	0.014580	0.867090	0.040100
Ni21	Ni2	0.985420	0.632910	0.540100
Ni31	Ni3	0.985420	0.132910	0.959900
Ni41	Ni4	0.014580	0.367090	0.459900
H11	H1	0.969200	0.340400	0.041200
H21	H2	0.827200	0.922800	0.145900
H31	H3	0.788400	0.790000	0.942300
H41	H4	0.625700	0.932700	0.144100
H51	H5	0.583800	0.796600	0.935100
H61	H6	0.448400	0.938000	0.141800
H71	H7	0.406500	0.811200	0.929400
H81	H8	0.243800	0.940300	0.137100
H91	H9	0.200700	0.814000	0.933500
H101	H10	0.009100	0.562900	0.072200
H111	H11	0.001300	0.696900	0.281200
H121	H12	0.050400	0.436700	0.281300
H131	H13	0.030800	0.159600	0.541200
H141	H14	0.172800	0.577200	0.645900
H151	H15	0.211600	0.710000	0.442300
H161	H16	0.374300	0.567300	0.644100
H171	H17	0.416200	0.703400	0.435100
H181	H18	0.551600	0.562000	0.641800
H191	H19	0.593500	0.688800	0.429400
H201	H20	0.756200	0.559700	0.637100
H211	H21	0.799300	0.686000	0.433500
H221	H22	0.990900	0.937100	0.572200
H231	H23	0.998700	0.803100	0.781200
H241	H24	0.949600	0.063300	0.781300
H251	H25	0.030800	0.659600	0.958800
H261	H26	0.172800	0.077200	0.854100
H271	H27	0.211600	0.210000	0.057700
H281	H28	0.374300	0.067300	0.855900
H291	H29	0.416200	0.203400	0.064900
H301	H30	0.551600	0.062000	0.858200
H311	H31	0.593500	0.188800	0.070600
H321	H32	0.756200	0.059700	0.862900
H331	H33	0.799300	0.186000	0.066500
H341	H34	0.990900	0.437100	0.927800
H351	H35	0.998700	0.303100	0.718800
H361	H36	0.949600	0.563300	0.718700
H371	H37	0.969200	0.840400	0.458800
H381	H38	0.827200	0.422800	0.354100
H391	H39	0.788400	0.290000	0.557700
H401	H40	0.625700	0.432700	0.355900
H411	H41	0.583800	0.296600	0.564900
H421	H42	0.448400	0.438000	0.358200
H431	H43	0.406500	0.311200	0.570600
H441	H44	0.243800	0.440300	0.362900
H451	H45	0.200700	0.314000	0.566500
H461	H46	0.009100	0.062900	0.427800
H471	H47	0.001300	0.196900	0.218800
H481	H48	0.050400	0.936700	0.218700
C11	C1	0.777300	0.897400	0.102000
C21	C2	0.755100	0.820100	0.983600
C31	C3	0.657300	0.903700	0.101400
C41	C4	0.632600	0.823900	0.978800
C51	C5	0.583000	0.867200	0.037800
C61	C6	0.451200	0.871400	0.037200
C71	C7	0.399900	0.911100	0.097700
C81	C8	0.375200	0.836800	0.974200
C91	C9	0.276500	0.911900	0.094500
C101	C10	0.251500	0.839600	0.976900
C111	C11	0.022000	0.562100	0.384000
C121	C12	0.007900	0.643300	0.169100
C131	C13	0.014400	0.564200	0.128700
C141	C14	0.009500	0.643800	0.252700
C151	C15	0.028600	0.486100	0.169600
C161	C16	0.023100	0.565900	0.293100
C171	C17	0.036300	0.488100	0.252900
C181	C18	0.037800	0.401700	0.126600
C191	C19	0.000000	0.727000	0.123500
C201	C20	0.222700	0.602600	0.602000
C211	C21	0.244900	0.679900	0.483600
C221	C22	0.342700	0.596300	0.601400
C231	C23	0.367400	0.676100	0.478800
C241	C24	0.417000	0.632800	0.537800
C251	C25	0.548800	0.628600	0.537200
C261	C26	0.600100	0.588900	0.597700
C271	C27	0.624800	0.663200	0.474200
C281	C28	0.723500	0.588100	0.594500
C291	C29	0.748500	0.660400	0.476900
C301	C30	0.978000	0.937900	0.884000
C311	C31	0.992100	0.856700	0.669100
C321	C32	0.985600	0.935800	0.628700
C331	C33	0.990500	0.856200	0.752700
C341	C34	0.971400	0.013900	0.669600
C351	C35	0.976900	0.934100	0.793100
C361	C36	0.963700	0.011900	0.752900
C371	C37	0.962200	0.098300	0.626600
C381	C38	0.000000	0.773000	0.623500
C391	C39	0.222700	0.102600	0.898000
C401	C40	0.244900	0.179900	0.016400
C411	C41	0.342700	0.096300	0.898600
C421	C42	0.367400	0.176100	0.021200
C431	C43	0.417000	0.132800	0.962200
C441	C44	0.548800	0.128600	0.962800
C451	C45	0.600100	0.088900	0.902300
C461	C46	0.624800	0.163200	0.025800
C471	C47	0.723500	0.088100	0.905500
C481	C48	0.748500	0.160400	0.023100
C491	C49	0.978000	0.437900	0.616000
C501	C50	0.992100	0.356700	0.830900
C511	C51	0.985600	0.435800	0.871300
C521	C52	0.990500	0.356200	0.747300
C531	C53	0.971400	0.513900	0.830400
C541	C54	0.976900	0.434100	0.706900
C551	C55	0.963700	0.511900	0.747100
C561	C56	0.962200	0.598300	0.873400
C571	C57	0.000000	0.273000	0.876500
C581	C58	0.777300	0.397400	0.398000
C591	C59	0.755100	0.320100	0.516400
C601	C60	0.657300	0.403700	0.398600
C611	C61	0.632600	0.323900	0.521200
C621	C62	0.583000	0.367200	0.462200
C631	C63	0.451200	0.371400	0.462800
C641	C64	0.399900	0.411100	0.402300
C651	C65	0.375200	0.336800	0.525800
C661	C66	0.276500	0.411900	0.405500
C671	C67	0.251500	0.339600	0.523100
C681	C68	0.022000	0.062100	0.116000
C691	C69	0.007900	0.143300	0.330900
C701	C70	0.014400	0.064200	0.371300
C711	C71	0.009500	0.143800	0.247300
C721	C72	0.028600	0.986100	0.330400
C731	C73	0.023100	0.065900	0.206900
C741	C74	0.036300	0.988100	0.247100
C751	C75	0.037800	0.901700	0.373400
C761	C76	0.000000	0.227000	0.376500
N11	N1	0.827400	0.857300	0.044000
N21	N2	0.201500	0.875500	0.035800
N31	N3	0.172600	0.642700	0.544000
N41	N4	0.798500	0.624500	0.535800
N51	N5	0.172600	0.142700	0.956000
N61	N6	0.798500	0.124500	0.964200
N71	N7	0.827400	0.357300	0.456000
N81	N8	0.201500	0.375500	0.464200
O11	O1	0.009100	0.802100	0.157300
O21	O2	0.987200	0.722500	0.047300
O31	O3	0.985200	0.623700	0.420300
O41	O4	0.056600	0.496600	0.415300
O51	O5	0.091800	0.347200	0.150600
O61	O6	0.976900	0.393800	0.059400
O71	O7	0.990900	0.697900	0.657300
O81	O8	0.012800	0.777500	0.547300
O91	O9	0.014800	0.876300	0.920300
O101	O10	0.943400	0.003400	0.915300
O111	O11	0.908200	0.152800	0.650600
O121	O12	0.023100	0.106200	0.559400
O131	O13	0.990900	0.197900	0.842700
O141	O14	0.012800	0.277500	0.952700
O151	O15	0.014800	0.376300	0.579700
O161	O16	0.943400	0.503400	0.584700
O171	O17	0.908200	0.652800	0.849400
O181	O18	0.023100	0.606200	0.940600
O191	O19	0.009100	0.302100	0.342700
O201	O20	0.987200	0.222500	0.452700
O211	O21	0.985200	0.123700	0.079700
O221	O22	0.056600	0.996600	0.084700
O231	O23	0.091800	0.847200	0.349400
O241	O24	0.976900	0.893800	0.440600
