data_YANBAR_freeONLY_PM
_symmetry_space_group_name_H-M	'P1'
_cell_length_a	10.011700
_cell_length_b	11.345700
_cell_length_c	14.820000
_cell_angle_alpha	91.372000
_cell_angle_beta	90.000000
_cell_angle_gamma	90.000000
_symmetry_Int_Tables_number 1

loop_
_symmetry_equiv_pos_as_xyz
'x,y,z'

loop_
_atom_site_label
_atom_site_type_symbol
_atom_site_fract_x
_atom_site_fract_y
_atom_site_fract_z
Co11	Co1	0.572370	0.754910	0.634080
Co21	Co2	0.377370	0.739450	0.804620
Co31	Co3	0.072370	0.745090	0.865920
Co41	Co4	0.877370	0.760550	0.695380
Co51	Co5	0.427630	0.245090	0.365920
Co61	Co6	0.622630	0.260550	0.195380
Co71	Co7	0.927630	0.254910	0.134080
Co81	Co8	0.122630	0.239450	0.304620
Co91	Co9	0.500000	0.500000	0.500000
Co101	Co10	0.000000	0.000000	0.000000
Co111	Co11	0.500000	0.000000	0.500000
Co121	Co12	0.000000	0.500000	0.000000
H11	H1	0.350900	0.696500	0.426900
H21	H2	0.447700	0.477200	0.756600
H31	H3	0.871400	0.559000	0.551100
H41	H4	0.279200	0.964000	0.712500
H51	H5	0.783000	0.002800	0.531700
H61	H6	0.725200	0.846600	0.870100
H71	H7	0.850900	0.803500	0.073100
H81	H8	0.947700	0.022800	0.743400
H91	H9	0.371400	0.941000	0.948900
H101	H10	0.779200	0.536000	0.787500
H111	H11	0.283000	0.497200	0.968300
H121	H12	0.225200	0.653400	0.629900
H131	H13	0.649100	0.303500	0.573100
H141	H14	0.552300	0.522800	0.243400
H151	H15	0.128600	0.441000	0.448900
H161	H16	0.720800	0.036000	0.287500
H171	H17	0.217000	0.997200	0.468300
H181	H18	0.274800	0.153400	0.129900
H191	H19	0.149100	0.196500	0.926900
H201	H20	0.052300	0.977200	0.256600
H211	H21	0.628600	0.059000	0.051100
H221	H22	0.220800	0.464000	0.212500
H231	H23	0.717000	0.502800	0.031700
H241	H24	0.774800	0.346600	0.370100
C11	C1	0.405000	0.741400	0.465500
C21	C2	0.472100	0.517900	0.705400
C31	C3	0.780900	0.576300	0.556100
C41	C4	0.348800	0.941700	0.674200
C51	C5	0.766500	0.937600	0.567000
C61	C6	0.657400	0.821200	0.831400
C71	C7	0.905000	0.758600	0.034500
C81	C8	0.972100	0.982100	0.794600
C91	C9	0.280900	0.923700	0.943900
C101	C10	0.848800	0.558300	0.825800
C111	C11	0.266500	0.562400	0.933000
C121	C12	0.157400	0.678800	0.668600
C131	C13	0.595000	0.258600	0.534500
C141	C14	0.527900	0.482100	0.294600
C151	C15	0.219100	0.423700	0.443900
C161	C16	0.651200	0.058300	0.325800
C171	C17	0.233500	0.062400	0.433000
C181	C18	0.342600	0.178800	0.168600
C191	C19	0.095000	0.241400	0.965500
C201	C20	0.027900	0.017900	0.205400
C211	C21	0.719100	0.076300	0.056100
C221	C22	0.151200	0.441700	0.174200
C231	C23	0.733500	0.437600	0.067000
C241	C24	0.842600	0.321200	0.331400
O11	O1	0.473500	0.685700	0.522900
O21	O2	0.403300	0.848200	0.456100
O31	O3	0.490100	0.458700	0.636200
O41	O4	0.483300	0.628400	0.714600
O51	O5	0.705100	0.518700	0.506700
O61	O6	0.749000	0.656800	0.613200
O71	O7	0.372300	0.006600	0.610800
O81	O8	0.410000	0.847600	0.692400
O91	O9	0.647500	0.901600	0.568800
O101	O10	0.863800	0.896400	0.606600
O111	O11	0.688400	0.805100	0.748800
O121	O12	0.546000	0.806400	0.865300
O131	O13	0.973500	0.814300	0.977100
O141	O14	0.903300	0.651800	0.043900
O151	O15	0.990100	0.041300	0.863800
O161	O16	0.983300	0.871600	0.785400
O171	O17	0.205100	0.981300	0.993300
O181	O18	0.249000	0.843200	0.886800
O191	O19	0.872300	0.493400	0.889200
O201	O20	0.910000	0.652400	0.807600
O211	O21	0.147500	0.598400	0.931200
O221	O22	0.363800	0.603600	0.893400
O231	O23	0.188400	0.694900	0.751200
O241	O24	0.046000	0.693600	0.634700
O251	O25	0.526500	0.314300	0.477100
O261	O26	0.596700	0.151800	0.543900
O271	O27	0.509900	0.541300	0.363800
O281	O28	0.516700	0.371600	0.285400
O291	O29	0.294900	0.481300	0.493300
O301	O30	0.251000	0.343200	0.386800
O311	O31	0.627700	0.993400	0.389200
O321	O32	0.590000	0.152400	0.307600
O331	O33	0.352500	0.098400	0.431200
O341	O34	0.136200	0.103600	0.393400
O351	O35	0.311600	0.194900	0.251200
O361	O36	0.454000	0.193600	0.134700
O371	O37	0.026500	0.185700	0.022900
O381	O38	0.096700	0.348200	0.956100
O391	O39	0.009900	0.958700	0.136200
O401	O40	0.016700	0.128400	0.214600
O411	O41	0.794900	0.018700	0.006700
O421	O42	0.751000	0.156800	0.113200
O431	O43	0.127700	0.506600	0.110800
O441	O44	0.090000	0.347600	0.192400
O451	O45	0.852500	0.401600	0.068800
O461	O46	0.636200	0.396400	0.106600
O471	O47	0.811600	0.305100	0.248800
O481	O48	0.954000	0.306400	0.365300
