data_YANBAR02_freeONLY_PM
_symmetry_space_group_name_H-M	'P1'
_cell_length_a	10.076000
_cell_length_b	11.418000
_cell_length_c	14.908000
_cell_angle_alpha	91.420000
_cell_angle_beta	90.000000
_cell_angle_gamma	90.000000
_symmetry_Int_Tables_number 1

loop_
_symmetry_equiv_pos_as_xyz
'x,y,z'

loop_
_atom_site_label
_atom_site_type_symbol
_atom_site_fract_x
_atom_site_fract_y
_atom_site_fract_z
Co11	Co1	0.877540	0.739470	0.304750
Co21	Co2	0.072540	0.754920	0.134030
Co31	Co3	0.377540	0.760530	0.195250
Co41	Co4	0.572540	0.745080	0.365970
Co51	Co5	0.122460	0.260530	0.695250
Co61	Co6	0.927460	0.245080	0.865970
Co71	Co7	0.622460	0.239470	0.804750
Co81	Co8	0.427460	0.254920	0.634030
Co91	Co9	0.000000	0.000000	0.000000
Co101	Co10	0.500000	0.500000	0.500000
Co111	Co11	0.000000	0.500000	0.000000
Co121	Co12	0.500000	0.000000	0.500000
H11	H1	0.779100	0.964100	0.212000
H21	H2	0.850600	0.696600	0.926500
H31	H3	0.949200	0.477100	0.257000
H41	H4	0.782700	0.495700	0.466900
H51	H5	0.725400	0.653600	0.130000
H61	H6	0.871600	0.940700	0.449100
H71	H7	0.279100	0.535900	0.288000
H81	H8	0.350600	0.803400	0.573500
H91	H9	0.449200	0.022900	0.243000
H101	H10	0.282700	0.004300	0.033100
H111	H11	0.225400	0.846400	0.370000
H121	H12	0.371600	0.559300	0.050900
H131	H13	0.220900	0.035900	0.788000
H141	H14	0.149400	0.303400	0.073500
H151	H15	0.050800	0.522900	0.743000
H161	H16	0.217300	0.504300	0.533100
H171	H17	0.274600	0.346400	0.870000
H181	H18	0.128400	0.059300	0.550900
H191	H19	0.720900	0.464100	0.712000
H201	H20	0.649400	0.196600	0.426500
H211	H21	0.550800	0.977100	0.757000
H221	H22	0.717300	0.995700	0.966900
H231	H23	0.774600	0.153600	0.630000
H241	H24	0.628400	0.440700	0.949100
C11	C1	0.848500	0.941800	0.174100
C21	C2	0.904300	0.741100	0.964900
C31	C3	0.972600	0.517600	0.206000
C41	C4	0.766400	0.561100	0.432600
C51	C5	0.657900	0.678800	0.168400
C61	C6	0.781600	0.923400	0.444100
C71	C7	0.348500	0.558200	0.325900
C81	C8	0.404300	0.758900	0.535100
C91	C9	0.472600	0.982400	0.294000
C101	C10	0.266400	0.938900	0.067400
C111	C11	0.157900	0.821200	0.331600
C121	C12	0.281600	0.576600	0.055900
C131	C13	0.151500	0.058200	0.825900
C141	C14	0.095700	0.258900	0.035100
C151	C15	0.027400	0.482400	0.794000
C161	C16	0.233600	0.438900	0.567400
C171	C17	0.342100	0.321200	0.831600
C181	C18	0.218400	0.076600	0.555900
C191	C19	0.651500	0.441800	0.674100
C201	C20	0.595700	0.241100	0.464900
C211	C21	0.527400	0.017600	0.706000
C221	C22	0.733600	0.061100	0.932600
C231	C23	0.842100	0.178800	0.668400
C241	C24	0.718400	0.423400	0.944100
O11	O1	0.872500	0.006300	0.110590
O21	O2	0.910100	0.847490	0.192670
O31	O3	0.903100	0.848450	0.955870
O41	O4	0.973300	0.685100	0.022990
O51	O5	0.989900	0.458500	0.136350
O61	O6	0.983500	0.628690	0.214820
O71	O7	0.863500	0.603400	0.392960
O81	O8	0.647200	0.598200	0.431020
O91	O9	0.688000	0.695020	0.251110
O101	O10	0.546500	0.693900	0.134540
O111	O11	0.749200	0.843040	0.387080
O121	O12	0.704800	0.980880	0.493830
O131	O13	0.372500	0.493700	0.389410
O141	O14	0.410100	0.652510	0.307330
O151	O15	0.403100	0.651550	0.544130
O161	O16	0.473300	0.814900	0.477010
O171	O17	0.489900	0.041500	0.363650
O181	O18	0.483500	0.871310	0.285180
O191	O19	0.363500	0.896600	0.107040
O201	O20	0.147200	0.901800	0.068980
O211	O21	0.188000	0.804980	0.248890
O221	O22	0.046500	0.806100	0.365460
O231	O23	0.249200	0.656960	0.112920
O241	O24	0.204800	0.519120	0.006170
O251	O25	0.127500	0.993700	0.889410
O261	O26	0.089900	0.152510	0.807330
O271	O27	0.096900	0.151550	0.044130
O281	O28	0.026700	0.314900	0.977010
O291	O29	0.010100	0.541500	0.863650
O301	O30	0.016500	0.371310	0.785180
O311	O31	0.136500	0.396600	0.607040
O321	O32	0.352800	0.401800	0.568980
O331	O33	0.312000	0.304980	0.748890
O341	O34	0.453500	0.306100	0.865460
O351	O35	0.250800	0.156960	0.612920
O361	O36	0.295200	0.019120	0.506170
O371	O37	0.627500	0.506300	0.610590
O381	O38	0.589900	0.347490	0.692670
O391	O39	0.596900	0.348450	0.455870
O401	O40	0.526700	0.185100	0.522990
O411	O41	0.510100	0.958500	0.636350
O421	O42	0.516500	0.128690	0.714820
O431	O43	0.636500	0.103400	0.892960
O441	O44	0.852800	0.098200	0.931020
O451	O45	0.812000	0.195020	0.751110
O461	O46	0.953500	0.193900	0.634540
O471	O47	0.750800	0.343040	0.887080
O481	O48	0.795200	0.480880	0.993830
