data_YARKEJ_freeONLY_PM
_symmetry_space_group_name_H-M	'P1'
_cell_length_a	12.099500
_cell_length_b	14.007700
_cell_length_c	14.007700
_cell_angle_alpha	97.546200
_cell_angle_beta	100.083000
_cell_angle_gamma	79.916800
_symmetry_Int_Tables_number 1

loop_
_symmetry_equiv_pos_as_xyz
'x,y,z'

loop_
_atom_site_label
_atom_site_type_symbol
_atom_site_fract_x
_atom_site_fract_y
_atom_site_fract_z
Zn11	Zn1	0.100650	0.230150	0.816090
Zn21	Zn2	0.399350	0.816090	0.230150
Zn31	Zn3	0.899350	0.769850	0.183910
Zn41	Zn4	0.600650	0.183910	0.769850
H11	H1	0.035800	0.338100	0.153300
H21	H2	0.944300	0.323300	0.281300
H31	H3	0.681900	0.241000	0.092600
H41	H4	0.877500	0.344500	0.769500
H51	H5	0.773700	0.439000	0.655400
H61	H6	0.004000	0.344400	0.482000
H71	H7	0.108400	0.255000	0.604000
H81	H8	0.835000	0.440300	0.416500
H91	H9	0.834200	0.530900	0.494500
H101	H10	0.342000	0.207300	0.910100
H111	H11	0.486100	0.296500	0.961100
H121	H12	0.281600	0.527200	0.859200
H131	H13	0.140600	0.434500	0.814500
H141	H14	0.480200	0.541100	0.911500
H151	H15	0.566900	0.446300	0.933300
H161	H16	0.464200	0.153300	0.338100
H171	H17	0.555700	0.281300	0.323300
H181	H18	0.818100	0.092600	0.241000
H191	H19	0.622500	0.769500	0.344500
H201	H20	0.726300	0.655400	0.439000
H211	H21	0.496000	0.482000	0.344400
H221	H22	0.391600	0.604000	0.255000
H231	H23	0.665000	0.416500	0.440300
H241	H24	0.665800	0.494500	0.530900
H251	H25	0.158000	0.910100	0.207300
H261	H26	0.013900	0.961100	0.296500
H271	H27	0.218400	0.859200	0.527200
H281	H28	0.359400	0.814500	0.434500
H291	H29	0.019800	0.911500	0.541100
H301	H30	0.933100	0.933300	0.446300
H311	H31	0.964200	0.661900	0.846700
H321	H32	0.055700	0.676700	0.718700
H331	H33	0.318100	0.759000	0.907400
H341	H34	0.122500	0.655500	0.230500
H351	H35	0.226300	0.561000	0.344600
H361	H36	0.996000	0.655600	0.518000
H371	H37	0.891600	0.745000	0.396000
H381	H38	0.165000	0.559700	0.583500
H391	H39	0.165800	0.469100	0.505500
H401	H40	0.658000	0.792700	0.089900
H411	H41	0.513900	0.703500	0.038900
H421	H42	0.718400	0.472800	0.140800
H431	H43	0.859400	0.565500	0.185500
H441	H44	0.519800	0.458900	0.088500
H451	H45	0.433100	0.553700	0.066700
H461	H46	0.535800	0.846700	0.661900
H471	H47	0.444300	0.718700	0.676700
H481	H48	0.181900	0.907400	0.759000
H491	H49	0.377500	0.230500	0.655500
H501	H50	0.273700	0.344600	0.561000
H511	H51	0.504000	0.518000	0.655600
H521	H52	0.608400	0.396000	0.745000
H531	H53	0.335000	0.583500	0.559700
H541	H54	0.334200	0.505500	0.469100
H551	H55	0.842000	0.089900	0.792700
H561	H56	0.986100	0.038900	0.703500
H571	H57	0.781600	0.140800	0.472800
H581	H58	0.640600	0.185500	0.565500
H591	H59	0.980200	0.088500	0.458900
H601	H60	0.066900	0.066700	0.553700
C11	C1	0.807800	0.268740	0.027060
C21	C2	0.914600	0.296200	0.045000
C31	C3	0.965100	0.317700	0.140700
C41	C4	0.910200	0.309000	0.217400
C51	C5	0.806000	0.279170	0.199030
C61	C6	0.753500	0.259980	0.104620
C71	C7	0.741800	0.261730	0.926470
C81	C8	0.981600	0.300900	0.965300
C91	C9	0.905400	0.345500	0.711900
C101	C10	0.841900	0.401400	0.642800
C111	C11	0.877200	0.402800	0.554800
C121	C12	0.977000	0.346900	0.540700
C131	C13	0.039600	0.292840	0.614760
C141	C14	0.811800	0.466800	0.478800
C151	C15	0.329100	0.272900	0.900100
C161	C16	0.416600	0.325900	0.929900
C171	C17	0.401100	0.423300	0.913300
C181	C18	0.296200	0.461900	0.870500
C191	C19	0.211500	0.405600	0.843600
C201	C20	0.495300	0.484300	0.947300
C211	C21	0.692200	0.027060	0.268740
C221	C22	0.585400	0.045000	0.296200
C231	C23	0.534900	0.140700	0.317700
C241	C24	0.589800	0.217400	0.309000
C251	C25	0.694000	0.199030	0.279170
C261	C26	0.746500	0.104620	0.259980
C271	C27	0.758200	0.926470	0.261730
C281	C28	0.518400	0.965300	0.300900
C291	C29	0.594600	0.711900	0.345500
C301	C30	0.658100	0.642800	0.401400
C311	C31	0.622800	0.554800	0.402800
C321	C32	0.523000	0.540700	0.346900
C331	C33	0.460400	0.614760	0.292840
C341	C34	0.688200	0.478800	0.466800
C351	C35	0.170900	0.900100	0.272900
C361	C36	0.083400	0.929900	0.325900
C371	C37	0.098900	0.913300	0.423300
C381	C38	0.203800	0.870500	0.461900
C391	C39	0.288500	0.843600	0.405600
C401	C40	0.004700	0.947300	0.484300
C411	C41	0.192200	0.731260	0.972940
C421	C42	0.085400	0.703800	0.955000
C431	C43	0.034900	0.682300	0.859300
C441	C44	0.089800	0.691000	0.782600
C451	C45	0.194000	0.720830	0.800970
C461	C46	0.246500	0.740020	0.895380
C471	C47	0.258200	0.738270	0.073530
C481	C48	0.018400	0.699100	0.034700
C491	C49	0.094600	0.654500	0.288100
C501	C50	0.158100	0.598600	0.357200
C511	C51	0.122800	0.597200	0.445200
C521	C52	0.023000	0.653100	0.459300
C531	C53	0.960400	0.707160	0.385240
C541	C54	0.188200	0.533200	0.521200
C551	C55	0.670900	0.727100	0.099900
C561	C56	0.583400	0.674100	0.070100
C571	C57	0.598900	0.576700	0.086700
C581	C58	0.703800	0.538100	0.129500
C591	C59	0.788500	0.594400	0.156400
C601	C60	0.504700	0.515700	0.052700
C611	C61	0.307800	0.972940	0.731260
C621	C62	0.414600	0.955000	0.703800
C631	C63	0.465100	0.859300	0.682300
C641	C64	0.410200	0.782600	0.691000
C651	C65	0.306000	0.800970	0.720830
C661	C66	0.253500	0.895380	0.740020
C671	C67	0.241800	0.073530	0.738270
C681	C68	0.481600	0.034700	0.699100
C691	C69	0.405400	0.288100	0.654500
C701	C70	0.341900	0.357200	0.598600
C711	C71	0.377200	0.445200	0.597200
C721	C72	0.477000	0.459300	0.653100
C731	C73	0.539600	0.385240	0.707160
C741	C74	0.311800	0.521200	0.533200
C751	C75	0.829100	0.099900	0.727100
C761	C76	0.916600	0.070100	0.674100
C771	C77	0.901100	0.086700	0.576700
C781	C78	0.796200	0.129500	0.538100
C791	C79	0.711500	0.156400	0.594400
C801	C80	0.995300	0.052700	0.515700
N11	N1	0.004800	0.292920	0.700280
N21	N2	0.226400	0.311300	0.857340
N31	N3	0.495200	0.700280	0.292920
N41	N4	0.273600	0.857340	0.311300
N51	N5	0.995200	0.707080	0.299720
N61	N6	0.773600	0.688700	0.142660
N71	N7	0.504800	0.299720	0.707080
N81	N8	0.726400	0.142660	0.688700
O11	O1	0.678200	0.195340	0.905000
O21	O2	0.748200	0.318840	0.869980
O31	O3	0.995900	0.224750	0.906690
O41	O4	0.016500	0.375900	0.957900
O51	O5	0.821800	0.905000	0.195340
O61	O6	0.751800	0.869980	0.318840
O71	O7	0.504100	0.906690	0.224750
O81	O8	0.483500	0.957900	0.375900
O91	O9	0.321800	0.804660	0.095000
O101	O10	0.251800	0.681160	0.130020
O111	O11	0.004100	0.775250	0.093310
O121	O12	0.983500	0.624100	0.042100
O131	O13	0.178200	0.095000	0.804660
O141	O14	0.248200	0.130020	0.681160
O151	O15	0.495900	0.093310	0.775250
O161	O16	0.516500	0.042100	0.624100
O171	O17	0.750000	0.278100	0.278100
O181	O18	0.250000	0.721900	0.721900
