data_YAZZAC_freeONLY_PM
_symmetry_space_group_name_H-M	'P1'
_cell_length_a	7.399100
_cell_length_b	11.473000
_cell_length_c	16.233500
_cell_angle_alpha	79.038000
_cell_angle_beta	82.588000
_cell_angle_gamma	79.972000
_symmetry_Int_Tables_number 1

loop_
_symmetry_equiv_pos_as_xyz
'x,y,z'

loop_
_atom_site_label
_atom_site_type_symbol
_atom_site_fract_x
_atom_site_fract_y
_atom_site_fract_z
Gd11	Gd1	0.055830	0.936220	0.227340
Gd21	Gd2	0.553300	0.737270	0.236450
Gd31	Gd3	0.944170	0.063780	0.772660
Gd41	Gd4	0.446700	0.262730	0.763550
H11	H1	0.002300	0.791400	0.033900
H21	H2	0.434100	0.271200	0.019900
H31	H3	0.158100	0.742400	0.440200
H41	H4	0.153200	0.127700	0.406000
H51	H5	0.707600	0.069800	0.280900
H61	H6	0.795600	0.107200	0.324400
H71	H7	0.201100	0.174000	0.175600
H81	H8	0.071000	0.192600	0.133500
H91	H9	0.438100	0.517700	0.343600
H101	H10	0.431400	0.603000	0.395000
H111	H11	0.122900	0.612100	0.895000
H121	H12	0.350800	0.461500	0.153700
H131	H13	0.776200	0.497900	0.412600
H141	H14	0.606600	0.821100	0.451800
H151	H15	0.796100	0.043600	0.971100
H161	H16	0.997700	0.208600	0.966100
H171	H17	0.565900	0.728800	0.980100
H181	H18	0.841900	0.257600	0.559800
H191	H19	0.846800	0.872300	0.594000
H201	H20	0.292400	0.930200	0.719100
H211	H21	0.204400	0.892800	0.675600
H221	H22	0.798900	0.826000	0.824400
H231	H23	0.929000	0.807400	0.866500
H241	H24	0.561900	0.482300	0.656400
H251	H25	0.568600	0.397000	0.605000
H261	H26	0.877100	0.387900	0.105000
H271	H27	0.649200	0.538500	0.846300
H281	H28	0.223800	0.502100	0.587400
H291	H29	0.393400	0.178900	0.548200
H301	H30	0.203900	0.956400	0.028900
C11	C1	0.204000	0.607700	0.087700
C21	C2	0.128800	0.649800	0.010900
C31	C3	0.164600	0.580900	0.947500
C41	C4	0.261900	0.466300	0.962200
C51	C5	0.326500	0.419700	0.041100
C61	C6	0.302000	0.491000	0.102400
C71	C7	0.189000	0.686700	0.151900
C81	C8	0.299100	0.393600	0.893100
C91	C9	0.099500	0.594600	0.485300
C101	C10	0.965800	0.594000	0.433500
C111	C11	0.865700	0.499000	0.447700
C121	C12	0.925900	0.694700	0.359600
C131	C13	0.350200	0.078200	0.466600
C141	C14	0.564100	0.893200	0.471000
C151	C15	0.414800	0.970100	0.436100
C161	C16	0.330700	0.934800	0.367000
C171	C17	0.676000	0.026700	0.982200
C181	C18	0.432400	0.954700	0.085400
C191	C19	0.611900	0.984100	0.064900
C201	C20	0.745400	0.967100	0.127500
C211	C21	0.796000	0.392300	0.912300
C221	C22	0.871200	0.350200	0.989100
C231	C23	0.835400	0.419100	0.052500
C241	C24	0.738100	0.533700	0.037800
C251	C25	0.673500	0.580300	0.958900
C261	C26	0.698000	0.509000	0.897600
C271	C27	0.811000	0.313300	0.848100
C281	C28	0.700900	0.606400	0.106900
C291	C29	0.900500	0.405400	0.514700
C301	C30	0.034200	0.406000	0.566500
C311	C31	0.134300	0.501000	0.552300
C321	C32	0.074100	0.305300	0.640400
C331	C33	0.649800	0.921800	0.533400
C341	C34	0.435900	0.106800	0.529000
C351	C35	0.585200	0.029900	0.563900
C361	C36	0.669300	0.065200	0.633000
C371	C37	0.324000	0.973300	0.017800
C381	C38	0.567600	0.045300	0.914600
C391	C39	0.388100	0.015900	0.935100
C401	C40	0.254600	0.032900	0.872500
O11	O1	0.071300	0.781300	0.145600
O21	O2	0.295400	0.658500	0.210100
O31	O3	0.262600	0.438500	0.818800
O41	O4	0.379200	0.284600	0.909500
O51	O5	0.015500	0.756400	0.993500
O61	O6	0.424000	0.305500	0.060600
O71	O7	0.018700	0.779800	0.345500
O81	O8	0.802800	0.686600	0.316400
O91	O9	0.205400	0.684500	0.472500
O101	O10	0.398300	0.838600	0.342100
O111	O11	0.192000	0.002700	0.337600
O121	O12	0.205900	0.158700	0.435600
O131	O13	0.728400	0.895800	0.199000
O141	O14	0.884000	0.021100	0.111300
O151	O15	0.365800	0.910500	0.164800
O161	O16	0.807300	0.049200	0.300500
O171	O17	0.111300	0.142600	0.172700
O181	O18	0.478100	0.576000	0.352500
O191	O19	0.928700	0.218700	0.854400
O201	O20	0.704600	0.341500	0.789900
O211	O21	0.737400	0.561500	0.181200
O221	O22	0.620800	0.715400	0.090500
O231	O23	0.984500	0.243600	0.006500
O241	O24	0.576000	0.694500	0.939400
O251	O25	0.981300	0.220200	0.654500
O261	O26	0.197200	0.313400	0.683600
O271	O27	0.794600	0.315500	0.527500
O281	O28	0.601700	0.161400	0.657900
O291	O29	0.808000	0.997300	0.662400
O301	O30	0.794100	0.841300	0.564400
O311	O31	0.271600	0.104200	0.801000
O321	O32	0.116000	0.978900	0.888700
O331	O33	0.634200	0.089500	0.835200
O341	O34	0.192700	0.950800	0.699500
O351	O35	0.888700	0.857400	0.827300
O361	O36	0.521900	0.424000	0.647500
