data_YEKXET_freeONLY_PM
_symmetry_space_group_name_H-M	'P1'
_cell_length_a	15.175100
_cell_length_b	15.175100
_cell_length_c	22.560400
_cell_angle_alpha	90.000000
_cell_angle_beta	90.000000
_cell_angle_gamma	90.000000
_symmetry_Int_Tables_number 1

loop_
_symmetry_equiv_pos_as_xyz
'x,y,z'

loop_
_atom_site_label
_atom_site_type_symbol
_atom_site_fract_x
_atom_site_fract_y
_atom_site_fract_z
Zn11	Zn1	0.757530	0.666790	0.856090
Zn21	Zn2	0.242470	0.333210	0.356100
Zn31	Zn3	0.833210	0.257530	0.606090
Zn41	Zn4	0.166790	0.742470	0.106100
Zn51	Zn5	0.742470	0.166790	0.893910
Zn61	Zn6	0.257530	0.833210	0.393910
Zn71	Zn7	0.666790	0.757530	0.143910
Zn81	Zn8	0.333210	0.242470	0.643910
Zn91	Zn9	0.721280	0.721280	0.000000
Zn101	Zn10	0.278720	0.278720	0.500000
Zn111	Zn11	0.778720	0.221280	0.750000
Zn121	Zn12	0.221280	0.778720	0.250000
H11	H1	0.994100	0.740900	0.037100
H21	H2	0.036600	0.632800	0.877500
H31	H3	0.187900	0.629000	0.898500
H41	H4	0.324600	0.635500	0.923700
H51	H5	0.469300	0.645700	0.955800
H61	H6	0.379300	0.737300	0.112500
H71	H7	0.569600	0.792900	0.905600
H81	H8	0.005900	0.259100	0.537100
H91	H9	0.963400	0.367200	0.377500
H101	H10	0.812100	0.371000	0.398500
H111	H11	0.675400	0.364500	0.423700
H121	H12	0.530700	0.354300	0.455800
H131	H13	0.620700	0.262700	0.612500
H141	H14	0.430400	0.207100	0.405600
H151	H15	0.759100	0.494100	0.787100
H161	H16	0.867200	0.536600	0.627500
H171	H17	0.871000	0.687900	0.648500
H181	H18	0.864500	0.824600	0.673700
H191	H19	0.854300	0.969300	0.705800
H201	H20	0.762700	0.879300	0.862500
H211	H21	0.707100	0.069600	0.655600
H221	H22	0.240900	0.505900	0.287100
H231	H23	0.132800	0.463400	0.127500
H241	H24	0.129000	0.312100	0.148500
H251	H25	0.135500	0.175400	0.173700
H261	H26	0.145700	0.030700	0.205800
H271	H27	0.237300	0.120700	0.362500
H281	H28	0.292900	0.930400	0.155600
H291	H29	0.505900	0.240900	0.712900
H301	H30	0.463400	0.132800	0.872500
H311	H31	0.312100	0.129000	0.851500
H321	H32	0.175400	0.135500	0.826300
H331	H33	0.030700	0.145700	0.794200
H341	H34	0.120700	0.237300	0.637500
H351	H35	0.930400	0.292900	0.844400
H361	H36	0.494100	0.759100	0.212900
H371	H37	0.536600	0.867200	0.372500
H381	H38	0.687900	0.871000	0.351500
H391	H39	0.824600	0.864500	0.326300
H401	H40	0.969300	0.854300	0.294200
H411	H41	0.879300	0.762700	0.137500
H421	H42	0.069600	0.707100	0.344400
H431	H43	0.740900	0.994100	0.962900
H441	H44	0.632800	0.036600	0.122500
H451	H45	0.629000	0.187900	0.101500
H461	H46	0.635500	0.324600	0.076300
H471	H47	0.645700	0.469300	0.044200
H481	H48	0.737300	0.379300	0.887500
H491	H49	0.792900	0.569600	0.094400
H501	H50	0.259100	0.005900	0.462900
H511	H51	0.367200	0.963400	0.622500
H521	H52	0.371000	0.812100	0.601500
H531	H53	0.364500	0.675400	0.576300
H541	H54	0.354300	0.530700	0.544200
H551	H55	0.262700	0.620700	0.387500
H561	H56	0.207100	0.430400	0.594400
C11	C1	0.033500	0.717300	0.008400
C21	C2	0.998900	0.687700	0.955200
C31	C3	0.057700	0.654100	0.914500
C41	C4	0.147000	0.650800	0.926800
C51	C5	0.175000	0.680500	0.981900
C61	C6	0.268600	0.680400	0.999000
C71	C7	0.336900	0.656400	0.962500
C81	C8	0.422300	0.662200	0.981300
C91	C9	0.439600	0.692600	0.038300
C101	C10	0.368000	0.717000	0.073400
C111	C11	0.901300	0.695300	0.942760
C121	C12	0.532700	0.711800	0.057800
C131	C13	0.612000	0.755700	0.887300
C141	C14	0.966500	0.282700	0.508400
C151	C15	0.001100	0.312300	0.455200
C161	C16	0.942300	0.345900	0.414500
C171	C17	0.853000	0.349200	0.426800
C181	C18	0.825000	0.319500	0.481900
C191	C19	0.731400	0.319600	0.499000
C201	C20	0.663100	0.343600	0.462500
C211	C21	0.577700	0.337800	0.481300
C221	C22	0.560400	0.307400	0.538300
C231	C23	0.632000	0.283000	0.573400
C241	C24	0.098700	0.304700	0.442760
C251	C25	0.467300	0.288200	0.557800
C261	C26	0.388000	0.244300	0.387300
C271	C27	0.782700	0.533500	0.758400
C281	C28	0.812300	0.498900	0.705200
C291	C29	0.845900	0.557700	0.664500
C301	C30	0.849200	0.647000	0.676800
C311	C31	0.819500	0.675000	0.731900
C321	C32	0.819600	0.768600	0.749000
C331	C33	0.843600	0.836900	0.712500
C341	C34	0.837800	0.922300	0.731300
C351	C35	0.807400	0.939600	0.788300
C361	C36	0.783000	0.868000	0.823400
C371	C37	0.804700	0.401300	0.692760
C381	C38	0.788200	0.032700	0.807800
C391	C39	0.744300	0.112000	0.637300
C401	C40	0.217300	0.466500	0.258400
C411	C41	0.187700	0.501100	0.205200
C421	C42	0.154100	0.442300	0.164500
C431	C43	0.150800	0.353000	0.176800
C441	C44	0.180500	0.325000	0.231900
C451	C45	0.180400	0.231400	0.249000
C461	C46	0.156400	0.163100	0.212500
C471	C47	0.162200	0.077700	0.231300
C481	C48	0.192600	0.060400	0.288300
C491	C49	0.217000	0.132000	0.323400
C501	C50	0.195300	0.598700	0.192760
C511	C51	0.211800	0.967300	0.307800
C521	C52	0.255700	0.888000	0.137300
C531	C53	0.466500	0.217300	0.741600
C541	C54	0.501100	0.187700	0.794800
C551	C55	0.442300	0.154100	0.835500
C561	C56	0.353000	0.150800	0.823200
C571	C57	0.325000	0.180500	0.768100
C581	C58	0.231400	0.180400	0.751000
C591	C59	0.163100	0.156400	0.787500
C601	C60	0.077700	0.162200	0.768700
C611	C61	0.060400	0.192600	0.711700
C621	C62	0.132000	0.217000	0.676600
C631	C63	0.598700	0.195300	0.807240
C641	C64	0.967300	0.211800	0.692200
C651	C65	0.888000	0.255700	0.862700
C661	C66	0.533500	0.782700	0.241600
C671	C67	0.498900	0.812300	0.294800
C681	C68	0.557700	0.845900	0.335500
C691	C69	0.647000	0.849200	0.323200
C701	C70	0.675000	0.819500	0.268100
C711	C71	0.768600	0.819600	0.251000
C721	C72	0.836900	0.843600	0.287500
C731	C73	0.922300	0.837800	0.268700
C741	C74	0.939600	0.807400	0.211700
C751	C75	0.868000	0.783000	0.176600
C761	C76	0.401300	0.804700	0.307240
C771	C77	0.032700	0.788200	0.192200
C781	C78	0.112000	0.744300	0.362700
C791	C79	0.717300	0.033500	0.991600
C801	C80	0.687700	0.998900	0.044800
C811	C81	0.654100	0.057700	0.085500
C821	C82	0.650800	0.147000	0.073200
C831	C83	0.680500	0.175000	0.018100
C841	C84	0.680400	0.268600	0.001000
C851	C85	0.656400	0.336900	0.037500
C861	C86	0.662200	0.422300	0.018700
C871	C87	0.692600	0.439600	0.961700
C881	C88	0.717000	0.368000	0.926600
C891	C89	0.695300	0.901300	0.057240
C901	C90	0.711800	0.532700	0.942200
C911	C91	0.755700	0.612000	0.112700
C921	C92	0.282700	0.966500	0.491600
C931	C93	0.312300	0.001100	0.544800
C941	C94	0.345900	0.942300	0.585500
C951	C95	0.349200	0.853000	0.573200
C961	C96	0.319500	0.825000	0.518100
C971	C97	0.319600	0.731400	0.501000
C981	C98	0.343600	0.663100	0.537500
C991	C99	0.337800	0.577700	0.518700
C1001	C100	0.307400	0.560400	0.461700
C1011	C101	0.283000	0.632000	0.426600
C1021	C102	0.304700	0.098700	0.557240
C1031	C103	0.288200	0.467300	0.442200
C1041	C104	0.244300	0.388000	0.612700
N11	N1	0.117300	0.714300	0.021200
N21	N2	0.284800	0.713100	0.055000
N31	N3	0.882700	0.285700	0.521200
N41	N4	0.715200	0.286900	0.555000
N51	N5	0.785700	0.617300	0.771200
N61	N6	0.786900	0.784800	0.805000
N71	N7	0.214300	0.382700	0.271200
N81	N8	0.213100	0.215200	0.305000
N91	N9	0.382700	0.214300	0.728800
N101	N10	0.215200	0.213100	0.695000
N111	N11	0.617300	0.785700	0.228800
N121	N12	0.784800	0.786900	0.195000
N131	N13	0.714300	0.117300	0.978800
N141	N14	0.713100	0.284800	0.945000
N151	N15	0.285700	0.882700	0.478800
N161	N16	0.286900	0.715200	0.445000
O11	O1	0.854000	0.726000	0.982270
O21	O2	0.878090	0.666200	0.892520
O31	O3	0.585000	0.721800	0.014500
O41	O4	0.545870	0.719620	0.112280
O51	O5	0.686520	0.745070	0.911770
O61	O6	0.593300	0.718000	0.839530
O71	O7	0.146000	0.274000	0.482270
O81	O8	0.121910	0.333800	0.392520
O91	O9	0.415000	0.278200	0.514500
O101	O10	0.454130	0.280380	0.612280
O111	O11	0.313480	0.254930	0.411770
O121	O12	0.406700	0.282000	0.339530
O131	O13	0.774000	0.354000	0.732270
O141	O14	0.833800	0.378090	0.642520
O151	O15	0.778200	0.085000	0.764500
O161	O16	0.780380	0.045870	0.862280
O171	O17	0.754930	0.186520	0.661770
O181	O18	0.782000	0.093300	0.589530
O191	O19	0.226000	0.646000	0.232270
O201	O20	0.166200	0.621910	0.142520
O211	O21	0.221800	0.915000	0.264500
O221	O22	0.219620	0.954130	0.362280
O231	O23	0.245070	0.813480	0.161770
O241	O24	0.218000	0.906700	0.089530
O251	O25	0.646000	0.226000	0.767730
O261	O26	0.621910	0.166200	0.857480
O271	O27	0.915000	0.221800	0.735500
O281	O28	0.954130	0.219620	0.637720
O291	O29	0.813480	0.245070	0.838230
O301	O30	0.906700	0.218000	0.910470
O311	O31	0.354000	0.774000	0.267730
O321	O32	0.378090	0.833800	0.357480
O331	O33	0.085000	0.778200	0.235500
O341	O34	0.045870	0.780380	0.137720
O351	O35	0.186520	0.754930	0.338230
O361	O36	0.093300	0.782000	0.410470
O371	O37	0.726000	0.854000	0.017730
O381	O38	0.666200	0.878090	0.107480
O391	O39	0.721800	0.585000	0.985500
O401	O40	0.719620	0.545870	0.887720
O411	O41	0.745070	0.686520	0.088230
O421	O42	0.718000	0.593300	0.160470
O431	O43	0.274000	0.146000	0.517730
O441	O44	0.333800	0.121910	0.607480
O451	O45	0.278200	0.415000	0.485500
O461	O46	0.280380	0.454130	0.387720
O471	O47	0.254930	0.313480	0.588230
O481	O48	0.282000	0.406700	0.660470
