data_YELYOE_freeONLY_PM
_symmetry_space_group_name_H-M	'P1'
_cell_length_a	14.268000
_cell_length_b	15.721000
_cell_length_c	16.017000
_cell_angle_alpha	90.000000
_cell_angle_beta	90.000000
_cell_angle_gamma	90.000000
_symmetry_Int_Tables_number 1

loop_
_symmetry_equiv_pos_as_xyz
'x,y,z'

loop_
_atom_site_label
_atom_site_type_symbol
_atom_site_fract_x
_atom_site_fract_y
_atom_site_fract_z
Cd11	Cd1	0.125180	0.019310	0.543640
Cd21	Cd2	0.394160	0.934850	0.540870
Cd31	Cd3	0.374820	0.519310	0.456360
Cd41	Cd4	0.105840	0.434850	0.459130
Cd51	Cd5	0.874820	0.980690	0.043640
Cd61	Cd6	0.605840	0.065150	0.040870
Cd71	Cd7	0.625180	0.480690	0.956360
Cd81	Cd8	0.894160	0.565150	0.959130
Cd91	Cd9	0.874820	0.980690	0.456360
Cd101	Cd10	0.605840	0.065150	0.459130
Cd111	Cd11	0.625180	0.480690	0.543640
Cd121	Cd12	0.894160	0.565150	0.540870
Cd131	Cd13	0.125180	0.019310	0.956360
Cd141	Cd14	0.394160	0.934850	0.959130
Cd151	Cd15	0.374820	0.519310	0.043640
Cd161	Cd16	0.105840	0.434850	0.040870
Cd171	Cd17	0.736420	0.036850	0.750000
Cd181	Cd18	0.763580	0.536850	0.250000
Cd191	Cd19	0.263580	0.963150	0.250000
Cd201	Cd20	0.236420	0.463150	0.750000
H11	H1	0.026900	0.223000	0.516300
H21	H2	0.473100	0.723000	0.483700
H31	H3	0.973100	0.777000	0.016300
H41	H4	0.526900	0.277000	0.983700
H51	H5	0.973100	0.777000	0.483700
H61	H6	0.526900	0.277000	0.516300
H71	H7	0.026900	0.223000	0.983700
H81	H8	0.473100	0.723000	0.016300
H91	H9	0.324400	0.885500	0.750000
H101	H10	0.205200	0.018800	0.750000
H111	H11	0.175600	0.385500	0.250000
H121	H12	0.294800	0.518800	0.250000
H131	H13	0.675600	0.114500	0.250000
H141	H14	0.794800	0.981200	0.250000
H151	H15	0.824400	0.614500	0.750000
H161	H16	0.705200	0.481200	0.750000
C11	C1	0.090500	0.224200	0.503900
C21	C2	0.232500	0.183600	0.485200
C31	C3	0.226400	0.269500	0.466200
C41	C4	0.312200	0.124400	0.484500
C51	C5	0.298700	0.332000	0.442500
C61	C6	0.491700	0.996200	0.706500
C71	C7	0.551400	0.039000	0.642500
C81	C8	0.999400	0.021700	0.706300
C91	C9	0.925300	0.020800	0.640700
C101	C10	0.409500	0.724200	0.496100
C111	C11	0.267500	0.683600	0.514800
C121	C12	0.273600	0.769500	0.533800
C131	C13	0.187800	0.624400	0.515500
C141	C14	0.201300	0.832000	0.557500
C151	C15	0.008300	0.496200	0.293500
C161	C16	0.948600	0.539000	0.357500
C171	C17	0.500600	0.521700	0.293700
C181	C18	0.574700	0.520800	0.359300
C191	C19	0.909500	0.775800	0.003900
C201	C20	0.767500	0.816400	0.985200
C211	C21	0.773600	0.730500	0.966200
C221	C22	0.687800	0.875600	0.984500
C231	C23	0.701300	0.668000	0.942500
C241	C24	0.508300	0.003800	0.206500
C251	C25	0.448600	0.961000	0.142500
C261	C26	0.000600	0.978300	0.206300
C271	C27	0.074700	0.979200	0.140700
C281	C28	0.590500	0.275800	0.996100
C291	C29	0.732500	0.316400	0.014800
C301	C30	0.726400	0.230500	0.033800
C311	C31	0.812200	0.375600	0.015500
C321	C32	0.798700	0.168000	0.057500
C331	C33	0.991700	0.503800	0.793500
C341	C34	0.051400	0.461000	0.857500
C351	C35	0.499400	0.478300	0.793700
C361	C36	0.425300	0.479200	0.859300
C371	C37	0.909500	0.775800	0.496100
C381	C38	0.767500	0.816400	0.514800
C391	C39	0.773600	0.730500	0.533800
C401	C40	0.687800	0.875600	0.515500
C411	C41	0.701300	0.668000	0.557500
C421	C42	0.508300	0.003800	0.293500
C431	C43	0.448600	0.961000	0.357500
C441	C44	0.000600	0.978300	0.293700
C451	C45	0.074700	0.979200	0.359300
C461	C46	0.590500	0.275800	0.503900
C471	C47	0.732500	0.316400	0.485200
C481	C48	0.726400	0.230500	0.466200
C491	C49	0.812200	0.375600	0.484500
C501	C50	0.798700	0.168000	0.442500
C511	C51	0.991700	0.503800	0.706500
C521	C52	0.051400	0.461000	0.642500
C531	C53	0.499400	0.478300	0.706300
C541	C54	0.425300	0.479200	0.640700
C551	C55	0.090500	0.224200	0.996100
C561	C56	0.232500	0.183600	0.014800
C571	C57	0.226400	0.269500	0.033800
C581	C58	0.312200	0.124400	0.015500
C591	C59	0.298700	0.332000	0.057500
C601	C60	0.491700	0.996200	0.793500
C611	C61	0.551400	0.039000	0.857500
C621	C62	0.999400	0.021700	0.793700
C631	C63	0.925300	0.020800	0.859300
C641	C64	0.409500	0.724200	0.003900
C651	C65	0.267500	0.683600	0.985200
C661	C66	0.273600	0.769500	0.966200
C671	C67	0.187800	0.624400	0.984500
C681	C68	0.201300	0.832000	0.942500
C691	C69	0.008300	0.496200	0.206500
C701	C70	0.948600	0.539000	0.142500
C711	C71	0.500600	0.521700	0.206300
C721	C72	0.574700	0.520800	0.140700
C731	C73	0.376900	0.920600	0.750000
C741	C74	0.140000	0.020500	0.750000
C751	C75	0.123100	0.420600	0.250000
C761	C76	0.360000	0.520500	0.250000
C771	C77	0.623100	0.079400	0.250000
C781	C78	0.860000	0.979500	0.250000
C791	C79	0.876900	0.579400	0.750000
C801	C80	0.640000	0.479500	0.750000
N11	N1	0.136100	0.294900	0.479300
N21	N2	0.145700	0.155800	0.508500
N31	N3	0.090400	0.021800	0.680400
N41	N4	0.417600	0.947800	0.679800
N51	N5	0.363900	0.794900	0.520700
N61	N6	0.354300	0.655800	0.491500
N71	N7	0.409600	0.521800	0.319600
N81	N8	0.082400	0.447800	0.320200
N91	N9	0.863900	0.705100	0.979300
N101	N10	0.854300	0.844200	0.008500
N111	N11	0.909600	0.978200	0.180400
N121	N12	0.582400	0.052200	0.179800
N131	N13	0.636100	0.205100	0.020700
N141	N14	0.645700	0.344200	0.991500
N151	N15	0.590400	0.478200	0.819600
N161	N16	0.917600	0.552200	0.820200
N171	N17	0.863900	0.705100	0.520700
N181	N18	0.854300	0.844200	0.491500
N191	N19	0.909600	0.978200	0.319600
N201	N20	0.582400	0.052200	0.320200
N211	N21	0.636100	0.205100	0.479300
N221	N22	0.645700	0.344200	0.508500
N231	N23	0.590400	0.478200	0.680400
N241	N24	0.917600	0.552200	0.679800
N251	N25	0.136100	0.294900	0.020700
N261	N26	0.145700	0.155800	0.991500
N271	N27	0.090400	0.021800	0.819600
N281	N28	0.417600	0.947800	0.820200
N291	N29	0.363900	0.794900	0.979300
N301	N30	0.354300	0.655800	0.008500
N311	N31	0.409600	0.521800	0.180400
N321	N32	0.082400	0.447800	0.179800
O11	O1	0.274500	0.407100	0.436800
O21	O2	0.381600	0.305700	0.430900
O31	O3	0.392100	0.150700	0.456400
O41	O4	0.298700	0.051900	0.511300
O51	O5	0.842000	0.008600	0.655600
O61	O6	0.955300	0.029200	0.567100
O71	O7	0.515600	0.040000	0.570900
O81	O8	0.628700	0.070000	0.657300
O91	O9	0.225500	0.907100	0.563200
O101	O10	0.118400	0.805700	0.569100
O111	O11	0.107900	0.650700	0.543600
O121	O12	0.201300	0.551900	0.488700
O131	O13	0.658000	0.508600	0.344400
O141	O14	0.544700	0.529200	0.432900
O151	O15	0.984400	0.540000	0.429100
O161	O16	0.871300	0.570000	0.342700
O171	O17	0.725500	0.592900	0.936800
O181	O18	0.618400	0.694300	0.930900
O191	O19	0.607900	0.849300	0.956400
O201	O20	0.701300	0.948100	0.011300
O211	O21	0.158000	0.991400	0.155600
O221	O22	0.044700	0.970800	0.067100
O231	O23	0.484400	0.960000	0.070900
O241	O24	0.371300	0.930000	0.157300
O251	O25	0.774500	0.092900	0.063200
O261	O26	0.881600	0.194300	0.069100
O271	O27	0.892100	0.349300	0.043600
O281	O28	0.798700	0.448100	0.988700
O291	O29	0.342000	0.491400	0.844400
O301	O30	0.455300	0.470800	0.932900
O311	O31	0.015600	0.460000	0.929100
O321	O32	0.128700	0.430000	0.842700
O331	O33	0.725500	0.592900	0.563200
O341	O34	0.618400	0.694300	0.569100
O351	O35	0.607900	0.849300	0.543600
O361	O36	0.701300	0.948100	0.488700
O371	O37	0.158000	0.991400	0.344400
O381	O38	0.044700	0.970800	0.432900
O391	O39	0.484400	0.960000	0.429100
O401	O40	0.371300	0.930000	0.342700
O411	O41	0.774500	0.092900	0.436800
O421	O42	0.881600	0.194300	0.430900
O431	O43	0.892100	0.349300	0.456400
O441	O44	0.798700	0.448100	0.511300
O451	O45	0.342000	0.491400	0.655600
O461	O46	0.455300	0.470800	0.567100
O471	O47	0.015600	0.460000	0.570900
O481	O48	0.128700	0.430000	0.657300
O491	O49	0.274500	0.407100	0.063200
O501	O50	0.381600	0.305700	0.069100
O511	O51	0.392100	0.150700	0.043600
O521	O52	0.298700	0.051900	0.988700
O531	O53	0.842000	0.008600	0.844400
O541	O54	0.955300	0.029200	0.932900
O551	O55	0.515600	0.040000	0.929100
O561	O56	0.628700	0.070000	0.842700
O571	O57	0.225500	0.907100	0.936800
O581	O58	0.118400	0.805700	0.930900
O591	O59	0.107900	0.650700	0.956400
O601	O60	0.201300	0.551900	0.011300
O611	O61	0.658000	0.508600	0.155600
O621	O62	0.544700	0.529200	0.067100
O631	O63	0.984400	0.540000	0.070900
O641	O64	0.871300	0.570000	0.157300
O651	O65	0.686200	0.896300	0.750000
O661	O66	0.813800	0.396300	0.250000
O671	O67	0.313800	0.103700	0.250000
O681	O68	0.186200	0.603700	0.750000
