data_YEMLOS_freeONLY_PM
_symmetry_space_group_name_H-M	'P1'
_cell_length_a	8.308100
_cell_length_b	9.164700
_cell_length_c	9.183900
_cell_angle_alpha	62.781000
_cell_angle_beta	79.029000
_cell_angle_gamma	87.088000
_symmetry_Int_Tables_number 1

loop_
_symmetry_equiv_pos_as_xyz
'x,y,z'

loop_
_atom_site_label
_atom_site_type_symbol
_atom_site_fract_x
_atom_site_fract_y
_atom_site_fract_z
Fe11	Fe1	0.240560	0.576370	0.429620
Fe21	Fe2	0.759440	0.423630	0.570380
P11	P1	0.579260	0.533160	0.241940
P21	P2	0.056940	0.251980	0.465400
P31	P3	0.420740	0.466840	0.758060
P41	P4	0.943060	0.748020	0.534600
H11	H1	0.694800	0.759700	0.997800
H21	H2	0.613400	0.638200	0.954700
H31	H3	0.143300	0.015200	0.671000
H41	H4	0.210700	0.169500	0.674600
H51	H5	0.981300	0.746400	0.018000
H61	H6	0.955100	0.568900	0.168300
H71	H7	0.823600	0.347300	0.136300
H81	H8	0.770200	0.389700	0.966700
H91	H9	0.487200	0.113700	0.682900
H101	H10	0.433000	0.933600	0.729900
H111	H11	0.306400	0.881300	0.532800
H121	H12	0.282000	0.028600	0.362900
H131	H13	0.305200	0.240300	0.002200
H141	H14	0.386600	0.361800	0.045300
H151	H15	0.856700	0.984800	0.329000
H161	H16	0.789300	0.830500	0.325400
H171	H17	0.018700	0.253600	0.982000
H181	H18	0.044900	0.431100	0.831700
H191	H19	0.176400	0.652700	0.863700
H201	H20	0.229800	0.610300	0.033300
H211	H21	0.512800	0.886300	0.317100
H221	H22	0.567000	0.066400	0.270100
H231	H23	0.693600	0.118700	0.467200
H241	H24	0.718000	0.971400	0.637100
C11	C1	0.684200	0.644900	0.024300
C21	C2	0.195900	0.123400	0.601400
C31	C3	0.980600	0.630400	0.047700
C41	C4	0.851900	0.413400	0.016400
C51	C5	0.477700	0.037700	0.638000
C61	C6	0.353300	0.986300	0.444400
C71	C7	0.315800	0.355100	0.975700
C81	C8	0.804100	0.876600	0.398600
C91	C9	0.019400	0.369600	0.952300
C101	C10	0.148100	0.586600	0.983600
C111	C11	0.522300	0.962300	0.362000
C121	C12	0.646700	0.013700	0.555600
N11	N1	0.851600	0.591400	0.974500
N21	N2	0.362700	0.103700	0.515500
N31	N3	0.148400	0.408600	0.025500
N41	N4	0.637300	0.896300	0.484500
O11	O1	0.442000	0.647700	0.251400
O21	O2	0.702700	0.523100	0.347900
O31	O3	0.127400	0.428300	0.378600
O41	O4	0.899100	0.232700	0.591500
O51	O5	0.518600	0.368000	0.270900
O61	O6	0.042000	0.194100	0.339000
O71	O7	0.558000	0.352300	0.748600
O81	O8	0.297300	0.476900	0.652100
O91	O9	0.872600	0.571700	0.621400
O101	O10	0.100900	0.767300	0.408500
O111	O11	0.481400	0.632000	0.729100
O121	O12	0.958000	0.805900	0.661000
