data_YERJEL_freeONLY_PM
_symmetry_space_group_name_H-M	'P1'
_cell_length_a	11.269000
_cell_length_b	11.270000
_cell_length_c	20.711000
_cell_angle_alpha	77.608000
_cell_angle_beta	77.603000
_cell_angle_gamma	64.727000
_symmetry_Int_Tables_number 1

loop_
_symmetry_equiv_pos_as_xyz
'x,y,z'

loop_
_atom_site_label
_atom_site_type_symbol
_atom_site_fract_x
_atom_site_fract_y
_atom_site_fract_z
Ni11	Ni1	0.635380	0.465310	0.069260
Ni21	Ni2	0.534700	0.364530	0.430810
Ni31	Ni3	0.364620	0.534690	0.930740
Ni41	Ni4	0.465300	0.635470	0.569190
H11	H1	0.697300	0.685100	0.977100
H21	H2	0.698700	0.886500	0.976400
H31	H3	0.568700	0.860100	0.170300
H41	H4	0.569700	0.658800	0.165400
H51	H5	0.780400	0.023000	0.994800
H61	H6	0.777500	0.225800	0.996700
H71	H7	0.504800	0.284900	0.150600
H81	H8	0.501100	0.082300	0.154500
H91	H9	0.339400	0.431100	0.334200
H101	H10	0.141900	0.428900	0.329400
H111	H11	0.114500	0.301200	0.523800
H121	H12	0.315000	0.303900	0.522800
H131	H13	0.714600	0.494400	0.349600
H141	H14	0.916700	0.498800	0.345400
H151	H15	0.774800	0.222600	0.503900
H161	H16	0.977200	0.220200	0.505200
H171	H17	0.850300	0.276400	0.258300
H181	H18	0.036400	0.185000	0.312100
H191	H19	0.258900	0.236900	0.140000
H201	H20	0.075900	0.318400	0.085100
H211	H21	0.274700	0.939700	0.241600
H221	H22	0.354700	0.732400	0.304100
H231	H23	0.437200	0.887600	0.436200
H241	H24	0.362600	0.092900	0.372100
H251	H25	0.113100	0.562400	0.063500
H261	H26	0.906500	0.636700	0.128300
H271	H27	0.060200	0.725700	0.257700
H281	H28	0.267300	0.642900	0.196600
H291	H29	0.815500	0.964500	0.187800
H301	H30	0.724100	0.149400	0.241700
H311	H31	0.681700	0.924100	0.414900
H321	H32	0.763200	0.740700	0.360000
H331	H33	0.302700	0.314900	0.022900
H341	H34	0.301300	0.113500	0.023600
H351	H35	0.431300	0.139900	0.829700
H361	H36	0.430300	0.341200	0.834600
H371	H37	0.219600	0.977000	0.005200
H381	H38	0.222500	0.774200	0.003300
H391	H39	0.495200	0.715100	0.849400
H401	H40	0.498900	0.917700	0.845500
H411	H41	0.660600	0.568900	0.665800
H421	H42	0.858100	0.571100	0.670600
H431	H43	0.885500	0.698800	0.476200
H441	H44	0.685000	0.696100	0.477200
H451	H45	0.285400	0.505600	0.650400
H461	H46	0.083300	0.501200	0.654600
H471	H47	0.225200	0.777400	0.496100
H481	H48	0.022800	0.779800	0.494800
H491	H49	0.149700	0.723600	0.741700
H501	H50	0.963600	0.815000	0.687900
H511	H51	0.741100	0.763100	0.860000
H521	H52	0.924100	0.681600	0.914900
H531	H53	0.725300	0.060300	0.758400
H541	H54	0.645300	0.267600	0.695900
H551	H55	0.562800	0.112400	0.563800
H561	H56	0.637400	0.907100	0.627900
H571	H57	0.886900	0.437600	0.936500
H581	H58	0.093500	0.363300	0.871700
H591	H59	0.939800	0.274300	0.742300
H601	H60	0.732700	0.357100	0.803400
H611	H61	0.184500	0.035500	0.812200
H621	H62	0.275900	0.850600	0.758300
H631	H63	0.318300	0.075900	0.585100
H641	H64	0.236800	0.259300	0.640000
C11	C1	0.669900	0.721000	0.016900
C21	C2	0.671600	0.842300	0.016200
C31	C3	0.633800	0.898700	0.073300
C41	C4	0.595200	0.827000	0.129800
C51	C5	0.595900	0.705500	0.126300
C61	C6	0.636900	0.029300	0.073800
C71	C7	0.722200	0.074900	0.026800
C81	C8	0.719500	0.197400	0.028300
C91	C9	0.560300	0.231800	0.118500
C101	C10	0.557100	0.110000	0.121000
C111	C11	0.293400	0.404100	0.373300
C121	C12	0.174400	0.403600	0.370100
C131	C13	0.101500	0.365800	0.426700
C141	C14	0.158400	0.328300	0.483900
C151	C15	0.279200	0.330500	0.483100
C161	C16	0.767900	0.439100	0.381700
C171	C17	0.889500	0.442600	0.379000
C181	C18	0.971800	0.362500	0.426200
C191	C19	0.803000	0.280500	0.472000
C201	C20	0.925400	0.278200	0.473100
C211	C21	0.826600	0.363100	0.129900
C221	C22	0.943900	0.305100	0.166200
C231	C23	0.932700	0.266600	0.234000
C241	C24	0.043900	0.213200	0.266300
C251	C25	0.164900	0.201900	0.230600
C261	C26	0.177000	0.242700	0.163700
C271	C27	0.067100	0.292800	0.131000
C281	C28	0.312100	0.034300	0.301000
C291	C29	0.308900	0.928500	0.280600
C301	C30	0.356700	0.804600	0.318000
C311	C31	0.407300	0.787600	0.376200
C321	C32	0.406300	0.897100	0.396400
C331	C33	0.360600	0.020300	0.358600
C341	C34	0.461700	0.652600	0.416900
C351	C35	0.347300	0.538900	0.083500
C361	C36	0.211600	0.593200	0.123400
C371	C37	0.103400	0.593200	0.103300
C381	C38	0.979100	0.638900	0.141700
C391	C39	0.965800	0.686700	0.199200
C401	C40	0.071400	0.690500	0.219000
C411	C41	0.194800	0.642400	0.182100
C421	C42	0.797700	0.835000	0.269600
C431	C43	0.787000	0.956900	0.233500
C441	C44	0.733900	0.066800	0.265900
C451	C45	0.694900	0.055300	0.334000
C461	C46	0.707200	0.932800	0.369000
C471	C47	0.757300	0.822600	0.336300
C481	C48	0.637400	0.172800	0.370500
C491	C49	0.330100	0.279000	0.983100
C501	C50	0.328400	0.157700	0.983800
C511	C51	0.366200	0.101300	0.926700
C521	C52	0.404800	0.173000	0.870200
C531	C53	0.404100	0.294500	0.873700
C541	C54	0.363100	0.970700	0.926200
C551	C55	0.277800	0.925100	0.973200
C561	C56	0.280500	0.802600	0.971700
C571	C57	0.439700	0.768200	0.881500
C581	C58	0.442900	0.890000	0.879000
C591	C59	0.706600	0.595900	0.626700
C601	C60	0.825600	0.596400	0.629900
C611	C61	0.898500	0.634200	0.573300
C621	C62	0.841600	0.671700	0.516100
C631	C63	0.720800	0.669500	0.516900
C641	C64	0.232100	0.560900	0.618300
C651	C65	0.110500	0.557400	0.621000
C661	C66	0.028200	0.637500	0.573800
C671	C67	0.197000	0.719500	0.528000
C681	C68	0.074600	0.721800	0.526900
C691	C69	0.173400	0.636900	0.870100
C701	C70	0.056100	0.694900	0.833800
C711	C71	0.067300	0.733400	0.766000
C721	C72	0.956100	0.786800	0.733700
C731	C73	0.835100	0.798100	0.769400
C741	C74	0.823000	0.757300	0.836300
C751	C75	0.932900	0.707200	0.869000
C761	C76	0.687900	0.965700	0.699000
C771	C77	0.691100	0.071500	0.719400
C781	C78	0.643300	0.195400	0.682000
C791	C79	0.592700	0.212400	0.623800
C801	C80	0.593700	0.102900	0.603600
C811	C81	0.639400	0.979700	0.641400
C821	C82	0.538300	0.347400	0.583100
C831	C83	0.652700	0.461100	0.916500
C841	C84	0.788400	0.406800	0.876600
C851	C85	0.896600	0.406800	0.896700
C861	C86	0.020900	0.361100	0.858300
C871	C87	0.034200	0.313300	0.800800
C881	C88	0.928600	0.309500	0.781000
C891	C89	0.805200	0.357600	0.817900
C901	C90	0.202300	0.165000	0.730400
C911	C91	0.213000	0.043100	0.766500
C921	C92	0.266100	0.933200	0.734100
C931	C93	0.305100	0.944700	0.666000
C941	C94	0.292800	0.067200	0.631000
C951	C95	0.242700	0.177400	0.663700
C961	C96	0.362600	0.827200	0.629500
N11	N1	0.631300	0.652400	0.071170
N21	N2	0.639300	0.277400	0.072060
N31	N3	0.347600	0.368300	0.428900
N41	N4	0.722700	0.360400	0.428090
N51	N5	0.368700	0.347600	0.928830
N61	N6	0.360700	0.722600	0.927940
N71	N7	0.652400	0.631700	0.571100
N81	N8	0.277300	0.639600	0.571910
O11	O1	0.843300	0.382600	0.067220
O21	O2	0.711600	0.393000	0.161920
O31	O3	0.441600	0.540100	0.105160
O41	O4	0.357000	0.491300	0.031800
O51	O5	0.459900	0.558300	0.394710
O61	O6	0.508100	0.643000	0.468160
O71	O7	0.607100	0.287900	0.338130
O81	O8	0.617300	0.156500	0.432980
O91	O9	0.275500	0.158400	0.262400
O101	O10	0.841200	0.724200	0.237900
O111	O11	0.156700	0.617400	0.932780
O121	O12	0.288400	0.607000	0.838080
O131	O13	0.558400	0.459900	0.894840
O141	O14	0.643000	0.508700	0.968200
O151	O15	0.540100	0.441700	0.605290
O161	O16	0.491900	0.357000	0.531840
O171	O17	0.392900	0.712100	0.661870
O181	O18	0.382700	0.843500	0.567020
O191	O19	0.724500	0.841600	0.737600
O201	O20	0.158800	0.275800	0.762100
