data_YEYYAC_freeONLY_PM
_symmetry_space_group_name_H-M	'P1'
_cell_length_a	11.431000
_cell_length_b	11.431000
_cell_length_c	46.600000
_cell_angle_alpha	90.000000
_cell_angle_beta	90.000000
_cell_angle_gamma	120.000000
_symmetry_Int_Tables_number 1

loop_
_symmetry_equiv_pos_as_xyz
'x,y,z'

loop_
_atom_site_label
_atom_site_type_symbol
_atom_site_fract_x
_atom_site_fract_y
_atom_site_fract_z
Co11	Co1	0.010010	0.999390	0.000000
Co21	Co2	0.340680	0.659790	0.920760
Co31	Co3	0.989380	0.989990	0.666670
Co41	Co4	0.319110	0.659320	0.587430
Co51	Co5	0.000610	0.010620	0.333330
Co61	Co6	0.340210	0.680890	0.254090
Co71	Co7	0.989990	0.000610	0.500000
Co81	Co8	0.659320	0.340210	0.420760
Co91	Co9	0.010620	0.010010	0.166670
Co101	Co10	0.680890	0.340680	0.087430
Co111	Co11	0.999390	0.989380	0.833330
Co121	Co12	0.659790	0.319110	0.754090
P11	P1	0.010600	0.001700	0.948730
P21	P2	0.332200	0.652100	0.869410
P31	P3	0.991100	0.989400	0.615400
P41	P4	0.319900	0.667800	0.536080
P51	P5	0.998300	0.008900	0.282060
P61	P6	0.347900	0.680100	0.202740
P71	P7	0.989400	0.998300	0.448730
P81	P8	0.667800	0.347900	0.369410
P91	P9	0.008900	0.010600	0.115400
P101	P10	0.680100	0.332200	0.036080
P111	P11	0.001700	0.991100	0.782060
P121	P12	0.652100	0.319900	0.702740
H11	H1	0.805400	0.980500	0.934300
H21	H2	0.852000	0.910300	0.911800
H31	H3	0.783800	0.725100	0.943900
H41	H4	0.732000	0.794700	0.965500
H51	H5	0.025800	0.817700	0.931200
H61	H6	0.111900	0.944600	0.911800
H71	H7	0.283100	0.036500	0.948000
H81	H8	0.197200	0.908100	0.967000
H91	H9	0.193800	0.205500	0.933300
H101	H10	0.072500	0.161400	0.912100
H111	H11	0.968200	0.237500	0.944000
H121	H12	0.082200	0.273300	0.966700
H131	H13	0.124700	0.461300	0.860700
H141	H14	0.213900	0.500300	0.833000
H151	H15	0.248100	0.368400	0.880400
H161	H16	0.335700	0.406100	0.852400
H171	H17	0.520900	0.632600	0.858700
H181	H18	0.475000	0.678000	0.831200
H191	H19	0.610300	0.854700	0.877300
H201	H20	0.573900	0.897800	0.848200
H211	H21	0.353400	0.858400	0.856700
H221	H22	0.297000	0.758600	0.830700
H231	H23	0.081000	0.649500	0.851100
H241	H24	0.135800	0.741500	0.878400
H251	H25	0.175100	0.194600	0.600970
H261	H26	0.058300	0.148000	0.578470
H271	H27	0.941300	0.216200	0.610570
H281	H28	0.062700	0.268000	0.632170
H291	H29	0.791900	0.974200	0.597870
H301	H30	0.832700	0.888100	0.578470
H311	H31	0.753400	0.716900	0.614670
H321	H32	0.710900	0.802800	0.633670
H331	H33	0.011700	0.806200	0.599970
H341	H34	0.088900	0.927500	0.578770
H351	H35	0.269300	0.031800	0.610670
H361	H36	0.191100	0.917800	0.633370
H371	H37	0.336600	0.875300	0.527370
H381	H38	0.286400	0.786100	0.499670
H391	H39	0.120300	0.751900	0.547070
H401	H40	0.070400	0.664300	0.519070
H411	H41	0.111700	0.479100	0.525370
H421	H42	0.203000	0.525000	0.497870
H431	H43	0.244400	0.389700	0.543970
H441	H44	0.323900	0.426100	0.514870
H451	H45	0.505000	0.646600	0.523370
H461	H46	0.461600	0.703000	0.497370
H471	H47	0.568500	0.919000	0.517770
H481	H48	0.605700	0.864200	0.545070
H491	H49	0.019500	0.824900	0.267630
H501	H50	0.089700	0.941700	0.245130
H511	H51	0.274900	0.058700	0.277230
H521	H52	0.205300	0.937300	0.298830
H531	H53	0.182300	0.208100	0.264530
H541	H54	0.055400	0.167300	0.245130
H551	H55	0.963500	0.246600	0.281330
H561	H56	0.091900	0.289100	0.300330
H571	H57	0.794500	0.988300	0.266630
H581	H58	0.838600	0.911100	0.245430
H591	H59	0.762500	0.730700	0.277330
H601	H60	0.726700	0.808900	0.300030
H611	H61	0.538700	0.663400	0.194030
H621	H62	0.499700	0.713600	0.166330
H631	H63	0.631600	0.879700	0.213730
H641	H64	0.593900	0.929600	0.185730
H651	H65	0.367400	0.888300	0.192030
H661	H66	0.322000	0.797000	0.164530
H671	H67	0.145300	0.755600	0.210630
H681	H68	0.102200	0.676100	0.181530
H691	H69	0.141600	0.495000	0.190030
H701	H70	0.241400	0.538400	0.164030
H711	H71	0.350500	0.431500	0.184430
H721	H72	0.258500	0.394300	0.211730
H731	H73	0.194600	0.019500	0.434300
H741	H74	0.148000	0.089700	0.411800
H751	H75	0.216200	0.274900	0.443900
H761	H76	0.268000	0.205300	0.465500
H771	H77	0.974200	0.182300	0.431200
H781	H78	0.888100	0.055400	0.411800
H791	H79	0.716900	0.963500	0.448000
H801	H80	0.802800	0.091900	0.467000
H811	H81	0.806200	0.794500	0.433300
H821	H82	0.927500	0.838600	0.412100
H831	H83	0.031800	0.762500	0.444000
H841	H84	0.917800	0.726700	0.466700
H851	H85	0.875300	0.538700	0.360700
H861	H86	0.786100	0.499700	0.333000
H871	H87	0.751900	0.631600	0.380400
H881	H88	0.664300	0.593900	0.352400
H891	H89	0.479100	0.367400	0.358700
H901	H90	0.525000	0.322000	0.331200
H911	H91	0.389700	0.145300	0.377300
H921	H92	0.426100	0.102200	0.348200
H931	H93	0.646600	0.141600	0.356700
H941	H94	0.703000	0.241400	0.330700
H951	H95	0.919000	0.350500	0.351100
H961	H96	0.864200	0.258500	0.378400
H971	H97	0.824900	0.805400	0.100970
H981	H98	0.941700	0.852000	0.078470
H991	H99	0.058700	0.783800	0.110570
H1001	H100	0.937300	0.732000	0.132170
H1011	H101	0.208100	0.025800	0.097870
H1021	H102	0.167300	0.111900	0.078470
H1031	H103	0.246600	0.283100	0.114670
H1041	H104	0.289100	0.197200	0.133670
H1051	H105	0.988300	0.193800	0.099970
H1061	H106	0.911100	0.072500	0.078770
H1071	H107	0.730700	0.968200	0.110670
H1081	H108	0.808900	0.082200	0.133370
H1091	H109	0.663400	0.124700	0.027370
H1101	H110	0.713600	0.213900	0.999670
H1111	H111	0.879700	0.248100	0.047070
H1121	H112	0.929600	0.335700	0.019070
H1131	H113	0.888300	0.520900	0.025370
H1141	H114	0.797000	0.475000	0.997870
H1151	H115	0.755600	0.610300	0.043970
H1161	H116	0.676100	0.573900	0.014870
H1171	H117	0.495000	0.353400	0.023370
H1181	H118	0.538400	0.297000	0.997370
H1191	H119	0.431500	0.081000	0.017770
H1201	H120	0.394300	0.135800	0.045070
H1211	H121	0.980500	0.175100	0.767630
H1221	H122	0.910300	0.058300	0.745130
H1231	H123	0.725100	0.941300	0.777230
H1241	H124	0.794700	0.062700	0.798830
H1251	H125	0.817700	0.791900	0.764530
H1261	H126	0.944600	0.832700	0.745130
H1271	H127	0.036500	0.753400	0.781330
H1281	H128	0.908100	0.710900	0.800330
H1291	H129	0.205500	0.011700	0.766630
H1301	H130	0.161400	0.088900	0.745430
H1311	H131	0.237500	0.269300	0.777330
H1321	H132	0.273300	0.191100	0.800030
H1331	H133	0.461300	0.336600	0.694030
H1341	H134	0.500300	0.286400	0.666330
H1351	H135	0.368400	0.120300	0.713730
H1361	H136	0.406100	0.070400	0.685730
H1371	H137	0.632600	0.111700	0.692030
H1381	H138	0.678000	0.203000	0.664530
H1391	H139	0.854700	0.244400	0.710630
H1401	H140	0.897800	0.323900	0.681530
H1411	H141	0.858400	0.505000	0.690030
H1421	H142	0.758600	0.461600	0.664030
H1431	H143	0.649500	0.568500	0.684430
H1441	H144	0.741500	0.605700	0.711730
C11	C1	0.843100	0.921600	0.932200
C21	C2	0.745200	0.783600	0.945300
C31	C3	0.609700	0.718400	0.929900
C41	C4	0.089600	0.914000	0.931500
C51	C5	0.219400	0.940100	0.947400
C61	C6	0.284800	0.867600	0.932400
C71	C7	0.097100	0.169900	0.932300
C81	C8	0.063900	0.269800	0.946300
C91	C9	0.142300	0.409400	0.934200
C101	C10	0.214800	0.489400	0.853600
C111	C11	0.246400	0.379300	0.859700
C121	C12	0.146400	0.245200	0.846700
C131	C13	0.490700	0.693000	0.851700
C141	C14	0.600500	0.837300	0.856800
C151	C15	0.735300	0.867500	0.844500
C161	C16	0.288800	0.766300	0.851200
C171	C17	0.146300	0.739100	0.857800
C181	C18	0.117400	0.841700	0.843800
C191	C19	0.078500	0.156900	0.598870
C201	C20	0.038400	0.254800	0.611970
C211	C21	0.108700	0.390300	0.596570
C221	C22	0.824400	0.910400	0.598170
C231	C23	0.720700	0.780600	0.614070
C241	C24	0.582800	0.715200	0.599070
C251	C25	0.072800	0.902900	0.598970
C261	C26	0.205900	0.936100	0.612970
C271	C27	0.267100	0.857700	0.600870
C281	C28	0.274600	0.785200	0.520270
C291	C29	0.132900	0.753600	0.526370
C301	C30	0.098800	0.853600	0.513370
C311	C31	0.202300	0.509300	0.518370
C321	C32	0.236800	0.399500	0.523470
C331	C33	0.132200	0.264700	0.511170
C341	C34	0.477500	0.711200	0.517870
C351	C35	0.592800	0.853700	0.524470
C361	C36	0.724300	0.882600	0.510470
C371	C37	0.078400	0.921500	0.265530
C381	C38	0.216400	0.961600	0.278630
C391	C39	0.281600	0.891300	0.263230
C401	C40	0.086000	0.175600	0.264830
C411	C41	0.059900	0.279300	0.280730
C421	C42	0.132400	0.417200	0.265730
C431	C43	0.830100	0.927200	0.265630
C441	C44	0.730200	0.794100	0.279630
C451	C45	0.590600	0.732900	0.267530
C461	C46	0.510600	0.725400	0.186930
C471	C47	0.620700	0.867100	0.193030
C481	C48	0.754800	0.901200	0.180030
C491	C49	0.307000	0.797700	0.185030
C501	C50	0.162700	0.763200	0.190130
C511	C51	0.132500	0.867800	0.177830
C521	C52	0.233700	0.522500	0.184530
C531	C53	0.260900	0.407200	0.191130
C541	C54	0.158300	0.275700	0.177130
C551	C55	0.156900	0.078400	0.432200
C561	C56	0.254800	0.216400	0.445300
C571	C57	0.390300	0.281600	0.429900
C581	C58	0.910400	0.086000	0.431500
C591	C59	0.780600	0.059900	0.447400
C601	C60	0.715200	0.132400	0.432400
C611	C61	0.902900	0.830100	0.432300
C621	C62	0.936100	0.730200	0.446300
C631	C63	0.857700	0.590600	0.434200
C641	C64	0.785200	0.510600	0.353600
C651	C65	0.753600	0.620700	0.359700
C661	C66	0.853600	0.754800	0.346700
C671	C67	0.509300	0.307000	0.351700
C681	C68	0.399500	0.162700	0.356800
C691	C69	0.264700	0.132500	0.344500
C701	C70	0.711200	0.233700	0.351200
C711	C71	0.853700	0.260900	0.357800
C721	C72	0.882600	0.158300	0.343800
C731	C73	0.921500	0.843100	0.098870
C741	C74	0.961600	0.745200	0.111970
C751	C75	0.891300	0.609700	0.096570
C761	C76	0.175600	0.089600	0.098170
C771	C77	0.279300	0.219400	0.114070
C781	C78	0.417200	0.284800	0.099070
C791	C79	0.927200	0.097100	0.098970
C801	C80	0.794100	0.063900	0.112970
C811	C81	0.732900	0.142300	0.100870
C821	C82	0.725400	0.214800	0.020270
C831	C83	0.867100	0.246400	0.026370
C841	C84	0.901200	0.146400	0.013370
C851	C85	0.797700	0.490700	0.018370
C861	C86	0.763200	0.600500	0.023470
C871	C87	0.867800	0.735300	0.011170
C881	C88	0.522500	0.288800	0.017870
C891	C89	0.407200	0.146300	0.024470
C901	C90	0.275700	0.117400	0.010470
C911	C91	0.921600	0.078500	0.765530
C921	C92	0.783600	0.038400	0.778630
C931	C93	0.718400	0.108700	0.763230
C941	C94	0.914000	0.824400	0.764830
C951	C95	0.940100	0.720700	0.780730
C961	C96	0.867600	0.582800	0.765730
C971	C97	0.169900	0.072800	0.765630
C981	C98	0.269800	0.205900	0.779630
C991	C99	0.409400	0.267100	0.767530
C1001	C100	0.489400	0.274600	0.686930
C1011	C101	0.379300	0.132900	0.693030
C1021	C102	0.245200	0.098800	0.680030
C1031	C103	0.693000	0.202300	0.685030
C1041	C104	0.837300	0.236800	0.690130
C1051	C105	0.867500	0.132200	0.677830
C1061	C106	0.766300	0.477500	0.684530
C1071	C107	0.739100	0.592800	0.691130
C1081	C108	0.841700	0.724300	0.677130
O11	O1	0.525300	0.755500	0.937900
O21	O2	0.583200	0.635000	0.911000
O31	O3	0.256100	0.751300	0.942100
O41	O4	0.361600	0.920200	0.911800
O51	O5	0.269500	0.477300	0.938400
O61	O6	0.087300	0.460700	0.920400
O71	O7	0.155900	0.142900	0.854100
O81	O8	0.057200	0.233700	0.830000
O91	O9	0.837400	0.976900	0.853300
O101	O10	0.746400	0.794800	0.826700
O111	O11	0.012500	0.841900	0.853000
O121	O12	0.187800	0.917200	0.824200
O131	O13	0.230200	0.474700	0.604570
O141	O14	0.051800	0.416800	0.577670
O151	O15	0.495200	0.743900	0.608770
O161	O16	0.558600	0.638400	0.578470
O171	O17	0.207800	0.730500	0.605070
O181	O18	0.373400	0.912700	0.587070
O191	O19	0.987000	0.844100	0.520770
O201	O20	0.176500	0.942800	0.496670
O211	O21	0.139500	0.162600	0.519970
O221	O22	0.048400	0.253600	0.493370
O231	O23	0.829400	0.987500	0.519670
O241	O24	0.729400	0.812200	0.490870
O251	O25	0.244500	0.769800	0.271230
O261	O26	0.365000	0.948200	0.244330
O271	O27	0.248700	0.504800	0.275430
O281	O28	0.079800	0.441400	0.245130
O291	O29	0.522700	0.792200	0.271730
O301	O30	0.539300	0.626600	0.253730
O311	O31	0.857100	0.013000	0.187430
O321	O32	0.766300	0.823500	0.163330
O331	O33	0.023100	0.860500	0.186630
O341	O34	0.205200	0.951600	0.160030
O351	O35	0.158100	0.170600	0.186330
O361	O36	0.082800	0.270600	0.157530
O371	O37	0.474700	0.244500	0.437900
O381	O38	0.416800	0.365000	0.411000
O391	O39	0.743900	0.248700	0.442100
O401	O40	0.638400	0.079800	0.411800
O411	O41	0.730500	0.522700	0.438400
O421	O42	0.912700	0.539300	0.420400
O431	O43	0.844100	0.857100	0.354100
O441	O44	0.942800	0.766300	0.330000
O451	O45	0.162600	0.023100	0.353300
O461	O46	0.253600	0.205200	0.326700
O471	O47	0.987500	0.158100	0.353000
O481	O48	0.812200	0.082800	0.324200
O491	O49	0.769800	0.525300	0.104570
O501	O50	0.948200	0.583200	0.077670
O511	O51	0.504800	0.256100	0.108770
O521	O52	0.441400	0.361600	0.078470
O531	O53	0.792200	0.269500	0.105070
O541	O54	0.626600	0.087300	0.087070
O551	O55	0.013000	0.155900	0.020770
O561	O56	0.823500	0.057200	0.996670
O571	O57	0.860500	0.837400	0.019970
O581	O58	0.951600	0.746400	0.993370
O591	O59	0.170600	0.012500	0.019670
O601	O60	0.270600	0.187800	0.990870
O611	O61	0.755500	0.230200	0.771230
O621	O62	0.635000	0.051800	0.744330
O631	O63	0.751300	0.495200	0.775430
O641	O64	0.920200	0.558600	0.745130
O651	O65	0.477300	0.207800	0.771730
O661	O66	0.460700	0.373400	0.753730
O671	O67	0.142900	0.987000	0.687430
O681	O68	0.233700	0.176500	0.663330
O691	O69	0.976900	0.139500	0.686630
O701	O70	0.794800	0.048400	0.660030
O711	O71	0.841900	0.829400	0.686330
O721	O72	0.917200	0.729400	0.657530
