data_YIWBEN_freeONLY_PM
_symmetry_space_group_name_H-M	'P1'
_cell_length_a	14.050000
_cell_length_b	16.348800
_cell_length_c	16.602000
_cell_angle_alpha	105.881000
_cell_angle_beta	90.000000
_cell_angle_gamma	115.448000
_symmetry_Int_Tables_number 1

loop_
_symmetry_equiv_pos_as_xyz
'x,y,z'

loop_
_atom_site_label
_atom_site_type_symbol
_atom_site_fract_x
_atom_site_fract_y
_atom_site_fract_z
Cd11	Cd1	0.045940	0.558380	0.911340
Cd21	Cd2	0.487560	0.441620	0.588660
Cd31	Cd3	0.954060	0.441620	0.088660
Cd41	Cd4	0.512440	0.558380	0.411340
H11	H1	0.249100	0.334400	0.487200
H21	H2	0.345200	0.544800	0.199700
H31	H3	0.085300	0.334400	0.987200
H41	H4	0.748600	0.665400	0.010000
H51	H5	0.078800	0.757400	0.292000
H61	H6	0.308100	0.979800	0.616500
H71	H7	0.372300	0.226400	0.434800
H81	H8	0.758500	0.319400	0.451200
H91	H9	0.321400	0.242600	0.208000
H101	H10	0.921200	0.242600	0.708000
H111	H11	0.660700	0.860000	0.147700
H121	H12	0.391100	0.273200	0.805800
H131	H13	0.439100	0.680600	0.048800
H141	H14	0.750500	0.114000	0.071100
H151	H15	0.671700	0.979800	0.116500
H161	H16	0.339300	0.140000	0.852300
H171	H17	0.654800	0.455200	0.800300
H181	H18	0.357800	0.464000	0.836100
H191	H19	0.251400	0.334600	0.990000
H201	H20	0.395500	0.663600	0.532100
H211	H21	0.893800	0.536000	0.663900
H221	H22	0.916800	0.665400	0.510000
H231	H23	0.750900	0.665600	0.512800
H241	H24	0.199300	0.860000	0.647700
H251	H25	0.810400	0.544200	0.180100
H261	H26	0.185300	0.543600	0.195400
H271	H27	0.225100	0.079400	0.156400
H281	H28	0.284500	0.067400	0.387700
H291	H29	0.530400	0.509600	0.846500
H301	H30	0.642200	0.536000	0.163900
H311	H31	0.641700	0.456400	0.304600
H321	H32	0.979200	0.509600	0.346500
H331	H33	0.608900	0.726800	0.194200
H341	H34	0.060300	0.633400	0.494800
H351	H35	0.715500	0.932600	0.612300
H361	H36	0.145700	0.920600	0.343600
H371	H37	0.266200	0.455800	0.319900
H381	H38	0.083200	0.334600	0.490000
H391	H39	0.426900	0.366600	0.005200
H401	H40	0.358300	0.543600	0.695400
H411	H41	0.145900	0.773600	0.065200
H421	H42	0.469600	0.490400	0.153500
H431	H43	0.691900	0.020200	0.383500
H441	H44	0.814700	0.456400	0.804600
H451	H45	0.249500	0.886000	0.928900
H461	H46	0.241500	0.680600	0.548800
H471	H47	0.800400	0.455200	0.300300
H481	H48	0.854100	0.226400	0.934800
H491	H49	0.636500	0.886000	0.428900
H501	H50	0.774900	0.920600	0.843600
H511	H51	0.363500	0.114000	0.571100
H521	H52	0.573100	0.633400	0.994800
H531	H53	0.106200	0.464000	0.336100
H541	H54	0.217100	0.932600	0.112300
H551	H55	0.914700	0.665600	0.012800
H561	H56	0.117900	0.726800	0.694200
H571	H57	0.939700	0.366600	0.505200
H581	H58	0.199600	0.544800	0.699700
H591	H59	0.560900	0.319400	0.951200
H601	H60	0.627700	0.773600	0.565200
H611	H61	0.328300	0.020200	0.883500
H621	H62	0.733800	0.544200	0.680100
H631	H63	0.189600	0.455800	0.819900
H641	H64	0.800700	0.140000	0.352300
H651	H65	0.882100	0.273200	0.305800
H661	H66	0.604500	0.336400	0.467900
H671	H67	0.731900	0.336400	0.967900
H681	H68	0.854300	0.079400	0.656400
H691	H69	0.782900	0.067400	0.887700
H701	H70	0.678600	0.757400	0.792000
H711	H71	0.020800	0.490400	0.653500
H721	H72	0.268100	0.663600	0.032100
C11	C1	0.122900	0.441800	0.597700
C21	C2	0.260700	0.499600	0.366700
C31	C3	0.359700	0.119600	0.628100
C41	C4	0.148500	0.891600	0.287600
C51	C5	0.131000	0.705400	0.844900
C61	C6	0.138400	0.378000	0.031800
C71	C7	0.760400	0.622000	0.468200
C81	C8	0.793100	0.499800	0.345100
C91	C9	0.843000	0.423800	0.561800
C101	C10	0.713200	0.377000	0.008200
C111	C11	0.755200	0.364600	0.497900
C121	C12	0.341800	0.507600	0.875300
C131	C13	0.311100	0.044800	0.735500
C141	C14	0.803300	0.500400	0.847300
C151	C15	0.336200	0.623000	0.491800
C161	C16	0.761100	0.500400	0.133300
C171	C17	0.697100	0.500400	0.347300
C181	C18	0.256900	0.108400	0.212400
C191	C19	0.244800	0.635400	0.502100
C201	C20	0.733700	0.044800	0.235500
C211	C21	0.240100	0.880400	0.871900
C221	C22	0.302900	0.499600	0.652700
C231	C23	0.419200	0.576200	0.938200
C241	C24	0.623300	0.785400	0.232600
C251	C25	0.687300	0.793600	0.755500
C261	C26	0.426500	0.448600	0.103100
C271	C27	0.022100	0.448600	0.603100
C281	C28	0.658100	0.865800	0.204900
C291	C29	0.055100	0.639400	0.138200
C301	C30	0.106300	0.793600	0.255500
C311	C31	0.207700	0.865800	0.704900
C321	C32	0.750700	0.946600	0.733500
C331	C33	0.851500	0.108400	0.712400
C341	C34	0.058900	0.589000	0.445300
C351	C35	0.688900	0.955200	0.264500
C361	C36	0.818500	0.208200	0.186500
C371	C37	0.266300	0.955200	0.764500
C381	C38	0.708300	0.898400	0.650200
C391	C39	0.286800	0.623000	0.991800
C401	C40	0.195900	0.946600	0.233500
C411	C41	0.656100	0.802200	0.621900
C421	C42	0.792300	0.134200	0.295100
C431	C43	0.681100	0.558200	0.902300
C441	C44	0.834200	0.492400	0.624700
C451	C45	0.861500	0.622200	0.467000
C461	C46	0.877100	0.558200	0.402300
C471	C47	0.580800	0.423800	0.061800
C481	C48	0.640300	0.880400	0.371900
C491	C49	0.357100	0.253800	0.330200
C501	C50	0.804100	0.053400	0.766500
C511	C51	0.861600	0.622000	0.968200
C521	C52	0.853900	0.197800	0.878100
C531	C53	0.609400	0.364600	0.997900
C541	C54	0.658200	0.492400	0.124700
C551	C55	0.893700	0.206400	0.744500
C561	C56	0.239600	0.378000	0.531800
C571	C57	0.941100	0.411000	0.554700
C581	C58	0.341900	0.134200	0.795100
C591	C59	0.574400	0.705400	0.344900
C601	C60	0.323500	0.038600	0.655200
C611	C61	0.425600	0.294600	0.655100
C621	C62	0.146100	0.802200	0.121900
C631	C63	0.760700	0.622200	0.967000
C641	C64	0.573500	0.551400	0.896900
C651	C65	0.291700	0.101600	0.349800
C661	C66	0.944900	0.360600	0.861800
C671	C67	0.196700	0.499600	0.152700
C681	C68	0.739300	0.500400	0.633300
C691	C69	0.706700	0.499800	0.845100
C701	C70	0.809900	0.101600	0.849800
C711	C71	0.312700	0.206400	0.244500
C721	C72	0.415700	0.360600	0.361800
C731	C73	0.206900	0.500200	0.654900
C741	C74	0.584300	0.639400	0.638200
C751	C75	0.343900	0.197800	0.378100
C761	C76	0.318900	0.441800	0.097700
C771	C77	0.390600	0.635400	0.002100
C781	C78	0.610300	0.791800	0.313500
C791	C79	0.376700	0.214600	0.767400
C801	C80	0.676500	0.961400	0.344800
C811	C81	0.469900	0.411000	0.054700
C821	C82	0.181500	0.791800	0.813500
C831	C83	0.239300	0.377800	0.033000
C841	C84	0.165800	0.507600	0.375300
C851	C85	0.162100	0.785400	0.732600
C861	C86	0.530100	0.589000	0.945300
C871	C87	0.896700	0.253800	0.830200
C881	C88	0.293300	0.500200	0.154900
C891	C89	0.715100	0.038600	0.155200
C901	C90	0.759900	0.119600	0.128100
C911	C91	0.190100	0.898400	0.150200
C921	C92	0.743100	0.891600	0.787600
C931	C93	0.284900	0.961400	0.844800
C941	C94	0.642900	0.746200	0.669800
C951	C95	0.103300	0.746200	0.169800
C961	C96	0.138500	0.377800	0.533000
C971	C97	0.977900	0.551400	0.396900
C981	C98	0.157000	0.576200	0.438200
C991	C99	0.837900	0.214600	0.267400
C1001	C100	0.869000	0.294600	0.155100
C1011	C101	0.238900	0.499600	0.866700
C1021	C102	0.663800	0.377000	0.508200
C1031	C103	0.249300	0.053400	0.266500
C1041	C104	0.389700	0.208200	0.686500
N11	N1	0.345300	0.557600	0.428800
N21	N2	0.883200	0.562800	0.909100
N31	N3	0.320400	0.437200	0.590900
N41	N4	0.212300	0.557600	0.928800
N51	N5	0.787700	0.442400	0.071200
N61	N6	0.116800	0.437200	0.090900
N71	N7	0.654700	0.442400	0.571200
N81	N8	0.679600	0.562800	0.409100
O11	O1	0.540500	0.622600	0.286700
O21	O2	0.048660	0.597720	0.060300
O31	O3	0.549060	0.597720	0.560300
O41	O4	0.424000	0.283800	0.579100
O51	O5	0.425540	0.406280	0.309300
O61	O6	0.140200	0.716200	0.920900
O71	O7	0.082100	0.622600	0.786700
O81	O8	0.917900	0.377400	0.213300
O91	O9	0.859800	0.283800	0.079100
O101	O10	0.459500	0.377400	0.713300
O111	O11	0.576000	0.716200	0.420900
O121	O12	0.574460	0.593720	0.690700
O131	O13	0.019260	0.593720	0.190700
O141	O14	0.450940	0.402280	0.439700
O151	O15	0.980740	0.406280	0.809300
O161	O16	0.951340	0.402280	0.939700
