data_YOCCIE_freeONLY_PM
_symmetry_space_group_name_H-M	'P1'
_cell_length_a	16.264400
_cell_length_b	16.264400
_cell_length_c	30.563000
_cell_angle_alpha	90.000000
_cell_angle_beta	90.000000
_cell_angle_gamma	90.000000
_symmetry_Int_Tables_number 1

loop_
_symmetry_equiv_pos_as_xyz
'x,y,z'

loop_
_atom_site_label
_atom_site_type_symbol
_atom_site_fract_x
_atom_site_fract_y
_atom_site_fract_z
Zn11	Zn1	0.138040	0.090210	0.703670
Zn21	Zn2	0.375790	0.387830	0.600420
Zn31	Zn3	0.590210	0.638040	0.796330
Zn41	Zn4	0.887830	0.624210	0.399580
Zn51	Zn5	0.887830	0.875790	0.899580
Zn61	Zn6	0.361960	0.090210	0.203670
Zn71	Zn7	0.138040	0.409790	0.203670
Zn81	Zn8	0.638040	0.590210	0.296330
Zn91	Zn9	0.090210	0.138040	0.203670
Zn101	Zn10	0.612170	0.875790	0.399580
Zn111	Zn11	0.612170	0.624210	0.899580
Zn121	Zn12	0.124210	0.387830	0.100420
Zn131	Zn13	0.409790	0.138040	0.703670
Zn141	Zn14	0.624210	0.887830	0.899580
Zn151	Zn15	0.875790	0.612170	0.899580
Zn161	Zn16	0.112170	0.124210	0.100420
Zn171	Zn17	0.361960	0.409790	0.703670
Zn181	Zn18	0.861960	0.909790	0.296330
Zn191	Zn19	0.387830	0.375790	0.100420
Zn201	Zn20	0.861960	0.590210	0.796330
Zn211	Zn21	0.387830	0.124210	0.600420
Zn221	Zn22	0.590210	0.861960	0.296330
Zn231	Zn23	0.090210	0.361960	0.703670
Zn241	Zn24	0.375790	0.112170	0.100420
Zn251	Zn25	0.909790	0.638040	0.296330
Zn261	Zn26	0.112170	0.375790	0.600420
Zn271	Zn27	0.409790	0.361960	0.203670
Zn281	Zn28	0.624210	0.612170	0.399580
Zn291	Zn29	0.875790	0.887830	0.399580
Zn301	Zn30	0.124210	0.112170	0.600420
Zn311	Zn31	0.638040	0.909790	0.796330
Zn321	Zn32	0.909790	0.861960	0.796330
H11	H1	0.140000	0.228500	0.150500
H21	H2	0.939600	0.690900	0.156400
H31	H3	0.482200	0.885500	0.589100
H41	H4	0.817900	0.942300	0.533100
H51	H5	0.892800	0.502800	0.472000
H61	H6	0.598800	0.986500	0.218900
H71	H7	0.114500	0.982200	0.410900
H81	H8	0.448900	0.962900	0.462000
H91	H9	0.124600	0.520500	0.397700
H101	H10	0.901200	0.513500	0.218900
H111	H11	0.479500	0.875400	0.102300
H121	H12	0.502800	0.607200	0.472000
H131	H13	0.013500	0.098800	0.781100
H141	H14	0.098800	0.486500	0.781100
H151	H15	0.051100	0.962900	0.962000
H161	H16	0.513500	0.901200	0.718900
H171	H17	0.513500	0.598800	0.218900
H181	H18	0.771500	0.860000	0.349500
H191	H19	0.309100	0.439600	0.843600
H201	H20	0.442300	0.182100	0.466900
H211	H21	0.939600	0.809100	0.656400
H221	H22	0.317900	0.442300	0.466900
H231	H23	0.479500	0.624600	0.602300
H241	H24	0.948900	0.037100	0.038000
H251	H25	0.982200	0.114500	0.910900
H261	H26	0.037100	0.551100	0.038000
H271	H27	0.607200	0.502800	0.972000
H281	H28	0.962900	0.051100	0.462000
H291	H29	0.860000	0.728500	0.349500
H301	H30	0.462900	0.551100	0.538000
H311	H31	0.182100	0.057700	0.466900
H321	H32	0.817900	0.557700	0.033100
H331	H33	0.598800	0.513500	0.718900
H341	H34	0.360000	0.271500	0.150500
H351	H35	0.020500	0.875400	0.602300
H361	H36	0.885500	0.017800	0.589100
H371	H37	0.002800	0.107200	0.528000
H381	H38	0.557700	0.817900	0.533100
H391	H39	0.537100	0.448900	0.462000
H401	H40	0.439600	0.190900	0.843600
H411	H41	0.809100	0.560400	0.656400
H421	H42	0.979500	0.375400	0.897700
H431	H43	0.140000	0.271500	0.650500
H441	H44	0.107200	0.002800	0.028000
H451	H45	0.607200	0.997200	0.472000
H461	H46	0.228500	0.140000	0.650500
H471	H47	0.271500	0.360000	0.650500
H481	H48	0.682100	0.557700	0.533100
H491	H49	0.624600	0.479500	0.102300
H501	H50	0.017800	0.885500	0.089100
H511	H51	0.385500	0.982200	0.910900
H521	H52	0.551100	0.462900	0.038000
H531	H53	0.997200	0.607200	0.972000
H541	H54	0.497200	0.392800	0.528000
H551	H55	0.002800	0.392800	0.028000
H561	H56	0.057700	0.317900	0.466900
H571	H57	0.520500	0.124600	0.897700
H581	H58	0.997200	0.892800	0.472000
H591	H59	0.942300	0.817900	0.033100
H601	H60	0.502800	0.892800	0.972000
H611	H61	0.979500	0.124600	0.397700
H621	H62	0.190900	0.060400	0.843600
H631	H63	0.560400	0.809100	0.156400
H641	H64	0.771500	0.640000	0.849500
H651	H65	0.497200	0.107200	0.028000
H661	H66	0.962900	0.448900	0.962000
H671	H67	0.309100	0.060400	0.343600
H681	H68	0.942300	0.682100	0.533100
H691	H69	0.551100	0.037100	0.538000
H701	H70	0.098800	0.013500	0.281100
H711	H71	0.182100	0.442300	0.966900
H721	H72	0.640000	0.771500	0.349500
H731	H73	0.360000	0.228500	0.650500
H741	H74	0.557700	0.682100	0.033100
H751	H75	0.401200	0.013500	0.781100
H761	H76	0.462900	0.948900	0.038000
H771	H77	0.375400	0.979500	0.397700
H781	H78	0.013500	0.401200	0.281100
H791	H79	0.271500	0.140000	0.150500
H801	H80	0.982200	0.385500	0.410900
H811	H81	0.517800	0.114500	0.410900
H821	H82	0.728500	0.640000	0.349500
H831	H83	0.690900	0.939600	0.656400
H841	H84	0.901200	0.986500	0.718900
H851	H85	0.439600	0.309100	0.343600
H861	H86	0.860000	0.771500	0.849500
H871	H87	0.986500	0.901200	0.218900
H881	H88	0.375400	0.520500	0.897700
H891	H89	0.060400	0.309100	0.843600
H901	H90	0.875400	0.020500	0.102300
H911	H91	0.107200	0.497200	0.528000
H921	H92	0.392800	0.497200	0.028000
H931	H93	0.114500	0.517800	0.910900
H941	H94	0.986500	0.598800	0.718900
H951	H95	0.037100	0.948900	0.538000
H961	H96	0.809100	0.939600	0.156400
H971	H97	0.875400	0.479500	0.602300
H981	H98	0.017800	0.614500	0.589100
H991	H99	0.640000	0.728500	0.849500
H1001	H100	0.228500	0.360000	0.150500
H1011	H101	0.057700	0.182100	0.966900
H1021	H102	0.392800	0.002800	0.528000
H1031	H103	0.517800	0.385500	0.910900
H1041	H104	0.060400	0.190900	0.343600
H1051	H105	0.682100	0.942300	0.033100
H1061	H106	0.020500	0.624600	0.102300
H1071	H107	0.385500	0.517800	0.410900
H1081	H108	0.728500	0.860000	0.849500
H1091	H109	0.885500	0.482200	0.089100
H1101	H110	0.448900	0.537100	0.962000
H1111	H111	0.624600	0.020500	0.602300
H1121	H112	0.486500	0.401200	0.781100
H1131	H113	0.190900	0.439600	0.343600
H1141	H114	0.560400	0.690900	0.656400
H1151	H115	0.317900	0.057700	0.966900
H1161	H116	0.442300	0.317900	0.966900
H1171	H117	0.614500	0.017800	0.089100
H1181	H118	0.401200	0.486500	0.281100
H1191	H119	0.892800	0.997200	0.972000
H1201	H120	0.482200	0.614500	0.089100
H1211	H121	0.948900	0.462900	0.538000
H1221	H122	0.537100	0.051100	0.962000
H1231	H123	0.614500	0.482200	0.589100
H1241	H124	0.124600	0.979500	0.897700
H1251	H125	0.520500	0.375400	0.397700
H1261	H126	0.486500	0.098800	0.281100
H1271	H127	0.690900	0.560400	0.156400
H1281	H128	0.051100	0.537100	0.462000
C11	C1	0.628900	0.983000	0.193100
C21	C2	0.592100	0.006600	0.153600
C31	C3	0.002800	0.638700	0.615500
C41	C4	0.455000	0.254100	0.344600
C51	C5	0.038500	0.264100	0.465700
C61	C6	0.361700	0.005400	0.502500
C71	C7	0.997200	0.138700	0.884500
C81	C8	0.455200	0.207400	0.305600
C91	C9	0.066400	0.248400	0.763600
C101	C10	0.219400	0.477500	0.884400
C111	C11	0.207400	0.044800	0.305600
C121	C12	0.149400	0.508400	0.424300
C131	C13	0.038500	0.235900	0.965700
C141	C14	0.219800	0.031600	0.003800
C151	C15	0.748400	0.933600	0.236400
C161	C16	0.955000	0.754100	0.655400
C171	C17	0.022500	0.219400	0.884400
C181	C18	0.522500	0.719400	0.115600
C191	C19	0.460500	0.507500	0.153900
C201	C20	0.104400	0.516600	0.463000
C211	C21	0.505400	0.861700	0.997500
C221	C22	0.039500	0.992500	0.153900
C231	C23	0.092100	0.993400	0.346400
C241	C24	0.994600	0.861700	0.497500
C251	C25	0.933600	0.751600	0.236400
C261	C26	0.507500	0.039500	0.153900
C271	C27	0.442800	0.256700	0.046300
C281	C28	0.138300	0.005400	0.002500
C291	C29	0.494600	0.138300	0.002500
C301	C30	0.361300	0.997200	0.884500
C311	C31	0.066400	0.251600	0.263600
C321	C32	0.254100	0.045000	0.344600
C331	C33	0.007500	0.539500	0.846100
C341	C34	0.016600	0.895600	0.537000
C351	C35	0.991600	0.350600	0.924300
C361	C36	0.754100	0.955000	0.155400
C371	C37	0.756700	0.557200	0.953700
C381	C38	0.730300	0.982400	0.574700
C391	C39	0.243300	0.442800	0.046300
C401	C40	0.138300	0.494600	0.502500
C411	C41	0.254100	0.455000	0.844600
C421	C42	0.545000	0.754100	0.155400
C431	C43	0.508400	0.149400	0.924300
C441	C44	0.006600	0.592100	0.653600
C451	C45	0.057200	0.256700	0.546300
C461	C46	0.433600	0.251600	0.763600
C471	C47	0.983400	0.104400	0.463000
C481	C48	0.497200	0.638700	0.115500
C491	C49	0.230300	0.482400	0.425300
C501	C50	0.942800	0.743300	0.453700
C511	C51	0.522500	0.780600	0.615600
C521	C52	0.280600	0.022500	0.884400
C531	C53	0.361700	0.494600	0.002500
C541	C54	0.256700	0.057200	0.046300
C551	C55	0.861300	0.002800	0.615500
C561	C56	0.045000	0.245900	0.344600
C571	C57	0.219400	0.022500	0.384400
C581	C58	0.292600	0.455200	0.305600
C591	C59	0.745900	0.955000	0.655400
C601	C60	0.251600	0.433600	0.263600
C611	C61	0.506600	0.092100	0.346400
C621	C62	0.482400	0.230300	0.925300
C631	C63	0.492500	0.960500	0.846100
C641	C64	0.538500	0.764100	0.534300
C651	C65	0.395600	0.516600	0.963000
C661	C66	0.968400	0.780200	0.496200
C671	C67	0.264100	0.461500	0.465700
C681	C68	0.649400	0.008400	0.575700
C691	C69	0.022500	0.280600	0.384400
C701	C70	0.407900	0.993400	0.846400
C711	C71	0.483400	0.604400	0.537000
C721	C72	0.008400	0.649400	0.075700
C731	C73	0.031600	0.219800	0.503800
C741	C74	0.128900	0.483000	0.806900
C751	C75	0.743300	0.557200	0.453700
C761	C76	0.566400	0.748400	0.236400
C771	C77	0.017000	0.128900	0.806900
C781	C78	0.243300	0.057200	0.546300
C791	C79	0.955200	0.792600	0.194400
C801	C80	0.961500	0.764100	0.034300
C811	C81	0.491600	0.850600	0.075700
C821	C82	0.491600	0.649400	0.575700
C831	C83	0.592100	0.493400	0.653600
C841	C84	0.960500	0.007500	0.846100
C851	C85	0.256700	0.442800	0.546300
C861	C86	0.992500	0.460500	0.153900
C871	C87	0.128900	0.017000	0.306900
C881	C88	0.907900	0.006600	0.653600
C891	C89	0.539500	0.492500	0.846100
C901	C90	0.961500	0.735900	0.534300
C911	C91	0.850600	0.008400	0.075700
C921	C92	0.016600	0.604400	0.037000
C931	C93	0.057200	0.243300	0.046300
C941	C94	0.292600	0.044800	0.805600
C951	C95	0.461500	0.235900	0.465700
C961	C96	0.482400	0.269700	0.425300
C971	C97	0.138700	0.997200	0.384500
C981	C98	0.992500	0.039500	0.653900
C991	C99	0.997200	0.361300	0.384500
C1001	C100	0.850600	0.491600	0.575700
C1011	C101	0.531600	0.719800	0.496200
C1021	C102	0.044800	0.207400	0.805600
C1031	C103	0.248400	0.433600	0.763600
C1041	C104	0.460500	0.992500	0.653900
C1051	C105	0.638700	0.497200	0.615500
C1061	C106	0.977500	0.719400	0.615600
C1071	C107	0.566400	0.751600	0.736400
C1081	C108	0.433600	0.248400	0.263600
C1091	C109	0.780600	0.522500	0.115600
C1101	C110	0.977500	0.780600	0.115600
C1111	C111	0.442800	0.243300	0.546300
C1121	C112	0.477500	0.280600	0.884400
C1131	C113	0.230300	0.017600	0.925300
C1141	C114	0.982400	0.730300	0.074700
C1151	C115	0.730300	0.517600	0.074700
C1161	C116	0.493400	0.592100	0.153600
C1171	C117	0.492500	0.539500	0.346100
C1181	C118	0.993400	0.407900	0.346400
C1191	C119	0.764100	0.538500	0.034300
C1201	C120	0.455200	0.292600	0.805600
C1211	C121	0.104400	0.983400	0.963000
C1221	C122	0.483000	0.371100	0.806900
C1231	C123	0.544800	0.792600	0.694400
C1241	C124	0.960500	0.492500	0.346100
C1251	C125	0.006600	0.907900	0.153600
C1261	C126	0.871100	0.517000	0.193100
C1271	C127	0.604400	0.483400	0.037000
C1281	C128	0.557200	0.743300	0.953700
C1291	C129	0.719400	0.977500	0.115600
C1301	C130	0.516600	0.395600	0.463000
C1311	C131	0.371100	0.483000	0.306900
C1321	C132	0.861700	0.994600	0.997500
C1331	C133	0.461500	0.264100	0.965700
C1341	C134	0.743300	0.942800	0.953700
C1351	C135	0.044800	0.292600	0.305600
C1361	C136	0.942800	0.756700	0.953700
C1371	C137	0.468400	0.280200	0.503800
C1381	C138	0.895600	0.483400	0.537000
C1391	C139	0.002800	0.861300	0.115500
C1401	C140	0.968400	0.719800	0.996200
C1411	C141	0.861700	0.505400	0.497500
C1421	C142	0.993400	0.092100	0.846400
C1431	C143	0.994600	0.638300	0.997500
C1441	C144	0.219800	0.468400	0.503800
C1451	C145	0.502800	0.138700	0.384500
C1461	C146	0.269700	0.017600	0.425300
C1471	C147	0.769700	0.982400	0.074700
C1481	C148	0.769700	0.517600	0.574700
C1491	C149	0.045000	0.254100	0.844600
C1501	C150	0.005400	0.361700	0.002500
C1511	C151	0.507500	0.460500	0.653900
C1521	C152	0.517000	0.628900	0.193100
C1531	C153	0.008400	0.850600	0.575700
C1541	C154	0.955200	0.707400	0.694400
C1551	C155	0.468400	0.219800	0.003800
C1561	C156	0.477500	0.219400	0.384400
C1571	C157	0.531600	0.780200	0.996200
C1581	C158	0.235900	0.461500	0.965700
C1591	C159	0.005400	0.138300	0.502500
C1601	C160	0.907900	0.493400	0.153600
C1611	C161	0.719800	0.968400	0.496200
C1621	C162	0.280600	0.477500	0.384400
C1631	C163	0.751600	0.933600	0.736400
C1641	C164	0.871100	0.983000	0.693100
C1651	C165	0.017600	0.230300	0.425300
C1661	C166	0.483400	0.895600	0.037000
C1671	C167	0.245900	0.455000	0.344600
C1681	C168	0.017600	0.269700	0.925300
C1691	C169	0.604400	0.016600	0.537000
C1701	C170	0.745900	0.545000	0.155400
C1711	C171	0.407900	0.506600	0.346400
C1721	C172	0.638300	0.505400	0.997500
C1731	C173	0.557200	0.756700	0.453700
C1741	C174	0.235900	0.038500	0.465700
C1751	C175	0.517000	0.871100	0.693100
C1761	C176	0.982400	0.769700	0.574700
C1771	C177	0.780200	0.968400	0.996200
C1781	C178	0.638700	0.002800	0.115500
C1791	C179	0.649400	0.491600	0.075700
C1801	C180	0.350600	0.508400	0.924300
C1811	C181	0.792600	0.955200	0.694400
C1821	C182	0.516600	0.104400	0.963000
C1831	C183	0.031600	0.280200	0.003800
C1841	C184	0.502800	0.361300	0.884500
C1851	C185	0.371100	0.017000	0.806900
C1861	C186	0.138700	0.502800	0.884500
C1871	C187	0.280200	0.468400	0.003800
C1881	C188	0.735900	0.538500	0.534300
C1891	C189	0.517600	0.730300	0.574700
C1901	C190	0.544800	0.707400	0.194400
C1911	C191	0.707400	0.955200	0.194400
C1921	C192	0.983000	0.628900	0.693100
C1931	C193	0.494600	0.361700	0.502500
C1941	C194	0.505400	0.638300	0.497500
C1951	C195	0.264100	0.038500	0.965700
C1961	C196	0.092100	0.506600	0.846400
C1971	C197	0.792600	0.544800	0.194400
C1981	C198	0.361300	0.502800	0.384500
C1991	C199	0.719800	0.531600	0.996200
C2001	C200	0.207400	0.455200	0.805600
C2011	C201	0.269700	0.482400	0.925300
C2021	C202	0.545000	0.745900	0.655400
C2031	C203	0.506600	0.407900	0.846400
C2041	C204	0.493400	0.907900	0.653600
C2051	C205	0.538500	0.735900	0.034300
C2061	C206	0.707400	0.544800	0.694400
C2071	C207	0.983000	0.871100	0.193100
C2081	C208	0.455000	0.245900	0.844600
C2091	C209	0.933600	0.748400	0.736400
C2101	C210	0.280200	0.031600	0.503800
C2111	C211	0.719400	0.522500	0.615600
C2121	C212	0.395600	0.983400	0.463000
C2131	C213	0.754100	0.545000	0.655400
C2141	C214	0.245900	0.045000	0.844600
C2151	C215	0.483000	0.128900	0.306900
C2161	C216	0.780600	0.977500	0.615600
C2171	C217	0.539500	0.007500	0.346100
C2181	C218	0.895600	0.016600	0.037000
C2191	C219	0.508400	0.350600	0.424300
C2201	C220	0.007500	0.960500	0.346100
C2211	C221	0.350600	0.991600	0.424300
C2221	C222	0.861300	0.497200	0.115500
C2231	C223	0.638300	0.994600	0.497500
C2241	C224	0.764100	0.961500	0.534300
C2251	C225	0.149400	0.991600	0.924300
C2261	C226	0.248400	0.066400	0.263600
C2271	C227	0.628900	0.517000	0.693100
C2281	C228	0.991600	0.149400	0.424300
C2291	C229	0.780200	0.531600	0.496200
C2301	C230	0.756700	0.942800	0.453700
C2311	C231	0.983400	0.395600	0.963000
C2321	C232	0.751600	0.566400	0.236400
C2331	C233	0.517600	0.769700	0.074700
C2341	C234	0.039500	0.507500	0.653900
C2351	C235	0.735900	0.961500	0.034300
C2361	C236	0.955000	0.745900	0.155400
C2371	C237	0.251600	0.066400	0.763600
C2381	C238	0.497200	0.861300	0.615500
C2391	C239	0.017000	0.371100	0.306900
C2401	C240	0.748400	0.566400	0.736400
O11	O1	0.589200	0.708200	0.268900
O21	O2	0.573000	0.785300	0.921100
O31	O3	0.410800	0.291800	0.731100
O41	O4	0.147900	0.322900	0.652920
O51	O5	0.941200	0.674000	0.237550
O61	O6	0.438700	0.165900	0.547520
O71	O7	0.177100	0.147900	0.652920
O81	O8	0.555100	0.523600	0.809640
O91	O9	0.674000	0.558800	0.237550
O101	O10	0.089200	0.208200	0.731100
O111	O11	0.938700	0.665900	0.452480
O121	O12	0.285300	0.073000	0.578900
O131	O13	0.058800	0.326000	0.762450
O141	O14	0.558800	0.674000	0.737550
O151	O15	0.441200	0.174000	0.762450
O161	O16	0.973200	0.950200	0.383030
O171	O17	0.476400	0.055100	0.190360
O181	O18	0.334100	0.061300	0.047520
O191	O19	0.950200	0.973200	0.883030
O201	O20	0.165900	0.061300	0.547520
O211	O21	0.055100	0.023600	0.190360
O221	O22	0.665900	0.561300	0.452480
O231	O23	0.023600	0.444900	0.190360
O241	O24	0.555100	0.976400	0.309640
O251	O25	0.523600	0.555100	0.309640
O261	O26	0.826000	0.941200	0.237550
O271	O27	0.549800	0.526800	0.883030
O281	O28	0.023600	0.055100	0.690360
O291	O29	0.352100	0.177100	0.652920
O301	O30	0.549800	0.973200	0.383030
O311	O31	0.589200	0.791800	0.768900
O321	O32	0.944900	0.976400	0.809640
O331	O33	0.973200	0.549800	0.883030
O341	O34	0.334100	0.438700	0.547520
O351	O35	0.473200	0.450200	0.616970
O361	O36	0.427000	0.285300	0.578900
O371	O37	0.058800	0.174000	0.262450
O381	O38	0.561300	0.834100	0.452480
O391	O39	0.785300	0.573000	0.421100
O401	O40	0.049800	0.026800	0.116970
O411	O41	0.558800	0.826000	0.237550
O421	O42	0.285300	0.427000	0.078900
O431	O43	0.822900	0.852100	0.347080
O441	O44	0.647900	0.822900	0.347080
O451	O45	0.291800	0.410800	0.231100
O461	O46	0.441200	0.326000	0.262450
O471	O47	0.708200	0.910800	0.268900
O481	O48	0.714700	0.573000	0.921100
O491	O49	0.826000	0.558800	0.737550
O501	O50	0.061300	0.334100	0.547520
O511	O51	0.708200	0.589200	0.768900
O521	O52	0.322900	0.352100	0.652920
O531	O53	0.026800	0.450200	0.116970
O541	O54	0.473200	0.049800	0.116970
O551	O55	0.322900	0.147900	0.152920
O561	O56	0.834100	0.938700	0.452480
O571	O57	0.410800	0.208200	0.231100
O581	O58	0.061300	0.165900	0.047520
O591	O59	0.791800	0.910800	0.768900
O601	O60	0.910800	0.708200	0.768900
O611	O61	0.526800	0.549800	0.383030
O621	O62	0.326000	0.058800	0.262450
O631	O63	0.852100	0.822900	0.847080
O641	O64	0.852100	0.677100	0.347080
O651	O65	0.677100	0.647900	0.347080
O661	O66	0.208200	0.089200	0.231100
O671	O67	0.976400	0.555100	0.809640
O681	O68	0.174000	0.441200	0.262450
O691	O69	0.444900	0.023600	0.690360
O701	O70	0.927000	0.785300	0.421100
O711	O71	0.647900	0.677100	0.847080
O721	O72	0.665900	0.938700	0.952480
O731	O73	0.214700	0.073000	0.078900
O741	O74	0.938700	0.834100	0.952480
O751	O75	0.049800	0.473200	0.616970
O761	O76	0.950200	0.526800	0.383030
O771	O77	0.438700	0.334100	0.047520
O781	O78	0.177100	0.352100	0.152920
O791	O79	0.944900	0.523600	0.309640
O801	O80	0.834100	0.561300	0.952480
O811	O81	0.352100	0.322900	0.152920
O821	O82	0.026800	0.049800	0.616970
O831	O83	0.927000	0.714700	0.921100
O841	O84	0.714700	0.927000	0.421100
O851	O85	0.910800	0.791800	0.268900
O861	O86	0.326000	0.441200	0.762450
O871	O87	0.208200	0.410800	0.731100
O881	O88	0.174000	0.058800	0.762450
O891	O89	0.055100	0.476400	0.690360
O901	O90	0.573000	0.714700	0.421100
O911	O91	0.677100	0.852100	0.847080
O921	O92	0.427000	0.214700	0.078900
O931	O93	0.561300	0.665900	0.952480
O941	O94	0.785300	0.927000	0.921100
O951	O95	0.073000	0.285300	0.078900
O961	O96	0.165900	0.438700	0.047520
O971	O97	0.450200	0.026800	0.616970
O981	O98	0.822900	0.647900	0.847080
O991	O99	0.214700	0.427000	0.578900
O1001	O100	0.073000	0.214700	0.578900
O1011	O101	0.941200	0.826000	0.737550
O1021	O102	0.674000	0.941200	0.737550
O1031	O103	0.089200	0.291800	0.231100
O1041	O104	0.791800	0.589200	0.268900
O1051	O105	0.450200	0.473200	0.116970
O1061	O106	0.444900	0.476400	0.190360
O1071	O107	0.291800	0.089200	0.731100
O1081	O108	0.476400	0.444900	0.690360
O1091	O109	0.147900	0.177100	0.152920
O1101	O110	0.526800	0.950200	0.883030
O1111	O111	0.976400	0.944900	0.309640
O1121	O112	0.523600	0.944900	0.809640
