data_YOZCAS_manual_PM
_symmetry_space_group_name_H-M	'P1'
_cell_length_a	19.699700
_cell_length_b	25.992900
_cell_length_c	25.992900
_cell_angle_alpha	120.000000
_cell_angle_beta	90.000000
_cell_angle_gamma	90.000000
_symmetry_Int_Tables_number 1

loop_
_symmetry_equiv_pos_as_xyz
'x,y,z'

loop_
_atom_site_label
_atom_site_type_symbol
_atom_site_fract_x
_atom_site_fract_y
_atom_site_fract_z
Zn11	Zn1	0.597130	0.898220	0.332090
Zn21	Zn2	0.597130	0.433870	0.101780
Zn31	Zn3	0.597130	0.667910	0.566130
Zn41	Zn4	0.097130	0.101780	0.667910
Zn51	Zn5	0.097130	0.566130	0.898220
Zn61	Zn6	0.097130	0.332090	0.433870
Zn71	Zn7	0.402870	0.566130	0.667910
Zn81	Zn8	0.402870	0.332090	0.898220
Zn91	Zn9	0.402870	0.101780	0.433870
Zn101	Zn10	0.902870	0.433870	0.332090
Zn111	Zn11	0.902870	0.667910	0.101780
Zn121	Zn12	0.902870	0.898220	0.566130
Zn131	Zn13	0.402870	0.101780	0.667910
Zn141	Zn14	0.402870	0.566130	0.898220
Zn151	Zn15	0.402870	0.332090	0.433870
Zn161	Zn16	0.902870	0.898220	0.332090
Zn171	Zn17	0.902870	0.433870	0.101780
Zn181	Zn18	0.902870	0.667910	0.566130
Zn191	Zn19	0.597130	0.433870	0.332090
Zn201	Zn20	0.597130	0.667910	0.101780
Zn211	Zn21	0.597130	0.898220	0.566130
Zn221	Zn22	0.097130	0.566130	0.667910
Zn231	Zn23	0.097130	0.332090	0.898220
Zn241	Zn24	0.097130	0.101780	0.433870
H251	H25	0.436500	0.885020	0.314140
H261	H26	0.685970	0.003650	0.321470
H271	H27	0.591690	0.914640	0.220810
H281	H28	0.511420	0.796500	0.347370
H291	H29	0.436500	0.429120	0.114980
H301	H30	0.685970	0.317820	0.996350
H311	H31	0.591690	0.306170	0.085360
H321	H32	0.511420	0.550870	0.203500
H331	H33	0.436500	0.685860	0.570880
H341	H34	0.685970	0.678530	0.682180
H351	H35	0.591690	0.779190	0.693830
H361	H36	0.511420	0.652630	0.449130
H371	H37	0.936500	0.114980	0.685860
H381	H38	0.185970	0.996350	0.678530
H391	H39	0.091690	0.085360	0.779190
H401	H40	0.011420	0.203500	0.652630
H411	H41	0.936500	0.570880	0.885020
H421	H42	0.185970	0.682180	0.003650
H431	H43	0.091690	0.693830	0.914640
H441	H44	0.011420	0.449130	0.796500
H451	H45	0.936500	0.314140	0.429120
H461	H46	0.185970	0.321470	0.317820
H471	H47	0.091690	0.220810	0.306170
H481	H48	0.011420	0.347370	0.550870
H491	H49	0.563500	0.570880	0.685860
H501	H50	0.314030	0.682180	0.678530
H511	H51	0.408310	0.693830	0.779190
H521	H52	0.488580	0.449130	0.652630
H531	H53	0.563500	0.314140	0.885020
H541	H54	0.314030	0.321470	0.003650
H551	H55	0.408310	0.220810	0.914640
H561	H56	0.488580	0.347370	0.796500
H571	H57	0.563500	0.114980	0.429120
H581	H58	0.314030	0.996350	0.317820
H591	H59	0.408310	0.085360	0.306170
H601	H60	0.488580	0.203500	0.550870
H611	H61	0.063500	0.429120	0.314140
H621	H62	0.814030	0.317820	0.321470
H631	H63	0.908310	0.306170	0.220810
H641	H64	0.988580	0.550870	0.347370
H651	H65	0.063500	0.685860	0.114980
H661	H66	0.814030	0.678530	0.996350
H671	H67	0.908310	0.779190	0.085360
H681	H68	0.988580	0.652630	0.203500
H691	H69	0.063500	0.885020	0.570880
H701	H70	0.814030	0.003650	0.682180
H711	H71	0.908310	0.914640	0.693830
H721	H72	0.988580	0.796500	0.449130
H731	H73	0.563500	0.114980	0.685860
H741	H74	0.314030	0.996350	0.678530
H751	H75	0.408310	0.085360	0.779190
H761	H76	0.488580	0.203500	0.652630
H771	H77	0.563500	0.570880	0.885020
H781	H78	0.314030	0.682180	0.003650
H791	H79	0.408310	0.693830	0.914640
H801	H80	0.488580	0.449130	0.796500
H811	H81	0.563500	0.314140	0.429120
H821	H82	0.314030	0.321470	0.317820
H831	H83	0.408310	0.220810	0.306170
H841	H84	0.488580	0.347370	0.550870
H851	H85	0.063500	0.885020	0.314140
H861	H86	0.814030	0.003650	0.321470
H871	H87	0.908310	0.914640	0.220810
H881	H88	0.988580	0.796500	0.347370
H891	H89	0.063500	0.429120	0.114980
H901	H90	0.814030	0.317820	0.996350
H911	H91	0.908310	0.306170	0.085360
H921	H92	0.988580	0.550870	0.203500
H931	H93	0.063500	0.685860	0.570880
H941	H94	0.814030	0.678530	0.682180
H951	H95	0.908310	0.779190	0.693830
H961	H96	0.988580	0.652630	0.449130
H971	H97	0.436500	0.429120	0.314140
H981	H98	0.685970	0.317820	0.321470
H991	H99	0.591690	0.306170	0.220810
H1001	H100	0.511420	0.550870	0.347370
H1011	H101	0.436500	0.685860	0.114980
H1021	H102	0.685970	0.678530	0.996350
H1031	H103	0.591690	0.779190	0.085360
H1041	H104	0.511420	0.652630	0.203500
H1051	H105	0.436500	0.885020	0.570880
H1061	H106	0.685970	0.003650	0.682180
H1071	H107	0.591690	0.914640	0.693830
H1081	H108	0.511420	0.796500	0.449130
H1091	H109	0.936500	0.570880	0.685860
H1101	H110	0.185970	0.682180	0.678530
H1111	H111	0.091690	0.693830	0.779190
H1121	H112	0.011420	0.449130	0.652630
H1131	H113	0.936500	0.314140	0.885020
H1141	H114	0.185970	0.321470	0.003650
H1151	H115	0.091690	0.220810	0.914640
H1161	H116	0.011420	0.347370	0.796500
H1171	H117	0.936500	0.114980	0.429120
H1181	H118	0.185970	0.996350	0.317820
H1191	H119	0.091690	0.085360	0.306170
H1201	H120	0.011420	0.203500	0.550870
H1211	H121	0.656330	0.782820	0.218670
H1221	H122	0.656330	0.435850	0.217180
H1231	H123	0.656330	0.781330	0.564150
H1241	H124	0.156330	0.217180	0.781330
H1251	H125	0.156330	0.564150	0.782820
H1261	H126	0.156330	0.218670	0.435850
H1271	H127	0.343670	0.564150	0.781330
H1281	H128	0.343670	0.218670	0.782820
H1291	H129	0.343670	0.217180	0.435850
H1301	H130	0.843670	0.435850	0.218670
H1311	H131	0.843670	0.781330	0.217180
H1321	H132	0.843670	0.782820	0.564150
H1331	H133	0.501690	0.998540	0.427690
H1341	H134	0.501690	0.429150	0.001460
H1351	H135	0.501690	0.572310	0.570850
H1361	H136	0.001690	0.001460	0.572310
H1371	H137	0.001690	0.570850	0.998540
H1381	H138	0.001690	0.427690	0.429150
H1391	H139	0.498310	0.001460	0.572310
H1401	H140	0.498310	0.570850	0.998540
H1411	H141	0.498310	0.427690	0.429150
H1421	H142	0.998310	0.998540	0.427690
H1431	H143	0.998310	0.429150	0.001460
H1441	H144	0.998310	0.572310	0.570850
C1451	C145	0.498000	0.812000	0.239900
C1461	C146	0.434800	0.843100	0.268600
C1471	C147	0.378700	0.815700	0.234500
C1481	C148	0.714900	0.966300	0.322700
C1491	C149	0.526100	0.978400	0.294800
C1501	C150	0.554800	0.953500	0.237200
C1511	C151	0.530600	0.983700	0.208400
C1521	C152	0.537600	0.833900	0.388000
C1531	C153	0.498000	0.427900	0.188000
C1541	C154	0.434800	0.425500	0.156900
C1551	C155	0.378700	0.418800	0.184300
C1561	C156	0.714900	0.356400	0.033700
C1571	C157	0.526100	0.316400	0.021600
C1581	C158	0.554800	0.283700	0.046500
C1591	C159	0.530600	0.224700	0.016300
C1601	C160	0.537600	0.554100	0.166100
C1611	C161	0.498000	0.760100	0.572100
C1621	C162	0.434800	0.731400	0.574500
C1631	C163	0.378700	0.765500	0.581200
C1641	C164	0.714900	0.677300	0.643600
C1651	C165	0.526100	0.705200	0.683600
C1661	C166	0.554800	0.762800	0.716300
C1671	C167	0.530600	0.791600	0.775300
C1681	C168	0.537600	0.612000	0.445900
C1691	C169	0.998000	0.188000	0.760100
C1701	C170	0.934800	0.156900	0.731400
C1711	C171	0.878700	0.184300	0.765500
C1721	C172	0.214900	0.033700	0.677300
C1731	C173	0.026100	0.021600	0.705200
C1741	C174	0.054800	0.046500	0.762800
C1751	C175	0.030600	0.016300	0.791600
C1761	C176	0.037600	0.166100	0.612000
C1771	C177	0.998000	0.572100	0.812000
C1781	C178	0.934800	0.574500	0.843100
C1791	C179	0.878700	0.581200	0.815700
C1801	C180	0.214900	0.643600	0.966300
C1811	C181	0.026100	0.683600	0.978400
C1821	C182	0.054800	0.716300	0.953500
C1831	C183	0.030600	0.775300	0.983700
C1841	C184	0.037600	0.445900	0.833900
C1851	C185	0.998000	0.239900	0.427900
C1861	C186	0.934800	0.268600	0.425500
C1871	C187	0.878700	0.234500	0.418800
C1881	C188	0.214900	0.322700	0.356400
C1891	C189	0.026100	0.294800	0.316400
C1901	C190	0.054800	0.237200	0.283700
C1911	C191	0.030600	0.208400	0.224700
C1921	C192	0.037600	0.388000	0.554100
C1931	C193	0.502000	0.572100	0.760100
C1941	C194	0.565200	0.574500	0.731400
C1951	C195	0.621300	0.581200	0.765500
C1961	C196	0.285100	0.643600	0.677300
C1971	C197	0.473900	0.683600	0.705200
C1981	C198	0.445200	0.716300	0.762800
C1991	C199	0.469400	0.775300	0.791600
C2001	C200	0.462400	0.445900	0.612000
C2011	C201	0.502000	0.239900	0.812000
C2021	C202	0.565200	0.268600	0.843100
C2031	C203	0.621300	0.234500	0.815700
C2041	C204	0.285100	0.322700	0.966300
C2051	C205	0.473900	0.294800	0.978400
C2061	C206	0.445200	0.237200	0.953500
C2071	C207	0.469400	0.208400	0.983700
C2081	C208	0.462400	0.388000	0.833900
C2091	C209	0.502000	0.188000	0.427900
C2101	C210	0.565200	0.156900	0.425500
C2111	C211	0.621300	0.184300	0.418800
C2121	C212	0.285100	0.033700	0.356400
C2131	C213	0.473900	0.021600	0.316400
C2141	C214	0.445200	0.046500	0.283700
C2151	C215	0.469400	0.016300	0.224700
C2161	C216	0.462400	0.166100	0.554100
C2171	C217	0.002000	0.427900	0.239900
C2181	C218	0.065200	0.425500	0.268600
C2191	C219	0.121300	0.418800	0.234500
C2201	C220	0.785100	0.356400	0.322700
C2211	C221	0.973900	0.316400	0.294800
C2221	C222	0.945200	0.283700	0.237200
C2231	C223	0.969400	0.224700	0.208400
C2241	C224	0.962400	0.554100	0.388000
C2251	C225	0.002000	0.760100	0.188000
C2261	C226	0.065200	0.731400	0.156900
C2271	C227	0.121300	0.765500	0.184300
C2281	C228	0.785100	0.677300	0.033700
C2291	C229	0.973900	0.705200	0.021600
C2301	C230	0.945200	0.762800	0.046500
C2311	C231	0.969400	0.791600	0.016300
C2321	C232	0.962400	0.612000	0.166100
C2331	C233	0.002000	0.812000	0.572100
C2341	C234	0.065200	0.843100	0.574500
C2351	C235	0.121300	0.815700	0.581200
C2361	C236	0.785100	0.966300	0.643600
C2371	C237	0.973900	0.978400	0.683600
C2381	C238	0.945200	0.953500	0.716300
C2391	C239	0.969400	0.983700	0.775300
C2401	C240	0.962400	0.833900	0.445900
C2411	C241	0.502000	0.188000	0.760100
C2421	C242	0.565200	0.156900	0.731400
C2431	C243	0.621300	0.184300	0.765500
C2441	C244	0.285100	0.033700	0.677300
C2451	C245	0.473900	0.021600	0.705200
C2461	C246	0.445200	0.046500	0.762800
C2471	C247	0.469400	0.016300	0.791600
C2481	C248	0.462400	0.166100	0.612000
C2491	C249	0.502000	0.572100	0.812000
C2501	C250	0.565200	0.574500	0.843100
C2511	C251	0.621300	0.581200	0.815700
C2521	C252	0.285100	0.643600	0.966300
C2531	C253	0.473900	0.683600	0.978400
C2541	C254	0.445200	0.716300	0.953500
C2551	C255	0.469400	0.775300	0.983700
C2561	C256	0.462400	0.445900	0.833900
C2571	C257	0.502000	0.239900	0.427900
C2581	C258	0.565200	0.268600	0.425500
C2591	C259	0.621300	0.234500	0.418800
C2601	C260	0.285100	0.322700	0.356400
C2611	C261	0.473900	0.294800	0.316400
C2621	C262	0.445200	0.237200	0.283700
C2631	C263	0.469400	0.208400	0.224700
C2641	C264	0.462400	0.388000	0.554100
C2651	C265	0.002000	0.812000	0.239900
C2661	C266	0.065200	0.843100	0.268600
C2671	C267	0.121300	0.815700	0.234500
C2681	C268	0.785100	0.966300	0.322700
C2691	C269	0.973900	0.978400	0.294800
C2701	C270	0.945200	0.953500	0.237200
C2711	C271	0.969400	0.983700	0.208400
C2721	C272	0.962400	0.833900	0.388000
C2731	C273	0.002000	0.427900	0.188000
C2741	C274	0.065200	0.425500	0.156900
C2751	C275	0.121300	0.418800	0.184300
C2761	C276	0.785100	0.356400	0.033700
C2771	C277	0.973900	0.316400	0.021600
C2781	C278	0.945200	0.283700	0.046500
C2791	C279	0.969400	0.224700	0.016300
C2801	C280	0.962400	0.554100	0.166100
C2811	C281	0.002000	0.760100	0.572100
C2821	C282	0.065200	0.731400	0.574500
C2831	C283	0.121300	0.765500	0.581200
C2841	C284	0.785100	0.677300	0.643600
C2851	C285	0.973900	0.705200	0.683600
C2861	C286	0.945200	0.762800	0.716300
C2871	C287	0.969400	0.791600	0.775300
C2881	C288	0.962400	0.612000	0.445900
C2891	C289	0.498000	0.427900	0.239900
C2901	C290	0.434800	0.425500	0.268600
C2911	C291	0.378700	0.418800	0.234500
C2921	C292	0.714900	0.356400	0.322700
C2931	C293	0.526100	0.316400	0.294800
C2941	C294	0.554800	0.283700	0.237200
C2951	C295	0.530600	0.224700	0.208400
C2961	C296	0.537600	0.554100	0.388000
C2971	C297	0.498000	0.760100	0.188000
C2981	C298	0.434800	0.731400	0.156900
C2991	C299	0.378700	0.765500	0.184300
C3001	C300	0.714900	0.677300	0.033700
C3011	C301	0.526100	0.705200	0.021600
C3021	C302	0.554800	0.762800	0.046500
C3031	C303	0.530600	0.791600	0.016300
C3041	C304	0.537600	0.612000	0.166100
C3051	C305	0.498000	0.812000	0.572100
C3061	C306	0.434800	0.843100	0.574500
C3071	C307	0.378700	0.815700	0.581200
C3081	C308	0.714900	0.966300	0.643600
C3091	C309	0.526100	0.978400	0.683600
C3101	C310	0.554800	0.953500	0.716300
C3111	C311	0.530600	0.983700	0.775300
C3121	C312	0.537600	0.833900	0.445900
C3131	C313	0.998000	0.572100	0.760100
C3141	C314	0.934800	0.574500	0.731400
C3151	C315	0.878700	0.581200	0.765500
C3161	C316	0.214900	0.643600	0.677300
C3171	C317	0.026100	0.683600	0.705200
C3181	C318	0.054800	0.716300	0.762800
C3191	C319	0.030600	0.775300	0.791600
C3201	C320	0.037600	0.445900	0.612000
C3211	C321	0.998000	0.239900	0.812000
C3221	C322	0.934800	0.268600	0.843100
C3231	C323	0.878700	0.234500	0.815700
C3241	C324	0.214900	0.322700	0.966300
C3251	C325	0.026100	0.294800	0.978400
C3261	C326	0.054800	0.237200	0.953500
C3271	C327	0.030600	0.208400	0.983700
C3281	C328	0.037600	0.388000	0.833900
C3291	C329	0.998000	0.188000	0.427900
C3301	C330	0.934800	0.156900	0.425500
C3311	C331	0.878700	0.184300	0.418800
C3321	C332	0.214900	0.033700	0.356400
C3331	C333	0.026100	0.021600	0.316400
C3341	C334	0.054800	0.046500	0.283700
C3351	C335	0.030600	0.016300	0.224700
C3361	C336	0.037600	0.166100	0.554100
C3371	C337	0.598600	0.783750	0.216250
C3381	C338	0.598600	0.432500	0.216250
C3391	C339	0.598600	0.783750	0.567500
C3401	C340	0.098600	0.216250	0.783750
C3411	C341	0.098600	0.567500	0.783750
C3421	C342	0.098600	0.216250	0.432500
C3431	C343	0.401400	0.567500	0.783750
C3441	C344	0.401400	0.216250	0.783750
C3451	C345	0.401400	0.216250	0.432500
C3461	C346	0.901400	0.432500	0.216250
C3471	C347	0.901400	0.783750	0.216250
C3481	C348	0.901400	0.783750	0.567500
C3491	C349	0.750000	0.890800	0.322600
C3501	C350	0.750000	0.431800	0.109200
C3511	C351	0.750000	0.677400	0.568200
C3521	C352	0.250000	0.109200	0.677400
C3531	C353	0.250000	0.568200	0.890800
C3541	C354	0.250000	0.322600	0.431800
C3551	C355	0.250000	0.568200	0.677400
C3561	C356	0.250000	0.322600	0.890800
C3571	C357	0.250000	0.109200	0.431800
C3581	C358	0.750000	0.431800	0.322600
C3591	C359	0.750000	0.677400	0.109200
C3601	C360	0.750000	0.890800	0.568200
C3611	C361	0.500000	0.000000	0.384600
C3621	C362	0.500000	0.384600	0.000000
C3631	C363	0.500000	0.615400	0.615400
C3641	C364	0.000000	0.000000	0.615400
C3651	C365	0.000000	0.615400	0.000000
C3661	C366	0.000000	0.384600	0.384600
C3671	C367	0.500000	0.000000	0.615400
C3681	C368	0.500000	0.615400	0.000000
C3691	C369	0.500000	0.384600	0.384600
C3701	C370	0.000000	0.000000	0.384600
C3711	C371	0.000000	0.384600	0.000000
C3721	C372	0.000000	0.615400	0.615400
C3731	C373	0.592700	0.909000	0.454500
C3741	C374	0.592700	0.545500	0.091000
C3751	C375	0.592700	0.545500	0.454500
C3761	C376	0.092700	0.091000	0.545500
C3771	C377	0.092700	0.454500	0.909000
C3781	C378	0.092700	0.454500	0.545500
C3791	C379	0.407300	0.454500	0.545500
C3801	C380	0.407300	0.454500	0.909000
C3811	C381	0.407300	0.091000	0.545500
C3821	C382	0.907300	0.545500	0.454500
C3831	C383	0.907300	0.545500	0.091000
C3841	C384	0.907300	0.909000	0.454500
Br3851	Br385	0.298900	0.716400	0.584000
Br3861	Br386	0.554100	0.868700	0.831600
Br3871	Br387	0.798900	0.132400	0.716400
Br3881	Br388	0.054100	0.037100	0.868700
Br3891	Br389	0.798900	0.584000	0.867600
Br3901	Br390	0.054100	0.831600	0.962900
Br3911	Br391	0.054100	0.131300	0.168400
Br3921	Br392	0.701100	0.584000	0.716400
Br3931	Br393	0.701100	0.283600	0.867600
Br3941	Br394	0.945900	0.168400	0.131300
Br3951	Br395	0.945900	0.868700	0.037100
Br3961	Br396	0.201100	0.867600	0.584000
Br3971	Br397	0.445900	0.037100	0.868700
Br3981	Br398	0.445900	0.831600	0.962900
Br3991	Br399	0.701100	0.283600	0.416000
Br4001	Br400	0.445900	0.131300	0.168400
Br4011	Br401	0.201100	0.867600	0.283600
Br4021	Br402	0.201100	0.416000	0.132400
Br4031	Br403	0.945900	0.868700	0.831600
Br4041	Br404	0.298900	0.416000	0.283600
Br4051	Br405	0.554100	0.168400	0.131300
Br4061	Br406	0.298900	0.716400	0.132400
Br4071	Br407	0.554100	0.868700	0.037100
Br4081	Br408	0.798900	0.132400	0.416000
N4091	N409	0.564100	0.828400	0.258900
N4101	N410	0.691700	0.917800	0.324300
N4111	N411	0.542100	0.963500	0.337900
N4121	N412	0.573800	0.885600	0.399400
N4131	N413	0.564100	0.430500	0.171600
N4141	N414	0.691700	0.406500	0.082200
N4151	N415	0.542100	0.374400	0.036500
N4161	N416	0.573800	0.513800	0.114400
N4171	N417	0.564100	0.741100	0.569500
N4181	N418	0.691700	0.675700	0.593500
N4191	N419	0.542100	0.662100	0.625600
N4201	N420	0.573800	0.600600	0.486200
N4211	N421	0.064100	0.171600	0.741100
N4221	N422	0.191700	0.082200	0.675700
N4231	N423	0.042100	0.036500	0.662100
N4241	N424	0.073800	0.114400	0.600600
N4251	N425	0.064100	0.569500	0.828400
N4261	N426	0.191700	0.593500	0.917800
N4271	N427	0.042100	0.625600	0.963500
N4281	N428	0.073800	0.486200	0.885600
N4291	N429	0.064100	0.258900	0.430500
N4301	N430	0.191700	0.324300	0.406500
N4311	N431	0.042100	0.337900	0.374400
N4321	N432	0.073800	0.399400	0.513800
N4331	N433	0.435900	0.569500	0.741100
N4341	N434	0.308300	0.593500	0.675700
N4351	N435	0.457900	0.625600	0.662100
N4361	N436	0.426200	0.486200	0.600600
N4371	N437	0.435900	0.258900	0.828400
N4381	N438	0.308300	0.324300	0.917800
N4391	N439	0.457900	0.337900	0.963500
N4401	N440	0.426200	0.399400	0.885600
N4411	N441	0.435900	0.171600	0.430500
N4421	N442	0.308300	0.082200	0.406500
N4431	N443	0.457900	0.036500	0.374400
N4441	N444	0.426200	0.114400	0.513800
N4451	N445	0.935900	0.430500	0.258900
N4461	N446	0.808300	0.406500	0.324300
N4471	N447	0.957900	0.374400	0.337900
N4481	N448	0.926200	0.513800	0.399400
N4491	N449	0.935900	0.741100	0.171600
N4501	N450	0.808300	0.675700	0.082200
N4511	N451	0.957900	0.662100	0.036500
N4521	N452	0.926200	0.600600	0.114400
N4531	N453	0.935900	0.828400	0.569500
N4541	N454	0.808300	0.917800	0.593500
N4551	N455	0.957900	0.963500	0.625600
N4561	N456	0.926200	0.885600	0.486200
N4571	N457	0.435900	0.171600	0.741100
N4581	N458	0.308300	0.082200	0.675700
N4591	N459	0.457900	0.036500	0.662100
N4601	N460	0.426200	0.114400	0.600600
N4611	N461	0.435900	0.569500	0.828400
N4621	N462	0.308300	0.593500	0.917800
N4631	N463	0.457900	0.625600	0.963500
N4641	N464	0.426200	0.486200	0.885600
N4651	N465	0.435900	0.258900	0.430500
N4661	N466	0.308300	0.324300	0.406500
N4671	N467	0.457900	0.337900	0.374400
N4681	N468	0.426200	0.399400	0.513800
N4691	N469	0.935900	0.828400	0.258900
N4701	N470	0.808300	0.917800	0.324300
N4711	N471	0.957900	0.963500	0.337900
N4721	N472	0.926200	0.885600	0.399400
N4731	N473	0.935900	0.430500	0.171600
N4741	N474	0.808300	0.406500	0.082200
N4751	N475	0.957900	0.374400	0.036500
N4761	N476	0.926200	0.513800	0.114400
N4771	N477	0.935900	0.741100	0.569500
N4781	N478	0.808300	0.675700	0.593500
N4791	N479	0.957900	0.662100	0.625600
N4801	N480	0.926200	0.600600	0.486200
N4811	N481	0.564100	0.430500	0.258900
N4821	N482	0.691700	0.406500	0.324300
N4831	N483	0.542100	0.374400	0.337900
N4841	N484	0.573800	0.513800	0.399400
N4851	N485	0.564100	0.741100	0.171600
N4861	N486	0.691700	0.675700	0.082200
N4871	N487	0.542100	0.662100	0.036500
N4881	N488	0.573800	0.600600	0.114400
N4891	N489	0.564100	0.828400	0.569500
N4901	N490	0.691700	0.917800	0.593500
N4911	N491	0.542100	0.963500	0.625600
N4921	N492	0.573800	0.885600	0.486200
N4931	N493	0.064100	0.569500	0.741100
N4941	N494	0.191700	0.593500	0.675700
N4951	N495	0.042100	0.625600	0.662100
N4961	N496	0.073800	0.486200	0.600600
N4971	N497	0.064100	0.258900	0.828400
N4981	N498	0.191700	0.324300	0.917800
N4991	N499	0.042100	0.337900	0.963500
N5001	N500	0.073800	0.399400	0.885600
N5011	N501	0.064100	0.171600	0.430500
N5021	N502	0.191700	0.082200	0.406500
N5031	N503	0.042100	0.036500	0.374400
N5041	N504	0.073800	0.114400	0.513800
N5051	N505	0.750000	0.836500	0.323800
N5061	N506	0.750000	0.487300	0.163500
N5071	N507	0.750000	0.676200	0.512700
N5081	N508	0.250000	0.163500	0.676200
N5091	N509	0.250000	0.512700	0.836500
N5101	N510	0.250000	0.323800	0.487300
N5111	N511	0.250000	0.512700	0.676200
N5121	N512	0.250000	0.323800	0.836500
N5131	N513	0.250000	0.163500	0.487300
N5141	N514	0.750000	0.487300	0.323800
N5151	N515	0.750000	0.676200	0.163500
N5161	N516	0.750000	0.836500	0.512700
N5171	N517	0.627300	0.960800	0.480400
N5181	N518	0.627300	0.519600	0.039200
N5191	N519	0.627300	0.519600	0.480400
N5201	N520	0.127300	0.039200	0.519600
N5211	N521	0.127300	0.480400	0.960800
N5221	N522	0.127300	0.480400	0.519600
N5231	N523	0.372700	0.480400	0.519600
N5241	N524	0.372700	0.480400	0.960800
N5251	N525	0.372700	0.039200	0.519600
N5261	N526	0.872700	0.519600	0.480400
N5271	N527	0.872700	0.519600	0.039200
N5281	N528	0.872700	0.960800	0.480400
O5291	O529	0.695600	0.814300	0.325000
O5301	O530	0.639800	0.985000	0.450700
O5311	O531	0.695600	0.510700	0.185700
O5321	O532	0.639800	0.465700	0.015000
O5331	O533	0.695600	0.675000	0.489300
O5341	O534	0.639800	0.549300	0.534300
O5351	O535	0.195600	0.185700	0.675000
O5361	O536	0.139800	0.015000	0.549300
O5371	O537	0.195600	0.489300	0.814300
O5381	O538	0.139800	0.534300	0.985000
O5391	O539	0.195600	0.325000	0.510700
O5401	O540	0.139800	0.450700	0.465700
O5411	O541	0.304400	0.489300	0.675000
O5421	O542	0.360200	0.534300	0.549300
O5431	O543	0.304400	0.325000	0.814300
O5441	O544	0.360200	0.450700	0.985000
O5451	O545	0.304400	0.185700	0.510700
O5461	O546	0.360200	0.015000	0.465700
O5471	O547	0.804400	0.510700	0.325000
O5481	O548	0.860200	0.465700	0.450700
O5491	O549	0.804400	0.675000	0.185700
O5501	O550	0.860200	0.549300	0.015000
O5511	O551	0.804400	0.814300	0.489300
O5521	O552	0.860200	0.985000	0.534300
O5531	O553	0.304400	0.185700	0.675000
O5541	O554	0.360200	0.015000	0.549300
O5551	O555	0.304400	0.489300	0.814300
O5561	O556	0.360200	0.534300	0.985000
O5571	O557	0.304400	0.325000	0.510700
O5581	O558	0.360200	0.450700	0.465700
O5591	O559	0.804400	0.814300	0.325000
O5601	O560	0.860200	0.985000	0.450700
O5611	O561	0.804400	0.510700	0.185700
O5621	O562	0.860200	0.465700	0.015000
O5631	O563	0.804400	0.675000	0.489300
O5641	O564	0.860200	0.549300	0.534300
O5651	O565	0.695600	0.510700	0.325000
O5661	O566	0.639800	0.465700	0.450700
O5671	O567	0.695600	0.675000	0.185700
O5681	O568	0.639800	0.549300	0.015000
O5691	O569	0.695600	0.814300	0.489300
O5701	O570	0.639800	0.985000	0.534300
O5711	O571	0.195600	0.489300	0.675000
O5721	O572	0.139800	0.534300	0.549300
O5731	O573	0.195600	0.325000	0.814300
O5741	O574	0.139800	0.450700	0.985000
O5751	O575	0.195600	0.185700	0.510700
O5761	O576	0.139800	0.015000	0.465700
H5771	H577	0.326470	0.836920	0.249480
H5781	H578	0.560820	0.982350	0.170340
H5791	H579	0.326470	0.412560	0.163080
H5801	H580	0.560820	0.187990	0.017650
H5811	H581	0.826470	0.249480	0.412560
H5821	H582	0.437390	0.810430	0.829400
H5831	H583	0.437390	0.170600	0.981020
H5841	H584	0.673530	0.163080	0.412560
H5851	H585	0.439180	0.017650	0.187990
H5861	H586	0.173530	0.412560	0.249480
H5871	H587	0.173530	0.750520	0.163080
H5881	H588	0.939180	0.982350	0.812010
H5891	H589	0.670960	0.159410	0.746540
H5901	H590	0.670960	0.587130	0.840590
H5911	H591	0.939180	0.982350	0.170340
H5921	H592	0.939180	0.187990	0.017650
H5931	H593	0.170960	0.746540	0.587130
H5941	H594	0.329040	0.840590	0.587130
H5951	H595	0.560820	0.982350	0.812010
H5961	H596	0.829040	0.587130	0.746540
H5971	H597	0.062610	0.810430	0.829400
H5981	H598	0.829040	0.253460	0.840590
H5991	H599	0.062610	0.170600	0.981020
H6001	H600	0.060820	0.017650	0.187990
