data_YUVGOL_SL_PM
_symmetry_space_group_name_H-M	'P1'
_cell_length_a	20.306700
_cell_length_b	20.306700
_cell_length_c	20.306700
_cell_angle_alpha	109.471200
_cell_angle_beta	109.471200
_cell_angle_gamma	109.471200
_symmetry_Int_Tables_number 1

loop_
_symmetry_equiv_pos_as_xyz
'x,y,z'

loop_
_atom_site_label
_atom_site_type_symbol
_atom_site_fract_x
_atom_site_fract_y
_atom_site_fract_z
H11	H1	0.245200	0.588700	0.464100
H21	H2	0.310600	0.530200	0.401400
C31	C3	0.261300	0.548200	0.479700
C41	C4	0.298200	0.515600	0.444000
H51	H5	0.875400	0.411300	0.656500
H61	H6	0.871200	0.469800	0.780400
C71	C7	0.931500	0.451800	0.713100
C81	C8	0.928400	0.484400	0.782600
H91	H9	0.124600	0.781100	0.535900
H101	H10	0.128800	0.909200	0.598600
C111	C11	0.068500	0.781600	0.520300
C121	C12	0.071600	0.854200	0.556000
H131	H13	0.754800	0.218900	0.343500
H141	H14	0.689400	0.090800	0.219600
C151	C15	0.738700	0.218400	0.286900
C161	C16	0.701800	0.145800	0.217400
H171	H17	0.343500	0.588700	0.124600
H181	H18	0.219600	0.530200	0.128800
C191	C19	0.286900	0.548200	0.068500
C201	C20	0.217400	0.515600	0.071600
H211	H21	0.535900	0.411300	0.754800
H221	H22	0.598600	0.469800	0.689400
C231	C23	0.520300	0.451800	0.738700
C241	C24	0.556000	0.484400	0.701800
H251	H25	0.656500	0.781100	0.245200
H261	H26	0.780400	0.909200	0.310600
C271	C27	0.713100	0.781600	0.261300
C281	C28	0.782600	0.854200	0.298200
H291	H29	0.464100	0.218900	0.875400
H301	H30	0.401400	0.090800	0.871200
C311	C31	0.479700	0.218400	0.931500
C321	C32	0.444000	0.145800	0.928400
Zn331	Zn33	0.221040	0.610520	0.610520
Zn341	Zn34	0.000000	0.389480	0.610520
C351	C35	0.319000	0.463800	0.463800
C361	C36	0.367000	0.434900	0.434900
N371	N37	0.244800	0.532300	0.532300
C381	C38	0.000000	0.536200	0.855200
C391	C39	0.000000	0.565100	0.932100
N401	N40	0.000000	0.467700	0.712500
C411	C41	0.000000	0.855200	0.536200
C421	C42	0.000000	0.932100	0.565100
N431	N43	0.000000	0.712500	0.467700
C441	C44	0.681000	0.144800	0.144800
C451	C45	0.633000	0.067900	0.067900
N461	N46	0.755200	0.287500	0.287500
N471	N47	0.150900	0.626200	0.524700
C481	C48	0.898500	0.373800	0.524700
N491	N49	0.475300	0.626200	0.101500
C501	C50	0.475300	0.373800	0.849100
N511	N51	0.388700	0.388700	0.459600
N521	N52	0.070900	0.611300	0.000000
N531	N53	0.929100	0.929100	0.540400
N541	N54	0.611300	0.070900	0.000000
H551	H55	0.464100	0.245200	0.588700
H561	H56	0.401400	0.310600	0.530200
C571	C57	0.479700	0.261300	0.548200
C581	C58	0.444000	0.298200	0.515600
H591	H59	0.656500	0.875400	0.411300
H601	H60	0.780400	0.871200	0.469800
C611	C61	0.713100	0.931500	0.451800
C621	C62	0.782600	0.928400	0.484400
H631	H63	0.535900	0.124600	0.781100
H641	H64	0.598600	0.128800	0.909200
C651	C65	0.520300	0.068500	0.781600
C661	C66	0.556000	0.071600	0.854200
H671	H67	0.343500	0.754800	0.218900
H681	H68	0.219600	0.689400	0.090800
C691	C69	0.286900	0.738700	0.218400
C701	C70	0.217400	0.701800	0.145800
H711	H71	0.124600	0.343500	0.588700
H721	H72	0.128800	0.219600	0.530200
C731	C73	0.068500	0.286900	0.548200
C741	C74	0.071600	0.217400	0.515600
H751	H75	0.754800	0.535900	0.411300
H761	H76	0.689400	0.598600	0.469800
C771	C77	0.738700	0.520300	0.451800
C781	C78	0.701800	0.556000	0.484400
H791	H79	0.245200	0.656500	0.781100
H801	H80	0.310600	0.780400	0.909200
C811	C81	0.261300	0.713100	0.781600
C821	C82	0.298200	0.782600	0.854200
H831	H83	0.875400	0.464100	0.218900
H841	H84	0.871200	0.401400	0.090800
C851	C85	0.931500	0.479700	0.218400
C861	C86	0.928400	0.444000	0.145800
Zn871	Zn87	0.610520	0.221040	0.610520
Zn881	Zn88	0.610520	0.000000	0.389480
C891	C89	0.463800	0.319000	0.463800
C901	C90	0.434900	0.367000	0.434900
N911	N91	0.532300	0.244800	0.532300
C921	C92	0.855200	0.000000	0.536200
C931	C93	0.932100	0.000000	0.565100
N941	N94	0.712500	0.000000	0.467700
C951	C95	0.536200	0.000000	0.855200
C961	C96	0.565100	0.000000	0.932100
N971	N97	0.467700	0.000000	0.712500
C981	C98	0.144800	0.681000	0.144800
C991	C99	0.067900	0.633000	0.067900
N1001	N100	0.287500	0.755200	0.287500
N1011	N101	0.524700	0.150900	0.626200
C1021	C102	0.524700	0.898500	0.373800
N1031	N103	0.101500	0.475300	0.626200
C1041	C104	0.849100	0.475300	0.373800
N1051	N105	0.459600	0.388700	0.388700
N1061	N106	0.000000	0.070900	0.611300
N1071	N107	0.540400	0.929100	0.929100
N1081	N108	0.000000	0.611300	0.070900
H1091	H109	0.588700	0.464100	0.245200
H1101	H110	0.530200	0.401400	0.310600
C1111	C111	0.548200	0.479700	0.261300
C1121	C112	0.515600	0.444000	0.298200
H1131	H113	0.411300	0.656500	0.875400
H1141	H114	0.469800	0.780400	0.871200
C1151	C115	0.451800	0.713100	0.931500
C1161	C116	0.484400	0.782600	0.928400
H1171	H117	0.781100	0.535900	0.124600
H1181	H118	0.909200	0.598600	0.128800
C1191	C119	0.781600	0.520300	0.068500
C1201	C120	0.854200	0.556000	0.071600
H1211	H121	0.218900	0.343500	0.754800
H1221	H122	0.090800	0.219600	0.689400
C1231	C123	0.218400	0.286900	0.738700
C1241	C124	0.145800	0.217400	0.701800
H1251	H125	0.588700	0.124600	0.343500
H1261	H126	0.530200	0.128800	0.219600
C1271	C127	0.548200	0.068500	0.286900
C1281	C128	0.515600	0.071600	0.217400
H1291	H129	0.411300	0.754800	0.535900
H1301	H130	0.469800	0.689400	0.598600
C1311	C131	0.451800	0.738700	0.520300
C1321	C132	0.484400	0.701800	0.556000
H1331	H133	0.781100	0.245200	0.656500
H1341	H134	0.909200	0.310600	0.780400
C1351	C135	0.781600	0.261300	0.713100
C1361	C136	0.854200	0.298200	0.782600
H1371	H137	0.218900	0.875400	0.464100
H1381	H138	0.090800	0.871200	0.401400
C1391	C139	0.218400	0.931500	0.479700
C1401	C140	0.145800	0.928400	0.444000
Zn1411	Zn141	0.610520	0.610520	0.221040
Zn1421	Zn142	0.389480	0.610520	0.000000
C1431	C143	0.463800	0.463800	0.319000
C1441	C144	0.434900	0.434900	0.367000
N1451	N145	0.532300	0.532300	0.244800
C1461	C146	0.536200	0.855200	0.000000
C1471	C147	0.565100	0.932100	0.000000
N1481	N148	0.467700	0.712500	0.000000
C1491	C149	0.855200	0.536200	0.000000
C1501	C150	0.932100	0.565100	0.000000
N1511	N151	0.712500	0.467700	0.000000
C1521	C152	0.144800	0.144800	0.681000
C1531	C153	0.067900	0.067900	0.633000
N1541	N154	0.287500	0.287500	0.755200
N1551	N155	0.626200	0.524700	0.150900
C1561	C156	0.373800	0.524700	0.898500
N1571	N157	0.626200	0.101500	0.475300
C1581	C158	0.373800	0.849100	0.475300
N1591	N159	0.388700	0.459600	0.388700
N1601	N160	0.611300	0.000000	0.070900
N1611	N161	0.929100	0.540400	0.929100
N1621	N162	0.070900	0.000000	0.611300
H1631	H163	0.754800	0.411300	0.535900
H1641	H164	0.689400	0.469800	0.598600
C1651	C165	0.738700	0.451800	0.520300
C1661	C166	0.701800	0.484400	0.556000
H1671	H167	0.124600	0.588700	0.343500
H1681	H168	0.128800	0.530200	0.219600
C1691	C169	0.068500	0.548200	0.286900
C1701	C170	0.071600	0.515600	0.217400
H1711	H171	0.875400	0.218900	0.464100
H1721	H172	0.871200	0.090800	0.401400
C1731	C173	0.931500	0.218400	0.479700
C1741	C174	0.928400	0.145800	0.444000
H1751	H175	0.245200	0.781100	0.656500
H1761	H176	0.310600	0.909200	0.780400
C1771	C177	0.261300	0.781600	0.713100
C1781	C178	0.298200	0.854200	0.782600
H1791	H179	0.656500	0.411300	0.875400
H1801	H180	0.780400	0.469800	0.871200
C1811	C181	0.713100	0.451800	0.931500
C1821	C182	0.782600	0.484400	0.928400
H1831	H183	0.464100	0.588700	0.245200
H1841	H184	0.401400	0.530200	0.310600
C1851	C185	0.479700	0.548200	0.261300
C1861	C186	0.444000	0.515600	0.298200
H1871	H187	0.343500	0.218900	0.754800
H1881	H188	0.219600	0.090800	0.689400
C1891	C189	0.286900	0.218400	0.738700
C1901	C190	0.217400	0.145800	0.701800
H1911	H191	0.535900	0.781100	0.124600
H1921	H192	0.598600	0.909200	0.128800
C1931	C193	0.520300	0.781600	0.068500
C1941	C194	0.556000	0.854200	0.071600
Zn1951	Zn195	0.778960	0.389480	0.389480
Zn1961	Zn196	0.000000	0.610520	0.389480
C1971	C197	0.681000	0.536200	0.536200
C1981	C198	0.633000	0.565100	0.565100
N1991	N199	0.755200	0.467700	0.467700
C2001	C200	0.000000	0.463800	0.144800
C2011	C201	0.000000	0.434900	0.067900
N2021	N202	0.000000	0.532300	0.287500
C2031	C203	0.000000	0.144800	0.463800
C2041	C204	0.000000	0.067900	0.434900
N2051	N205	0.000000	0.287500	0.532300
C2061	C206	0.319000	0.855200	0.855200
C2071	C207	0.367000	0.932100	0.932100
N2081	N208	0.244800	0.712500	0.712500
N2091	N209	0.849100	0.373800	0.475300
C2101	C210	0.101500	0.626200	0.475300
N2111	N211	0.524700	0.373800	0.898500
C2121	C212	0.524700	0.626200	0.150900
N2131	N213	0.611300	0.611300	0.540400
N2141	N214	0.929100	0.388700	0.000000
N2151	N215	0.070900	0.070900	0.459600
N2161	N216	0.388700	0.929100	0.000000
H2171	H217	0.535900	0.754800	0.411300
H2181	H218	0.598600	0.689400	0.469800
C2191	C219	0.520300	0.738700	0.451800
C2201	C220	0.556000	0.701800	0.484400
H2211	H221	0.343500	0.124600	0.588700
H2221	H222	0.219600	0.128800	0.530200
C2231	C223	0.286900	0.068500	0.548200
C2241	C224	0.217400	0.071600	0.515600
H2251	H225	0.464100	0.875400	0.218900
H2261	H226	0.401400	0.871200	0.090800
C2271	C227	0.479700	0.931500	0.218400
C2281	C228	0.444000	0.928400	0.145800
H2291	H229	0.656500	0.245200	0.781100
H2301	H230	0.780400	0.310600	0.909200
C2311	C231	0.713100	0.261300	0.781600
C2321	C232	0.782600	0.298200	0.854200
H2331	H233	0.875400	0.656500	0.411300
H2341	H234	0.871200	0.780400	0.469800
C2351	C235	0.931500	0.713100	0.451800
C2361	C236	0.928400	0.782600	0.484400
H2371	H237	0.245200	0.464100	0.588700
H2381	H238	0.310600	0.401400	0.530200
C2391	C239	0.261300	0.479700	0.548200
C2401	C240	0.298200	0.444000	0.515600
H2411	H241	0.754800	0.343500	0.218900
H2421	H242	0.689400	0.219600	0.090800
C2431	C243	0.738700	0.286900	0.218400
C2441	C244	0.701800	0.217400	0.145800
H2451	H245	0.124600	0.535900	0.781100
H2461	H246	0.128800	0.598600	0.909200
C2471	C247	0.068500	0.520300	0.781600
C2481	C248	0.071600	0.556000	0.854200
Zn2491	Zn249	0.389480	0.778960	0.389480
Zn2501	Zn250	0.389480	0.000000	0.610520
C2511	C251	0.536200	0.681000	0.536200
C2521	C252	0.565100	0.633000	0.565100
N2531	N253	0.467700	0.755200	0.467700
C2541	C254	0.144800	0.000000	0.463800
C2551	C255	0.067900	0.000000	0.434900
N2561	N256	0.287500	0.000000	0.532300
C2571	C257	0.463800	0.000000	0.144800
C2581	C258	0.434900	0.000000	0.067900
N2591	N259	0.532300	0.000000	0.287500
C2601	C260	0.855200	0.319000	0.855200
C2611	C261	0.932100	0.367000	0.932100
N2621	N262	0.712500	0.244800	0.712500
N2631	N263	0.475300	0.849100	0.373800
C2641	C264	0.475300	0.101500	0.626200
N2651	N265	0.898500	0.524700	0.373800
C2661	C266	0.150900	0.524700	0.626200
N2671	N267	0.540400	0.611300	0.611300
N2681	N268	0.000000	0.929100	0.388700
N2691	N269	0.459600	0.070900	0.070900
N2701	N270	0.000000	0.388700	0.929100
H2711	H271	0.411300	0.535900	0.754800
H2721	H272	0.469800	0.598600	0.689400
C2731	C273	0.451800	0.520300	0.738700
C2741	C274	0.484400	0.556000	0.701800
H2751	H275	0.588700	0.343500	0.124600
H2761	H276	0.530200	0.219600	0.128800
C2771	C277	0.548200	0.286900	0.068500
C2781	C278	0.515600	0.217400	0.071600
H2791	H279	0.218900	0.464100	0.875400
H2801	H280	0.090800	0.401400	0.871200
C2811	C281	0.218400	0.479700	0.931500
C2821	C282	0.145800	0.444000	0.928400
H2831	H283	0.781100	0.656500	0.245200
H2841	H284	0.909200	0.780400	0.310600
C2851	C285	0.781600	0.713100	0.261300
C2861	C286	0.854200	0.782600	0.298200
H2871	H287	0.411300	0.875400	0.656500
H2881	H288	0.469800	0.871200	0.780400
C2891	C289	0.451800	0.931500	0.713100
C2901	C290	0.484400	0.928400	0.782600
H2911	H291	0.588700	0.245200	0.464100
H2921	H292	0.530200	0.310600	0.401400
C2931	C293	0.548200	0.261300	0.479700
C2941	C294	0.515600	0.298200	0.444000
H2951	H295	0.218900	0.754800	0.343500
H2961	H296	0.090800	0.689400	0.219600
C2971	C297	0.218400	0.738700	0.286900
C2981	C298	0.145800	0.701800	0.217400
H2991	H299	0.781100	0.124600	0.535900
H3001	H300	0.909200	0.128800	0.598600
C3011	C301	0.781600	0.068500	0.520300
C3021	C302	0.854200	0.071600	0.556000
Zn3031	Zn303	0.389480	0.389480	0.778960
Zn3041	Zn304	0.610520	0.389480	0.000000
C3051	C305	0.536200	0.536200	0.681000
C3061	C306	0.565100	0.565100	0.633000
N3071	N307	0.467700	0.467700	0.755200
C3081	C308	0.463800	0.144800	0.000000
C3091	C309	0.434900	0.067900	0.000000
N3101	N310	0.532300	0.287500	0.000000
C3111	C311	0.144800	0.463800	0.000000
C3121	C312	0.067900	0.434900	0.000000
N3131	N313	0.287500	0.532300	0.000000
C3141	C314	0.855200	0.855200	0.319000
C3151	C315	0.932100	0.932100	0.367000
N3161	N316	0.712500	0.712500	0.244800
N3171	N317	0.373800	0.475300	0.849100
C3181	C318	0.626200	0.475300	0.101500
N3191	N319	0.373800	0.898500	0.524700
C3201	C320	0.626200	0.150900	0.524700
N3211	N321	0.611300	0.540400	0.611300
N3221	N322	0.388700	0.000000	0.929100
N3231	N323	0.070900	0.459600	0.070900
N3241	N324	0.929100	0.000000	0.388700
