data_YUXQOY_freeONLY_PM
_symmetry_space_group_name_H-M	'P1'
_cell_length_a	11.720000
_cell_length_b	13.700000
_cell_length_c	21.050000
_cell_angle_alpha	90.000000
_cell_angle_beta	90.000000
_cell_angle_gamma	90.000000
_symmetry_Int_Tables_number 1

loop_
_symmetry_equiv_pos_as_xyz
'x,y,z'

loop_
_atom_site_label
_atom_site_type_symbol
_atom_site_fract_x
_atom_site_fract_y
_atom_site_fract_z
Cd11	Cd1	0.000000	0.598690	0.434330
Cd21	Cd2	0.000000	0.401310	0.565670
Cd31	Cd3	0.000000	0.901310	0.934330
Cd41	Cd4	0.000000	0.098690	0.065670
H11	H1	0.783300	0.472400	0.380300
H21	H2	0.585300	0.472700	0.378500
H31	H3	0.582800	0.713800	0.487300
H41	H4	0.780700	0.713500	0.489000
H51	H5	0.783300	0.527600	0.619700
H61	H6	0.585300	0.527300	0.621500
H71	H7	0.582800	0.286200	0.512700
H81	H8	0.780700	0.286500	0.511000
H91	H9	0.216700	0.027600	0.880300
H101	H10	0.414700	0.027300	0.878500
H111	H11	0.417200	0.786200	0.987300
H121	H12	0.219300	0.786500	0.989000
H131	H13	0.216700	0.972400	0.119700
H141	H14	0.414700	0.972700	0.121500
H151	H15	0.417200	0.213800	0.012700
H161	H16	0.219300	0.213500	0.011000
H171	H17	0.216700	0.527600	0.619700
H181	H18	0.414700	0.527300	0.621500
H191	H19	0.417200	0.286200	0.512700
H201	H20	0.219300	0.286500	0.511000
H211	H21	0.216700	0.472400	0.380300
H221	H22	0.414700	0.472700	0.378500
H231	H23	0.417200	0.713800	0.487300
H241	H24	0.219300	0.713500	0.489000
H251	H25	0.783300	0.972400	0.119700
H261	H26	0.585300	0.972700	0.121500
H271	H27	0.582800	0.213800	0.012700
H281	H28	0.780700	0.213500	0.011000
H291	H29	0.783300	0.027600	0.880300
H301	H30	0.585300	0.027300	0.878500
H311	H31	0.582800	0.786200	0.987300
H321	H32	0.780700	0.786500	0.989000
H331	H33	0.000000	0.577200	0.673800
H341	H34	0.000000	0.651000	0.769000
H351	H35	0.000000	0.843000	0.597800
H361	H36	0.000000	0.975400	0.662600
H371	H37	0.000000	0.969200	0.736600
H381	H38	0.000000	0.422800	0.326200
H391	H39	0.000000	0.349000	0.231000
H401	H40	0.000000	0.157000	0.402200
H411	H41	0.000000	0.024600	0.337400
H421	H42	0.000000	0.030800	0.263400
H431	H43	0.000000	0.922800	0.173800
H441	H44	0.000000	0.849000	0.269000
H451	H45	0.000000	0.657000	0.097800
H461	H46	0.000000	0.524600	0.162600
H471	H47	0.000000	0.530800	0.236600
H481	H48	0.000000	0.077200	0.826200
H491	H49	0.000000	0.151000	0.731000
H501	H50	0.000000	0.343000	0.902200
H511	H51	0.000000	0.475400	0.837400
H521	H52	0.000000	0.469200	0.763400
C11	C1	0.743100	0.520800	0.401730
C21	C2	0.624500	0.521000	0.400690
C31	C3	0.564420	0.593300	0.432730
C41	C4	0.622900	0.665400	0.465810
C51	C5	0.741500	0.665200	0.466860
C61	C6	0.743100	0.479200	0.598270
C71	C7	0.624500	0.479000	0.599310
C81	C8	0.564420	0.406700	0.567270
C91	C9	0.622900	0.334600	0.534190
C101	C10	0.741500	0.334800	0.533140
C111	C11	0.256900	0.979200	0.901730
C121	C12	0.375500	0.979000	0.900690
C131	C13	0.435580	0.906700	0.932730
C141	C14	0.377100	0.834600	0.965810
C151	C15	0.258500	0.834800	0.966860
C161	C16	0.256900	0.020800	0.098270
C171	C17	0.375500	0.021000	0.099310
C181	C18	0.435580	0.093300	0.067270
C191	C19	0.377100	0.165400	0.034190
C201	C20	0.258500	0.165200	0.033140
C211	C21	0.256900	0.479200	0.598270
C221	C22	0.375500	0.479000	0.599310
C231	C23	0.435580	0.406700	0.567270
C241	C24	0.377100	0.334600	0.534190
C251	C25	0.258500	0.334800	0.533140
C261	C26	0.256900	0.520800	0.401730
C271	C27	0.375500	0.521000	0.400690
C281	C28	0.435580	0.593300	0.432730
C291	C29	0.377100	0.665400	0.465810
C301	C30	0.258500	0.665200	0.466860
C311	C31	0.743100	0.020800	0.098270
C321	C32	0.624500	0.021000	0.099310
C331	C33	0.564420	0.093300	0.067270
C341	C34	0.622900	0.165400	0.034190
C351	C35	0.741500	0.165200	0.033140
C361	C36	0.743100	0.979200	0.901730
C371	C37	0.624500	0.979000	0.900690
C381	C38	0.564420	0.906700	0.932730
C391	C39	0.622900	0.834600	0.965810
C401	C40	0.741500	0.834800	0.966860
C411	C41	0.000000	0.661200	0.560200
C421	C42	0.000000	0.704000	0.626600
C431	C43	0.000000	0.644600	0.678700
C441	C44	0.000000	0.686200	0.739200
C451	C45	0.000000	0.802200	0.634800
C461	C46	0.000000	0.842700	0.694900
C471	C47	0.000000	0.783800	0.748340
C481	C48	0.000000	0.823900	0.814730
C491	C49	0.000000	0.338800	0.439800
C501	C50	0.000000	0.296000	0.373400
C511	C51	0.000000	0.355400	0.321300
C521	C52	0.000000	0.313800	0.260800
C531	C53	0.000000	0.197800	0.365200
C541	C54	0.000000	0.157300	0.305100
C551	C55	0.000000	0.216200	0.251660
C561	C56	0.000000	0.176100	0.185270
C571	C57	0.000000	0.838800	0.060200
C581	C58	0.000000	0.796000	0.126600
C591	C59	0.000000	0.855400	0.178700
C601	C60	0.000000	0.813800	0.239200
C611	C61	0.000000	0.697800	0.134800
C621	C62	0.000000	0.657300	0.194900
C631	C63	0.000000	0.716200	0.248340
C641	C64	0.000000	0.676100	0.314730
C651	C65	0.000000	0.161200	0.939800
C661	C66	0.000000	0.204000	0.873400
C671	C67	0.000000	0.144600	0.821300
C681	C68	0.000000	0.186200	0.760800
C691	C69	0.000000	0.302200	0.865200
C701	C70	0.000000	0.342700	0.805100
C711	C71	0.000000	0.283800	0.751660
C721	C72	0.000000	0.323900	0.685270
N11	N1	0.801600	0.592900	0.434820
N21	N2	0.801600	0.407100	0.565180
N31	N3	0.198400	0.907100	0.934820
N41	N4	0.198400	0.092900	0.065180
N51	N5	0.198400	0.407100	0.565180
N61	N6	0.198400	0.592900	0.434820
N71	N7	0.801600	0.092900	0.065180
N81	N8	0.801600	0.907100	0.934820
N91	N9	0.000000	0.939500	0.698400
N101	N10	0.000000	0.060500	0.301600
N111	N11	0.000000	0.560500	0.198400
N121	N12	0.000000	0.439500	0.801600
O11	O1	0.000000	0.717100	0.513750
O21	O2	0.000000	0.571100	0.553920
O31	O3	0.000000	0.766800	0.860690
O41	O4	0.000000	0.912600	0.822630
O51	O5	0.000000	0.282900	0.486250
O61	O6	0.000000	0.428900	0.446080
O71	O7	0.000000	0.233200	0.139310
O81	O8	0.000000	0.087400	0.177370
O91	O9	0.000000	0.782900	0.013750
O101	O10	0.000000	0.928900	0.053920
O111	O11	0.000000	0.733200	0.360690
O121	O12	0.000000	0.587400	0.322630
O131	O13	0.000000	0.217100	0.986250
O141	O14	0.000000	0.071100	0.946080
O151	O15	0.000000	0.266800	0.639310
O161	O16	0.000000	0.412600	0.677370
