data_YUZXAT_freeONLY_PM
_symmetry_space_group_name_H-M	'P1'
_cell_length_a	9.340210
_cell_length_b	13.739100
_cell_length_c	20.090000
_cell_angle_alpha	86.137200
_cell_angle_beta	78.568900
_cell_angle_gamma	70.128400
_symmetry_Int_Tables_number 1

loop_
_symmetry_equiv_pos_as_xyz
'x,y,z'

loop_
_atom_site_label
_atom_site_type_symbol
_atom_site_fract_x
_atom_site_fract_y
_atom_site_fract_z
Zn11	Zn1	0.658770	0.243420	0.986400
Zn21	Zn2	0.097810	0.243420	0.513600
Zn31	Zn3	0.341230	0.756580	0.013600
Zn41	Zn4	0.902190	0.756580	0.486400
H11	H1	0.981000	0.129000	0.934000
H21	H2	0.135600	0.986200	0.871900
H31	H3	0.756700	0.910800	0.869000
H41	H4	0.611200	0.060800	0.928300
H51	H5	0.972300	0.737800	0.836800
H61	H6	0.921000	0.814400	0.777200
H71	H7	0.289000	0.684600	0.819600
H81	H8	0.367500	0.615000	0.754400
H91	H9	0.596800	0.453800	0.937100
H101	H10	0.444400	0.578200	0.875900
H111	H11	0.230500	0.380400	0.850600
H121	H12	0.381400	0.262200	0.913200
H131	H13	0.124500	0.355600	0.059900
H141	H14	0.810500	0.496600	0.943700
H151	H15	0.386000	0.327400	0.192600
H161	H16	0.532800	0.014800	0.190900
H171	H17	0.890000	0.129000	0.566000
H181	H18	0.878200	0.986200	0.628100
H191	H19	0.332500	0.910800	0.631000
H201	H20	0.328000	0.060800	0.571700
H211	H21	0.289900	0.737800	0.663200
H221	H22	0.264600	0.814400	0.722800
H231	H23	0.026400	0.684600	0.680400
H241	H24	0.017500	0.615000	0.745600
H251	H25	0.949400	0.453800	0.562900
H261	H26	0.977400	0.578200	0.624100
H271	H27	0.389100	0.380400	0.649400
H281	H28	0.356400	0.262200	0.586800
H291	H29	0.519900	0.355600	0.440100
H301	H30	0.692900	0.496600	0.556300
H311	H31	0.286600	0.327400	0.307400
H321	H32	0.452400	0.014800	0.309100
H331	H33	0.019000	0.871000	0.066000
H341	H34	0.864400	0.013800	0.128100
H351	H35	0.243300	0.089200	0.131000
H361	H36	0.388800	0.939200	0.071700
H371	H37	0.027700	0.262200	0.163200
H381	H38	0.079000	0.185600	0.222800
H391	H39	0.711000	0.315400	0.180400
H401	H40	0.632500	0.385000	0.245600
H411	H41	0.403200	0.546200	0.062900
H421	H42	0.555600	0.421800	0.124100
H431	H43	0.769500	0.619600	0.149400
H441	H44	0.618600	0.737800	0.086800
H451	H45	0.875500	0.644400	0.940100
H461	H46	0.189500	0.503400	0.056300
H471	H47	0.614000	0.672600	0.807400
H481	H48	0.467200	0.985200	0.809100
H491	H49	0.110000	0.871000	0.434000
H501	H50	0.121800	0.013800	0.371900
H511	H51	0.667500	0.089200	0.369000
H521	H52	0.672000	0.939200	0.428300
H531	H53	0.710100	0.262200	0.336800
H541	H54	0.735400	0.185600	0.277200
H551	H55	0.973600	0.315400	0.319600
H561	H56	0.982500	0.385000	0.254400
H571	H57	0.050600	0.546200	0.437100
H581	H58	0.022600	0.421800	0.375900
H591	H59	0.610900	0.619600	0.350600
H601	H60	0.643600	0.737800	0.413200
H611	H61	0.480100	0.644400	0.559900
H621	H62	0.307100	0.503400	0.443700
H631	H63	0.713400	0.672600	0.692600
H641	H64	0.547600	0.985200	0.690900
C11	C1	0.935490	0.085420	0.919780
C21	C2	0.029160	0.999680	0.883000
C31	C3	0.964090	0.933420	0.862620
C41	C4	0.803770	0.955260	0.880840
C51	C5	0.718110	0.044780	0.916890
C61	C6	0.006890	0.778820	0.800040
C71	C7	0.271530	0.643540	0.786610
C81	C8	0.522800	0.438200	0.919070
C91	C9	0.431160	0.513880	0.882610
C101	C10	0.321620	0.493360	0.856730
C111	C11	0.304870	0.396260	0.868220
C121	C12	0.396650	0.325700	0.904800
C131	C13	0.914150	0.315300	0.004100
C141	C14	0.074400	0.413200	0.035860
C151	C15	0.958810	0.411180	0.001310
C161	C16	0.887370	0.497860	0.966500
C171	C17	0.533060	0.170080	0.105530
C181	C18	0.396220	0.264960	0.215530
C191	C19	0.469230	0.171740	0.180390
C201	C20	0.487240	0.076920	0.214700
C211	C21	0.979090	0.085420	0.580220
C221	C22	0.971160	0.999680	0.617000
C231	C23	0.102490	0.933420	0.637380
C241	C24	0.240970	0.955260	0.619160
C251	C25	0.237110	0.044780	0.583110
C261	C26	0.214290	0.778820	0.699960
C271	C27	0.084930	0.643540	0.713390
C281	C28	0.039000	0.438200	0.580930
C291	C29	0.054960	0.513880	0.617390
C301	C30	0.185020	0.493360	0.643270
C311	C31	0.298870	0.396260	0.631780
C321	C32	0.277650	0.325700	0.595200
C331	C33	0.770550	0.315300	0.495900
C341	C34	0.512400	0.413200	0.464140
C351	C35	0.630010	0.411180	0.498690
C361	C36	0.614770	0.497860	0.533500
C371	C37	0.296860	0.170080	0.394470
C381	C38	0.338820	0.264960	0.284470
C391	C39	0.359030	0.171740	0.319610
C401	C40	0.435840	0.076920	0.285300
C411	C41	0.064510	0.914580	0.080220
C421	C42	0.970840	0.000320	0.117000
C431	C43	0.035910	0.066580	0.137380
C441	C44	0.196230	0.044740	0.119160
C451	C45	0.281890	0.955220	0.083110
C461	C46	0.993110	0.221180	0.199960
C471	C47	0.728470	0.356460	0.213390
C481	C48	0.477200	0.561800	0.080930
C491	C49	0.568840	0.486120	0.117390
C501	C50	0.678380	0.506640	0.143270
C511	C51	0.695130	0.603740	0.131780
C521	C52	0.603350	0.674300	0.095200
C531	C53	0.085850	0.684700	0.995900
C541	C54	0.925600	0.586800	0.964140
C551	C55	0.041190	0.588820	0.998690
C561	C56	0.112630	0.502140	0.033500
C571	C57	0.466940	0.829920	0.894470
C581	C58	0.603780	0.735040	0.784470
C591	C59	0.530770	0.828260	0.819610
C601	C60	0.512760	0.923080	0.785300
C611	C61	0.020910	0.914580	0.419780
C621	C62	0.028840	0.000320	0.383000
C631	C63	0.897510	0.066580	0.362620
C641	C64	0.759030	0.044740	0.380840
C651	C65	0.762890	0.955220	0.416890
C661	C66	0.785710	0.221180	0.300040
C671	C67	0.915070	0.356460	0.286610
C681	C68	0.961000	0.561800	0.419070
C691	C69	0.945040	0.486120	0.382610
C701	C70	0.814980	0.506640	0.356730
C711	C71	0.701130	0.603740	0.368220
C721	C72	0.722350	0.674300	0.404800
C731	C73	0.229450	0.684700	0.504100
C741	C74	0.487600	0.586800	0.535860
C751	C75	0.369990	0.588820	0.501310
C761	C76	0.385230	0.502140	0.466500
C771	C77	0.703140	0.829920	0.605530
C781	C78	0.661180	0.735040	0.715530
C791	C79	0.640970	0.828260	0.680390
C801	C80	0.564160	0.923080	0.714700
C811	C81	0.144960	0.710080	0.750000
C821	C82	0.855040	0.289920	0.250000
N11	N1	0.781260	0.110280	0.936450
N21	N2	0.511850	0.342500	0.930410
N31	N3	0.108460	0.110280	0.563550
N41	N4	0.145650	0.342500	0.569590
N51	N5	0.218740	0.889720	0.063550
N61	N6	0.488150	0.657500	0.069590
N71	N7	0.891540	0.889720	0.436450
N81	N8	0.854350	0.657500	0.430410
O11	O1	0.062510	0.851780	0.825550
O21	O2	0.221830	0.561940	0.819960
O31	O3	0.794320	0.326160	0.979640
O41	O4	0.992040	0.234120	0.028240
O51	O5	0.550270	0.252460	0.080370
O61	O6	0.562180	0.091440	0.071680
O71	O7	0.085710	0.851780	0.674450
O81	O8	0.216230	0.561940	0.680040
O91	O9	0.879520	0.326160	0.520360
O101	O10	0.773840	0.234120	0.471760
O111	O11	0.197270	0.252460	0.419630
O121	O12	0.346380	0.091440	0.428320
O131	O13	0.937490	0.148220	0.174450
O141	O14	0.778170	0.438060	0.180040
O151	O15	0.205680	0.673840	0.020360
O161	O16	0.007960	0.765880	0.971760
O171	O17	0.449730	0.747540	0.919630
O181	O18	0.437820	0.908560	0.928320
O191	O19	0.914290	0.148220	0.325550
O201	O20	0.783770	0.438060	0.319960
O211	O21	0.120480	0.673840	0.479640
O221	O22	0.226160	0.765880	0.528240
O231	O23	0.802730	0.747540	0.580370
O241	O24	0.653620	0.908560	0.571680
