data_ZARQAM_freeONLY_PM
_symmetry_space_group_name_H-M	'P1'
_cell_length_a	9.080500
_cell_length_b	23.613000
_cell_length_c	12.830300
_cell_angle_alpha	90.000000
_cell_angle_beta	90.000000
_cell_angle_gamma	90.000000
_symmetry_Int_Tables_number 1

loop_
_symmetry_equiv_pos_as_xyz
'x,y,z'

loop_
_atom_site_label
_atom_site_type_symbol
_atom_site_fract_x
_atom_site_fract_y
_atom_site_fract_z
K11	K1	0.114500	0.787950	0.936300
K21	K2	0.885500	0.212050	0.936300
K31	K3	0.614500	0.712050	0.063700
K41	K4	0.385500	0.287950	0.063700
U11	U1	0.145980	0.733060	0.657620
U21	U2	0.634910	0.568420	0.923250
U31	U3	0.694950	0.828270	0.850750
U41	U4	0.854020	0.266940	0.657620
U51	U5	0.365090	0.431580	0.923250
U61	U6	0.305050	0.171730	0.850750
U71	U7	0.645980	0.766940	0.342380
U81	U8	0.134910	0.931580	0.076750
U91	U9	0.194950	0.671730	0.149250
U101	U10	0.354020	0.233060	0.342380
U111	U11	0.865090	0.068420	0.076750
U121	U12	0.805050	0.328270	0.149250
P11	P1	0.321600	0.662270	0.877700
P21	P2	0.228400	0.553250	0.964600
P31	P3	0.831100	0.685510	0.814300
P41	P4	0.747300	0.741540	0.617300
P51	P5	0.678400	0.337730	0.877700
P61	P6	0.771600	0.446750	0.964600
P71	P7	0.168900	0.314490	0.814300
P81	P8	0.252700	0.258460	0.617300
P91	P9	0.821600	0.837730	0.122300
P101	P10	0.728400	0.946750	0.035400
P111	P11	0.331100	0.814490	0.185700
P121	P12	0.247300	0.758460	0.382700
P131	P13	0.178400	0.162270	0.122300
P141	P14	0.271600	0.053250	0.035400
P151	P15	0.668900	0.185510	0.185700
P161	P16	0.752700	0.241540	0.382700
H11	H1	0.107900	0.609400	0.847100
H21	H2	0.246700	0.579300	0.793400
H31	H3	0.783600	0.645500	0.651500
H41	H4	0.633000	0.666600	0.704000
H51	H5	0.892100	0.390600	0.847100
H61	H6	0.753300	0.420700	0.793400
H71	H7	0.216400	0.354500	0.651500
H81	H8	0.367000	0.333400	0.704000
H91	H9	0.607900	0.890600	0.152900
H101	H10	0.746700	0.920700	0.206600
H111	H11	0.283600	0.854500	0.348500
H121	H12	0.133000	0.833400	0.296000
H131	H13	0.392100	0.109400	0.152900
H141	H14	0.253300	0.079300	0.206600
H151	H15	0.716400	0.145500	0.348500
H161	H16	0.867000	0.166600	0.296000
C11	C1	0.212500	0.598900	0.857100
C21	C2	0.737300	0.676700	0.691400
C31	C3	0.787500	0.401100	0.857100
C41	C4	0.262700	0.323300	0.691400
C51	C5	0.712500	0.901100	0.142900
C61	C6	0.237300	0.823300	0.308600
C71	C7	0.287500	0.098900	0.142900
C81	C8	0.762700	0.176700	0.308600
O11	O1	0.816600	0.629500	0.876200
O21	O2	0.309300	0.701500	0.786100
O31	O3	0.660500	0.589700	0.054700
O41	O4	0.991600	0.700500	0.791500
O51	O5	0.154400	0.801500	0.715600
O61	O6	0.672200	0.786700	0.682200
O71	O7	0.667300	0.732400	0.513900
O81	O8	0.752900	0.732700	0.872500
O91	O9	0.173600	0.581400	0.060400
O101	O10	0.139500	0.664300	0.600500
O111	O11	0.879400	0.845300	0.824000
O121	O12	0.146900	0.496700	0.942100
O131	O13	0.911300	0.754200	0.597700
O141	O14	0.389900	0.532600	0.970600
O151	O15	0.482200	0.643900	0.894800
O161	O16	0.507700	0.811800	0.880000
O171	O17	0.398700	0.756700	0.614200
O181	O18	0.258200	0.689200	0.975200
O191	O19	0.613300	0.546100	0.792900
O201	O20	0.606200	0.903100	0.728000
O211	O21	0.183400	0.370500	0.876200
O221	O22	0.690700	0.298500	0.786100
O231	O23	0.339500	0.410300	0.054700
O241	O24	0.008400	0.299500	0.791500
O251	O25	0.845600	0.198500	0.715600
O261	O26	0.327800	0.213300	0.682200
O271	O27	0.332700	0.267600	0.513900
O281	O28	0.247100	0.267300	0.872500
O291	O29	0.826400	0.418600	0.060400
O301	O30	0.860500	0.335700	0.600500
O311	O31	0.120600	0.154700	0.824000
O321	O32	0.853100	0.503300	0.942100
O331	O33	0.088700	0.245800	0.597700
O341	O34	0.610100	0.467400	0.970600
O351	O35	0.517800	0.356100	0.894800
O361	O36	0.492300	0.188200	0.880000
O371	O37	0.601300	0.243300	0.614200
O381	O38	0.741800	0.310800	0.975200
O391	O39	0.386700	0.453900	0.792900
O401	O40	0.393800	0.096900	0.728000
O411	O41	0.316600	0.870500	0.123800
O421	O42	0.809300	0.798500	0.213900
O431	O43	0.160500	0.910300	0.945300
O441	O44	0.491600	0.799500	0.208500
O451	O45	0.654400	0.698500	0.284400
O461	O46	0.172200	0.713300	0.317800
O471	O47	0.167300	0.767600	0.486100
O481	O48	0.252900	0.767300	0.127500
O491	O49	0.673600	0.918600	0.939600
O501	O50	0.639500	0.835700	0.399500
O511	O51	0.379400	0.654700	0.176000
O521	O52	0.646900	0.003300	0.057900
O531	O53	0.411300	0.745800	0.402300
O541	O54	0.889900	0.967400	0.029400
O551	O55	0.982200	0.856100	0.105200
O561	O56	0.007700	0.688200	0.120000
O571	O57	0.898700	0.743300	0.385800
O581	O58	0.758200	0.810800	0.024800
O591	O59	0.113300	0.953900	0.207100
O601	O60	0.106200	0.596900	0.272000
O611	O61	0.683400	0.129500	0.123800
O621	O62	0.190700	0.201500	0.213900
O631	O63	0.839500	0.089700	0.945300
O641	O64	0.508400	0.200500	0.208500
O651	O65	0.345600	0.301500	0.284400
O661	O66	0.827800	0.286700	0.317800
O671	O67	0.832700	0.232400	0.486100
O681	O68	0.747100	0.232700	0.127500
O691	O69	0.326400	0.081400	0.939600
O701	O70	0.360500	0.164300	0.399500
O711	O71	0.620600	0.345300	0.176000
O721	O72	0.353100	0.996700	0.057900
O731	O73	0.588700	0.254200	0.402300
O741	O74	0.110100	0.032600	0.029400
O751	O75	0.017800	0.143900	0.105200
O761	O76	0.992300	0.311800	0.120000
O771	O77	0.101300	0.256700	0.385800
O781	O78	0.241800	0.189200	0.024800
O791	O79	0.886700	0.046100	0.207100
O801	O80	0.893800	0.403100	0.272000
