data_ZEDHIB_freeONLY_PM
_symmetry_space_group_name_H-M	'P1'
_cell_length_a	9.427200
_cell_length_b	18.662000
_cell_length_c	20.461000
_cell_angle_alpha	90.000000
_cell_angle_beta	90.000000
_cell_angle_gamma	90.000000
_symmetry_Int_Tables_number 1

loop_
_symmetry_equiv_pos_as_xyz
'x,y,z'

loop_
_atom_site_label
_atom_site_type_symbol
_atom_site_fract_x
_atom_site_fract_y
_atom_site_fract_z
Zn11	Zn1	0.746520	0.365530	0.332620
Zn21	Zn2	0.448650	0.272380	0.383520
Zn31	Zn3	0.643990	0.677360	0.075960
Zn41	Zn4	0.746520	0.634470	0.667380
Zn51	Zn5	0.448650	0.727620	0.616480
Zn61	Zn6	0.643990	0.322640	0.924040
Zn71	Zn7	0.246520	0.865530	0.167380
Zn81	Zn8	0.948650	0.772380	0.116480
Zn91	Zn9	0.143990	0.177360	0.424040
Zn101	Zn10	0.246520	0.134470	0.832620
Zn111	Zn11	0.948650	0.227620	0.883520
Zn121	Zn12	0.143990	0.822640	0.575960
H11	H1	0.690000	0.242500	0.363000
H21	H2	0.180000	0.286000	0.379000
H31	H3	0.188500	0.232600	0.071300
H41	H4	0.530000	0.527700	0.230500
H51	H5	0.153100	0.602000	0.172500
H61	H6	0.044100	0.514100	0.234100
H71	H7	0.174900	0.432900	0.293000
H81	H8	0.238500	0.428600	0.426400
H91	H9	0.716500	0.096500	0.456100
H101	H10	0.995000	0.286200	0.266300
H111	H11	0.040200	0.365800	0.088000
H121	H12	0.853000	0.441600	0.107200
H131	H13	0.734900	0.435600	0.206100
H141	H14	0.122700	0.219100	0.175500
H151	H15	0.228800	0.279600	0.195000
H161	H16	0.385200	0.257200	0.999600
H171	H17	0.327100	0.375400	0.158900
H181	H18	0.514300	0.444900	0.127900
H191	H19	0.636700	0.417700	0.033700
H201	H20	0.690000	0.757500	0.637000
H211	H21	0.180000	0.714000	0.621000
H221	H22	0.188500	0.767400	0.928700
H231	H23	0.530000	0.472300	0.769500
H241	H24	0.153100	0.398000	0.827500
H251	H25	0.044100	0.485900	0.765900
H261	H26	0.174900	0.567100	0.707000
H271	H27	0.238500	0.571400	0.573600
H281	H28	0.716500	0.903500	0.543900
H291	H29	0.995000	0.713800	0.733700
H301	H30	0.040200	0.634200	0.912000
H311	H31	0.853000	0.558400	0.892800
H321	H32	0.734900	0.564400	0.793900
H331	H33	0.122700	0.780900	0.824500
H341	H34	0.228800	0.720400	0.805000
H351	H35	0.385200	0.742800	0.000400
H361	H36	0.327100	0.624600	0.841100
H371	H37	0.514300	0.555100	0.872100
H381	H38	0.636700	0.582300	0.966300
H391	H39	0.190000	0.742500	0.137000
H401	H40	0.680000	0.786000	0.121000
H411	H41	0.688500	0.732600	0.428700
H421	H42	0.030000	0.027700	0.269500
H431	H43	0.653100	0.102000	0.327500
H441	H44	0.544100	0.014100	0.265900
H451	H45	0.674900	0.932900	0.207000
H461	H46	0.738500	0.928600	0.073600
H471	H47	0.216500	0.596500	0.043900
H481	H48	0.495000	0.786200	0.233700
H491	H49	0.540200	0.865800	0.412000
H501	H50	0.353000	0.941600	0.392800
H511	H51	0.234900	0.935600	0.293900
H521	H52	0.622700	0.719100	0.324500
H531	H53	0.728800	0.779600	0.305000
H541	H54	0.885200	0.757200	0.500400
H551	H55	0.827100	0.875400	0.341100
H561	H56	0.014300	0.944900	0.372100
H571	H57	0.136700	0.917700	0.466300
H581	H58	0.190000	0.257500	0.863000
H591	H59	0.680000	0.214000	0.879000
H601	H60	0.688500	0.267400	0.571300
H611	H61	0.030000	0.972300	0.730500
H621	H62	0.653100	0.898000	0.672500
H631	H63	0.544100	0.985900	0.734100
H641	H64	0.674900	0.067100	0.793000
H651	H65	0.738500	0.071400	0.926400
H661	H66	0.216500	0.403500	0.956100
H671	H67	0.495000	0.213800	0.766300
H681	H68	0.540200	0.134200	0.588000
H691	H69	0.353000	0.058400	0.607200
H701	H70	0.234900	0.064400	0.706100
H711	H71	0.622700	0.280900	0.675500
H721	H72	0.728800	0.220400	0.695000
H731	H73	0.885200	0.242800	0.499600
H741	H74	0.827100	0.124600	0.658900
H751	H75	0.014300	0.055100	0.627900
H761	H76	0.136700	0.082300	0.533700
H771	H77	0.866700	0.500000	0.500000
H781	H78	0.357700	0.500000	0.500000
H791	H79	0.366700	0.000000	0.000000
H801	H80	0.857700	0.000000	0.000000
H811	H81	0.349200	0.000000	0.500000
H821	H82	0.839900	0.000000	0.500000
H831	H83	0.849200	0.500000	0.000000
H841	H84	0.339900	0.500000	0.000000
C11	C1	0.457400	0.419600	0.305400
C21	C2	0.368400	0.472600	0.268700
C31	C3	0.431500	0.524900	0.231300
C41	C4	0.353100	0.573600	0.194800
C51	C5	0.207500	0.569600	0.196200
C61	C6	0.142600	0.516800	0.233300
C71	C7	0.220400	0.468300	0.268900
C81	C8	0.428300	0.626700	0.151700
C91	C9	0.960600	0.413000	0.406600
C101	C10	0.040300	0.457200	0.455400
C111	C11	0.188300	0.457100	0.455600
C121	C12	0.435800	0.120500	0.447300
C131	C13	0.520600	0.057900	0.473500
C141	C14	0.667200	0.057900	0.473600
C151	C15	0.964400	0.317000	0.233400
C161	C16	0.034800	0.316800	0.173900
C171	C17	0.992700	0.364000	0.127900
C181	C18	0.881600	0.409100	0.139000
C191	C19	0.812100	0.405700	0.198400
C201	C20	0.155200	0.266800	0.164000
C211	C21	0.412700	0.294700	0.026800
C221	C22	0.334600	0.306500	0.083900
C231	C23	0.376200	0.364400	0.120800
C241	C24	0.487400	0.405800	0.102600
C251	C25	0.560300	0.389300	0.046100
C261	C26	0.457400	0.580400	0.694600
C271	C27	0.368400	0.527400	0.731300
C281	C28	0.431500	0.475100	0.768700
C291	C29	0.353100	0.426400	0.805200
C301	C30	0.207500	0.430400	0.803800
C311	C31	0.142600	0.483200	0.766700
C321	C32	0.220400	0.531700	0.731100
C331	C33	0.428300	0.373300	0.848300
C341	C34	0.960600	0.587000	0.593400
C351	C35	0.040300	0.542800	0.544600
C361	C36	0.188300	0.542900	0.544400
C371	C37	0.435800	0.879500	0.552700
C381	C38	0.520600	0.942100	0.526500
C391	C39	0.667200	0.942100	0.526400
C401	C40	0.964400	0.683000	0.766600
C411	C41	0.034800	0.683200	0.826100
C421	C42	0.992700	0.636000	0.872100
C431	C43	0.881600	0.590900	0.861000
C441	C44	0.812100	0.594300	0.801600
C451	C45	0.155200	0.733200	0.836000
C461	C46	0.412700	0.705300	0.973200
C471	C47	0.334600	0.693500	0.916100
C481	C48	0.376200	0.635600	0.879200
C491	C49	0.487400	0.594200	0.897400
C501	C50	0.560300	0.610700	0.953900
C511	C51	0.957400	0.919600	0.194600
C521	C52	0.868400	0.972600	0.231300
C531	C53	0.931500	0.024900	0.268700
C541	C54	0.853100	0.073600	0.305200
C551	C55	0.707500	0.069600	0.303800
C561	C56	0.642600	0.016800	0.266700
C571	C57	0.720400	0.968300	0.231100
C581	C58	0.928300	0.126700	0.348300
C591	C59	0.460600	0.913000	0.093400
C601	C60	0.540300	0.957200	0.044600
C611	C61	0.688300	0.957100	0.044400
C621	C62	0.935800	0.620500	0.052700
C631	C63	0.020600	0.557900	0.026500
C641	C64	0.167200	0.557900	0.026400
C651	C65	0.464400	0.817000	0.266600
C661	C66	0.534800	0.816800	0.326100
C671	C67	0.492700	0.864000	0.372100
C681	C68	0.381600	0.909100	0.361000
C691	C69	0.312100	0.905700	0.301600
C701	C70	0.655200	0.766800	0.336000
C711	C71	0.912700	0.794700	0.473200
C721	C72	0.834600	0.806500	0.416100
C731	C73	0.876200	0.864400	0.379200
C741	C74	0.987400	0.905800	0.397400
C751	C75	0.060300	0.889300	0.453900
C761	C76	0.957400	0.080400	0.805400
C771	C77	0.868400	0.027400	0.768700
C781	C78	0.931500	0.975100	0.731300
C791	C79	0.853100	0.926400	0.694800
C801	C80	0.707500	0.930400	0.696200
C811	C81	0.642600	0.983200	0.733300
C821	C82	0.720400	0.031700	0.768900
C831	C83	0.928300	0.873300	0.651700
C841	C84	0.460600	0.087000	0.906600
C851	C85	0.540300	0.042800	0.955400
C861	C86	0.688300	0.042900	0.955600
C871	C87	0.935800	0.379500	0.947300
C881	C88	0.020600	0.442100	0.973500
C891	C89	0.167200	0.442100	0.973600
C901	C90	0.464400	0.183000	0.733400
C911	C91	0.534800	0.183200	0.673900
C921	C92	0.492700	0.136000	0.627900
C931	C93	0.381600	0.090900	0.639000
C941	C94	0.312100	0.094300	0.698400
C951	C95	0.655200	0.233200	0.664000
C961	C96	0.912700	0.205300	0.526800
C971	C97	0.834600	0.193500	0.583900
C981	C98	0.876200	0.135600	0.620800
C991	C99	0.987400	0.094200	0.602600
C1001	C100	0.060300	0.110700	0.546100
C1011	C101	0.965400	0.500000	0.500000
C1021	C102	0.259100	0.500000	0.500000
C1031	C103	0.465400	0.000000	0.000000
C1041	C104	0.759100	0.000000	0.000000
C1051	C105	0.447800	0.000000	0.500000
C1061	C106	0.741300	0.000000	0.500000
C1071	C107	0.947800	0.500000	0.000000
C1081	C108	0.241300	0.500000	0.000000
N11	N1	0.854200	0.360000	0.245000
N21	N2	0.220500	0.262500	0.099700
N31	N3	0.524500	0.334000	0.009000
N41	N4	0.854200	0.640000	0.755000
N51	N5	0.220500	0.737500	0.900300
N61	N6	0.524500	0.666000	0.991000
N71	N7	0.354200	0.860000	0.255000
N81	N8	0.720500	0.762500	0.400300
N91	N9	0.024500	0.834000	0.491000
N101	N10	0.354200	0.140000	0.745000
N111	N11	0.720500	0.237500	0.599700
N121	N12	0.024500	0.166000	0.509000
O11	O1	0.589300	0.430000	0.304000
O21	O2	0.397800	0.369800	0.334800
O31	O3	0.558700	0.611900	0.139400
O41	O4	0.367900	0.678900	0.129400
O51	O5	0.833300	0.433200	0.394500
O61	O6	0.016000	0.360500	0.381000
O71	O7	0.501900	0.172500	0.426200
O81	O8	0.302600	0.113800	0.450100
O91	O9	0.652500	0.283940	0.363700
O101	O10	0.241500	0.259600	0.397100
O111	O11	0.589300	0.570000	0.696000
O121	O12	0.397800	0.630200	0.665200
O131	O13	0.558700	0.388100	0.860600
O141	O14	0.367900	0.321100	0.870600
O151	O15	0.833300	0.566800	0.605500
O161	O16	0.016000	0.639500	0.619000
O171	O17	0.501900	0.827500	0.573800
O181	O18	0.302600	0.886200	0.549900
O191	O19	0.652500	0.716060	0.636300
O201	O20	0.241500	0.740400	0.602900
O211	O21	0.089300	0.930000	0.196000
O221	O22	0.897800	0.869800	0.165200
O231	O23	0.058700	0.111900	0.360600
O241	O24	0.867900	0.178900	0.370600
O251	O25	0.333300	0.933200	0.105500
O261	O26	0.516000	0.860500	0.119000
O271	O27	0.001900	0.672500	0.073800
O281	O28	0.802600	0.613800	0.049900
O291	O29	0.152500	0.783940	0.136300
O301	O30	0.741500	0.759600	0.102900
O311	O31	0.089300	0.070000	0.804000
O321	O32	0.897800	0.130200	0.834800
O331	O33	0.058700	0.888100	0.639400
O341	O34	0.867900	0.821100	0.629400
O351	O35	0.333300	0.066800	0.894500
O361	O36	0.516000	0.139500	0.881000
O371	O37	0.001900	0.327500	0.926200
O381	O38	0.802600	0.386200	0.950100
O391	O39	0.152500	0.216060	0.863700
O401	O40	0.741500	0.240400	0.897100
