data_ZEDROR_freeONLY_PM
_symmetry_space_group_name_H-M	'P1'
_cell_length_a	10.847100
_cell_length_b	18.232000
_cell_length_c	18.894000
_cell_angle_alpha	108.711000
_cell_angle_beta	90.000000
_cell_angle_gamma	90.000000
_symmetry_Int_Tables_number 1

loop_
_symmetry_equiv_pos_as_xyz
'x,y,z'

loop_
_atom_site_label
_atom_site_type_symbol
_atom_site_fract_x
_atom_site_fract_y
_atom_site_fract_z
Zn11	Zn1	0.804820	0.683630	0.971980
Zn21	Zn2	0.806030	0.788740	0.874930
Zn31	Zn3	0.695180	0.183630	0.471980
Zn41	Zn4	0.693970	0.288740	0.374930
H11	H1	0.492400	0.385400	0.317600
H21	H2	0.538600	0.458900	0.231400
H31	H3	0.914400	0.332500	0.310300
H41	H4	0.927100	0.334800	0.226700
H51	H5	0.950000	0.411700	0.295900
H61	H6	0.830900	0.407600	0.148400
H71	H7	0.724100	0.469100	0.152400
H81	H8	0.830800	0.567100	0.234700
H91	H9	0.922600	0.508600	0.256000
H101	H10	0.014000	0.475700	0.136000
H111	H11	0.026600	0.566600	0.178900
H121	H12	0.852600	0.432600	0.022200
H131	H13	0.764400	0.504400	0.943000
H141	H14	0.913300	0.727800	0.122400
H151	H15	0.900400	0.691300	0.188600
H161	H16	0.026200	0.681300	0.142200
H171	H17	0.712300	0.995000	0.053100
H181	H18	0.683500	0.103900	0.157500
H191	H19	0.757700	0.976400	0.292200
H201	H20	0.791500	0.868700	0.187700
H211	H21	0.201000	0.783000	0.842200
H221	H22	0.414800	0.772100	0.837500
H231	H23	0.410500	0.693100	0.013500
H241	H24	0.196600	0.701900	0.018300
H251	H25	0.007600	0.885400	0.817600
H261	H26	0.961400	0.958900	0.731400
H271	H27	0.585600	0.832500	0.810300
H281	H28	0.572900	0.834800	0.726700
H291	H29	0.550000	0.911700	0.795900
H301	H30	0.669100	0.907600	0.648400
H311	H31	0.775900	0.969100	0.652400
H321	H32	0.669200	0.067100	0.734700
H331	H33	0.577400	0.008600	0.756000
H341	H34	0.486000	0.975700	0.636000
H351	H35	0.473400	0.066600	0.678900
H361	H36	0.647400	0.932600	0.522200
H371	H37	0.735600	0.004400	0.443000
H381	H38	0.586700	0.227800	0.622400
H391	H39	0.599600	0.191300	0.688600
H401	H40	0.473800	0.181300	0.642200
H411	H41	0.787700	0.495000	0.553100
H421	H42	0.816500	0.603900	0.657500
H431	H43	0.742300	0.476400	0.792200
H441	H44	0.708500	0.368700	0.687700
H451	H45	0.299000	0.283000	0.342200
H461	H46	0.085200	0.272100	0.337500
H471	H47	0.089500	0.193100	0.513500
H481	H48	0.303400	0.201900	0.518300
C11	C1	0.571400	0.392000	0.298900
C21	C2	0.596500	0.432000	0.251700
C31	C3	0.768700	0.384000	0.277700
C41	C4	0.901300	0.364000	0.277600
C51	C5	0.786000	0.452300	0.182500
C61	C6	0.876600	0.517800	0.214400
C71	C7	0.967100	0.524700	0.155400
C81	C8	0.854300	0.487100	0.032200
C91	C9	0.806400	0.526600	0.989100
C101	C10	0.888600	0.610700	0.084900
C111	C11	0.936300	0.684100	0.139200
C121	C12	0.780600	0.852700	0.042200
C131	C13	0.757400	0.921300	0.110000
C141	C14	0.723300	0.991300	0.101700
C151	C15	0.705000	0.055800	0.163800
C161	C16	0.717800	0.050800	0.234700
C171	C17	0.698100	0.121700	0.302000
C181	C18	0.749600	0.980500	0.243500
C191	C19	0.769300	0.916600	0.181400
C201	C20	0.040400	0.743600	0.929400
C211	C21	0.177900	0.742800	0.930200
C221	C22	0.243300	0.764200	0.876900
C231	C23	0.370100	0.758100	0.874400
C241	C24	0.432600	0.731800	0.925200
C251	C25	0.570800	0.727300	0.923300
C261	C26	0.367600	0.711100	0.978500
C271	C27	0.240800	0.716300	0.981400
C281	C28	0.928600	0.892000	0.798900
C291	C29	0.903500	0.932000	0.751700
C301	C30	0.731300	0.884000	0.777700
C311	C31	0.598700	0.864000	0.777600
C321	C32	0.714000	0.952300	0.682500
C331	C33	0.623400	0.017800	0.714400
C341	C34	0.532900	0.024700	0.655400
C351	C35	0.645700	0.987100	0.532200
C361	C36	0.693600	0.026600	0.489100
C371	C37	0.611400	0.110700	0.584900
C381	C38	0.563700	0.184100	0.639200
C391	C39	0.719400	0.352700	0.542200
C401	C40	0.742600	0.421300	0.610000
C411	C41	0.776700	0.491300	0.601700
C421	C42	0.795000	0.555800	0.663800
C431	C43	0.782200	0.550800	0.734700
C441	C44	0.801900	0.621700	0.802000
C451	C45	0.750400	0.480500	0.743500
C461	C46	0.730700	0.416600	0.681400
C471	C47	0.459600	0.243600	0.429400
C481	C48	0.322100	0.242800	0.430200
C491	C49	0.256700	0.264200	0.376900
C501	C50	0.129900	0.258100	0.374400
C511	C51	0.067400	0.231800	0.425200
C521	C52	0.929200	0.227300	0.423300
C531	C53	0.132400	0.211100	0.478500
C541	C54	0.259200	0.216300	0.481400
N11	N1	0.681700	0.362150	0.315290
N21	N2	0.721300	0.426700	0.238500
N31	N3	0.906000	0.541100	0.093100
N41	N4	0.828400	0.604100	0.022880
N51	N5	0.818300	0.862150	0.815290
N61	N6	0.778700	0.926700	0.738500
N71	N7	0.594000	0.041100	0.593100
N81	N8	0.671600	0.104100	0.522880
O11	O1	0.795100	0.789220	0.052100
O21	O2	0.784500	0.864710	0.981400
O31	O3	0.685500	0.184930	0.290770
O41	O4	0.696600	0.111300	0.363890
O51	O5	0.988600	0.782420	0.894670
O61	O6	0.987600	0.702900	0.962500
O71	O7	0.626500	0.759690	0.884130
O81	O8	0.621200	0.692400	0.962800
O91	O9	0.704900	0.289220	0.552100
O101	O10	0.715500	0.364710	0.481400
O111	O11	0.814500	0.684930	0.790770
O121	O12	0.803400	0.611300	0.863890
O131	O13	0.511400	0.282420	0.394670
O141	O14	0.512400	0.202900	0.462500
O151	O15	0.873500	0.259690	0.384130
O161	O16	0.878800	0.192400	0.462800
Zn51	Zn5	0.304820	0.816370	0.528020
Zn61	Zn6	0.306030	0.711260	0.625070
Zn71	Zn7	0.195180	0.316370	0.028020
Zn81	Zn8	0.193970	0.211260	0.125070
H491	H49	0.992400	0.114600	0.182400
H501	H50	0.038600	0.041100	0.268600
H511	H51	0.414400	0.167500	0.189700
H521	H52	0.427100	0.165200	0.273300
H531	H53	0.450000	0.088300	0.204100
H541	H54	0.330900	0.092400	0.351600
H551	H55	0.224100	0.030900	0.347600
H561	H56	0.330800	0.932900	0.265300
H571	H57	0.422600	0.991400	0.244000
H581	H58	0.514000	0.024300	0.364000
H591	H59	0.526600	0.933400	0.321100
H601	H60	0.352600	0.067400	0.477800
H611	H61	0.264400	0.995600	0.557000
H621	H62	0.413300	0.772200	0.377600
H631	H63	0.400400	0.808700	0.311400
H641	H64	0.526200	0.818700	0.357800
H651	H65	0.212300	0.505000	0.446900
H661	H66	0.183500	0.396100	0.342500
H671	H67	0.257700	0.523600	0.207800
H681	H68	0.291500	0.631300	0.312300
H691	H69	0.701000	0.717000	0.657800
H701	H70	0.914800	0.727900	0.662500
H711	H71	0.910500	0.806900	0.486500
H721	H72	0.696600	0.798100	0.481700
H731	H73	0.507600	0.614600	0.682400
H741	H74	0.461400	0.541100	0.768600
H751	H75	0.085600	0.667500	0.689700
H761	H76	0.072900	0.665200	0.773300
H771	H77	0.050000	0.588300	0.704100
H781	H78	0.169100	0.592400	0.851600
H791	H79	0.275900	0.530900	0.847600
H801	H80	0.169200	0.432900	0.765300
H811	H81	0.077400	0.491400	0.744000
H821	H82	0.986000	0.524300	0.864000
H831	H83	0.973400	0.433400	0.821100
H841	H84	0.147400	0.567400	0.977800
H851	H85	0.235600	0.495600	0.057000
H861	H86	0.086700	0.272200	0.877600
H871	H87	0.099600	0.308700	0.811400
H881	H88	0.973800	0.318700	0.857800
H891	H89	0.287700	0.005000	0.946900
H901	H90	0.316500	0.896100	0.842500
H911	H91	0.242300	0.023600	0.707800
H921	H92	0.208500	0.131300	0.812300
H931	H93	0.799000	0.217000	0.157800
H941	H94	0.585200	0.227900	0.162500
H951	H95	0.589500	0.306900	0.986500
H961	H96	0.803400	0.298100	0.981700
C551	C55	0.071400	0.108000	0.201100
C561	C56	0.096500	0.068000	0.248300
C571	C57	0.268700	0.116000	0.222300
C581	C58	0.401300	0.136000	0.222400
C591	C59	0.286000	0.047700	0.317500
C601	C60	0.376600	0.982200	0.285600
C611	C61	0.467100	0.975300	0.344600
C621	C62	0.354300	0.012900	0.467800
C631	C63	0.306400	0.973400	0.510900
C641	C64	0.388600	0.889300	0.415100
C651	C65	0.436300	0.815900	0.360800
C661	C66	0.280600	0.647300	0.457800
C671	C67	0.257400	0.578700	0.390000
C681	C68	0.223300	0.508700	0.398300
C691	C69	0.205000	0.444200	0.336200
C701	C70	0.217800	0.449200	0.265300
C711	C71	0.198100	0.378300	0.198000
C721	C72	0.249600	0.519500	0.256500
C731	C73	0.269300	0.583400	0.318600
C741	C74	0.540400	0.756400	0.570600
C751	C75	0.677900	0.757200	0.569800
C761	C76	0.743300	0.735800	0.623100
C771	C77	0.870100	0.741900	0.625600
C781	C78	0.932600	0.768200	0.574800
C791	C79	0.070800	0.772700	0.576700
C801	C80	0.867600	0.788900	0.521500
C811	C81	0.740800	0.783700	0.518600
C821	C82	0.428600	0.608000	0.701100
C831	C83	0.403500	0.568000	0.748300
C841	C84	0.231300	0.616000	0.722300
C851	C85	0.098700	0.636000	0.722400
C861	C86	0.214000	0.547700	0.817500
C871	C87	0.123400	0.482200	0.785600
C881	C88	0.032900	0.475300	0.844600
C891	C89	0.145700	0.512900	0.967800
C901	C90	0.193600	0.473400	0.010900
C911	C91	0.111400	0.389300	0.915100
C921	C92	0.063700	0.315900	0.860800
C931	C93	0.219400	0.147300	0.957800
C941	C94	0.242600	0.078700	0.890000
C951	C95	0.276700	0.008700	0.898300
C961	C96	0.295000	0.944200	0.836200
C971	C97	0.282200	0.949200	0.765300
C981	C98	0.301900	0.878300	0.698000
C991	C99	0.250400	0.019500	0.756500
C1001	C100	0.230700	0.083400	0.818600
C1011	C101	0.959600	0.256400	0.070600
C1021	C102	0.822100	0.257200	0.069800
C1031	C103	0.756700	0.235800	0.123100
C1041	C104	0.629900	0.241900	0.125600
C1051	C105	0.567400	0.268200	0.074800
C1061	C106	0.429200	0.272700	0.076700
C1071	C107	0.632400	0.288900	0.021500
C1081	C108	0.759200	0.283700	0.018600
N91	N9	0.181700	0.137850	0.184710
N101	N10	0.221300	0.073300	0.261500
N111	N11	0.406000	0.958900	0.406900
N121	N12	0.328400	0.895900	0.477120
N131	N13	0.318300	0.637850	0.684710
N141	N14	0.278700	0.573300	0.761500
N151	N15	0.094000	0.458900	0.906900
N161	N16	0.171600	0.395900	0.977120
O171	O17	0.295100	0.710780	0.447900
O181	O18	0.284500	0.635290	0.518600
O191	O19	0.185500	0.315070	0.209230
O201	O20	0.196600	0.388700	0.136110
O211	O21	0.488600	0.717580	0.605330
O221	O22	0.487600	0.797100	0.537500
O231	O23	0.126500	0.740310	0.615870
O241	O24	0.121200	0.807600	0.537200
O251	O25	0.204900	0.210780	0.947900
O261	O26	0.215500	0.135290	0.018600
O271	O27	0.314500	0.815070	0.709230
O281	O28	0.303400	0.888700	0.636110
O291	O29	0.011400	0.217580	0.105330
O301	O30	0.012400	0.297100	0.037500
O311	O31	0.373500	0.240310	0.115870
O321	O32	0.378800	0.307600	0.037200
