data_ZEFVOX_freeONLY_PM
_symmetry_space_group_name_H-M	'P1'
_cell_length_a	7.637400
_cell_length_b	10.467000
_cell_length_c	30.492000
_cell_angle_alpha	99.050000
_cell_angle_beta	90.000000
_cell_angle_gamma	90.000000
_symmetry_Int_Tables_number 1

loop_
_symmetry_equiv_pos_as_xyz
'x,y,z'

loop_
_atom_site_label
_atom_site_type_symbol
_atom_site_fract_x
_atom_site_fract_y
_atom_site_fract_z
Nd11	Nd1	0.871820	0.551790	0.768100
Nd21	Nd2	0.371820	0.448210	0.731900
Nd31	Nd3	0.128180	0.448210	0.231900
Nd41	Nd4	0.628180	0.551790	0.268100
Co11	Co1	0.946190	0.713690	0.130110
Co21	Co2	0.446190	0.286310	0.369890
Co31	Co3	0.053810	0.286310	0.869890
Co41	Co4	0.553810	0.713690	0.630110
Co51	Co5	0.000000	0.000000	0.000000
Co61	Co6	0.500000	0.000000	0.500000
H11	H1	0.055200	0.756500	0.918300
H21	H2	0.650900	0.799700	0.877800
H31	H3	0.378100	0.127200	0.985800
H41	H4	0.317700	0.077700	0.217000
H51	H5	0.925400	0.025100	0.186100
H61	H6	0.529400	0.689500	0.124200
H71	H7	0.607000	0.035100	0.937700
H81	H8	0.311900	0.834600	0.160100
H91	H9	0.196600	0.564500	0.088800
H101	H10	0.216100	0.555700	0.132600
H111	H11	0.555200	0.243500	0.581700
H121	H12	0.150900	0.200300	0.622200
H131	H13	0.878100	0.872800	0.514200
H141	H14	0.817700	0.922300	0.283000
H151	H15	0.425400	0.974900	0.313900
H161	H16	0.029400	0.310500	0.375800
H171	H17	0.107000	0.964900	0.562300
H181	H18	0.811900	0.165400	0.339900
H191	H19	0.696600	0.435500	0.411200
H201	H20	0.716100	0.444300	0.367400
H211	H21	0.944800	0.243500	0.081700
H221	H22	0.349100	0.200300	0.122200
H231	H23	0.621900	0.872800	0.014200
H241	H24	0.682300	0.922300	0.783000
H251	H25	0.074600	0.974900	0.813900
H261	H26	0.470600	0.310500	0.875800
H271	H27	0.393000	0.964900	0.062300
H281	H28	0.688100	0.165400	0.839900
H291	H29	0.803400	0.435500	0.911200
H301	H30	0.783900	0.444300	0.867400
H311	H31	0.444800	0.756500	0.418300
H321	H32	0.849100	0.799700	0.377800
H331	H33	0.121900	0.127200	0.485800
H341	H34	0.182300	0.077700	0.717000
H351	H35	0.574600	0.025100	0.686100
H361	H36	0.970600	0.689500	0.624200
H371	H37	0.893000	0.035100	0.437700
H381	H38	0.188100	0.834600	0.660100
H391	H39	0.303400	0.564500	0.588800
H401	H40	0.283900	0.555700	0.632600
C11	C1	0.970400	0.790100	0.044610
C21	C2	0.067700	0.895100	0.077210
C31	C3	0.150700	0.555300	0.860950
C41	C4	0.255200	0.673000	0.879090
C51	C5	0.174500	0.764700	0.910420
C61	C6	0.275100	0.868700	0.929730
C71	C7	0.449500	0.882200	0.916470
C81	C8	0.531900	0.790500	0.885860
C91	C9	0.433200	0.684500	0.867440
C101	C10	0.513500	0.584900	0.833200
C111	C11	0.371600	0.047500	0.966100
C121	C12	0.498300	0.262200	0.266960
C131	C13	0.560100	0.157900	0.230420
C141	C14	0.439600	0.066800	0.211520
C151	C15	0.505200	0.958600	0.184120
C161	C16	0.685200	0.939400	0.175570
C171	C17	0.804200	0.034600	0.192800
C181	C18	0.741900	0.143200	0.219840
C191	C19	0.868700	0.248600	0.234880
C201	C20	0.552100	0.771400	0.141540
C211	C21	0.470400	0.209900	0.455390
C221	C22	0.567700	0.104900	0.422790
C231	C23	0.650700	0.444700	0.639050
C241	C24	0.755200	0.327000	0.620910
C251	C25	0.674500	0.235300	0.589580
C261	C26	0.775100	0.131300	0.570270
C271	C27	0.949500	0.117800	0.583530
C281	C28	0.031900	0.209500	0.614140
C291	C29	0.933200	0.315500	0.632560
C301	C30	0.013500	0.415100	0.666800
C311	C31	0.871600	0.952500	0.533900
C321	C32	0.998300	0.737800	0.233040
C331	C33	0.060100	0.842100	0.269580
C341	C34	0.939600	0.933200	0.288480
C351	C35	0.005200	0.041400	0.315880
C361	C36	0.185200	0.060600	0.324430
C371	C37	0.304200	0.965400	0.307200
C381	C38	0.241900	0.856800	0.280160
C391	C39	0.368700	0.751400	0.265120
C401	C40	0.052100	0.228600	0.358460
C411	C41	0.029600	0.209900	0.955390
C421	C42	0.932300	0.104900	0.922790
C431	C43	0.849300	0.444700	0.139050
C441	C44	0.744800	0.327000	0.120910
C451	C45	0.825500	0.235300	0.089580
C461	C46	0.724900	0.131300	0.070270
C471	C47	0.550500	0.117800	0.083530
C481	C48	0.468100	0.209500	0.114140
C491	C49	0.566800	0.315500	0.132560
C501	C50	0.486500	0.415100	0.166800
C511	C51	0.628400	0.952500	0.033900
C521	C52	0.501700	0.737800	0.733040
C531	C53	0.439900	0.842100	0.769580
C541	C54	0.560400	0.933200	0.788480
C551	C55	0.494800	0.041400	0.815880
C561	C56	0.314800	0.060600	0.824430
C571	C57	0.195800	0.965400	0.807200
C581	C58	0.258100	0.856800	0.780160
C591	C59	0.131300	0.751400	0.765120
C601	C60	0.447900	0.228600	0.858460
C611	C61	0.529600	0.790100	0.544610
C621	C62	0.432300	0.895100	0.577210
C631	C63	0.349300	0.555300	0.360950
C641	C64	0.244800	0.673000	0.379090
C651	C65	0.325500	0.764700	0.410420
C661	C66	0.224900	0.868700	0.429730
C671	C67	0.050500	0.882200	0.416470
C681	C68	0.968100	0.790500	0.385860
C691	C69	0.066800	0.684500	0.367440
C701	C70	0.986500	0.584900	0.333200
C711	C71	0.128400	0.047500	0.466100
C721	C72	0.001700	0.262200	0.766960
C731	C73	0.939900	0.157900	0.730420
C741	C74	0.060400	0.066800	0.711520
C751	C75	0.994800	0.958600	0.684120
C761	C76	0.814800	0.939400	0.675570
C771	C77	0.695800	0.034600	0.692800
C781	C78	0.758100	0.143200	0.719840
C791	C79	0.631300	0.248600	0.734880
C801	C80	0.947900	0.771400	0.641540
N11	N1	0.231400	0.973100	0.961740
N21	N2	0.503900	0.998900	0.939770
N31	N3	0.710300	0.820100	0.148690
N41	N4	0.425200	0.850000	0.161440
N51	N5	0.731400	0.026900	0.538260
N61	N6	0.003900	0.001100	0.560230
N71	N7	0.210300	0.179900	0.351310
N81	N8	0.925200	0.150000	0.338560
N91	N9	0.768600	0.026900	0.038260
N101	N10	0.496100	0.001100	0.060230
N111	N11	0.289700	0.179900	0.851310
N121	N12	0.574800	0.150000	0.838560
N131	N13	0.268600	0.973100	0.461740
N141	N14	0.996100	0.998900	0.439770
N151	N15	0.789700	0.820100	0.648690
N161	N16	0.074800	0.850000	0.661440
O11	O1	0.128500	0.990300	0.061190
O21	O2	0.964200	0.803100	0.004330
O31	O3	0.080300	0.877800	0.116460
O41	O4	0.905400	0.699600	0.061210
O51	O5	0.186200	0.455080	0.877160
O61	O6	0.029200	0.565600	0.834470
O71	O7	0.413800	0.508700	0.808870
O81	O8	0.678900	0.583000	0.830230
O91	O9	0.539300	0.247400	0.305090
O101	O10	0.410100	0.358330	0.257230
O111	O11	0.814600	0.362920	0.249520
O121	O12	0.031300	0.226820	0.230930
O131	O13	0.190600	0.607300	0.114690
O141	O14	0.628500	0.009700	0.438810
O151	O15	0.464200	0.196900	0.495670
O161	O16	0.580300	0.122200	0.383540
O171	O17	0.405400	0.300400	0.438790
O181	O18	0.686200	0.544920	0.622840
O191	O19	0.529200	0.434400	0.665530
O201	O20	0.913800	0.491300	0.691130
O211	O21	0.178900	0.417000	0.669770
O221	O22	0.039300	0.752600	0.194910
O231	O23	0.910100	0.641670	0.242770
O241	O24	0.314600	0.637080	0.250480
O251	O25	0.531300	0.773180	0.269070
O261	O26	0.690600	0.392700	0.385310
O271	O27	0.871500	0.009700	0.938810
O281	O28	0.035800	0.196900	0.995670
O291	O29	0.919700	0.122200	0.883540
O301	O30	0.094600	0.300400	0.938790
O311	O31	0.813800	0.544920	0.122840
O321	O32	0.970800	0.434400	0.165530
O331	O33	0.586200	0.491300	0.191130
O341	O34	0.321100	0.417000	0.169770
O351	O35	0.460700	0.752600	0.694910
O361	O36	0.589900	0.641670	0.742770
O371	O37	0.185400	0.637080	0.750480
O381	O38	0.968700	0.773180	0.769070
O391	O39	0.809400	0.392700	0.885310
O401	O40	0.371500	0.990300	0.561190
O411	O41	0.535800	0.803100	0.504330
O421	O42	0.419700	0.877800	0.616460
O431	O43	0.594600	0.699600	0.561210
O441	O44	0.313800	0.455080	0.377160
O451	O45	0.470800	0.565600	0.334470
O461	O46	0.086200	0.508700	0.308870
O471	O47	0.821100	0.583000	0.330230
O481	O48	0.960700	0.247400	0.805090
O491	O49	0.089900	0.358330	0.757230
O501	O50	0.685400	0.362920	0.749520
O511	O51	0.468700	0.226820	0.730930
O521	O52	0.309400	0.607300	0.614690
