data_ZELROZ_manual_PM
_symmetry_space_group_name_H-M	'P1'
_cell_length_a	17.122700
_cell_length_b	17.122700
_cell_length_c	17.122700
_cell_angle_alpha	90.000000
_cell_angle_beta	90.000000
_cell_angle_gamma	90.000000
_symmetry_Int_Tables_number 1

loop_
_symmetry_equiv_pos_as_xyz
'x,y,z'

loop_
_atom_site_label
_atom_site_type_symbol
_atom_site_fract_x
_atom_site_fract_y
_atom_site_fract_z
Zn11	Zn1	0.565330	0.434670	0.434670
Zn21	Zn2	0.434670	0.565330	0.434670
Zn31	Zn3	0.434670	0.434670	0.565330
Zn41	Zn4	0.565330	0.565330	0.565330
H51	H5	0.796210	0.584740	0.584740
H61	H6	0.922770	0.628710	0.628710
H71	H7	0.203790	0.415260	0.584740
H81	H8	0.028130	0.440240	0.646190
H91	H9	0.203790	0.584740	0.415260
H101	H10	0.796210	0.415260	0.415260
H111	H11	0.584740	0.796210	0.584740
H121	H12	0.552680	0.996420	0.627530
H131	H13	0.584740	0.203790	0.415260
H141	H14	0.415260	0.203790	0.584740
H151	H15	0.394940	0.071320	0.646170
H161	H16	0.415260	0.796210	0.415260
H171	H17	0.584740	0.584740	0.796210
H181	H18	0.415260	0.584740	0.203790
H191	H19	0.394940	0.646170	0.071320
H201	H20	0.584740	0.415260	0.203790
H211	H21	0.415260	0.415260	0.796210
H221	H22	0.399110	0.440220	0.015060
C231	C23	0.830300	0.544300	0.544300
C241	C24	0.911200	0.545100	0.545100
C251	C25	0.169700	0.455700	0.544300
C261	C26	0.088800	0.454900	0.545100
C271	C27	0.169700	0.544300	0.455700
C281	C28	0.088800	0.545100	0.454900
C291	C29	0.830300	0.455700	0.455700
C301	C30	0.911200	0.454900	0.454900
C311	C31	0.544300	0.830300	0.544300
C321	C32	0.545100	0.911200	0.545100
C331	C33	0.544300	0.169700	0.455700
C341	C34	0.545100	0.088800	0.454900
C351	C35	0.455700	0.169700	0.544300
C361	C36	0.454900	0.088800	0.545100
C371	C37	0.455700	0.830300	0.455700
C381	C38	0.454900	0.911200	0.454900
C391	C39	0.544300	0.544300	0.830300
C401	C40	0.545100	0.545100	0.911200
C411	C41	0.455700	0.544300	0.169700
C421	C42	0.454900	0.545100	0.088800
C431	C43	0.544300	0.455700	0.169700
C441	C44	0.545100	0.454900	0.088800
C451	C45	0.455700	0.455700	0.830300
C461	C46	0.454900	0.454900	0.911200
C471	C47	0.711500	0.500000	0.500000
C481	C48	0.789700	0.500000	0.500000
C491	C49	0.958700	0.500000	0.500000
C501	C50	0.288500	0.500000	0.500000
C511	C51	0.210300	0.500000	0.500000
C521	C52	0.041300	0.500000	0.500000
C531	C53	0.500000	0.711500	0.500000
C541	C54	0.500000	0.789700	0.500000
C551	C55	0.500000	0.958700	0.500000
C561	C56	0.500000	0.288500	0.500000
C571	C57	0.500000	0.210300	0.500000
C581	C58	0.500000	0.041300	0.500000
C591	C59	0.500000	0.500000	0.711500
C601	C60	0.500000	0.500000	0.789700
C611	C61	0.500000	0.500000	0.958700
C621	C62	0.500000	0.500000	0.288500
C631	C63	0.500000	0.500000	0.210300
C641	C64	0.500000	0.500000	0.041300
O651	O65	0.500000	0.500000	0.500000
O661	O66	0.675200	0.453800	0.453800
O671	O67	0.959000	0.590700	0.590700
O681	O68	0.324800	0.546200	0.453800
O691	O69	0.041000	0.409300	0.590700
O701	O70	0.324800	0.453800	0.546200
O711	O71	0.675200	0.546200	0.546200
O721	O72	0.453800	0.675200	0.453800
O731	O73	0.590700	0.959000	0.590700
O741	O74	0.453800	0.324800	0.546200
O751	O75	0.546200	0.324800	0.453800
O761	O76	0.409300	0.041000	0.590700
O771	O77	0.546200	0.675200	0.546200
O781	O78	0.453800	0.453800	0.675200
O791	O79	0.546200	0.453800	0.324800
O801	O80	0.409300	0.590700	0.041000
O811	O81	0.453800	0.546200	0.324800
O821	O82	0.546200	0.546200	0.675200
O831	O83	0.409300	0.409300	0.959000
H841	H84	0.056320	0.586200	0.413800
H851	H85	0.943680	0.413800	0.413800
H861	H86	0.586200	0.056320	0.413800
H871	H87	0.413800	0.943680	0.413800
H881	H88	0.586200	0.586200	0.943680
H891	H89	0.586200	0.413800	0.056320
