data_ZIDDIB_freeONLY_PM
_symmetry_space_group_name_H-M	'P1'
_cell_length_a	16.063000
_cell_length_b	16.485000
_cell_length_c	19.025000
_cell_angle_alpha	90.000000
_cell_angle_beta	90.000000
_cell_angle_gamma	90.000000
_symmetry_Int_Tables_number 1

loop_
_symmetry_equiv_pos_as_xyz
'x,y,z'

loop_
_atom_site_label
_atom_site_type_symbol
_atom_site_fract_x
_atom_site_fract_y
_atom_site_fract_z
In11	In1	0.544130	0.257460	0.012600
In21	In2	0.279610	0.930520	0.815760
In31	In3	0.955870	0.242540	0.012600
In41	In4	0.220390	0.569480	0.815760
In51	In5	0.455870	0.757460	0.487400
In61	In6	0.720390	0.430520	0.684240
In71	In7	0.044130	0.742540	0.487400
In81	In8	0.779610	0.069480	0.684240
In91	In9	0.455870	0.742540	0.987400
In101	In10	0.720390	0.069480	0.184240
In111	In11	0.044130	0.757460	0.987400
In121	In12	0.779610	0.430520	0.184240
In131	In13	0.544130	0.242540	0.512600
In141	In14	0.279610	0.569480	0.315760
In151	In15	0.955870	0.257460	0.512600
In161	In16	0.220390	0.930520	0.315760
H11	H1	0.202600	0.956100	0.066300
H21	H2	0.286000	0.067300	0.100100
H31	H3	0.392300	0.054700	0.911400
H41	H4	0.025200	0.043800	0.695600
H51	H5	0.972200	0.125000	0.784200
H61	H6	0.165400	0.068200	0.905700
H71	H7	0.429300	0.101800	0.600300
H81	H8	0.560500	0.234000	0.782500
H91	H9	0.461500	0.135800	0.807700
H101	H10	0.297400	0.543900	0.066300
H111	H11	0.214000	0.432700	0.100100
H121	H12	0.107700	0.445300	0.911400
H131	H13	0.474800	0.456200	0.695600
H141	H14	0.527800	0.375000	0.784200
H151	H15	0.334600	0.431800	0.905700
H161	H16	0.070700	0.398200	0.600300
H171	H17	0.939500	0.266000	0.782500
H181	H18	0.038500	0.364200	0.807700
H191	H19	0.797400	0.456100	0.433700
H201	H20	0.714000	0.567300	0.399900
H211	H21	0.607700	0.554700	0.588600
H221	H22	0.974800	0.543800	0.804400
H231	H23	0.027800	0.625000	0.715800
H241	H24	0.834600	0.568200	0.594300
H251	H25	0.570700	0.601800	0.899700
H261	H26	0.439500	0.734000	0.717500
H271	H27	0.538500	0.635800	0.692300
H281	H28	0.702600	0.043900	0.433700
H291	H29	0.786000	0.932700	0.399900
H301	H30	0.892300	0.945300	0.588600
H311	H31	0.525200	0.956200	0.804400
H321	H32	0.472200	0.875000	0.715800
H331	H33	0.665400	0.931800	0.594300
H341	H34	0.929300	0.898200	0.899700
H351	H35	0.060500	0.766000	0.717500
H361	H36	0.961500	0.864200	0.692300
H371	H37	0.797400	0.043900	0.933700
H381	H38	0.714000	0.932700	0.899900
H391	H39	0.607700	0.945300	0.088600
H401	H40	0.974800	0.956200	0.304400
H411	H41	0.027800	0.875000	0.215800
H421	H42	0.834600	0.931800	0.094300
H431	H43	0.570700	0.898200	0.399700
H441	H44	0.439500	0.766000	0.217500
H451	H45	0.538500	0.864200	0.192300
H461	H46	0.702600	0.456100	0.933700
H471	H47	0.786000	0.567300	0.899900
H481	H48	0.892300	0.554700	0.088600
H491	H49	0.525200	0.543800	0.304400
H501	H50	0.472200	0.625000	0.215800
H511	H51	0.665400	0.568200	0.094300
H521	H52	0.929300	0.601800	0.399700
H531	H53	0.060500	0.734000	0.217500
H541	H54	0.961500	0.635800	0.192300
H551	H55	0.202600	0.543900	0.566300
H561	H56	0.286000	0.432700	0.600100
H571	H57	0.392300	0.445300	0.411400
H581	H58	0.025200	0.456200	0.195600
H591	H59	0.972200	0.375000	0.284200
H601	H60	0.165400	0.431800	0.405700
H611	H61	0.429300	0.398200	0.100300
H621	H62	0.560500	0.266000	0.282500
H631	H63	0.461500	0.364200	0.307700
H641	H64	0.297400	0.956100	0.566300
H651	H65	0.214000	0.067300	0.600100
H661	H66	0.107700	0.054700	0.411400
H671	H67	0.474800	0.043800	0.195600
H681	H68	0.527800	0.125000	0.284200
H691	H69	0.334600	0.068200	0.405700
H701	H70	0.070700	0.101800	0.100300
H711	H71	0.939500	0.234000	0.282500
H721	H72	0.038500	0.135800	0.307700
C11	C1	0.192400	0.878000	0.946700
C21	C2	0.248800	0.946600	0.973600
C31	C3	0.241500	0.977400	0.035100
C41	C4	0.292100	0.043800	0.056000
C51	C5	0.349800	0.072300	0.009700
C61	C6	0.353200	0.036000	0.943600
C71	C7	0.407500	0.141400	0.028800
C81	C8	0.152300	0.938100	0.702300
C91	C9	0.122000	0.004200	0.753600
C101	C10	0.051400	0.047300	0.739100
C111	C11	0.020900	0.095700	0.791500
C121	C12	0.061600	0.101600	0.855100
C131	C13	0.135900	0.061400	0.864000
C141	C14	0.027200	0.151300	0.915200
C151	C15	0.371300	0.044300	0.721000
C161	C16	0.434000	0.110400	0.709000
C171	C17	0.453900	0.130600	0.636800
C181	C18	0.545300	0.228800	0.676100
C191	C19	0.531400	0.208300	0.746600
C201	C20	0.473400	0.149000	0.761200
C211	C21	0.602700	0.295900	0.655100
C221	C22	0.307600	0.622000	0.946700
C231	C23	0.251200	0.553400	0.973600
C241	C24	0.258500	0.522600	0.035100
C251	C25	0.207900	0.456200	0.056000
C261	C26	0.150200	0.427700	0.009700
C271	C27	0.146800	0.464000	0.943600
C281	C28	0.092500	0.358600	0.028800
C291	C29	0.347700	0.561900	0.702300
C301	C30	0.378000	0.495800	0.753600
C311	C31	0.448600	0.452700	0.739100
C321	C32	0.479100	0.404300	0.791500
C331	C33	0.438400	0.398400	0.855100
C341	C34	0.364100	0.438600	0.864000
C351	C35	0.472800	0.348700	0.915200
C361	C36	0.128700	0.455700	0.721000
C371	C37	0.066000	0.389600	0.709000
C381	C38	0.046100	0.369400	0.636800
C391	C39	0.954700	0.271200	0.676100
C401	C40	0.968600	0.291700	0.746600
C411	C41	0.026600	0.351000	0.761200
C421	C42	0.897300	0.204100	0.655100
C431	C43	0.807600	0.378000	0.553300
C441	C44	0.751200	0.446600	0.526400
C451	C45	0.758500	0.477400	0.464900
C461	C46	0.707900	0.543800	0.444000
C471	C47	0.650200	0.572300	0.490300
C481	C48	0.646800	0.536000	0.556400
C491	C49	0.592500	0.641400	0.471200
C501	C50	0.847700	0.438100	0.797700
C511	C51	0.878000	0.504200	0.746400
C521	C52	0.948600	0.547300	0.760900
C531	C53	0.979100	0.595700	0.708500
C541	C54	0.938400	0.601600	0.644900
C551	C55	0.864100	0.561400	0.636000
C561	C56	0.972800	0.651300	0.584800
C571	C57	0.628700	0.544300	0.779000
C581	C58	0.566000	0.610400	0.791000
C591	C59	0.546100	0.630600	0.863200
C601	C60	0.454700	0.728800	0.823900
C611	C61	0.468600	0.708300	0.753400
C621	C62	0.526600	0.649000	0.738800
C631	C63	0.397300	0.795900	0.844900
C641	C64	0.692400	0.122000	0.553300
C651	C65	0.748800	0.053400	0.526400
C661	C66	0.741500	0.022600	0.464900
C671	C67	0.792100	0.956200	0.444000
C681	C68	0.849800	0.927700	0.490300
C691	C69	0.853200	0.964000	0.556400
C701	C70	0.907500	0.858600	0.471200
C711	C71	0.652300	0.061900	0.797700
C721	C72	0.622000	0.995800	0.746400
C731	C73	0.551400	0.952700	0.760900
C741	C74	0.520900	0.904300	0.708500
C751	C75	0.561600	0.898400	0.644900
C761	C76	0.635900	0.938600	0.636000
C771	C77	0.527200	0.848700	0.584800
C781	C78	0.871300	0.955700	0.779000
C791	C79	0.934000	0.889600	0.791000
C801	C80	0.953900	0.869400	0.863200
C811	C81	0.045300	0.771200	0.823900
C821	C82	0.031400	0.791700	0.753400
C831	C83	0.973400	0.851000	0.738800
C841	C84	0.102700	0.704100	0.844900
C851	C85	0.807600	0.122000	0.053300
C861	C86	0.751200	0.053400	0.026400
C871	C87	0.758500	0.022600	0.964900
C881	C88	0.707900	0.956200	0.944000
C891	C89	0.650200	0.927700	0.990300
C901	C90	0.646800	0.964000	0.056400
C911	C91	0.592500	0.858600	0.971200
C921	C92	0.847700	0.061900	0.297700
C931	C93	0.878000	0.995800	0.246400
C941	C94	0.948600	0.952700	0.260900
C951	C95	0.979100	0.904300	0.208500
C961	C96	0.938400	0.898400	0.144900
C971	C97	0.864100	0.938600	0.136000
C981	C98	0.972800	0.848700	0.084800
C991	C99	0.628700	0.955700	0.279000
C1001	C100	0.566000	0.889600	0.291000
C1011	C101	0.546100	0.869400	0.363200
C1021	C102	0.454700	0.771200	0.323900
C1031	C103	0.468600	0.791700	0.253400
C1041	C104	0.526600	0.851000	0.238800
C1051	C105	0.397300	0.704100	0.344900
C1061	C106	0.692400	0.378000	0.053300
C1071	C107	0.748800	0.446600	0.026400
C1081	C108	0.741500	0.477400	0.964900
C1091	C109	0.792100	0.543800	0.944000
C1101	C110	0.849800	0.572300	0.990300
C1111	C111	0.853200	0.536000	0.056400
C1121	C112	0.907500	0.641400	0.971200
C1131	C113	0.652300	0.438100	0.297700
C1141	C114	0.622000	0.504200	0.246400
C1151	C115	0.551400	0.547300	0.260900
C1161	C116	0.520900	0.595700	0.208500
C1171	C117	0.561600	0.601600	0.144900
C1181	C118	0.635900	0.561400	0.136000
C1191	C119	0.527200	0.651300	0.084800
C1201	C120	0.871300	0.544300	0.279000
C1211	C121	0.934000	0.610400	0.291000
C1221	C122	0.953900	0.630600	0.363200
C1231	C123	0.045300	0.728800	0.323900
C1241	C124	0.031400	0.708300	0.253400
C1251	C125	0.973400	0.649000	0.238800
C1261	C126	0.102700	0.795900	0.344900
C1271	C127	0.192400	0.622000	0.446700
C1281	C128	0.248800	0.553400	0.473600
C1291	C129	0.241500	0.522600	0.535100
C1301	C130	0.292100	0.456200	0.556000
C1311	C131	0.349800	0.427700	0.509700
C1321	C132	0.353200	0.464000	0.443600
C1331	C133	0.407500	0.358600	0.528800
C1341	C134	0.152300	0.561900	0.202300
C1351	C135	0.122000	0.495800	0.253600
C1361	C136	0.051400	0.452700	0.239100
C1371	C137	0.020900	0.404300	0.291500
C1381	C138	0.061600	0.398400	0.355100
C1391	C139	0.135900	0.438600	0.364000
C1401	C140	0.027200	0.348700	0.415200
C1411	C141	0.371300	0.455700	0.221000
C1421	C142	0.434000	0.389600	0.209000
C1431	C143	0.453900	0.369400	0.136800
C1441	C144	0.545300	0.271200	0.176100
C1451	C145	0.531400	0.291700	0.246600
C1461	C146	0.473400	0.351000	0.261200
C1471	C147	0.602700	0.204100	0.155100
C1481	C148	0.307600	0.878000	0.446700
C1491	C149	0.251200	0.946600	0.473600
C1501	C150	0.258500	0.977400	0.535100
C1511	C151	0.207900	0.043800	0.556000
C1521	C152	0.150200	0.072300	0.509700
C1531	C153	0.146800	0.036000	0.443600
C1541	C154	0.092500	0.141400	0.528800
C1551	C155	0.347700	0.938100	0.202300
C1561	C156	0.378000	0.004200	0.253600
C1571	C157	0.448600	0.047300	0.239100
C1581	C158	0.479100	0.095700	0.291500
C1591	C159	0.438400	0.101600	0.355100
C1601	C160	0.364100	0.061400	0.364000
C1611	C161	0.472800	0.151300	0.415200
C1621	C162	0.128700	0.044300	0.221000
C1631	C163	0.066000	0.110400	0.209000
C1641	C164	0.046100	0.130600	0.136800
C1651	C165	0.954700	0.228800	0.176100
C1661	C166	0.968600	0.208300	0.246600
C1671	C167	0.026600	0.149000	0.261200
C1681	C168	0.897300	0.295900	0.155100
N11	N1	0.302500	0.975400	0.924300
N21	N2	0.167400	0.011800	0.813100
N31	N3	0.507100	0.190100	0.622500
N41	N4	0.197500	0.524600	0.924300
N51	N5	0.332600	0.488200	0.813100
N61	N6	0.992900	0.309900	0.622500
N71	N7	0.697500	0.475400	0.575700
N81	N8	0.832600	0.511800	0.686900
N91	N9	0.492900	0.690100	0.877500
N101	N10	0.802500	0.024600	0.575700
N111	N11	0.667400	0.988200	0.686900
N121	N12	0.007100	0.809900	0.877500
N131	N13	0.697500	0.024600	0.075700
N141	N14	0.832600	0.988200	0.186900
N151	N15	0.492900	0.809900	0.377500
N161	N16	0.802500	0.475400	0.075700
N171	N17	0.667400	0.511800	0.186900
N181	N18	0.007100	0.690100	0.377500
N191	N19	0.302500	0.524600	0.424300
N201	N20	0.167400	0.488200	0.313100
N211	N21	0.507100	0.309900	0.122500
N221	N22	0.197500	0.975400	0.424300
N231	N23	0.332600	0.011800	0.313100
N241	N24	0.992900	0.190100	0.122500
O11	O1	0.200000	0.854500	0.883400
O21	O2	0.143500	0.848500	0.990300
O31	O3	0.394200	0.180900	0.080900
O41	O4	0.465300	0.158100	0.986700
O51	O5	0.211500	0.893200	0.725500
O61	O6	0.114100	0.929000	0.647600
O71	O7	0.971000	0.203300	0.899100
O81	O8	0.052000	0.145300	0.976000
O91	O9	0.366200	0.020600	0.785100
O101	O10	0.332200	0.015200	0.675200
O111	O11	0.639800	0.332000	0.704700
O121	O12	0.607100	0.316000	0.593100
O131	O13	0.641900	0.188900	0.953300
O141	O14	0.300000	0.645500	0.883400
O151	O15	0.356500	0.651500	0.990300
O161	O16	0.105800	0.319100	0.080900
O171	O17	0.034700	0.341900	0.986700
O181	O18	0.288500	0.606800	0.725500
O191	O19	0.385900	0.571000	0.647600
O201	O20	0.529000	0.296700	0.899100
O211	O21	0.448000	0.354700	0.976000
O221	O22	0.133800	0.479400	0.785100
O231	O23	0.167800	0.484800	0.675200
O241	O24	0.860200	0.168000	0.704700
O251	O25	0.892900	0.184000	0.593100
O261	O26	0.858100	0.311100	0.953300
O271	O27	0.800000	0.354500	0.616600
O281	O28	0.856500	0.348500	0.509700
O291	O29	0.605800	0.680900	0.419100
O301	O30	0.534700	0.658100	0.513300
O311	O31	0.788500	0.393200	0.774500
O321	O32	0.885900	0.429000	0.852400
O331	O33	0.029000	0.703300	0.600900
O341	O34	0.948000	0.645300	0.524000
O351	O35	0.633800	0.520600	0.714900
O361	O36	0.667800	0.515200	0.824800
O371	O37	0.360200	0.832000	0.795300
O381	O38	0.392900	0.816000	0.906900
O391	O39	0.358100	0.688900	0.546700
O401	O40	0.700000	0.145500	0.616600
O411	O41	0.643500	0.151500	0.509700
O421	O42	0.894200	0.819100	0.419100
O431	O43	0.965300	0.841900	0.513300
O441	O44	0.711500	0.106800	0.774500
O451	O45	0.614100	0.071000	0.852400
O461	O46	0.471000	0.796700	0.600900
O471	O47	0.552000	0.854700	0.524000
O481	O48	0.866200	0.979400	0.714900
O491	O49	0.832200	0.984800	0.824800
O501	O50	0.139800	0.668000	0.795300
O511	O51	0.107100	0.684000	0.906900
O521	O52	0.141900	0.811100	0.546700
O531	O53	0.800000	0.145500	0.116600
O541	O54	0.856500	0.151500	0.009700
O551	O55	0.605800	0.819100	0.919100
O561	O56	0.534700	0.841900	0.013300
O571	O57	0.788500	0.106800	0.274500
O581	O58	0.885900	0.071000	0.352400
O591	O59	0.029000	0.796700	0.100900
O601	O60	0.948000	0.854700	0.024000
O611	O61	0.633800	0.979400	0.214900
O621	O62	0.667800	0.984800	0.324800
O631	O63	0.360200	0.668000	0.295300
O641	O64	0.392900	0.684000	0.406900
O651	O65	0.358100	0.811100	0.046700
O661	O66	0.700000	0.354500	0.116600
O671	O67	0.643500	0.348500	0.009700
O681	O68	0.894200	0.680900	0.919100
O691	O69	0.965300	0.658100	0.013300
O701	O70	0.711500	0.393200	0.274500
O711	O71	0.614100	0.429000	0.352400
O721	O72	0.471000	0.703300	0.100900
O731	O73	0.552000	0.645300	0.024000
O741	O74	0.866200	0.520600	0.214900
O751	O75	0.832200	0.515200	0.324800
O761	O76	0.139800	0.832000	0.295300
O771	O77	0.107100	0.816000	0.406900
O781	O78	0.141900	0.688900	0.046700
O791	O79	0.200000	0.645500	0.383400
O801	O80	0.143500	0.651500	0.490300
O811	O81	0.394200	0.319100	0.580900
O821	O82	0.465300	0.341900	0.486700
O831	O83	0.211500	0.606800	0.225500
O841	O84	0.114100	0.571000	0.147600
O851	O85	0.971000	0.296700	0.399100
O861	O86	0.052000	0.354700	0.476000
O871	O87	0.366200	0.479400	0.285100
O881	O88	0.332200	0.484800	0.175200
O891	O89	0.639800	0.168000	0.204700
O901	O90	0.607100	0.184000	0.093100
O911	O91	0.641900	0.311100	0.453300
O921	O92	0.300000	0.854500	0.383400
O931	O93	0.356500	0.848500	0.490300
O941	O94	0.105800	0.180900	0.580900
O951	O95	0.034700	0.158100	0.486700
O961	O96	0.288500	0.893200	0.225500
O971	O97	0.385900	0.929000	0.147600
O981	O98	0.529000	0.203300	0.399100
O991	O99	0.448000	0.145300	0.476000
O1001	O100	0.133800	0.020600	0.285100
O1011	O101	0.167800	0.015200	0.175200
O1021	O102	0.860200	0.332000	0.204700
O1031	O103	0.892900	0.316000	0.093100
O1041	O104	0.858100	0.188900	0.453300
