data_ZILBAZ_freeONLY_PM
_symmetry_space_group_name_H-M	'P1'
_cell_length_a	10.702200
_cell_length_b	10.702200
_cell_length_c	22.874200
_cell_angle_alpha	90.000000
_cell_angle_beta	90.000000
_cell_angle_gamma	120.000000
_symmetry_Int_Tables_number 1

loop_
_symmetry_equiv_pos_as_xyz
'x,y,z'

loop_
_atom_site_label
_atom_site_type_symbol
_atom_site_fract_x
_atom_site_fract_y
_atom_site_fract_z
Co11	Co1	0.644700	0.289700	0.677500
Co21	Co2	0.645000	0.355300	0.010830
Co31	Co3	0.710300	0.355000	0.344170
H11	H1	0.650700	0.420600	0.798700
H21	H2	0.784900	0.596800	0.858800
H31	H3	0.121100	0.679000	0.760000
H41	H4	0.964800	0.525800	0.691100
H51	H5	0.908700	0.829800	0.882200
H61	H6	0.053700	0.004300	0.951900
H71	H7	0.400000	0.011100	0.888900
H81	H8	0.263200	0.811900	0.832100
H91	H9	0.536200	0.508600	0.659000
H101	H10	0.572200	0.693500	0.599700
H111	H11	0.807400	0.598100	0.496300
H121	H12	0.784000	0.427400	0.560500
H131	H13	0.559900	0.812400	0.527700
H141	H14	0.596900	0.995000	0.463000
H151	H15	0.952200	0.006500	0.401900
H161	H16	0.905400	0.812300	0.460500
H171	H17	0.604900	0.047600	0.584100
H181	H18	0.447800	0.986700	0.556300
H191	H19	0.465600	0.929200	0.618500
H201	H20	0.514900	0.044700	0.801800
H211	H21	0.508300	0.930300	0.755000
H221	H22	0.429500	0.020900	0.741600
H231	H23	0.769900	0.349300	0.132030
H241	H24	0.811900	0.215100	0.192130
H251	H25	0.557900	0.878900	0.093330
H261	H26	0.561000	0.035200	0.024430
H271	H27	0.921100	0.091300	0.215530
H281	H28	0.950600	0.946300	0.285230
H291	H29	0.611100	0.600000	0.222230
H301	H30	0.548700	0.736800	0.165430
H311	H31	0.972400	0.463800	0.992330
H321	H32	0.121300	0.427800	0.933030
H331	H33	0.790700	0.192600	0.829630
H341	H34	0.643400	0.216000	0.893830
H351	H35	0.252500	0.440100	0.861030
H361	H36	0.398100	0.403100	0.796330
H371	H37	0.054300	0.047800	0.735230
H381	H38	0.906900	0.094600	0.793830
H391	H39	0.442700	0.395100	0.917430
H401	H40	0.538900	0.552200	0.889630
H411	H41	0.463600	0.534400	0.951830
H421	H42	0.529800	0.485100	0.135130
H431	H43	0.422000	0.491700	0.088330
H441	H44	0.591400	0.570500	0.074930
H451	H45	0.579400	0.230100	0.465370
H461	H46	0.403200	0.188100	0.525470
H471	H47	0.321000	0.442100	0.426670
H481	H48	0.474200	0.439000	0.357770
H491	H49	0.170200	0.078900	0.548870
H501	H50	0.995700	0.049400	0.618570
H511	H51	0.988900	0.388900	0.555570
H521	H52	0.188100	0.451300	0.498770
H531	H53	0.491400	0.027600	0.325670
H541	H54	0.306500	0.878700	0.266370
H551	H55	0.401900	0.209300	0.162970
H561	H56	0.572600	0.356600	0.227170
H571	H57	0.187600	0.747500	0.194370
H581	H58	0.005000	0.601900	0.129670
H591	H59	0.993500	0.945700	0.068570
H601	H60	0.187700	0.093100	0.127170
H611	H61	0.952400	0.557300	0.250770
H621	H62	0.013300	0.461100	0.222970
H631	H63	0.070800	0.536400	0.285170
H641	H64	0.955300	0.470200	0.468470
H651	H65	0.069700	0.578000	0.421670
H661	H66	0.979100	0.408600	0.408270
C11	C1	0.748800	0.481800	0.788000
C21	C2	0.827200	0.582200	0.824800
C31	C3	0.973600	0.669500	0.814100
C41	C4	0.020000	0.634000	0.766800
C51	C5	0.927000	0.535000	0.727400
C61	C6	0.066600	0.790600	0.853400
C71	C7	0.007000	0.857000	0.886400
C81	C8	0.096000	0.966000	0.926300
C91	C9	0.246700	0.019700	0.929400
C101	C10	0.298000	0.966000	0.891700
C111	C11	0.217500	0.850800	0.855500
C121	C12	0.342100	0.147900	0.969000
C131	C13	0.597000	0.529000	0.625800
C141	C14	0.617000	0.639000	0.589900
C151	C15	0.698900	0.673400	0.540400
C161	C16	0.754000	0.585700	0.531100
C171	C17	0.737000	0.480700	0.569000
C181	C18	0.726000	0.791900	0.501100
C191	C19	0.639000	0.849000	0.501300
C201	C20	0.663000	0.960000	0.463100
C211	C21	0.776000	0.021400	0.426600
C221	C22	0.870000	0.966000	0.426600
C231	C23	0.843000	0.851000	0.462200
C241	C24	0.802000	0.141000	0.385600
C251	C25	0.503000	0.013000	0.592800
C261	C26	0.514000	0.024000	0.760000
C271	C27	0.733000	0.251200	0.121330
C281	C28	0.755000	0.172800	0.158130
C291	C29	0.695900	0.026400	0.147430
C301	C30	0.614000	0.980000	0.100130
C311	C31	0.608000	0.073000	0.060730
C321	C32	0.724000	0.933400	0.186730
C331	C33	0.850000	0.993000	0.219730
C341	C34	0.870000	0.904000	0.259630
C351	C35	0.773000	0.753300	0.262730
C361	C36	0.668000	0.702000	0.225030
C371	C37	0.633300	0.782500	0.188830
C381	C38	0.805800	0.657900	0.302330
C391	C39	0.932000	0.403000	0.959130
C401	C40	0.022000	0.383000	0.923230
C411	C41	0.974500	0.301100	0.873730
C421	C42	0.831700	0.246000	0.864430
C431	C43	0.743700	0.263000	0.902330
C441	C44	0.065900	0.274000	0.834430
C451	C45	0.210000	0.361000	0.834630
C461	C46	0.297000	0.337000	0.796430
C471	C47	0.245400	0.224000	0.759930
C481	C48	0.096000	0.130000	0.759930
C491	C49	0.008000	0.157000	0.795530
C501	C50	0.339000	0.198000	0.718930
C511	C51	0.510000	0.497000	0.926130
C521	C52	0.510000	0.486000	0.093330
C531	C53	0.518200	0.267000	0.454670
C541	C54	0.417800	0.245000	0.491470
C551	C55	0.330500	0.304100	0.480770
C561	C56	0.366000	0.386000	0.433470
C571	C57	0.465000	0.392000	0.394070
C581	C58	0.209400	0.276000	0.520070
C591	C59	0.143000	0.150000	0.553070
C601	C60	0.034000	0.130000	0.592970
C611	C61	0.980300	0.227000	0.596070
C621	C62	0.034000	0.332000	0.558370
C631	C63	0.149200	0.366700	0.522170
C641	C64	0.852100	0.194200	0.635670
C651	C65	0.471000	0.068000	0.292470
C661	C66	0.361000	0.978000	0.256570
C671	C67	0.326600	0.025500	0.207070
C681	C68	0.414300	0.168300	0.197770
C691	C69	0.519300	0.256300	0.235670
C701	C70	0.208100	0.934100	0.167770
C711	C71	0.151000	0.790000	0.167970
C721	C72	0.040000	0.703000	0.129770
C731	C73	0.978600	0.754600	0.093270
C741	C74	0.034000	0.904000	0.093270
C751	C75	0.149000	0.992000	0.128870
C761	C76	0.859000	0.661000	0.052270
C771	C77	0.987000	0.490000	0.259470
C781	C78	0.976000	0.490000	0.426670
N11	N1	0.788200	0.452500	0.737300
N21	N2	0.657800	0.447100	0.616900
N31	N3	0.664300	0.211800	0.070630
N41	N4	0.789300	0.342200	0.950230
N51	N5	0.547500	0.335700	0.403970
N61	N6	0.552900	0.210700	0.283570
O11	O1	0.278200	0.193900	0.002500
O21	O2	0.710700	0.183400	0.385900
O31	O3	0.913000	0.190800	0.353000
O41	O4	0.490300	0.127100	0.621400
O51	O5	0.635000	0.127800	0.734700
O61	O6	0.473100	0.186300	0.968700
O71	O7	0.915700	0.721800	0.335830
O81	O8	0.472700	0.289300	0.719230
O91	O9	0.277800	0.087000	0.686330
O101	O10	0.636800	0.509700	0.954730
O111	O11	0.492800	0.365000	0.068030
O121	O12	0.713200	0.526900	0.302030
O131	O13	0.806100	0.084300	0.669170
O141	O14	0.816600	0.527300	0.052570
O151	O15	0.809200	0.722200	0.019670
O161	O16	0.872900	0.363200	0.288070
O171	O17	0.872200	0.507200	0.401370
O181	O18	0.813700	0.286800	0.635370
