data_ZIYQAB_freeONLY_PM
_symmetry_space_group_name_H-M	'P1'
_cell_length_a	10.851200
_cell_length_b	11.014000
_cell_length_c	17.237000
_cell_angle_alpha	106.171000
_cell_angle_beta	90.000000
_cell_angle_gamma	90.000000
_symmetry_Int_Tables_number 1

loop_
_symmetry_equiv_pos_as_xyz
'x,y,z'

loop_
_atom_site_label
_atom_site_type_symbol
_atom_site_fract_x
_atom_site_fract_y
_atom_site_fract_z
Cd11	Cd1	0.314500	0.878700	0.684430
Cd21	Cd2	0.685500	0.121300	0.315570
Cd31	Cd3	0.814500	0.621300	0.815570
Cd41	Cd4	0.185500	0.378700	0.184430
H11	H1	0.803700	0.292400	0.794400
H21	H2	0.241100	0.396100	0.649500
H31	H3	0.166200	0.448000	0.001800
H41	H4	0.333800	0.948000	0.501800
H51	H5	0.847200	0.395200	0.551000
H61	H6	0.708900	0.143100	0.943900
H71	H7	0.590100	0.715300	0.683100
H81	H8	0.758900	0.603900	0.350500
H91	H9	0.591000	0.268400	0.509000
H101	H10	0.129300	0.007100	0.086700
H111	H11	0.208900	0.356900	0.556100
H121	H12	0.696300	0.792400	0.294400
H131	H13	0.909000	0.768400	0.009000
H141	H14	0.324000	0.558000	0.311000
H151	H15	0.152800	0.604800	0.449000
H161	H16	0.824000	0.942000	0.189000
H171	H17	0.258900	0.896100	0.149500
H181	H18	0.048200	0.910900	0.118100
H191	H19	0.629300	0.492900	0.413300
H201	H20	0.548200	0.589100	0.381900
H211	H21	0.870700	0.992900	0.913300
H221	H22	0.897000	0.014000	0.261000
H231	H23	0.397000	0.486000	0.239000
H241	H24	0.303700	0.207600	0.705600
H251	H25	0.409900	0.284700	0.316900
H261	H26	0.451800	0.410900	0.618100
H271	H27	0.409000	0.731600	0.491000
H281	H28	0.909900	0.215300	0.183100
H291	H29	0.347200	0.104800	0.949000
H301	H30	0.791100	0.643100	0.443900
H311	H31	0.741100	0.103900	0.850500
H321	H32	0.951800	0.089100	0.881900
H331	H33	0.291100	0.856900	0.056100
H341	H34	0.091000	0.231600	0.991000
H351	H35	0.833800	0.552000	0.998200
H361	H36	0.676000	0.442000	0.689000
H371	H37	0.370700	0.507100	0.586700
H381	H38	0.196300	0.707600	0.205600
H391	H39	0.603000	0.514000	0.761000
H401	H40	0.652800	0.895200	0.051000
H411	H41	0.103000	0.986000	0.739000
H421	H42	0.090100	0.784700	0.816900
H431	H43	0.666200	0.052000	0.498200
H441	H44	0.176000	0.058000	0.811000
C11	C1	0.932700	0.401900	0.448100
C21	C2	0.091100	0.562500	0.469700
C31	C3	0.692300	0.835400	0.349700
C41	C4	0.307700	0.164600	0.650300
C51	C5	0.525300	0.035000	0.082900
C61	C6	0.032500	0.211900	0.025900
C71	C7	0.561800	0.072400	0.170400
C81	C8	0.432400	0.298200	0.371300
C91	C9	0.408900	0.062500	0.969700
C101	C10	0.227700	0.852300	0.095700
C111	C11	0.932400	0.201800	0.128700
C121	C12	0.888100	0.082700	0.920900
C131	C13	0.272300	0.352300	0.595700
C141	C14	0.676600	0.973100	0.460100
C151	C15	0.807700	0.335400	0.849700
C161	C16	0.467500	0.711900	0.525900
C171	C17	0.474700	0.965000	0.917100
C181	C18	0.567600	0.701800	0.628700
C191	C19	0.967500	0.788100	0.974100
C201	C20	0.974700	0.535000	0.582900
C211	C21	0.852700	0.302100	0.393800
C221	C22	0.388100	0.417300	0.579100
C231	C23	0.176600	0.526900	0.039900
C241	C24	0.067600	0.798200	0.871300
C251	C25	0.727700	0.647700	0.404300
C261	C26	0.611900	0.582700	0.420900
C271	C27	0.192300	0.664600	0.150300
C281	C28	0.025300	0.465000	0.417100
C291	C29	0.323400	0.026900	0.539900
C301	C30	0.938200	0.572400	0.670400
C311	C31	0.647300	0.802100	0.893800
C321	C32	0.591100	0.937500	0.030300
C331	C33	0.438200	0.927600	0.829600
C341	C34	0.111900	0.917300	0.079100
C351	C35	0.061800	0.427600	0.329600
C361	C36	0.823400	0.473100	0.960100
C371	C37	0.067300	0.598100	0.551900
C381	C38	0.908900	0.437500	0.530300
C391	C39	0.532500	0.288100	0.474100
C401	C40	0.772300	0.147700	0.904300
C411	C41	0.567300	0.901900	0.948100
C421	C42	0.147300	0.697900	0.606200
C431	C43	0.352700	0.197900	0.106200
C441	C44	0.432700	0.098100	0.051900
N11	N1	0.366900	0.368900	0.431300
N21	N2	0.805700	0.368800	0.981000
N31	N3	0.633100	0.631100	0.568700
N41	N4	0.065300	0.862400	0.997400
N51	N5	0.194300	0.631200	0.019000
N61	N6	0.825500	0.459000	0.879400
N71	N7	0.866900	0.131100	0.068700
N81	N8	0.305700	0.131200	0.519000
N91	N9	0.034900	0.253800	0.105900
N101	N10	0.703700	0.781300	0.408900
N111	N11	0.296300	0.218700	0.591100
N121	N12	0.203700	0.718700	0.091100
N131	N13	0.796300	0.281300	0.908900
N141	N14	0.965100	0.746200	0.894100
N151	N15	0.694300	0.868800	0.481000
N161	N16	0.534900	0.246200	0.394100
N171	N17	0.565300	0.637600	0.502600
N181	N18	0.174500	0.541000	0.120600
N191	N19	0.934700	0.137600	0.002600
N201	N20	0.434700	0.362400	0.497400
N211	N21	0.133100	0.868900	0.931300
N221	N22	0.674500	0.959000	0.379400
N231	N23	0.465100	0.753800	0.605900
N241	N24	0.325500	0.041000	0.620600
O11	O1	0.105500	0.320300	0.298590
O21	O2	0.319500	0.187400	0.172700
O31	O3	0.394500	0.820300	0.798590
O41	O4	0.819800	0.211600	0.421200
O51	O5	0.894500	0.679700	0.701410
O61	O6	0.555700	0.989500	0.208400
O71	O7	0.319800	0.288400	0.078800
O81	O8	0.167900	0.996300	0.769100
O91	O9	0.680200	0.711600	0.921200
O101	O10	0.832100	0.003700	0.230900
O111	O11	0.605500	0.179700	0.201410
O121	O12	0.332100	0.496300	0.269100
O131	O13	0.944300	0.489500	0.708400
O141	O14	0.819500	0.312600	0.327300
O151	O15	0.680500	0.812600	0.827300
O161	O16	0.667900	0.503700	0.730900
O171	O17	0.180200	0.788400	0.578800
O181	O18	0.444300	0.010500	0.791600
O191	O19	0.180500	0.687400	0.672700
O201	O20	0.055700	0.510500	0.291600
