data_ZURQOS_freeONLY_PM
_symmetry_space_group_name_H-M	'P1'
_cell_length_a	6.960000
_cell_length_b	7.718000
_cell_length_c	9.693000
_cell_angle_alpha	90.610000
_cell_angle_beta	91.720000
_cell_angle_gamma	90.170000
_symmetry_Int_Tables_number 1

loop_
_symmetry_equiv_pos_as_xyz
'x,y,z'

loop_
_atom_site_label
_atom_site_type_symbol
_atom_site_fract_x
_atom_site_fract_y
_atom_site_fract_z
Cd11	Cd1	0.000000	0.000000	0.000000
Ni11	Ni1	0.500000	0.500000	0.000000
H11	H1	0.959000	0.910550	0.280260
H21	H2	0.663010	0.809240	0.206620
H31	H3	0.595190	0.024720	0.157130
H41	H4	0.811720	0.848080	0.489800
H51	H5	0.346690	0.111920	0.287130
H61	H6	0.041000	0.089450	0.719740
H71	H7	0.336990	0.190760	0.793380
H81	H8	0.404810	0.975280	0.842870
H91	H9	0.188280	0.151920	0.510200
H101	H10	0.653310	0.888080	0.712870
C11	C1	0.689600	0.660300	0.958200
C21	C2	0.335600	0.682700	0.032600
C31	C3	0.677100	0.947700	0.233300
C41	C4	0.588800	0.976500	0.373400
C51	C5	0.675500	0.914300	0.493500
C61	C6	0.414200	0.062400	0.380400
C71	C7	0.310400	0.339700	0.041800
C81	C8	0.664400	0.317300	0.967400
C91	C9	0.322900	0.052300	0.766700
C101	C10	0.411200	0.023500	0.626600
C111	C11	0.324500	0.085700	0.506500
C121	C12	0.585800	0.937600	0.619600
N11	N1	0.801700	0.763400	0.937000
N21	N2	0.236900	0.798000	0.051300
N31	N3	0.881600	0.995800	0.225300
N41	N4	0.198300	0.236600	0.063000
N51	N5	0.763100	0.202000	0.948700
N61	N6	0.118400	0.004200	0.774700
