data_ZURROT_freeONLY_PM
_symmetry_space_group_name_H-M	'P1'
_cell_length_a	9.253970
_cell_length_b	12.044200
_cell_length_c	13.170000
_cell_angle_alpha	80.063700
_cell_angle_beta	69.431400
_cell_angle_gamma	67.407900
_symmetry_Int_Tables_number 1

loop_
_symmetry_equiv_pos_as_xyz
'x,y,z'

loop_
_atom_site_label
_atom_site_type_symbol
_atom_site_fract_x
_atom_site_fract_y
_atom_site_fract_z
Cd11	Cd1	0.000000	0.000000	0.000000
Cd21	Cd2	0.000000	0.500000	0.500000
Ni11	Ni1	0.362070	0.250000	0.750000
Ni21	Ni2	0.637930	0.750000	0.250000
H11	H1	0.005970	0.308820	0.398640
H21	H2	0.842390	0.337990	0.505750
H31	H3	0.180400	0.197860	0.506140
H41	H4	0.998700	0.228020	0.622760
H51	H5	0.822950	0.115680	0.662960
H61	H6	0.784310	0.932920	0.637140
H71	H7	0.713430	0.191180	0.101360
H81	H8	0.686130	0.162010	0.994250
H91	H9	0.884400	0.302140	0.993860
H101	H10	0.849480	0.271980	0.877240
H111	H11	0.601590	0.384320	0.837040
H121	H12	0.354370	0.567080	0.862860
H131	H13	0.994030	0.691180	0.601360
H141	H14	0.157610	0.662010	0.494250
H151	H15	0.819600	0.802140	0.493860
H161	H16	0.001300	0.771980	0.377240
H171	H17	0.177050	0.884320	0.337040
H181	H18	0.215690	0.067080	0.362860
H191	H19	0.286570	0.808820	0.898640
H201	H20	0.313870	0.837990	0.005750
H211	H21	0.115600	0.697860	0.006140
H221	H22	0.150520	0.728020	0.122760
H231	H23	0.398410	0.615680	0.162960
H241	H24	0.645630	0.432920	0.137140
C11	C1	0.231600	0.158300	0.822900
C21	C2	0.511100	0.165600	0.825400
C31	C3	0.952500	0.786500	0.464900
C41	C4	0.977400	0.896700	0.484100
C51	C5	0.098800	0.935200	0.408600
C61	C6	0.121600	0.037800	0.423200
C71	C7	0.212800	0.341700	0.677100
C81	C8	0.502100	0.334400	0.674600
C91	C9	0.203900	0.713500	0.035100
C101	C10	0.358200	0.603300	0.015900
C111	C11	0.442600	0.564800	0.091400
C121	C12	0.582600	0.462200	0.076800
C131	C13	0.768400	0.841700	0.177100
C141	C14	0.488900	0.834400	0.174600
C151	C15	0.047500	0.213500	0.535100
C161	C16	0.022600	0.103300	0.515900
C171	C17	0.901200	0.064800	0.591400
C181	C18	0.878400	0.962200	0.576800
C191	C19	0.787200	0.658300	0.322900
C201	C20	0.497900	0.665600	0.325400
C211	C21	0.796100	0.286500	0.964900
C221	C22	0.641800	0.396700	0.984100
C231	C23	0.557400	0.435200	0.908600
C241	C24	0.417400	0.537800	0.923200
N11	N1	0.155000	0.099100	0.867900
N21	N2	0.601200	0.117800	0.873400
N31	N3	0.036800	0.676200	0.522000
N41	N4	0.122000	0.400900	0.632100
N51	N5	0.592400	0.382200	0.626600
N61	N6	0.235000	0.823800	0.978000
N71	N7	0.845000	0.900900	0.132100
N81	N8	0.398800	0.882200	0.126600
N91	N9	0.963200	0.323800	0.478000
N101	N10	0.878000	0.599100	0.367900
N111	N11	0.407600	0.617800	0.373400
N121	N12	0.765000	0.176200	0.022000
