data_ICITEU_charged
_audit_creation_date              2014-07-02
_audit_creation_method            'Materials Studio'
_symmetry_space_group_name_H-M    'P1'
_symmetry_Int_Tables_number       1
_symmetry_cell_setting            triclinic
loop_
_symmetry_equiv_pos_as_xyz
  x,y,z
_cell_length_a                    27.2300
_cell_length_b                    27.2300
_cell_length_c                    27.2300
_cell_angle_alpha                 60.0000
_cell_angle_beta                  60.0000
_cell_angle_gamma                 60.0000
loop_
_atom_site_label
_atom_site_type_symbol
_atom_site_fract_x
_atom_site_fract_y
_atom_site_fract_z
_atom_site_U_iso_or_equiv
_atom_site_adp_type
_atom_site_occupancy
Fe1    Fe    0.19514   0.52042   0.64222   0.01267  Uiso   1.00
Fe2    Fe    0.52042   0.19514   0.64222   0.01267  Uiso   1.00
Fe3    Fe    0.64222   0.64222   0.19514   0.01267  Uiso   1.00
Fe4    Fe    0.64222   0.64222   0.52042   0.01267  Uiso   1.00
Fe5    Fe    0.19514   0.64222   0.64222   0.01267  Uiso   1.00
Fe6    Fe    0.52042   0.64222   0.64222   0.01267  Uiso   1.00
Fe7    Fe    0.64222   0.19514   0.52042   0.01267  Uiso   1.00
Fe8    Fe    0.64222   0.52042   0.19514   0.01267  Uiso   1.00
Fe9    Fe    0.19514   0.64222   0.52042   0.01267  Uiso   1.00
Fe10   Fe    0.52042   0.64222   0.19514   0.01267  Uiso   1.00
Fe11   Fe    0.64222   0.52042   0.64222   0.01267  Uiso   1.00
Fe12   Fe    0.64222   0.19514   0.64222   0.01267  Uiso   1.00
H1     H     0.04990   0.50090   0.64390   0.01267  Uiso   1.00
H2     H     0.96610   0.49650   0.64370   0.01267  Uiso   1.00
H3     H     0.19120   0.42100   0.62700   0.01267  Uiso   1.00
H4     H     0.20310   0.31470   0.66750   0.01267  Uiso   1.00
H5     H     0.50090   0.04990   0.80530   0.01267  Uiso   1.00
H6     H     0.49650   0.96610   0.89370   0.01267  Uiso   1.00
H7     H     0.42100   0.19120   0.76080   0.01267  Uiso   1.00
H8     H     0.31470   0.20310   0.81470   0.01267  Uiso   1.00
H9     H     0.64390   0.80530   0.04990   0.01267  Uiso   1.00
H10    H     0.64370   0.89370   0.96610   0.01267  Uiso   1.00
H11    H     0.62700   0.76080   0.19120   0.01267  Uiso   1.00
H12    H     0.66750   0.81470   0.20310   0.01267  Uiso   1.00
H13    H     0.80530   0.64390   0.50090   0.01267  Uiso   1.00
H14    H     0.89370   0.64370   0.49650   0.01267  Uiso   1.00
H15    H     0.76080   0.62700   0.42100   0.01267  Uiso   1.00
H16    H     0.81470   0.66750   0.31470   0.01267  Uiso   1.00
H17    H     0.04990   0.64390   0.80530   0.01267  Uiso   1.00
H18    H     0.96610   0.64370   0.89370   0.01267  Uiso   1.00
H19    H     0.19120   0.62700   0.76080   0.01267  Uiso   1.00
H20    H     0.20310   0.66750   0.81470   0.01267  Uiso   1.00
H21    H     0.50090   0.80530   0.64390   0.01267  Uiso   1.00
H22    H     0.49650   0.89370   0.64370   0.01267  Uiso   1.00
H23    H     0.42100   0.76080   0.62700   0.01267  Uiso   1.00
H24    H     0.31470   0.81470   0.66750   0.01267  Uiso   1.00
H25    H     0.64390   0.04990   0.50090   0.01267  Uiso   1.00
H26    H     0.64370   0.96610   0.49650   0.01267  Uiso   1.00
H27    H     0.62700   0.19120   0.42100   0.01267  Uiso   1.00
H28    H     0.66750   0.20310   0.31470   0.01267  Uiso   1.00
H29    H     0.80530   0.50090   0.04990   0.01267  Uiso   1.00
H30    H     0.89370   0.49650   0.96610   0.01267  Uiso   1.00
H31    H     0.76080   0.42100   0.19120   0.01267  Uiso   1.00
H32    H     0.81470   0.31470   0.20310   0.01267  Uiso   1.00
H33    H     0.04990   0.80530   0.50090   0.01267  Uiso   1.00
H34    H     0.96610   0.89370   0.49650   0.01267  Uiso   1.00
H35    H     0.19120   0.76080   0.42100   0.01267  Uiso   1.00
H36    H     0.20310   0.81470   0.31470   0.01267  Uiso   1.00
H37    H     0.50090   0.64390   0.04990   0.01267  Uiso   1.00
H38    H     0.49650   0.64370   0.96610   0.01267  Uiso   1.00
H39    H     0.42100   0.62700   0.19120   0.01267  Uiso   1.00
H40    H     0.31470   0.66750   0.20310   0.01267  Uiso   1.00
H41    H     0.64390   0.50090   0.80530   0.01267  Uiso   1.00
H42    H     0.64370   0.49650   0.89370   0.01267  Uiso   1.00
H43    H     0.62700   0.42100   0.76080   0.01267  Uiso   1.00
H44    H     0.66750   0.31470   0.81470   0.01267  Uiso   1.00
H45    H     0.80530   0.04990   0.64390   0.01267  Uiso   1.00
H46    H     0.89370   0.96610   0.64370   0.01267  Uiso   1.00
H47    H     0.76080   0.19120   0.62700   0.01267  Uiso   1.00
H48    H     0.81470   0.20310   0.66750   0.01267  Uiso   1.00
H49    H     0.04990   0.50090   0.80530   0.01267  Uiso   1.00
H50    H     0.96610   0.49650   0.89370   0.01267  Uiso   1.00
H51    H     0.19120   0.42100   0.76080   0.01267  Uiso   1.00
H52    H     0.20310   0.31470   0.81470   0.01267  Uiso   1.00
H53    H     0.50090   0.04990   0.64390   0.01267  Uiso   1.00
H54    H     0.49650   0.96610   0.64370   0.01267  Uiso   1.00
H55    H     0.42100   0.19120   0.62700   0.01267  Uiso   1.00
H56    H     0.31470   0.20310   0.66750   0.01267  Uiso   1.00
H57    H     0.64390   0.80530   0.50090   0.01267  Uiso   1.00
H58    H     0.64370   0.89370   0.49650   0.01267  Uiso   1.00
H59    H     0.62700   0.76080   0.42100   0.01267  Uiso   1.00
H60    H     0.66750   0.81470   0.31470   0.01267  Uiso   1.00
H61    H     0.80530   0.64390   0.04990   0.01267  Uiso   1.00
H62    H     0.89370   0.64370   0.96610   0.01267  Uiso   1.00
H63    H     0.76080   0.62700   0.19120   0.01267  Uiso   1.00
H64    H     0.81470   0.66750   0.20310   0.01267  Uiso   1.00
H65    H     0.04990   0.64390   0.50090   0.01267  Uiso   1.00
H66    H     0.96610   0.64370   0.49650   0.01267  Uiso   1.00
H67    H     0.19120   0.62700   0.42100   0.01267  Uiso   1.00
H68    H     0.20310   0.66750   0.31470   0.01267  Uiso   1.00
H69    H     0.50090   0.80530   0.04990   0.01267  Uiso   1.00
H70    H     0.49650   0.89370   0.96610   0.01267  Uiso   1.00
H71    H     0.42100   0.76080   0.19120   0.01267  Uiso   1.00
H72    H     0.31470   0.81470   0.20310   0.01267  Uiso   1.00
H73    H     0.64390   0.04990   0.80530   0.01267  Uiso   1.00
H74    H     0.64370   0.96610   0.89370   0.01267  Uiso   1.00
H75    H     0.62700   0.19120   0.76080   0.01267  Uiso   1.00
H76    H     0.66750   0.20310   0.81470   0.01267  Uiso   1.00
H77    H     0.80530   0.50090   0.64390   0.01267  Uiso   1.00
H78    H     0.89370   0.49650   0.64370   0.01267  Uiso   1.00
H79    H     0.76080   0.42100   0.62700   0.01267  Uiso   1.00
H80    H     0.81470   0.31470   0.66750   0.01267  Uiso   1.00
H81    H     0.04990   0.80530   0.64390   0.01267  Uiso   1.00
H82    H     0.96610   0.89370   0.64370   0.01267  Uiso   1.00
H83    H     0.19120   0.76080   0.62700   0.01267  Uiso   1.00
H84    H     0.20310   0.81470   0.66750   0.01267  Uiso   1.00
H85    H     0.50090   0.64390   0.80530   0.01267  Uiso   1.00
H86    H     0.49650   0.64370   0.89370   0.01267  Uiso   1.00
H87    H     0.42100   0.62700   0.76080   0.01267  Uiso   1.00
H88    H     0.31470   0.66750   0.81470   0.01267  Uiso   1.00
H89    H     0.64390   0.50090   0.04990   0.01267  Uiso   1.00
H90    H     0.64370   0.49650   0.96610   0.01267  Uiso   1.00
H91    H     0.62700   0.42100   0.19120   0.01267  Uiso   1.00
H92    H     0.66750   0.31470   0.20310   0.01267  Uiso   1.00
H93    H     0.80530   0.04990   0.50090   0.01267  Uiso   1.00
H94    H     0.89370   0.96610   0.49650   0.01267  Uiso   1.00
H95    H     0.76080   0.19120   0.42100   0.01267  Uiso   1.00
H96    H     0.81470   0.20310   0.31470   0.01267  Uiso   1.00
C1     C     0.03300   0.52980   0.61400   0.01267  Uiso   1.00
C2     C     0.98170   0.52730   0.61510   0.01267  Uiso   1.00
C3     C     0.19360   0.40020   0.66560   0.01267  Uiso   1.00
C4     C     0.19850   0.33470   0.68970   0.01267  Uiso   1.00
C5     C     0.52980   0.03300   0.82320   0.01267  Uiso   1.00
C6     C     0.52730   0.98170   0.87590   0.01267  Uiso   1.00
C7     C     0.40020   0.19360   0.74060   0.01267  Uiso   1.00
C8     C     0.33470   0.19850   0.77710   0.01267  Uiso   1.00
C9     C     0.61400   0.82320   0.03300   0.01267  Uiso   1.00
C10    C     0.61510   0.87590   0.98170   0.01267  Uiso   1.00
C11    C     0.66560   0.74060   0.19360   0.01267  Uiso   1.00
C12    C     0.68970   0.77710   0.19850   0.01267  Uiso   1.00
C13    C     0.82320   0.61400   0.52980   0.01267  Uiso   1.00
C14    C     0.87590   0.61510   0.52730   0.01267  Uiso   1.00
C15    C     0.74060   0.66560   0.40020   0.01267  Uiso   1.00
C16    C     0.77710   0.68970   0.33470   0.01267  Uiso   1.00
C17    C     0.03300   0.61400   0.82320   0.01267  Uiso   1.00
C18    C     0.98170   0.61510   0.87590   0.01267  Uiso   1.00
C19    C     0.19360   0.66560   0.74060   0.01267  Uiso   1.00
C20    C     0.19850   0.68970   0.77710   0.01267  Uiso   1.00
C21    C     0.52980   0.82320   0.61400   0.01267  Uiso   1.00
C22    C     0.52730   0.87590   0.61510   0.01267  Uiso   1.00
C23    C     0.40020   0.74060   0.66560   0.01267  Uiso   1.00
C24    C     0.33470   0.77710   0.68970   0.01267  Uiso   1.00
C25    C     0.61400   0.03300   0.52980   0.01267  Uiso   1.00
C26    C     0.61510   0.98170   0.52730   0.01267  Uiso   1.00
C27    C     0.66560   0.19360   0.40020   0.01267  Uiso   1.00
C28    C     0.68970   0.19850   0.33470   0.01267  Uiso   1.00
C29    C     0.82320   0.52980   0.03300   0.01267  Uiso   1.00
C30    C     0.87590   0.52730   0.98170   0.01267  Uiso   1.00
C31    C     0.74060   0.40020   0.19360   0.01267  Uiso   1.00
C32    C     0.77710   0.33470   0.19850   0.01267  Uiso   1.00
C33    C     0.03300   0.82320   0.52980   0.01267  Uiso   1.00
C34    C     0.98170   0.87590   0.52730   0.01267  Uiso   1.00
C35    C     0.19360   0.74060   0.40020   0.01267  Uiso   1.00
C36    C     0.19850   0.77710   0.33470   0.01267  Uiso   1.00
C37    C     0.52980   0.61400   0.03300   0.01267  Uiso   1.00
C38    C     0.52730   0.61510   0.98170   0.01267  Uiso   1.00
C39    C     0.40020   0.66560   0.19360   0.01267  Uiso   1.00
C40    C     0.33470   0.68970   0.19850   0.01267  Uiso   1.00
C41    C     0.61400   0.52980   0.82320   0.01267  Uiso   1.00
C42    C     0.61510   0.52730   0.87590   0.01267  Uiso   1.00
C43    C     0.66560   0.40020   0.74060   0.01267  Uiso   1.00
C44    C     0.68970   0.33470   0.77710   0.01267  Uiso   1.00
C45    C     0.82320   0.03300   0.61400   0.01267  Uiso   1.00
C46    C     0.87590   0.98170   0.61510   0.01267  Uiso   1.00
C47    C     0.74060   0.19360   0.66560   0.01267  Uiso   1.00
C48    C     0.77710   0.19850   0.68970   0.01267  Uiso   1.00
C49    C     0.03300   0.52980   0.82320   0.01267  Uiso   1.00
C50    C     0.98170   0.52730   0.87590   0.01267  Uiso   1.00
C51    C     0.19360   0.40020   0.74060   0.01267  Uiso   1.00
C52    C     0.19850   0.33470   0.77710   0.01267  Uiso   1.00
C53    C     0.52980   0.03300   0.61400   0.01267  Uiso   1.00
C54    C     0.52730   0.98170   0.61510   0.01267  Uiso   1.00
C55    C     0.40020   0.19360   0.66560   0.01267  Uiso   1.00
C56    C     0.33470   0.19850   0.68970   0.01267  Uiso   1.00
C57    C     0.61400   0.82320   0.52980   0.01267  Uiso   1.00
C58    C     0.61510   0.87590   0.52730   0.01267  Uiso   1.00
C59    C     0.66560   0.74060   0.40020   0.01267  Uiso   1.00
C60    C     0.68970   0.77710   0.33470   0.01267  Uiso   1.00
C61    C     0.82320   0.61400   0.03300   0.01267  Uiso   1.00
C62    C     0.87590   0.61510   0.98170   0.01267  Uiso   1.00
C63    C     0.74060   0.66560   0.19360   0.01267  Uiso   1.00
C64    C     0.77710   0.68970   0.19850   0.01267  Uiso   1.00
C65    C     0.03300   0.61400   0.52980   0.01267  Uiso   1.00
C66    C     0.98170   0.61510   0.52730   0.01267  Uiso   1.00
C67    C     0.19360   0.66560   0.40020   0.01267  Uiso   1.00
C68    C     0.19850   0.68970   0.33470   0.01267  Uiso   1.00
C69    C     0.52980   0.82320   0.03300   0.01267  Uiso   1.00
C70    C     0.52730   0.87590   0.98170   0.01267  Uiso   1.00
C71    C     0.40020   0.74060   0.19360   0.01267  Uiso   1.00
C72    C     0.33470   0.77710   0.19850   0.01267  Uiso   1.00
C73    C     0.61400   0.03300   0.82320   0.01267  Uiso   1.00
C74    C     0.61510   0.98170   0.87590   0.01267  Uiso   1.00
C75    C     0.66560   0.19360   0.74060   0.01267  Uiso   1.00
C76    C     0.68970   0.19850   0.77710   0.01267  Uiso   1.00
C77    C     0.82320   0.52980   0.61400   0.01267  Uiso   1.00
C78    C     0.87590   0.52730   0.61510   0.01267  Uiso   1.00
C79    C     0.74060   0.40020   0.66560   0.01267  Uiso   1.00
C80    C     0.77710   0.33470   0.68970   0.01267  Uiso   1.00
C81    C     0.03300   0.82320   0.61400   0.01267  Uiso   1.00
C82    C     0.98170   0.87590   0.61510   0.01267  Uiso   1.00
C83    C     0.19360   0.74060   0.66560   0.01267  Uiso   1.00
C84    C     0.19850   0.77710   0.68970   0.01267  Uiso   1.00
C85    C     0.52980   0.61400   0.82320   0.01267  Uiso   1.00
C86    C     0.52730   0.61510   0.87590   0.01267  Uiso   1.00
C87    C     0.40020   0.66560   0.74060   0.01267  Uiso   1.00
C88    C     0.33470   0.68970   0.77710   0.01267  Uiso   1.00
C89    C     0.61400   0.52980   0.03300   0.01267  Uiso   1.00
C90    C     0.61510   0.52730   0.98170   0.01267  Uiso   1.00
C91    C     0.66560   0.40020   0.19360   0.01267  Uiso   1.00
C92    C     0.68970   0.33470   0.19850   0.01267  Uiso   1.00
C93    C     0.82320   0.03300   0.52980   0.01267  Uiso   1.00
C94    C     0.87590   0.98170   0.52730   0.01267  Uiso   1.00
C95    C     0.74060   0.19360   0.40020   0.01267  Uiso   1.00
C96    C     0.77710   0.19850   0.33470   0.01267  Uiso   1.00
C97    C     0.19550   0.30950   0.74750   0.01267  Uiso   1.00
C98    C     0.19640   0.24240   0.78060   0.01267  Uiso   1.00
C99    C     0.30950   0.19550   0.74750   0.01267  Uiso   1.00
C100   C     0.24240   0.19640   0.78060   0.01267  Uiso   1.00
C101   C     0.74750   0.74750   0.19550   0.01267  Uiso   1.00
C102   C     0.78060   0.78060   0.19640   0.01267  Uiso   1.00
C103   C     0.74750   0.74750   0.30950   0.01267  Uiso   1.00
C104   C     0.78060   0.78060   0.24240   0.01267  Uiso   1.00
C105   C     0.19550   0.74750   0.74750   0.01267  Uiso   1.00
C106   C     0.19640   0.78060   0.78060   0.01267  Uiso   1.00
C107   C     0.30950   0.74750   0.74750   0.01267  Uiso   1.00
C108   C     0.24240   0.78060   0.78060   0.01267  Uiso   1.00
C109   C     0.74750   0.19550   0.30950   0.01267  Uiso   1.00
C110   C     0.78060   0.19640   0.24240   0.01267  Uiso   1.00
C111   C     0.74750   0.30950   0.19550   0.01267  Uiso   1.00
C112   C     0.78060   0.24240   0.19640   0.01267  Uiso   1.00
C113   C     0.19550   0.74750   0.30950   0.01267  Uiso   1.00
C114   C     0.19640   0.78060   0.24240   0.01267  Uiso   1.00
C115   C     0.30950   0.74750   0.19550   0.01267  Uiso   1.00
C116   C     0.24240   0.78060   0.19640   0.01267  Uiso   1.00
C117   C     0.74750   0.30950   0.74750   0.01267  Uiso   1.00
C118   C     0.78060   0.24240   0.78060   0.01267  Uiso   1.00
C119   C     0.74750   0.19550   0.74750   0.01267  Uiso   1.00
C120   C     0.78060   0.19640   0.78060   0.01267  Uiso   1.00
C121   C     0.10850   0.57570   0.57570   0.01267  Uiso   1.00
C122   C     0.05830   0.57190   0.57190   0.01267  Uiso   1.00
C123   C     0.95650   0.57210   0.57210   0.01267  Uiso   1.00
C124   C     0.57570   0.10850   0.74010   0.01267  Uiso   1.00
C125   C     0.57190   0.05830   0.79790   0.01267  Uiso   1.00
C126   C     0.57210   0.95650   0.89930   0.01267  Uiso   1.00
C127   C     0.57570   0.74010   0.10850   0.01267  Uiso   1.00
C128   C     0.57190   0.79790   0.05830   0.01267  Uiso   1.00
C129   C     0.57210   0.89930   0.95650   0.01267  Uiso   1.00
C130   C     0.74010   0.57570   0.57570   0.01267  Uiso   1.00
C131   C     0.79790   0.57190   0.57190   0.01267  Uiso   1.00
C132   C     0.89930   0.57210   0.57210   0.01267  Uiso   1.00
C133   C     0.10850   0.57570   0.74010   0.01267  Uiso   1.00
C134   C     0.05830   0.57190   0.79790   0.01267  Uiso   1.00
C135   C     0.95650   0.57210   0.89930   0.01267  Uiso   1.00
C136   C     0.57570   0.74010   0.57570   0.01267  Uiso   1.00
C137   C     0.57190   0.79790   0.57190   0.01267  Uiso   1.00
C138   C     0.57210   0.89930   0.57210   0.01267  Uiso   1.00
C139   C     0.57570   0.10850   0.57570   0.01267  Uiso   1.00
C140   C     0.57190   0.05830   0.57190   0.01267  Uiso   1.00
C141   C     0.57210   0.95650   0.57210   0.01267  Uiso   1.00
C142   C     0.74010   0.57570   0.10850   0.01267  Uiso   1.00
C143   C     0.79790   0.57190   0.05830   0.01267  Uiso   1.00
C144   C     0.89930   0.57210   0.95650   0.01267  Uiso   1.00
C145   C     0.10850   0.74010   0.57570   0.01267  Uiso   1.00
C146   C     0.05830   0.79790   0.57190   0.01267  Uiso   1.00
C147   C     0.95650   0.89930   0.57210   0.01267  Uiso   1.00
C148   C     0.57570   0.57570   0.10850   0.01267  Uiso   1.00
C149   C     0.57190   0.57190   0.05830   0.01267  Uiso   1.00
C150   C     0.57210   0.57210   0.95650   0.01267  Uiso   1.00
C151   C     0.57570   0.57570   0.74010   0.01267  Uiso   1.00
C152   C     0.57190   0.57190   0.79790   0.01267  Uiso   1.00
C153   C     0.57210   0.57210   0.89930   0.01267  Uiso   1.00
C154   C     0.74010   0.10850   0.57570   0.01267  Uiso   1.00
C155   C     0.79790   0.05830   0.57190   0.01267  Uiso   1.00
C156   C     0.89930   0.95650   0.57210   0.01267  Uiso   1.00
S1     S     0.27385   0.51009   0.51009   0.01267  Uiso   1.00
S2     S     0.51009   0.27385   0.70597   0.01267  Uiso   1.00
S3     S     0.51009   0.70597   0.27385   0.01267  Uiso   1.00
S4     S     0.70597   0.51009   0.51009   0.01267  Uiso   1.00
S5     S     0.27385   0.51009   0.70597   0.01267  Uiso   1.00
S6     S     0.51009   0.70597   0.51009   0.01267  Uiso   1.00
S7     S     0.51009   0.27385   0.51009   0.01267  Uiso   1.00
S8     S     0.70597   0.51009   0.27385   0.01267  Uiso   1.00
S9     S     0.27385   0.70597   0.51009   0.01267  Uiso   1.00
S10    S     0.51009   0.51009   0.27385   0.01267  Uiso   1.00
S11    S     0.51009   0.51009   0.70597   0.01267  Uiso   1.00
S12    S     0.70597   0.27385   0.51009   0.01267  Uiso   1.00
N1     N     0.19210   0.43130   0.68830   0.01267  Uiso   1.00
N2     N     0.43130   0.19210   0.68830   0.01267  Uiso   1.00
N3     N     0.68830   0.68830   0.19210   0.01267  Uiso   1.00
N4     N     0.68830   0.68830   0.43130   0.01267  Uiso   1.00
N5     N     0.19210   0.68830   0.68830   0.01267  Uiso   1.00
N6     N     0.43130   0.68830   0.68830   0.01267  Uiso   1.00
N7     N     0.68830   0.19210   0.43130   0.01267  Uiso   1.00
N8     N     0.68830   0.43130   0.19210   0.01267  Uiso   1.00
N9     N     0.19210   0.68830   0.43130   0.01267  Uiso   1.00
N10    N     0.43130   0.68830   0.19210   0.01267  Uiso   1.00
N11    N     0.68830   0.43130   0.68830   0.01267  Uiso   1.00
N12    N     0.68830   0.19210   0.68830   0.01267  Uiso   1.00
O1     O     0.12920   0.53640   0.61680   0.01267  Uiso   1.00
O2     O     0.25890   0.48830   0.57610   0.01267  Uiso   1.00
O3     O     0.53640   0.12920   0.71760   0.01267  Uiso   1.00
O4     O     0.48830   0.25890   0.67670   0.01267  Uiso   1.00
O5     O     0.61680   0.71760   0.12920   0.01267  Uiso   1.00
O6     O     0.57610   0.67670   0.25890   0.01267  Uiso   1.00
O7     O     0.71760   0.61680   0.53640   0.01267  Uiso   1.00
O8     O     0.67670   0.57610   0.48830   0.01267  Uiso   1.00
O9     O     0.12920   0.61680   0.71760   0.01267  Uiso   1.00
O10    O     0.25890   0.57610   0.67670   0.01267  Uiso   1.00
O11    O     0.53640   0.71760   0.61680   0.01267  Uiso   1.00
O12    O     0.48830   0.67670   0.57610   0.01267  Uiso   1.00
O13    O     0.61680   0.12920   0.53640   0.01267  Uiso   1.00
O14    O     0.57610   0.25890   0.48830   0.01267  Uiso   1.00
O15    O     0.71760   0.53640   0.12920   0.01267  Uiso   1.00
O16    O     0.67670   0.48830   0.25890   0.01267  Uiso   1.00
O17    O     0.12920   0.71760   0.53640   0.01267  Uiso   1.00
O18    O     0.25890   0.67670   0.48830   0.01267  Uiso   1.00
O19    O     0.53640   0.61680   0.12920   0.01267  Uiso   1.00
O20    O     0.48830   0.57610   0.25890   0.01267  Uiso   1.00
O21    O     0.61680   0.53640   0.71760   0.01267  Uiso   1.00
O22    O     0.57610   0.48830   0.67670   0.01267  Uiso   1.00
O23    O     0.71760   0.12920   0.61680   0.01267  Uiso   1.00
O24    O     0.67670   0.25890   0.57610   0.01267  Uiso   1.00
O25    O     0.12920   0.53640   0.71760   0.01267  Uiso   1.00
O26    O     0.25890   0.48830   0.67670   0.01267  Uiso   1.00
O27    O     0.53640   0.12920   0.61680   0.01267  Uiso   1.00
O28    O     0.48830   0.25890   0.57610   0.01267  Uiso   1.00
O29    O     0.61680   0.71760   0.53640   0.01267  Uiso   1.00
O30    O     0.57610   0.67670   0.48830   0.01267  Uiso   1.00
O31    O     0.71760   0.61680   0.12920   0.01267  Uiso   1.00
O32    O     0.67670   0.57610   0.25890   0.01267  Uiso   1.00
O33    O     0.12920   0.61680   0.53640   0.01267  Uiso   1.00
O34    O     0.25890   0.57610   0.48830   0.01267  Uiso   1.00
O35    O     0.53640   0.71760   0.12920   0.01267  Uiso   1.00
O36    O     0.48830   0.67670   0.25890   0.01267  Uiso   1.00
O37    O     0.61680   0.12920   0.71760   0.01267  Uiso   1.00
O38    O     0.57610   0.25890   0.67670   0.01267  Uiso   1.00
O39    O     0.71760   0.53640   0.61680   0.01267  Uiso   1.00
O40    O     0.67670   0.48830   0.57610   0.01267  Uiso   1.00
O41    O     0.12920   0.71760   0.61680   0.01267  Uiso   1.00
O42    O     0.25890   0.67670   0.57610   0.01267  Uiso   1.00
O43    O     0.53640   0.61680   0.71760   0.01267  Uiso   1.00
O44    O     0.48830   0.57610   0.67670   0.01267  Uiso   1.00
O45    O     0.61680   0.53640   0.12920   0.01267  Uiso   1.00
O46    O     0.57610   0.48830   0.25890   0.01267  Uiso   1.00
O47    O     0.71760   0.12920   0.53640   0.01267  Uiso   1.00
O48    O     0.67670   0.25890   0.48830   0.01267  Uiso   1.00
O49    O     0.19640   0.60120   0.60120   0.01267  Uiso   1.00
O50    O     0.60120   0.19640   0.60120   0.01267  Uiso   1.00
O51    O     0.60120   0.60120   0.19640   0.01267  Uiso   1.00
O52    O     0.60120   0.60120   0.60120   0.01267  Uiso   1.00
O53    O     0.33750   0.48310   0.48310   0.01267  Uiso   1.00
O54    O     0.23870   0.49590   0.49590   0.01267  Uiso   1.00
O55    O     0.48310   0.33750   0.69630   0.01267  Uiso   1.00
O56    O     0.49590   0.23870   0.76950   0.01267  Uiso   1.00
O57    O     0.48310   0.69630   0.33750   0.01267  Uiso   1.00
O58    O     0.49590   0.76950   0.23870   0.01267  Uiso   1.00
O59    O     0.69630   0.48310   0.48310   0.01267  Uiso   1.00
O60    O     0.76950   0.49590   0.49590   0.01267  Uiso   1.00
O61    O     0.33750   0.48310   0.69630   0.01267  Uiso   1.00
O62    O     0.23870   0.49590   0.76950   0.01267  Uiso   1.00
O63    O     0.48310   0.69630   0.48310   0.01267  Uiso   1.00
O64    O     0.49590   0.76950   0.49590   0.01267  Uiso   1.00
O65    O     0.48310   0.33750   0.48310   0.01267  Uiso   1.00
O66    O     0.49590   0.23870   0.49590   0.01267  Uiso   1.00
O67    O     0.69630   0.48310   0.33750   0.01267  Uiso   1.00
O68    O     0.76950   0.49590   0.23870   0.01267  Uiso   1.00
O69    O     0.33750   0.69630   0.48310   0.01267  Uiso   1.00
O70    O     0.23870   0.76950   0.49590   0.01267  Uiso   1.00
O71    O     0.48310   0.48310   0.33750   0.01267  Uiso   1.00
O72    O     0.49590   0.49590   0.23870   0.01267  Uiso   1.00
O73    O     0.48310   0.48310   0.69630   0.01267  Uiso   1.00
O74    O     0.49590   0.49590   0.76950   0.01267  Uiso   1.00
O75    O     0.69630   0.33750   0.48310   0.01267  Uiso   1.00
O76    O     0.76950   0.23870   0.49590   0.01267  Uiso   1.00
