data_JOQZUM_freeONLY
_audit_creation_date              2015-10-16
_audit_creation_method            'Materials Studio'
_symmetry_space_group_name_H-M    'P1'
_symmetry_Int_Tables_number       1
_symmetry_cell_setting            triclinic
loop_
_symmetry_equiv_pos_as_xyz
  x,y,z
_cell_length_a                    13.0699
_cell_length_b                    13.7592
_cell_length_c                    13.8964
_cell_angle_alpha                 113.7280
_cell_angle_beta                  111.8830
_cell_angle_gamma                 101.3650
loop_
_atom_site_label
_atom_site_type_symbol
_atom_site_fract_x
_atom_site_fract_y
_atom_site_fract_z
_atom_site_U_iso_or_equiv
_atom_site_adp_type
_atom_site_occupancy
Mn1    Mn    0.48667   0.73029   0.86876   0.01267  Uiso   1.00
Mn2    Mn    0.87749   0.44833   0.64520   0.01267  Uiso   1.00
Mn3    Mn    0.12251   0.55167   0.35480   0.01267  Uiso   1.00
Mn4    Mn    0.51333   0.26971   0.13124   0.01267  Uiso   1.00
Mn5    Mn    0.88209   0.13847   0.86876   0.01267  Uiso   1.00
Mn6    Mn    0.26771   0.19687   0.64520   0.01267  Uiso   1.00
Mn7    Mn    0.73229   0.80313   0.35480   0.01267  Uiso   1.00
Mn8    Mn    0.11791   0.86153   0.13124   0.01267  Uiso   1.00
Mo1    Mo    0.12071   0.87071   0.74142   0.01267  Uiso   1.00
Mo2    Mo    0.73083   0.48083   0.96166   0.01267  Uiso   1.00
Mo3    Mo    0.87929   0.12929   0.25858   0.01267  Uiso   1.00
Mo4    Mo    0.26917   0.51917   0.03834   0.01267  Uiso   1.00
H1     H     0.29850   0.07460   0.22680   0.01267  Uiso   1.00
H2     H     0.70150   0.92540   0.77320   0.01267  Uiso   1.00
H3     H     0.44960   0.28840   0.31760   0.01267  Uiso   1.00
H4     H     0.67610   0.35100   0.49700   0.01267  Uiso   1.00
H5     H     0.23650   0.03830   0.46460   0.01267  Uiso   1.00
H6     H     0.63200   0.97080   0.68240   0.01267  Uiso   1.00
H7     H     0.42830   0.15220   0.22680   0.01267  Uiso   1.00
H8     H     0.36800   0.02920   0.31760   0.01267  Uiso   1.00
H9     H     0.72810   0.42630   0.46460   0.01267  Uiso   1.00
H10    H     0.27190   0.57370   0.53540   0.01267  Uiso   1.00
H11    H     0.32090   0.14600   0.49700   0.01267  Uiso   1.00
H12    H     0.55040   0.71160   0.68240   0.01267  Uiso   1.00
H13    H     0.57170   0.84780   0.77320   0.01267  Uiso   1.00
H14    H     0.67910   0.85400   0.50300   0.01267  Uiso   1.00
H15    H     0.32390   0.64900   0.50300   0.01267  Uiso   1.00
H16    H     0.76350   0.96170   0.53540   0.01267  Uiso   1.00
C1     C     0.75960   0.44970   0.81180   0.01267  Uiso   1.00
C2     C     0.02930   0.97510   0.80000   0.01267  Uiso   1.00
C3     C     0.87387   0.12967   0.10154   0.01267  Uiso   1.00
C4     C     0.11960   0.36990   0.97960   0.01267  Uiso   1.00
C5     C     0.88040   0.63010   0.02040   0.01267  Uiso   1.00
C6     C     0.11730   0.49510   0.88420   0.01267  Uiso   1.00
C7     C     0.24350   0.67820   0.10200   0.01267  Uiso   1.00
C8     C     0.82470   0.01330   0.31400   0.01267  Uiso   1.00
C9     C     0.73310   0.61090   0.11580   0.01267  Uiso   1.00
C10    C     0.01070   0.69930   0.68600   0.01267  Uiso   1.00
C11    C     0.98930   0.30070   0.31400   0.01267  Uiso   1.00
C12    C     0.27233   0.02813   0.89846   0.01267  Uiso   1.00
C13    C     0.72767   0.97187   0.10154   0.01267  Uiso   1.00
C14    C     0.55220   0.36210   0.81180   0.01267  Uiso   1.00
C15    C     0.27070   0.82490   0.80000   0.01267  Uiso   1.00
C16    C     0.04405   0.17555   0.41690   0.01267  Uiso   1.00
C17    C     0.12715   0.75865   0.58310   0.01267  Uiso   1.00
C18    C     0.64000   0.39030   0.02040   0.01267  Uiso   1.00
C19    C     0.88270   0.50490   0.11580   0.01267  Uiso   1.00
C20    C     0.35850   0.42380   0.10200   0.01267  Uiso   1.00
C21    C     0.12613   0.87033   0.89846   0.01267  Uiso   1.00
C22    C     0.97070   0.02490   0.20000   0.01267  Uiso   1.00
C23    C     0.87285   0.24135   0.41690   0.01267  Uiso   1.00
C24    C     0.75650   0.32180   0.89800   0.01267  Uiso   1.00
C25    C     0.24040   0.55030   0.18820   0.01267  Uiso   1.00
C26    C     0.26690   0.38910   0.88420   0.01267  Uiso   1.00
C27    C     0.17530   0.98670   0.68600   0.01267  Uiso   1.00
C28    C     0.72930   0.17510   0.20000   0.01267  Uiso   1.00
C29    C     0.64150   0.57620   0.89800   0.01267  Uiso   1.00
C30    C     0.95595   0.82445   0.58310   0.01267  Uiso   1.00
C31    C     0.44780   0.63790   0.18820   0.01267  Uiso   1.00
C32    C     0.36000   0.60970   0.97960   0.01267  Uiso   1.00
N1     N     0.95552   0.60693   0.65930   0.01267  Uiso   1.00
N2     N     0.35575   0.10993   0.97940   0.01267  Uiso   1.00
N3     N     0.87192   0.80462   0.49924   0.01267  Uiso   1.00
N4     N     0.04208   0.29065   0.95360   0.01267  Uiso   1.00
N5     N     0.22907   0.76231   0.13496   0.01267  Uiso   1.00
N6     N     0.64786   0.19750   0.17038   0.01267  Uiso   1.00
N7     N     0.95792   0.70935   0.04640   0.01267  Uiso   1.00
N8     N     0.77093   0.23769   0.86504   0.01267  Uiso   1.00
N9     N     0.79622   0.94763   0.34070   0.01267  Uiso   1.00
N10    N     0.22090   0.56560   0.26500   0.01267  Uiso   1.00
N11    N     0.45590   0.30060   0.73500   0.01267  Uiso   1.00
N12    N     0.12732   0.69462   0.49924   0.01267  Uiso   1.00
N13    N     0.40589   0.37265   0.13496   0.01267  Uiso   1.00
N14    N     0.04448   0.39307   0.34070   0.01267  Uiso   1.00
N15    N     0.54410   0.69940   0.26500   0.01267  Uiso   1.00
N16    N     0.12365   0.86947   0.97940   0.01267  Uiso   1.00
N17    N     0.64425   0.89007   0.02060   0.01267  Uiso   1.00
N18    N     0.73866   0.67984   0.20234   0.01267  Uiso   1.00
N19    N     0.20378   0.05237   0.65930   0.01267  Uiso   1.00
N20    N     0.26134   0.32016   0.79766   0.01267  Uiso   1.00
N21    N     0.41152   0.66295   0.95360   0.01267  Uiso   1.00
N22    N     0.02252   0.97288   0.17038   0.01267  Uiso   1.00
N23    N     0.97748   0.02712   0.82962   0.01267  Uiso   1.00
N24    N     0.77910   0.43440   0.73500   0.01267  Uiso   1.00
N25    N     0.12808   0.19538   0.50076   0.01267  Uiso   1.00
N26    N     0.58848   0.33705   0.04640   0.01267  Uiso   1.00
N27    N     0.59411   0.62735   0.86504   0.01267  Uiso   1.00
N28    N     0.35214   0.80250   0.82962   0.01267  Uiso   1.00
N29    N     0.96368   0.52250   0.20234   0.01267  Uiso   1.00
N30    N     0.87268   0.30538   0.50076   0.01267  Uiso   1.00
N31    N     0.87635   0.13053   0.02060   0.01267  Uiso   1.00
N32    N     0.03632   0.47750   0.79766   0.01267  Uiso   1.00
O1     O     0.48072   0.24001   0.26476   0.01267  Uiso   1.00
O2     O     0.28404   0.02475   0.26476   0.01267  Uiso   1.00
O3     O     0.30707   0.08455   0.50506   0.01267  Uiso   1.00
O4     O     0.30201   0.57949   0.49494   0.01267  Uiso   1.00
O5     O     0.69293   0.91545   0.49494   0.01267  Uiso   1.00
O6     O     0.71596   0.97525   0.73524   0.01267  Uiso   1.00
O7     O     0.69799   0.42051   0.50506   0.01267  Uiso   1.00
O8     O     0.51928   0.75999   0.73524   0.01267  Uiso   1.00
