data_JOWFOQ_freeONLY
_audit_creation_date              2015-10-16
_audit_creation_method            'Materials Studio'
_symmetry_space_group_name_H-M    'P1'
_symmetry_Int_Tables_number       1
_symmetry_cell_setting            triclinic
loop_
_symmetry_equiv_pos_as_xyz
  x,y,z
_cell_length_a                    7.7967
_cell_length_b                    13.6939
_cell_length_c                    17.2311
_cell_angle_alpha                 89.8570
_cell_angle_beta                  90.0000
_cell_angle_gamma                 90.0000
loop_
_atom_site_label
_atom_site_type_symbol
_atom_site_fract_x
_atom_site_fract_y
_atom_site_fract_z
_atom_site_U_iso_or_equiv
_atom_site_adp_type
_atom_site_occupancy
Cu1    Cu    0.73280   0.75310   0.75200   0.01267  Uiso   1.00
Cu2    Cu    0.26720   0.24690   0.24800   0.01267  Uiso   1.00
Cu3    Cu    0.23280   0.74690   0.74800   0.01267  Uiso   1.00
Cu4    Cu    0.50000   0.50000  -0.00000   0.01267  Uiso   1.00
Cu5    Cu    0.50000   0.50000   0.50000   0.01267  Uiso   1.00
Cu6    Cu    0.00000   0.00000   0.00000   0.01267  Uiso   1.00
Cu7    Cu    0.00000   0.00000   0.50000   0.01267  Uiso   1.00
Cu8    Cu    0.76720   0.25310   0.25200   0.01267  Uiso   1.00
H1     H     0.30600   0.57110   0.40140   0.01267  Uiso   1.00
H2     H     0.26300   0.11230   0.40240   0.01267  Uiso   1.00
H3     H     0.25000   0.93870   0.40780   0.01267  Uiso   1.00
H4     H     0.09700   0.12000   0.94400   0.01267  Uiso   1.00
H5     H     0.72770   0.64830   0.89870   0.01267  Uiso   1.00
H6     H     0.77230   0.14830   0.39870   0.01267  Uiso   1.00
H7     H     0.80600   0.92890   0.09860   0.01267  Uiso   1.00
H8     H     0.73290   0.86200   0.91340   0.01267  Uiso   1.00
H9     H     0.59700   0.38000   0.55600   0.01267  Uiso   1.00
H10    H     0.19400   0.07110   0.90140   0.01267  Uiso   1.00
H11    H     0.26710   0.13800   0.08660   0.01267  Uiso   1.00
H12    H     0.76880   0.14190   0.10390   0.01267  Uiso   1.00
H13    H     0.23120   0.85810   0.89610   0.01267  Uiso   1.00
H14    H     0.23290   0.63800   0.58660   0.01267  Uiso   1.00
H15    H     0.22770   0.85170   0.60130   0.01267  Uiso   1.00
H16    H     0.90300   0.88000   0.05600   0.01267  Uiso   1.00
H17    H     0.73120   0.64190   0.60390   0.01267  Uiso   1.00
H18    H     0.27230   0.35170   0.10130   0.01267  Uiso   1.00
H19    H     0.76710   0.36200   0.41340   0.01267  Uiso   1.00
H20    H     0.26880   0.35810   0.39610   0.01267  Uiso   1.00
H21    H     0.75000   0.56130   0.09220   0.01267  Uiso   1.00
H22    H     0.73700   0.88770   0.59760   0.01267  Uiso   1.00
H23    H     0.69400   0.42890   0.59860   0.01267  Uiso   1.00
H24    H     0.75000   0.06130   0.59220   0.01267  Uiso   1.00
H25    H     0.25000   0.43870   0.90780   0.01267  Uiso   1.00
H26    H     0.76300   0.38770   0.09760   0.01267  Uiso   1.00
H27    H     0.23700   0.61230   0.90240   0.01267  Uiso   1.00
H28    H     0.40300   0.62000   0.44400   0.01267  Uiso   1.00
C1     C     0.11760   0.85050   0.60920   0.01267  Uiso   1.00
C2     C     0.65330   0.35880   0.11420   0.01267  Uiso   1.00
C3     C     0.35370   0.65050   0.60680   0.01267  Uiso   1.00
C4     C     0.62550   0.64870   0.61230   0.01267  Uiso   1.00
C5     C     0.61760   0.64950   0.89080   0.01267  Uiso   1.00
C6     C     0.37450   0.35130   0.38770   0.01267  Uiso   1.00
C7     C     0.64630   0.34950   0.39320   0.01267  Uiso   1.00
C8     C     0.85370   0.84950   0.89320   0.01267  Uiso   1.00
C9     C     0.12550   0.85130   0.88770   0.01267  Uiso   1.00
C10    C     0.87450   0.14870   0.11230   0.01267  Uiso   1.00
C11    C     0.84670   0.85880   0.61420   0.01267  Uiso   1.00
C12    C     0.38240   0.35050   0.10920   0.01267  Uiso   1.00
C13    C     0.14630   0.15050   0.10680   0.01267  Uiso   1.00
C14    C     0.34670   0.64120   0.88580   0.01267  Uiso   1.00
C15    C     0.88240   0.14950   0.39080   0.01267  Uiso   1.00
C16    C     0.15330   0.14120   0.38580   0.01267  Uiso   1.00
N1     N     0.00610   0.11050   0.07180   0.01267  Uiso   1.00
N2     N     0.57550   0.70700   0.66850   0.01267  Uiso   1.00
N3     N     0.89870   0.79200   0.83460   0.01267  Uiso   1.00
N4     N     0.48450   0.60460   0.92450   0.01267  Uiso   1.00
N5     N     0.01550   0.10460   0.42450   0.01267  Uiso   1.00
N6     N     0.98450   0.89540   0.57550   0.01267  Uiso   1.00
N7     N     0.60130   0.29200   0.33460   0.01267  Uiso   1.00
N8     N     0.39410   0.70210   0.83040   0.01267  Uiso   1.00
N9     N     0.57070   0.70840   0.83380   0.01267  Uiso   1.00
N10    N     0.50610   0.38950   0.42820   0.01267  Uiso   1.00
N11    N     0.49390   0.61050   0.57180   0.01267  Uiso   1.00
N12    N     0.92930   0.20840   0.33380   0.01267  Uiso   1.00
N13    N     0.39870   0.70800   0.66540   0.01267  Uiso   1.00
N14    N     0.92450   0.20700   0.16850   0.01267  Uiso   1.00
N15    N     0.60590   0.29790   0.16960   0.01267  Uiso   1.00
N16    N     0.42450   0.29300   0.33150   0.01267  Uiso   1.00
N17    N     0.10590   0.20210   0.33040   0.01267  Uiso   1.00
N18    N     0.99390   0.88950   0.92820   0.01267  Uiso   1.00
N19    N     0.89410   0.79790   0.66960   0.01267  Uiso   1.00
N20    N     0.10130   0.20800   0.16540   0.01267  Uiso   1.00
N21    N     0.51550   0.39540   0.07550   0.01267  Uiso   1.00
N22    N     0.07070   0.79160   0.66620   0.01267  Uiso   1.00
N23    N     0.42930   0.29160   0.16620   0.01267  Uiso   1.00
N24    N     0.07550   0.79300   0.83150   0.01267  Uiso   1.00
O1     O     0.33410   0.41430   0.93940   0.01267  Uiso   1.00
O2     O     0.16590   0.91430   0.43940   0.01267  Uiso   1.00
O3     O     0.62100   0.42310   0.58190   0.01267  Uiso   1.00
O4     O     0.83410   0.08570   0.56060   0.01267  Uiso   1.00
O5     O     0.12100   0.07690   0.91810   0.01267  Uiso   1.00
O6     O     0.87900   0.92310   0.08190   0.01267  Uiso   1.00
O7     O     0.37900   0.57690   0.41810   0.01267  Uiso   1.00
O8     O     0.66590   0.58570   0.06060   0.01267  Uiso   1.00
