data_KOSJOT_freeONLY
_audit_creation_date              2015-10-16
_audit_creation_method            'Materials Studio'
_symmetry_space_group_name_H-M    'P1'
_symmetry_Int_Tables_number       1
_symmetry_cell_setting            triclinic
loop_
_symmetry_equiv_pos_as_xyz
  x,y,z
_cell_length_a                    6.8030
_cell_length_b                    15.1144
_cell_length_c                    15.1144
_cell_angle_alpha                 62.2098
_cell_angle_beta                  81.3712
_cell_angle_gamma                 98.6288
loop_
_atom_site_label
_atom_site_type_symbol
_atom_site_fract_x
_atom_site_fract_y
_atom_site_fract_z
_atom_site_U_iso_or_equiv
_atom_site_adp_type
_atom_site_occupancy
Co1    Co    0.10110   0.71690   0.70060   0.01267  Uiso   1.00
Co2    Co    0.80170   0.70060   0.58250   0.01267  Uiso   1.00
Co3    Co    0.10110   0.29940   0.28310   0.01267  Uiso   1.00
Co4    Co    0.38420   0.58250   0.71690   0.01267  Uiso   1.00
Co5    Co    0.80170   0.41750   0.29940   0.01267  Uiso   1.00
Co6    Co    0.38420   0.28310   0.41750   0.01267  Uiso   1.00
H1     H     0.53850   0.00000   0.56850   0.01267  Uiso   1.00
H2     H     0.10700   0.56850   0.43150   0.01267  Uiso   1.00
H3     H     0.23975   0.00000   0.48375   0.01267  Uiso   1.00
H4     H     0.53850   0.43150  -0.00000   0.01267  Uiso   1.00
H5     H     0.72350   0.48375   0.51625   0.01267  Uiso   1.00
H6     H     0.23975   0.51625   0.00000   0.01267  Uiso   1.00
C1     C     0.72810   0.41480   0.09460   0.01267  Uiso   1.00
C2     C     0.94570   0.90570   0.56210   0.01267  Uiso   1.00
C3     C     0.04000   0.09430   0.46780   0.01267  Uiso   1.00
C4     C     0.82270   0.50940   0.90540   0.01267  Uiso   1.00
C5     C     0.20320   0.45580   0.35810   0.01267  Uiso   1.00
C6     C     0.04000   0.53220   0.90570   0.01267  Uiso   1.00
C7     C     0.56130   0.81390   0.64190   0.01267  Uiso   1.00
C8     C     0.74740   0.54420   0.81390   0.01267  Uiso   1.00
C9     C     0.94570   0.43790   0.09430   0.01267  Uiso   1.00
C10    C     0.72810   0.90540   0.58520   0.01267  Uiso   1.00
C11    C     0.67155   0.44305  -0.00000   0.01267  Uiso   1.00
C12    C     0.08780   0.00000   0.49920   0.01267  Uiso   1.00
C13    C     0.56130   0.35810   0.18610   0.01267  Uiso   1.00
C14    C     0.31330   0.49060   0.41480   0.01267  Uiso   1.00
C15    C     0.74740   0.18610   0.45580   0.01267  Uiso   1.00
C16    C     0.50780   0.46780   0.43790   0.01267  Uiso   1.00
C17    C     0.31330   0.58520   0.50940   0.01267  Uiso   1.00
C18    C     0.22850   0.55695   0.44305   0.01267  Uiso   1.00
C19    C     0.58700   0.49920   0.50080   0.01267  Uiso   1.00
C20    C     0.50780   0.56210   0.53220   0.01267  Uiso   1.00
C21    C     0.08780   0.50080   0.00000   0.01267  Uiso   1.00
C22    C     0.67155   0.00000   0.55695   0.01267  Uiso   1.00
C23    C     0.82270   0.09460   0.49060   0.01267  Uiso   1.00
C24    C     0.20320   0.64190   0.54420   0.01267  Uiso   1.00
O1     O     0.55970   0.17950   0.49240   0.01267  Uiso   1.00
O2     O     0.05210   0.67190   0.50760   0.01267  Uiso   1.00
O3     O     0.25570   0.38450   0.34050   0.01267  Uiso   1.00
O4     O     0.99790   0.81740   0.58150   0.01267  Uiso   1.00
O5     O     0.55970   0.50760   0.82050   0.01267  Uiso   1.00
O6     O     0.18050   0.60110   0.81740   0.01267  Uiso   1.00
O7     O     0.05210   0.49240   0.32810   0.01267  Uiso   1.00
O8     O     0.59620   0.34050   0.27500   0.01267  Uiso   1.00
O9     O     0.38020   0.32810   0.17950   0.01267  Uiso   1.00
O10    O     0.57940   0.58150   0.60110   0.01267  Uiso   1.00
O11    O     0.87120   0.61550   0.72500   0.01267  Uiso   1.00
O12    O     0.87120   0.27500   0.38450   0.01267  Uiso   1.00
O13    O     0.57940   0.39890   0.41850   0.01267  Uiso   1.00
O14    O     0.99790   0.41850   0.18260   0.01267  Uiso   1.00
O15    O     0.25570   0.65950   0.61550   0.01267  Uiso   1.00
O16    O     0.59620   0.72500   0.65950   0.01267  Uiso   1.00
O17    O     0.38020   0.82050   0.67190   0.01267  Uiso   1.00
O18    O     0.18050   0.18260   0.39890   0.01267  Uiso   1.00
