data_KOSLIP_freeONLY
_audit_creation_date              2015-10-16
_audit_creation_method            'Materials Studio'
_symmetry_space_group_name_H-M    'P1'
_symmetry_Int_Tables_number       1
_symmetry_cell_setting            triclinic
loop_
_symmetry_equiv_pos_as_xyz
  x,y,z
_cell_length_a                    6.7545
_cell_length_b                    15.0511
_cell_length_c                    15.0511
_cell_angle_alpha                 62.1969
_cell_angle_beta                  81.3969
_cell_angle_gamma                 98.6031
loop_
_atom_site_label
_atom_site_type_symbol
_atom_site_fract_x
_atom_site_fract_y
_atom_site_fract_z
_atom_site_U_iso_or_equiv
_atom_site_adp_type
_atom_site_occupancy
Ni1    Ni    0.81280   0.69510   0.58600   0.01267  Uiso   1.00
Ni2    Ni    0.39880   0.28110   0.41400   0.01267  Uiso   1.00
Ni3    Ni    0.11770   0.71890   0.69510   0.01267  Uiso   1.00
Ni4    Ni    0.11770   0.30490   0.28110   0.01267  Uiso   1.00
Ni5    Ni    0.81280   0.41400   0.30490   0.01267  Uiso   1.00
Ni6    Ni    0.39880   0.58600   0.71890   0.01267  Uiso   1.00
H1     H     0.11700   0.56550   0.43450   0.01267  Uiso   1.00
H2     H     0.74100   0.49050   0.50950   0.01267  Uiso   1.00
H3     H     0.25050  -0.00000   0.49050   0.01267  Uiso   1.00
H4     H     0.55150   0.43450   0.00000   0.01267  Uiso   1.00
H5     H     0.55150   0.00000   0.56550   0.01267  Uiso   1.00
H6     H     0.25050   0.50950   0.00000   0.01267  Uiso   1.00
C1     C     0.67545   0.00000   0.55965   0.01267  Uiso   1.00
C2     C     0.81830   0.09070   0.48280   0.01267  Uiso   1.00
C3     C     0.67545   0.44035   0.00000   0.01267  Uiso   1.00
C4     C     0.09585   0.50755   0.00000   0.01267  Uiso   1.00
C5     C     0.74740   0.54140   0.81320   0.01267  Uiso   1.00
C6     C     0.04470   0.53630   0.90620   0.01267  Uiso   1.00
C7     C     0.20600   0.64540   0.54140   0.01267  Uiso   1.00
C8     C     0.95090   0.44250   0.09380   0.01267  Uiso   1.00
C9     C     0.58830   0.49245   0.50755   0.01267  Uiso   1.00
C10    C     0.56060   0.81320   0.64540   0.01267  Uiso   1.00
C11    C     0.04470   0.09380   0.46370   0.01267  Uiso   1.00
C12    C     0.72760   0.90930   0.57350   0.01267  Uiso   1.00
C13    C     0.74740   0.18680   0.45860   0.01267  Uiso   1.00
C14    C     0.81830   0.51720   0.90930   0.01267  Uiso   1.00
C15    C     0.95090   0.90620   0.55750   0.01267  Uiso   1.00
C16    C     0.09585   0.00000   0.49245   0.01267  Uiso   1.00
C17    C     0.30110   0.57350   0.51720   0.01267  Uiso   1.00
C18    C     0.72760   0.42650   0.09070   0.01267  Uiso   1.00
C19    C     0.56060   0.35460   0.18680   0.01267  Uiso   1.00
C20    C     0.23510   0.55965   0.44035   0.01267  Uiso   1.00
C21    C     0.20600   0.45860   0.35460   0.01267  Uiso   1.00
C22    C     0.50840   0.46370   0.44250   0.01267  Uiso   1.00
C23    C     0.50840   0.55750   0.53630   0.01267  Uiso   1.00
C24    C     0.30110   0.48280   0.42650   0.01267  Uiso   1.00
O1     O     0.03420   0.66440   0.50880   0.01267  Uiso   1.00
O2     O     0.59460   0.34720   0.27240   0.01267  Uiso   1.00
O3     O     0.16400   0.18190   0.39790   0.01267  Uiso   1.00
O4     O     0.54300   0.17320   0.49120   0.01267  Uiso   1.00
O5     O     0.59460   0.72760   0.65280   0.01267  Uiso   1.00
O6     O     0.56190   0.39790   0.42020   0.01267  Uiso   1.00
O7     O     0.86700   0.61960   0.72760   0.01267  Uiso   1.00
O8     O     0.36980   0.33560   0.17320   0.01267  Uiso   1.00
O9     O     0.24740   0.65280   0.61960   0.01267  Uiso   1.00
O10    O     0.54300   0.50880   0.82680   0.01267  Uiso   1.00
O11    O     0.86700   0.27240   0.38040   0.01267  Uiso   1.00
O12    O     0.98210   0.81810   0.57980   0.01267  Uiso   1.00
O13    O     0.36980   0.82680   0.66440   0.01267  Uiso   1.00
O14    O     0.24740   0.38040   0.34720   0.01267  Uiso   1.00
O15    O     0.56190   0.57980   0.60210   0.01267  Uiso   1.00
O16    O     0.98210   0.42020   0.18190   0.01267  Uiso   1.00
O17    O     0.03420   0.49120   0.33560   0.01267  Uiso   1.00
O18    O     0.16400   0.60210   0.81810   0.01267  Uiso   1.00
