data_KOSLAH_freeONLY
_audit_creation_date              2015-10-16
_audit_creation_method            'Materials Studio'
_symmetry_space_group_name_H-M    'P1'
_symmetry_Int_Tables_number       1
_symmetry_cell_setting            triclinic
loop_
_symmetry_equiv_pos_as_xyz
  x,y,z
_cell_length_a                    6.8820
_cell_length_b                    15.1158
_cell_length_c                    15.1158
_cell_angle_alpha                 62.2605
_cell_angle_beta                  81.2709
_cell_angle_gamma                 98.7291
loop_
_atom_site_label
_atom_site_type_symbol
_atom_site_fract_x
_atom_site_fract_y
_atom_site_fract_z
_atom_site_U_iso_or_equiv
_atom_site_adp_type
_atom_site_occupancy
Co1    Co    0.48660   0.58770   0.73190   0.01267  Uiso   1.00
Co2    Co    0.51340   0.41230   0.26810   0.01267  Uiso   1.00
Co3    Co    0.10110   0.31960   0.41230   0.01267  Uiso   1.00
Co4    Co    0.21850   0.73190   0.68040   0.01267  Uiso   1.00
Co5    Co    0.78150   0.26810   0.31960   0.01267  Uiso   1.00
Co6    Co    0.89890   0.68040   0.58770   0.01267  Uiso   1.00
H1     H     0.63950   0.44220   0.02570   0.01267  Uiso   1.00
H2     H     0.66520   0.02570   0.53210   0.01267  Uiso   1.00
H3     H     0.80270   0.46790   0.55780   0.01267  Uiso   1.00
H4     H     0.36050   0.55780   0.97430   0.01267  Uiso   1.00
H5     H     0.33480   0.97430   0.46790   0.01267  Uiso   1.00
H6     H     0.19730   0.53210   0.44220   0.01267  Uiso   1.00
C1     C     0.96700   0.10390   0.46750   0.01267  Uiso   1.00
C2     C     0.25930   0.61640   0.55930   0.01267  Uiso   1.00
C3     C     0.43450   0.46750   0.42860   0.01267  Uiso   1.00
C4     C     0.13690   0.57140   0.89610   0.01267  Uiso   1.00
C5     C     0.19820   0.98790   0.48090   0.01267  Uiso   1.00
C6     C     0.16600   0.08780   0.45050   0.01267  Uiso   1.00
C7     C     0.56550   0.53250   0.57140   0.01267  Uiso   1.00
C8     C     0.61650   0.45050   0.46170   0.01267  Uiso   1.00
C9     C     0.81860   0.55930   0.82430   0.01267  Uiso   1.00
C10    C     0.80180   0.01210   0.51910   0.01267  Uiso   1.00
C11    C     0.64290   0.82430   0.61640   0.01267  Uiso   1.00
C12    C     0.74070   0.38360   0.44070   0.01267  Uiso   1.00
C13    C     0.03300   0.89610   0.53250   0.01267  Uiso   1.00
C14    C     0.67910   0.48090   0.53120   0.01267  Uiso   1.00
C15    C     0.35710   0.17570   0.38360   0.01267  Uiso   1.00
C16    C     0.78970   0.46880   0.01210   0.01267  Uiso   1.00
C17    C     0.21030   0.53120   0.98790   0.01267  Uiso   1.00
C18    C     0.18140   0.44070   0.17570   0.01267  Uiso   1.00
C19    C     0.32090   0.51910   0.46880   0.01267  Uiso   1.00
C20    C     0.38350   0.54950   0.53830   0.01267  Uiso   1.00
C21    C     0.86310   0.42860   0.10390   0.01267  Uiso   1.00
C22    C     0.92180   0.53830   0.91220   0.01267  Uiso   1.00
C23    C     0.07820   0.46170   0.08780   0.01267  Uiso   1.00
C24    C     0.83400   0.91220   0.54950   0.01267  Uiso   1.00
O1     O     0.66600   0.73660   0.64480   0.01267  Uiso   1.00
O2     O     0.91470   0.19200   0.43950   0.01267  Uiso   1.00
O3     O     0.35420   0.43950   0.36850   0.01267  Uiso   1.00
O4     O     0.33400   0.26340   0.35520   0.01267  Uiso   1.00
O5     O     0.52610   0.15560   0.37310   0.01267  Uiso   1.00
O6     O     0.47390   0.84440   0.62690   0.01267  Uiso   1.00
O7     O     0.62950   0.52870   0.84440   0.01267  Uiso   1.00
O8     O     0.92940   0.61860   0.73660   0.01267  Uiso   1.00
O9     O     0.37050   0.47130   0.15560   0.01267  Uiso   1.00
O10    O     0.27730   0.63150   0.80800   0.01267  Uiso   1.00
O11    O     0.08530   0.80800   0.56050   0.01267  Uiso   1.00
O12    O     0.10080   0.62690   0.52870   0.01267  Uiso   1.00
O13    O     0.64580   0.56050   0.63150   0.01267  Uiso   1.00
O14    O     0.68920   0.35520   0.38140   0.01267  Uiso   1.00
O15    O     0.07060   0.38140   0.26340   0.01267  Uiso   1.00
O16    O     0.89920   0.37310   0.47130   0.01267  Uiso   1.00
O17    O     0.31080   0.64480   0.61860   0.01267  Uiso   1.00
O18    O     0.72270   0.36850   0.19200   0.01267  Uiso   1.00
