data_POKSIT_freeONLY
_audit_creation_date              2015-10-16
_audit_creation_method            'Materials Studio'
_symmetry_space_group_name_H-M    'P1'
_symmetry_Int_Tables_number       1
_symmetry_cell_setting            triclinic
loop_
_symmetry_equiv_pos_as_xyz
  x,y,z
_cell_length_a                    6.0408
_cell_length_b                    12.3324
_cell_length_c                    23.5770
_cell_angle_alpha                 90.0000
_cell_angle_beta                  90.0000
_cell_angle_gamma                 94.1104
loop_
_atom_site_label
_atom_site_type_symbol
_atom_site_fract_x
_atom_site_fract_y
_atom_site_fract_z
_atom_site_U_iso_or_equiv
_atom_site_adp_type
_atom_site_occupancy
Tm1    Tm    0.51017   0.60973   0.17145   0.01267  Uiso   1.00
Tm2    Tm    0.01017   0.10973   0.32855   0.01267  Uiso   1.00
Tm3    Tm    0.48983   0.39027   0.82855   0.01267  Uiso   1.00
Tm4    Tm    0.98983   0.89027   0.67145   0.01267  Uiso   1.00
Cu1    Cu    0.00000   0.00000   0.00000   0.01267  Uiso   1.00
Cu2    Cu    0.50000   0.50000   0.50000   0.01267  Uiso   1.00
H1     H     0.52950   0.27450   0.33580   0.01267  Uiso   1.00
H2     H     0.87240   0.33710   0.89410   0.01267  Uiso   1.00
H3     H     0.95130   0.62340   0.32850   0.01267  Uiso   1.00
H4     H     0.83170   0.18970   0.41780   0.01267  Uiso   1.00
H5     H     0.06140   0.90860   0.35480   0.01267  Uiso   1.00
H6     H     0.37160   0.40980   0.11320   0.01267  Uiso   1.00
H7     H     0.16830   0.81030   0.58220   0.01267  Uiso   1.00
H8     H     0.66830   0.31030   0.91780   0.01267  Uiso   1.00
H9     H     0.43860   0.59140   0.85480   0.01267  Uiso   1.00
H10    H     0.12760   0.66290   0.10590   0.01267  Uiso   1.00
H11    H     0.62840   0.59020   0.88680   0.01267  Uiso   1.00
H12    H     0.37240   0.83710   0.60590   0.01267  Uiso   1.00
H13    H     0.11240   0.07820   0.79210   0.01267  Uiso   1.00
H14    H     0.93860   0.09140   0.64520   0.01267  Uiso   1.00
H15    H     0.33170   0.68970   0.08220   0.01267  Uiso   1.00
H16    H     0.45130   0.12340   0.17150   0.01267  Uiso   1.00
H17    H     0.04870   0.37660   0.67150   0.01267  Uiso   1.00
H18    H     0.17480   0.14290   0.10370   0.01267  Uiso   1.00
H19    H     0.54870   0.87660   0.82850   0.01267  Uiso   1.00
H20    H     0.61240   0.57820   0.70790   0.01267  Uiso   1.00
H21    H     0.87160   0.90980   0.38680   0.01267  Uiso   1.00
H22    H     0.62760   0.16290   0.39410   0.01267  Uiso   1.00
H23    H     0.97050   0.22550   0.83580   0.01267  Uiso   1.00
H24    H     0.82520   0.85710   0.89630   0.01267  Uiso   1.00
H25    H     0.12840   0.09020   0.61320   0.01267  Uiso   1.00
H26    H     0.56140   0.40860   0.14520   0.01267  Uiso   1.00
H27    H     0.88760   0.92180   0.20790   0.01267  Uiso   1.00
H28    H     0.38760   0.42180   0.29210   0.01267  Uiso   1.00
H29    H     0.47050   0.72550   0.66420   0.01267  Uiso   1.00
H30    H     0.02950   0.77450   0.16420   0.01267  Uiso   1.00
H31    H     0.32520   0.35710   0.60370   0.01267  Uiso   1.00
H32    H     0.67480   0.64290   0.39630   0.01267  Uiso   1.00
C1     C     0.93290   0.57310   0.35780   0.01267  Uiso   1.00
C2     C     0.30240   0.16670   0.90730   0.01267  Uiso   1.00
C3     C     0.98510   0.51120   0.19640   0.01267  Uiso   1.00
C4     C     0.13430   0.56910   0.55620   0.01267  Uiso   1.00
C5     C     0.47310   0.59880   0.71840   0.01267  Uiso   1.00
C6     C     0.73540   0.91510   0.89880   0.01267  Uiso   1.00
C7     C     0.97310   0.09880   0.78160   0.01267  Uiso   1.00
C8     C     0.51490   0.98880   0.69640   0.01267  Uiso   1.00
C9     C     0.02690   0.90120   0.21840   0.01267  Uiso   1.00
C10    C     0.15550   0.57240   0.77000   0.01267  Uiso   1.00
C11    C     0.46750   0.07940   0.90430   0.01267  Uiso   1.00
C12    C     0.89250   0.19070   0.80620   0.01267  Uiso   1.00
C13    C     0.52690   0.40120   0.28160   0.01267  Uiso   1.00
C14    C     0.91110   0.32760   0.24800   0.01267  Uiso   1.00
C15    C     0.81640   0.35410   0.49210   0.01267  Uiso   1.00
C16    C     0.10750   0.80930   0.19380   0.01267  Uiso   1.00
C17    C     0.43290   0.07310   0.14220   0.01267  Uiso   1.00
C18    C     0.69760   0.83330   0.09270   0.01267  Uiso   1.00
C19    C     0.48510   0.01120   0.30360   0.01267  Uiso   1.00
C20    C     0.56710   0.92690   0.85780   0.01267  Uiso   1.00
C21    C     0.41110   0.82760   0.25200   0.01267  Uiso   1.00
C22    C     0.40260   0.23120   0.72210   0.01267  Uiso   1.00
C23    C     0.80240   0.66670   0.59270   0.01267  Uiso   1.00
C24    C     0.09740   0.26880   0.22210   0.01267  Uiso   1.00
C25    C     0.65550   0.07240   0.73000   0.01267  Uiso   1.00
C26    C     0.26460   0.08490   0.10120   0.01267  Uiso   1.00
C27    C     0.86570   0.43090   0.44380   0.01267  Uiso   1.00
C28    C     0.53250   0.92060   0.09570   0.01267  Uiso   1.00
C29    C     0.08890   0.67240   0.75200   0.01267  Uiso   1.00
C30    C     0.68360   0.14590   0.99210   0.01267  Uiso   1.00
C31    C     0.96750   0.57940   0.59570   0.01267  Uiso   1.00
C32    C     0.60750   0.30930   0.30620   0.01267  Uiso   1.00
C33    C     0.76460   0.58490   0.39880   0.01267  Uiso   1.00
C34    C     0.63430   0.06910   0.94380   0.01267  Uiso   1.00
C35    C     0.34450   0.92760   0.27000   0.01267  Uiso   1.00
C36    C     0.06710   0.42690   0.64220   0.01267  Uiso   1.00
C37    C     0.18360   0.64590   0.50790   0.01267  Uiso   1.00
C38    C     0.36570   0.93090   0.05620   0.01267  Uiso   1.00
C39    C     0.39250   0.69070   0.69380   0.01267  Uiso   1.00
C40    C     0.58890   0.17240   0.74800   0.01267  Uiso   1.00
C41    C     0.31640   0.85410   0.00790   0.01267  Uiso   1.00
C42    C     0.23540   0.41510   0.60120   0.01267  Uiso   1.00
C43    C     0.90260   0.73120   0.77790   0.01267  Uiso   1.00
C44    C     0.01490   0.48880   0.80360   0.01267  Uiso   1.00
C45    C     0.59740   0.76880   0.27790   0.01267  Uiso   1.00
C46    C     0.84450   0.42760   0.23000   0.01267  Uiso   1.00
C47    C     0.19760   0.33330   0.40730   0.01267  Uiso   1.00
C48    C     0.03250   0.42060   0.40430   0.01267  Uiso   1.00
N1     N     0.70250   0.22970   0.78774   0.01267  Uiso   1.00
N2     N     0.35630   0.54010   0.75652   0.01267  Uiso   1.00
N3     N     0.56470   0.99140   0.13960   0.01267  Uiso   1.00
N4     N     0.26540   0.48650   0.55943   0.01267  Uiso   1.00
N5     N     0.20250   0.72970   0.71226   0.01267  Uiso   1.00
N6     N     0.73460   0.51350   0.44057   0.01267  Uiso   1.00
N7     N     0.79750   0.27030   0.28774   0.01267  Uiso   1.00
N8     N     0.43530   0.00860   0.86040   0.01267  Uiso   1.00
N9     N     0.64370   0.45990   0.24348   0.01267  Uiso   1.00
N10    N     0.14370   0.95990   0.25652   0.01267  Uiso   1.00
N11    N     0.29750   0.77030   0.21226   0.01267  Uiso   1.00
N12    N     0.23460   0.01350   0.05943   0.01267  Uiso   1.00
N13    N     0.06470   0.49140   0.36040   0.01267  Uiso   1.00
N14    N     0.85630   0.04010   0.74348   0.01267  Uiso   1.00
N15    N     0.93530   0.50860   0.63960   0.01267  Uiso   1.00
N16    N     0.76540   0.98650   0.94057   0.01267  Uiso   1.00
O1     O     0.33680   0.30940   0.75086   0.01267  Uiso   1.00
O2     O     0.17800   0.88730   0.97121   0.01267  Uiso   1.00
O3     O     0.48850   0.44750   0.12320   0.01267  Uiso   1.00
O4     O     0.18790   0.52170   0.20657   0.01267  Uiso   1.00
O5     O     0.74550   0.36020   0.90043   0.01267  Uiso   1.00
O6     O     0.83680   0.80940   0.74914   0.01267  Uiso   1.00
O7     O     0.33890   0.24740   0.87470   0.01267  Uiso   1.00
O8     O     0.31210   0.97830   0.70657   0.01267  Uiso   1.00
O9     O     0.32200   0.61270   0.47121   0.01267  Uiso   1.00
O10    O     0.38110   0.06880   0.33738   0.01267  Uiso   1.00
O11    O     0.33630   0.20440   0.67401   0.01267  Uiso   1.00
O12    O     0.24550   0.86020   0.59957   0.01267  Uiso   1.00
O13    O     0.40730   0.76920   0.00510   0.01267  Uiso   1.00
O14    O     0.83630   0.70440   0.82599   0.01267  Uiso   1.00
O15    O     0.35810   0.34980   0.43870   0.01267  Uiso   1.00
O16    O     0.16110   0.25260   0.37470   0.01267  Uiso   1.00
O17    O     0.61890   0.93120   0.66262   0.01267  Uiso   1.00
O18    O     0.16320   0.19060   0.25086   0.01267  Uiso   1.00
O19    O     0.82200   0.11270   0.02879   0.01267  Uiso   1.00
O20    O     0.68790   0.02170   0.29343   0.01267  Uiso   1.00
O21    O     0.59270   0.23080   0.99490   0.01267  Uiso   1.00
O22    O     0.66370   0.79560   0.32599   0.01267  Uiso   1.00
O23    O     0.64190   0.65020   0.56130   0.01267  Uiso   1.00
O24    O     0.98850   0.94750   0.37680   0.01267  Uiso   1.00
O25    O     0.14190   0.15020   0.93870   0.01267  Uiso   1.00
O26    O     0.67800   0.38730   0.52879   0.01267  Uiso   1.00
O27    O     0.88110   0.56880   0.16262   0.01267  Uiso   1.00
O28    O     0.66110   0.75260   0.12530   0.01267  Uiso   1.00
O29    O     0.83890   0.74740   0.62530   0.01267  Uiso   1.00
O30    O     0.81210   0.47830   0.79343   0.01267  Uiso   1.00
O31    O     0.85810   0.84980   0.06130   0.01267  Uiso   1.00
O32    O     0.09270   0.73080   0.50510   0.01267  Uiso   1.00
O33    O     0.25450   0.63980   0.09957   0.01267  Uiso   1.00
O34    O     0.01150   0.05250   0.62320   0.01267  Uiso   1.00
O35    O     0.51150   0.55250   0.87680   0.01267  Uiso   1.00
O36    O     0.90730   0.26920   0.49490   0.01267  Uiso   1.00
O37    O     0.66320   0.69060   0.24914   0.01267  Uiso   1.00
O38    O     0.75450   0.13980   0.40043   0.01267  Uiso   1.00
O39    O     0.11890   0.43120   0.83738   0.01267  Uiso   1.00
O40    O     0.16370   0.29560   0.17401   0.01267  Uiso   1.00
