data_RIHXIR_charged
_audit_creation_date              2014-07-02
_audit_creation_method            'Materials Studio'
_symmetry_space_group_name_H-M    'P1'
_symmetry_Int_Tables_number       1
_symmetry_cell_setting            triclinic
loop_
_symmetry_equiv_pos_as_xyz
  x,y,z
_cell_length_a                    18.8058
_cell_length_b                    18.8058
_cell_length_c                    18.8058
_cell_angle_alpha                 60.0000
_cell_angle_beta                  60.0000
_cell_angle_gamma                 60.0000
loop_
_atom_site_label
_atom_site_type_symbol
_atom_site_fract_x
_atom_site_fract_y
_atom_site_fract_z
_atom_site_U_iso_or_equiv
_atom_site_adp_type
_atom_site_occupancy
Ca1    Ca    0.00000   0.00000   0.00000   0.01267  Uiso   1.00
Ca2    Ca    0.50000   0.50000  -0.00000   0.01267  Uiso   1.00
Ca3    Ca    0.50000   0.00000   0.50000   0.01267  Uiso   1.00
Ca4    Ca    0.50000   0.00000   0.00000   0.01267  Uiso   1.00
Ca5    Ca    0.00000   0.00000   0.50000   0.01267  Uiso   1.00
Ca6    Ca    0.50000   0.50000   0.50000   0.01267  Uiso   1.00
Ca7    Ca    0.00000   0.50000  -0.00000   0.01267  Uiso   1.00
Ca8    Ca    0.00000   0.50000   0.50000   0.01267  Uiso   1.00
Gd1    Gd    0.75000   0.25000   0.25000   0.01267  Uiso   1.00
Gd2    Gd    0.75000   0.25000   0.75000   0.01267  Uiso   1.00
Gd3    Gd    0.75000   0.75000   0.25000   0.01267  Uiso   1.00
Gd4    Gd    0.25000   0.25000   0.25000   0.01267  Uiso   1.00
Gd5    Gd    0.25000   0.75000   0.75000   0.01267  Uiso   1.00
Gd6    Gd    0.25000   0.75000   0.25000   0.01267  Uiso   1.00
Gd7    Gd    0.25000   0.25000   0.75000   0.01267  Uiso   1.00
Gd8    Gd    0.75000   0.75000   0.75000   0.01267  Uiso   1.00
H1     H     0.98370   0.15690   0.08050   0.01267  Uiso   1.00
H2     H     0.92230   0.20810   0.02430   0.01267  Uiso   1.00
H3     H     0.65690   0.48370   0.77890   0.01267  Uiso   1.00
H4     H     0.70810   0.42230   0.84530   0.01267  Uiso   1.00
H5     H     0.58050   0.77890   0.48370   0.01267  Uiso   1.00
H6     H     0.52430   0.84530   0.42230   0.01267  Uiso   1.00
H7     H     0.27890   0.08050   0.15690   0.01267  Uiso   1.00
H8     H     0.34530   0.02430   0.20810   0.01267  Uiso   1.00
H9     H     0.98370   0.08050   0.77890   0.01267  Uiso   1.00
H10    H     0.92230   0.02430   0.84530   0.01267  Uiso   1.00
H11    H     0.65690   0.77890   0.08050   0.01267  Uiso   1.00
H12    H     0.70810   0.84530   0.02430   0.01267  Uiso   1.00
H13    H     0.58050   0.48370   0.15690   0.01267  Uiso   1.00
H14    H     0.52430   0.42230   0.20810   0.01267  Uiso   1.00
H15    H     0.27890   0.15690   0.48370   0.01267  Uiso   1.00
H16    H     0.34530   0.20810   0.42230   0.01267  Uiso   1.00
H17    H     0.98370   0.77890   0.15690   0.01267  Uiso   1.00
H18    H     0.92230   0.84530   0.20810   0.01267  Uiso   1.00
H19    H     0.65690   0.08050   0.48370   0.01267  Uiso   1.00
H20    H     0.70810   0.02430   0.42230   0.01267  Uiso   1.00
H21    H     0.58050   0.15690   0.77890   0.01267  Uiso   1.00
H22    H     0.52430   0.20810   0.84530   0.01267  Uiso   1.00
H23    H     0.27890   0.48370   0.08050   0.01267  Uiso   1.00
H24    H     0.34530   0.42230   0.02430   0.01267  Uiso   1.00
H25    H     0.84310   0.01630   0.41950   0.01267  Uiso   1.00
H26    H     0.79190   0.07770   0.47570   0.01267  Uiso   1.00
H27    H     0.51630   0.34310   0.72110   0.01267  Uiso   1.00
H28    H     0.57770   0.29190   0.65470   0.01267  Uiso   1.00
H29    H     0.22110   0.41950   0.01630   0.01267  Uiso   1.00
H30    H     0.15470   0.47570   0.07770   0.01267  Uiso   1.00
H31    H     0.91950   0.72110   0.34310   0.01267  Uiso   1.00
H32    H     0.97570   0.65470   0.29190   0.01267  Uiso   1.00
H33    H     0.91950   0.01630   0.72110   0.01267  Uiso   1.00
H34    H     0.97570   0.07770   0.65470   0.01267  Uiso   1.00
H35    H     0.22110   0.34310   0.41950   0.01267  Uiso   1.00
H36    H     0.15470   0.29190   0.47570   0.01267  Uiso   1.00
H37    H     0.51630   0.41950   0.34310   0.01267  Uiso   1.00
H38    H     0.57770   0.47570   0.29190   0.01267  Uiso   1.00
H39    H     0.84310   0.72110   0.01630   0.01267  Uiso   1.00
H40    H     0.79190   0.65470   0.07770   0.01267  Uiso   1.00
H41    H     0.22110   0.01630   0.34310   0.01267  Uiso   1.00
H42    H     0.15470   0.07770   0.29190   0.01267  Uiso   1.00
H43    H     0.91950   0.34310   0.01630   0.01267  Uiso   1.00
H44    H     0.97570   0.29190   0.07770   0.01267  Uiso   1.00
H45    H     0.84310   0.41950   0.72110   0.01267  Uiso   1.00
H46    H     0.79190   0.47570   0.65470   0.01267  Uiso   1.00
H47    H     0.51630   0.72110   0.41950   0.01267  Uiso   1.00
H48    H     0.57770   0.65470   0.47570   0.01267  Uiso   1.00
H49    H     0.01630   0.84310   0.91950   0.01267  Uiso   1.00
H50    H     0.07770   0.79190   0.97570   0.01267  Uiso   1.00
H51    H     0.34310   0.51630   0.22110   0.01267  Uiso   1.00
H52    H     0.29190   0.57770   0.15470   0.01267  Uiso   1.00
H53    H     0.41950   0.22110   0.51630   0.01267  Uiso   1.00
H54    H     0.47570   0.15470   0.57770   0.01267  Uiso   1.00
H55    H     0.72110   0.91950   0.84310   0.01267  Uiso   1.00
H56    H     0.65470   0.97570   0.79190   0.01267  Uiso   1.00
H57    H     0.01630   0.91950   0.22110   0.01267  Uiso   1.00
H58    H     0.07770   0.97570   0.15470   0.01267  Uiso   1.00
H59    H     0.34310   0.22110   0.91950   0.01267  Uiso   1.00
H60    H     0.29190   0.15470   0.97570   0.01267  Uiso   1.00
H61    H     0.41950   0.51630   0.84310   0.01267  Uiso   1.00
H62    H     0.47570   0.57770   0.79190   0.01267  Uiso   1.00
H63    H     0.72110   0.84310   0.51630   0.01267  Uiso   1.00
H64    H     0.65470   0.79190   0.57770   0.01267  Uiso   1.00
H65    H     0.01630   0.22110   0.84310   0.01267  Uiso   1.00
H66    H     0.07770   0.15470   0.79190   0.01267  Uiso   1.00
H67    H     0.34310   0.91950   0.51630   0.01267  Uiso   1.00
H68    H     0.29190   0.97570   0.57770   0.01267  Uiso   1.00
H69    H     0.41950   0.84310   0.22110   0.01267  Uiso   1.00
H70    H     0.47570   0.79190   0.15470   0.01267  Uiso   1.00
H71    H     0.72110   0.51630   0.91950   0.01267  Uiso   1.00
H72    H     0.65470   0.57770   0.97570   0.01267  Uiso   1.00
H73    H     0.15690   0.98370   0.58050   0.01267  Uiso   1.00
H74    H     0.20810   0.92230   0.52430   0.01267  Uiso   1.00
H75    H     0.48370   0.65690   0.27890   0.01267  Uiso   1.00
H76    H     0.42230   0.70810   0.34530   0.01267  Uiso   1.00
H77    H     0.77890   0.58050   0.98370   0.01267  Uiso   1.00
H78    H     0.84530   0.52430   0.92230   0.01267  Uiso   1.00
H79    H     0.08050   0.27890   0.65690   0.01267  Uiso   1.00
H80    H     0.02430   0.34530   0.70810   0.01267  Uiso   1.00
H81    H     0.08050   0.98370   0.27890   0.01267  Uiso   1.00
H82    H     0.02430   0.92230   0.34530   0.01267  Uiso   1.00
H83    H     0.77890   0.65690   0.58050   0.01267  Uiso   1.00
H84    H     0.84530   0.70810   0.52430   0.01267  Uiso   1.00
H85    H     0.48370   0.58050   0.65690   0.01267  Uiso   1.00
H86    H     0.42230   0.52430   0.70810   0.01267  Uiso   1.00
H87    H     0.15690   0.27890   0.98370   0.01267  Uiso   1.00
H88    H     0.20810   0.34530   0.92230   0.01267  Uiso   1.00
H89    H     0.77890   0.98370   0.65690   0.01267  Uiso   1.00
H90    H     0.84530   0.92230   0.70810   0.01267  Uiso   1.00
H91    H     0.08050   0.65690   0.98370   0.01267  Uiso   1.00
H92    H     0.02430   0.70810   0.92230   0.01267  Uiso   1.00
H93    H     0.15690   0.58050   0.27890   0.01267  Uiso   1.00
H94    H     0.20810   0.52430   0.34530   0.01267  Uiso   1.00
H95    H     0.48370   0.27890   0.58050   0.01267  Uiso   1.00
H96    H     0.42230   0.34530   0.52430   0.01267  Uiso   1.00
C1     C     0.87970   0.11790   0.13690   0.01267  Uiso   1.00
C2     C     0.92350   0.18370   0.08310   0.01267  Uiso   1.00
C3     C     0.61790   0.37970   0.86550   0.01267  Uiso   1.00
C4     C     0.68370   0.42350   0.80970   0.01267  Uiso   1.00
C5     C     0.63690   0.86550   0.37970   0.01267  Uiso   1.00
C6     C     0.58310   0.80970   0.42350   0.01267  Uiso   1.00
C7     C     0.36550   0.13690   0.11790   0.01267  Uiso   1.00
C8     C     0.30970   0.08310   0.18370   0.01267  Uiso   1.00
C9     C     0.87970   0.13690   0.86550   0.01267  Uiso   1.00
C10    C     0.92350   0.08310   0.80970   0.01267  Uiso   1.00
C11    C     0.61790   0.86550   0.13690   0.01267  Uiso   1.00
C12    C     0.68370   0.80970   0.08310   0.01267  Uiso   1.00
C13    C     0.63690   0.37970   0.11790   0.01267  Uiso   1.00
C14    C     0.58310   0.42350   0.18370   0.01267  Uiso   1.00
C15    C     0.36550   0.11790   0.37970   0.01267  Uiso   1.00
C16    C     0.30970   0.18370   0.42350   0.01267  Uiso   1.00
C17    C     0.87970   0.86550   0.11790   0.01267  Uiso   1.00
C18    C     0.92350   0.80970   0.18370   0.01267  Uiso   1.00
C19    C     0.61790   0.13690   0.37970   0.01267  Uiso   1.00
C20    C     0.68370   0.08310   0.42350   0.01267  Uiso   1.00
C21    C     0.63690   0.11790   0.86550   0.01267  Uiso   1.00
C22    C     0.58310   0.18370   0.80970   0.01267  Uiso   1.00
C23    C     0.36550   0.37970   0.13690   0.01267  Uiso   1.00
C24    C     0.30970   0.42350   0.08310   0.01267  Uiso   1.00
C25    C     0.88210   0.12030   0.36310   0.01267  Uiso   1.00
C26    C     0.81630   0.07650   0.41690   0.01267  Uiso   1.00
C27    C     0.62030   0.38210   0.63450   0.01267  Uiso   1.00
C28    C     0.57650   0.31630   0.69030   0.01267  Uiso   1.00
C29    C     0.13450   0.36310   0.12030   0.01267  Uiso   1.00
C30    C     0.19030   0.41690   0.07650   0.01267  Uiso   1.00
C31    C     0.86310   0.63450   0.38210   0.01267  Uiso   1.00
C32    C     0.91690   0.69030   0.31630   0.01267  Uiso   1.00
C33    C     0.86310   0.12030   0.63450   0.01267  Uiso   1.00
C34    C     0.91690   0.07650   0.69030   0.01267  Uiso   1.00
C35    C     0.13450   0.38210   0.36310   0.01267  Uiso   1.00
C36    C     0.19030   0.31630   0.41690   0.01267  Uiso   1.00
C37    C     0.62030   0.36310   0.38210   0.01267  Uiso   1.00
C38    C     0.57650   0.41690   0.31630   0.01267  Uiso   1.00
C39    C     0.88210   0.63450   0.12030   0.01267  Uiso   1.00
C40    C     0.81630   0.69030   0.07650   0.01267  Uiso   1.00
C41    C     0.13450   0.12030   0.38210   0.01267  Uiso   1.00
C42    C     0.19030   0.07650   0.31630   0.01267  Uiso   1.00
C43    C     0.86310   0.38210   0.12030   0.01267  Uiso   1.00
C44    C     0.91690   0.31630   0.07650   0.01267  Uiso   1.00
C45    C     0.88210   0.36310   0.63450   0.01267  Uiso   1.00
C46    C     0.81630   0.41690   0.69030   0.01267  Uiso   1.00
C47    C     0.62030   0.63450   0.36310   0.01267  Uiso   1.00
C48    C     0.57650   0.69030   0.41690   0.01267  Uiso   1.00
C49    C     0.12030   0.88210   0.86310   0.01267  Uiso   1.00
C50    C     0.07650   0.81630   0.91690   0.01267  Uiso   1.00
C51    C     0.38210   0.62030   0.13450   0.01267  Uiso   1.00
C52    C     0.31630   0.57650   0.19030   0.01267  Uiso   1.00
C53    C     0.36310   0.13450   0.62030   0.01267  Uiso   1.00
C54    C     0.41690   0.19030   0.57650   0.01267  Uiso   1.00
C55    C     0.63450   0.86310   0.88210   0.01267  Uiso   1.00
C56    C     0.69030   0.91690   0.81630   0.01267  Uiso   1.00
C57    C     0.12030   0.86310   0.13450   0.01267  Uiso   1.00
C58    C     0.07650   0.91690   0.19030   0.01267  Uiso   1.00
C59    C     0.38210   0.13450   0.86310   0.01267  Uiso   1.00
C60    C     0.31630   0.19030   0.91690   0.01267  Uiso   1.00
C61    C     0.36310   0.62030   0.88210   0.01267  Uiso   1.00
C62    C     0.41690   0.57650   0.81630   0.01267  Uiso   1.00
C63    C     0.63450   0.88210   0.62030   0.01267  Uiso   1.00
C64    C     0.69030   0.81630   0.57650   0.01267  Uiso   1.00
C65    C     0.12030   0.13450   0.88210   0.01267  Uiso   1.00
C66    C     0.07650   0.19030   0.81630   0.01267  Uiso   1.00
C67    C     0.38210   0.86310   0.62030   0.01267  Uiso   1.00
C68    C     0.31630   0.91690   0.57650   0.01267  Uiso   1.00
C69    C     0.36310   0.88210   0.13450   0.01267  Uiso   1.00
C70    C     0.41690   0.81630   0.19030   0.01267  Uiso   1.00
C71    C     0.63450   0.62030   0.86310   0.01267  Uiso   1.00
C72    C     0.69030   0.57650   0.91690   0.01267  Uiso   1.00
C73    C     0.11790   0.87970   0.63690   0.01267  Uiso   1.00
C74    C     0.18370   0.92350   0.58310   0.01267  Uiso   1.00
C75    C     0.37970   0.61790   0.36550   0.01267  Uiso   1.00
C76    C     0.42350   0.68370   0.30970   0.01267  Uiso   1.00
C77    C     0.86550   0.63690   0.87970   0.01267  Uiso   1.00
C78    C     0.80970   0.58310   0.92350   0.01267  Uiso   1.00
C79    C     0.13690   0.36550   0.61790   0.01267  Uiso   1.00
C80    C     0.08310   0.30970   0.68370   0.01267  Uiso   1.00
C81    C     0.13690   0.87970   0.36550   0.01267  Uiso   1.00
C82    C     0.08310   0.92350   0.30970   0.01267  Uiso   1.00
C83    C     0.86550   0.61790   0.63690   0.01267  Uiso   1.00
C84    C     0.80970   0.68370   0.58310   0.01267  Uiso   1.00
C85    C     0.37970   0.63690   0.61790   0.01267  Uiso   1.00
C86    C     0.42350   0.58310   0.68370   0.01267  Uiso   1.00
C87    C     0.11790   0.36550   0.87970   0.01267  Uiso   1.00
C88    C     0.18370   0.30970   0.92350   0.01267  Uiso   1.00
C89    C     0.86550   0.87970   0.61790   0.01267  Uiso   1.00
C90    C     0.80970   0.92350   0.68370   0.01267  Uiso   1.00
C91    C     0.13690   0.61790   0.87970   0.01267  Uiso   1.00
C92    C     0.08310   0.68370   0.92350   0.01267  Uiso   1.00
C93    C     0.11790   0.63690   0.36550   0.01267  Uiso   1.00
C94    C     0.18370   0.58310   0.30970   0.01267  Uiso   1.00
C95    C     0.37970   0.36550   0.63690   0.01267  Uiso   1.00
C96    C     0.42350   0.30970   0.58310   0.01267  Uiso   1.00
O1     O     0.81360   0.12820   0.20280   0.01267  Uiso   1.00
O2     O     0.91140   0.04980   0.11800   0.01267  Uiso   1.00
O3     O     0.62820   0.31360   0.85540   0.01267  Uiso   1.00
O4     O     0.54980   0.41140   0.92080   0.01267  Uiso   1.00
O5     O     0.70280   0.85540   0.31360   0.01267  Uiso   1.00
O6     O     0.61800   0.92080   0.41140   0.01267  Uiso   1.00
O7     O     0.35540   0.20280   0.12820   0.01267  Uiso   1.00
O8     O     0.42080   0.11800   0.04980   0.01267  Uiso   1.00
O9     O     0.81360   0.20280   0.85540   0.01267  Uiso   1.00
O10    O     0.91140   0.11800   0.92080   0.01267  Uiso   1.00
O11    O     0.62820   0.85540   0.20280   0.01267  Uiso   1.00
O12    O     0.54980   0.92080   0.11800   0.01267  Uiso   1.00
O13    O     0.70280   0.31360   0.12820   0.01267  Uiso   1.00
O14    O     0.61800   0.41140   0.04980   0.01267  Uiso   1.00
O15    O     0.35540   0.12820   0.31360   0.01267  Uiso   1.00
O16    O     0.42080   0.04980   0.41140   0.01267  Uiso   1.00
O17    O     0.81360   0.85540   0.12820   0.01267  Uiso   1.00
O18    O     0.91140   0.92080   0.04980   0.01267  Uiso   1.00
O19    O     0.62820   0.20280   0.31360   0.01267  Uiso   1.00
O20    O     0.54980   0.11800   0.41140   0.01267  Uiso   1.00
O21    O     0.70280   0.12820   0.85540   0.01267  Uiso   1.00
O22    O     0.61800   0.04980   0.92080   0.01267  Uiso   1.00
O23    O     0.35540   0.31360   0.20280   0.01267  Uiso   1.00
O24    O     0.42080   0.41140   0.11800   0.01267  Uiso   1.00
O25    O     0.87180   0.18640   0.29720   0.01267  Uiso   1.00
O26    O     0.95020   0.08860   0.38200   0.01267  Uiso   1.00
O27    O     0.68640   0.37180   0.64460   0.01267  Uiso   1.00
O28    O     0.58860   0.45020   0.57920   0.01267  Uiso   1.00
O29    O     0.14460   0.29720   0.18640   0.01267  Uiso   1.00
O30    O     0.07920   0.38200   0.08860   0.01267  Uiso   1.00
O31    O     0.79720   0.64460   0.37180   0.01267  Uiso   1.00
O32    O     0.88200   0.57920   0.45020   0.01267  Uiso   1.00
O33    O     0.79720   0.18640   0.64460   0.01267  Uiso   1.00
O34    O     0.88200   0.08860   0.57920   0.01267  Uiso   1.00
O35    O     0.14460   0.37180   0.29720   0.01267  Uiso   1.00
O36    O     0.07920   0.45020   0.38200   0.01267  Uiso   1.00
O37    O     0.68640   0.29720   0.37180   0.01267  Uiso   1.00
O38    O     0.58860   0.38200   0.45020   0.01267  Uiso   1.00
O39    O     0.87180   0.64460   0.18640   0.01267  Uiso   1.00
O40    O     0.95020   0.57920   0.08860   0.01267  Uiso   1.00
O41    O     0.14460   0.18640   0.37180   0.01267  Uiso   1.00
O42    O     0.07920   0.08860   0.45020   0.01267  Uiso   1.00
O43    O     0.79720   0.37180   0.18640   0.01267  Uiso   1.00
O44    O     0.88200   0.45020   0.08860   0.01267  Uiso   1.00
O45    O     0.87180   0.29720   0.64460   0.01267  Uiso   1.00
O46    O     0.95020   0.38200   0.57920   0.01267  Uiso   1.00
O47    O     0.68640   0.64460   0.29720   0.01267  Uiso   1.00
O48    O     0.58860   0.57920   0.38200   0.01267  Uiso   1.00
O49    O     0.18640   0.87180   0.79720   0.01267  Uiso   1.00
O50    O     0.08860   0.95020   0.88200   0.01267  Uiso   1.00
O51    O     0.37180   0.68640   0.14460   0.01267  Uiso   1.00
O52    O     0.45020   0.58860   0.07920   0.01267  Uiso   1.00
O53    O     0.29720   0.14460   0.68640   0.01267  Uiso   1.00
O54    O     0.38200   0.07920   0.58860   0.01267  Uiso   1.00
O55    O     0.64460   0.79720   0.87180   0.01267  Uiso   1.00
O56    O     0.57920   0.88200   0.95020   0.01267  Uiso   1.00
O57    O     0.18640   0.79720   0.14460   0.01267  Uiso   1.00
O58    O     0.08860   0.88200   0.07920   0.01267  Uiso   1.00
O59    O     0.37180   0.14460   0.79720   0.01267  Uiso   1.00
O60    O     0.45020   0.07920   0.88200   0.01267  Uiso   1.00
O61    O     0.29720   0.68640   0.87180   0.01267  Uiso   1.00
O62    O     0.38200   0.58860   0.95020   0.01267  Uiso   1.00
O63    O     0.64460   0.87180   0.68640   0.01267  Uiso   1.00
O64    O     0.57920   0.95020   0.58860   0.01267  Uiso   1.00
O65    O     0.18640   0.14460   0.87180   0.01267  Uiso   1.00
O66    O     0.08860   0.07920   0.95020   0.01267  Uiso   1.00
O67    O     0.37180   0.79720   0.68640   0.01267  Uiso   1.00
O68    O     0.45020   0.88200   0.58860   0.01267  Uiso   1.00
O69    O     0.29720   0.87180   0.14460   0.01267  Uiso   1.00
O70    O     0.38200   0.95020   0.07920   0.01267  Uiso   1.00
O71    O     0.64460   0.68640   0.79720   0.01267  Uiso   1.00
O72    O     0.57920   0.58860   0.88200   0.01267  Uiso   1.00
O73    O     0.12820   0.81360   0.70280   0.01267  Uiso   1.00
O74    O     0.04980   0.91140   0.61800   0.01267  Uiso   1.00
O75    O     0.31360   0.62820   0.35540   0.01267  Uiso   1.00
O76    O     0.41140   0.54980   0.42080   0.01267  Uiso   1.00
O77    O     0.85540   0.70280   0.81360   0.01267  Uiso   1.00
O78    O     0.92080   0.61800   0.91140   0.01267  Uiso   1.00
O79    O     0.20280   0.35540   0.62820   0.01267  Uiso   1.00
O80    O     0.11800   0.42080   0.54980   0.01267  Uiso   1.00
O81    O     0.20280   0.81360   0.35540   0.01267  Uiso   1.00
O82    O     0.11800   0.91140   0.42080   0.01267  Uiso   1.00
O83    O     0.85540   0.62820   0.70280   0.01267  Uiso   1.00
O84    O     0.92080   0.54980   0.61800   0.01267  Uiso   1.00
O85    O     0.31360   0.70280   0.62820   0.01267  Uiso   1.00
O86    O     0.41140   0.61800   0.54980   0.01267  Uiso   1.00
O87    O     0.12820   0.35540   0.81360   0.01267  Uiso   1.00
O88    O     0.04980   0.42080   0.91140   0.01267  Uiso   1.00
O89    O     0.85540   0.81360   0.62820   0.01267  Uiso   1.00
O90    O     0.92080   0.91140   0.54980   0.01267  Uiso   1.00
O91    O     0.20280   0.62820   0.81360   0.01267  Uiso   1.00
O92    O     0.11800   0.54980   0.91140   0.01267  Uiso   1.00
O93    O     0.12820   0.70280   0.35540   0.01267  Uiso   1.00
O94    O     0.04980   0.61800   0.42080   0.01267  Uiso   1.00
O95    O     0.31360   0.35540   0.70280   0.01267  Uiso   1.00
O96    O     0.41140   0.42080   0.61800   0.01267  Uiso   1.00
O97    O     0.88060   0.25000   0.11940   0.01267  Uiso   1.00
O98    O     0.75000   0.38060   0.75000   0.01267  Uiso   1.00
O99    O     0.61940   0.75000   0.38060   0.01267  Uiso   1.00
O100   O     0.25000   0.11940   0.25000   0.01267  Uiso   1.00
O101   O     0.88060   0.11940   0.75000   0.01267  Uiso   1.00
O102   O     0.75000   0.75000   0.11940   0.01267  Uiso   1.00
O103   O     0.61940   0.38060   0.25000   0.01267  Uiso   1.00
O104   O     0.25000   0.25000   0.38060   0.01267  Uiso   1.00
O105   O     0.88060   0.75000   0.25000   0.01267  Uiso   1.00
O106   O     0.75000   0.11940   0.38060   0.01267  Uiso   1.00
O107   O     0.61940   0.25000   0.75000   0.01267  Uiso   1.00
O108   O     0.25000   0.38060   0.11940   0.01267  Uiso   1.00
O109   O     0.11940   0.75000   0.88060   0.01267  Uiso   1.00
O110   O     0.25000   0.61940   0.25000   0.01267  Uiso   1.00
O111   O     0.38060   0.25000   0.61940   0.01267  Uiso   1.00
O112   O     0.75000   0.88060   0.75000   0.01267  Uiso   1.00
O113   O     0.11940   0.88060   0.25000   0.01267  Uiso   1.00
O114   O     0.25000   0.25000   0.88060   0.01267  Uiso   1.00
O115   O     0.38060   0.61940   0.75000   0.01267  Uiso   1.00
O116   O     0.75000   0.75000   0.61940   0.01267  Uiso   1.00
O117   O     0.11940   0.25000   0.75000   0.01267  Uiso   1.00
O118   O     0.25000   0.88060   0.61940   0.01267  Uiso   1.00
O119   O     0.38060   0.75000   0.25000   0.01267  Uiso   1.00
O120   O     0.75000   0.61940   0.88060   0.01267  Uiso   1.00
