data_ROTTOL_freeONLY
_audit_creation_date              2015-10-16
_audit_creation_method            'Materials Studio'
_symmetry_space_group_name_H-M    'P1'
_symmetry_Int_Tables_number       1
_symmetry_cell_setting            triclinic
loop_
_symmetry_equiv_pos_as_xyz
  x,y,z
_cell_length_a                    11.3610
_cell_length_b                    15.5320
_cell_length_c                    16.2690
_cell_angle_alpha                 90.0000
_cell_angle_beta                  94.6610
_cell_angle_gamma                 90.0000
loop_
_atom_site_label
_atom_site_type_symbol
_atom_site_fract_x
_atom_site_fract_y
_atom_site_fract_z
_atom_site_U_iso_or_equiv
_atom_site_adp_type
_atom_site_occupancy
Zn1    Zn    0.02421   0.37401   0.53811   0.01267  Uiso   1.00
Zn2    Zn    0.97579   0.87401   0.96189   0.01267  Uiso   1.00
Zn3    Zn    0.97579   0.62599   0.46189   0.01267  Uiso   1.00
Zn4    Zn    0.02421   0.12599   0.03811   0.01267  Uiso   1.00
H1     H     0.98200   0.68600   0.72300   0.01267  Uiso   1.00
H2     H     0.76800   0.88300   0.84300   0.01267  Uiso   1.00
H3     H     0.37100   0.18100   0.30200   0.01267  Uiso   1.00
H4     H     0.60600   0.20400   0.94700   0.01267  Uiso   1.00
H5     H     0.23200   0.38300   0.65700   0.01267  Uiso   1.00
H6     H     0.17200   0.95900   0.86000   0.01267  Uiso   1.00
H7     H     0.98600   0.07800   0.55000   0.01267  Uiso   1.00
H8     H     0.43600   0.09900   0.16600   0.01267  Uiso   1.00
H9     H     0.58200   0.84700   0.07700   0.01267  Uiso   1.00
H10    H     0.82800   0.45900   0.64000   0.01267  Uiso   1.00
H11    H     0.41800   0.15300   0.92300   0.01267  Uiso   1.00
H12    H     0.39400   0.70400   0.55300   0.01267  Uiso   1.00
H13    H     0.77700   0.83600   0.07200   0.01267  Uiso   1.00
H14    H     0.39400   0.79600   0.05300   0.01267  Uiso   1.00
H15    H     0.18400   0.78900   0.05000   0.01267  Uiso   1.00
H16    H     0.22300   0.16400   0.92800   0.01267  Uiso   1.00
H17    H     0.60600   0.29600   0.44700   0.01267  Uiso   1.00
H18    H     0.81600   0.28900   0.45000   0.01267  Uiso   1.00
H19    H     0.94600   0.56500   0.25400   0.01267  Uiso   1.00
H20    H     0.56400   0.90100   0.83400   0.01267  Uiso   1.00
H21    H     0.81600   0.21100   0.95000   0.01267  Uiso   1.00
H22    H     0.01800   0.18600   0.77700   0.01267  Uiso   1.00
H23    H     0.01400   0.57800   0.95000   0.01267  Uiso   1.00
H24    H     0.76800   0.61700   0.34300   0.01267  Uiso   1.00
H25    H     0.23200   0.11700   0.15700   0.01267  Uiso   1.00
H26    H     0.01400   0.92200   0.45000   0.01267  Uiso   1.00
H27    H     0.82800   0.04100   0.14000   0.01267  Uiso   1.00
H28    H     0.62100   0.47400   0.63400   0.01267  Uiso   1.00
H29    H     0.56400   0.59900   0.33400   0.01267  Uiso   1.00
H30    H     0.17200   0.54100   0.36000   0.01267  Uiso   1.00
H31    H     0.94600   0.93500   0.75400   0.01267  Uiso   1.00
H32    H     0.01800   0.31400   0.27700   0.01267  Uiso   1.00
H33    H     0.41800   0.34700   0.42300   0.01267  Uiso   1.00
H34    H     0.98200   0.81400   0.22300   0.01267  Uiso   1.00
H35    H     0.37900   0.52600   0.36600   0.01267  Uiso   1.00
H36    H     0.43600   0.40100   0.66600   0.01267  Uiso   1.00
H37    H     0.22300   0.33600   0.42800   0.01267  Uiso   1.00
H38    H     0.37100   0.31900   0.80200   0.01267  Uiso   1.00
H39    H     0.98600   0.42200   0.05000   0.01267  Uiso   1.00
H40    H     0.62900   0.68100   0.19800   0.01267  Uiso   1.00
H41    H     0.18400   0.71100   0.55000   0.01267  Uiso   1.00
H42    H     0.62900   0.81900   0.69800   0.01267  Uiso   1.00
H43    H     0.77700   0.66400   0.57200   0.01267  Uiso   1.00
H44    H     0.58200   0.65300   0.57700   0.01267  Uiso   1.00
H45    H     0.05400   0.43500   0.74600   0.01267  Uiso   1.00
H46    H     0.05400   0.06500   0.24600   0.01267  Uiso   1.00
H47    H     0.37900   0.97400   0.86600   0.01267  Uiso   1.00
H48    H     0.62100   0.02600   0.13400   0.01267  Uiso   1.00
C1     C     0.22070   0.57860   0.40230   0.01267  Uiso   1.00
C2     C     0.99900   0.64820   0.84180   0.01267  Uiso   1.00
C3     C     0.98190   0.42400   0.10970   0.01267  Uiso   1.00
C4     C     0.28040   0.11370   0.10740   0.01267  Uiso   1.00
C5     C     0.71960   0.61370   0.39260   0.01267  Uiso   1.00
C6     C     0.29960   0.33350   0.83310   0.01267  Uiso   1.00
C7     C     0.38930   0.14650   0.97050   0.01267  Uiso   1.00
C8     C     0.38930   0.35350   0.47050   0.01267  Uiso   1.00
C9     C     0.96260   0.50970   0.23250   0.01267  Uiso   1.00
C10    C     0.03600   0.00360   0.35300   0.01267  Uiso   1.00
C11    C     0.22950   0.83520   0.01470   0.01267  Uiso   1.00
C12    C     0.00100   0.35180   0.15820   0.01267  Uiso   1.00
C13    C     0.58970   0.12210   0.04020   0.01267  Uiso   1.00
C14    C     0.40260   0.38940   0.61050   0.01267  Uiso   1.00
C15    C     0.58970   0.37790   0.54020   0.01267  Uiso   1.00
C16    C     0.98400   0.06400   0.78030   0.01267  Uiso   1.00
C17    C     0.34200   0.57910   0.40060   0.01267  Uiso   1.00
C18    C     0.98400   0.43600   0.28030   0.01267  Uiso   1.00
C19    C     0.35130   0.66700   0.51790   0.01267  Uiso   1.00
C20    C     0.80080   0.65890   0.15070   0.01267  Uiso   1.00
C21    C     0.28040   0.38630   0.60740   0.01267  Uiso   1.00
C22    C     0.26760   0.35260   0.47220   0.01267  Uiso   1.00
C23    C     0.41030   0.87790   0.95980   0.01267  Uiso   1.00
C24    C     0.64870   0.33300   0.48210   0.01267  Uiso   1.00
C25    C     0.01600   0.23470   0.61800   0.01267  Uiso   1.00
C26    C     0.54080   0.87510   0.96010   0.01267  Uiso   1.00
C27    C     0.00100   0.14820   0.65820   0.01267  Uiso   1.00
C28    C     0.65800   0.07910   0.09940   0.01267  Uiso   1.00
C29    C     0.03600   0.49640   0.85300   0.01267  Uiso   1.00
C30    C     0.70040   0.83350   0.66690   0.01267  Uiso   1.00
C31    C     0.03740   0.49030   0.76750   0.01267  Uiso   1.00
C32    C     0.41030   0.62210   0.45980   0.01267  Uiso   1.00
C33    C     0.98400   0.73470   0.88200   0.01267  Uiso   1.00
C34    C     0.98300   0.44220   0.37200   0.01267  Uiso   1.00
C35    C     0.70040   0.66650   0.16690   0.01267  Uiso   1.00
C36    C     0.03740   0.00970   0.26750   0.01267  Uiso   1.00
C37    C     0.59740   0.61060   0.38950   0.01267  Uiso   1.00
C38    C     0.26760   0.14740   0.97220   0.01267  Uiso   1.00
C39    C     0.71960   0.88630   0.89260   0.01267  Uiso   1.00
C40    C     0.61070   0.64650   0.52950   0.01267  Uiso   1.00
C41    C     0.01700   0.94220   0.12800   0.01267  Uiso   1.00
C42    C     0.92410   0.84630   0.62900   0.01267  Uiso   1.00
C43    C     0.73240   0.85260   0.02780   0.01267  Uiso   1.00
C44    C     0.45920   0.37510   0.53990   0.01267  Uiso   1.00
C45    C     0.61070   0.85350   0.02950   0.01267  Uiso   1.00
C46    C     0.45920   0.12490   0.03990   0.01267  Uiso   1.00
C47    C     0.01700   0.55780   0.62800   0.01267  Uiso   1.00
C48    C     0.77930   0.42140   0.59770   0.01267  Uiso   1.00
C49    C     0.98400   0.76530   0.38200   0.01267  Uiso   1.00
C50    C     0.01600   0.26530   0.11800   0.01267  Uiso   1.00
C51    C     0.98300   0.05780   0.87200   0.01267  Uiso   1.00
C52    C     0.77050   0.33520   0.48530   0.01267  Uiso   1.00
C53    C     0.65800   0.42090   0.59940   0.01267  Uiso   1.00
C54    C     0.96400   0.99640   0.64700   0.01267  Uiso   1.00
C55    C     0.19920   0.34110   0.84930   0.01267  Uiso   1.00
C56    C     0.22950   0.66480   0.51470   0.01267  Uiso   1.00
C57    C     0.99900   0.85180   0.34180   0.01267  Uiso   1.00
C58    C     0.98190   0.07600   0.60970   0.01267  Uiso   1.00
C59    C     0.22070   0.92140   0.90230   0.01267  Uiso   1.00
C60    C     0.29960   0.16650   0.33310   0.01267  Uiso   1.00
C61    C     0.96400   0.50360   0.14700   0.01267  Uiso   1.00
C62    C     0.77930   0.07860   0.09770   0.01267  Uiso   1.00
C63    C     0.00310   0.35740   0.24330   0.01267  Uiso   1.00
C64    C     0.96260   0.99030   0.73250   0.01267  Uiso   1.00
C65    C     0.64870   0.16700   0.98210   0.01267  Uiso   1.00
C66    C     0.07590   0.15370   0.37100   0.01267  Uiso   1.00
C67    C     0.19920   0.15890   0.34930   0.01267  Uiso   1.00
C68    C     0.99690   0.64260   0.75670   0.01267  Uiso   1.00
C69    C     0.01600   0.56400   0.71970   0.01267  Uiso   1.00
C70    C     0.01810   0.92400   0.39030   0.01267  Uiso   1.00
C71    C     0.92410   0.65370   0.12900   0.01267  Uiso   1.00
C72    C     0.07590   0.34630   0.87100   0.01267  Uiso   1.00
C73    C     0.01810   0.57600   0.89030   0.01267  Uiso   1.00
C74    C     0.35130   0.83300   0.01790   0.01267  Uiso   1.00
C75    C     0.99690   0.85740   0.25670   0.01267  Uiso   1.00
C76    C     0.77050   0.16480   0.98530   0.01267  Uiso   1.00
C77    C     0.59740   0.88940   0.88950   0.01267  Uiso   1.00
C78    C     0.73240   0.64740   0.52780   0.01267  Uiso   1.00
C79    C     0.01600   0.93600   0.21970   0.01267  Uiso   1.00
C80    C     0.40260   0.11060   0.11050   0.01267  Uiso   1.00
C81    C     0.34200   0.92090   0.90060   0.01267  Uiso   1.00
C82    C     0.00310   0.14260   0.74330   0.01267  Uiso   1.00
C83    C     0.54080   0.62490   0.46010   0.01267  Uiso   1.00
C84    C     0.80080   0.84110   0.65070   0.01267  Uiso   1.00
N1     N     0.21280   0.37100   0.53900   0.01267  Uiso   1.00
N2     N     0.16400   0.88160   0.95930   0.01267  Uiso   1.00
N3     N     0.16400   0.61840   0.45930   0.01267  Uiso   1.00
N4     N     0.78720   0.62900   0.46100   0.01267  Uiso   1.00
N5     N     0.83600   0.38160   0.54070   0.01267  Uiso   1.00
N6     N     0.78720   0.87100   0.96100   0.01267  Uiso   1.00
N7     N     0.21280   0.12900   0.03900   0.01267  Uiso   1.00
N8     N     0.83600   0.11840   0.04070   0.01267  Uiso   1.00
O1     O     0.03020   0.19925   0.16157   0.01267  Uiso   1.00
O2     O     0.01150   0.26194   0.04080   0.01267  Uiso   1.00
O3     O     0.98740   0.62405   0.58692   0.01267  Uiso   1.00
O4     O     0.01150   0.23806   0.54080   0.01267  Uiso   1.00
O5     O     0.03020   0.30075   0.66157   0.01267  Uiso   1.00
O6     O     0.98850   0.73806   0.95920   0.01267  Uiso   1.00
O7     O     0.04740   0.48806   0.59754   0.01267  Uiso   1.00
O8     O     0.05050   0.07160   0.40564   0.01267  Uiso   1.00
O9     O     0.05050   0.42840   0.90564   0.01267  Uiso   1.00
O10    O     0.04740   0.01194   0.09754   0.01267  Uiso   1.00
O11    O     0.94950   0.57160   0.09436   0.01267  Uiso   1.00
O12    O     0.96980   0.69925   0.33843   0.01267  Uiso   1.00
O13    O     0.94950   0.92840   0.59436   0.01267  Uiso   1.00
O14    O     0.95260   0.98806   0.90246   0.01267  Uiso   1.00
O15    O     0.01260   0.12405   0.91308   0.01267  Uiso   1.00
O16    O     0.98740   0.87595   0.08692   0.01267  Uiso   1.00
O17    O     0.01260   0.37595   0.41308   0.01267  Uiso   1.00
O18    O     0.95260   0.51194   0.40246   0.01267  Uiso   1.00
O19    O     0.96980   0.80075   0.83843   0.01267  Uiso   1.00
O20    O     0.98850   0.76194   0.45920   0.01267  Uiso   1.00
