data_YIVZIO_freeONLY
_audit_creation_date              2015-10-16
_audit_creation_method            'Materials Studio'
_symmetry_space_group_name_H-M    'P1'
_symmetry_Int_Tables_number       1
_symmetry_cell_setting            triclinic
loop_
_symmetry_equiv_pos_as_xyz
  x,y,z
_cell_length_a                    14.1680
_cell_length_b                    15.0910
_cell_length_c                    22.7520
_cell_angle_alpha                 85.3330
_cell_angle_beta                  75.1300
_cell_angle_gamma                 69.4260
loop_
_atom_site_label
_atom_site_type_symbol
_atom_site_fract_x
_atom_site_fract_y
_atom_site_fract_z
_atom_site_U_iso_or_equiv
_atom_site_adp_type
_atom_site_occupancy
Pr1    Pr    0.06871   0.16761   0.79786   0.01267  Uiso   1.00
Pr2    Pr    0.80555   0.20436   0.72980   0.01267  Uiso   1.00
Pr3    Pr    0.93129   0.83239   0.20214   0.01267  Uiso   1.00
Pr4    Pr    0.45800   0.28871   0.69591   0.01267  Uiso   1.00
Pr5    Pr    0.54200   0.71129   0.30409   0.01267  Uiso   1.00
Pr6    Pr    0.19445   0.79564   0.27020   0.01267  Uiso   1.00
Si1    Si    0.14189   0.32741   0.39237   0.01267  Uiso   1.00
Si2    Si    0.66869   0.78983   0.89306   0.01267  Uiso   1.00
Si3    Si    0.33131   0.21017   0.10694   0.01267  Uiso   1.00
Si4    Si    0.85811   0.67259   0.60763   0.01267  Uiso   1.00
H1     H     0.29930   0.13260   0.00330   0.01267  Uiso   1.00
H2     H     0.39870   0.01020   0.36020   0.01267  Uiso   1.00
H3     H     0.36330   0.31510   0.34280   0.01267  Uiso   1.00
H4     H     0.11970   0.21760   0.29600   0.01267  Uiso   1.00
H5     H     0.54560   0.58690   0.68090   0.01267  Uiso   1.00
H6     H     0.45390   0.34490   0.91360   0.01267  Uiso   1.00
H7     H     0.27370   0.90930   0.13590   0.01267  Uiso   1.00
H8     H     0.00670   0.80750   0.42120   0.01267  Uiso   1.00
H9     H     0.63400   0.67760   0.80370   0.01267  Uiso   1.00
H10    H     0.92140   0.46960   0.86350   0.01267  Uiso   1.00
H11    H     0.63120   0.99310   0.88700   0.01267  Uiso   1.00
H12    H     0.18580   0.63540   0.37340   0.01267  Uiso   1.00
H13    H     0.41930   0.32660   0.01760   0.01267  Uiso   1.00
H14    H     0.91870   0.39570   0.45130   0.01267  Uiso   1.00
H15    H     0.60930   0.86140   0.77980   0.01267  Uiso   1.00
H16    H     0.36600   0.32240   0.19630   0.01267  Uiso   1.00
H17    H     0.08020   0.41470   0.28160   0.01267  Uiso   1.00
H18    H     0.06920   0.49460   0.74520   0.01267  Uiso   1.00
H19    H     0.30100   0.47490   0.22750   0.01267  Uiso   1.00
H20    H     0.72630   0.09070   0.86410   0.01267  Uiso   1.00
H21    H     0.39070   0.13860   0.22020   0.01267  Uiso   1.00
H22    H     0.99330   0.19250   0.57880   0.01267  Uiso   1.00
H23    H     0.80810   0.62190   0.49970   0.01267  Uiso   1.00
H24    H     0.60130   0.98980   0.63980   0.01267  Uiso   1.00
H25    H     0.67130   0.84780   0.09990   0.01267  Uiso   1.00
H26    H     0.00870   0.13490   0.16800   0.01267  Uiso   1.00
H27    H     0.76590   0.48050   0.42250   0.01267  Uiso   1.00
H28    H     0.15040   0.37550   0.10120   0.01267  Uiso   1.00
H29    H     0.70070   0.86740   0.99670   0.01267  Uiso   1.00
H30    H     0.91980   0.58530   0.71840   0.01267  Uiso   1.00
H31    H     0.90140   0.47260   0.60180   0.01267  Uiso   1.00
H32    H     0.08130   0.60430   0.54870   0.01267  Uiso   1.00
H33    H     0.93080   0.50540   0.25480   0.01267  Uiso   1.00
H34    H     0.54610   0.65510   0.08640   0.01267  Uiso   1.00
H35    H     0.88030   0.78240   0.70400   0.01267  Uiso   1.00
H36    H     0.99130   0.86510   0.83200   0.01267  Uiso   1.00
H37    H     0.16750   0.33640   0.60120   0.01267  Uiso   1.00
H38    H     0.10610   0.23640   0.14990   0.01267  Uiso   1.00
H39    H     0.23410   0.51950   0.57750   0.01267  Uiso   1.00
H40    H     0.81200   0.93590   0.73580   0.01267  Uiso   1.00
H41    H     0.18800   0.06410   0.26420   0.01267  Uiso   1.00
H42    H     0.09860   0.52740   0.39820   0.01267  Uiso   1.00
H43    H     0.63670   0.68490   0.65720   0.01267  Uiso   1.00
H44    H     0.32450   0.16620   0.39630   0.01267  Uiso   1.00
H45    H     0.81420   0.36460   0.62660   0.01267  Uiso   1.00
H46    H     0.44470   0.87460   0.95300   0.01267  Uiso   1.00
H47    H     0.45440   0.41310   0.31910   0.01267  Uiso   1.00
H48    H     0.36880   0.00690   0.11300   0.01267  Uiso   1.00
H49    H     0.19190   0.37810   0.50030   0.01267  Uiso   1.00
H50    H     0.58070   0.67340   0.98240   0.01267  Uiso   1.00
H51    H     0.07860   0.53040   0.13650   0.01267  Uiso   1.00
H52    H     0.32870   0.15220   0.90010   0.01267  Uiso   1.00
H53    H     0.70160   0.02690   0.07690   0.01267  Uiso   1.00
H54    H     0.55530   0.12540   0.04700   0.01267  Uiso   1.00
H55    H     0.29840   0.97310   0.92310   0.01267  Uiso   1.00
H56    H     0.46540   0.96010   0.75170   0.01267  Uiso   1.00
H57    H     0.83250   0.66360   0.39880   0.01267  Uiso   1.00
H58    H     0.69900   0.52510   0.77250   0.01267  Uiso   1.00
H59    H     0.89390   0.76360   0.85010   0.01267  Uiso   1.00
H60    H     0.84960   0.62450   0.89880   0.01267  Uiso   1.00
H61    H     0.67550   0.83380   0.60370   0.01267  Uiso   1.00
H62    H     0.03020   0.22500   0.47490   0.01267  Uiso   1.00
H63    H     0.96980   0.77500   0.52510   0.01267  Uiso   1.00
H64    H     0.53460   0.03990   0.24830   0.01267  Uiso   1.00
C1     C     0.81800   0.47990   0.81360   0.01267  Uiso   1.00
C2     C     0.35890   0.22600   0.02100   0.01267  Uiso   1.00
C3     C     0.85810   0.37760   0.79260   0.01267  Uiso   1.00
C4     C     0.93646   0.83020   0.01302   0.01267  Uiso   1.00
C5     C     0.73130   0.95160   0.18140   0.01267  Uiso   1.00
C6     C     0.81920   0.60450   0.87310   0.01267  Uiso   1.00
C7     C     0.75150   0.86410   0.87070   0.01267  Uiso   1.00
C8     C     0.57710   0.69890   0.06850   0.01267  Uiso   1.00
C9     C     0.54280   0.73320   0.48920   0.01267  Uiso   1.00
C10    C     0.92800   0.48340   0.29440   0.01267  Uiso   1.00
C11    C     0.69030   0.63570   0.81700   0.01267  Uiso   1.00
C12    C     0.82580   0.82390   0.68900   0.01267  Uiso   1.00
C13    C     0.22420   0.40480   0.37230   0.01267  Uiso   1.00
C14    C     0.08090   0.11040   0.15770   0.01267  Uiso   1.00
C15    C     0.24090   0.97460   0.13760   0.01267  Uiso   1.00
C16    C     0.70430   0.85390   0.63020   0.01267  Uiso   1.00
C17    C     0.07200   0.51660   0.70560   0.01267  Uiso   1.00
C18    C     0.17420   0.17610   0.31100   0.01267  Uiso   1.00
C19    C     0.34160   0.05190   0.34760   0.01267  Uiso   1.00
C20    C     0.40250   0.28960   0.99390   0.01267  Uiso   1.00
C21    C     0.29670   0.03310   0.12490   0.01267  Uiso   1.00
C22    C     0.91910   0.88960   0.84230   0.01267  Uiso   1.00
C23    C     0.18200   0.52010   0.18640   0.01267  Uiso   1.00
C24    C     0.39740   0.24770   0.89600   0.01267  Uiso   1.00
C25    C     0.86210   0.68590   0.42380   0.01267  Uiso   1.00
C26    C     0.01480   0.39390   0.36970   0.01267  Uiso   1.00
C27    C     0.93450   0.76550   0.33460   0.01267  Uiso   1.00
C28    C     0.73050   0.54510   0.79740   0.01267  Uiso   1.00
C29    C     0.08110   0.26070   0.59970   0.01267  Uiso   1.00
C30    C     0.01700   0.42900   0.31040   0.01267  Uiso   1.00
C31    C     0.34680   0.92080   0.28710   0.01267  Uiso   1.00
C32    C     0.78320   0.91520   0.70960   0.01267  Uiso   1.00
C33    C     0.66870   0.82440   0.01480   0.01267  Uiso   1.00
C34    C     0.32670   0.37950   0.34930   0.01267  Uiso   1.00
C35    C     0.03620   0.22770   0.56280   0.01267  Uiso   1.00
C36    C     0.16710   0.49380   0.66270   0.01267  Uiso   1.00
C37    C     0.45320   0.11670   0.19090   0.01267  Uiso   1.00
C38    C     0.21680   0.08480   0.29040   0.01267  Uiso   1.00
C39    C     0.42290   0.30110   0.93150   0.01267  Uiso   1.00
C40    C     0.92140   0.41620   0.41150   0.01267  Uiso   1.00
C41    C     0.59750   0.71040   0.00610   0.01267  Uiso   1.00
C42    C     0.46600   0.71230   0.46110   0.01267  Uiso   1.00
C43    C     0.91890   0.73930   0.40030   0.01267  Uiso   1.00
C44    C     0.94230   0.75090   0.49970   0.01267  Uiso   1.00
C45    C     0.75910   0.02540   0.86240   0.01267  Uiso   1.00
C46    C     0.67330   0.62050   0.65070   0.01267  Uiso   1.00
C47    C     0.89340   0.13170   0.05759   0.01267  Uiso   1.00
C48    C     0.26750   0.33170   0.14279   0.01267  Uiso   1.00
C49    C     0.13790   0.31410   0.57620   0.01267  Uiso   1.00
C50    C     0.65840   0.94810   0.65240   0.01267  Uiso   1.00
C51    C     0.11640   0.30300   0.47560   0.01267  Uiso   1.00
C52    C     0.54400   0.85450   0.86970   0.01267  Uiso   1.00
C53    C     0.45720   0.26680   0.51080   0.01267  Uiso   1.00
C54    C     0.06550   0.23450   0.66540   0.01267  Uiso   1.00
C55    C     0.70330   0.96690   0.87510   0.01267  Uiso   1.00
C56    C     0.30970   0.36430   0.18300   0.01267  Uiso   1.00
C57    C     0.83290   0.50620   0.33730   0.01267  Uiso   1.00
C58    C     0.92800   0.05020   0.83210   0.01267  Uiso   1.00
C59    C     0.63860   0.04990   0.10570   0.01267  Uiso   1.00
C60    C     0.13700   0.48910   0.14790   0.01267  Uiso   1.00
C61    C     0.41440   0.26150   0.82870   0.01267  Uiso   1.00
C62    C     0.13240   0.01470   0.15320   0.01267  Uiso   1.00
C63    C     0.33110   0.53630   0.34230   0.01267  Uiso   1.00
C64    C     0.65320   0.07920   0.71290   0.01267  Uiso   1.00
C65    C     0.63280   0.02510   0.16540   0.01267  Uiso   1.00
C66    C     0.66890   0.46370   0.65770   0.01267  Uiso   1.00
C67    C     0.86300   0.51090   0.85210   0.01267  Uiso   1.00
C68    C     0.73280   0.57070   0.32160   0.01267  Uiso   1.00
C69    C     0.26720   0.42930   0.67840   0.01267  Uiso   1.00
C70    C     0.18080   0.39550   0.12690   0.01267  Uiso   1.00
C71    C     0.36720   0.97490   0.83460   0.01267  Uiso   1.00
C72    C     0.14190   0.62240   0.20740   0.01267  Uiso   1.00
C73    C     0.55570   0.37400   0.44790   0.01267  Uiso   1.00
C74    C     0.84560   0.66210   0.48510   0.01267  Uiso   1.00
C75    C     0.02555   0.81790   0.04113   0.01267  Uiso   1.00
C76    C     0.07860   0.58380   0.58850   0.01267  Uiso   1.00
C77    C     0.17010   0.50550   0.38180   0.01267  Uiso   1.00
C78    C     0.85980   0.82870   0.85390   0.01267  Uiso   1.00
C79    C     0.61230   0.39780   0.67720   0.01267  Uiso   1.00
C80    C     0.69810   0.97690   0.69190   0.01267  Uiso   1.00
C81    C     0.77810   0.42910   0.63290   0.01267  Uiso   1.00
C82    C     0.98300   0.57100   0.68960   0.01267  Uiso   1.00
C83    C     0.46100   0.94200   0.79210   0.01267  Uiso   1.00
C84    C     0.96380   0.77230   0.43720   0.01267  Uiso   1.00
C85    C     0.61730   0.56230   0.66560   0.01267  Uiso   1.00
C86    C     0.53900   0.05800   0.20790   0.01267  Uiso   1.00
C87    C     0.18690   0.83090   0.03513   0.01267  Uiso   1.00
C88    C     0.38270   0.43770   0.33440   0.01267  Uiso   1.00
C89    C     0.05770   0.24910   0.50030   0.01267  Uiso   1.00
C90    C     0.73250   0.66830   0.85721   0.01267  Uiso   1.00
C91    C     0.77580   0.59520   0.62770   0.01267  Uiso   1.00
C92    C     0.06354   0.16980   0.98698   0.01267  Uiso   1.00
C93    C     0.44430   0.62600   0.55210   0.01267  Uiso   1.00
C94    C     0.20870   0.20930   0.35297   0.01267  Uiso   1.00
C95    C     0.86760   0.98530   0.84680   0.01267  Uiso   1.00
C96    C     0.79130   0.79070   0.64703   0.01267  Uiso   1.00
C97    C     0.64110   0.77400   0.97900   0.01267  Uiso   1.00
C98    C     0.81310   0.16910   0.96487   0.01267  Uiso   1.00
C99    C     0.88360   0.69700   0.52440   0.01267  Uiso   1.00
C100   C     0.24850   0.13590   0.12930   0.01267  Uiso   1.00
C101   C     0.97445   0.18210   0.95887   0.01267  Uiso   1.00
C102   C     0.30190   0.02310   0.30810   0.01267  Uiso   1.00
C103   C     0.82970   0.46970   0.39460   0.01267  Uiso   1.00
C104   C     0.10660   0.86830   0.94241   0.01267  Uiso   1.00
C105   C     0.36140   0.95010   0.89430   0.01267  Uiso   1.00
C106   C     0.98520   0.60610   0.63030   0.01267  Uiso   1.00
C107   C     0.45600   0.14550   0.13030   0.01267  Uiso   1.00
C108   C     0.38770   0.60220   0.32280   0.01267  Uiso   1.00
C109   C     0.68570   0.32620   0.51840   0.01267  Uiso   1.00
C110   C     0.22190   0.57090   0.36710   0.01267  Uiso   1.00
C111   C     0.44930   0.89050   0.91230   0.01267  Uiso   1.00
C112   C     0.34940   0.18670   0.92330   0.01267  Uiso   1.00
C113   C     0.58560   0.73850   0.17130   0.01267  Uiso   1.00
C114   C     0.53400   0.28770   0.53890   0.01267  Uiso   1.00
C115   C     0.26950   0.45490   0.20260   0.01267  Uiso   1.00
C116   C     0.65060   0.81330   0.07670   0.01267  Uiso   1.00
C117   C     0.54680   0.88330   0.80910   0.01267  Uiso   1.00
C118   C     0.31430   0.67380   0.48160   0.01267  Uiso   1.00
C119   C     0.60260   0.75230   0.10400   0.01267  Uiso   1.00
C120   C     0.15440   0.33790   0.51490   0.01267  Uiso   1.00
C121   C     0.82990   0.49450   0.61820   0.01267  Uiso   1.00
C122   C     0.26870   0.04840   0.81860   0.01267  Uiso   1.00
C123   C     0.33130   0.17560   0.98520   0.01267  Uiso   1.00
C124   C     0.55070   0.10950   0.08770   0.01267  Uiso   1.00
C125   C     0.17030   0.53030   0.60540   0.01267  Uiso   1.00
C126   C     0.14020   0.17130   0.14610   0.01267  Uiso   1.00
C127   C     0.29570   0.14610   0.36980   0.01267  Uiso   1.00
C128   C     0.07200   0.94980   0.16790   0.01267  Uiso   1.00
N1     N     0.89658   0.15760   0.99421   0.01267  Uiso   1.00
N2     N     0.41920   0.65510   0.49280   0.01267  Uiso   1.00
N3     N     0.08470   0.94120   0.36130   0.01267  Uiso   1.00
N4     N     0.91530   0.05880   0.63870   0.01267  Uiso   1.00
N5     N     0.58080   0.34490   0.50720   0.01267  Uiso   1.00
N6     N     0.10342   0.84240   0.00579   0.01267  Uiso   1.00
O1     O     0.55160   0.25930   0.58945   0.01267  Uiso   1.00
O2     O     0.52820   0.69190   0.19748   0.01267  Uiso   1.00
O3     O     0.18980   0.07840   0.86074   0.01267  Uiso   1.00
O4     O     0.34270   0.68700   0.31238   0.01267  Uiso   1.00
O5     O     0.06580   0.95660   0.31265   0.01267  Uiso   1.00
O6     O     0.51500   0.42710   0.68316   0.01267  Uiso   1.00
O7     O     0.84640   0.13780   0.62512   0.01267  Uiso   1.00
O8     O     0.44840   0.74070   0.41055   0.01267  Uiso   1.00
O9     O     0.01510   0.78680   0.30981   0.01267  Uiso   1.00
O10    O     0.16300   0.27690   0.81424   0.01267  Uiso   1.00
O11    O     0.88390   0.96260   0.28080   0.01267  Uiso   1.00
O12    O     0.15360   0.86220   0.37488   0.01267  Uiso   1.00
O13    O     0.73030   0.92990   0.23488   0.01267  Uiso   1.00
O14    O     0.11610   0.03740   0.71920   0.01267  Uiso   1.00
O15    O     0.34950   0.19460   0.67633   0.01267  Uiso   1.00
O16    O     0.97460   0.20550   0.90563   0.01267  Uiso   1.00
O17    O     0.19440   0.64860   0.23134   0.01267  Uiso   1.00
O18    O     0.56910   0.12760   0.69817   0.01267  Uiso   1.00
O19    O     0.12780   0.23750   0.69516   0.01267  Uiso   1.00
O20    O     0.62550   0.77320   0.20214   0.01267  Uiso   1.00
O21    O     0.83700   0.72310   0.18576   0.01267  Uiso   1.00
O22    O     0.87220   0.76250   0.30484   0.01267  Uiso   1.00
O23    O     0.80560   0.35140   0.76866   0.01267  Uiso   1.00
O24    O     0.93420   0.04340   0.68735   0.01267  Uiso   1.00
O25    O     0.30000   0.88990   0.25894   0.01267  Uiso   1.00
O26    O     0.47180   0.30810   0.80252   0.01267  Uiso   1.00
O27    O     0.01740   0.02380   0.84520   0.01267  Uiso   1.00
O28    O     0.34480   0.39950   0.63491   0.01267  Uiso   1.00
O29    O     0.05310   0.67140   0.19911   0.01267  Uiso   1.00
O30    O     0.26730   0.40020   0.73041   0.01267  Uiso   1.00
O31    O     0.95530   0.99720   0.58660   0.01267  Uiso   1.00
O32    O     0.89460   0.13220   0.80822   0.01267  Uiso   1.00
O33    O     0.02540   0.79450   0.09437   0.01267  Uiso   1.00
O34    O     0.33830   0.73390   0.17587   0.01267  Uiso   1.00
O35    O     0.10540   0.86780   0.19178   0.01267  Uiso   1.00
O36    O     0.04470   0.00280   0.41340   0.01267  Uiso   1.00
O37    O     0.98490   0.21320   0.69019   0.01267  Uiso   1.00
O38    O     0.26970   0.07010   0.76512   0.01267  Uiso   1.00
O39    O     0.66170   0.26610   0.82413   0.01267  Uiso   1.00
O40    O     0.94690   0.32860   0.80089   0.01267  Uiso   1.00
O41    O     0.65520   0.60050   0.36509   0.01267  Uiso   1.00
O42    O     0.43090   0.87240   0.30183   0.01267  Uiso   1.00
O43    O     0.73270   0.59980   0.26959   0.01267  Uiso   1.00
O44    O     0.48500   0.57290   0.31684   0.01267  Uiso   1.00
O45    O     0.65050   0.80540   0.32367   0.01267  Uiso   1.00
O46    O     0.65730   0.31300   0.68762   0.01267  Uiso   1.00
O47    O     0.70000   0.11010   0.74106   0.01267  Uiso   1.00
O48    O     0.37450   0.22680   0.79786   0.01267  Uiso   1.00
O49    O     0.98260   0.97620   0.15480   0.01267  Uiso   1.00
O50    O     0.81020   0.92160   0.13926   0.01267  Uiso   1.00
