data_YOCSEQ_freeONLY
_audit_creation_date              2015-10-16
_audit_creation_method            'Materials Studio'
_symmetry_space_group_name_H-M    'P1'
_symmetry_Int_Tables_number       1
_symmetry_cell_setting            triclinic
loop_
_symmetry_equiv_pos_as_xyz
  x,y,z
_cell_length_a                    6.0867
_cell_length_b                    9.4830
_cell_length_c                    10.0960
_cell_angle_alpha                 88.6120
_cell_angle_beta                  74.3850
_cell_angle_gamma                 77.1320
loop_
_atom_site_label
_atom_site_type_symbol
_atom_site_fract_x
_atom_site_fract_y
_atom_site_fract_z
_atom_site_U_iso_or_equiv
_atom_site_adp_type
_atom_site_occupancy
Gd1    Gd    0.34520   0.94175   0.70299   0.01267  Uiso   1.00
Gd2    Gd    0.65480   0.05825   0.29701   0.01267  Uiso   1.00
H1     H     0.73300   0.11630   0.70460   0.01267  Uiso   1.00
H2     H     0.37840   0.96860   0.35140   0.01267  Uiso   1.00
H3     H     0.26700   0.88370   0.29540   0.01267  Uiso   1.00
H4     H     0.62160   0.03140   0.64860   0.01267  Uiso   1.00
H5     H     0.46420   0.23020   0.10350   0.01267  Uiso   1.00
H6     H     0.72450   0.82630   0.82990   0.01267  Uiso   1.00
H7     H     0.27150   0.44150   0.62620   0.01267  Uiso   1.00
H8     H     0.53580   0.76980   0.89650   0.01267  Uiso   1.00
H9     H     0.72850   0.55850   0.37380   0.01267  Uiso   1.00
H10    H     0.27550   0.17370   0.17010   0.01267  Uiso   1.00
C1     C     0.19200   0.72170   0.59220   0.01267  Uiso   1.00
C2     C     0.09300   0.60860   0.54470   0.01267  Uiso   1.00
C3     C     0.80800   0.27830   0.40780   0.01267  Uiso   1.00
C4     C     0.92700   0.64120   0.46610   0.01267  Uiso   1.00
C5     C     0.16100   0.20640   0.57750   0.01267  Uiso   1.00
C6     C     0.07300   0.04740   0.01660   0.01267  Uiso   1.00
C7     C     0.07300   0.35880   0.53390   0.01267  Uiso   1.00
C8     C     0.83800   0.53410   0.42430   0.01267  Uiso   1.00
C9     C     0.16200   0.46590   0.57570   0.01267  Uiso   1.00
C10    C     0.92700   0.95260   0.98340   0.01267  Uiso   1.00
C11    C     0.83900   0.79360   0.42250   0.01267  Uiso   1.00
C12    C     0.90700   0.39140   0.45530   0.01267  Uiso   1.00
O1     O     0.00460   0.10590   0.13920   0.01267  Uiso   1.00
O2     O     0.66350   0.87630   0.50210   0.01267  Uiso   1.00
O3     O     0.67340   0.31150   0.33110   0.01267  Uiso   1.00
O4     O     0.06290   0.16990   0.69330   0.01267  Uiso   1.00
O5     O     0.39200   0.20300   0.18070   0.01267  Uiso   1.00
O6     O     0.60800   0.79700   0.81930   0.01267  Uiso   1.00
O7     O     0.86520   0.14760   0.44210   0.01267  Uiso   1.00
O8     O     0.99540   0.89410   0.86080   0.01267  Uiso   1.00
O9     O     0.39820   0.90400   0.28980   0.01267  Uiso   1.00
O10    O     0.25280   0.06210   0.92620   0.01267  Uiso   1.00
O11    O     0.74720   0.93790   0.07380   0.01267  Uiso   1.00
O12    O     0.13480   0.85240   0.55790   0.01267  Uiso   1.00
O13    O     0.32660   0.68850   0.66890   0.01267  Uiso   1.00
O14    O     0.33650   0.12370   0.49790   0.01267  Uiso   1.00
O15    O     0.60180   0.09600   0.71020   0.01267  Uiso   1.00
O16    O     0.93710   0.83010   0.30670   0.01267  Uiso   1.00
