data_ABAVIJ_clean_PM
_symmetry_space_group_name_H-M	'P1'
_cell_length_a	9.806400
_cell_length_b	10.668500
_cell_length_c	13.971200
_cell_angle_alpha	95.302400
_cell_angle_beta	110.546000
_cell_angle_gamma	74.732900
_symmetry_Int_Tables_number 1

loop_
_symmetry_equiv_pos_as_xyz
'x,y,z'

loop_
_atom_site_label
_atom_site_type_symbol
_atom_site_fract_x
_atom_site_fract_y
_atom_site_fract_z
Co11	Co1	0.622430	0.880120	0.248820
Co21	Co2	0.874880	0.383950	0.747920
Co31	Co3	0.373610	0.380120	0.751180
Co41	Co4	0.126960	0.883950	0.252080
H11	H1	0.833000	0.767300	0.125800
H21	H2	0.842800	0.639800	0.983400
H31	H3	0.418000	0.614600	0.935600
H41	H4	0.423100	0.742000	0.080800
H51	H5	0.904700	0.490700	0.562200
H61	H6	0.761600	0.611900	0.415200
H71	H7	0.390700	0.636900	0.489400
H81	H8	0.545300	0.511000	0.633600
H91	H9	0.506200	0.166900	0.308400
H101	H10	0.504800	0.296300	0.451200
H111	H11	0.743500	0.982700	0.629600
H121	H12	0.728900	0.858100	0.484600
H131	H13	0.978900	0.406500	0.986200
H141	H14	0.113300	0.282200	0.132600
H151	H15	0.224000	0.980200	0.952600
H161	H16	0.067600	0.107400	0.811200
H171	H17	0.707200	0.267300	0.874200
H181	H18	0.859400	0.139800	0.016600
H191	H19	0.482400	0.114600	0.064400
H201	H20	0.342300	0.242000	0.919200
H211	H21	0.342500	0.990700	0.437800
H221	H22	0.346400	0.111900	0.584800
H231	H23	0.901300	0.136900	0.510600
H241	H24	0.911700	0.011000	0.366400
H251	H25	0.197800	0.666900	0.691600
H261	H26	0.053600	0.796300	0.548800
H271	H27	0.113900	0.482700	0.370400
H281	H28	0.244300	0.358100	0.515400
H291	H29	0.992700	0.906500	0.013800
H301	H30	0.980700	0.782200	0.867400
H311	H31	0.271400	0.480200	0.047400
H321	H32	0.256400	0.607400	0.188800
C11	C1	0.748180	0.735300	0.086960
C21	C2	0.754610	0.660200	0.001420
C31	C3	0.629450	0.615200	0.942300
C41	C4	0.504610	0.645100	0.973220
C51	C5	0.509190	0.720600	0.060380
C61	C6	0.631800	0.533500	0.847800
C71	C7	0.799310	0.521000	0.547220
C81	C8	0.714860	0.594000	0.459720
C91	C9	0.562350	0.640400	0.437900
C101	C10	0.496140	0.608300	0.503280
C111	C11	0.589390	0.533400	0.588980
C121	C12	0.465200	0.726100	0.346000
C131	C13	0.553250	0.128500	0.374300
C141	C14	0.552710	0.206200	0.459220
C151	C15	0.622390	0.151900	0.556180
C161	C16	0.691290	0.022000	0.564180
C171	C17	0.684810	0.948900	0.477420
C181	C18	0.619600	0.233300	0.650600
C191	C19	0.026280	0.317900	0.979160
C201	C20	0.108990	0.244800	0.067580
C211	C21	0.185600	0.116200	0.060000
C221	C22	0.171570	0.066500	0.961540
C231	C23	0.080680	0.144400	0.877360
C241	C24	0.280700	0.032300	0.152200
C251	C25	0.661220	0.235300	0.913040
C261	C26	0.753190	0.160200	0.998580
C271	C27	0.687150	0.115200	0.057700
C281	C28	0.531390	0.145100	0.026780
C291	C29	0.448810	0.220600	0.939620
C301	C30	0.784000	0.033500	0.152200
C311	C31	0.252090	0.021000	0.452780
C321	C32	0.255140	0.094000	0.540280
C331	C33	0.124450	0.140400	0.562100
C341	C34	0.992860	0.108300	0.496720
C351	C35	0.000410	0.033400	0.411020
C361	C36	0.119200	0.226100	0.654000
C371	C37	0.178950	0.628500	0.625700
C381	C38	0.093490	0.706200	0.540780
C391	C39	0.066210	0.651900	0.443820
C401	C40	0.127110	0.522000	0.435820
C411	C41	0.207390	0.448900	0.522580
C421	C42	0.969000	0.733300	0.349400
C431	C43	0.047120	0.817900	0.020840
C441	C44	0.041410	0.744800	0.932420
C451	C45	0.125600	0.616200	0.940000
C461	C46	0.210030	0.566500	0.038460
C471	C47	0.203320	0.644400	0.122640
C481	C48	0.128500	0.532300	0.847800
N11	N1	0.629440	0.764700	0.117080
N21	N2	0.738370	0.491300	0.611740
N31	N3	0.618910	0.999300	0.382220
N41	N4	0.009390	0.270500	0.884380
N51	N5	0.512360	0.264700	0.882920
N61	N6	0.126630	0.991300	0.388260
N71	N7	0.236690	0.499300	0.617780
N81	N8	0.125010	0.770500	0.115620
O11	O1	0.754240	0.503200	0.831880
O21	O2	0.509100	0.508800	0.793200
O31	O3	0.524830	0.749400	0.285860
O41	O4	0.328570	0.767200	0.336740
O51	O5	0.739310	0.251200	0.714220
O61	O6	0.490460	0.273000	0.658120
O71	O7	0.219390	0.022300	0.215780
O81	O8	0.412440	0.985400	0.156480
O91	O9	0.922360	0.003200	0.168120
O101	O10	0.715900	0.008800	0.206800
O111	O11	0.238970	0.249400	0.714140
O121	O12	0.991830	0.267200	0.663260
O131	O13	0.025090	0.751200	0.285780
O141	O14	0.832340	0.773000	0.341880
O151	O15	0.003610	0.522300	0.784220
O161	O16	0.255960	0.485400	0.843520
