data_ABESUX_clean_PM
_symmetry_space_group_name_H-M	'P1'
_cell_length_a	15.512000
_cell_length_b	13.795300
_cell_length_c	13.019900
_cell_angle_alpha	90.000000
_cell_angle_beta	90.000000
_cell_angle_gamma	90.000000
_symmetry_Int_Tables_number 1

loop_
_symmetry_equiv_pos_as_xyz
'x,y,z'

loop_
_atom_site_label
_atom_site_type_symbol
_atom_site_fract_x
_atom_site_fract_y
_atom_site_fract_z
U11	U1	0.244520	0.490130	0.437330
U21	U2	0.223090	0.238570	0.585770
P11	P1	0.222700	0.018200	0.175700
P21	P2	0.186700	0.242100	0.344500
O11	O1	0.197500	0.327800	0.420500
O21	O2	0.267300	0.093000	0.102700
O31	O3	0.210900	0.931800	0.101100
O41	O4	0.209000	0.153600	0.414100
O51	O5	0.281500	0.992200	0.264100
O61	O6	0.254100	0.251800	0.256800
O71	O7	0.095200	0.238700	0.306000
O81	O8	0.137400	0.053400	0.213500
U31	U3	0.744520	0.990130	0.437330
U41	U4	0.723090	0.738570	0.585770
P31	P3	0.722700	0.518200	0.175700
P41	P4	0.686700	0.742100	0.344500
O91	O9	0.697500	0.827800	0.420500
O101	O10	0.767300	0.593000	0.102700
O111	O11	0.710900	0.431800	0.101100
O121	O12	0.709000	0.653600	0.414100
O131	O13	0.781500	0.492200	0.264100
O141	O14	0.754100	0.751800	0.256800
O151	O15	0.595200	0.738700	0.306000
O161	O16	0.637400	0.553400	0.213500
U51	U5	0.755480	0.509870	0.937330
U61	U6	0.776910	0.761430	0.085770
P51	P5	0.777300	0.981800	0.675700
P61	P6	0.813300	0.757900	0.844500
O171	O17	0.802500	0.672200	0.920500
O181	O18	0.732700	0.907000	0.602700
O191	O19	0.789100	0.068200	0.601100
O201	O20	0.791000	0.846400	0.914100
O211	O21	0.718500	0.007800	0.764100
O221	O22	0.745900	0.748200	0.756800
O231	O23	0.904800	0.761300	0.806000
O241	O24	0.862600	0.946600	0.713500
U71	U7	0.255480	0.009870	0.937330
U81	U8	0.276910	0.261430	0.085770
P71	P7	0.277300	0.481800	0.675700
P81	P8	0.313300	0.257900	0.844500
O251	O25	0.302500	0.172200	0.920500
O261	O26	0.232700	0.407000	0.602700
O271	O27	0.289100	0.568200	0.601100
O281	O28	0.291000	0.346400	0.914100
O291	O29	0.218500	0.507800	0.764100
O301	O30	0.245900	0.248200	0.756800
O311	O31	0.404800	0.261300	0.806000
O321	O32	0.362600	0.446600	0.713500
U91	U9	0.244520	0.509870	0.937330
U101	U10	0.223090	0.761430	0.085770
P91	P9	0.222700	0.981800	0.675700
P101	P10	0.186700	0.757900	0.844500
O331	O33	0.197500	0.672200	0.920500
O341	O34	0.267300	0.907000	0.602700
O351	O35	0.210900	0.068200	0.601100
O361	O36	0.209000	0.846400	0.914100
O371	O37	0.281500	0.007800	0.764100
O381	O38	0.254100	0.748200	0.756800
O391	O39	0.095200	0.761300	0.806000
O401	O40	0.137400	0.946600	0.713500
U111	U11	0.744520	0.009870	0.937330
U121	U12	0.723090	0.261430	0.085770
P111	P11	0.722700	0.481800	0.675700
P121	P12	0.686700	0.257900	0.844500
O411	O41	0.697500	0.172200	0.920500
O421	O42	0.767300	0.407000	0.602700
O431	O43	0.710900	0.568200	0.601100
O441	O44	0.709000	0.346400	0.914100
O451	O45	0.781500	0.507800	0.764100
O461	O46	0.754100	0.248200	0.756800
O471	O47	0.595200	0.261300	0.806000
O481	O48	0.637400	0.446600	0.713500
U131	U13	0.755480	0.490130	0.437330
U141	U14	0.776910	0.238570	0.585770
P131	P13	0.777300	0.018200	0.175700
P141	P14	0.813300	0.242100	0.344500
O491	O49	0.802500	0.327800	0.420500
O501	O50	0.732700	0.093000	0.102700
O511	O51	0.789100	0.931800	0.101100
O521	O52	0.791000	0.153600	0.414100
O531	O53	0.718500	0.992200	0.264100
O541	O54	0.745900	0.251800	0.256800
O551	O55	0.904800	0.238700	0.306000
O561	O56	0.862600	0.053400	0.213500
U151	U15	0.255480	0.990130	0.437330
U161	U16	0.276910	0.738570	0.585770
P151	P15	0.277300	0.518200	0.175700
P161	P16	0.313300	0.742100	0.344500
O571	O57	0.302500	0.827800	0.420500
O581	O58	0.232700	0.593000	0.102700
O591	O59	0.289100	0.431800	0.101100
O601	O60	0.291000	0.653600	0.414100
O611	O61	0.218500	0.492200	0.264100
O621	O62	0.245900	0.751800	0.256800
O631	O63	0.404800	0.738700	0.306000
O641	O64	0.362600	0.553400	0.213500
U171	U17	0.000000	0.116120	0.243940
U181	U18	0.500000	0.616120	0.243940
U191	U19	0.000000	0.883880	0.743940
U201	U20	0.500000	0.383880	0.743940
