data_ABEXIQ_clean_PM
_symmetry_space_group_name_H-M	'P1'
_cell_length_a	11.036000
_cell_length_b	12.056000
_cell_length_c	19.561000
_cell_angle_alpha	90.000000
_cell_angle_beta	90.000000
_cell_angle_gamma	90.000000
_symmetry_Int_Tables_number 1

loop_
_symmetry_equiv_pos_as_xyz
'x,y,z'

loop_
_atom_site_label
_atom_site_type_symbol
_atom_site_fract_x
_atom_site_fract_y
_atom_site_fract_z
Ce11	Ce1	0.364310	0.840170	0.878790
Ce21	Ce2	0.882690	0.020710	0.664440
Ce31	Ce3	0.635690	0.159830	0.378790
Ce41	Ce4	0.117310	0.979290	0.164440
Ce51	Ce5	0.135690	0.340170	0.878790
Ce61	Ce6	0.617310	0.520710	0.664440
Ce71	Ce7	0.864310	0.659830	0.378790
Ce81	Ce8	0.382690	0.479290	0.164440
H11	H1	0.153400	0.989900	0.769900
H21	H2	0.268600	0.735800	0.611600
H31	H3	0.630100	0.899300	0.767700
H41	H4	0.493100	0.253200	0.778000
H51	H5	0.846600	0.010100	0.269900
H61	H6	0.731400	0.264200	0.111600
H71	H7	0.369900	0.100700	0.267700
H81	H8	0.506900	0.746800	0.278000
H91	H9	0.346600	0.489900	0.769900
H101	H10	0.231400	0.235800	0.611600
H111	H11	0.869900	0.399300	0.767700
H121	H12	0.006900	0.753200	0.778000
H131	H13	0.653400	0.510100	0.269900
H141	H14	0.768600	0.764200	0.111600
H151	H15	0.130100	0.600700	0.267700
H161	H16	0.993100	0.246800	0.278000
C11	C1	0.174100	0.935200	0.738500
C21	C2	0.137300	0.847500	0.636800
C31	C3	0.242700	0.785500	0.644900
C41	C4	0.307100	0.801000	0.704600
C51	C5	0.414500	0.725900	0.722400
C61	C6	0.054400	0.827200	0.576000
C71	C7	0.601700	0.971900	0.769000
C81	C8	0.625300	0.152800	0.739800
C91	C9	0.520100	0.180300	0.774800
C101	C10	0.458200	0.094500	0.804200
C111	C11	0.340000	0.113600	0.842500
C121	C12	0.703000	0.242700	0.705500
C131	C13	0.821500	0.115900	0.510200
C141	C14	0.700200	0.063400	0.532800
C151	C15	0.825900	0.064800	0.238500
C161	C16	0.862700	0.152500	0.136800
C171	C17	0.757300	0.214500	0.144900
C181	C18	0.692900	0.199000	0.204600
C191	C19	0.585500	0.274100	0.222400
C201	C20	0.945600	0.172800	0.076000
C211	C21	0.398300	0.028100	0.269000
C221	C22	0.374700	0.847200	0.239800
C231	C23	0.479900	0.819700	0.274800
C241	C24	0.541800	0.905500	0.304200
C251	C25	0.660000	0.886400	0.342500
C261	C26	0.297000	0.757300	0.205500
C271	C27	0.178500	0.884100	0.010200
C281	C28	0.299800	0.936600	0.032800
C291	C29	0.325900	0.435200	0.738500
C301	C30	0.362700	0.347500	0.636800
C311	C31	0.257300	0.285500	0.644900
C321	C32	0.192900	0.301000	0.704600
C331	C33	0.085500	0.225900	0.722400
C341	C34	0.445600	0.327200	0.576000
C351	C35	0.898300	0.471900	0.769000
C361	C36	0.874700	0.652800	0.739800
C371	C37	0.979900	0.680300	0.774800
C381	C38	0.041800	0.594500	0.804200
C391	C39	0.160000	0.613600	0.842500
C401	C40	0.797000	0.742700	0.705500
C411	C41	0.678500	0.615900	0.510200
C421	C42	0.799800	0.563400	0.532800
C431	C43	0.674100	0.564800	0.238500
C441	C44	0.637300	0.652500	0.136800
C451	C45	0.742700	0.714500	0.144900
C461	C46	0.807100	0.699000	0.204600
C471	C47	0.914500	0.774100	0.222400
C481	C48	0.554400	0.672800	0.076000
C491	C49	0.101700	0.528100	0.269000
C501	C50	0.125300	0.347200	0.239800
C511	C51	0.020100	0.319700	0.274800
C521	C52	0.958200	0.405500	0.304200
C531	C53	0.840000	0.386400	0.342500
C541	C54	0.203000	0.257300	0.205500
C551	C55	0.321500	0.384100	0.010200
C561	C56	0.200200	0.436600	0.032800
N11	N1	0.274200	0.875200	0.751000
N21	N2	0.101700	0.922000	0.683700
N31	N3	0.499500	0.990500	0.804100
N41	N4	0.666000	0.047300	0.736000
N51	N5	0.725800	0.124800	0.251000
N61	N6	0.898300	0.078000	0.183700
N71	N7	0.500500	0.009500	0.304100
N81	N8	0.334000	0.952700	0.236000
N91	N9	0.225800	0.375200	0.751000
N101	N10	0.398300	0.422000	0.683700
N111	N11	0.000500	0.490500	0.804100
N121	N12	0.834000	0.547300	0.736000
N131	N13	0.774200	0.624800	0.251000
N141	N14	0.601700	0.578000	0.183700
N151	N15	0.999500	0.509500	0.304100
N161	N16	0.166000	0.452700	0.236000
O11	O1	0.455700	0.736200	0.781600
O21	O2	0.449400	0.659800	0.677400
O31	O3	0.959500	0.888800	0.573600
O41	O4	0.086000	0.758300	0.535300
O51	O5	0.291200	0.033700	0.873300
O61	O6	0.295900	0.210300	0.836200
O71	O7	0.799100	0.211800	0.677100
O81	O8	0.665900	0.339100	0.708900
O91	O9	0.825700	0.151500	0.449100
O101	O10	0.907400	0.117700	0.552200
O111	O11	0.610800	0.077800	0.495300
O121	O12	0.704900	0.009300	0.587800
O131	O13	0.544300	0.263800	0.281600
O141	O14	0.550600	0.340200	0.177400
O151	O15	0.040500	0.111200	0.073600
O161	O16	0.914000	0.241700	0.035300
O171	O17	0.708800	0.966300	0.373300
O181	O18	0.704100	0.789700	0.336200
O191	O19	0.200900	0.788200	0.177100
O201	O20	0.334100	0.660900	0.208900
O211	O21	0.174300	0.848500	0.949100
O221	O22	0.092600	0.882300	0.052200
O231	O23	0.389200	0.922200	0.995300
O241	O24	0.295100	0.990700	0.087800
O251	O25	0.044300	0.236200	0.781600
O261	O26	0.050600	0.159800	0.677400
O271	O27	0.540500	0.388800	0.573600
O281	O28	0.414000	0.258300	0.535300
O291	O29	0.208800	0.533700	0.873300
O301	O30	0.204100	0.710300	0.836200
O311	O31	0.700900	0.711800	0.677100
O321	O32	0.834100	0.839100	0.708900
O331	O33	0.674300	0.651500	0.449100
O341	O34	0.592600	0.617700	0.552200
O351	O35	0.889200	0.577800	0.495300
O361	O36	0.795100	0.509300	0.587800
O371	O37	0.955700	0.763800	0.281600
O381	O38	0.949400	0.840200	0.177400
O391	O39	0.459500	0.611200	0.073600
O401	O40	0.586000	0.741700	0.035300
O411	O41	0.791200	0.466300	0.373300
O421	O42	0.795900	0.289700	0.336200
O431	O43	0.299100	0.288200	0.177100
O441	O44	0.165900	0.160900	0.208900
O451	O45	0.325700	0.348500	0.949100
O461	O46	0.407400	0.382300	0.052200
O471	O47	0.110800	0.422200	0.995300
O481	O48	0.204900	0.490700	0.087800
