data_ABEXEN_clean_PM
_symmetry_space_group_name_H-M	'P1'
_cell_length_a	25.098000
_cell_length_b	25.098000
_cell_length_c	28.446400
_cell_angle_alpha	90.000000
_cell_angle_beta	90.000000
_cell_angle_gamma	120.000000
_symmetry_Int_Tables_number 1

loop_
_symmetry_equiv_pos_as_xyz
'x,y,z'

loop_
_atom_site_label
_atom_site_type_symbol
_atom_site_fract_x
_atom_site_fract_y
_atom_site_fract_z
O11	O1	0.696870	0.161530	0.078910
O21	O2	0.636410	0.193270	0.051360
C11	C1	0.660750	0.182510	0.085390
C21	C2	0.646500	0.193400	0.134250
C31	C3	0.673300	0.181400	0.172420
H11	H1	0.702400	0.169300	0.167600
C41	C4	0.606400	0.214800	0.141900
H21	H2	0.589900	0.225000	0.116500
C51	C5	0.656300	0.187400	0.217980
H31	H3	0.673700	0.178500	0.243500
C61	C6	0.590400	0.221300	0.187370
H41	H4	0.563200	0.235800	0.192100
C71	C7	0.614200	0.206500	0.225570
O31	O3	0.838470	0.535340	0.078910
O41	O4	0.806730	0.443140	0.051360
C81	C8	0.817490	0.478240	0.085390
C91	C9	0.806600	0.453100	0.134250
C101	C10	0.818600	0.491900	0.172420
H51	H5	0.830700	0.533100	0.167600
C111	C11	0.785200	0.391600	0.141900
H61	H6	0.775000	0.364900	0.116500
C121	C12	0.812600	0.468900	0.217980
H71	H7	0.821500	0.495200	0.243500
C131	C13	0.778700	0.369100	0.187370
H81	H8	0.764200	0.327400	0.192100
C141	C14	0.793500	0.407700	0.225570
O51	O5	0.464660	0.303130	0.078910
O61	O6	0.556860	0.363590	0.051360
C151	C15	0.521760	0.339250	0.085390
C161	C16	0.546900	0.353500	0.134250
C171	C17	0.508100	0.326700	0.172420
H91	H9	0.466900	0.297600	0.167600
C181	C18	0.608400	0.393600	0.141900
H101	H10	0.635100	0.410100	0.116500
C191	C19	0.531100	0.343700	0.217980
H111	H11	0.504800	0.326300	0.243500
C201	C20	0.630900	0.409600	0.187370
H121	H12	0.672600	0.436800	0.192100
C211	C21	0.592300	0.385800	0.225570
O71	O7	0.303130	0.838470	0.078910
O81	O8	0.363590	0.806730	0.051360
C221	C22	0.339250	0.817490	0.085390
C231	C23	0.353500	0.806600	0.134250
C241	C24	0.326700	0.818600	0.172420
H131	H13	0.297600	0.830700	0.167600
C251	C25	0.393600	0.785200	0.141900
H141	H14	0.410100	0.775000	0.116500
C261	C26	0.343700	0.812600	0.217980
H151	H15	0.326300	0.821500	0.243500
C271	C27	0.409600	0.778700	0.187370
H161	H16	0.436800	0.764200	0.192100
C281	C28	0.385800	0.793500	0.225570
O91	O9	0.161530	0.464660	0.078910
O101	O10	0.193270	0.556860	0.051360
C291	C29	0.182510	0.521760	0.085390
C301	C30	0.193400	0.546900	0.134250
C311	C31	0.181400	0.508100	0.172420
H171	H17	0.169300	0.466900	0.167600
C321	C32	0.214800	0.608400	0.141900
H181	H18	0.225000	0.635100	0.116500
C331	C33	0.187400	0.531100	0.217980
H191	H19	0.178500	0.504800	0.243500
C341	C34	0.221300	0.630900	0.187370
H201	H20	0.235800	0.672600	0.192100
C351	C35	0.206500	0.592300	0.225570
O111	O11	0.535340	0.696870	0.078910
O121	O12	0.443140	0.636410	0.051360
C361	C36	0.478240	0.660750	0.085390
C371	C37	0.453100	0.646500	0.134250
C381	C38	0.491900	0.673300	0.172420
H211	H21	0.533100	0.702400	0.167600
C391	C39	0.391600	0.606400	0.141900
H221	H22	0.364900	0.589900	0.116500
C401	C40	0.468900	0.656300	0.217980
H231	H23	0.495200	0.673700	0.243500
C411	C41	0.369100	0.590400	0.187370
H241	H24	0.327400	0.563200	0.192100
C421	C42	0.407700	0.614200	0.225570
O131	O13	0.161530	0.696870	0.421090
O141	O14	0.193270	0.636410	0.448640
C431	C43	0.182510	0.660750	0.414610
C441	C44	0.193400	0.646500	0.365750
C451	C45	0.181400	0.673300	0.327580
H251	H25	0.169300	0.702400	0.332400
C461	C46	0.214800	0.606400	0.358100
H261	H26	0.225000	0.589900	0.383500
C471	C47	0.187400	0.656300	0.282020
H271	H27	0.178500	0.673700	0.256500
C481	C48	0.221300	0.590400	0.312630
H281	H28	0.235800	0.563200	0.307900
C491	C49	0.206500	0.614200	0.274430
O151	O15	0.535340	0.838470	0.421090
O161	O16	0.443140	0.806730	0.448640
C501	C50	0.478240	0.817490	0.414610
C511	C51	0.453100	0.806600	0.365750
C521	C52	0.491900	0.818600	0.327580
H291	H29	0.533100	0.830700	0.332400
C531	C53	0.391600	0.785200	0.358100
H301	H30	0.364900	0.775000	0.383500
C541	C54	0.468900	0.812600	0.282020
H311	H31	0.495200	0.821500	0.256500
C551	C55	0.369100	0.778700	0.312630
H321	H32	0.327400	0.764200	0.307900
C561	C56	0.407700	0.793500	0.274430
O171	O17	0.303130	0.464660	0.421090
O181	O18	0.363590	0.556860	0.448640
C571	C57	0.339250	0.521760	0.414610
C581	C58	0.353500	0.546900	0.365750
C591	C59	0.326700	0.508100	0.327580
H331	H33	0.297600	0.466900	0.332400
C601	C60	0.393600	0.608400	0.358100
H341	H34	0.410100	0.635100	0.383500
C611	C61	0.343700	0.531100	0.282020
H351	H35	0.326300	0.504800	0.256500
C621	C62	0.409600	0.630900	0.312630
H361	H36	0.436800	0.672600	0.307900
C631	C63	0.385800	0.592300	0.274430
O191	O19	0.838470	0.303130	0.421090
O201	O20	0.806730	0.363590	0.448640
C641	C64	0.817490	0.339250	0.414610
C651	C65	0.806600	0.353500	0.365750
C661	C66	0.818600	0.326700	0.327580
H371	H37	0.830700	0.297600	0.332400
C671	C67	0.785200	0.393600	0.358100
H381	H38	0.775000	0.410100	0.383500
C681	C68	0.812600	0.343700	0.282020
H391	H39	0.821500	0.326300	0.256500
C691	C69	0.778700	0.409600	0.312630
H401	H40	0.764200	0.436800	0.307900
C701	C70	0.793500	0.385800	0.274430
O211	O21	0.464660	0.161530	0.421090
O221	O22	0.556860	0.193270	0.448640
C711	C71	0.521760	0.182510	0.414610
C721	C72	0.546900	0.193400	0.365750
C731	C73	0.508100	0.181400	0.327580
H411	H41	0.466900	0.169300	0.332400
C741	C74	0.608400	0.214800	0.358100
H421	H42	0.635100	0.225000	0.383500
C751	C75	0.531100	0.187400	0.282020
H431	H43	0.504800	0.178500	0.256500
C761	C76	0.630900	0.221300	0.312630
H441	H44	0.672600	0.235800	0.307900
C771	C77	0.592300	0.206500	0.274430
O231	O23	0.696870	0.535340	0.421090
O241	O24	0.636410	0.443140	0.448640
C781	C78	0.660750	0.478240	0.414610
C791	C79	0.646500	0.453100	0.365750
C801	C80	0.673300	0.491900	0.327580
H451	H45	0.702400	0.533100	0.332400
C811	C81	0.606400	0.391600	0.358100
H461	H46	0.589900	0.364900	0.383500
C821	C82	0.656300	0.468900	0.282020
H471	H47	0.673700	0.495200	0.256500
C831	C83	0.590400	0.369100	0.312630
H481	H48	0.563200	0.327400	0.307900
C841	C84	0.614200	0.407700	0.274430
O251	O25	0.303130	0.838470	0.921090
O261	O26	0.363590	0.806730	0.948640
C851	C85	0.339250	0.817490	0.914610
C861	C86	0.353500	0.806600	0.865750
C871	C87	0.326700	0.818600	0.827580
H491	H49	0.297600	0.830700	0.832400
C881	C88	0.393600	0.785200	0.858100
H501	H50	0.410100	0.775000	0.883500
C891	C89	0.343700	0.812600	0.782020
H511	H51	0.326300	0.821500	0.756500
C901	C90	0.409600	0.778700	0.812630
H521	H52	0.436800	0.764200	0.807900
C911	C91	0.385800	0.793500	0.774430
O271	O27	0.161530	0.464660	0.921090
O281	O28	0.193270	0.556860	0.948640
C921	C92	0.182510	0.521760	0.914610
C931	C93	0.193400	0.546900	0.865750
C941	C94	0.181400	0.508100	0.827580
H531	H53	0.169300	0.466900	0.832400
C951	C95	0.214800	0.608400	0.858100
H541	H54	0.225000	0.635100	0.883500
C961	C96	0.187400	0.531100	0.782020
H551	H55	0.178500	0.504800	0.756500
C971	C97	0.221300	0.630900	0.812630
H561	H56	0.235800	0.672600	0.807900
C981	C98	0.206500	0.592300	0.774430
O291	O29	0.535340	0.696870	0.921090
O301	O30	0.443140	0.636410	0.948640
C991	C99	0.478240	0.660750	0.914610
C1001	C100	0.453100	0.646500	0.865750
C1011	C101	0.491900	0.673300	0.827580
H571	H57	0.533100	0.702400	0.832400
C1021	C102	0.391600	0.606400	0.858100
H581	H58	0.364900	0.589900	0.883500
C1031	C103	0.468900	0.656300	0.782020
H591	H59	0.495200	0.673700	0.756500
C1041	C104	0.369100	0.590400	0.812630
H601	H60	0.327400	0.563200	0.807900
C1051	C105	0.407700	0.614200	0.774430
O311	O31	0.696870	0.161530	0.921090
O321	O32	0.636410	0.193270	0.948640
C1061	C106	0.660750	0.182510	0.914610
C1071	C107	0.646500	0.193400	0.865750
C1081	C108	0.673300	0.181400	0.827580
H611	H61	0.702400	0.169300	0.832400
C1091	C109	0.606400	0.214800	0.858100
H621	H62	0.589900	0.225000	0.883500
C1101	C110	0.656300	0.187400	0.782020
H631	H63	0.673700	0.178500	0.756500
C1111	C111	0.590400	0.221300	0.812630
H641	H64	0.563200	0.235800	0.807900
C1121	C112	0.614200	0.206500	0.774430
O331	O33	0.838470	0.535340	0.921090
O341	O34	0.806730	0.443140	0.948640
C1131	C113	0.817490	0.478240	0.914610
C1141	C114	0.806600	0.453100	0.865750
C1151	C115	0.818600	0.491900	0.827580
H651	H65	0.830700	0.533100	0.832400
C1161	C116	0.785200	0.391600	0.858100
H661	H66	0.775000	0.364900	0.883500
C1171	C117	0.812600	0.468900	0.782020
H671	H67	0.821500	0.495200	0.756500
C1181	C118	0.778700	0.369100	0.812630
H681	H68	0.764200	0.327400	0.807900
C1191	C119	0.793500	0.407700	0.774430
O351	O35	0.464660	0.303130	0.921090
O361	O36	0.556860	0.363590	0.948640
C1201	C120	0.521760	0.339250	0.914610
C1211	C121	0.546900	0.353500	0.865750
C1221	C122	0.508100	0.326700	0.827580
H691	H69	0.466900	0.297600	0.832400
C1231	C123	0.608400	0.393600	0.858100
H701	H70	0.635100	0.410100	0.883500
C1241	C124	0.531100	0.343700	0.782020
H711	H71	0.504800	0.326300	0.756500
C1251	C125	0.630900	0.409600	0.812630
H721	H72	0.672600	0.436800	0.807900
C1261	C126	0.592300	0.385800	0.774430
O371	O37	0.838470	0.303130	0.578910
O381	O38	0.806730	0.363590	0.551360
C1271	C127	0.817490	0.339250	0.585390
C1281	C128	0.806600	0.353500	0.634250
C1291	C129	0.818600	0.326700	0.672420
H731	H73	0.830700	0.297600	0.667600
C1301	C130	0.785200	0.393600	0.641900
H741	H74	0.775000	0.410100	0.616500
C1311	C131	0.812600	0.343700	0.717980
H751	H75	0.821500	0.326300	0.743500
C1321	C132	0.778700	0.409600	0.687370
H761	H76	0.764200	0.436800	0.692100
C1331	C133	0.793500	0.385800	0.725570
O391	O39	0.464660	0.161530	0.578910
O401	O40	0.556860	0.193270	0.551360
C1341	C134	0.521760	0.182510	0.585390
C1351	C135	0.546900	0.193400	0.634250
C1361	C136	0.508100	0.181400	0.672420
H771	H77	0.466900	0.169300	0.667600
C1371	C137	0.608400	0.214800	0.641900
H781	H78	0.635100	0.225000	0.616500
C1381	C138	0.531100	0.187400	0.717980
H791	H79	0.504800	0.178500	0.743500
C1391	C139	0.630900	0.221300	0.687370
H801	H80	0.672600	0.235800	0.692100
C1401	C140	0.592300	0.206500	0.725570
O411	O41	0.696870	0.535340	0.578910
O421	O42	0.636410	0.443140	0.551360
C1411	C141	0.660750	0.478240	0.585390
C1421	C142	0.646500	0.453100	0.634250
C1431	C143	0.673300	0.491900	0.672420
H811	H81	0.702400	0.533100	0.667600
C1441	C144	0.606400	0.391600	0.641900
H821	H82	0.589900	0.364900	0.616500
C1451	C145	0.656300	0.468900	0.717980
H831	H83	0.673700	0.495200	0.743500
C1461	C146	0.590400	0.369100	0.687370
H841	H84	0.563200	0.327400	0.692100
C1471	C147	0.614200	0.407700	0.725570
O431	O43	0.161530	0.696870	0.578910
O441	O44	0.193270	0.636410	0.551360
C1481	C148	0.182510	0.660750	0.585390
C1491	C149	0.193400	0.646500	0.634250
C1501	C150	0.181400	0.673300	0.672420
H851	H85	0.169300	0.702400	0.667600
C1511	C151	0.214800	0.606400	0.641900
H861	H86	0.225000	0.589900	0.616500
C1521	C152	0.187400	0.656300	0.717980
H871	H87	0.178500	0.673700	0.743500
C1531	C153	0.221300	0.590400	0.687370
H881	H88	0.235800	0.563200	0.692100
C1541	C154	0.206500	0.614200	0.725570
O451	O45	0.535340	0.838470	0.578910
O461	O46	0.443140	0.806730	0.551360
C1551	C155	0.478240	0.817490	0.585390
C1561	C156	0.453100	0.806600	0.634250
C1571	C157	0.491900	0.818600	0.672420
H891	H89	0.533100	0.830700	0.667600
C1581	C158	0.391600	0.785200	0.641900
H901	H90	0.364900	0.775000	0.616500
C1591	C159	0.468900	0.812600	0.717980
H911	H91	0.495200	0.821500	0.743500
C1601	C160	0.369100	0.778700	0.687370
H921	H92	0.327400	0.764200	0.692100
C1611	C161	0.407700	0.793500	0.725570
O471	O47	0.303130	0.464660	0.578910
O481	O48	0.363590	0.556860	0.551360
C1621	C162	0.339250	0.521760	0.585390
C1631	C163	0.353500	0.546900	0.634250
C1641	C164	0.326700	0.508100	0.672420
H931	H93	0.297600	0.466900	0.667600
C1651	C165	0.393600	0.608400	0.641900
H941	H94	0.410100	0.635100	0.616500
C1661	C166	0.343700	0.531100	0.717980
H951	H95	0.326300	0.504800	0.743500
C1671	C167	0.409600	0.630900	0.687370
H961	H96	0.436800	0.672600	0.692100
C1681	C168	0.385800	0.592300	0.725570
In11	In1	0.687850	0.162940	0.000000
S11	S1	0.928130	0.303180	0.000000
O491	O49	0.068680	0.381320	0.000000
O501	O50	0.793060	0.202030	0.000000
O511	O51	0.072370	0.470080	0.000000
C1691	C169	0.801000	0.255400	0.000000
O521	O52	0.756120	0.264240	0.000000
C1701	C170	0.863400	0.309700	0.000000
C1711	C171	0.974500	0.381000	0.000000
C1721	C172	0.041600	0.412000	0.000000
C1731	C173	0.877500	0.369100	0.000000
H971	H97	0.848100	0.381400	0.000000
C1741	C174	0.939700	0.409400	0.000000
H981	H98	0.956800	0.451900	0.000000
In21	In2	0.837060	0.524910	0.000000
S21	S2	0.696820	0.624950	0.000000
O531	O53	0.618680	0.687360	0.000000
O541	O54	0.797970	0.591030	0.000000
O551	O55	0.529920	0.602290	0.000000
C1751	C175	0.744600	0.545600	0.000000
O561	O56	0.735760	0.491880	0.000000
C1761	C176	0.690300	0.553700	0.000000
C1771	C177	0.619000	0.593500	0.000000
C1781	C178	0.588000	0.629600	0.000000
C1791	C179	0.630900	0.508400	0.000000
H991	H99	0.618600	0.466700	0.000000
C1801	C180	0.590600	0.530300	0.000000
H1001	H100	0.548100	0.504900	0.000000
In31	In3	0.475090	0.312150	0.000000
S31	S3	0.375050	0.071870	0.000000
O571	O57	0.312640	0.931320	0.000000
O581	O58	0.408970	0.206940	0.000000
O591	O59	0.397710	0.927630	0.000000
C1811	C181	0.454400	0.199000	0.000000
O601	O60	0.508120	0.243880	0.000000
C1821	C182	0.446300	0.136600	0.000000
C1831	C183	0.406500	0.025500	0.000000
C1841	C184	0.370400	0.958400	0.000000
C1851	C185	0.491600	0.122500	0.000000
H1011	H101	0.533300	0.151900	0.000000
C1861	C186	0.469700	0.060300	0.000000
H1021	H102	0.495100	0.043200	0.000000
In41	In4	0.312150	0.837060	0.000000
S41	S4	0.071870	0.696820	0.000000
O611	O61	0.931320	0.618680	0.000000
O621	O62	0.206940	0.797970	0.000000
O631	O63	0.927630	0.529920	0.000000
C1871	C187	0.199000	0.744600	0.000000
O641	O64	0.243880	0.735760	0.000000
C1881	C188	0.136600	0.690300	0.000000
C1891	C189	0.025500	0.619000	0.000000
C1901	C190	0.958400	0.588000	0.000000
C1911	C191	0.122500	0.630900	0.000000
H1031	H103	0.151900	0.618600	0.000000
C1921	C192	0.060300	0.590600	0.000000
H1041	H104	0.043200	0.548100	0.000000
In51	In5	0.162940	0.475090	0.000000
S51	S5	0.303180	0.375050	0.000000
O651	O65	0.381320	0.312640	0.000000
O661	O66	0.202030	0.408970	0.000000
O671	O67	0.470080	0.397710	0.000000
C1931	C193	0.255400	0.454400	0.000000
O681	O68	0.264240	0.508120	0.000000
C1941	C194	0.309700	0.446300	0.000000
C1951	C195	0.381000	0.406500	0.000000
C1961	C196	0.412000	0.370400	0.000000
C1971	C197	0.369100	0.491600	0.000000
H1051	H105	0.381400	0.533300	0.000000
C1981	C198	0.409400	0.469700	0.000000
H1061	H106	0.451900	0.495100	0.000000
In61	In6	0.524910	0.687850	0.000000
S61	S6	0.624950	0.928130	0.000000
O691	O69	0.687360	0.068680	0.000000
O701	O70	0.591030	0.793060	0.000000
O711	O71	0.602290	0.072370	0.000000
C1991	C199	0.545600	0.801000	0.000000
O721	O72	0.491880	0.756120	0.000000
C2001	C200	0.553700	0.863400	0.000000
C2011	C201	0.593500	0.974500	0.000000
C2021	C202	0.629600	0.041600	0.000000
C2031	C203	0.508400	0.877500	0.000000
H1071	H107	0.466700	0.848100	0.000000
C2041	C204	0.530300	0.939700	0.000000
H1081	H108	0.504900	0.956800	0.000000
In71	In7	0.162940	0.687850	0.500000
S71	S7	0.303180	0.928130	0.500000
O731	O73	0.381320	0.068680	0.500000
O741	O74	0.202030	0.793060	0.500000
O751	O75	0.470080	0.072370	0.500000
C2051	C205	0.255400	0.801000	0.500000
O761	O76	0.264240	0.756120	0.500000
C2061	C206	0.309700	0.863400	0.500000
C2071	C207	0.381000	0.974500	0.500000
C2081	C208	0.412000	0.041600	0.500000
C2091	C209	0.369100	0.877500	0.500000
H1091	H109	0.381400	0.848100	0.500000
C2101	C210	0.409400	0.939700	0.500000
H1101	H110	0.451900	0.956800	0.500000
In81	In8	0.524910	0.837060	0.500000
S81	S8	0.624950	0.696820	0.500000
O771	O77	0.687360	0.618680	0.500000
O781	O78	0.591030	0.797970	0.500000
O791	O79	0.602290	0.529920	0.500000
C2111	C211	0.545600	0.744600	0.500000
O801	O80	0.491880	0.735760	0.500000
C2121	C212	0.553700	0.690300	0.500000
C2131	C213	0.593500	0.619000	0.500000
C2141	C214	0.629600	0.588000	0.500000
C2151	C215	0.508400	0.630900	0.500000
H1111	H111	0.466700	0.618600	0.500000
C2161	C216	0.530300	0.590600	0.500000
H1121	H112	0.504900	0.548100	0.500000
In91	In9	0.312150	0.475090	0.500000
S91	S9	0.071870	0.375050	0.500000
O811	O81	0.931320	0.312640	0.500000
O821	O82	0.206940	0.408970	0.500000
O831	O83	0.927630	0.397710	0.500000
C2171	C217	0.199000	0.454400	0.500000
O841	O84	0.243880	0.508120	0.500000
C2181	C218	0.136600	0.446300	0.500000
C2191	C219	0.025500	0.406500	0.500000
C2201	C220	0.958400	0.370400	0.500000
C2211	C221	0.122500	0.491600	0.500000
H1131	H113	0.151900	0.533300	0.500000
C2221	C222	0.060300	0.469700	0.500000
H1141	H114	0.043200	0.495100	0.500000
In101	In10	0.837060	0.312150	0.500000
S101	S10	0.696820	0.071870	0.500000
O851	O85	0.618680	0.931320	0.500000
O861	O86	0.797970	0.206940	0.500000
O871	O87	0.529920	0.927630	0.500000
C2231	C223	0.744600	0.199000	0.500000
O881	O88	0.735760	0.243880	0.500000
C2241	C224	0.690300	0.136600	0.500000
C2251	C225	0.619000	0.025500	0.500000
C2261	C226	0.588000	0.958400	0.500000
C2271	C227	0.630900	0.122500	0.500000
H1151	H115	0.618600	0.151900	0.500000
C2281	C228	0.590600	0.060300	0.500000
H1161	H116	0.548100	0.043200	0.500000
In111	In11	0.475090	0.162940	0.500000
S111	S11	0.375050	0.303180	0.500000
O891	O89	0.312640	0.381320	0.500000
O901	O90	0.408970	0.202030	0.500000
O911	O91	0.397710	0.470080	0.500000
C2291	C229	0.454400	0.255400	0.500000
O921	O92	0.508120	0.264240	0.500000
C2301	C230	0.446300	0.309700	0.500000
C2311	C231	0.406500	0.381000	0.500000
C2321	C232	0.370400	0.412000	0.500000
C2331	C233	0.491600	0.369100	0.500000
H1171	H117	0.533300	0.381400	0.500000
C2341	C234	0.469700	0.409400	0.500000
H1181	H118	0.495100	0.451900	0.500000
In121	In12	0.687850	0.524910	0.500000
S121	S12	0.928130	0.624950	0.500000
O931	O93	0.068680	0.687360	0.500000
O941	O94	0.793060	0.591030	0.500000
O951	O95	0.072370	0.602290	0.500000
C2351	C235	0.801000	0.545600	0.500000
O961	O96	0.756120	0.491880	0.500000
C2361	C236	0.863400	0.553700	0.500000
C2371	C237	0.974500	0.593500	0.500000
C2381	C238	0.041600	0.629600	0.500000
C2391	C239	0.877500	0.508400	0.500000
H1191	H119	0.848100	0.466700	0.500000
C2401	C240	0.939700	0.530300	0.500000
H1201	H120	0.956800	0.504900	0.500000
