data_ABEXUC_clean_PM
_symmetry_space_group_name_H-M	'P1'
_cell_length_a	10.989000
_cell_length_b	11.946000
_cell_length_c	19.402000
_cell_angle_alpha	90.000000
_cell_angle_beta	90.000000
_cell_angle_gamma	90.000000
_symmetry_Int_Tables_number 1

loop_
_symmetry_equiv_pos_as_xyz
'x,y,z'

loop_
_atom_site_label
_atom_site_type_symbol
_atom_site_fract_x
_atom_site_fract_y
_atom_site_fract_z
Nd11	Nd1	0.136720	0.341810	0.014380
Nd21	Nd2	0.617970	0.524000	0.228550
Nd31	Nd3	0.863280	0.658190	0.514380
Nd41	Nd4	0.382030	0.476000	0.728550
Nd51	Nd5	0.363280	0.841810	0.014380
Nd61	Nd6	0.882030	0.024000	0.228550
Nd71	Nd7	0.636720	0.158190	0.514380
Nd81	Nd8	0.117970	0.976000	0.728550
H11	H1	0.349300	0.493300	0.121800
H21	H2	0.231800	0.240300	0.282100
H31	H3	0.870100	0.398300	0.125700
H41	H4	0.005400	0.756400	0.114800
H51	H5	0.650700	0.506700	0.621800
H61	H6	0.768200	0.759700	0.782100
H71	H7	0.129900	0.601700	0.625700
H81	H8	0.994600	0.243600	0.614800
H91	H9	0.150700	0.993300	0.121800
H101	H10	0.268200	0.740300	0.282100
H111	H11	0.629900	0.898300	0.125700
H121	H12	0.494600	0.256400	0.114800
H131	H13	0.849300	0.006700	0.621800
H141	H14	0.731800	0.259700	0.782100
H151	H15	0.370100	0.101700	0.625700
H161	H16	0.505400	0.743600	0.614800
C11	C1	0.327900	0.438300	0.153400
C21	C2	0.364200	0.351800	0.255800
C31	C3	0.257700	0.289600	0.248100
C41	C4	0.193000	0.304000	0.188700
C51	C5	0.086200	0.229400	0.170400
C61	C6	0.447300	0.332600	0.316700
C71	C7	0.898200	0.471700	0.124000
C81	C8	0.873600	0.654900	0.153700
C91	C9	0.978600	0.682700	0.118000
C101	C10	0.041300	0.596100	0.087600
C111	C11	0.160500	0.616000	0.050100
C121	C12	0.796000	0.744600	0.187900
C131	C13	0.799200	0.564900	0.359900
C141	C14	0.677400	0.617400	0.383700
C151	C15	0.672100	0.561700	0.653400
C161	C16	0.635800	0.648200	0.755800
C171	C17	0.742300	0.710400	0.748100
C181	C18	0.807000	0.696000	0.688700
C191	C19	0.913800	0.770600	0.670400
C201	C20	0.552700	0.667400	0.816700
C211	C21	0.101800	0.528300	0.624000
C221	C22	0.126400	0.345100	0.653700
C231	C23	0.021400	0.317300	0.618000
C241	C24	0.958700	0.403900	0.587600
C251	C25	0.839500	0.384000	0.550100
C261	C26	0.204000	0.255400	0.687900
C271	C27	0.200800	0.435100	0.859900
C281	C28	0.322600	0.382600	0.883700
C291	C29	0.172100	0.938300	0.153400
C301	C30	0.135800	0.851800	0.255800
C311	C31	0.242300	0.789600	0.248100
C321	C32	0.307000	0.804000	0.188700
C331	C33	0.413800	0.729400	0.170400
C341	C34	0.052700	0.832600	0.316700
C351	C35	0.601800	0.971700	0.124000
C361	C36	0.626400	0.154900	0.153700
C371	C37	0.521400	0.182700	0.118000
C381	C38	0.458700	0.096100	0.087600
C391	C39	0.339500	0.116000	0.050100
C401	C40	0.704000	0.244600	0.187900
C411	C41	0.700800	0.064900	0.359900
C421	C42	0.822600	0.117400	0.383700
C431	C43	0.827900	0.061700	0.653400
C441	C44	0.864200	0.148200	0.755800
C451	C45	0.757700	0.210400	0.748100
C461	C46	0.693000	0.196000	0.688700
C471	C47	0.586200	0.270600	0.670400
C481	C48	0.947300	0.167400	0.816700
C491	C49	0.398200	0.028300	0.624000
C501	C50	0.373600	0.845100	0.653700
C511	C51	0.478600	0.817300	0.618000
C521	C52	0.541300	0.903900	0.587600
C531	C53	0.660500	0.884000	0.550100
C541	C54	0.296000	0.755400	0.687900
C551	C55	0.299200	0.935100	0.859900
C561	C56	0.177400	0.882600	0.883700
N11	N1	0.227600	0.378800	0.140000
N21	N2	0.399900	0.425700	0.208200
N31	N3	0.000500	0.490900	0.088700
N41	N4	0.832900	0.549200	0.157100
N51	N5	0.772400	0.621200	0.640000
N61	N6	0.600100	0.574300	0.708200
N71	N7	0.999500	0.509100	0.588700
N81	N8	0.167100	0.450800	0.657100
N91	N9	0.272400	0.878800	0.140000
N101	N10	0.100100	0.925700	0.208200
N111	N11	0.499500	0.990900	0.088700
N121	N12	0.667100	0.049200	0.157100
N131	N13	0.727600	0.121200	0.640000
N141	N14	0.899900	0.074300	0.708200
N151	N15	0.500500	0.009100	0.588700
N161	N16	0.332900	0.950800	0.657100
O11	O1	0.044700	0.238700	0.110060
O21	O2	0.050300	0.162200	0.215880
O31	O3	0.542900	0.391900	0.319070
O41	O4	0.414800	0.261700	0.358100
O51	O5	0.208400	0.534500	0.018600
O61	O6	0.205700	0.711400	0.056660
O71	O7	0.700500	0.713100	0.216510
O81	O8	0.834100	0.842700	0.183800
O91	O9	0.889300	0.579000	0.397600
O101	O10	0.795200	0.510900	0.304400
O111	O11	0.674100	0.651500	0.444580
O121	O12	0.591800	0.620400	0.340090
O131	O13	0.955300	0.761300	0.610060
O141	O14	0.949700	0.837800	0.715880
O151	O15	0.457100	0.608100	0.819070
O161	O16	0.585200	0.738300	0.858100
O171	O17	0.791600	0.465500	0.518600
O181	O18	0.794300	0.288600	0.556660
O191	O19	0.299500	0.286900	0.716510
O201	O20	0.165900	0.157300	0.683800
O211	O21	0.110700	0.421000	0.897600
O221	O22	0.204800	0.489100	0.804400
O231	O23	0.325900	0.348500	0.944580
O241	O24	0.408200	0.379600	0.840090
O251	O25	0.455300	0.738700	0.110060
O261	O26	0.449700	0.662200	0.215880
O271	O27	0.957100	0.891900	0.319070
O281	O28	0.085200	0.761700	0.358100
O291	O29	0.291600	0.034500	0.018600
O301	O30	0.294300	0.211400	0.056660
O311	O31	0.799500	0.213100	0.216510
O321	O32	0.665900	0.342700	0.183800
O331	O33	0.610700	0.079000	0.397600
O341	O34	0.704800	0.010900	0.304400
O351	O35	0.825900	0.151500	0.444580
O361	O36	0.908200	0.120400	0.340090
O371	O37	0.544700	0.261300	0.610060
O381	O38	0.550300	0.337800	0.715880
O391	O39	0.042900	0.108100	0.819070
O401	O40	0.914800	0.238300	0.858100
O411	O41	0.708400	0.965500	0.518600
O421	O42	0.705700	0.788600	0.556660
O431	O43	0.200500	0.786900	0.716510
O441	O44	0.334100	0.657300	0.683800
O451	O45	0.389300	0.921000	0.897600
O461	O46	0.295200	0.989100	0.804400
O471	O47	0.174100	0.848500	0.944580
O481	O48	0.091800	0.879600	0.840090
