data_ABEXOW_clean_PM
_symmetry_space_group_name_H-M	'P1'
_cell_length_a	11.008000
_cell_length_b	12.002000
_cell_length_c	19.473000
_cell_angle_alpha	90.000000
_cell_angle_beta	90.000000
_cell_angle_gamma	90.000000
_symmetry_Int_Tables_number 1

loop_
_symmetry_equiv_pos_as_xyz
'x,y,z'

loop_
_atom_site_label
_atom_site_type_symbol
_atom_site_fract_x
_atom_site_fract_y
_atom_site_fract_z
Pr11	Pr1	0.863800	0.658990	0.648380
Pr21	Pr2	0.382280	0.477170	0.862480
Pr31	Pr3	0.136200	0.341010	0.148380
Pr41	Pr4	0.617720	0.522830	0.362480
Pr51	Pr5	0.636200	0.158990	0.648380
Pr61	Pr6	0.117720	0.977170	0.862480
Pr71	Pr7	0.363800	0.841010	0.148380
Pr81	Pr8	0.882280	0.022830	0.362480
H11	H1	0.651100	0.508000	0.756600
H21	H2	0.768700	0.760600	0.915900
H31	H3	0.129600	0.601600	0.759700
H41	H4	0.994000	0.244800	0.748500
H51	H5	0.348900	0.492000	0.256600
H61	H6	0.231300	0.239400	0.415900
H71	H7	0.870400	0.398400	0.259700
H81	H8	0.006000	0.755200	0.248500
H91	H9	0.848900	0.008000	0.756600
H101	H10	0.731300	0.260600	0.915900
H111	H11	0.370400	0.101600	0.759700
H121	H12	0.506000	0.744800	0.748500
H131	H13	0.151100	0.992000	0.256600
H141	H14	0.268700	0.739400	0.415900
H151	H15	0.629600	0.898400	0.259700
H161	H16	0.494000	0.255200	0.248500
C11	C1	0.672600	0.562800	0.788100
C21	C2	0.636300	0.650400	0.889800
C31	C3	0.742500	0.711600	0.882000
C41	C4	0.807400	0.697300	0.822600
C51	C5	0.913800	0.771500	0.804300
C61	C6	0.553200	0.669300	0.950600
C71	C7	0.101700	0.528500	0.758200
C81	C8	0.126100	0.346300	0.787200
C91	C9	0.020800	0.318100	0.751900
C101	C10	0.958800	0.405200	0.722500
C111	C11	0.839400	0.385500	0.684500
C121	C12	0.203400	0.256900	0.822200
C131	C13	0.322300	0.383500	0.017800
C141	C14	0.200100	0.435500	0.993800
C151	C15	0.327400	0.437200	0.288100
C161	C16	0.363700	0.349600	0.389800
C171	C17	0.257500	0.288400	0.382000
C181	C18	0.192600	0.302700	0.322600
C191	C19	0.086200	0.228500	0.304300
C201	C20	0.446800	0.330700	0.450600
C211	C21	0.898300	0.471500	0.258200
C221	C22	0.873900	0.653700	0.287200
C231	C23	0.979200	0.681900	0.251900
C241	C24	0.041200	0.594800	0.222500
C251	C25	0.160600	0.614500	0.184500
C261	C26	0.796600	0.743100	0.322200
C271	C27	0.677700	0.616500	0.517800
C281	C28	0.799900	0.564500	0.493800
C291	C29	0.827400	0.062800	0.788100
C301	C30	0.863700	0.150400	0.889800
C311	C31	0.757500	0.211600	0.882000
C321	C32	0.692600	0.197300	0.822600
C331	C33	0.586200	0.271500	0.804300
C341	C34	0.946800	0.169300	0.950600
C351	C35	0.398300	0.028500	0.758200
C361	C36	0.373900	0.846300	0.787200
C371	C37	0.479200	0.818100	0.751900
C381	C38	0.541200	0.905200	0.722500
C391	C39	0.660600	0.885500	0.684500
C401	C40	0.296600	0.756900	0.822200
C411	C41	0.177700	0.883500	0.017800
C421	C42	0.299900	0.935500	0.993800
C431	C43	0.172600	0.937200	0.288100
C441	C44	0.136300	0.849600	0.389800
C451	C45	0.242500	0.788400	0.382000
C461	C46	0.307400	0.802700	0.322600
C471	C47	0.413800	0.728500	0.304300
C481	C48	0.053200	0.830700	0.450600
C491	C49	0.601700	0.971500	0.258200
C501	C50	0.626100	0.153700	0.287200
C511	C51	0.520800	0.181900	0.251900
C521	C52	0.458800	0.094800	0.222500
C531	C53	0.339400	0.114500	0.184500
C541	C54	0.703400	0.243100	0.322200
C551	C55	0.822300	0.116500	0.517800
C561	C56	0.700100	0.064500	0.493800
N11	N1	0.772600	0.622500	0.774900
N21	N2	0.601200	0.575900	0.842900
N31	N3	0.999600	0.509400	0.723100
N41	N4	0.166700	0.452500	0.791200
N51	N5	0.227400	0.377500	0.274900
N61	N6	0.398800	0.424100	0.342900
N71	N7	0.000400	0.490600	0.223100
N81	N8	0.833300	0.547500	0.291200
N91	N9	0.727400	0.122500	0.774900
N101	N10	0.898800	0.075900	0.842900
N111	N11	0.500400	0.009400	0.723100
N121	N12	0.333300	0.952500	0.791200
N131	N13	0.272600	0.877500	0.274900
N141	N14	0.101200	0.924100	0.342900
N151	N15	0.499600	0.990600	0.223100
N161	N16	0.666700	0.047500	0.291200
O11	O1	0.955300	0.762700	0.744400
O21	O2	0.949100	0.838500	0.849800
O31	O3	0.458300	0.608600	0.952900
O41	O4	0.584200	0.739900	0.991800
O51	O5	0.791400	0.465600	0.653200
O61	O6	0.794600	0.288900	0.690900
O71	O7	0.299500	0.286600	0.850300
O81	O8	0.165800	0.158800	0.817900
O91	O9	0.407800	0.381100	0.974700
O101	O10	0.326000	0.347800	0.078100
O111	O11	0.204000	0.489300	0.938400
O121	O12	0.110600	0.421400	0.031700
O131	O13	0.044700	0.237300	0.244400
O141	O14	0.050900	0.161500	0.349800
O151	O15	0.541700	0.391400	0.452900
O161	O16	0.415800	0.260100	0.491800
O171	O17	0.208600	0.534400	0.153200
O181	O18	0.205400	0.711100	0.190900
O191	O19	0.700500	0.713400	0.350300
O201	O20	0.834200	0.841200	0.317900
O211	O21	0.592200	0.618900	0.474700
O221	O22	0.674000	0.652200	0.578100
O231	O23	0.796000	0.510700	0.438400
O241	O24	0.889400	0.578600	0.531700
O251	O25	0.544700	0.262700	0.744400
O261	O26	0.550900	0.338500	0.849800
O271	O27	0.041700	0.108600	0.952900
O281	O28	0.915800	0.239900	0.991800
O291	O29	0.708600	0.965600	0.653200
O301	O30	0.705400	0.788900	0.690900
O311	O31	0.200500	0.786600	0.850300
O321	O32	0.334200	0.658800	0.817900
O331	O33	0.092200	0.881100	0.974700
O341	O34	0.174000	0.847800	0.078100
O351	O35	0.296000	0.989300	0.938400
O361	O36	0.389400	0.921400	0.031700
O371	O37	0.455300	0.737300	0.244400
O381	O38	0.449100	0.661500	0.349800
O391	O39	0.958300	0.891400	0.452900
O401	O40	0.084200	0.760100	0.491800
O411	O41	0.291400	0.034400	0.153200
O421	O42	0.294600	0.211100	0.190900
O431	O43	0.799500	0.213400	0.350300
O441	O44	0.665800	0.341200	0.317900
O451	O45	0.907800	0.118900	0.474700
O461	O46	0.826000	0.152200	0.578100
O471	O47	0.704000	0.010700	0.438400
O481	O48	0.610600	0.078600	0.531700
