data_ABIXOZ_clean_PM
_symmetry_space_group_name_H-M	'P1'
_cell_length_a	12.784600
_cell_length_b	12.831100
_cell_length_c	15.993700
_cell_angle_alpha	67.358000
_cell_angle_beta	67.224000
_cell_angle_gamma	63.053000
_symmetry_Int_Tables_number 1

loop_
_symmetry_equiv_pos_as_xyz
'x,y,z'

loop_
_atom_site_label
_atom_site_type_symbol
_atom_site_fract_x
_atom_site_fract_y
_atom_site_fract_z
Mo11	Mo1	0.661550	0.704360	0.156970
Mo21	Mo2	0.206360	0.158110	0.162840
Mo31	Mo3	0.200000	0.961180	0.158670
Mo41	Mo4	0.476230	0.161760	0.165030
Mo51	Mo5	0.461940	0.701150	0.154020
Mo61	Mo6	0.669470	0.967670	0.164360
Co11	Co1	0.033640	0.527290	0.383800
P11	P1	0.210710	0.285420	0.309990
P21	P2	0.794280	0.699810	0.305150
P31	P3	0.207040	0.702390	0.318380
P41	P4	0.407180	0.900260	0.271810
O11	O1	0.234900	0.723200	0.397500
O21	O2	0.726500	0.675000	0.408300
O31	O3	0.190100	0.215800	0.413500
O41	O4	0.364000	0.852800	0.375200
O51	O5	0.156800	0.420800	0.295900
O61	O6	0.754800	0.645700	0.255300
O71	O7	0.349000	0.249300	0.265400
O81	O8	0.931400	0.644100	0.290200
O91	O9	0.746300	0.831200	0.094200
O101	O10	0.757600	0.838200	0.262700
O111	O11	0.360500	0.040400	0.238300
O121	O12	0.547300	0.854200	0.234600
O131	O13	0.140000	0.825000	0.259500
O141	O14	0.327400	0.638700	0.255200
O151	O15	0.151800	0.248100	0.262800
O161	O16	0.335000	0.240000	0.099100
O171	O17	0.107100	0.392100	0.502700
O181	O18	0.130500	0.626200	0.369900
O191	O19	0.320000	0.824200	0.088500
O201	O20	0.357700	0.854100	0.222700
O211	O21	0.132100	0.043000	0.257700
O221	O22	0.547800	0.629800	0.251700
O231	O23	0.562500	0.054000	0.261200
O241	O24	0.557300	0.050600	0.081900
O251	O25	0.310100	0.050800	0.076800
O261	O26	0.551900	0.811800	0.073100
Mo71	Mo7	0.338450	0.295640	0.843030
Mo81	Mo8	0.793640	0.841890	0.837160
Mo91	Mo9	0.800000	0.038820	0.841330
Mo101	Mo10	0.523770	0.838240	0.834970
Mo111	Mo11	0.538060	0.298850	0.845980
Mo121	Mo12	0.330530	0.032330	0.835640
Co21	Co2	0.966360	0.472710	0.616200
P51	P5	0.789290	0.714580	0.690010
P61	P6	0.205720	0.300190	0.694850
P71	P7	0.792960	0.297610	0.681620
P81	P8	0.592820	0.099740	0.728190
O271	O27	0.765100	0.276800	0.602500
O281	O28	0.273500	0.325000	0.591700
O291	O29	0.809900	0.784200	0.586500
O301	O30	0.636000	0.147200	0.624800
O311	O31	0.843200	0.579200	0.704100
O321	O32	0.245200	0.354300	0.744700
O331	O33	0.651000	0.750700	0.734600
O341	O34	0.068600	0.355900	0.709800
O351	O35	0.253700	0.168800	0.905800
O361	O36	0.242400	0.161800	0.737300
O371	O37	0.639500	0.959600	0.761700
O381	O38	0.452700	0.145800	0.765400
O391	O39	0.860000	0.175000	0.740500
O401	O40	0.672600	0.361300	0.744800
O411	O41	0.848200	0.751900	0.737200
O421	O42	0.665000	0.760000	0.900900
O431	O43	0.892900	0.607900	0.497300
O441	O44	0.869500	0.373800	0.630100
O451	O45	0.680000	0.175800	0.911500
O461	O46	0.642300	0.145900	0.777300
O471	O47	0.867900	0.957000	0.742300
O481	O48	0.452200	0.370200	0.748300
O491	O49	0.437500	0.946000	0.738800
O501	O50	0.442700	0.949400	0.918100
O511	O51	0.689900	0.949200	0.923200
O521	O52	0.448100	0.188200	0.926900
Co31	Co3	0.500000	0.000000	0.000000
