data_ACALIB_clean_PM
_symmetry_space_group_name_H-M	'P1'
_cell_length_a	9.749400
_cell_length_b	11.048400
_cell_length_c	20.484500
_cell_angle_alpha	90.000000
_cell_angle_beta	90.000000
_cell_angle_gamma	108.898000
_symmetry_Int_Tables_number 1

loop_
_symmetry_equiv_pos_as_xyz
'x,y,z'

loop_
_atom_site_label
_atom_site_type_symbol
_atom_site_fract_x
_atom_site_fract_y
_atom_site_fract_z
Er11	Er1	0.300160	0.315220	0.965340
Er21	Er2	0.199840	0.684780	0.465340
Er31	Er3	0.699840	0.684780	0.034660
Er41	Er4	0.800160	0.315220	0.534660
H11	H1	0.750400	0.662800	0.343100
H21	H2	0.192800	0.293600	0.170800
H31	H3	0.992900	0.130900	0.207700
H41	H4	0.320300	0.366800	0.358100
H51	H5	0.771400	0.982300	0.185800
H61	H6	0.580400	0.551200	0.211900
H71	H7	0.389400	0.743900	0.248900
H81	H8	0.685400	0.947900	0.377700
H91	H9	0.749600	0.337200	0.843100
H101	H10	0.307200	0.706400	0.670800
H111	H11	0.507100	0.869100	0.707700
H121	H12	0.179700	0.633200	0.858100
H131	H13	0.728600	0.017700	0.685800
H141	H14	0.919600	0.448800	0.711900
H151	H15	0.110600	0.256100	0.748900
H161	H16	0.814600	0.052100	0.877700
H171	H17	0.249600	0.337200	0.656900
H181	H18	0.807200	0.706400	0.829200
H191	H19	0.007100	0.869100	0.792300
H201	H20	0.679700	0.633200	0.641900
H211	H21	0.228600	0.017700	0.814200
H221	H22	0.419600	0.448800	0.788100
H231	H23	0.610600	0.256100	0.751100
H241	H24	0.314600	0.052100	0.622300
H251	H25	0.250400	0.662800	0.156900
H261	H26	0.692800	0.293600	0.329200
H271	H27	0.492900	0.130900	0.292300
H281	H28	0.820300	0.366800	0.141900
H291	H29	0.271400	0.982300	0.314200
H301	H30	0.080400	0.551200	0.288100
H311	H31	0.889400	0.743900	0.251100
H321	H32	0.185400	0.947900	0.122300
C11	C1	0.748000	0.982700	0.283300
C21	C2	0.523100	0.835600	0.321600
C31	C3	0.574000	0.856000	0.206500
C41	C4	0.260800	0.338700	0.201400
C51	C5	0.992800	0.142500	0.252700
C61	C6	0.337400	0.382700	0.313800
C71	C7	0.420600	0.773200	0.375500
C81	C8	0.233700	0.316800	0.268000
C91	C9	0.708200	0.946300	0.219800
C101	C10	0.419800	0.451300	0.109100
C111	C11	0.535500	0.813000	0.136800
C121	C12	0.466200	0.472400	0.292700
C131	C13	0.390200	0.428300	0.180900
C141	C14	0.493000	0.493300	0.226000
C151	C15	0.574100	0.542200	0.341600
C161	C16	0.098100	0.225100	0.289000
C171	C17	0.480500	0.802200	0.257600
C181	C18	0.656900	0.925800	0.334900
C191	C19	0.752000	0.017300	0.783300
C201	C20	0.976900	0.164400	0.821600
C211	C21	0.926000	0.144000	0.706500
C221	C22	0.239200	0.661300	0.701400
C231	C23	0.507200	0.857500	0.752700
C241	C24	0.162600	0.617300	0.813800
C251	C25	0.079400	0.226800	0.875500
C261	C26	0.266300	0.683200	0.768000
C271	C27	0.791800	0.053700	0.719800
C281	C28	0.080200	0.548700	0.609100
C291	C29	0.964500	0.187000	0.636800
C301	C30	0.033800	0.527600	0.792700
C311	C31	0.109800	0.571700	0.680900
C321	C32	0.007000	0.506700	0.726000
C331	C33	0.925900	0.457800	0.841600
C341	C34	0.401900	0.774900	0.789000
C351	C35	0.019500	0.197800	0.757600
C361	C36	0.843100	0.074200	0.834900
C371	C37	0.252000	0.017300	0.716700
C381	C38	0.476900	0.164400	0.678400
C391	C39	0.426000	0.144000	0.793500
C401	C40	0.739200	0.661300	0.798600
C411	C41	0.007200	0.857500	0.747300
C421	C42	0.662600	0.617300	0.686200
C431	C43	0.579400	0.226800	0.624500
C441	C44	0.766300	0.683200	0.732000
C451	C45	0.291800	0.053700	0.780200
C461	C46	0.580200	0.548700	0.890900
C471	C47	0.464500	0.187000	0.863200
C481	C48	0.533800	0.527600	0.707300
C491	C49	0.609800	0.571700	0.819100
C501	C50	0.507000	0.506700	0.774000
C511	C51	0.425900	0.457800	0.658400
C521	C52	0.901900	0.774900	0.711000
C531	C53	0.519500	0.197800	0.742400
C541	C54	0.343100	0.074200	0.665100
C551	C55	0.248000	0.982700	0.216700
C561	C56	0.023100	0.835600	0.178400
C571	C57	0.074000	0.856000	0.293500
C581	C58	0.760800	0.338700	0.298600
C591	C59	0.492800	0.142500	0.247300
C601	C60	0.837400	0.382700	0.186200
C611	C61	0.920600	0.773200	0.124500
C621	C62	0.733700	0.316800	0.232000
C631	C63	0.208200	0.946300	0.280200
C641	C64	0.919800	0.451300	0.390900
C651	C65	0.035500	0.813000	0.363200
C661	C66	0.966200	0.472400	0.207300
C671	C67	0.890200	0.428300	0.319100
C681	C68	0.993000	0.493300	0.274000
C691	C69	0.074100	0.542200	0.158400
C701	C70	0.598100	0.225100	0.211000
C711	C71	0.980500	0.802200	0.242400
C721	C72	0.156900	0.925800	0.165100
N11	N1	0.929000	0.125600	0.356800
N21	N2	0.056500	0.213600	0.353200
N31	N3	0.886600	0.079700	0.295700
N41	N4	0.571000	0.874400	0.856800
N51	N5	0.443500	0.786400	0.853200
N61	N6	0.613400	0.920300	0.795700
N71	N7	0.071000	0.874400	0.643200
N81	N8	0.943500	0.786400	0.646800
N91	N9	0.113400	0.920300	0.704300
N101	N10	0.429000	0.125600	0.143200
N111	N11	0.556500	0.213600	0.146800
N121	N12	0.386600	0.079700	0.204300
O11	O1	0.321600	0.393600	0.070100
O21	O2	0.689500	0.621700	0.314200
O31	O3	0.406300	0.761700	0.120000
O41	O4	0.438800	0.820500	0.432300
O51	O5	0.316000	0.674100	0.363100
O61	O6	0.541000	0.525700	0.091700
O71	O7	0.641100	0.832200	0.098600
O81	O8	0.559600	0.530100	0.400000
O91	O9	0.178400	0.606400	0.570100
O101	O10	0.810500	0.378300	0.814200
O111	O11	0.093700	0.238300	0.620000
O121	O12	0.061200	0.179500	0.932300
O131	O13	0.184000	0.325900	0.863100
O141	O14	0.959000	0.474300	0.591700
O151	O15	0.858900	0.167800	0.598600
O161	O16	0.940400	0.469900	0.900000
O171	O17	0.678400	0.606400	0.929900
O181	O18	0.310500	0.378300	0.685800
O191	O19	0.593700	0.238300	0.880000
O201	O20	0.561200	0.179500	0.567700
O211	O21	0.684000	0.325900	0.636900
O221	O22	0.459000	0.474300	0.908300
O231	O23	0.358900	0.167800	0.901400
O241	O24	0.440400	0.469900	0.600000
O251	O25	0.821600	0.393600	0.429900
O261	O26	0.189500	0.621700	0.185800
O271	O27	0.906300	0.761700	0.380000
O281	O28	0.938800	0.820500	0.067700
O291	O29	0.816000	0.674100	0.136900
O301	O30	0.041000	0.525700	0.408300
O311	O31	0.141100	0.832200	0.401400
O321	O32	0.059600	0.530100	0.100000
