data_ACOGEF_clean_PM
_symmetry_space_group_name_H-M	'P1'
_cell_length_a	9.846300
_cell_length_b	16.851200
_cell_length_c	17.254300
_cell_angle_alpha	101.219000
_cell_angle_beta	106.579000
_cell_angle_gamma	90.000000
_symmetry_Int_Tables_number 1

loop_
_symmetry_equiv_pos_as_xyz
'x,y,z'

loop_
_atom_site_label
_atom_site_type_symbol
_atom_site_fract_x
_atom_site_fract_y
_atom_site_fract_z
Cd11	Cd1	0.000000	0.500000	0.000000
Cd21	Cd2	0.000000	0.000000	0.000000
H11	H1	0.286200	0.877000	0.233800
H21	H2	0.660000	0.908200	0.273200
H31	H3	0.426000	0.041600	0.373800
H41	H4	0.386800	0.980600	0.288800
H51	H5	0.523600	0.914100	0.425000
H61	H6	0.541100	0.892600	0.335800
H71	H7	0.144900	0.997700	0.430000
H81	H8	0.284700	0.052900	0.453800
H91	H9	0.752200	0.089200	0.491000
H101	H10	0.599200	0.064300	0.491800
H111	H11	0.929500	0.635000	0.154000
H121	H12	0.015600	0.750300	0.247400
H131	H13	0.266700	0.785200	0.115800
H141	H14	0.163400	0.669700	0.024800
H151	H15	0.071800	0.021300	0.191800
H161	H16	0.979100	0.014600	0.298400
H171	H17	0.642500	0.886000	0.132000
H181	H18	0.744700	0.897900	0.032200
H191	H19	0.052400	0.623000	0.766200
H201	H20	0.386800	0.591800	0.726800
H211	H21	0.052200	0.458400	0.626200
H221	H22	0.098000	0.519400	0.711200
H231	H23	0.098600	0.585900	0.575000
H241	H24	0.205300	0.607400	0.664200
H251	H25	0.714900	0.502300	0.570000
H261	H26	0.830900	0.447100	0.546200
H271	H27	0.261200	0.410800	0.509000
H281	H28	0.107400	0.435700	0.508200
H291	H29	0.775500	0.865000	0.846000
H301	H30	0.768200	0.749700	0.752600
H311	H31	0.150900	0.714800	0.884200
H321	H32	0.138600	0.830300	0.975200
H331	H33	0.880000	0.478700	0.808200
H341	H34	0.680700	0.485400	0.701600
H351	H35	0.510500	0.614000	0.868000
H361	H36	0.712500	0.602100	0.967800
H371	H37	0.713800	0.123000	0.766200
H381	H38	0.340000	0.091800	0.726800
H391	H39	0.574000	0.958400	0.626200
H401	H40	0.613200	0.019400	0.711200
H411	H41	0.476400	0.085900	0.575000
H421	H42	0.458900	0.107400	0.664200
H431	H43	0.855100	0.002300	0.570000
H441	H44	0.715300	0.947100	0.546200
H451	H45	0.247800	0.910800	0.509000
H461	H46	0.400800	0.935700	0.508200
H471	H47	0.070500	0.365000	0.846000
H481	H48	0.984400	0.249700	0.752600
H491	H49	0.733300	0.214800	0.884200
H501	H50	0.836600	0.330300	0.975200
H511	H51	0.928200	0.978700	0.808200
H521	H52	0.020900	0.985400	0.701600
H531	H53	0.357500	0.114000	0.868000
H541	H54	0.255300	0.102100	0.967800
H551	H55	0.947600	0.377000	0.233800
H561	H56	0.613200	0.408200	0.273200
H571	H57	0.947800	0.541600	0.373800
H581	H58	0.902000	0.480600	0.288800
H591	H59	0.901400	0.414100	0.425000
H601	H60	0.794700	0.392600	0.335800
H611	H61	0.285100	0.497700	0.430000
H621	H62	0.169100	0.552900	0.453800
H631	H63	0.738800	0.589200	0.491000
H641	H64	0.892600	0.564300	0.491800
H651	H65	0.224500	0.135000	0.154000
H661	H66	0.231800	0.250300	0.247400
H671	H67	0.849100	0.285200	0.115800
H681	H68	0.861400	0.169700	0.024800
H691	H69	0.120000	0.521300	0.191800
H701	H70	0.319300	0.514600	0.298400
H711	H71	0.489500	0.386000	0.132000
H721	H72	0.287500	0.397900	0.032200
C11	C1	0.404750	0.984900	0.347700
C21	C2	0.535260	0.937000	0.379720
C31	C3	0.246880	0.997100	0.439560
C41	C4	0.689510	0.043600	0.488020
C51	C5	0.196120	0.887700	0.320840
C61	C6	0.002300	0.664900	0.146400
C71	C7	0.053100	0.734800	0.203400
C81	C8	0.158020	0.781200	0.195040
C91	C9	0.197700	0.755400	0.127000
C101	C10	0.135900	0.683800	0.072800
C111	C11	0.760080	0.994700	0.363960
C121	C12	0.983760	0.994100	0.179720
C131	C13	0.928790	0.990600	0.244580
C141	C14	0.797370	0.950800	0.227540
C151	C15	0.729670	0.914700	0.145940
C161	C16	0.792600	0.921800	0.086600
C171	C17	0.057050	0.515100	0.652300
C181	C18	0.155540	0.563000	0.620280
C191	C19	0.807320	0.502900	0.560440
C201	C20	0.201490	0.456400	0.511980
C211	C21	0.875280	0.612300	0.679160
C221	C22	0.855900	0.835100	0.853600
C231	C23	0.849700	0.765200	0.796600
C241	C24	0.962980	0.718800	0.804960
C251	C25	0.070700	0.744600	0.873000
C261	C26	0.063100	0.816200	0.927200
C271	C27	0.396120	0.505300	0.636040
C281	C28	0.804040	0.505900	0.820280
C291	C29	0.684210	0.509400	0.755420
C301	C30	0.569830	0.549200	0.772460
C311	C31	0.583730	0.585300	0.854060
C321	C32	0.706000	0.578200	0.913400
C331	C33	0.595250	0.015100	0.652300
C341	C34	0.464740	0.063000	0.620280
C351	C35	0.753120	0.002900	0.560440
C361	C36	0.310490	0.956400	0.511980
C371	C37	0.803880	0.112300	0.679160
C381	C38	0.997700	0.335100	0.853600
C391	C39	0.946900	0.265200	0.796600
C401	C40	0.841980	0.218800	0.804960
C411	C41	0.802300	0.244600	0.873000
C421	C42	0.864100	0.316200	0.927200
C431	C43	0.239920	0.005300	0.636040
C441	C44	0.016240	0.005900	0.820280
C451	C45	0.071210	0.009400	0.755420
C461	C46	0.202630	0.049200	0.772460
C471	C47	0.270330	0.085300	0.854060
C481	C48	0.207400	0.078200	0.913400
C491	C49	0.942950	0.484900	0.347700
C501	C50	0.844460	0.437000	0.379720
C511	C51	0.192680	0.497100	0.439560
C521	C52	0.798510	0.543600	0.488020
C531	C53	0.124720	0.387700	0.320840
C541	C54	0.144100	0.164900	0.146400
C551	C55	0.150300	0.234800	0.203400
C561	C56	0.037020	0.281200	0.195040
C571	C57	0.929300	0.255400	0.127000
C581	C58	0.936900	0.183800	0.072800
C591	C59	0.603880	0.494700	0.363960
C601	C60	0.195960	0.494100	0.179720
C611	C61	0.315790	0.490600	0.244580
C621	C62	0.430170	0.450800	0.227540
C631	C63	0.416270	0.414700	0.145940
C641	C64	0.294000	0.421800	0.086600
I11	I1	0.212230	0.530310	0.906380
I21	I2	0.305850	0.969690	0.093620
I31	I3	0.787770	0.469690	0.093620
I41	I4	0.694150	0.030310	0.906380
N11	N1	0.275830	0.956800	0.363260
N21	N2	0.667540	0.987800	0.408080
N31	N3	0.223200	0.852500	0.247800
N41	N4	0.045960	0.636200	0.082520
N51	N5	0.727690	0.945000	0.286180
N61	N6	0.918320	0.960900	0.101040
N71	N7	0.912570	0.543200	0.636740
N81	N8	0.259460	0.512200	0.591920
N91	N9	0.975400	0.647500	0.752200
N101	N10	0.963440	0.863800	0.917480
N111	N11	0.441510	0.555000	0.713820
N121	N12	0.817280	0.539100	0.898960
N131	N13	0.724170	0.043200	0.636740
N141	N14	0.332460	0.012200	0.591920
N151	N15	0.776800	0.147500	0.752200
N161	N16	0.954040	0.363800	0.917480
N171	N17	0.272310	0.055000	0.713820
N181	N18	0.081680	0.039100	0.898960
N191	N19	0.087430	0.456800	0.363260
N201	N20	0.740540	0.487800	0.408080
N211	N21	0.024600	0.352500	0.247800
N221	N22	0.036560	0.136200	0.082520
N231	N23	0.558490	0.445000	0.286180
N241	N24	0.182720	0.460900	0.101040
O11	O1	0.106470	0.859200	0.344940
O21	O2	0.863430	0.042200	0.391260
O31	O3	0.761530	0.640800	0.655060
O41	O4	0.472170	0.457800	0.608740
O51	O5	0.893530	0.140800	0.655060
O61	O6	0.136570	0.957800	0.608740
O71	O7	0.238470	0.359200	0.344940
O81	O8	0.527830	0.542200	0.391260
