data_ACOLOV_clean_PM
_symmetry_space_group_name_H-M	'P1'
_cell_length_a	11.367000
_cell_length_b	24.373000
_cell_length_c	36.596000
_cell_angle_alpha	97.685000
_cell_angle_beta	90.000000
_cell_angle_gamma	90.000000
_symmetry_Int_Tables_number 1

loop_
_symmetry_equiv_pos_as_xyz
'x,y,z'

loop_
_atom_site_label
_atom_site_type_symbol
_atom_site_fract_x
_atom_site_fract_y
_atom_site_fract_z
Cd11	Cd1	0.356860	0.672450	0.842080
Cd21	Cd2	0.632710	0.716300	0.881370
Cd31	Cd3	0.082090	0.298940	0.091420
Cd41	Cd4	0.856860	0.327550	0.657920
Cd51	Cd5	0.132710	0.283700	0.618630
Cd61	Cd6	0.582090	0.701060	0.408580
Cd71	Cd7	0.643140	0.327550	0.157920
Cd81	Cd8	0.367290	0.283700	0.118630
Cd91	Cd9	0.917910	0.701060	0.908580
Cd101	Cd10	0.143140	0.672450	0.342080
Cd111	Cd11	0.867290	0.716300	0.381370
Cd121	Cd12	0.417910	0.298940	0.591420
H11	H1	0.374700	0.754500	0.134200
H21	H2	0.417700	0.745400	0.173800
H31	H3	0.586200	0.721800	0.089200
H41	H4	0.565200	0.657400	0.082000
H51	H5	0.393400	0.647000	0.163000
H61	H6	0.342100	0.651100	0.123500
H71	H7	0.654200	0.651000	0.141700
H81	H8	0.667100	0.715700	0.151700
H91	H9	0.428800	0.844900	0.178700
H101	H10	0.431400	0.853100	0.136800
H111	H11	0.729900	0.904000	0.136200
H121	H12	0.704300	0.839900	0.130600
H131	H13	0.487300	0.948500	0.146600
H141	H14	0.473500	0.947500	0.189300
H151	H15	0.680700	0.837600	0.196500
H161	H16	0.710000	0.901200	0.204500
H171	H17	0.249800	0.717200	0.036800
H181	H18	0.222900	0.705800	0.973700
H191	H19	0.561700	0.665000	0.959400
H201	H20	0.587500	0.673900	0.022200
H211	H21	0.247700	0.581500	0.145700
H221	H22	0.144600	0.499200	0.141500
H231	H23	0.432800	0.415800	0.103000
H241	H24	0.533700	0.497900	0.105500
H251	H25	0.815700	0.687700	0.184000
H261	H26	0.952700	0.682000	0.230000
H271	H27	0.697300	0.650100	0.298700
H281	H28	0.558800	0.659900	0.254500
H291	H29	0.483200	0.862300	0.042800
H301	H30	0.530000	0.814200	0.986600
H311	H31	0.855500	0.790100	0.021100
H321	H32	0.806100	0.837500	0.080100
H331	H33	0.769600	0.056000	0.176300
H341	H34	0.749000	0.146200	0.166900
H351	H35	0.402000	0.124900	0.157600
H361	H36	0.422400	0.035200	0.168900
H371	H37	0.402100	0.845900	0.266000
H381	H38	0.413700	0.792700	0.313900
H391	H39	0.765400	0.793500	0.308400
H401	H40	0.754500	0.843600	0.258300
H411	H41	0.874700	0.245500	0.365800
H421	H42	0.917700	0.254600	0.326200
H431	H43	0.086200	0.278200	0.410800
H441	H44	0.065200	0.342600	0.418000
H451	H45	0.893400	0.353000	0.337000
H461	H46	0.842100	0.348900	0.376500
H471	H47	0.154200	0.349000	0.358300
H481	H48	0.167100	0.284300	0.348300
H491	H49	0.928800	0.155100	0.321300
H501	H50	0.931400	0.146900	0.363200
H511	H51	0.229900	0.096000	0.363800
H521	H52	0.204300	0.160100	0.369400
H531	H53	0.987300	0.051500	0.353400
H541	H54	0.973500	0.052500	0.310700
H551	H55	0.180700	0.162400	0.303500
H561	H56	0.210000	0.098800	0.295500
H571	H57	0.749800	0.282800	0.463200
H581	H58	0.722900	0.294200	0.526300
H591	H59	0.061700	0.335000	0.540600
H601	H60	0.087500	0.326100	0.477800
H611	H61	0.747700	0.418500	0.354300
H621	H62	0.644600	0.500800	0.358500
H631	H63	0.932800	0.584200	0.397000
H641	H64	0.033700	0.502100	0.394500
H651	H65	0.315700	0.312300	0.316000
H661	H66	0.452700	0.318000	0.270000
H671	H67	0.197300	0.349900	0.201300
H681	H68	0.058800	0.340100	0.245500
H691	H69	0.983200	0.137700	0.457200
H701	H70	0.030000	0.185800	0.513400
H711	H71	0.355500	0.209900	0.478900
H721	H72	0.306100	0.162500	0.419900
H731	H73	0.269600	0.944000	0.323700
H741	H74	0.249000	0.853800	0.333100
H751	H75	0.902000	0.875100	0.342400
H761	H76	0.922400	0.964800	0.331100
H771	H77	0.902100	0.154100	0.234000
H781	H78	0.913700	0.207300	0.186100
H791	H79	0.265400	0.206500	0.191600
H801	H80	0.254500	0.156400	0.241700
H811	H81	0.625300	0.245500	0.865800
H821	H82	0.582300	0.254600	0.826200
H831	H83	0.413800	0.278200	0.910800
H841	H84	0.434800	0.342600	0.918000
H851	H85	0.606600	0.353000	0.837000
H861	H86	0.657900	0.348900	0.876500
H871	H87	0.345800	0.349000	0.858300
H881	H88	0.332900	0.284300	0.848300
H891	H89	0.571200	0.155100	0.821300
H901	H90	0.568600	0.146900	0.863200
H911	H91	0.270100	0.096000	0.863800
H921	H92	0.295700	0.160100	0.869400
H931	H93	0.512700	0.051500	0.853400
H941	H94	0.526500	0.052500	0.810700
H951	H95	0.319300	0.162400	0.803500
H961	H96	0.290000	0.098800	0.795500
H971	H97	0.750200	0.282800	0.963200
H981	H98	0.777100	0.294200	0.026300
H991	H99	0.438300	0.335000	0.040600
H1001	H100	0.412500	0.326100	0.977800
H1011	H101	0.752300	0.418500	0.854300
H1021	H102	0.855400	0.500800	0.858500
H1031	H103	0.567200	0.584200	0.897000
H1041	H104	0.466300	0.502100	0.894500
H1051	H105	0.184300	0.312300	0.816000
H1061	H106	0.047300	0.318000	0.770000
H1071	H107	0.302700	0.349900	0.701300
H1081	H108	0.441200	0.340100	0.745500
H1091	H109	0.516800	0.137700	0.957200
H1101	H110	0.470000	0.185800	0.013400
H1111	H111	0.144500	0.209900	0.978900
H1121	H112	0.193900	0.162500	0.919900
H1131	H113	0.230400	0.944000	0.823700
H1141	H114	0.251000	0.853800	0.833100
H1151	H115	0.598000	0.875100	0.842400
H1161	H116	0.577600	0.964800	0.831100
H1171	H117	0.597900	0.154100	0.734000
H1181	H118	0.586300	0.207300	0.686100
H1191	H119	0.234600	0.206500	0.691600
H1201	H120	0.245500	0.156400	0.741700
H1211	H121	0.125300	0.754500	0.634200
H1221	H122	0.082300	0.745400	0.673800
H1231	H123	0.913800	0.721800	0.589200
H1241	H124	0.934800	0.657400	0.582000
H1251	H125	0.106600	0.647000	0.663000
H1261	H126	0.157900	0.651100	0.623500
H1271	H127	0.845800	0.651000	0.641700
H1281	H128	0.832900	0.715700	0.651700
H1291	H129	0.071200	0.844900	0.678700
H1301	H130	0.068600	0.853100	0.636800
H1311	H131	0.770100	0.904000	0.636200
H1321	H132	0.795700	0.839900	0.630600
H1331	H133	0.012700	0.948500	0.646600
H1341	H134	0.026500	0.947500	0.689300
H1351	H135	0.819300	0.837600	0.696500
H1361	H136	0.790000	0.901200	0.704500
H1371	H137	0.250200	0.717200	0.536800
H1381	H138	0.277100	0.705800	0.473700
H1391	H139	0.938300	0.665000	0.459400
H1401	H140	0.912500	0.673900	0.522200
H1411	H141	0.252300	0.581500	0.645700
H1421	H142	0.355400	0.499200	0.641500
H1431	H143	0.067200	0.415800	0.603000
H1441	H144	0.966300	0.497900	0.605500
H1451	H145	0.684300	0.687700	0.684000
H1461	H146	0.547300	0.682000	0.730000
H1471	H147	0.802700	0.650100	0.798700
H1481	H148	0.941200	0.659900	0.754500
H1491	H149	0.016800	0.862300	0.542800
H1501	H150	0.970000	0.814200	0.486600
H1511	H151	0.644500	0.790100	0.521100
H1521	H152	0.693900	0.837500	0.580100
H1531	H153	0.730400	0.056000	0.676300
H1541	H154	0.751000	0.146200	0.666900
H1551	H155	0.098000	0.124900	0.657600
H1561	H156	0.077600	0.035200	0.668900
H1571	H157	0.097900	0.845900	0.766000
H1581	H158	0.086300	0.792700	0.813900
H1591	H159	0.734600	0.793500	0.808400
H1601	H160	0.745500	0.843600	0.758300
C11	C1	0.443100	0.747300	0.148700
C21	C2	0.500000	0.692700	0.132610
C31	C3	0.530500	0.692600	0.092040
C41	C4	0.413600	0.646100	0.137200
C51	C5	0.614800	0.684500	0.152800
C61	C6	0.478600	0.843500	0.157100
C71	C7	0.580900	0.884100	0.164700
C81	C8	0.668300	0.876300	0.132500
C91	C9	0.528800	0.942700	0.168900
C101	C10	0.646900	0.874400	0.199500
C111	C11	0.419800	0.694700	0.035900
C121	C12	0.312300	0.705600	0.021200
C131	C13	0.296700	0.699400	0.983300
C141	C14	0.388800	0.683900	0.959450
C151	C15	0.498000	0.674900	0.974890
C161	C16	0.513800	0.680100	0.012500
C171	C17	0.371100	0.678600	0.919000
C181	C18	0.398800	0.548800	0.124300
C191	C19	0.284200	0.548500	0.136300
C201	C20	0.223100	0.498800	0.134200
C211	C21	0.276800	0.448300	0.121500
C221	C22	0.394600	0.448900	0.111100
C231	C23	0.455000	0.498200	0.112500
C241	C24	0.209700	0.396400	0.118000
C251	C25	0.673300	0.675700	0.215020
C261	C26	0.791500	0.681200	0.207320
C271	C27	0.873400	0.676900	0.234700
C281	C28	0.839300	0.665200	0.269000
C291	C29	0.721100	0.658500	0.275780
C301	C30	0.638200	0.664000	0.249360
C311	C31	0.929200	0.662700	0.298630
C321	C32	0.640100	0.853700	0.067200
C331	C33	0.558200	0.847400	0.038800
C341	C34	0.587100	0.819200	0.005000
C351	C35	0.698000	0.798000	0.997400
C361	C36	0.780200	0.804400	0.025400
C371	C37	0.750500	0.833100	0.061300
C381	C38	0.727300	0.766900	0.960400
C391	C39	0.599200	0.036400	0.171700
C401	C40	0.695200	0.070000	0.172200
C411	C41	0.682600	0.123900	0.166700
C421	C42	0.572800	0.146200	0.161000
C431	C43	0.476700	0.111300	0.161500
C441	C44	0.488500	0.057400	0.167600
C451	C45	0.556200	0.204800	0.153700
C461	C46	0.579400	0.849100	0.257400
C471	C47	0.474700	0.834700	0.274100
C481	C48	0.482300	0.803400	0.302900
C491	C49	0.589100	0.787800	0.315580
C501	C50	0.692800	0.803200	0.299500
C511	C51	0.686000	0.833800	0.269700
C521	C52	0.595300	0.754400	0.347720
C531	C53	0.943100	0.252700	0.351300
C541	C54	0.000000	0.307300	0.367390
C551	C55	0.030500	0.307400	0.407960
C561	C56	0.913600	0.353900	0.362800
C571	C57	0.114800	0.315500	0.347200
C581	C58	0.978600	0.156500	0.342900
C591	C59	0.080900	0.115900	0.335300
C601	C60	0.168300	0.123700	0.367500
C611	C61	0.028800	0.057300	0.331100
C621	C62	0.146900	0.125600	0.300500
C631	C63	0.919800	0.305300	0.464100
C641	C64	0.812300	0.294400	0.478800
C651	C65	0.796700	0.300600	0.516700
C661	C66	0.888800	0.316100	0.540550
C671	C67	0.998000	0.325100	0.525110
C681	C68	0.013800	0.319900	0.487500
C691	C69	0.871100	0.321400	0.581000
C701	C70	0.898800	0.451200	0.375700
C711	C71	0.784200	0.451500	0.363700
C721	C72	0.723100	0.501200	0.365800
C731	C73	0.776800	0.551700	0.378500
C741	C74	0.894600	0.551100	0.388900
C751	C75	0.955000	0.501800	0.387500
C761	C76	0.709700	0.603600	0.382000
C771	C77	0.173300	0.324300	0.284980
C781	C78	0.291500	0.318800	0.292680
C791	C79	0.373400	0.323100	0.265300
C801	C80	0.339300	0.334800	0.231000
C811	C81	0.221100	0.341500	0.224220
C821	C82	0.138200	0.336000	0.250640
C831	C83	0.429200	0.337300	0.201370
C841	C84	0.140100	0.146300	0.432800
C851	C85	0.058200	0.152600	0.461200
C861	C86	0.087100	0.180800	0.495000
C871	C87	0.198000	0.202000	0.502600
C881	C88	0.280200	0.195600	0.474600
C891	C89	0.250500	0.166900	0.438700
C901	C90	0.227300	0.233100	0.539600
C911	C91	0.099200	0.963600	0.328300
C921	C92	0.195200	0.930000	0.327800
C931	C93	0.182600	0.876100	0.333300
C941	C94	0.072800	0.853800	0.339000
C951	C95	0.976700	0.888700	0.338500
C961	C96	0.988500	0.942600	0.332400
C971	C97	0.056200	0.795200	0.346300
C981	C98	0.079400	0.150900	0.242600
C991	C99	0.974700	0.165300	0.225900
C1001	C100	0.982300	0.196600	0.197100
C1011	C101	0.089100	0.212200	0.184420
C1021	C102	0.192800	0.196800	0.200500
C1031	C103	0.186000	0.166200	0.230300
C1041	C104	0.095300	0.245600	0.152280
C1051	C105	0.556900	0.252700	0.851300
C1061	C106	0.500000	0.307300	0.867390
C1071	C107	0.469500	0.307400	0.907960
C1081	C108	0.586400	0.353900	0.862800
C1091	C109	0.385200	0.315500	0.847200
C1101	C110	0.521400	0.156500	0.842900
C1111	C111	0.419100	0.115900	0.835300
C1121	C112	0.331700	0.123700	0.867500
C1131	C113	0.471200	0.057300	0.831100
C1141	C114	0.353100	0.125600	0.800500
C1151	C115	0.580200	0.305300	0.964100
C1161	C116	0.687700	0.294400	0.978800
C1171	C117	0.703300	0.300600	0.016700
C1181	C118	0.611200	0.316100	0.040550
C1191	C119	0.502000	0.325100	0.025110
C1201	C120	0.486200	0.319900	0.987500
C1211	C121	0.628900	0.321400	0.081000
C1221	C122	0.601200	0.451200	0.875700
C1231	C123	0.715800	0.451500	0.863700
C1241	C124	0.776900	0.501200	0.865800
C1251	C125	0.723200	0.551700	0.878500
C1261	C126	0.605400	0.551100	0.888900
C1271	C127	0.545000	0.501800	0.887500
C1281	C128	0.790300	0.603600	0.882000
C1291	C129	0.326700	0.324300	0.784980
C1301	C130	0.208500	0.318800	0.792680
C1311	C131	0.126600	0.323100	0.765300
C1321	C132	0.160700	0.334800	0.731000
C1331	C133	0.278900	0.341500	0.724220
C1341	C134	0.361800	0.336000	0.750640
C1351	C135	0.070800	0.337300	0.701370
C1361	C136	0.359900	0.146300	0.932800
C1371	C137	0.441800	0.152600	0.961200
C1381	C138	0.412900	0.180800	0.995000
C1391	C139	0.302000	0.202000	0.002600
C1401	C140	0.219800	0.195600	0.974600
C1411	C141	0.249500	0.166900	0.938700
C1421	C142	0.272700	0.233100	0.039600
C1431	C143	0.400800	0.963600	0.828300
C1441	C144	0.304800	0.930000	0.827800
C1451	C145	0.317400	0.876100	0.833300
C1461	C146	0.427200	0.853800	0.839000
C1471	C147	0.523300	0.888700	0.838500
C1481	C148	0.511500	0.942600	0.832400
C1491	C149	0.443800	0.795200	0.846300
C1501	C150	0.420600	0.150900	0.742600
C1511	C151	0.525300	0.165300	0.725900
C1521	C152	0.517700	0.196600	0.697100
C1531	C153	0.410900	0.212200	0.684420
C1541	C154	0.307200	0.196800	0.700500
C1551	C155	0.314000	0.166200	0.730300
C1561	C156	0.404700	0.245600	0.652280
C1571	C157	0.056900	0.747300	0.648700
C1581	C158	0.000000	0.692700	0.632610
C1591	C159	0.969500	0.692600	0.592040
C1601	C160	0.086400	0.646100	0.637200
C1611	C161	0.885200	0.684500	0.652800
C1621	C162	0.021400	0.843500	0.657100
C1631	C163	0.919100	0.884100	0.664700
C1641	C164	0.831700	0.876300	0.632500
C1651	C165	0.971200	0.942700	0.668900
C1661	C166	0.853100	0.874400	0.699500
C1671	C167	0.080200	0.694700	0.535900
C1681	C168	0.187700	0.705600	0.521200
C1691	C169	0.203300	0.699400	0.483300
C1701	C170	0.111200	0.683900	0.459450
C1711	C171	0.002000	0.674900	0.474890
C1721	C172	0.986200	0.680100	0.512500
C1731	C173	0.128900	0.678600	0.419000
C1741	C174	0.101200	0.548800	0.624300
C1751	C175	0.215800	0.548500	0.636300
C1761	C176	0.276900	0.498800	0.634200
C1771	C177	0.223200	0.448300	0.621500
C1781	C178	0.105400	0.448900	0.611100
C1791	C179	0.045000	0.498200	0.612500
C1801	C180	0.290300	0.396400	0.618000
C1811	C181	0.826700	0.675700	0.715020
C1821	C182	0.708500	0.681200	0.707320
C1831	C183	0.626600	0.676900	0.734700
C1841	C184	0.660700	0.665200	0.769000
C1851	C185	0.778900	0.658500	0.775780
C1861	C186	0.861800	0.664000	0.749360
C1871	C187	0.570800	0.662700	0.798630
C1881	C188	0.859900	0.853700	0.567200
C1891	C189	0.941800	0.847400	0.538800
C1901	C190	0.912900	0.819200	0.505000
C1911	C191	0.802000	0.798000	0.497400
C1921	C192	0.719800	0.804400	0.525400
C1931	C193	0.749500	0.833100	0.561300
C1941	C194	0.772700	0.766900	0.460400
C1951	C195	0.900800	0.036400	0.671700
C1961	C196	0.804800	0.070000	0.672200
C1971	C197	0.817400	0.123900	0.666700
C1981	C198	0.927200	0.146200	0.661000
C1991	C199	0.023300	0.111300	0.661500
C2001	C200	0.011500	0.057400	0.667600
C2011	C201	0.943800	0.204800	0.653700
C2021	C202	0.920600	0.849100	0.757400
C2031	C203	0.025300	0.834700	0.774100
C2041	C204	0.017700	0.803400	0.802900
C2051	C205	0.910900	0.787800	0.815580
C2061	C206	0.807200	0.803200	0.799500
C2071	C207	0.814000	0.833800	0.769700
C2081	C208	0.904700	0.754400	0.847720
O11	O1	0.525900	0.789900	0.148110
O21	O2	0.423700	0.701300	0.073560
O31	O3	0.465900	0.594680	0.123800
O41	O4	0.584200	0.680100	0.190040
O51	O5	0.603800	0.881800	0.099590
O61	O6	0.622600	0.981600	0.175700
O71	O7	0.564000	0.880400	0.229090
O81	O8	0.270300	0.676900	0.905700
O91	O9	0.459500	0.676100	0.897930
O101	O10	0.252400	0.352900	0.098760
O111	O11	0.107000	0.397000	0.130700
O121	O12	0.035800	0.666300	0.290130
O131	O13	0.893800	0.655400	0.330320
O141	O14	0.653400	0.767000	0.935730
O151	O15	0.826000	0.743900	0.957370
O161	O16	0.454100	0.219700	0.147050
O171	O17	0.647400	0.234700	0.154370
O181	O18	0.688900	0.752300	0.364220
O191	O19	0.503000	0.732500	0.357270
O201	O20	0.025900	0.210100	0.351890
O211	O21	0.923700	0.298700	0.426440
O221	O22	0.965900	0.405320	0.376200
O231	O23	0.084200	0.319900	0.309960
O241	O24	0.103800	0.118200	0.400410
O251	O25	0.122600	0.018400	0.324300
O261	O26	0.064000	0.119600	0.270910
O271	O27	0.770300	0.323100	0.594300
O281	O28	0.959500	0.323900	0.602070
O291	O29	0.752400	0.647100	0.401240
O301	O30	0.607000	0.603000	0.369300
O311	O31	0.535800	0.333700	0.209870
O321	O32	0.393800	0.344600	0.169680
O331	O33	0.153400	0.233000	0.564270
O341	O34	0.326000	0.256100	0.542630
O351	O35	0.954100	0.780300	0.352950
O361	O36	0.147400	0.765300	0.345630
O371	O37	0.188900	0.247700	0.135780
O381	O38	0.003000	0.267500	0.142730
O391	O39	0.474100	0.210100	0.851890
O401	O40	0.576300	0.298700	0.926440
O411	O41	0.534100	0.405320	0.876200
O421	O42	0.415800	0.319900	0.809960
O431	O43	0.396200	0.118200	0.900410
O441	O44	0.377400	0.018400	0.824300
O451	O45	0.436000	0.119600	0.770910
O461	O46	0.729700	0.323100	0.094300
O471	O47	0.540500	0.323900	0.102070
O481	O48	0.747600	0.647100	0.901240
O491	O49	0.893000	0.603000	0.869300
O501	O50	0.964200	0.333700	0.709870
O511	O51	0.106200	0.344600	0.669680
O521	O52	0.346600	0.233000	0.064270
O531	O53	0.174000	0.256100	0.042630
O541	O54	0.545900	0.780300	0.852950
O551	O55	0.352600	0.765300	0.845630
O561	O56	0.311100	0.247700	0.635780
O571	O57	0.497000	0.267500	0.642730
O581	O58	0.974100	0.789900	0.648110
O591	O59	0.076300	0.701300	0.573560
O601	O60	0.034100	0.594680	0.623800
O611	O61	0.915800	0.680100	0.690040
O621	O62	0.896200	0.881800	0.599590
O631	O63	0.877400	0.981600	0.675700
O641	O64	0.936000	0.880400	0.729090
O651	O65	0.229700	0.676900	0.405700
O661	O66	0.040500	0.676100	0.397930
O671	O67	0.247600	0.352900	0.598760
O681	O68	0.393000	0.397000	0.630700
O691	O69	0.464200	0.666300	0.790130
O701	O70	0.606200	0.655400	0.830320
O711	O71	0.846600	0.767000	0.435730
O721	O72	0.674000	0.743900	0.457370
O731	O73	0.045900	0.219700	0.647050
O741	O74	0.852600	0.234700	0.654370
O751	O75	0.811100	0.752300	0.864220
O761	O76	0.997000	0.732500	0.857270
