data_acs_PM
_symmetry_space_group_name_H-M	'P1'
_cell_length_a	35.424700
_cell_length_b	13.940200
_cell_length_c	9.451600
_cell_angle_alpha	90.000000
_cell_angle_beta	101.693000
_cell_angle_gamma	90.000000
_symmetry_Int_Tables_number 1

loop_
_symmetry_equiv_pos_as_xyz
'x,y,z'

loop_
_atom_site_label
_atom_site_type_symbol
_atom_site_fract_x
_atom_site_fract_y
_atom_site_fract_z
Ni11	Ni1	0.863930	0.294250	0.161840
O11	O1	0.835040	0.177000	0.215900
O21	O2	0.820370	0.378200	0.214700
O31	O3	0.852150	0.443000	0.420400
O41	O4	0.868000	0.140600	0.434800
N11	N1	0.832610	0.283300	0.951700
N21	N2	0.907000	0.207000	0.106500
C11	C1	0.774030	0.245700	0.787700
H11	H1	0.748600	0.224900	0.773500
C21	C2	0.787960	0.490100	0.334700
H21	H2	0.789300	0.527500	0.417000
C31	C3	0.790920	0.267200	0.670000
C41	C4	0.777560	0.048700	0.247800
H31	H3	0.776200	0.080900	0.160700
C51	C5	0.795930	0.255800	0.925300
H41	H4	0.784500	0.242700	0.003400
C61	C6	0.809730	0.059900	0.347300
H51	H5	0.813400	0.022000	0.429900
C71	C7	0.755600	0.491200	0.238100
H61	H6	0.753800	0.453200	0.156200
C81	C8	0.840000	0.130600	0.331400
C91	C9	0.848420	0.303100	0.838200
H71	H7	0.874100	0.322500	0.855400
C101	C10	0.822830	0.432900	0.321800
C111	C11	0.828900	0.296300	0.698200
H81	H8	0.841100	0.311100	0.622700
C121	C12	0.942640	0.237300	0.111900
H91	H9	0.949200	0.298900	0.145800
C131	C13	0.898830	0.118000	0.060100
H101	H10	0.874200	0.094600	0.059200
C141	C14	0.924500	0.059100	0.013700
H111	H11	0.917300	0.997200	0.983100
C151	C15	0.768400	0.265100	0.514900
H121	H12	0.768700	0.329600	0.476800
H131	H13	0.782700	0.225000	0.460300
C161	C16	0.970520	0.181500	0.069500
H141	H14	0.995600	0.204300	0.079400
C171	C17	0.960900	0.091400	0.012200
C181	C18	0.990500	0.031100	0.944300
H151	H15	0.977100	0.994200	0.862300
H161	H16	0.008900	0.073000	0.912100
Ni21	Ni2	0.363930	0.794250	0.161840
O51	O5	0.335040	0.677000	0.215900
O61	O6	0.320370	0.878200	0.214700
O71	O7	0.352150	0.943000	0.420400
O81	O8	0.368000	0.640600	0.434800
N31	N3	0.332610	0.783300	0.951700
N41	N4	0.407000	0.707000	0.106500
C191	C19	0.274030	0.745700	0.787700
H171	H17	0.248600	0.724900	0.773500
C201	C20	0.287960	0.990100	0.334700
H181	H18	0.289300	0.027500	0.417000
C211	C21	0.290920	0.767200	0.670000
C221	C22	0.277560	0.548700	0.247800
H191	H19	0.276200	0.580900	0.160700
C231	C23	0.295930	0.755800	0.925300
H201	H20	0.284500	0.742700	0.003400
C241	C24	0.309730	0.559900	0.347300
H211	H21	0.313400	0.522000	0.429900
C251	C25	0.255600	0.991200	0.238100
H221	H22	0.253800	0.953200	0.156200
C261	C26	0.340000	0.630600	0.331400
C271	C27	0.348420	0.803100	0.838200
H231	H23	0.374100	0.822500	0.855400
C281	C28	0.322830	0.932900	0.321800
C291	C29	0.328900	0.796300	0.698200
H241	H24	0.341100	0.811100	0.622700
C301	C30	0.442640	0.737300	0.111900
H251	H25	0.449200	0.798900	0.145800
C311	C31	0.398830	0.618000	0.060100
H261	H26	0.374200	0.594600	0.059200
C321	C32	0.424500	0.559100	0.013700
H271	H27	0.417300	0.497200	0.983100
C331	C33	0.268400	0.765100	0.514900
H281	H28	0.268700	0.829600	0.476800
H291	H29	0.282700	0.725000	0.460300
C341	C34	0.470520	0.681500	0.069500
H301	H30	0.495600	0.704300	0.079400
C351	C35	0.460900	0.591400	0.012200
C361	C36	0.490500	0.531100	0.944300
H311	H31	0.477100	0.494200	0.862300
H321	H32	0.508900	0.573000	0.912100
Ni31	Ni3	0.136070	0.294250	0.338160
O91	O9	0.164960	0.177000	0.284100
O101	O10	0.179630	0.378200	0.285300
O111	O11	0.147850	0.443000	0.079600
O121	O12	0.132000	0.140600	0.065200
N51	N5	0.167390	0.283300	0.548300
N61	N6	0.093000	0.207000	0.393500
C371	C37	0.225970	0.245700	0.712300
H331	H33	0.251400	0.224900	0.726500
C381	C38	0.212040	0.490100	0.165300
H341	H34	0.210700	0.527500	0.083000
C391	C39	0.209080	0.267200	0.830000
C401	C40	0.222440	0.048700	0.252200
H351	H35	0.223800	0.080900	0.339300
C411	C41	0.204070	0.255800	0.574700
H361	H36	0.215500	0.242700	0.496600
C421	C42	0.190270	0.059900	0.152700
H371	H37	0.186600	0.022000	0.070100
C431	C43	0.244400	0.491200	0.261900
H381	H38	0.246200	0.453200	0.343800
C441	C44	0.160000	0.130600	0.168600
C451	C45	0.151580	0.303100	0.661800
H391	H39	0.125900	0.322500	0.644600
C461	C46	0.177170	0.432900	0.178200
C471	C47	0.171100	0.296300	0.801800
H401	H40	0.158900	0.311100	0.877300
C481	C48	0.057360	0.237300	0.388100
H411	H41	0.050800	0.298900	0.354200
C491	C49	0.101170	0.118000	0.439900
H421	H42	0.125800	0.094600	0.440800
C501	C50	0.075500	0.059100	0.486300
H431	H43	0.082700	0.997200	0.516900
C511	C51	0.231600	0.265100	0.985100
H441	H44	0.231300	0.329600	0.023200
H451	H45	0.217300	0.225000	0.039700
C521	C52	0.029480	0.181500	0.430500
H461	H46	0.004400	0.204300	0.420600
C531	C53	0.039100	0.091400	0.487800
C541	C54	0.009500	0.031100	0.555700
H471	H47	0.022900	0.994200	0.637700
H481	H48	0.991100	0.073000	0.587900
Ni41	Ni4	0.636070	0.794250	0.338160
O131	O13	0.664960	0.677000	0.284100
O141	O14	0.679630	0.878200	0.285300
O151	O15	0.647850	0.943000	0.079600
O161	O16	0.632000	0.640600	0.065200
N71	N7	0.667390	0.783300	0.548300
N81	N8	0.593000	0.707000	0.393500
C551	C55	0.725970	0.745700	0.712300
H491	H49	0.751400	0.724900	0.726500
C561	C56	0.712040	0.990100	0.165300
H501	H50	0.710700	0.027500	0.083000
C571	C57	0.709080	0.767200	0.830000
C581	C58	0.722440	0.548700	0.252200
H511	H51	0.723800	0.580900	0.339300
C591	C59	0.704070	0.755800	0.574700
H521	H52	0.715500	0.742700	0.496600
C601	C60	0.690270	0.559900	0.152700
H531	H53	0.686600	0.522000	0.070100
C611	C61	0.744400	0.991200	0.261900
H541	H54	0.746200	0.953200	0.343800
C621	C62	0.660000	0.630600	0.168600
C631	C63	0.651580	0.803100	0.661800
H551	H55	0.625900	0.822500	0.644600
C641	C64	0.677170	0.932900	0.178200
C651	C65	0.671100	0.796300	0.801800
H561	H56	0.658900	0.811100	0.877300
C661	C66	0.557360	0.737300	0.388100
H571	H57	0.550800	0.798900	0.354200
C671	C67	0.601170	0.618000	0.439900
H581	H58	0.625800	0.594600	0.440800
C681	C68	0.575500	0.559100	0.486300
H591	H59	0.582700	0.497200	0.516900
C691	C69	0.731600	0.765100	0.985100
H601	H60	0.731300	0.829600	0.023200
H611	H61	0.717300	0.725000	0.039700
C701	C70	0.529480	0.681500	0.430500
H621	H62	0.504400	0.704300	0.420600
C711	C71	0.539100	0.591400	0.487800
C721	C72	0.509500	0.531100	0.555700
H631	H63	0.522900	0.494200	0.637700
H641	H64	0.491100	0.573000	0.587900
Ni51	Ni5	0.136070	0.705750	0.838160
O171	O17	0.164960	0.823000	0.784100
O181	O18	0.179630	0.621800	0.785300
O191	O19	0.147850	0.557000	0.579600
O201	O20	0.132000	0.859400	0.565200
N91	N9	0.167390	0.716700	0.048300
N101	N10	0.093000	0.793000	0.893500
C731	C73	0.225970	0.754300	0.212300
H651	H65	0.251400	0.775100	0.226500
C741	C74	0.212040	0.509900	0.665300
H661	H66	0.210700	0.472500	0.583000
C751	C75	0.209080	0.732800	0.330000
C761	C76	0.222440	0.951300	0.752200
H671	H67	0.223800	0.919100	0.839300
C771	C77	0.204070	0.744200	0.074700
H681	H68	0.215500	0.757300	0.996600
C781	C78	0.190270	0.940100	0.652700
H691	H69	0.186600	0.978000	0.570100
C791	C79	0.244400	0.508800	0.761900
H701	H70	0.246200	0.546800	0.843800
C801	C80	0.160000	0.869400	0.668600
C811	C81	0.151580	0.696900	0.161800
H711	H71	0.125900	0.677500	0.144600
C821	C82	0.177170	0.567100	0.678200
C831	C83	0.171100	0.703700	0.301800
H721	H72	0.158900	0.688900	0.377300
C841	C84	0.057360	0.762700	0.888100
H731	H73	0.050800	0.701100	0.854200
C851	C85	0.101170	0.882000	0.939900
H741	H74	0.125800	0.905400	0.940800
C861	C86	0.075500	0.940900	0.986300
H751	H75	0.082700	0.002800	0.016900
C871	C87	0.231600	0.734900	0.485100
H761	H76	0.231300	0.670400	0.523200
H771	H77	0.217300	0.775000	0.539700
C881	C88	0.029480	0.818500	0.930500
H781	H78	0.004400	0.795700	0.920600
C891	C89	0.039100	0.908600	0.987800
C901	C90	0.009500	0.968900	0.055700
H791	H79	0.022900	0.005800	0.137700
H801	H80	0.991100	0.927000	0.087900
Ni61	Ni6	0.636070	0.205750	0.838160
O211	O21	0.664960	0.323000	0.784100
O221	O22	0.679630	0.121800	0.785300
O231	O23	0.647850	0.057000	0.579600
O241	O24	0.632000	0.359400	0.565200
N111	N11	0.667390	0.216700	0.048300
N121	N12	0.593000	0.293000	0.893500
C911	C91	0.725970	0.254300	0.212300
H811	H81	0.751400	0.275100	0.226500
C921	C92	0.712040	0.009900	0.665300
H821	H82	0.710700	0.972500	0.583000
C931	C93	0.709080	0.232800	0.330000
C941	C94	0.722440	0.451300	0.752200
H831	H83	0.723800	0.419100	0.839300
C951	C95	0.704070	0.244200	0.074700
H841	H84	0.715500	0.257300	0.996600
C961	C96	0.690270	0.440100	0.652700
H851	H85	0.686600	0.478000	0.570100
C971	C97	0.744400	0.008800	0.761900
H861	H86	0.746200	0.046800	0.843800
C981	C98	0.660000	0.369400	0.668600
C991	C99	0.651580	0.196900	0.161800
H871	H87	0.625900	0.177500	0.144600
C1001	C100	0.677170	0.067100	0.678200
C1011	C101	0.671100	0.203700	0.301800
H881	H88	0.658900	0.188900	0.377300
C1021	C102	0.557360	0.262700	0.888100
H891	H89	0.550800	0.201100	0.854200
C1031	C103	0.601170	0.382000	0.939900
H901	H90	0.625800	0.405400	0.940800
C1041	C104	0.575500	0.440900	0.986300
H911	H91	0.582700	0.502800	0.016900
C1051	C105	0.731600	0.234900	0.485100
H921	H92	0.731300	0.170400	0.523200
H931	H93	0.717300	0.275000	0.539700
C1061	C106	0.529480	0.318500	0.930500
H941	H94	0.504400	0.295700	0.920600
C1071	C107	0.539100	0.408600	0.987800
C1081	C108	0.509500	0.468900	0.055700
H951	H95	0.522900	0.505800	0.137700
H961	H96	0.491100	0.427000	0.087900
Ni71	Ni7	0.863930	0.705750	0.661840
O251	O25	0.835040	0.823000	0.715900
O261	O26	0.820370	0.621800	0.714700
O271	O27	0.852150	0.557000	0.920400
O281	O28	0.868000	0.859400	0.934800
N131	N13	0.832610	0.716700	0.451700
N141	N14	0.907000	0.793000	0.606500
C1091	C109	0.774030	0.754300	0.287700
H971	H97	0.748600	0.775100	0.273500
C1101	C110	0.787960	0.509900	0.834700
H981	H98	0.789300	0.472500	0.917000
C1111	C111	0.790920	0.732800	0.170000
C1121	C112	0.777560	0.951300	0.747800
H991	H99	0.776200	0.919100	0.660700
C1131	C113	0.795930	0.744200	0.425300
H1001	H100	0.784500	0.757300	0.503400
C1141	C114	0.809730	0.940100	0.847300
H1011	H101	0.813400	0.978000	0.929900
C1151	C115	0.755600	0.508800	0.738100
H1021	H102	0.753800	0.546800	0.656200
C1161	C116	0.840000	0.869400	0.831400
C1171	C117	0.848420	0.696900	0.338200
H1031	H103	0.874100	0.677500	0.355400
C1181	C118	0.822830	0.567100	0.821800
C1191	C119	0.828900	0.703700	0.198200
H1041	H104	0.841100	0.688900	0.122700
C1201	C120	0.942640	0.762700	0.611900
H1051	H105	0.949200	0.701100	0.645800
C1211	C121	0.898830	0.882000	0.560100
H1061	H106	0.874200	0.905400	0.559200
C1221	C122	0.924500	0.940900	0.513700
H1071	H107	0.917300	0.002800	0.483100
C1231	C123	0.768400	0.734900	0.014900
H1081	H108	0.768700	0.670400	0.976800
H1091	H109	0.782700	0.775000	0.960300
C1241	C124	0.970520	0.818500	0.569500
H1101	H110	0.995600	0.795700	0.579400
C1251	C125	0.960900	0.908600	0.512200
C1261	C126	0.990500	0.968900	0.444300
H1111	H111	0.977100	0.005800	0.362300
H1121	H112	0.008900	0.927000	0.412100
Ni81	Ni8	0.363930	0.205750	0.661840
O291	O29	0.335040	0.323000	0.715900
O301	O30	0.320370	0.121800	0.714700
O311	O31	0.352150	0.057000	0.920400
O321	O32	0.368000	0.359400	0.934800
N151	N15	0.332610	0.216700	0.451700
N161	N16	0.407000	0.293000	0.606500
C1271	C127	0.274030	0.254300	0.287700
H1131	H113	0.248600	0.275100	0.273500
C1281	C128	0.287960	0.009900	0.834700
H1141	H114	0.289300	0.972500	0.917000
C1291	C129	0.290920	0.232800	0.170000
C1301	C130	0.277560	0.451300	0.747800
H1151	H115	0.276200	0.419100	0.660700
C1311	C131	0.295930	0.244200	0.425300
H1161	H116	0.284500	0.257300	0.503400
C1321	C132	0.309730	0.440100	0.847300
H1171	H117	0.313400	0.478000	0.929900
C1331	C133	0.255600	0.008800	0.738100
H1181	H118	0.253800	0.046800	0.656200
C1341	C134	0.340000	0.369400	0.831400
C1351	C135	0.348420	0.196900	0.338200
H1191	H119	0.374100	0.177500	0.355400
C1361	C136	0.322830	0.067100	0.821800
C1371	C137	0.328900	0.203700	0.198200
H1201	H120	0.341100	0.188900	0.122700
C1381	C138	0.442640	0.262700	0.611900
H1211	H121	0.449200	0.201100	0.645800
C1391	C139	0.398830	0.382000	0.560100
H1221	H122	0.374200	0.405400	0.559200
C1401	C140	0.424500	0.440900	0.513700
H1231	H123	0.417300	0.502800	0.483100
C1411	C141	0.268400	0.234900	0.014900
H1241	H124	0.268700	0.170400	0.976800
H1251	H125	0.282700	0.275000	0.960300
C1421	C142	0.470520	0.318500	0.569500
H1261	H126	0.495600	0.295700	0.579400
C1431	C143	0.460900	0.408600	0.512200
C1441	C144	0.490500	0.468900	0.444300
H1271	H127	0.477100	0.505800	0.362300
H1281	H128	0.508900	0.427000	0.412100
