data_acs_PM
_symmetry_space_group_name_H-M	'P1'
_cell_length_a	8.342500
_cell_length_b	11.933700
_cell_length_c	21.664100
_cell_angle_alpha	90.000000
_cell_angle_beta	90.000000
_cell_angle_gamma	90.000000
_symmetry_Int_Tables_number 1

loop_
_symmetry_equiv_pos_as_xyz
'x,y,z'

loop_
_atom_site_label
_atom_site_type_symbol
_atom_site_fract_x
_atom_site_fract_y
_atom_site_fract_z
Cu11	Cu1	0.526830	0.358910	0.501620
Cu21	Cu2	0.941420	0.356360	0.499050
Cu31	Cu3	0.759000	0.522450	0.746100
N11	N1	0.822100	0.406600	0.575100
N21	N2	0.846300	0.591800	0.926700
N31	N3	0.684200	0.600400	0.922500
C11	C1	0.303900	0.334400	0.499300
N41	N4	0.656300	0.405200	0.574200
N51	N5	0.727100	0.461400	0.663500
N61	N6	0.909400	0.569000	0.872900
C21	C2	0.652300	0.580000	0.864500
N71	N7	0.786100	0.560400	0.833400
N81	N8	0.600500	0.438400	0.626800
C31	C3	0.860800	0.441800	0.631200
N91	N9	0.167700	0.335200	0.498100
N101	N10	0.525200	0.532000	0.767600
C41	C4	0.021800	0.462300	0.660100
H11	H1	0.075080	0.523770	0.638230
C51	C5	0.498000	0.576300	0.831000
H21	H2	0.457500	0.653080	0.827370
C61	C6	0.128300	0.361200	0.658900
H31	H3	0.076820	0.300520	0.680200
H41	H4	0.228030	0.378480	0.678900
H51	H5	0.148450	0.339820	0.616900
C71	C7	0.368900	0.505300	0.862600
H61	H6	0.403300	0.428590	0.864240
H71	H7	0.270730	0.510280	0.839640
H81	H8	0.351690	0.532530	0.903780
N111	N11	0.989100	0.497600	0.725000
H91	H9	0.042450	0.560840	0.732270
H101	H10	0.028140	0.445560	0.750270
Cu41	Cu4	0.973170	0.641090	0.001620
Cu51	Cu5	0.558580	0.643640	0.999050
Cu61	Cu6	0.741000	0.477550	0.246100
N121	N12	0.677900	0.593400	0.075100
N131	N13	0.653700	0.408200	0.426700
N141	N14	0.815800	0.399600	0.422500
C81	C8	0.196100	0.665600	0.999300
N151	N15	0.843700	0.594800	0.074200
N161	N16	0.772900	0.538600	0.163500
N171	N17	0.590600	0.431000	0.372900
C91	C9	0.847700	0.420000	0.364500
N181	N18	0.713900	0.439600	0.333400
N191	N19	0.899500	0.561600	0.126800
C101	C10	0.639200	0.558200	0.131200
N201	N20	0.332300	0.664800	0.998100
N211	N21	0.974800	0.468000	0.267600
C111	C11	0.478200	0.537700	0.160100
H111	H11	0.424920	0.476230	0.138230
C121	C12	0.002000	0.423700	0.331000
H121	H12	0.042500	0.346920	0.327370
C131	C13	0.371700	0.638800	0.158900
H131	H13	0.423180	0.699480	0.180200
H141	H14	0.271970	0.621520	0.178900
H151	H15	0.351550	0.660180	0.116900
C141	C14	0.131100	0.494700	0.362600
H161	H16	0.096700	0.571410	0.364240
H171	H17	0.229270	0.489720	0.339640
H181	H18	0.148310	0.467470	0.403780
N221	N22	0.510900	0.502400	0.225000
H191	H19	0.457550	0.439160	0.232270
H201	H20	0.471860	0.554440	0.250270
Cu71	Cu7	0.473170	0.858910	0.998380
Cu81	Cu8	0.058580	0.856360	0.000950
Cu91	Cu9	0.241000	0.022450	0.753900
N231	N23	0.177900	0.906600	0.924900
N241	N24	0.153700	0.091800	0.573300
N251	N25	0.315800	0.100400	0.577500
C151	C15	0.696100	0.834400	0.000700
N261	N26	0.343700	0.905200	0.925800
N271	N27	0.272900	0.961400	0.836500
N281	N28	0.090600	0.069000	0.627100
C161	C16	0.347700	0.080000	0.635500
N291	N29	0.213900	0.060400	0.666600
N301	N30	0.399500	0.938400	0.873200
C171	C17	0.139200	0.941800	0.868800
N311	N31	0.832300	0.835200	0.001900
N321	N32	0.474800	0.032000	0.732400
C181	C18	0.978200	0.962300	0.839900
H211	H21	0.924920	0.023770	0.861770
C191	C19	0.502000	0.076300	0.669000
H221	H22	0.542500	0.153080	0.672630
C201	C20	0.871700	0.861200	0.841100
H231	H23	0.923180	0.800520	0.819800
H241	H24	0.771970	0.878480	0.821100
H251	H25	0.851550	0.839820	0.883100
C211	C21	0.631100	0.005300	0.637400
H261	H26	0.596700	0.928590	0.635760
H271	H27	0.729270	0.010280	0.660360
H281	H28	0.648310	0.032530	0.596220
N331	N33	0.010900	0.997600	0.775000
H291	H29	0.957550	0.060840	0.767730
H301	H30	0.971860	0.945560	0.749730
Cu101	Cu10	0.026830	0.141090	0.498380
Cu111	Cu11	0.441420	0.143640	0.500950
Cu121	Cu12	0.259000	0.977550	0.253900
N341	N34	0.322100	0.093400	0.424900
N351	N35	0.346300	0.908200	0.073300
N361	N36	0.184200	0.899600	0.077500
C221	C22	0.803900	0.165600	0.500700
N371	N37	0.156300	0.094800	0.425800
N381	N38	0.227100	0.038600	0.336500
N391	N39	0.409400	0.931000	0.127100
C231	C23	0.152300	0.920000	0.135500
N401	N40	0.286100	0.939600	0.166600
N411	N41	0.100500	0.061600	0.373200
C241	C24	0.360800	0.058200	0.368800
N421	N42	0.667700	0.164800	0.501900
N431	N43	0.025200	0.968000	0.232400
C251	C25	0.521800	0.037700	0.339900
H311	H31	0.575080	0.976230	0.361770
C261	C26	0.998000	0.923700	0.169000
H321	H32	0.957500	0.846920	0.172630
C271	C27	0.628300	0.138800	0.341100
H331	H33	0.576820	0.199480	0.319800
H341	H34	0.728030	0.121520	0.321100
H351	H35	0.648450	0.160180	0.383100
C281	C28	0.868900	0.994700	0.137400
H361	H36	0.903300	0.071410	0.135760
H371	H37	0.770730	0.989720	0.160360
H381	H38	0.851690	0.967470	0.096220
N441	N44	0.489100	0.002400	0.275000
H391	H39	0.542450	0.939160	0.267730
H401	H40	0.528140	0.054440	0.249730
