data_acs_PM
_symmetry_space_group_name_H-M	'P1'
_cell_length_a	12.575700
_cell_length_b	13.470500
_cell_length_c	14.240800
_cell_angle_alpha	99.641000
_cell_angle_beta	95.823000
_cell_angle_gamma	117.245000
_symmetry_Int_Tables_number 1

loop_
_symmetry_equiv_pos_as_xyz
'x,y,z'

loop_
_atom_site_label
_atom_site_type_symbol
_atom_site_fract_x
_atom_site_fract_y
_atom_site_fract_z
N11	N1	0.912500	0.592640	0.493080
N21	N2	0.825600	0.693100	0.443070
N31	N3	0.817200	0.686490	0.536950
N41	N4	0.561600	0.868330	0.742070
N51	N5	0.447000	0.847900	0.702880
N61	N6	0.501500	0.936730	0.861540
N71	N7	0.547900	0.888100	0.040500
N81	N8	0.552000	0.730200	0.041870
N91	N9	0.654500	0.813500	0.106800
N101	N10	0.138500	0.617490	0.449110
N111	N11	0.231600	0.730200	0.350620
N121	N12	0.293400	0.778830	0.445160
C11	C1	0.884400	0.636600	0.420400
H11	H1	0.905800	0.626900	0.358700
C21	C2	0.869200	0.626700	0.565200
H21	H2	0.874300	0.610900	0.627600
C31	C3	0.800500	0.853100	0.614100
C41	C4	0.915300	0.930500	0.595400
H31	H3	0.960800	0.901100	0.562600
C51	C5	0.959800	0.045700	0.624000
H41	H4	0.037900	0.096300	0.613600
C61	C6	0.891300	0.092000	0.669500
H51	H5	0.922900	0.173000	0.687700
C71	C7	0.781100	0.021100	0.687100
H61	H6	0.735100	0.052800	0.716000
C81	C8	0.733300	0.899800	0.662800
C91	C9	0.625900	0.822800	0.687670
C101	C10	0.582000	0.704700	0.669100
C111	C11	0.478900	0.629300	0.703000
H71	H7	0.436500	0.659800	0.739100
C121	C12	0.440500	0.514900	0.684400
H81	H8	0.373100	0.466200	0.709300
C131	C13	0.500200	0.467400	0.628200
H91	H9	0.470300	0.386600	0.613100
C141	C14	0.599400	0.536000	0.595600
H101	H10	0.638200	0.502500	0.558000
C151	C15	0.646700	0.657700	0.616500
C161	C16	0.752500	0.733800	0.589700
C171	C17	0.591700	0.919900	0.835800
H111	H11	0.666200	0.941500	0.878100
C181	C18	0.415400	0.890600	0.777900
H121	H12	0.339000	0.889400	0.774200
C191	C19	0.489800	0.775300	0.003200
H131	H13	0.415500	0.733700	0.956200
C201	C20	0.647800	0.906700	0.103300
H141	H14	0.707400	0.980900	0.141100
C211	C21	0.526000	0.612600	0.020900
C221	C22	0.585100	0.579200	0.955300
C231	C23	0.672300	0.657200	0.910100
H151	H15	0.691100	0.735600	0.923800
C241	C24	0.728500	0.620700	0.847900
H161	H16	0.787200	0.673600	0.819000
C251	C25	0.700100	0.503600	0.825800
H171	H17	0.740500	0.479100	0.782100
C261	C26	0.617300	0.426300	0.865400
H181	H18	0.598600	0.348000	0.848500
C271	C27	0.557700	0.461500	0.932500
C281	C28	0.399000	0.892000	0.473530
C291	C29	0.504500	0.907300	0.439500
C301	C30	0.512100	0.815700	0.378900
H191	H19	0.443200	0.740800	0.360500
C311	C31	0.616600	0.834300	0.347400
H201	H20	0.620100	0.772400	0.307300
C321	C32	0.720600	0.945700	0.374000
H211	H21	0.792600	0.958100	0.350600
C331	C33	0.717900	0.034600	0.432600
H221	H22	0.788900	0.108000	0.451000
C341	C34	0.610000	0.019400	0.467040
C351	C35	0.139600	0.633500	0.357100
H231	H23	0.079000	0.579200	0.302300
C361	C36	0.237600	0.710700	0.502700
H241	H24	0.264400	0.726400	0.570900
N131	N13	0.087500	0.407360	0.506920
N141	N14	0.174400	0.306900	0.556930
N151	N15	0.182800	0.313510	0.463050
N161	N16	0.438400	0.131670	0.257930
N171	N17	0.553000	0.152100	0.297120
N181	N18	0.498500	0.063270	0.138460
N191	N19	0.452100	0.111900	0.959500
N201	N20	0.448000	0.269800	0.958130
N211	N21	0.345500	0.186500	0.893200
N221	N22	0.861500	0.382510	0.550890
N231	N23	0.768400	0.269800	0.649380
N241	N24	0.706600	0.221170	0.554840
C371	C37	0.115600	0.363400	0.579600
H251	H25	0.094200	0.373100	0.641300
C381	C38	0.130800	0.373300	0.434800
H261	H26	0.125700	0.389100	0.372400
C391	C39	0.199500	0.146900	0.385900
C401	C40	0.084700	0.069500	0.404600
H271	H27	0.039200	0.098900	0.437400
C411	C41	0.040200	0.954300	0.376000
H281	H28	0.962100	0.903700	0.386400
C421	C42	0.108700	0.908000	0.330500
H291	H29	0.077100	0.827000	0.312300
C431	C43	0.218900	0.978900	0.312900
H301	H30	0.264900	0.947200	0.284000
C441	C44	0.266700	0.100200	0.337200
C451	C45	0.374100	0.177200	0.312330
C461	C46	0.418000	0.295300	0.330900
C471	C47	0.521100	0.370700	0.297000
H311	H31	0.563500	0.340200	0.260900
C481	C48	0.559500	0.485100	0.315600
H321	H32	0.626900	0.533800	0.290700
C491	C49	0.499800	0.532600	0.371800
H331	H33	0.529700	0.613400	0.386900
C501	C50	0.400600	0.464000	0.404400
H341	H34	0.361800	0.497500	0.442000
C511	C51	0.353300	0.342300	0.383500
C521	C52	0.247500	0.266200	0.410300
C531	C53	0.408300	0.080100	0.164200
H351	H35	0.333800	0.058500	0.121900
C541	C54	0.584600	0.109400	0.222100
H361	H36	0.661000	0.110600	0.225800
C551	C55	0.510200	0.224700	0.996800
H371	H37	0.584500	0.266300	0.043800
C561	C56	0.352200	0.093300	0.896700
H381	H38	0.292600	0.019100	0.858900
C571	C57	0.474000	0.387400	0.979100
C581	C58	0.414900	0.420800	0.044700
C591	C59	0.327700	0.342800	0.089900
H391	H39	0.308900	0.264400	0.076200
C601	C60	0.271500	0.379300	0.152100
H401	H40	0.212800	0.326400	0.181000
C611	C61	0.299900	0.496400	0.174200
H411	H41	0.259500	0.520900	0.217900
C621	C62	0.382700	0.573700	0.134600
H421	H42	0.401400	0.652000	0.151500
C631	C63	0.442300	0.538500	0.067500
C641	C64	0.601000	0.108000	0.526470
C651	C65	0.495500	0.092700	0.560500
C661	C66	0.487900	0.184300	0.621100
H431	H43	0.556800	0.259200	0.639500
C671	C67	0.383400	0.165700	0.652600
H441	H44	0.379900	0.227600	0.692700
C681	C68	0.279400	0.054300	0.626000
H451	H45	0.207400	0.041900	0.649400
C691	C69	0.282100	0.965400	0.567400
H461	H46	0.211100	0.892000	0.549000
C701	C70	0.390000	0.980600	0.532960
C711	C71	0.860400	0.366500	0.642900
H471	H47	0.921000	0.420800	0.697700
C721	C72	0.762400	0.289300	0.497300
H481	H48	0.735600	0.273600	0.429100
Cu11	Cu1	0.000000	0.500000	0.500000
Cu21	Cu2	0.500000	0.000000	0.000000
