data_ACUBAB_clean_PM
_symmetry_space_group_name_H-M	'P1'
_cell_length_a	8.877500
_cell_length_b	8.877500
_cell_length_c	23.775000
_cell_angle_alpha	90.000000
_cell_angle_beta	90.000000
_cell_angle_gamma	120.000000
_symmetry_Int_Tables_number 1

loop_
_symmetry_equiv_pos_as_xyz
'x,y,z'

loop_
_atom_site_label
_atom_site_type_symbol
_atom_site_fract_x
_atom_site_fract_y
_atom_site_fract_z
Zn11	Zn1	0.039980	0.333270	0.544080
P11	P1	0.964690	0.645610	0.582750
O11	O1	0.050500	0.543600	0.565630
O21	O2	0.855000	0.650700	0.531860
O31	O3	0.103200	0.832300	0.596610
O41	O4	0.842400	0.568800	0.633140
Zn21	Zn2	0.666730	0.706710	0.544080
P21	P2	0.354390	0.319080	0.582750
O51	O5	0.456400	0.506900	0.565630
O61	O6	0.349300	0.204300	0.531860
O71	O7	0.167700	0.270900	0.596610
O81	O8	0.431200	0.273600	0.633140
Zn31	Zn3	0.293290	0.960020	0.544080
P31	P3	0.680920	0.035310	0.582750
O91	O9	0.493100	0.949500	0.565630
O101	O10	0.795700	0.145000	0.531860
O111	O11	0.729100	0.896800	0.596610
O121	O12	0.726400	0.157600	0.633140
Zn41	Zn4	0.666730	0.960020	0.955920
P41	P4	0.354390	0.035310	0.917250
O131	O13	0.456400	0.949500	0.934370
O141	O14	0.349300	0.145000	0.968140
O151	O15	0.167700	0.896800	0.903390
O161	O16	0.431200	0.157600	0.866860
Zn51	Zn5	0.293290	0.333270	0.955920
P51	P5	0.680920	0.645610	0.917250
O171	O17	0.493100	0.543600	0.934370
O181	O18	0.795700	0.650700	0.968140
O191	O19	0.729100	0.832300	0.903390
O201	O20	0.726400	0.568800	0.866860
Zn61	Zn6	0.039980	0.706710	0.955920
P61	P6	0.964690	0.319080	0.917250
O211	O21	0.050500	0.506900	0.934370
O221	O22	0.855000	0.204300	0.968140
O231	O23	0.103200	0.270900	0.903390
O241	O24	0.842400	0.273600	0.866860
Zn71	Zn7	0.960020	0.666730	0.455920
P71	P7	0.035310	0.354390	0.417250
O251	O25	0.949500	0.456400	0.434370
O261	O26	0.145000	0.349300	0.468140
O271	O27	0.896800	0.167700	0.403390
O281	O28	0.157600	0.431200	0.366860
Zn81	Zn8	0.333270	0.293290	0.455920
P81	P8	0.645610	0.680920	0.417250
O291	O29	0.543600	0.493100	0.434370
O301	O30	0.650700	0.795700	0.468140
O311	O31	0.832300	0.729100	0.403390
O321	O32	0.568800	0.726400	0.366860
Zn91	Zn9	0.706710	0.039980	0.455920
P91	P9	0.319080	0.964690	0.417250
O331	O33	0.506900	0.050500	0.434370
O341	O34	0.204300	0.855000	0.468140
O351	O35	0.270900	0.103200	0.403390
O361	O36	0.273600	0.842400	0.366860
Zn101	Zn10	0.333270	0.039980	0.044080
P101	P10	0.645610	0.964690	0.082750
O371	O37	0.543600	0.050500	0.065630
O381	O38	0.650700	0.855000	0.031860
O391	O39	0.832300	0.103200	0.096610
O401	O40	0.568800	0.842400	0.133140
Zn111	Zn11	0.706710	0.666730	0.044080
P111	P11	0.319080	0.354390	0.082750
O411	O41	0.506900	0.456400	0.065630
O421	O42	0.204300	0.349300	0.031860
O431	O43	0.270900	0.167700	0.096610
O441	O44	0.273600	0.431200	0.133140
Zn121	Zn12	0.960020	0.293290	0.044080
P121	P12	0.035310	0.680920	0.082750
O451	O45	0.949500	0.493100	0.065630
O461	O46	0.145000	0.795700	0.031860
O471	O47	0.896800	0.729100	0.096610
O481	O48	0.157600	0.726400	0.133140
Zn131	Zn13	0.666670	0.333330	0.649380
Zn141	Zn14	0.666670	0.333330	0.850620
Zn151	Zn15	0.333330	0.666670	0.350620
Zn161	Zn16	0.333330	0.666670	0.149380
Cl11	Cl1	0.666670	0.333330	0.750000
Cl21	Cl2	0.333330	0.666670	0.250000
