data_ADABUE_clean_PM
_symmetry_space_group_name_H-M	'P1'
_cell_length_a	9.274100
_cell_length_b	9.389900
_cell_length_c	15.056700
_cell_angle_alpha	108.169000
_cell_angle_beta	92.524400
_cell_angle_gamma	90.000000
_symmetry_Int_Tables_number 1

loop_
_symmetry_equiv_pos_as_xyz
'x,y,z'

loop_
_atom_site_label
_atom_site_type_symbol
_atom_site_fract_x
_atom_site_fract_y
_atom_site_fract_z
Cu11	Cu1	0.879960	0.361790	0.384920
Cu21	Cu2	0.620040	0.976870	0.615080
Cu31	Cu3	0.120040	0.638210	0.615080
Cu41	Cu4	0.379960	0.023130	0.384920
H11	H1	0.143100	0.704400	0.254000
H21	H2	0.035600	0.631700	0.366400
H31	H3	0.043400	0.298600	0.070200
H41	H4	0.930700	0.240000	0.188000
H51	H5	0.108300	0.603400	0.042600
H61	H6	0.254400	0.632700	0.104000
H71	H7	0.322400	0.385200	0.030400
H81	H8	0.356900	0.450400	0.746000
H91	H9	0.464400	0.265300	0.633600
H101	H10	0.456600	0.228400	0.929800
H111	H11	0.569300	0.052000	0.812000
H121	H12	0.391700	0.560800	0.957400
H131	H13	0.245600	0.528700	0.896000
H141	H14	0.177600	0.354800	0.969600
H151	H15	0.856900	0.295600	0.746000
H161	H16	0.964400	0.368300	0.633600
H171	H17	0.956600	0.701400	0.929800
H181	H18	0.069300	0.760000	0.812000
H191	H19	0.891700	0.396600	0.957400
H201	H20	0.745600	0.367300	0.896000
H211	H21	0.677600	0.614800	0.969600
H221	H22	0.643100	0.549600	0.254000
H231	H23	0.535600	0.734700	0.366400
H241	H24	0.543400	0.771600	0.070200
H251	H25	0.430700	0.948000	0.188000
H261	H26	0.608300	0.439200	0.042600
H271	H27	0.754400	0.471300	0.104000
H281	H28	0.822400	0.645200	0.030400
C11	C1	0.102200	0.607700	0.238800
C21	C2	0.036800	0.563800	0.305400
C31	C3	0.042600	0.369100	0.130200
C41	C4	0.108400	0.509000	0.147800
C51	C5	0.976200	0.334200	0.201400
C61	C6	0.180400	0.556500	0.073600
C71	C7	0.140400	0.201300	0.406400
C81	C8	0.099200	0.067600	0.324400
C91	C9	0.397800	0.368900	0.761200
C101	C10	0.463200	0.258400	0.694600
C111	C11	0.457400	0.238900	0.869800
C121	C12	0.391600	0.361200	0.852200
C131	C13	0.523800	0.132800	0.798600
C141	C14	0.319600	0.482900	0.926400
C151	C15	0.359600	0.794900	0.593600
C161	C16	0.400800	0.743200	0.675600
C171	C17	0.897800	0.392300	0.761200
C181	C18	0.963200	0.436200	0.694600
C191	C19	0.957400	0.630900	0.869800
C201	C20	0.891600	0.491000	0.852200
C211	C21	0.023800	0.665800	0.798600
C221	C22	0.819600	0.443500	0.926400
C231	C23	0.859600	0.798700	0.593600
C241	C24	0.900800	0.932400	0.675600
C251	C25	0.602200	0.631100	0.238800
C261	C26	0.536800	0.741600	0.305400
C271	C27	0.542600	0.761100	0.130200
C281	C28	0.608400	0.638800	0.147800
C291	C29	0.476200	0.867200	0.201400
C301	C30	0.680400	0.517100	0.073600
C311	C31	0.640400	0.205100	0.406400
C321	C32	0.599200	0.256800	0.324400
C331	C33	0.250000	0.430900	0.000000
C341	C34	0.750000	0.569100	0.000000
N11	N1	0.974000	0.428770	0.288540
N21	N2	0.072300	0.327680	0.443160
N31	N3	0.159200	0.411330	0.512460
N41	N4	0.279700	0.338050	0.517100
N51	N5	0.269000	0.204870	0.449940
N61	N6	0.526000	0.140230	0.711460
N71	N7	0.427700	0.884520	0.556840
N81	N8	0.340800	0.898870	0.487540
N91	N9	0.220300	0.820950	0.482900
N101	N10	0.231000	0.754930	0.550060
N111	N11	0.026000	0.571230	0.711460
N121	N12	0.927700	0.672320	0.556840
N131	N13	0.840800	0.588670	0.487540
N141	N14	0.720300	0.661950	0.482900
N151	N15	0.731000	0.795130	0.550060
N161	N16	0.474000	0.859770	0.288540
N171	N17	0.572300	0.115480	0.443160
N181	N18	0.659200	0.101130	0.512460
N191	N19	0.779700	0.179050	0.517100
N201	N20	0.769000	0.245070	0.449940
O11	O1	0.198300	0.971100	0.305400
O21	O2	0.979600	0.062820	0.285040
O31	O3	0.301700	0.665700	0.694600
O41	O4	0.520400	0.777780	0.714960
O51	O5	0.801700	0.028900	0.694600
O61	O6	0.020400	0.937180	0.714960
O71	O7	0.698300	0.334300	0.305400
O81	O8	0.479600	0.222220	0.285040
