data_ADASOP_clean_PM
_symmetry_space_group_name_H-M	'P1'
_cell_length_a	29.302600
_cell_length_b	29.302600
_cell_length_c	29.384700
_cell_angle_alpha	60.092300
_cell_angle_beta	60.092300
_cell_angle_gamma	89.999900
_symmetry_Int_Tables_number 1

loop_
_symmetry_equiv_pos_as_xyz
'x,y,z'

loop_
_atom_site_label
_atom_site_type_symbol
_atom_site_fract_x
_atom_site_fract_y
_atom_site_fract_z
Zn11	Zn1	0.009470	0.744020	0.267180
Zn21	Zn2	0.644980	0.618470	0.368400
Zn31	Zn3	0.723350	0.988800	0.267180
Zn41	Zn4	0.986620	0.013130	0.368400
Zn51	Zn5	0.744020	0.723350	0.267180
Zn61	Zn6	0.618470	0.986620	0.368400
Zn71	Zn7	0.988800	0.009470	0.267180
Zn81	Zn8	0.013130	0.644980	0.368400
Zn91	Zn9	0.990530	0.255980	0.732820
Zn101	Zn10	0.355020	0.381530	0.631600
Zn111	Zn11	0.276650	0.011200	0.732820
Zn121	Zn12	0.013380	0.986870	0.631600
Zn131	Zn13	0.255980	0.276650	0.732820
Zn141	Zn14	0.381530	0.013380	0.631600
Zn151	Zn15	0.011200	0.990530	0.732820
Zn161	Zn16	0.986870	0.355020	0.631600
Zn171	Zn17	0.265290	0.020060	0.000000
Zn181	Zn18	0.632650	0.974550	0.000000
Zn191	Zn19	0.734710	0.979940	0.000000
Zn201	Zn20	0.367350	0.025450	0.000000
Zn211	Zn21	0.020060	0.734710	0.000000
Zn221	Zn22	0.974550	0.367350	0.000000
Zn231	Zn23	0.979940	0.265290	0.000000
Zn241	Zn24	0.025450	0.632650	0.000000
H11	H1	0.180000	0.850000	0.150400
H21	H2	0.322300	0.848100	0.141200
H31	H3	0.187700	0.704000	0.268200
H41	H4	0.259900	0.668800	0.262000
H51	H5	0.235200	0.681000	0.315800
H61	H6	0.682300	0.806800	0.157400
H71	H7	0.550300	0.665400	0.283600
H81	H8	0.554400	0.800900	0.140200
H91	H9	0.480700	0.739400	0.173200
H101	H10	0.460000	0.756700	0.222600
H111	H11	0.157200	0.326100	0.655200
H121	H12	0.165800	0.449400	0.505000
H131	H13	0.297300	0.458800	0.514800
H141	H14	0.257400	0.593000	0.370400
H151	H15	0.342300	0.523500	0.396600
H161	H16	0.318900	0.545800	0.441200
H171	H17	0.377600	0.739600	0.212600
H181	H18	0.411900	0.623000	0.326600
H191	H19	0.669600	0.999600	0.150400
H201	H20	0.536500	0.010700	0.141200
H211	H21	0.544100	0.027800	0.268200
H221	H22	0.478100	0.069200	0.262000
H231	H23	0.449000	0.003200	0.315800
H241	H24	0.160300	0.035800	0.157400
H251	H25	0.166100	0.051000	0.283600
H261	H26	0.305400	0.058900	0.140200
H271	H27	0.346100	0.087400	0.173200
H281	H28	0.317400	0.020700	0.222600
H291	H29	0.187600	0.018700	0.655200
H301	H30	0.329200	0.045600	0.505000
H311	H31	0.187900	0.026400	0.514800
H321	H32	0.372200	0.036600	0.370400
H331	H33	0.261100	0.079900	0.396600
H341	H34	0.239900	0.013000	0.441200
H351	H35	0.409800	0.047800	0.212600
H361	H36	0.261500	0.050400	0.326600
H371	H37	0.850000	0.669600	0.150400
H381	H38	0.848100	0.536500	0.141200
H391	H39	0.704000	0.544100	0.268200
H401	H40	0.668800	0.478100	0.262000
H411	H41	0.681000	0.449000	0.315800
H421	H42	0.806800	0.160300	0.157400
H431	H43	0.665400	0.166100	0.283600
H441	H44	0.800900	0.305400	0.140200
H451	H45	0.739400	0.346100	0.173200
H461	H46	0.756700	0.317400	0.222600
H471	H47	0.326100	0.187600	0.655200
H481	H48	0.449400	0.329200	0.505000
H491	H49	0.458800	0.187900	0.514800
H501	H50	0.593000	0.372200	0.370400
H511	H51	0.523500	0.261100	0.396600
H521	H52	0.545800	0.239900	0.441200
H531	H53	0.739600	0.409800	0.212600
H541	H54	0.623000	0.261500	0.326600
H551	H55	0.999600	0.180000	0.150400
H561	H56	0.010700	0.322300	0.141200
H571	H57	0.027800	0.187700	0.268200
H581	H58	0.069200	0.259900	0.262000
H591	H59	0.003200	0.235200	0.315800
H601	H60	0.035800	0.682300	0.157400
H611	H61	0.051000	0.550300	0.283600
H621	H62	0.058900	0.554400	0.140200
H631	H63	0.087400	0.480700	0.173200
H641	H64	0.020700	0.460000	0.222600
H651	H65	0.018700	0.157200	0.655200
H661	H66	0.045600	0.165800	0.505000
H671	H67	0.026400	0.297300	0.514800
H681	H68	0.036600	0.257400	0.370400
H691	H69	0.079900	0.342300	0.396600
H701	H70	0.013000	0.318900	0.441200
H711	H71	0.047800	0.377600	0.212600
H721	H72	0.050400	0.411900	0.326600
H731	H73	0.820000	0.150000	0.849600
H741	H74	0.677700	0.151900	0.858800
H751	H75	0.812300	0.296000	0.731800
H761	H76	0.740100	0.331200	0.738000
H771	H77	0.764800	0.319000	0.684200
H781	H78	0.317700	0.193200	0.842600
H791	H79	0.449700	0.334600	0.716400
H801	H80	0.445600	0.199100	0.859800
H811	H81	0.519300	0.260600	0.826800
H821	H82	0.540000	0.243300	0.777400
H831	H83	0.842800	0.673900	0.344800
H841	H84	0.834200	0.550600	0.495000
H851	H85	0.702700	0.541200	0.485200
H861	H86	0.742600	0.407000	0.629600
H871	H87	0.657700	0.476500	0.603400
H881	H88	0.681100	0.454200	0.558800
H891	H89	0.622400	0.260400	0.787400
H901	H90	0.588100	0.377000	0.673400
H911	H91	0.330400	0.000400	0.849600
H921	H92	0.463500	0.989300	0.858800
H931	H93	0.455900	0.972200	0.731800
H941	H94	0.521900	0.930800	0.738000
H951	H95	0.551000	0.996800	0.684200
H961	H96	0.839700	0.964200	0.842600
H971	H97	0.833900	0.949000	0.716400
H981	H98	0.694600	0.941100	0.859800
H991	H99	0.653900	0.912600	0.826800
H1001	H100	0.682600	0.979300	0.777400
H1011	H101	0.812400	0.981300	0.344800
H1021	H102	0.670800	0.954400	0.495000
H1031	H103	0.812100	0.973600	0.485200
H1041	H104	0.627800	0.963400	0.629600
H1051	H105	0.738900	0.920100	0.603400
H1061	H106	0.760100	0.987000	0.558800
H1071	H107	0.590200	0.952200	0.787400
H1081	H108	0.738500	0.949600	0.673400
H1091	H109	0.150000	0.330400	0.849600
H1101	H110	0.151900	0.463500	0.858800
H1111	H111	0.296000	0.455900	0.731800
H1121	H112	0.331200	0.521900	0.738000
H1131	H113	0.319000	0.551000	0.684200
H1141	H114	0.193200	0.839700	0.842600
H1151	H115	0.334600	0.833900	0.716400
H1161	H116	0.199100	0.694600	0.859800
H1171	H117	0.260600	0.653900	0.826800
H1181	H118	0.243300	0.682600	0.777400
H1191	H119	0.673900	0.812400	0.344800
H1201	H120	0.550600	0.670800	0.495000
H1211	H121	0.541200	0.812100	0.485200
H1221	H122	0.407000	0.627800	0.629600
H1231	H123	0.476500	0.738900	0.603400
H1241	H124	0.454200	0.760100	0.558800
H1251	H125	0.260400	0.590200	0.787400
H1261	H126	0.377000	0.738500	0.673400
H1271	H127	0.000400	0.820000	0.849600
H1281	H128	0.989300	0.677700	0.858800
H1291	H129	0.972200	0.812300	0.731800
H1301	H130	0.930800	0.740100	0.738000
H1311	H131	0.996800	0.764800	0.684200
H1321	H132	0.964200	0.317700	0.842600
H1331	H133	0.949000	0.449700	0.716400
H1341	H134	0.941100	0.445600	0.859800
H1351	H135	0.912600	0.519300	0.826800
H1361	H136	0.979300	0.540000	0.777400
H1371	H137	0.981300	0.842800	0.344800
H1381	H138	0.954400	0.834200	0.495000
H1391	H139	0.973600	0.702700	0.485200
H1401	H140	0.963400	0.742600	0.629600
H1411	H141	0.920100	0.657700	0.603400
H1421	H142	0.987000	0.681100	0.558800
H1431	H143	0.952200	0.622400	0.787400
H1441	H144	0.949600	0.588100	0.673400
C11	C1	0.113600	0.746700	0.252800
C21	C2	0.174200	0.774500	0.218600
C31	C3	0.200100	0.830600	0.166600
C41	C4	0.255600	0.858800	0.138000
C51	C5	0.280100	0.919000	0.087600
C61	C6	0.284400	0.830300	0.160600
C71	C7	0.256500	0.773300	0.214000
C81	C8	0.202800	0.743500	0.239000
C91	C9	0.269700	0.689000	0.276400
C101	C10	0.646700	0.872300	0.090800
C111	C11	0.622300	0.813700	0.141800
C121	C12	0.646500	0.787300	0.172800
C131	C13	0.619700	0.732900	0.225800
C141	C14	0.645500	0.706000	0.260000
C151	C15	0.568400	0.703200	0.247600
C161	C16	0.544000	0.729600	0.215800
C171	C17	0.570700	0.783700	0.162800
C181	C18	0.462500	0.724900	0.218800
C191	C19	0.257000	0.364300	0.625000
C201	C20	0.229400	0.388800	0.592600
C211	C21	0.176400	0.362700	0.616800
C221	C22	0.150100	0.385900	0.589200
C231	C23	0.091300	0.357600	0.616800
C241	C24	0.181400	0.434500	0.528800
C251	C25	0.235400	0.462100	0.501800
C261	C26	0.260000	0.439800	0.533200
C271	C27	0.335100	0.601200	0.352000
C281	C28	0.294900	0.617400	0.342000
C291	C29	0.316600	0.543100	0.410000
C301	C30	0.366600	0.703100	0.248600
C311	C31	0.404900	0.683900	0.259600
C321	C32	0.386900	0.634100	0.314800
C331	C33	0.310500	0.668400	0.291400
C341	C34	0.633600	0.000500	0.252800
C351	C35	0.607200	0.006900	0.218600
C361	C36	0.633300	0.002800	0.166600
C371	C37	0.606400	0.003200	0.138000
C381	C38	0.632300	0.993400	0.087600
C391	C39	0.555000	0.009100	0.160600
C401	C40	0.529500	0.012700	0.214000
C411	C41	0.558200	0.017500	0.239000
C421	C42	0.453900	0.034600	0.276400
C431	C43	0.262500	0.036900	0.090800
C441	C44	0.235900	0.044500	0.141800
C451	C45	0.180700	0.039900	0.172800
C461	C46	0.154500	0.041300	0.225800
C471	C47	0.094500	0.034000	0.260000
C481	C48	0.184000	0.049200	0.247600
C491	C49	0.240200	0.054600	0.215800
C501	C50	0.266500	0.053500	0.162800
C511	C51	0.318700	0.056300	0.218800
C521	C52	0.118000	0.010700	0.625000
C531	C53	0.178000	0.018600	0.592600
C541	C54	0.206800	0.020500	0.616800
C551	C55	0.260700	0.024900	0.589200
C561	C56	0.291900	0.025600	0.616800
C571	C57	0.289800	0.036700	0.528800
C581	C58	0.262800	0.036100	0.501800
C591	C59	0.206800	0.027000	0.533200
C601	C60	0.312900	0.046800	0.352000
C611	C61	0.363100	0.040600	0.342000
C621	C62	0.273400	0.046900	0.410000
C631	C63	0.384800	0.048300	0.248600
C641	C64	0.335500	0.056500	0.259600
C651	C65	0.298300	0.051100	0.314800
C661	C66	0.398100	0.040200	0.291400
C671	C67	0.746700	0.633600	0.252800
C681	C68	0.774500	0.607200	0.218600
C691	C69	0.830600	0.633300	0.166600
C701	C70	0.858800	0.606400	0.138000
C711	C71	0.919000	0.632300	0.087600
C721	C72	0.830300	0.555000	0.160600
C731	C73	0.773300	0.529500	0.214000
C741	C74	0.743500	0.558200	0.239000
C751	C75	0.689000	0.453900	0.276400
C761	C76	0.872300	0.262500	0.090800
C771	C77	0.813700	0.235900	0.141800
C781	C78	0.787300	0.180700	0.172800
C791	C79	0.732900	0.154500	0.225800
C801	C80	0.706000	0.094500	0.260000
C811	C81	0.703200	0.184000	0.247600
C821	C82	0.729600	0.240200	0.215800
C831	C83	0.783700	0.266500	0.162800
C841	C84	0.724900	0.318700	0.218800
C851	C85	0.364300	0.118000	0.625000
C861	C86	0.388800	0.178000	0.592600
C871	C87	0.362700	0.206800	0.616800
C881	C88	0.385900	0.260700	0.589200
C891	C89	0.357600	0.291900	0.616800
C901	C90	0.434500	0.289800	0.528800
C911	C91	0.462100	0.262800	0.501800
C921	C92	0.439800	0.206800	0.533200
C931	C93	0.601200	0.312900	0.352000
C941	C94	0.617400	0.363100	0.342000
C951	C95	0.543100	0.273400	0.410000
C961	C96	0.703100	0.384800	0.248600
C971	C97	0.683900	0.335500	0.259600
C981	C98	0.634100	0.298300	0.314800
C991	C99	0.668400	0.398100	0.291400
C1001	C100	0.000500	0.113600	0.252800
C1011	C101	0.006900	0.174200	0.218600
C1021	C102	0.002800	0.200100	0.166600
C1031	C103	0.003200	0.255600	0.138000
C1041	C104	0.993400	0.280100	0.087600
C1051	C105	0.009100	0.284400	0.160600
C1061	C106	0.012700	0.256500	0.214000
C1071	C107	0.017500	0.202800	0.239000
C1081	C108	0.034600	0.269700	0.276400
C1091	C109	0.036900	0.646700	0.090800
C1101	C110	0.044500	0.622300	0.141800
C1111	C111	0.039900	0.646500	0.172800
C1121	C112	0.041300	0.619700	0.225800
C1131	C113	0.034000	0.645500	0.260000
C1141	C114	0.049200	0.568400	0.247600
C1151	C115	0.054600	0.544000	0.215800
C1161	C116	0.053500	0.570700	0.162800
C1171	C117	0.056300	0.462500	0.218800
C1181	C118	0.010700	0.257000	0.625000
C1191	C119	0.018600	0.229400	0.592600
C1201	C120	0.020500	0.176400	0.616800
C1211	C121	0.024900	0.150100	0.589200
C1221	C122	0.025600	0.091300	0.616800
C1231	C123	0.036700	0.181400	0.528800
C1241	C124	0.036100	0.235400	0.501800
C1251	C125	0.027000	0.260000	0.533200
C1261	C126	0.046800	0.335100	0.352000
C1271	C127	0.040600	0.294900	0.342000
C1281	C128	0.046900	0.316600	0.410000
C1291	C129	0.048300	0.366600	0.248600
C1301	C130	0.056500	0.404900	0.259600
C1311	C131	0.051100	0.386900	0.314800
C1321	C132	0.040200	0.310500	0.291400
C1331	C133	0.886400	0.253300	0.747200
C1341	C134	0.825800	0.225500	0.781400
C1351	C135	0.799900	0.169400	0.833400
C1361	C136	0.744400	0.141200	0.862000
C1371	C137	0.719900	0.081000	0.912400
C1381	C138	0.715600	0.169700	0.839400
C1391	C139	0.743500	0.226700	0.786000
C1401	C140	0.797200	0.256500	0.761000
C1411	C141	0.730300	0.311000	0.723600
C1421	C142	0.353300	0.127700	0.909200
C1431	C143	0.377700	0.186300	0.858200
C1441	C144	0.353500	0.212700	0.827200
C1451	C145	0.380300	0.267100	0.774200
C1461	C146	0.354500	0.294000	0.740000
C1471	C147	0.431600	0.296800	0.752400
C1481	C148	0.456000	0.270400	0.784200
C1491	C149	0.429300	0.216300	0.837200
C1501	C150	0.537500	0.275100	0.781200
C1511	C151	0.743000	0.635700	0.375000
C1521	C152	0.770600	0.611200	0.407400
C1531	C153	0.823600	0.637300	0.383200
C1541	C154	0.849900	0.614100	0.410800
C1551	C155	0.908700	0.642400	0.383200
C1561	C156	0.818600	0.565500	0.471200
C1571	C157	0.764600	0.537900	0.498200
C1581	C158	0.740000	0.560200	0.466800
C1591	C159	0.664900	0.398800	0.648000
C1601	C160	0.705100	0.382600	0.658000
C1611	C161	0.683400	0.456900	0.590000
C1621	C162	0.633400	0.296900	0.751400
C1631	C163	0.595100	0.316100	0.740400
C1641	C164	0.613100	0.365900	0.685200
C1651	C165	0.689500	0.331600	0.708600
C1661	C166	0.366400	0.999500	0.747200
C1671	C167	0.392800	0.993100	0.781400
C1681	C168	0.366700	0.997200	0.833400
C1691	C169	0.393600	0.996800	0.862000
C1701	C170	0.367700	0.006600	0.912400
C1711	C171	0.445000	0.990900	0.839400
C1721	C172	0.470500	0.987300	0.786000
C1731	C173	0.441800	0.982500	0.761000
C1741	C174	0.546100	0.965400	0.723600
C1751	C175	0.737500	0.963100	0.909200
C1761	C176	0.764100	0.955500	0.858200
C1771	C177	0.819300	0.960100	0.827200
C1781	C178	0.845500	0.958700	0.774200
C1791	C179	0.905500	0.966000	0.740000
C1801	C180	0.816000	0.950800	0.752400
C1811	C181	0.759800	0.945400	0.784200
C1821	C182	0.733500	0.946500	0.837200
C1831	C183	0.681300	0.943700	0.781200
C1841	C184	0.882000	0.989300	0.375000
C1851	C185	0.822000	0.981400	0.407400
C1861	C186	0.793200	0.979500	0.383200
C1871	C187	0.739300	0.975100	0.410800
C1881	C188	0.708100	0.974400	0.383200
C1891	C189	0.710200	0.963300	0.471200
C1901	C190	0.737200	0.963900	0.498200
C1911	C191	0.793200	0.973000	0.466800
C1921	C192	0.687100	0.953200	0.648000
C1931	C193	0.636900	0.959400	0.658000
C1941	C194	0.726600	0.953100	0.590000
C1951	C195	0.615200	0.951700	0.751400
C1961	C196	0.664500	0.943500	0.740400
C1971	C197	0.701700	0.948900	0.685200
C1981	C198	0.601900	0.959800	0.708600
C1991	C199	0.253300	0.366400	0.747200
C2001	C200	0.225500	0.392800	0.781400
C2011	C201	0.169400	0.366700	0.833400
C2021	C202	0.141200	0.393600	0.862000
C2031	C203	0.081000	0.367700	0.912400
C2041	C204	0.169700	0.445000	0.839400
C2051	C205	0.226700	0.470500	0.786000
C2061	C206	0.256500	0.441800	0.761000
C2071	C207	0.311000	0.546100	0.723600
C2081	C208	0.127700	0.737500	0.909200
C2091	C209	0.186300	0.764100	0.858200
C2101	C210	0.212700	0.819300	0.827200
C2111	C211	0.267100	0.845500	0.774200
C2121	C212	0.294000	0.905500	0.740000
C2131	C213	0.296800	0.816000	0.752400
C2141	C214	0.270400	0.759800	0.784200
C2151	C215	0.216300	0.733500	0.837200
C2161	C216	0.275100	0.681300	0.781200
C2171	C217	0.635700	0.882000	0.375000
C2181	C218	0.611200	0.822000	0.407400
C2191	C219	0.637300	0.793200	0.383200
C2201	C220	0.614100	0.739300	0.410800
C2211	C221	0.642400	0.708100	0.383200
C2221	C222	0.565500	0.710200	0.471200
C2231	C223	0.537900	0.737200	0.498200
C2241	C224	0.560200	0.793200	0.466800
C2251	C225	0.398800	0.687100	0.648000
C2261	C226	0.382600	0.636900	0.658000
C2271	C227	0.456900	0.726600	0.590000
C2281	C228	0.296900	0.615200	0.751400
C2291	C229	0.316100	0.664500	0.740400
C2301	C230	0.365900	0.701700	0.685200
C2311	C231	0.331600	0.601900	0.708600
C2321	C232	0.999500	0.886400	0.747200
C2331	C233	0.993100	0.825800	0.781400
C2341	C234	0.997200	0.799900	0.833400
C2351	C235	0.996800	0.744400	0.862000
C2361	C236	0.006600	0.719900	0.912400
C2371	C237	0.990900	0.715600	0.839400
C2381	C238	0.987300	0.743500	0.786000
C2391	C239	0.982500	0.797200	0.761000
C2401	C240	0.965400	0.730300	0.723600
C2411	C241	0.963100	0.353300	0.909200
C2421	C242	0.955500	0.377700	0.858200
C2431	C243	0.960100	0.353500	0.827200
C2441	C244	0.958700	0.380300	0.774200
C2451	C245	0.966000	0.354500	0.740000
C2461	C246	0.950800	0.431600	0.752400
C2471	C247	0.945400	0.456000	0.784200
C2481	C248	0.946500	0.429300	0.837200
C2491	C249	0.943700	0.537500	0.781200
C2501	C250	0.989300	0.743000	0.375000
C2511	C251	0.981400	0.770600	0.407400
C2521	C252	0.979500	0.823600	0.383200
C2531	C253	0.975100	0.849900	0.410800
C2541	C254	0.974400	0.908700	0.383200
C2551	C255	0.963300	0.818600	0.471200
C2561	C256	0.963900	0.764600	0.498200
C2571	C257	0.973000	0.740000	0.466800
C2581	C258	0.953200	0.664900	0.648000
C2591	C259	0.959400	0.705100	0.658000
C2601	C260	0.953100	0.683400	0.590000
C2611	C261	0.951700	0.633400	0.751400
C2621	C262	0.943500	0.595100	0.740400
C2631	C263	0.948900	0.613100	0.685200
C2641	C264	0.959800	0.689500	0.708600
O11	O1	0.253920	0.942570	0.065500
O21	O2	0.329540	0.942350	0.067180
O31	O3	0.090010	0.774980	0.228620
O41	O4	0.091530	0.697660	0.302940
O51	O5	0.292100	0.747200	0.227800
O61	O6	0.692880	0.733660	0.237180
O71	O7	0.615780	0.657400	0.314780
O81	O8	0.695370	0.897440	0.068680
O91	O9	0.621030	0.896370	0.065700
O101	O10	0.493600	0.696600	0.241000
O111	O11	0.303270	0.392200	0.602440
O121	O12	0.227690	0.314060	0.678680
O131	O13	0.067630	0.311240	0.669320
O141	O14	0.068830	0.385790	0.591100
O151	O15	0.261700	0.512000	0.440000
O161	O16	0.680580	0.991930	0.065500
O171	O17	0.603280	0.990470	0.067180
O181	O18	0.681370	0.996400	0.228620
O191	O19	0.605530	0.999400	0.302940
O201	O20	0.480100	0.025000	0.227800
O211	O21	0.069940	0.029160	0.237180
O221	O22	0.069440	0.027820	0.314780
O231	O23	0.235950	0.033880	0.068680
O241	O24	0.313270	0.037930	0.065700
O251	O25	0.265400	0.062400	0.241000
O261	O26	0.094290	0.005360	0.602440
O271	O27	0.093630	0.007260	0.678680
O281	O28	0.263050	0.019440	0.669320
O291	O29	0.340070	0.023110	0.591100
O301	O30	0.298300	0.048000	0.440000
O311	O31	0.942570	0.680580	0.065500
O321	O32	0.942350	0.603280	0.067180
O331	O33	0.774980	0.681370	0.228620
O341	O34	0.697660	0.605530	0.302940
O351	O35	0.747200	0.480100	0.227800
O361	O36	0.733660	0.069940	0.237180
O371	O37	0.657400	0.069440	0.314780
O381	O38	0.897440	0.235950	0.068680
O391	O39	0.896370	0.313270	0.065700
O401	O40	0.696600	0.265400	0.241000
O411	O41	0.392200	0.094290	0.602440
O421	O42	0.314060	0.093630	0.678680
O431	O43	0.311240	0.263050	0.669320
O441	O44	0.385790	0.340070	0.591100
O451	O45	0.512000	0.298300	0.440000
O461	O46	0.991930	0.253920	0.065500
O471	O47	0.990470	0.329540	0.067180
O481	O48	0.996400	0.090010	0.228620
O491	O49	0.999400	0.091530	0.302940
O501	O50	0.025000	0.292100	0.227800
O511	O51	0.029160	0.692880	0.237180
O521	O52	0.027820	0.615780	0.314780
O531	O53	0.033880	0.695370	0.068680
O541	O54	0.037930	0.621030	0.065700
O551	O55	0.062400	0.493600	0.241000
O561	O56	0.005360	0.303270	0.602440
O571	O57	0.007260	0.227690	0.678680
O581	O58	0.019440	0.067630	0.669320
O591	O59	0.023110	0.068830	0.591100
O601	O60	0.048000	0.261700	0.440000
O611	O61	0.746080	0.057430	0.934500
O621	O62	0.670460	0.057650	0.932820
O631	O63	0.909990	0.225020	0.771380
O641	O64	0.908470	0.302340	0.697060
O651	O65	0.707900	0.252800	0.772200
O661	O66	0.307120	0.266340	0.762820
O671	O67	0.384220	0.342600	0.685220
O681	O68	0.304630	0.102560	0.931320
O691	O69	0.378970	0.103630	0.934300
O701	O70	0.506400	0.303400	0.759000
O711	O71	0.696730	0.607800	0.397560
O721	O72	0.772310	0.685940	0.321320
O731	O73	0.932370	0.688760	0.330680
O741	O74	0.931170	0.614210	0.408900
O751	O75	0.738300	0.488000	0.560000
O761	O76	0.319420	0.008070	0.934500
O771	O77	0.396720	0.009530	0.932820
O781	O78	0.318630	0.003600	0.771380
O791	O79	0.394470	0.000600	0.697060
O801	O80	0.519900	0.975000	0.772200
O811	O81	0.930060	0.970840	0.762820
O821	O82	0.930560	0.972180	0.685220
O831	O83	0.764050	0.966120	0.931320
O841	O84	0.686730	0.962070	0.934300
O851	O85	0.734600	0.937600	0.759000
O861	O86	0.905710	0.994640	0.397560
O871	O87	0.906370	0.992740	0.321320
O881	O88	0.736950	0.980560	0.330680
O891	O89	0.659930	0.976890	0.408900
O901	O90	0.701700	0.952000	0.560000
O911	O91	0.057430	0.319420	0.934500
O921	O92	0.057650	0.396720	0.932820
O931	O93	0.225020	0.318630	0.771380
O941	O94	0.302340	0.394470	0.697060
O951	O95	0.252800	0.519900	0.772200
O961	O96	0.266340	0.930060	0.762820
O971	O97	0.342600	0.930560	0.685220
O981	O98	0.102560	0.764050	0.931320
O991	O99	0.103630	0.686730	0.934300
O1001	O100	0.303400	0.734600	0.759000
O1011	O101	0.607800	0.905710	0.397560
O1021	O102	0.685940	0.906370	0.321320
O1031	O103	0.688760	0.736950	0.330680
O1041	O104	0.614210	0.659930	0.408900
O1051	O105	0.488000	0.701700	0.560000
O1061	O106	0.008070	0.746080	0.934500
O1071	O107	0.009530	0.670460	0.932820
O1081	O108	0.003600	0.909990	0.771380
O1091	O109	0.000600	0.908470	0.697060
O1101	O110	0.975000	0.707900	0.772200
O1111	O111	0.970840	0.307120	0.762820
O1121	O112	0.972180	0.384220	0.685220
O1131	O113	0.966120	0.304630	0.931320
O1141	O114	0.962070	0.378970	0.934300
O1151	O115	0.937600	0.506400	0.759000
O1161	O116	0.994640	0.696730	0.397560
O1171	O117	0.992740	0.772310	0.321320
O1181	O118	0.980560	0.932370	0.330680
O1191	O119	0.976890	0.931170	0.408900
O1201	O120	0.952000	0.738300	0.560000
