data_ADAVIM_clean_PM
_symmetry_space_group_name_H-M	'P1'
_cell_length_a	25.582400
_cell_length_b	25.582400
_cell_length_c	25.582400
_cell_angle_alpha	90.000000
_cell_angle_beta	90.000000
_cell_angle_gamma	90.000000
_symmetry_Int_Tables_number 1

loop_
_symmetry_equiv_pos_as_xyz
'x,y,z'

loop_
_atom_site_label
_atom_site_type_symbol
_atom_site_fract_x
_atom_site_fract_y
_atom_site_fract_z
N11	N1	0.802700	0.862900	0.559600
N21	N2	0.781000	0.938000	0.609200
N31	N3	0.745300	0.952400	0.571100
C11	C1	0.824200	0.814400	0.563900
H11	H1	0.817900	0.791700	0.536100
C21	C2	0.851900	0.796200	0.601100
H21	H2	0.869700	0.764600	0.598300
C31	C3	0.853900	0.825200	0.644300
H31	H3	0.870300	0.811100	0.673500
C41	C4	0.833700	0.873300	0.648700
H41	H4	0.837000	0.893400	0.678900
C51	C5	0.806300	0.891500	0.602600
C61	C6	0.728300	0.001200	0.572300
C71	C7	0.750700	0.041100	0.609400
H51	H5	0.778700	0.025600	0.629000
H61	H6	0.723900	0.052700	0.632900
H71	H7	0.763800	0.070300	0.589900
C81	C8	0.686800	0.017300	0.540400
C91	C9	0.677400	0.070600	0.521300
H81	H8	0.700400	0.097000	0.531200
C101	C10	0.636000	0.083300	0.489200
H91	H9	0.629500	0.117800	0.479900
C111	C11	0.606800	0.046700	0.472700
C121	C12	0.607500	0.990100	0.483400
H101	H10	0.583900	0.965900	0.470100
C131	C13	0.649400	0.978600	0.516600
H111	H11	0.654600	0.943600	0.524800
N41	N4	0.302700	0.362900	0.059600
N51	N5	0.281000	0.438000	0.109200
N61	N6	0.245300	0.452400	0.071100
C141	C14	0.324200	0.314400	0.063900
H121	H12	0.317900	0.291700	0.036100
C151	C15	0.351900	0.296200	0.101100
H131	H13	0.369700	0.264600	0.098300
C161	C16	0.353900	0.325200	0.144300
H141	H14	0.370300	0.311100	0.173500
C171	C17	0.333700	0.373300	0.148700
H151	H15	0.337000	0.393400	0.178900
C181	C18	0.306300	0.391500	0.102600
C191	C19	0.228300	0.501200	0.072300
C201	C20	0.250700	0.541100	0.109400
H161	H16	0.278700	0.525600	0.129000
H171	H17	0.223900	0.552700	0.132900
H181	H18	0.263800	0.570300	0.089900
C211	C21	0.186800	0.517300	0.040400
C221	C22	0.177400	0.570600	0.021300
H191	H19	0.200400	0.597000	0.031200
C231	C23	0.136000	0.583300	0.989200
H201	H20	0.129500	0.617800	0.979900
C241	C24	0.106800	0.546700	0.972700
C251	C25	0.107500	0.490100	0.983400
H211	H21	0.083900	0.465900	0.970100
C261	C26	0.149400	0.478600	0.016600
H221	H22	0.154600	0.443600	0.024800
N71	N7	0.697300	0.137100	0.059600
N81	N8	0.719000	0.062000	0.109200
N91	N9	0.754700	0.047600	0.071100
C271	C27	0.675800	0.185600	0.063900
H231	H23	0.682100	0.208300	0.036100
C281	C28	0.648100	0.203800	0.101100
H241	H24	0.630300	0.235400	0.098300
C291	C29	0.646100	0.174800	0.144300
H251	H25	0.629700	0.188900	0.173500
C301	C30	0.666300	0.126700	0.148700
H261	H26	0.663000	0.106600	0.178900
C311	C31	0.693700	0.108500	0.102600
C321	C32	0.771700	0.998800	0.072300
C331	C33	0.749300	0.958900	0.109400
H271	H27	0.721300	0.974400	0.129000
H281	H28	0.776100	0.947300	0.132900
H291	H29	0.736200	0.929700	0.089900
C341	C34	0.813200	0.982700	0.040400
C351	C35	0.822600	0.929400	0.021300
H301	H30	0.799600	0.903000	0.031200
C361	C36	0.864000	0.916700	0.989200
H311	H31	0.870500	0.882200	0.979900
C371	C37	0.893200	0.953300	0.972700
C381	C38	0.892500	0.009900	0.983400
H321	H32	0.916100	0.034100	0.970100
C391	C39	0.850600	0.021400	0.016600
H331	H33	0.845400	0.056400	0.024800
N101	N10	0.197300	0.637100	0.559600
N111	N11	0.219000	0.562000	0.609200
N121	N12	0.254700	0.547600	0.571100
C401	C40	0.175800	0.685600	0.563900
H341	H34	0.182100	0.708300	0.536100
C411	C41	0.148100	0.703800	0.601100
H351	H35	0.130300	0.735400	0.598300
C421	C42	0.146100	0.674800	0.644300
H361	H36	0.129700	0.688900	0.673500
C431	C43	0.166300	0.626700	0.648700
H371	H37	0.163000	0.606600	0.678900
C441	C44	0.193700	0.608500	0.602600
C451	C45	0.271700	0.498800	0.572300
C461	C46	0.249300	0.458900	0.609400
H381	H38	0.221300	0.474400	0.629000
H391	H39	0.276100	0.447300	0.632900
H401	H40	0.236200	0.429700	0.589900
C471	C47	0.313200	0.482700	0.540400
C481	C48	0.322600	0.429400	0.521300
H411	H41	0.299600	0.403000	0.531200
C491	C49	0.364000	0.416700	0.489200
H421	H42	0.370500	0.382200	0.479900
C501	C50	0.393200	0.453300	0.472700
C511	C51	0.392500	0.509900	0.483400
H431	H43	0.416100	0.534100	0.470100
C521	C52	0.350600	0.521400	0.516600
H441	H44	0.345400	0.556400	0.524800
N131	N13	0.197300	0.362900	0.940400
N141	N14	0.219000	0.438000	0.890800
N151	N15	0.254700	0.452400	0.928900
C531	C53	0.175800	0.314400	0.936100
H451	H45	0.182100	0.291700	0.963900
C541	C54	0.148100	0.296200	0.898900
H461	H46	0.130300	0.264600	0.901700
C551	C55	0.146100	0.325200	0.855700
H471	H47	0.129700	0.311100	0.826500
C561	C56	0.166300	0.373300	0.851300
H481	H48	0.163000	0.393400	0.821100
C571	C57	0.193700	0.391500	0.897400
C581	C58	0.271700	0.501200	0.927700
C591	C59	0.249300	0.541100	0.890600
H491	H49	0.221300	0.525600	0.871000
H501	H50	0.276100	0.552700	0.867100
H511	H51	0.236200	0.570300	0.910100
C601	C60	0.313200	0.517300	0.959600
C611	C61	0.322600	0.570600	0.978700
H521	H52	0.299600	0.597000	0.968800
C621	C62	0.364000	0.583300	0.010800
H531	H53	0.370500	0.617800	0.020100
C631	C63	0.393200	0.546700	0.027300
C641	C64	0.392500	0.490100	0.016600
H541	H54	0.416100	0.465900	0.029900
C651	C65	0.350600	0.478600	0.983400
H551	H55	0.345400	0.443600	0.975200
N161	N16	0.697300	0.862900	0.440400
N171	N17	0.719000	0.938000	0.390800
N181	N18	0.754700	0.952400	0.428900
C661	C66	0.675800	0.814400	0.436100
H561	H56	0.682100	0.791700	0.463900
C671	C67	0.648100	0.796200	0.398900
H571	H57	0.630300	0.764600	0.401700
C681	C68	0.646100	0.825200	0.355700
H581	H58	0.629700	0.811100	0.326500
C691	C69	0.666300	0.873300	0.351300
H591	H59	0.663000	0.893400	0.321100
C701	C70	0.693700	0.891500	0.397400
C711	C71	0.771700	0.001200	0.427700
C721	C72	0.749300	0.041100	0.390600
H601	H60	0.721300	0.025600	0.371000
H611	H61	0.776100	0.052700	0.367100
H621	H62	0.736200	0.070300	0.410100
C731	C73	0.813200	0.017300	0.459600
C741	C74	0.822600	0.070600	0.478700
H631	H63	0.799600	0.097000	0.468800
C751	C75	0.864000	0.083300	0.510800
H641	H64	0.870500	0.117800	0.520100
C761	C76	0.893200	0.046700	0.527300
C771	C77	0.892500	0.990100	0.516600
H651	H65	0.916100	0.965900	0.529900
C781	C78	0.850600	0.978600	0.483400
H661	H66	0.845400	0.943600	0.475200
N191	N19	0.302700	0.637100	0.440400
N201	N20	0.281000	0.562000	0.390800
N211	N21	0.245300	0.547600	0.428900
C791	C79	0.324200	0.685600	0.436100
H671	H67	0.317900	0.708300	0.463900
C801	C80	0.351900	0.703800	0.398900
H681	H68	0.369700	0.735400	0.401700
C811	C81	0.353900	0.674800	0.355700
H691	H69	0.370300	0.688900	0.326500
C821	C82	0.333700	0.626700	0.351300
H701	H70	0.337000	0.606600	0.321100
C831	C83	0.306300	0.608500	0.397400
C841	C84	0.228300	0.498800	0.427700
C851	C85	0.250700	0.458900	0.390600
H711	H71	0.278700	0.474400	0.371000
H721	H72	0.223900	0.447300	0.367100
H731	H73	0.263800	0.429700	0.410100
C861	C86	0.186800	0.482700	0.459600
C871	C87	0.177400	0.429400	0.478700
H741	H74	0.200400	0.403000	0.468800
C881	C88	0.136000	0.416700	0.510800
H751	H75	0.129500	0.382200	0.520100
C891	C89	0.106800	0.453300	0.527300
C901	C90	0.107500	0.509900	0.516600
H761	H76	0.083900	0.534100	0.529900
C911	C91	0.149400	0.521400	0.483400
H771	H77	0.154600	0.556400	0.475200
N221	N22	0.802700	0.137100	0.940400
N231	N23	0.781000	0.062000	0.890800
N241	N24	0.745300	0.047600	0.928900
C921	C92	0.824200	0.185600	0.936100
H781	H78	0.817900	0.208300	0.963900
C931	C93	0.851900	0.203800	0.898900
H791	H79	0.869700	0.235400	0.901700
C941	C94	0.853900	0.174800	0.855700
H801	H80	0.870300	0.188900	0.826500
C951	C95	0.833700	0.126700	0.851300
H811	H81	0.837000	0.106600	0.821100
C961	C96	0.806300	0.108500	0.897400
C971	C97	0.728300	0.998800	0.927700
C981	C98	0.750700	0.958900	0.890600
H821	H82	0.778700	0.974400	0.871000
H831	H83	0.723900	0.947300	0.867100
H841	H84	0.763800	0.929700	0.910100
C991	C99	0.686800	0.982700	0.959600
C1001	C100	0.677400	0.929400	0.978700
H851	H85	0.700400	0.903000	0.968800
C1011	C101	0.636000	0.916700	0.010800
H861	H86	0.629500	0.882200	0.020100
C1021	C102	0.606800	0.953300	0.027300
C1031	C103	0.607500	0.009900	0.016600
H871	H87	0.583900	0.034100	0.029900
C1041	C104	0.649400	0.021400	0.983400
H881	H88	0.654600	0.056400	0.975200
N251	N25	0.559600	0.802700	0.862900
N261	N26	0.609200	0.781000	0.938000
N271	N27	0.571100	0.745300	0.952400
C1051	C105	0.563900	0.824200	0.814400
H891	H89	0.536100	0.817900	0.791700
C1061	C106	0.601100	0.851900	0.796200
H901	H90	0.598300	0.869700	0.764600
C1071	C107	0.644300	0.853900	0.825200
H911	H91	0.673500	0.870300	0.811100
C1081	C108	0.648700	0.833700	0.873300
H921	H92	0.678900	0.837000	0.893400
C1091	C109	0.602600	0.806300	0.891500
C1101	C110	0.572300	0.728300	0.001200
C1111	C111	0.609400	0.750700	0.041100
H931	H93	0.629000	0.778700	0.025600
H941	H94	0.632900	0.723900	0.052700
H951	H95	0.589900	0.763800	0.070300
C1121	C112	0.540400	0.686800	0.017300
C1131	C113	0.521300	0.677400	0.070600
H961	H96	0.531200	0.700400	0.097000
C1141	C114	0.489200	0.636000	0.083300
H971	H97	0.479900	0.629500	0.117800
C1151	C115	0.472700	0.606800	0.046700
C1161	C116	0.483400	0.607500	0.990100
H981	H98	0.470100	0.583900	0.965900
C1171	C117	0.516600	0.649400	0.978600
H991	H99	0.524800	0.654600	0.943600
N281	N28	0.059600	0.302700	0.362900
N291	N29	0.109200	0.281000	0.438000
N301	N30	0.071100	0.245300	0.452400
C1181	C118	0.063900	0.324200	0.314400
H1001	H100	0.036100	0.317900	0.291700
C1191	C119	0.101100	0.351900	0.296200
H1011	H101	0.098300	0.369700	0.264600
C1201	C120	0.144300	0.353900	0.325200
H1021	H102	0.173500	0.370300	0.311100
C1211	C121	0.148700	0.333700	0.373300
H1031	H103	0.178900	0.337000	0.393400
C1221	C122	0.102600	0.306300	0.391500
C1231	C123	0.072300	0.228300	0.501200
C1241	C124	0.109400	0.250700	0.541100
H1041	H104	0.129000	0.278700	0.525600
H1051	H105	0.132900	0.223900	0.552700
H1061	H106	0.089900	0.263800	0.570300
C1251	C125	0.040400	0.186800	0.517300
C1261	C126	0.021300	0.177400	0.570600
H1071	H107	0.031200	0.200400	0.597000
C1271	C127	0.989200	0.136000	0.583300
H1081	H108	0.979900	0.129500	0.617800
C1281	C128	0.972700	0.106800	0.546700
C1291	C129	0.983400	0.107500	0.490100
H1091	H109	0.970100	0.083900	0.465900
C1301	C130	0.016600	0.149400	0.478600
H1101	H110	0.024800	0.154600	0.443600
N311	N31	0.059600	0.697300	0.137100
N321	N32	0.109200	0.719000	0.062000
N331	N33	0.071100	0.754700	0.047600
C1311	C131	0.063900	0.675800	0.185600
H1111	H111	0.036100	0.682100	0.208300
C1321	C132	0.101100	0.648100	0.203800
H1121	H112	0.098300	0.630300	0.235400
C1331	C133	0.144300	0.646100	0.174800
H1131	H113	0.173500	0.629700	0.188900
C1341	C134	0.148700	0.666300	0.126700
H1141	H114	0.178900	0.663000	0.106600
C1351	C135	0.102600	0.693700	0.108500
C1361	C136	0.072300	0.771700	0.998800
C1371	C137	0.109400	0.749300	0.958900
H1151	H115	0.129000	0.721300	0.974400
H1161	H116	0.132900	0.776100	0.947300
H1171	H117	0.089900	0.736200	0.929700
C1381	C138	0.040400	0.813200	0.982700
C1391	C139	0.021300	0.822600	0.929400
H1181	H118	0.031200	0.799600	0.903000
C1401	C140	0.989200	0.864000	0.916700
H1191	H119	0.979900	0.870500	0.882200
C1411	C141	0.972700	0.893200	0.953300
C1421	C142	0.983400	0.892500	0.009900
H1201	H120	0.970100	0.916100	0.034100
C1431	C143	0.016600	0.850600	0.021400
H1211	H121	0.024800	0.845400	0.056400
N341	N34	0.559600	0.197300	0.637100
N351	N35	0.609200	0.219000	0.562000
N361	N36	0.571100	0.254700	0.547600
C1441	C144	0.563900	0.175800	0.685600
H1221	H122	0.536100	0.182100	0.708300
C1451	C145	0.601100	0.148100	0.703800
H1231	H123	0.598300	0.130300	0.735400
C1461	C146	0.644300	0.146100	0.674800
H1241	H124	0.673500	0.129700	0.688900
C1471	C147	0.648700	0.166300	0.626700
H1251	H125	0.678900	0.163000	0.606600
C1481	C148	0.602600	0.193700	0.608500
C1491	C149	0.572300	0.271700	0.498800
C1501	C150	0.609400	0.249300	0.458900
H1261	H126	0.629000	0.221300	0.474400
H1271	H127	0.632900	0.276100	0.447300
H1281	H128	0.589900	0.236200	0.429700
C1511	C151	0.540400	0.313200	0.482700
C1521	C152	0.521300	0.322600	0.429400
H1291	H129	0.531200	0.299600	0.403000
C1531	C153	0.489200	0.364000	0.416700
H1301	H130	0.479900	0.370500	0.382200
C1541	C154	0.472700	0.393200	0.453300
C1551	C155	0.483400	0.392500	0.509900
H1311	H131	0.470100	0.416100	0.534100
C1561	C156	0.516600	0.350600	0.521400
H1321	H132	0.524800	0.345400	0.556400
N371	N37	0.940400	0.197300	0.362900
N381	N38	0.890800	0.219000	0.438000
N391	N39	0.928900	0.254700	0.452400
C1571	C157	0.936100	0.175800	0.314400
H1331	H133	0.963900	0.182100	0.291700
C1581	C158	0.898900	0.148100	0.296200
H1341	H134	0.901700	0.130300	0.264600
C1591	C159	0.855700	0.146100	0.325200
H1351	H135	0.826500	0.129700	0.311100
C1601	C160	0.851300	0.166300	0.373300
H1361	H136	0.821100	0.163000	0.393400
C1611	C161	0.897400	0.193700	0.391500
C1621	C162	0.927700	0.271700	0.501200
C1631	C163	0.890600	0.249300	0.541100
H1371	H137	0.871000	0.221300	0.525600
H1381	H138	0.867100	0.276100	0.552700
H1391	H139	0.910100	0.236200	0.570300
C1641	C164	0.959600	0.313200	0.517300
C1651	C165	0.978700	0.322600	0.570600
H1401	H140	0.968800	0.299600	0.597000
C1661	C166	0.010800	0.364000	0.583300
H1411	H141	0.020100	0.370500	0.617800
C1671	C167	0.027300	0.393200	0.546700
C1681	C168	0.016600	0.392500	0.490100
H1421	H142	0.029900	0.416100	0.465900
C1691	C169	0.983400	0.350600	0.478600
H1431	H143	0.975200	0.345400	0.443600
N401	N40	0.440400	0.697300	0.862900
N411	N41	0.390800	0.719000	0.938000
N421	N42	0.428900	0.754700	0.952400
C1701	C170	0.436100	0.675800	0.814400
H1441	H144	0.463900	0.682100	0.791700
C1711	C171	0.398900	0.648100	0.796200
H1451	H145	0.401700	0.630300	0.764600
C1721	C172	0.355700	0.646100	0.825200
H1461	H146	0.326500	0.629700	0.811100
C1731	C173	0.351300	0.666300	0.873300
H1471	H147	0.321100	0.663000	0.893400
C1741	C174	0.397400	0.693700	0.891500
C1751	C175	0.427700	0.771700	0.001200
C1761	C176	0.390600	0.749300	0.041100
H1481	H148	0.371000	0.721300	0.025600
H1491	H149	0.367100	0.776100	0.052700
H1501	H150	0.410100	0.736200	0.070300
C1771	C177	0.459600	0.813200	0.017300
C1781	C178	0.478700	0.822600	0.070600
H1511	H151	0.468800	0.799600	0.097000
C1791	C179	0.510800	0.864000	0.083300
H1521	H152	0.520100	0.870500	0.117800
C1801	C180	0.527300	0.893200	0.046700
C1811	C181	0.516600	0.892500	0.990100
H1531	H153	0.529900	0.916100	0.965900
C1821	C182	0.483400	0.850600	0.978600
H1541	H154	0.475200	0.845400	0.943600
N431	N43	0.440400	0.302700	0.637100
N441	N44	0.390800	0.281000	0.562000
N451	N45	0.428900	0.245300	0.547600
C1831	C183	0.436100	0.324200	0.685600
H1551	H155	0.463900	0.317900	0.708300
C1841	C184	0.398900	0.351900	0.703800
H1561	H156	0.401700	0.369700	0.735400
C1851	C185	0.355700	0.353900	0.674800
H1571	H157	0.326500	0.370300	0.688900
C1861	C186	0.351300	0.333700	0.626700
H1581	H158	0.321100	0.337000	0.606600
C1871	C187	0.397400	0.306300	0.608500
C1881	C188	0.427700	0.228300	0.498800
C1891	C189	0.390600	0.250700	0.458900
H1591	H159	0.371000	0.278700	0.474400
H1601	H160	0.367100	0.223900	0.447300
H1611	H161	0.410100	0.263800	0.429700
C1901	C190	0.459600	0.186800	0.482700
C1911	C191	0.478700	0.177400	0.429400
H1621	H162	0.468800	0.200400	0.403000
C1921	C192	0.510800	0.136000	0.416700
H1631	H163	0.520100	0.129500	0.382200
C1931	C193	0.527300	0.106800	0.453300
C1941	C194	0.516600	0.107500	0.509900
H1641	H164	0.529900	0.083900	0.534100
C1951	C195	0.483400	0.149400	0.521400
H1651	H165	0.475200	0.154600	0.556400
N461	N46	0.940400	0.802700	0.137100
N471	N47	0.890800	0.781000	0.062000
N481	N48	0.928900	0.745300	0.047600
C1961	C196	0.936100	0.824200	0.185600
H1661	H166	0.963900	0.817900	0.208300
C1971	C197	0.898900	0.851900	0.203800
H1671	H167	0.901700	0.869700	0.235400
C1981	C198	0.855700	0.853900	0.174800
H1681	H168	0.826500	0.870300	0.188900
C1991	C199	0.851300	0.833700	0.126700
H1691	H169	0.821100	0.837000	0.106600
C2001	C200	0.897400	0.806300	0.108500
C2011	C201	0.927700	0.728300	0.998800
C2021	C202	0.890600	0.750700	0.958900
H1701	H170	0.871000	0.778700	0.974400
H1711	H171	0.867100	0.723900	0.947300
H1721	H172	0.910100	0.763800	0.929700
C2031	C203	0.959600	0.686800	0.982700
C2041	C204	0.978700	0.677400	0.929400
H1731	H173	0.968800	0.700400	0.903000
C2051	C205	0.010800	0.636000	0.916700
H1741	H174	0.020100	0.629500	0.882200
C2061	C206	0.027300	0.606800	0.953300
C2071	C207	0.016600	0.607500	0.009900
H1751	H175	0.029900	0.583900	0.034100
C2081	C208	0.983400	0.649400	0.021400
H1761	H176	0.975200	0.654600	0.056400
N491	N49	0.862900	0.559600	0.802700
N501	N50	0.938000	0.609200	0.781000
N511	N51	0.952400	0.571100	0.745300
C2091	C209	0.814400	0.563900	0.824200
H1771	H177	0.791700	0.536100	0.817900
C2101	C210	0.796200	0.601100	0.851900
H1781	H178	0.764600	0.598300	0.869700
C2111	C211	0.825200	0.644300	0.853900
H1791	H179	0.811100	0.673500	0.870300
C2121	C212	0.873300	0.648700	0.833700
H1801	H180	0.893400	0.678900	0.837000
C2131	C213	0.891500	0.602600	0.806300
C2141	C214	0.001200	0.572300	0.728300
C2151	C215	0.041100	0.609400	0.750700
H1811	H181	0.025600	0.629000	0.778700
H1821	H182	0.052700	0.632900	0.723900
H1831	H183	0.070300	0.589900	0.763800
C2161	C216	0.017300	0.540400	0.686800
C2171	C217	0.070600	0.521300	0.677400
H1841	H184	0.097000	0.531200	0.700400
C2181	C218	0.083300	0.489200	0.636000
H1851	H185	0.117800	0.479900	0.629500
C2191	C219	0.046700	0.472700	0.606800
C2201	C220	0.990100	0.483400	0.607500
H1861	H186	0.965900	0.470100	0.583900
C2211	C221	0.978600	0.516600	0.649400
H1871	H187	0.943600	0.524800	0.654600
N521	N52	0.362900	0.059600	0.302700
N531	N53	0.438000	0.109200	0.281000
N541	N54	0.452400	0.071100	0.245300
C2221	C222	0.314400	0.063900	0.324200
H1881	H188	0.291700	0.036100	0.317900
C2231	C223	0.296200	0.101100	0.351900
H1891	H189	0.264600	0.098300	0.369700
C2241	C224	0.325200	0.144300	0.353900
H1901	H190	0.311100	0.173500	0.370300
C2251	C225	0.373300	0.148700	0.333700
H1911	H191	0.393400	0.178900	0.337000
C2261	C226	0.391500	0.102600	0.306300
C2271	C227	0.501200	0.072300	0.228300
C2281	C228	0.541100	0.109400	0.250700
H1921	H192	0.525600	0.129000	0.278700
H1931	H193	0.552700	0.132900	0.223900
H1941	H194	0.570300	0.089900	0.263800
C2291	C229	0.517300	0.040400	0.186800
C2301	C230	0.570600	0.021300	0.177400
H1951	H195	0.597000	0.031200	0.200400
C2311	C231	0.583300	0.989200	0.136000
H1961	H196	0.617800	0.979900	0.129500
C2321	C232	0.546700	0.972700	0.106800
C2331	C233	0.490100	0.983400	0.107500
H1971	H197	0.465900	0.970100	0.083900
C2341	C234	0.478600	0.016600	0.149400
H1981	H198	0.443600	0.024800	0.154600
N551	N55	0.137100	0.059600	0.697300
N561	N56	0.062000	0.109200	0.719000
N571	N57	0.047600	0.071100	0.754700
C2351	C235	0.185600	0.063900	0.675800
H1991	H199	0.208300	0.036100	0.682100
C2361	C236	0.203800	0.101100	0.648100
H2001	H200	0.235400	0.098300	0.630300
C2371	C237	0.174800	0.144300	0.646100
H2011	H201	0.188900	0.173500	0.629700
C2381	C238	0.126700	0.148700	0.666300
H2021	H202	0.106600	0.178900	0.663000
C2391	C239	0.108500	0.102600	0.693700
C2401	C240	0.998800	0.072300	0.771700
C2411	C241	0.958900	0.109400	0.749300
H2031	H203	0.974400	0.129000	0.721300
H2041	H204	0.947300	0.132900	0.776100
H2051	H205	0.929700	0.089900	0.736200
C2421	C242	0.982700	0.040400	0.813200
C2431	C243	0.929400	0.021300	0.822600
H2061	H206	0.903000	0.031200	0.799600
C2441	C244	0.916700	0.989200	0.864000
H2071	H207	0.882200	0.979900	0.870500
C2451	C245	0.953300	0.972700	0.893200
C2461	C246	0.009900	0.983400	0.892500
H2081	H208	0.034100	0.970100	0.916100
C2471	C247	0.021400	0.016600	0.850600
H2091	H209	0.056400	0.024800	0.845400
N581	N58	0.637100	0.559600	0.197300
N591	N59	0.562000	0.609200	0.219000
N601	N60	0.547600	0.571100	0.254700
C2481	C248	0.685600	0.563900	0.175800
H2101	H210	0.708300	0.536100	0.182100
C2491	C249	0.703800	0.601100	0.148100
H2111	H211	0.735400	0.598300	0.130300
C2501	C250	0.674800	0.644300	0.146100
H2121	H212	0.688900	0.673500	0.129700
C2511	C251	0.626700	0.648700	0.166300
H2131	H213	0.606600	0.678900	0.163000
C2521	C252	0.608500	0.602600	0.193700
C2531	C253	0.498800	0.572300	0.271700
C2541	C254	0.458900	0.609400	0.249300
H2141	H214	0.474400	0.629000	0.221300
H2151	H215	0.447300	0.632900	0.276100
H2161	H216	0.429700	0.589900	0.236200
C2551	C255	0.482700	0.540400	0.313200
C2561	C256	0.429400	0.521300	0.322600
H2171	H217	0.403000	0.531200	0.299600
C2571	C257	0.416700	0.489200	0.364000
H2181	H218	0.382200	0.479900	0.370500
C2581	C258	0.453300	0.472700	0.393200
C2591	C259	0.509900	0.483400	0.392500
H2191	H219	0.534100	0.470100	0.416100
C2601	C260	0.521400	0.516600	0.350600
H2201	H220	0.556400	0.524800	0.345400
N611	N61	0.362900	0.940400	0.197300
N621	N62	0.438000	0.890800	0.219000
N631	N63	0.452400	0.928900	0.254700
C2611	C261	0.314400	0.936100	0.175800
H2211	H221	0.291700	0.963900	0.182100
C2621	C262	0.296200	0.898900	0.148100
H2221	H222	0.264600	0.901700	0.130300
C2631	C263	0.325200	0.855700	0.146100
H2231	H223	0.311100	0.826500	0.129700
C2641	C264	0.373300	0.851300	0.166300
H2241	H224	0.393400	0.821100	0.163000
C2651	C265	0.391500	0.897400	0.193700
C2661	C266	0.501200	0.927700	0.271700
C2671	C267	0.541100	0.890600	0.249300
H2251	H225	0.525600	0.871000	0.221300
H2261	H226	0.552700	0.867100	0.276100
H2271	H227	0.570300	0.910100	0.236200
C2681	C268	0.517300	0.959600	0.313200
C2691	C269	0.570600	0.978700	0.322600
H2281	H228	0.597000	0.968800	0.299600
C2701	C270	0.583300	0.010800	0.364000
H2291	H229	0.617800	0.020100	0.370500
C2711	C271	0.546700	0.027300	0.393200
C2721	C272	0.490100	0.016600	0.392500
H2301	H230	0.465900	0.029900	0.416100
C2731	C273	0.478600	0.983400	0.350600
H2311	H231	0.443600	0.975200	0.345400
N641	N64	0.862900	0.440400	0.697300
N651	N65	0.938000	0.390800	0.719000
N661	N66	0.952400	0.428900	0.754700
C2741	C274	0.814400	0.436100	0.675800
H2321	H232	0.791700	0.463900	0.682100
C2751	C275	0.796200	0.398900	0.648100
H2331	H233	0.764600	0.401700	0.630300
C2761	C276	0.825200	0.355700	0.646100
H2341	H234	0.811100	0.326500	0.629700
C2771	C277	0.873300	0.351300	0.666300
H2351	H235	0.893400	0.321100	0.663000
C2781	C278	0.891500	0.397400	0.693700
C2791	C279	0.001200	0.427700	0.771700
C2801	C280	0.041100	0.390600	0.749300
H2361	H236	0.025600	0.371000	0.721300
H2371	H237	0.052700	0.367100	0.776100
H2381	H238	0.070300	0.410100	0.736200
C2811	C281	0.017300	0.459600	0.813200
C2821	C282	0.070600	0.478700	0.822600
H2391	H239	0.097000	0.468800	0.799600
C2831	C283	0.083300	0.510800	0.864000
H2401	H240	0.117800	0.520100	0.870500
C2841	C284	0.046700	0.527300	0.893200
C2851	C285	0.990100	0.516600	0.892500
H2411	H241	0.965900	0.529900	0.916100
C2861	C286	0.978600	0.483400	0.850600
H2421	H242	0.943600	0.475200	0.845400
N671	N67	0.637100	0.440400	0.302700
N681	N68	0.562000	0.390800	0.281000
N691	N69	0.547600	0.428900	0.245300
C2871	C287	0.685600	0.436100	0.324200
H2431	H243	0.708300	0.463900	0.317900
C2881	C288	0.703800	0.398900	0.351900
H2441	H244	0.735400	0.401700	0.369700
C2891	C289	0.674800	0.355700	0.353900
H2451	H245	0.688900	0.326500	0.370300
C2901	C290	0.626700	0.351300	0.333700
H2461	H246	0.606600	0.321100	0.337000
C2911	C291	0.608500	0.397400	0.306300
C2921	C292	0.498800	0.427700	0.228300
C2931	C293	0.458900	0.390600	0.250700
H2471	H247	0.474400	0.371000	0.278700
H2481	H248	0.447300	0.367100	0.223900
H2491	H249	0.429700	0.410100	0.263800
C2941	C294	0.482700	0.459600	0.186800
C2951	C295	0.429400	0.478700	0.177400
H2501	H250	0.403000	0.468800	0.200400
C2961	C296	0.416700	0.510800	0.136000
H2511	H251	0.382200	0.520100	0.129500
C2971	C297	0.453300	0.527300	0.106800
C2981	C298	0.509900	0.516600	0.107500
H2521	H252	0.534100	0.529900	0.083900
C2991	C299	0.521400	0.483400	0.149400
H2531	H253	0.556400	0.475200	0.154600
N701	N70	0.137100	0.940400	0.802700
N711	N71	0.062000	0.890800	0.781000
N721	N72	0.047600	0.928900	0.745300
C3001	C300	0.185600	0.936100	0.824200
H2541	H254	0.208300	0.963900	0.817900
C3011	C301	0.203800	0.898900	0.851900
H2551	H255	0.235400	0.901700	0.869700
C3021	C302	0.174800	0.855700	0.853900
H2561	H256	0.188900	0.826500	0.870300
C3031	C303	0.126700	0.851300	0.833700
H2571	H257	0.106600	0.821100	0.837000
C3041	C304	0.108500	0.897400	0.806300
C3051	C305	0.998800	0.927700	0.728300
C3061	C306	0.958900	0.890600	0.750700
H2581	H258	0.974400	0.871000	0.778700
H2591	H259	0.947300	0.867100	0.723900
H2601	H260	0.929700	0.910100	0.763800
C3071	C307	0.982700	0.959600	0.686800
C3081	C308	0.929400	0.978700	0.677400
H2611	H261	0.903000	0.968800	0.700400
C3091	C309	0.916700	0.010800	0.636000
H2621	H262	0.882200	0.020100	0.629500
C3101	C310	0.953300	0.027300	0.606800
C3111	C311	0.009900	0.016600	0.607500
H2631	H263	0.034100	0.029900	0.583900
C3121	C312	0.021400	0.983400	0.649400
H2641	H264	0.056400	0.975200	0.654600
Ag11	Ag1	0.750000	0.893210	0.500000
Ag21	Ag2	0.750000	0.106790	0.000000
Ag31	Ag3	0.250000	0.393210	0.000000
Ag41	Ag4	0.250000	0.606790	0.500000
Ag51	Ag5	0.500000	0.750000	0.893210
Ag61	Ag6	0.000000	0.750000	0.106790
Ag71	Ag7	0.000000	0.250000	0.393210
Ag81	Ag8	0.500000	0.250000	0.606790
Ag91	Ag9	0.893210	0.500000	0.750000
Ag101	Ag10	0.106790	0.000000	0.750000
Ag111	Ag11	0.393210	0.000000	0.250000
Ag121	Ag12	0.606790	0.500000	0.250000
N731	N73	0.560500	0.060500	0.439500
N741	N74	0.060500	0.560500	0.939500
N751	N75	0.939500	0.939500	0.939500
N761	N76	0.439500	0.439500	0.439500
N771	N77	0.439500	0.560500	0.060500
N781	N78	0.939500	0.060500	0.560500
N791	N79	0.060500	0.439500	0.560500
N801	N80	0.560500	0.939500	0.060500
