data_ADAVEI_clean_PM
_symmetry_space_group_name_H-M	'P1'
_cell_length_a	25.369000
_cell_length_b	25.369000
_cell_length_c	25.369000
_cell_angle_alpha	90.000000
_cell_angle_beta	90.000000
_cell_angle_gamma	90.000000
_symmetry_Int_Tables_number 1

loop_
_symmetry_equiv_pos_as_xyz
'x,y,z'

loop_
_atom_site_label
_atom_site_type_symbol
_atom_site_fract_x
_atom_site_fract_y
_atom_site_fract_z
N11	N1	0.361400	0.063900	0.305100
N21	N2	0.436900	0.108000	0.284900
H11	H1	0.459700	0.132000	0.292300
N31	N3	0.449300	0.072200	0.247900
C11	C1	0.312900	0.063000	0.326500
H21	H2	0.291000	0.034300	0.319700
C21	C2	0.294300	0.103500	0.358500
H31	H3	0.262900	0.100300	0.377100
C31	C3	0.325300	0.149800	0.361300
H41	H4	0.312600	0.179900	0.377900
C41	C4	0.373100	0.149300	0.339700
H51	H5	0.394800	0.178400	0.345000
C51	C5	0.392200	0.108300	0.310200
C61	C6	0.499400	0.071500	0.229800
C71	C7	0.538600	0.108300	0.254600
H61	H6	0.521500	0.128600	0.281600
H71	H7	0.552400	0.131600	0.228200
H81	H8	0.566800	0.088300	0.269900
C81	C8	0.512700	0.038300	0.186600
C91	C9	0.563800	0.023300	0.177500
H91	H9	0.590000	0.033500	0.201100
C101	C10	0.577500	0.993200	0.133800
H101	H10	0.612600	0.985100	0.126900
C111	C11	0.539900	0.976300	0.102500
C121	C12	0.487200	0.988500	0.111600
H111	H11	0.460900	0.976200	0.089200
C131	C13	0.475900	0.017600	0.152300
H121	H12	0.440600	0.025000	0.158800
N41	N4	0.861400	0.563900	0.805100
N51	N5	0.936900	0.608000	0.784900
H131	H13	0.959700	0.632000	0.792300
N61	N6	0.949300	0.572200	0.747900
C141	C14	0.812900	0.563000	0.826500
H141	H14	0.791000	0.534300	0.819700
C151	C15	0.794300	0.603500	0.858500
H151	H15	0.762900	0.600300	0.877100
C161	C16	0.825300	0.649800	0.861300
H161	H16	0.812600	0.679900	0.877900
C171	C17	0.873100	0.649300	0.839700
H171	H17	0.894800	0.678400	0.845000
C181	C18	0.892200	0.608300	0.810200
C191	C19	0.999400	0.571500	0.729800
C201	C20	0.038600	0.608300	0.754600
H181	H18	0.021500	0.628600	0.781600
H191	H19	0.052400	0.631600	0.728200
H201	H20	0.066800	0.588300	0.769900
C211	C21	0.012700	0.538300	0.686600
C221	C22	0.063800	0.523300	0.677500
H211	H21	0.090000	0.533500	0.701100
C231	C23	0.077500	0.493200	0.633800
H221	H22	0.112600	0.485100	0.626900
C241	C24	0.039900	0.476300	0.602500
C251	C25	0.987200	0.488500	0.611600
H231	H23	0.960900	0.476200	0.589200
C261	C26	0.975900	0.517600	0.652300
H241	H24	0.940600	0.525000	0.658800
N71	N7	0.138600	0.936100	0.805100
N81	N8	0.063100	0.892000	0.784900
H251	H25	0.040300	0.868000	0.792300
N91	N9	0.050700	0.927800	0.747900
C271	C27	0.187100	0.937000	0.826500
H261	H26	0.209000	0.965700	0.819700
C281	C28	0.205700	0.896500	0.858500
H271	H27	0.237100	0.899700	0.877100
C291	C29	0.174700	0.850200	0.861300
H281	H28	0.187400	0.820100	0.877900
C301	C30	0.126900	0.850700	0.839700
H291	H29	0.105200	0.821600	0.845000
C311	C31	0.107800	0.891700	0.810200
C321	C32	0.000600	0.928500	0.729800
C331	C33	0.961400	0.891700	0.754600
H301	H30	0.978500	0.871400	0.781600
H311	H31	0.947600	0.868400	0.728200
H321	H32	0.933200	0.911700	0.769900
C341	C34	0.987300	0.961700	0.686600
C351	C35	0.936200	0.976700	0.677500
H331	H33	0.910000	0.966500	0.701100
C361	C36	0.922500	0.006800	0.633800
H341	H34	0.887400	0.014900	0.626900
C371	C37	0.960100	0.023700	0.602500
C381	C38	0.012800	0.011500	0.611600
H351	H35	0.039100	0.023800	0.589200
C391	C39	0.024100	0.982400	0.652300
H361	H36	0.059400	0.975000	0.658800
N101	N10	0.638600	0.436100	0.305100
N111	N11	0.563100	0.392000	0.284900
H371	H37	0.540300	0.368000	0.292300
N121	N12	0.550700	0.427800	0.247900
C401	C40	0.687100	0.437000	0.326500
H381	H38	0.709000	0.465700	0.319700
C411	C41	0.705700	0.396500	0.358500
H391	H39	0.737100	0.399700	0.377100
C421	C42	0.674700	0.350200	0.361300
H401	H40	0.687400	0.320100	0.377900
C431	C43	0.626900	0.350700	0.339700
H411	H41	0.605200	0.321600	0.345000
C441	C44	0.607800	0.391700	0.310200
C451	C45	0.500600	0.428500	0.229800
C461	C46	0.461400	0.391700	0.254600
H421	H42	0.478500	0.371400	0.281600
H431	H43	0.447600	0.368400	0.228200
H441	H44	0.433200	0.411700	0.269900
C471	C47	0.487300	0.461700	0.186600
C481	C48	0.436200	0.476700	0.177500
H451	H45	0.410000	0.466500	0.201100
C491	C49	0.422500	0.506800	0.133800
H461	H46	0.387400	0.514900	0.126900
C501	C50	0.460100	0.523700	0.102500
C511	C51	0.512800	0.511500	0.111600
H471	H47	0.539100	0.523800	0.089200
C521	C52	0.524100	0.482400	0.152300
H481	H48	0.559400	0.475000	0.158800
N131	N13	0.638600	0.563900	0.194900
N141	N14	0.563100	0.608000	0.215100
H491	H49	0.540300	0.632000	0.207700
N151	N15	0.550700	0.572200	0.252100
C531	C53	0.687100	0.563000	0.173500
H501	H50	0.709000	0.534300	0.180300
C541	C54	0.705700	0.603500	0.141500
H511	H51	0.737100	0.600300	0.122900
C551	C55	0.674700	0.649800	0.138700
H521	H52	0.687400	0.679900	0.122100
C561	C56	0.626900	0.649300	0.160300
H531	H53	0.605200	0.678400	0.155000
C571	C57	0.607800	0.608300	0.189800
C581	C58	0.500600	0.571500	0.270200
C591	C59	0.461400	0.608300	0.245400
H541	H54	0.478500	0.628600	0.218400
H551	H55	0.447600	0.631600	0.271800
H561	H56	0.433200	0.588300	0.230100
C601	C60	0.487300	0.538300	0.313400
C611	C61	0.436200	0.523300	0.322500
H571	H57	0.410000	0.533500	0.298900
C621	C62	0.422500	0.493200	0.366200
H581	H58	0.387400	0.485100	0.373100
C631	C63	0.460100	0.476300	0.397500
C641	C64	0.512800	0.488500	0.388400
H591	H59	0.539100	0.476200	0.410800
C651	C65	0.524100	0.517600	0.347700
H601	H60	0.559400	0.525000	0.341200
N161	N16	0.138600	0.063900	0.694900
N171	N17	0.063100	0.108000	0.715100
H611	H61	0.040300	0.132000	0.707700
N181	N18	0.050700	0.072200	0.752100
C661	C66	0.187100	0.063000	0.673500
H621	H62	0.209000	0.034300	0.680300
C671	C67	0.205700	0.103500	0.641500
H631	H63	0.237100	0.100300	0.622900
C681	C68	0.174700	0.149800	0.638700
H641	H64	0.187400	0.179900	0.622100
C691	C69	0.126900	0.149300	0.660300
H651	H65	0.105200	0.178400	0.655000
C701	C70	0.107800	0.108300	0.689800
C711	C71	0.000600	0.071500	0.770200
C721	C72	0.961400	0.108300	0.745400
H661	H66	0.978500	0.128600	0.718400
H671	H67	0.947600	0.131600	0.771800
H681	H68	0.933200	0.088300	0.730100
C731	C73	0.987300	0.038300	0.813400
C741	C74	0.936200	0.023300	0.822500
H691	H69	0.910000	0.033500	0.798900
C751	C75	0.922500	0.993200	0.866200
H701	H70	0.887400	0.985100	0.873100
C761	C76	0.960100	0.976300	0.897500
C771	C77	0.012800	0.988500	0.888400
H711	H71	0.039100	0.976200	0.910800
C781	C78	0.024100	0.017600	0.847700
H721	H72	0.059400	0.025000	0.841200
N191	N19	0.861400	0.436100	0.694900
N201	N20	0.936900	0.392000	0.715100
H731	H73	0.959700	0.368000	0.707700
N211	N21	0.949300	0.427800	0.752100
C791	C79	0.812900	0.437000	0.673500
H741	H74	0.791000	0.465700	0.680300
C801	C80	0.794300	0.396500	0.641500
H751	H75	0.762900	0.399700	0.622900
C811	C81	0.825300	0.350200	0.638700
H761	H76	0.812600	0.320100	0.622100
C821	C82	0.873100	0.350700	0.660300
H771	H77	0.894800	0.321600	0.655000
C831	C83	0.892200	0.391700	0.689800
C841	C84	0.999400	0.428500	0.770200
C851	C85	0.038600	0.391700	0.745400
H781	H78	0.021500	0.371400	0.718400
H791	H79	0.052400	0.368400	0.771800
H801	H80	0.066800	0.411700	0.730100
C861	C86	0.012700	0.461700	0.813400
C871	C87	0.063800	0.476700	0.822500
H811	H81	0.090000	0.466500	0.798900
C881	C88	0.077500	0.506800	0.866200
H821	H82	0.112600	0.514900	0.873100
C891	C89	0.039900	0.523700	0.897500
C901	C90	0.987200	0.511500	0.888400
H831	H83	0.960900	0.523800	0.910800
C911	C91	0.975900	0.482400	0.847700
H841	H84	0.940600	0.475000	0.841200
N221	N22	0.361400	0.936100	0.194900
N231	N23	0.436900	0.892000	0.215100
H851	H85	0.459700	0.868000	0.207700
N241	N24	0.449300	0.927800	0.252100
C921	C92	0.312900	0.937000	0.173500
H861	H86	0.291000	0.965700	0.180300
C931	C93	0.294300	0.896500	0.141500
H871	H87	0.262900	0.899700	0.122900
C941	C94	0.325300	0.850200	0.138700
H881	H88	0.312600	0.820100	0.122100
C951	C95	0.373100	0.850700	0.160300
H891	H89	0.394800	0.821600	0.155000
C961	C96	0.392200	0.891700	0.189800
C971	C97	0.499400	0.928500	0.270200
C981	C98	0.538600	0.891700	0.245400
H901	H90	0.521500	0.871400	0.218400
H911	H91	0.552400	0.868400	0.271800
H921	H92	0.566800	0.911700	0.230100
C991	C99	0.512700	0.961700	0.313400
C1001	C100	0.563800	0.976700	0.322500
H931	H93	0.590000	0.966500	0.298900
C1011	C101	0.577500	0.006800	0.366200
H941	H94	0.612600	0.014900	0.373100
C1021	C102	0.539900	0.023700	0.397500
C1031	C103	0.487200	0.011500	0.388400
H951	H95	0.460900	0.023800	0.410800
C1041	C104	0.475900	0.982400	0.347700
H961	H96	0.440600	0.975000	0.341200
N251	N25	0.305100	0.361400	0.063900
N261	N26	0.284900	0.436900	0.108000
H971	H97	0.292300	0.459700	0.132000
N271	N27	0.247900	0.449300	0.072200
C1051	C105	0.326500	0.312900	0.063000
H981	H98	0.319700	0.291000	0.034300
C1061	C106	0.358500	0.294300	0.103500
H991	H99	0.377100	0.262900	0.100300
C1071	C107	0.361300	0.325300	0.149800
H1001	H100	0.377900	0.312600	0.179900
C1081	C108	0.339700	0.373100	0.149300
H1011	H101	0.345000	0.394800	0.178400
C1091	C109	0.310200	0.392200	0.108300
C1101	C110	0.229800	0.499400	0.071500
C1111	C111	0.254600	0.538600	0.108300
H1021	H102	0.281600	0.521500	0.128600
H1031	H103	0.228200	0.552400	0.131600
H1041	H104	0.269900	0.566800	0.088300
C1121	C112	0.186600	0.512700	0.038300
C1131	C113	0.177500	0.563800	0.023300
H1051	H105	0.201100	0.590000	0.033500
C1141	C114	0.133800	0.577500	0.993200
H1061	H106	0.126900	0.612600	0.985100
C1151	C115	0.102500	0.539900	0.976300
C1161	C116	0.111600	0.487200	0.988500
H1071	H107	0.089200	0.460900	0.976200
C1171	C117	0.152300	0.475900	0.017600
H1081	H108	0.158800	0.440600	0.025000
N281	N28	0.805100	0.861400	0.563900
N291	N29	0.784900	0.936900	0.608000
H1091	H109	0.792300	0.959700	0.632000
N301	N30	0.747900	0.949300	0.572200
C1181	C118	0.826500	0.812900	0.563000
H1101	H110	0.819700	0.791000	0.534300
C1191	C119	0.858500	0.794300	0.603500
H1111	H111	0.877100	0.762900	0.600300
C1201	C120	0.861300	0.825300	0.649800
H1121	H112	0.877900	0.812600	0.679900
C1211	C121	0.839700	0.873100	0.649300
H1131	H113	0.845000	0.894800	0.678400
C1221	C122	0.810200	0.892200	0.608300
C1231	C123	0.729800	0.999400	0.571500
C1241	C124	0.754600	0.038600	0.608300
H1141	H114	0.781600	0.021500	0.628600
H1151	H115	0.728200	0.052400	0.631600
H1161	H116	0.769900	0.066800	0.588300
C1251	C125	0.686600	0.012700	0.538300
C1261	C126	0.677500	0.063800	0.523300
H1171	H117	0.701100	0.090000	0.533500
C1271	C127	0.633800	0.077500	0.493200
H1181	H118	0.626900	0.112600	0.485100
C1281	C128	0.602500	0.039900	0.476300
C1291	C129	0.611600	0.987200	0.488500
H1191	H119	0.589200	0.960900	0.476200
C1301	C130	0.652300	0.975900	0.517600
H1201	H120	0.658800	0.940600	0.525000
N311	N31	0.805100	0.138600	0.936100
N321	N32	0.784900	0.063100	0.892000
H1211	H121	0.792300	0.040300	0.868000
N331	N33	0.747900	0.050700	0.927800
C1311	C131	0.826500	0.187100	0.937000
H1221	H122	0.819700	0.209000	0.965700
C1321	C132	0.858500	0.205700	0.896500
H1231	H123	0.877100	0.237100	0.899700
C1331	C133	0.861300	0.174700	0.850200
H1241	H124	0.877900	0.187400	0.820100
C1341	C134	0.839700	0.126900	0.850700
H1251	H125	0.845000	0.105200	0.821600
C1351	C135	0.810200	0.107800	0.891700
C1361	C136	0.729800	0.000600	0.928500
C1371	C137	0.754600	0.961400	0.891700
H1261	H126	0.781600	0.978500	0.871400
H1271	H127	0.728200	0.947600	0.868400
H1281	H128	0.769900	0.933200	0.911700
C1381	C138	0.686600	0.987300	0.961700
C1391	C139	0.677500	0.936200	0.976700
H1291	H129	0.701100	0.910000	0.966500
C1401	C140	0.633800	0.922500	0.006800
H1301	H130	0.626900	0.887400	0.014900
C1411	C141	0.602500	0.960100	0.023700
C1421	C142	0.611600	0.012800	0.011500
H1311	H131	0.589200	0.039100	0.023800
C1431	C143	0.652300	0.024100	0.982400
H1321	H132	0.658800	0.059400	0.975000
N341	N34	0.305100	0.638600	0.436100
N351	N35	0.284900	0.563100	0.392000
H1331	H133	0.292300	0.540300	0.368000
N361	N36	0.247900	0.550700	0.427800
C1441	C144	0.326500	0.687100	0.437000
H1341	H134	0.319700	0.709000	0.465700
C1451	C145	0.358500	0.705700	0.396500
H1351	H135	0.377100	0.737100	0.399700
C1461	C146	0.361300	0.674700	0.350200
H1361	H136	0.377900	0.687400	0.320100
C1471	C147	0.339700	0.626900	0.350700
H1371	H137	0.345000	0.605200	0.321600
C1481	C148	0.310200	0.607800	0.391700
C1491	C149	0.229800	0.500600	0.428500
C1501	C150	0.254600	0.461400	0.391700
H1381	H138	0.281600	0.478500	0.371400
H1391	H139	0.228200	0.447600	0.368400
H1401	H140	0.269900	0.433200	0.411700
C1511	C151	0.186600	0.487300	0.461700
C1521	C152	0.177500	0.436200	0.476700
H1411	H141	0.201100	0.410000	0.466500
C1531	C153	0.133800	0.422500	0.506800
H1421	H142	0.126900	0.387400	0.514900
C1541	C154	0.102500	0.460100	0.523700
C1551	C155	0.111600	0.512800	0.511500
H1431	H143	0.089200	0.539100	0.523800
C1561	C156	0.152300	0.524100	0.482400
H1441	H144	0.158800	0.559400	0.475000
N371	N37	0.194900	0.638600	0.563900
N381	N38	0.215100	0.563100	0.608000
H1451	H145	0.207700	0.540300	0.632000
N391	N39	0.252100	0.550700	0.572200
C1571	C157	0.173500	0.687100	0.563000
H1461	H146	0.180300	0.709000	0.534300
C1581	C158	0.141500	0.705700	0.603500
H1471	H147	0.122900	0.737100	0.600300
C1591	C159	0.138700	0.674700	0.649800
H1481	H148	0.122100	0.687400	0.679900
C1601	C160	0.160300	0.626900	0.649300
H1491	H149	0.155000	0.605200	0.678400
C1611	C161	0.189800	0.607800	0.608300
C1621	C162	0.270200	0.500600	0.571500
C1631	C163	0.245400	0.461400	0.608300
H1501	H150	0.218400	0.478500	0.628600
H1511	H151	0.271800	0.447600	0.631600
H1521	H152	0.230100	0.433200	0.588300
C1641	C164	0.313400	0.487300	0.538300
C1651	C165	0.322500	0.436200	0.523300
H1531	H153	0.298900	0.410000	0.533500
C1661	C166	0.366200	0.422500	0.493200
H1541	H154	0.373100	0.387400	0.485100
C1671	C167	0.397500	0.460100	0.476300
C1681	C168	0.388400	0.512800	0.488500
H1551	H155	0.410800	0.539100	0.476200
C1691	C169	0.347700	0.524100	0.517600
H1561	H156	0.341200	0.559400	0.525000
N401	N40	0.694900	0.138600	0.063900
N411	N41	0.715100	0.063100	0.108000
H1571	H157	0.707700	0.040300	0.132000
N421	N42	0.752100	0.050700	0.072200
C1701	C170	0.673500	0.187100	0.063000
H1581	H158	0.680300	0.209000	0.034300
C1711	C171	0.641500	0.205700	0.103500
H1591	H159	0.622900	0.237100	0.100300
C1721	C172	0.638700	0.174700	0.149800
H1601	H160	0.622100	0.187400	0.179900
C1731	C173	0.660300	0.126900	0.149300
H1611	H161	0.655000	0.105200	0.178400
C1741	C174	0.689800	0.107800	0.108300
C1751	C175	0.770200	0.000600	0.071500
C1761	C176	0.745400	0.961400	0.108300
H1621	H162	0.718400	0.978500	0.128600
H1631	H163	0.771800	0.947600	0.131600
H1641	H164	0.730100	0.933200	0.088300
C1771	C177	0.813400	0.987300	0.038300
C1781	C178	0.822500	0.936200	0.023300
H1651	H165	0.798900	0.910000	0.033500
C1791	C179	0.866200	0.922500	0.993200
H1661	H166	0.873100	0.887400	0.985100
C1801	C180	0.897500	0.960100	0.976300
C1811	C181	0.888400	0.012800	0.988500
H1671	H167	0.910800	0.039100	0.976200
C1821	C182	0.847700	0.024100	0.017600
H1681	H168	0.841200	0.059400	0.025000
N431	N43	0.694900	0.861400	0.436100
N441	N44	0.715100	0.936900	0.392000
H1691	H169	0.707700	0.959700	0.368000
N451	N45	0.752100	0.949300	0.427800
C1831	C183	0.673500	0.812900	0.437000
H1701	H170	0.680300	0.791000	0.465700
C1841	C184	0.641500	0.794300	0.396500
H1711	H171	0.622900	0.762900	0.399700
C1851	C185	0.638700	0.825300	0.350200
H1721	H172	0.622100	0.812600	0.320100
C1861	C186	0.660300	0.873100	0.350700
H1731	H173	0.655000	0.894800	0.321600
C1871	C187	0.689800	0.892200	0.391700
C1881	C188	0.770200	0.999400	0.428500
C1891	C189	0.745400	0.038600	0.391700
H1741	H174	0.718400	0.021500	0.371400
H1751	H175	0.771800	0.052400	0.368400
H1761	H176	0.730100	0.066800	0.411700
C1901	C190	0.813400	0.012700	0.461700
C1911	C191	0.822500	0.063800	0.476700
H1771	H177	0.798900	0.090000	0.466500
C1921	C192	0.866200	0.077500	0.506800
H1781	H178	0.873100	0.112600	0.514900
C1931	C193	0.897500	0.039900	0.523700
C1941	C194	0.888400	0.987200	0.511500
H1791	H179	0.910800	0.960900	0.523800
C1951	C195	0.847700	0.975900	0.482400
H1801	H180	0.841200	0.940600	0.475000
N461	N46	0.194900	0.361400	0.936100
N471	N47	0.215100	0.436900	0.892000
H1811	H181	0.207700	0.459700	0.868000
N481	N48	0.252100	0.449300	0.927800
C1961	C196	0.173500	0.312900	0.937000
H1821	H182	0.180300	0.291000	0.965700
C1971	C197	0.141500	0.294300	0.896500
H1831	H183	0.122900	0.262900	0.899700
C1981	C198	0.138700	0.325300	0.850200
H1841	H184	0.122100	0.312600	0.820100
C1991	C199	0.160300	0.373100	0.850700
H1851	H185	0.155000	0.394800	0.821600
C2001	C200	0.189800	0.392200	0.891700
C2011	C201	0.270200	0.499400	0.928500
C2021	C202	0.245400	0.538600	0.891700
H1861	H186	0.218400	0.521500	0.871400
H1871	H187	0.271800	0.552400	0.868400
H1881	H188	0.230100	0.566800	0.911700
C2031	C203	0.313400	0.512700	0.961700
C2041	C204	0.322500	0.563800	0.976700
H1891	H189	0.298900	0.590000	0.966500
C2051	C205	0.366200	0.577500	0.006800
H1901	H190	0.373100	0.612600	0.014900
C2061	C206	0.397500	0.539900	0.023700
C2071	C207	0.388400	0.487200	0.011500
H1911	H191	0.410800	0.460900	0.023800
C2081	C208	0.347700	0.475900	0.982400
H1921	H192	0.341200	0.440600	0.975000
N491	N49	0.063900	0.305100	0.361400
N501	N50	0.108000	0.284900	0.436900
H1931	H193	0.132000	0.292300	0.459700
N511	N51	0.072200	0.247900	0.449300
C2091	C209	0.063000	0.326500	0.312900
H1941	H194	0.034300	0.319700	0.291000
C2101	C210	0.103500	0.358500	0.294300
H1951	H195	0.100300	0.377100	0.262900
C2111	C211	0.149800	0.361300	0.325300
H1961	H196	0.179900	0.377900	0.312600
C2121	C212	0.149300	0.339700	0.373100
H1971	H197	0.178400	0.345000	0.394800
C2131	C213	0.108300	0.310200	0.392200
C2141	C214	0.071500	0.229800	0.499400
C2151	C215	0.108300	0.254600	0.538600
H1981	H198	0.128600	0.281600	0.521500
H1991	H199	0.131600	0.228200	0.552400
H2001	H200	0.088300	0.269900	0.566800
C2161	C216	0.038300	0.186600	0.512700
C2171	C217	0.023300	0.177500	0.563800
H2011	H201	0.033500	0.201100	0.590000
C2181	C218	0.993200	0.133800	0.577500
H2021	H202	0.985100	0.126900	0.612600
C2191	C219	0.976300	0.102500	0.539900
C2201	C220	0.988500	0.111600	0.487200
H2031	H203	0.976200	0.089200	0.460900
C2211	C221	0.017600	0.152300	0.475900
H2041	H204	0.025000	0.158800	0.440600
N521	N52	0.563900	0.805100	0.861400
N531	N53	0.608000	0.784900	0.936900
H2051	H205	0.632000	0.792300	0.959700
N541	N54	0.572200	0.747900	0.949300
C2221	C222	0.563000	0.826500	0.812900
H2061	H206	0.534300	0.819700	0.791000
C2231	C223	0.603500	0.858500	0.794300
H2071	H207	0.600300	0.877100	0.762900
C2241	C224	0.649800	0.861300	0.825300
H2081	H208	0.679900	0.877900	0.812600
C2251	C225	0.649300	0.839700	0.873100
H2091	H209	0.678400	0.845000	0.894800
C2261	C226	0.608300	0.810200	0.892200
C2271	C227	0.571500	0.729800	0.999400
C2281	C228	0.608300	0.754600	0.038600
H2101	H210	0.628600	0.781600	0.021500
H2111	H211	0.631600	0.728200	0.052400
H2121	H212	0.588300	0.769900	0.066800
C2291	C229	0.538300	0.686600	0.012700
C2301	C230	0.523300	0.677500	0.063800
H2131	H213	0.533500	0.701100	0.090000
C2311	C231	0.493200	0.633800	0.077500
H2141	H214	0.485100	0.626900	0.112600
C2321	C232	0.476300	0.602500	0.039900
C2331	C233	0.488500	0.611600	0.987200
H2151	H215	0.476200	0.589200	0.960900
C2341	C234	0.517600	0.652300	0.975900
H2161	H216	0.525000	0.658800	0.940600
N551	N55	0.936100	0.805100	0.138600
N561	N56	0.892000	0.784900	0.063100
H2171	H217	0.868000	0.792300	0.040300
N571	N57	0.927800	0.747900	0.050700
C2351	C235	0.937000	0.826500	0.187100
H2181	H218	0.965700	0.819700	0.209000
C2361	C236	0.896500	0.858500	0.205700
H2191	H219	0.899700	0.877100	0.237100
C2371	C237	0.850200	0.861300	0.174700
H2201	H220	0.820100	0.877900	0.187400
C2381	C238	0.850700	0.839700	0.126900
H2211	H221	0.821600	0.845000	0.105200
C2391	C239	0.891700	0.810200	0.107800
C2401	C240	0.928500	0.729800	0.000600
C2411	C241	0.891700	0.754600	0.961400
H2221	H222	0.871400	0.781600	0.978500
H2231	H223	0.868400	0.728200	0.947600
H2241	H224	0.911700	0.769900	0.933200
C2421	C242	0.961700	0.686600	0.987300
C2431	C243	0.976700	0.677500	0.936200
H2251	H225	0.966500	0.701100	0.910000
C2441	C244	0.006800	0.633800	0.922500
H2261	H226	0.014900	0.626900	0.887400
C2451	C245	0.023700	0.602500	0.960100
C2461	C246	0.011500	0.611600	0.012800
H2271	H227	0.023800	0.589200	0.039100
C2471	C247	0.982400	0.652300	0.024100
H2281	H228	0.975000	0.658800	0.059400
N581	N58	0.436100	0.305100	0.638600
N591	N59	0.392000	0.284900	0.563100
H2291	H229	0.368000	0.292300	0.540300
N601	N60	0.427800	0.247900	0.550700
C2481	C248	0.437000	0.326500	0.687100
H2301	H230	0.465700	0.319700	0.709000
C2491	C249	0.396500	0.358500	0.705700
H2311	H231	0.399700	0.377100	0.737100
C2501	C250	0.350200	0.361300	0.674700
H2321	H232	0.320100	0.377900	0.687400
C2511	C251	0.350700	0.339700	0.626900
H2331	H233	0.321600	0.345000	0.605200
C2521	C252	0.391700	0.310200	0.607800
C2531	C253	0.428500	0.229800	0.500600
C2541	C254	0.391700	0.254600	0.461400
H2341	H234	0.371400	0.281600	0.478500
H2351	H235	0.368400	0.228200	0.447600
H2361	H236	0.411700	0.269900	0.433200
C2551	C255	0.461700	0.186600	0.487300
C2561	C256	0.476700	0.177500	0.436200
H2371	H237	0.466500	0.201100	0.410000
C2571	C257	0.506800	0.133800	0.422500
H2381	H238	0.514900	0.126900	0.387400
C2581	C258	0.523700	0.102500	0.460100
C2591	C259	0.511500	0.111600	0.512800
H2391	H239	0.523800	0.089200	0.539100
C2601	C260	0.482400	0.152300	0.524100
H2401	H240	0.475000	0.158800	0.559400
N611	N61	0.563900	0.194900	0.638600
N621	N62	0.608000	0.215100	0.563100
H2411	H241	0.632000	0.207700	0.540300
N631	N63	0.572200	0.252100	0.550700
C2611	C261	0.563000	0.173500	0.687100
H2421	H242	0.534300	0.180300	0.709000
C2621	C262	0.603500	0.141500	0.705700
H2431	H243	0.600300	0.122900	0.737100
C2631	C263	0.649800	0.138700	0.674700
H2441	H244	0.679900	0.122100	0.687400
C2641	C264	0.649300	0.160300	0.626900
H2451	H245	0.678400	0.155000	0.605200
C2651	C265	0.608300	0.189800	0.607800
C2661	C266	0.571500	0.270200	0.500600
C2671	C267	0.608300	0.245400	0.461400
H2461	H246	0.628600	0.218400	0.478500
H2471	H247	0.631600	0.271800	0.447600
H2481	H248	0.588300	0.230100	0.433200
C2681	C268	0.538300	0.313400	0.487300
C2691	C269	0.523300	0.322500	0.436200
H2491	H249	0.533500	0.298900	0.410000
C2701	C270	0.493200	0.366200	0.422500
H2501	H250	0.485100	0.373100	0.387400
C2711	C271	0.476300	0.397500	0.460100
C2721	C272	0.488500	0.388400	0.512800
H2511	H251	0.476200	0.410800	0.539100
C2731	C273	0.517600	0.347700	0.524100
H2521	H252	0.525000	0.341200	0.559400
N641	N64	0.063900	0.694900	0.138600
N651	N65	0.108000	0.715100	0.063100
H2531	H253	0.132000	0.707700	0.040300
N661	N66	0.072200	0.752100	0.050700
C2741	C274	0.063000	0.673500	0.187100
H2541	H254	0.034300	0.680300	0.209000
C2751	C275	0.103500	0.641500	0.205700
H2551	H255	0.100300	0.622900	0.237100
C2761	C276	0.149800	0.638700	0.174700
H2561	H256	0.179900	0.622100	0.187400
C2771	C277	0.149300	0.660300	0.126900
H2571	H257	0.178400	0.655000	0.105200
C2781	C278	0.108300	0.689800	0.107800
C2791	C279	0.071500	0.770200	0.000600
C2801	C280	0.108300	0.745400	0.961400
H2581	H258	0.128600	0.718400	0.978500
H2591	H259	0.131600	0.771800	0.947600
H2601	H260	0.088300	0.730100	0.933200
C2811	C281	0.038300	0.813400	0.987300
C2821	C282	0.023300	0.822500	0.936200
H2611	H261	0.033500	0.798900	0.910000
C2831	C283	0.993200	0.866200	0.922500
H2621	H262	0.985100	0.873100	0.887400
C2841	C284	0.976300	0.897500	0.960100
C2851	C285	0.988500	0.888400	0.012800
H2631	H263	0.976200	0.910800	0.039100
C2861	C286	0.017600	0.847700	0.024100
H2641	H264	0.025000	0.841200	0.059400
N671	N67	0.436100	0.694900	0.861400
N681	N68	0.392000	0.715100	0.936900
H2651	H265	0.368000	0.707700	0.959700
N691	N69	0.427800	0.752100	0.949300
C2871	C287	0.437000	0.673500	0.812900
H2661	H266	0.465700	0.680300	0.791000
C2881	C288	0.396500	0.641500	0.794300
H2671	H267	0.399700	0.622900	0.762900
C2891	C289	0.350200	0.638700	0.825300
H2681	H268	0.320100	0.622100	0.812600
C2901	C290	0.350700	0.660300	0.873100
H2691	H269	0.321600	0.655000	0.894800
C2911	C291	0.391700	0.689800	0.892200
C2921	C292	0.428500	0.770200	0.999400
C2931	C293	0.391700	0.745400	0.038600
H2701	H270	0.371400	0.718400	0.021500
H2711	H271	0.368400	0.771800	0.052400
H2721	H272	0.411700	0.730100	0.066800
C2941	C294	0.461700	0.813400	0.012700
C2951	C295	0.476700	0.822500	0.063800
H2731	H273	0.466500	0.798900	0.090000
C2961	C296	0.506800	0.866200	0.077500
H2741	H274	0.514900	0.873100	0.112600
C2971	C297	0.523700	0.897500	0.039900
C2981	C298	0.511500	0.888400	0.987200
H2751	H275	0.523800	0.910800	0.960900
C2991	C299	0.482400	0.847700	0.975900
H2761	H276	0.475000	0.841200	0.940600
N701	N70	0.936100	0.194900	0.361400
N711	N71	0.892000	0.215100	0.436900
H2771	H277	0.868000	0.207700	0.459700
N721	N72	0.927800	0.252100	0.449300
C3001	C300	0.937000	0.173500	0.312900
H2781	H278	0.965700	0.180300	0.291000
C3011	C301	0.896500	0.141500	0.294300
H2791	H279	0.899700	0.122900	0.262900
C3021	C302	0.850200	0.138700	0.325300
H2801	H280	0.820100	0.122100	0.312600
C3031	C303	0.850700	0.160300	0.373100
H2811	H281	0.821600	0.155000	0.394800
C3041	C304	0.891700	0.189800	0.392200
C3051	C305	0.928500	0.270200	0.499400
C3061	C306	0.891700	0.245400	0.538600
H2821	H282	0.871400	0.218400	0.521500
H2831	H283	0.868400	0.271800	0.552400
H2841	H284	0.911700	0.230100	0.566800
C3071	C307	0.961700	0.313400	0.512700
C3081	C308	0.976700	0.322500	0.563800
H2851	H285	0.966500	0.298900	0.590000
C3091	C309	0.006800	0.366200	0.577500
H2861	H286	0.014900	0.373100	0.612600
C3101	C310	0.023700	0.397500	0.539900
C3111	C311	0.011500	0.388400	0.487200
H2871	H287	0.023800	0.410800	0.460900
C3121	C312	0.982400	0.347700	0.475900
H2881	H288	0.975000	0.341200	0.440600
Ag11	Ag1	0.387000	0.000000	0.250000
Ag21	Ag2	0.113000	0.000000	0.750000
Ag31	Ag3	0.613000	0.500000	0.250000
Ag41	Ag4	0.887000	0.500000	0.750000
Ag51	Ag5	0.250000	0.387000	0.000000
Ag61	Ag6	0.750000	0.113000	0.000000
Ag71	Ag7	0.250000	0.613000	0.500000
Ag81	Ag8	0.750000	0.887000	0.500000
Ag91	Ag9	0.000000	0.250000	0.387000
Ag101	Ag10	0.000000	0.750000	0.113000
Ag111	Ag11	0.500000	0.250000	0.613000
Ag121	Ag12	0.500000	0.750000	0.887000
N731	N73	0.556000	0.944000	0.056000
N741	N74	0.056000	0.444000	0.556000
N751	N75	0.944000	0.056000	0.556000
N761	N76	0.444000	0.556000	0.056000
N771	N77	0.444000	0.444000	0.444000
N781	N78	0.944000	0.944000	0.944000
N791	N79	0.056000	0.556000	0.944000
N801	N80	0.556000	0.056000	0.444000
