data_ADEGIA_clean_PM
_symmetry_space_group_name_H-M	'P1'
_cell_length_a	8.606600
_cell_length_b	10.156000
_cell_length_c	11.161000
_cell_angle_alpha	65.260000
_cell_angle_beta	71.760000
_cell_angle_gamma	78.680000
_symmetry_Int_Tables_number 1

loop_
_symmetry_equiv_pos_as_xyz
'x,y,z'

loop_
_atom_site_label
_atom_site_type_symbol
_atom_site_fract_x
_atom_site_fract_y
_atom_site_fract_z
Gd11	Gd1	0.868140	0.560250	0.346710
Gd21	Gd2	0.131860	0.439750	0.653290
H11	H1	0.928700	0.781400	0.681100
H21	H2	0.016700	0.027400	0.280300
H31	H3	0.365300	0.884900	0.227300
H41	H4	0.771300	0.931200	0.918900
H51	H5	0.457500	0.645100	0.122300
H61	H6	0.284000	0.383400	0.014800
H71	H7	0.071300	0.218600	0.318900
H81	H8	0.983300	0.972600	0.719700
H91	H9	0.634700	0.115100	0.772700
H101	H10	0.228700	0.068800	0.081100
H111	H11	0.542500	0.354900	0.877700
H121	H12	0.716000	0.616600	0.985200
C11	C1	0.931600	0.765200	0.447400
C21	C2	0.967400	0.885600	0.476400
C31	C3	0.957200	0.868800	0.608500
C41	C4	0.010000	0.016400	0.368700
C51	C5	0.674600	0.768000	0.180100
C61	C6	0.582600	0.889000	0.088900
C71	C7	0.419900	0.930900	0.136000
C81	C8	0.662000	0.958900	0.951800
C91	C9	0.178900	0.538900	0.169100
C101	C10	0.345200	0.517700	0.082400
C111	C11	0.474700	0.586700	0.073000
C121	C12	0.370400	0.430200	0.009000
C131	C13	0.068400	0.234800	0.552600
C141	C14	0.032600	0.114400	0.523600
C151	C15	0.042800	0.131200	0.391500
C161	C16	0.990000	0.983600	0.631300
C171	C17	0.325400	0.232000	0.819900
C181	C18	0.417400	0.111000	0.911100
C191	C19	0.580100	0.069100	0.864000
C201	C20	0.338000	0.041100	0.048200
C211	C21	0.821100	0.461100	0.830900
C221	C22	0.654800	0.482300	0.917600
C231	C23	0.525300	0.413300	0.927000
C241	C24	0.629600	0.569800	0.991000
O11	O1	0.963800	0.633540	0.519440
O21	O2	0.868900	0.797810	0.350900
O31	O3	0.602200	0.700400	0.304520
O41	O4	0.821700	0.735000	0.131050
O51	O5	0.156900	0.618940	0.235840
O61	O6	0.063100	0.476630	0.174990
O71	O7	0.036200	0.366460	0.480560
O81	O8	0.131100	0.202190	0.649100
O91	O9	0.397800	0.299600	0.695480
O101	O10	0.178300	0.265000	0.868950
O111	O11	0.843100	0.381060	0.764160
O121	O12	0.936900	0.523370	0.825010
