data_ADUWIH_clean_PM
_symmetry_space_group_name_H-M	'P1'
_cell_length_a	22.072000
_cell_length_b	22.072000
_cell_length_c	22.072000
_cell_angle_alpha	90.000000
_cell_angle_beta	90.000000
_cell_angle_gamma	90.000000
_symmetry_Int_Tables_number 1

loop_
_symmetry_equiv_pos_as_xyz
'x,y,z'

loop_
_atom_site_label
_atom_site_type_symbol
_atom_site_fract_x
_atom_site_fract_y
_atom_site_fract_z
Zn11	Zn1	0.592540	0.907460	0.592540
Zn21	Zn2	0.907460	0.592540	0.592540
Zn31	Zn3	0.907460	0.907460	0.907460
Zn41	Zn4	0.592540	0.592540	0.907460
Zn51	Zn5	0.407460	0.092540	0.407460
Zn61	Zn6	0.092540	0.407460	0.407460
Zn71	Zn7	0.092540	0.092540	0.092540
Zn81	Zn8	0.407460	0.407460	0.092540
Zn91	Zn9	0.500000	0.000000	0.500000
Zn101	Zn10	0.000000	0.500000	0.500000
Zn111	Zn11	0.000000	0.000000	0.000000
Zn121	Zn12	0.500000	0.500000	0.000000
H11	H1	0.535600	0.747500	0.503500
H21	H2	0.446100	0.693800	0.354500
H31	H3	0.438100	0.793900	0.325600
H41	H4	0.481000	0.869500	0.381500
H51	H5	0.429800	0.609200	0.420100
H61	H6	0.489900	0.598200	0.382800
H71	H7	0.964400	0.752500	0.503500
H81	H8	0.053900	0.806200	0.354500
H91	H9	0.061900	0.706100	0.325600
H101	H10	0.019000	0.630500	0.381500
H111	H11	0.070200	0.890800	0.420100
H121	H12	0.010100	0.901800	0.382800
H131	H13	0.964400	0.747500	0.996500
H141	H14	0.053900	0.693800	0.145500
H151	H15	0.061900	0.793900	0.174400
H161	H16	0.019000	0.869500	0.118500
H171	H17	0.070200	0.609200	0.079900
H181	H18	0.010100	0.598200	0.117200
H191	H19	0.535600	0.752500	0.996500
H201	H20	0.446100	0.806200	0.145500
H211	H21	0.438100	0.706100	0.174400
H221	H22	0.481000	0.630500	0.118500
H231	H23	0.429800	0.890800	0.079900
H241	H24	0.489900	0.901800	0.117200
H251	H25	0.503500	0.535600	0.747500
H261	H26	0.354500	0.446100	0.693800
H271	H27	0.325600	0.438100	0.793900
H281	H28	0.381500	0.481000	0.869500
H291	H29	0.420100	0.429800	0.609200
H301	H30	0.382800	0.489900	0.598200
H311	H31	0.503500	0.964400	0.752500
H321	H32	0.354500	0.053900	0.806200
H331	H33	0.325600	0.061900	0.706100
H341	H34	0.381500	0.019000	0.630500
H351	H35	0.420100	0.070200	0.890800
H361	H36	0.382800	0.010100	0.901800
H371	H37	0.996500	0.964400	0.747500
H381	H38	0.145500	0.053900	0.693800
H391	H39	0.174400	0.061900	0.793900
H401	H40	0.118500	0.019000	0.869500
H411	H41	0.079900	0.070200	0.609200
H421	H42	0.117200	0.010100	0.598200
H431	H43	0.996500	0.535600	0.752500
H441	H44	0.145500	0.446100	0.806200
H451	H45	0.174400	0.438100	0.706100
H461	H46	0.118500	0.481000	0.630500
H471	H47	0.079900	0.429800	0.890800
H481	H48	0.117200	0.489900	0.901800
H491	H49	0.747500	0.503500	0.535600
H501	H50	0.693800	0.354500	0.446100
H511	H51	0.793900	0.325600	0.438100
H521	H52	0.869500	0.381500	0.481000
H531	H53	0.609200	0.420100	0.429800
H541	H54	0.598200	0.382800	0.489900
H551	H55	0.752500	0.503500	0.964400
H561	H56	0.806200	0.354500	0.053900
H571	H57	0.706100	0.325600	0.061900
H581	H58	0.630500	0.381500	0.019000
H591	H59	0.890800	0.420100	0.070200
H601	H60	0.901800	0.382800	0.010100
H611	H61	0.747500	0.996500	0.964400
H621	H62	0.693800	0.145500	0.053900
H631	H63	0.793900	0.174400	0.061900
H641	H64	0.869500	0.118500	0.019000
H651	H65	0.609200	0.079900	0.070200
H661	H66	0.598200	0.117200	0.010100
H671	H67	0.752500	0.996500	0.535600
H681	H68	0.806200	0.145500	0.446100
H691	H69	0.706100	0.174400	0.438100
H701	H70	0.630500	0.118500	0.481000
H711	H71	0.890800	0.079900	0.429800
H721	H72	0.901800	0.117200	0.489900
H731	H73	0.464400	0.252500	0.496500
H741	H74	0.553900	0.306200	0.645500
H751	H75	0.561900	0.206100	0.674400
H761	H76	0.519000	0.130500	0.618500
H771	H77	0.570200	0.390800	0.579900
H781	H78	0.510100	0.401800	0.617200
H791	H79	0.035600	0.247500	0.496500
H801	H80	0.946100	0.193800	0.645500
H811	H81	0.938100	0.293900	0.674400
H821	H82	0.981000	0.369500	0.618500
H831	H83	0.929800	0.109200	0.579900
H841	H84	0.989900	0.098200	0.617200
H851	H85	0.035600	0.252500	0.003500
H861	H86	0.946100	0.306200	0.854500
H871	H87	0.938100	0.206100	0.825600
H881	H88	0.981000	0.130500	0.881500
H891	H89	0.929800	0.390800	0.920100
H901	H90	0.989900	0.401800	0.882800
H911	H91	0.464400	0.247500	0.003500
H921	H92	0.553900	0.193800	0.854500
H931	H93	0.561900	0.293900	0.825600
H941	H94	0.519000	0.369500	0.881500
H951	H95	0.570200	0.109200	0.920100
H961	H96	0.510100	0.098200	0.882800
H971	H97	0.496500	0.464400	0.252500
H981	H98	0.645500	0.553900	0.306200
H991	H99	0.674400	0.561900	0.206100
H1001	H100	0.618500	0.519000	0.130500
H1011	H101	0.579900	0.570200	0.390800
H1021	H102	0.617200	0.510100	0.401800
H1031	H103	0.496500	0.035600	0.247500
H1041	H104	0.645500	0.946100	0.193800
H1051	H105	0.674400	0.938100	0.293900
H1061	H106	0.618500	0.981000	0.369500
H1071	H107	0.579900	0.929800	0.109200
H1081	H108	0.617200	0.989900	0.098200
H1091	H109	0.003500	0.035600	0.252500
H1101	H110	0.854500	0.946100	0.306200
H1111	H111	0.825600	0.938100	0.206100
H1121	H112	0.881500	0.981000	0.130500
H1131	H113	0.920100	0.929800	0.390800
H1141	H114	0.882800	0.989900	0.401800
H1151	H115	0.003500	0.464400	0.247500
H1161	H116	0.854500	0.553900	0.193800
H1171	H117	0.825600	0.561900	0.293900
H1181	H118	0.881500	0.519000	0.369500
H1191	H119	0.920100	0.570200	0.109200
H1201	H120	0.882800	0.510100	0.098200
H1211	H121	0.252500	0.496500	0.464400
H1221	H122	0.306200	0.645500	0.553900
H1231	H123	0.206100	0.674400	0.561900
H1241	H124	0.130500	0.618500	0.519000
H1251	H125	0.390800	0.579900	0.570200
H1261	H126	0.401800	0.617200	0.510100
H1271	H127	0.247500	0.496500	0.035600
H1281	H128	0.193800	0.645500	0.946100
H1291	H129	0.293900	0.674400	0.938100
H1301	H130	0.369500	0.618500	0.981000
H1311	H131	0.109200	0.579900	0.929800
H1321	H132	0.098200	0.617200	0.989900
H1331	H133	0.252500	0.003500	0.035600
H1341	H134	0.306200	0.854500	0.946100
H1351	H135	0.206100	0.825600	0.938100
H1361	H136	0.130500	0.881500	0.981000
H1371	H137	0.390800	0.920100	0.929800
H1381	H138	0.401800	0.882800	0.989900
H1391	H139	0.247500	0.003500	0.464400
H1401	H140	0.193800	0.854500	0.553900
H1411	H141	0.293900	0.825600	0.561900
H1421	H142	0.369500	0.881500	0.519000
H1431	H143	0.109200	0.920100	0.570200
H1441	H144	0.098200	0.882800	0.510100
C11	C1	0.511730	0.815110	0.448980
C21	C2	0.516520	0.756650	0.467090
C31	C3	0.492830	0.709960	0.431110
C41	C4	0.463000	0.724100	0.378300
C51	C5	0.458600	0.784200	0.361200
C61	C6	0.483200	0.829510	0.394700
C71	C7	0.536620	0.864540	0.488460
C81	C8	0.473260	0.603280	0.423210
C91	C9	0.487860	0.549200	0.462630
C101	C10	0.988270	0.684890	0.448980
C111	C11	0.983480	0.743350	0.467090
C121	C12	0.007170	0.790040	0.431110
C131	C13	0.037000	0.775900	0.378300
C141	C14	0.041400	0.715800	0.361200
C151	C15	0.016800	0.670490	0.394700
C161	C16	0.963380	0.635460	0.488460
C171	C17	0.026740	0.896720	0.423210
C181	C18	0.012140	0.950800	0.462630
C191	C19	0.988270	0.815110	0.051020
C201	C20	0.983480	0.756650	0.032910
C211	C21	0.007170	0.709960	0.068890
C221	C22	0.037000	0.724100	0.121700
C231	C23	0.041400	0.784200	0.138800
C241	C24	0.016800	0.829510	0.105300
C251	C25	0.963380	0.864540	0.011540
C261	C26	0.026740	0.603280	0.076790
C271	C27	0.012140	0.549200	0.037370
C281	C28	0.511730	0.684890	0.051020
C291	C29	0.516520	0.743350	0.032910
C301	C30	0.492830	0.790040	0.068890
C311	C31	0.463000	0.775900	0.121700
C321	C32	0.458600	0.715800	0.138800
C331	C33	0.483200	0.670490	0.105300
C341	C34	0.536620	0.635460	0.011540
C351	C35	0.473260	0.896720	0.076790
C361	C36	0.487860	0.950800	0.037370
C371	C37	0.448980	0.511730	0.815110
C381	C38	0.467090	0.516520	0.756650
C391	C39	0.431110	0.492830	0.709960
C401	C40	0.378300	0.463000	0.724100
C411	C41	0.361200	0.458600	0.784200
C421	C42	0.394700	0.483200	0.829510
C431	C43	0.488460	0.536620	0.864540
C441	C44	0.423210	0.473260	0.603280
C451	C45	0.462630	0.487860	0.549200
C461	C46	0.448980	0.988270	0.684890
C471	C47	0.467090	0.983480	0.743350
C481	C48	0.431110	0.007170	0.790040
C491	C49	0.378300	0.037000	0.775900
C501	C50	0.361200	0.041400	0.715800
C511	C51	0.394700	0.016800	0.670490
C521	C52	0.488460	0.963380	0.635460
C531	C53	0.423210	0.026740	0.896720
C541	C54	0.462630	0.012140	0.950800
C551	C55	0.051020	0.988270	0.815110
C561	C56	0.032910	0.983480	0.756650
C571	C57	0.068890	0.007170	0.709960
C581	C58	0.121700	0.037000	0.724100
C591	C59	0.138800	0.041400	0.784200
C601	C60	0.105300	0.016800	0.829510
C611	C61	0.011540	0.963380	0.864540
C621	C62	0.076790	0.026740	0.603280
C631	C63	0.037370	0.012140	0.549200
C641	C64	0.051020	0.511730	0.684890
C651	C65	0.032910	0.516520	0.743350
C661	C66	0.068890	0.492830	0.790040
C671	C67	0.121700	0.463000	0.775900
C681	C68	0.138800	0.458600	0.715800
C691	C69	0.105300	0.483200	0.670490
C701	C70	0.011540	0.536620	0.635460
C711	C71	0.076790	0.473260	0.896720
C721	C72	0.037370	0.487860	0.950800
C731	C73	0.815110	0.448980	0.511730
C741	C74	0.756650	0.467090	0.516520
C751	C75	0.709960	0.431110	0.492830
C761	C76	0.724100	0.378300	0.463000
C771	C77	0.784200	0.361200	0.458600
C781	C78	0.829510	0.394700	0.483200
C791	C79	0.864540	0.488460	0.536620
C801	C80	0.603280	0.423210	0.473260
C811	C81	0.549200	0.462630	0.487860
C821	C82	0.684890	0.448980	0.988270
C831	C83	0.743350	0.467090	0.983480
C841	C84	0.790040	0.431110	0.007170
C851	C85	0.775900	0.378300	0.037000
C861	C86	0.715800	0.361200	0.041400
C871	C87	0.670490	0.394700	0.016800
C881	C88	0.635460	0.488460	0.963380
C891	C89	0.896720	0.423210	0.026740
C901	C90	0.950800	0.462630	0.012140
C911	C91	0.815110	0.051020	0.988270
C921	C92	0.756650	0.032910	0.983480
C931	C93	0.709960	0.068890	0.007170
C941	C94	0.724100	0.121700	0.037000
C951	C95	0.784200	0.138800	0.041400
C961	C96	0.829510	0.105300	0.016800
C971	C97	0.864540	0.011540	0.963380
C981	C98	0.603280	0.076790	0.026740
C991	C99	0.549200	0.037370	0.012140
C1001	C100	0.684890	0.051020	0.511730
C1011	C101	0.743350	0.032910	0.516520
C1021	C102	0.790040	0.068890	0.492830
C1031	C103	0.775900	0.121700	0.463000
C1041	C104	0.715800	0.138800	0.458600
C1051	C105	0.670490	0.105300	0.483200
C1061	C106	0.635460	0.011540	0.536620
C1071	C107	0.896720	0.076790	0.473260
C1081	C108	0.950800	0.037370	0.487860
C1091	C109	0.488270	0.184890	0.551020
C1101	C110	0.483480	0.243350	0.532910
C1111	C111	0.507170	0.290040	0.568890
C1121	C112	0.537000	0.275900	0.621700
C1131	C113	0.541400	0.215800	0.638800
C1141	C114	0.516800	0.170490	0.605300
C1151	C115	0.463380	0.135460	0.511540
C1161	C116	0.526740	0.396720	0.576790
C1171	C117	0.512140	0.450800	0.537370
C1181	C118	0.011730	0.315110	0.551020
C1191	C119	0.016520	0.256650	0.532910
C1201	C120	0.992830	0.209960	0.568890
C1211	C121	0.963000	0.224100	0.621700
C1221	C122	0.958600	0.284200	0.638800
C1231	C123	0.983200	0.329510	0.605300
C1241	C124	0.036620	0.364540	0.511540
C1251	C125	0.973260	0.103280	0.576790
C1261	C126	0.987860	0.049200	0.537370
C1271	C127	0.011730	0.184890	0.948980
C1281	C128	0.016520	0.243350	0.967090
C1291	C129	0.992830	0.290040	0.931110
C1301	C130	0.963000	0.275900	0.878300
C1311	C131	0.958600	0.215800	0.861200
C1321	C132	0.983200	0.170490	0.894700
C1331	C133	0.036620	0.135460	0.988460
C1341	C134	0.973260	0.396720	0.923210
C1351	C135	0.987860	0.450800	0.962630
C1361	C136	0.488270	0.315110	0.948980
C1371	C137	0.483480	0.256650	0.967090
C1381	C138	0.507170	0.209960	0.931110
C1391	C139	0.537000	0.224100	0.878300
C1401	C140	0.541400	0.284200	0.861200
C1411	C141	0.516800	0.329510	0.894700
C1421	C142	0.463380	0.364540	0.988460
C1431	C143	0.526740	0.103280	0.923210
C1441	C144	0.512140	0.049200	0.962630
C1451	C145	0.551020	0.488270	0.184890
C1461	C146	0.532910	0.483480	0.243350
C1471	C147	0.568890	0.507170	0.290040
C1481	C148	0.621700	0.537000	0.275900
C1491	C149	0.638800	0.541400	0.215800
C1501	C150	0.605300	0.516800	0.170490
C1511	C151	0.511540	0.463380	0.135460
C1521	C152	0.576790	0.526740	0.396720
C1531	C153	0.537370	0.512140	0.450800
C1541	C154	0.551020	0.011730	0.315110
C1551	C155	0.532910	0.016520	0.256650
C1561	C156	0.568890	0.992830	0.209960
C1571	C157	0.621700	0.963000	0.224100
C1581	C158	0.638800	0.958600	0.284200
C1591	C159	0.605300	0.983200	0.329510
C1601	C160	0.511540	0.036620	0.364540
C1611	C161	0.576790	0.973260	0.103280
C1621	C162	0.537370	0.987860	0.049200
C1631	C163	0.948980	0.011730	0.184890
C1641	C164	0.967090	0.016520	0.243350
C1651	C165	0.931110	0.992830	0.290040
C1661	C166	0.878300	0.963000	0.275900
C1671	C167	0.861200	0.958600	0.215800
C1681	C168	0.894700	0.983200	0.170490
C1691	C169	0.988460	0.036620	0.135460
C1701	C170	0.923210	0.973260	0.396720
C1711	C171	0.962630	0.987860	0.450800
C1721	C172	0.948980	0.488270	0.315110
C1731	C173	0.967090	0.483480	0.256650
C1741	C174	0.931110	0.507170	0.209960
C1751	C175	0.878300	0.537000	0.224100
C1761	C176	0.861200	0.541400	0.284200
C1771	C177	0.894700	0.516800	0.329510
C1781	C178	0.988460	0.463380	0.364540
C1791	C179	0.923210	0.526740	0.103280
C1801	C180	0.962630	0.512140	0.049200
C1811	C181	0.184890	0.551020	0.488270
C1821	C182	0.243350	0.532910	0.483480
C1831	C183	0.290040	0.568890	0.507170
C1841	C184	0.275900	0.621700	0.537000
C1851	C185	0.215800	0.638800	0.541400
C1861	C186	0.170490	0.605300	0.516800
C1871	C187	0.135460	0.511540	0.463380
C1881	C188	0.396720	0.576790	0.526740
C1891	C189	0.450800	0.537370	0.512140
C1901	C190	0.315110	0.551020	0.011730
C1911	C191	0.256650	0.532910	0.016520
C1921	C192	0.209960	0.568890	0.992830
C1931	C193	0.224100	0.621700	0.963000
C1941	C194	0.284200	0.638800	0.958600
C1951	C195	0.329510	0.605300	0.983200
C1961	C196	0.364540	0.511540	0.036620
C1971	C197	0.103280	0.576790	0.973260
C1981	C198	0.049200	0.537370	0.987860
C1991	C199	0.184890	0.948980	0.011730
C2001	C200	0.243350	0.967090	0.016520
C2011	C201	0.290040	0.931110	0.992830
C2021	C202	0.275900	0.878300	0.963000
C2031	C203	0.215800	0.861200	0.958600
C2041	C204	0.170490	0.894700	0.983200
C2051	C205	0.135460	0.988460	0.036620
C2061	C206	0.396720	0.923210	0.973260
C2071	C207	0.450800	0.962630	0.987860
C2081	C208	0.315110	0.948980	0.488270
C2091	C209	0.256650	0.967090	0.483480
C2101	C210	0.209960	0.931110	0.507170
C2111	C211	0.224100	0.878300	0.537000
C2121	C212	0.284200	0.861200	0.541400
C2131	C213	0.329510	0.894700	0.516800
C2141	C214	0.364540	0.988460	0.463380
C2151	C215	0.103280	0.923210	0.526740
C2161	C216	0.049200	0.962630	0.512140
O11	O1	0.534580	0.917550	0.470550
O21	O2	0.559240	0.847700	0.538760
O31	O3	0.501400	0.653400	0.453780
O41	O4	0.965420	0.582450	0.470550
O51	O5	0.940760	0.652300	0.538760
O61	O6	0.998600	0.846600	0.453780
O71	O7	0.965420	0.917550	0.029450
O81	O8	0.940760	0.847700	0.961240
O91	O9	0.998600	0.653400	0.046220
O101	O10	0.534580	0.582450	0.029450
O111	O11	0.559240	0.652300	0.961240
O121	O12	0.501400	0.846600	0.046220
O131	O13	0.470550	0.534580	0.917550
O141	O14	0.538760	0.559240	0.847700
O151	O15	0.453780	0.501400	0.653400
O161	O16	0.470550	0.965420	0.582450
O171	O17	0.538760	0.940760	0.652300
O181	O18	0.453780	0.998600	0.846600
O191	O19	0.029450	0.965420	0.917550
O201	O20	0.961240	0.940760	0.847700
O211	O21	0.046220	0.998600	0.653400
O221	O22	0.029450	0.534580	0.582450
O231	O23	0.961240	0.559240	0.652300
O241	O24	0.046220	0.501400	0.846600
O251	O25	0.917550	0.470550	0.534580
O261	O26	0.847700	0.538760	0.559240
O271	O27	0.653400	0.453780	0.501400
O281	O28	0.582450	0.470550	0.965420
O291	O29	0.652300	0.538760	0.940760
O301	O30	0.846600	0.453780	0.998600
O311	O31	0.917550	0.029450	0.965420
O321	O32	0.847700	0.961240	0.940760
O331	O33	0.653400	0.046220	0.998600
O341	O34	0.582450	0.029450	0.534580
O351	O35	0.652300	0.961240	0.559240
O361	O36	0.846600	0.046220	0.501400
O371	O37	0.465420	0.082450	0.529450
O381	O38	0.440760	0.152300	0.461240
O391	O39	0.498600	0.346600	0.546220
O401	O40	0.034580	0.417550	0.529450
O411	O41	0.059240	0.347700	0.461240
O421	O42	0.001400	0.153400	0.546220
O431	O43	0.034580	0.082450	0.970550
O441	O44	0.059240	0.152300	0.038760
O451	O45	0.001400	0.346600	0.953780
O461	O46	0.465420	0.417550	0.970550
O471	O47	0.440760	0.347700	0.038760
O481	O48	0.498600	0.153400	0.953780
O491	O49	0.529450	0.465420	0.082450
O501	O50	0.461240	0.440760	0.152300
O511	O51	0.546220	0.498600	0.346600
O521	O52	0.529450	0.034580	0.417550
O531	O53	0.461240	0.059240	0.347700
O541	O54	0.546220	0.001400	0.153400
O551	O55	0.970550	0.034580	0.082450
O561	O56	0.038760	0.059240	0.152300
O571	O57	0.953780	0.001400	0.346600
O581	O58	0.970550	0.465420	0.417550
O591	O59	0.038760	0.440760	0.347700
O601	O60	0.953780	0.498600	0.153400
O611	O61	0.082450	0.529450	0.465420
O621	O62	0.152300	0.461240	0.440760
O631	O63	0.346600	0.546220	0.498600
O641	O64	0.417550	0.529450	0.034580
O651	O65	0.347700	0.461240	0.059240
O661	O66	0.153400	0.546220	0.001400
O671	O67	0.082450	0.970550	0.034580
O681	O68	0.152300	0.038760	0.059240
O691	O69	0.346600	0.953780	0.001400
O701	O70	0.417550	0.970550	0.465420
O711	O71	0.347700	0.038760	0.440760
O721	O72	0.153400	0.953780	0.498600
