data_AFIPAH_clean_PM
_symmetry_space_group_name_H-M	'P1'
_cell_length_a	9.166400
_cell_length_b	9.166400
_cell_length_c	14.969000
_cell_angle_alpha	79.966400
_cell_angle_beta	79.966700
_cell_angle_gamma	115.529000
_symmetry_Int_Tables_number 1

loop_
_symmetry_equiv_pos_as_xyz
'x,y,z'

loop_
_atom_site_label
_atom_site_type_symbol
_atom_site_fract_x
_atom_site_fract_y
_atom_site_fract_z
La11	La1	0.259160	0.509160	0.481680
La21	La2	0.490840	0.740840	0.018320
La31	La3	0.740840	0.490840	0.518320
La41	La4	0.509160	0.259160	0.981680
H11	H1	0.308000	0.868000	0.570000
H21	H2	0.122000	0.062000	0.570000
H31	H3	0.132000	0.692000	0.930000
H41	H4	0.938000	0.878000	0.930000
H51	H5	0.692000	0.132000	0.430000
H61	H6	0.878000	0.938000	0.430000
H71	H7	0.868000	0.308000	0.070000
H81	H8	0.062000	0.122000	0.070000
C11	C1	0.059170	0.751370	0.558260
C21	C2	0.212840	0.894440	0.564320
C31	C3	0.382570	0.190370	0.558260
C41	C4	0.222840	0.041240	0.564320
C51	C5	0.248630	0.940830	0.941740
C61	C6	0.105560	0.787160	0.935680
C71	C7	0.809630	0.617430	0.941740
C81	C8	0.958760	0.777160	0.935680
C91	C9	0.940830	0.248630	0.441740
C101	C10	0.787160	0.105560	0.435680
C111	C11	0.617430	0.809630	0.441740
C121	C12	0.777160	0.958760	0.435680
C131	C13	0.751370	0.059170	0.058260
C141	C14	0.894440	0.212840	0.064320
C151	C15	0.190370	0.382570	0.058260
C161	C16	0.041240	0.222840	0.064320
C171	C17	0.324600	0.675400	0.250000
C181	C18	0.425400	0.574600	0.250000
C191	C19	0.675400	0.324600	0.750000
C201	C20	0.574600	0.425400	0.750000
O11	O1	0.238410	0.661190	0.328400
O21	O2	0.076290	0.634510	0.532600
O31	O3	0.917800	0.748020	0.575580
O41	O4	0.433190	0.510410	0.328400
O51	O5	0.391110	0.332890	0.532600
O61	O6	0.506620	0.176400	0.575580
O71	O7	0.338810	0.761590	0.171600
O81	O8	0.365490	0.923710	0.967400
O91	O9	0.251980	0.082200	0.924420
O101	O10	0.489590	0.566810	0.171600
O111	O11	0.667110	0.608890	0.967400
O121	O12	0.823600	0.493380	0.924420
O131	O13	0.761590	0.338810	0.671600
O141	O14	0.923710	0.365490	0.467400
O151	O15	0.082200	0.251980	0.424420
O161	O16	0.566810	0.489590	0.671600
O171	O17	0.608890	0.667110	0.467400
O181	O18	0.493380	0.823600	0.424420
O191	O19	0.661190	0.238410	0.828400
O201	O20	0.634510	0.076290	0.032600
O211	O21	0.748020	0.917800	0.075580
O221	O22	0.510410	0.433190	0.828400
O231	O23	0.332890	0.391110	0.032600
O241	O24	0.176400	0.506620	0.075580
