data_AFITUF_clean_PM
_symmetry_space_group_name_H-M	'P1'
_cell_length_a	14.082800
_cell_length_b	21.451800
_cell_length_c	28.251800
_cell_angle_alpha	90.000000
_cell_angle_beta	90.000000
_cell_angle_gamma	93.560000
_symmetry_Int_Tables_number 1

loop_
_symmetry_equiv_pos_as_xyz
'x,y,z'

loop_
_atom_site_label
_atom_site_type_symbol
_atom_site_fract_x
_atom_site_fract_y
_atom_site_fract_z
Zn11	Zn1	0.890930	0.745220	0.309980
Zn21	Zn2	0.103580	0.754660	0.310250
Zn31	Zn3	0.109070	0.254780	0.809980
Zn41	Zn4	0.896420	0.245340	0.810250
H11	H1	0.136400	0.642500	0.428100
H21	H2	0.848400	0.610700	0.429500
H31	H3	0.861900	0.556700	0.499700
H41	H4	0.866500	0.433000	0.620400
H51	H5	0.859000	0.362400	0.685000
H61	H6	0.142800	0.400000	0.707000
H71	H7	0.144000	0.885300	0.430600
H81	H8	0.856900	0.860100	0.427100
H91	H9	0.134500	0.947000	0.497100
H101	H10	0.133400	0.079100	0.613200
H111	H11	0.858400	0.099200	0.706900
H121	H12	0.142000	0.139700	0.681800
H131	H13	0.737800	0.792500	0.248600
H141	H14	0.728200	0.707100	0.372900
H151	H15	0.576200	0.796500	0.248200
H161	H16	0.564500	0.715100	0.377300
H171	H17	0.421900	0.712500	0.248500
H181	H18	0.426400	0.797900	0.376800
H191	H19	0.264200	0.797700	0.371600
H201	H20	0.259000	0.711300	0.250900
H211	H21	0.863600	0.357500	0.928100
H221	H22	0.151600	0.389300	0.929500
H231	H23	0.138100	0.443300	0.999700
H241	H24	0.133500	0.567000	0.120400
H251	H25	0.141000	0.637600	0.185000
H261	H26	0.857200	0.600000	0.207000
H271	H27	0.856000	0.114700	0.930600
H281	H28	0.143100	0.139900	0.927100
H291	H29	0.865500	0.053000	0.997100
H301	H30	0.866600	0.920900	0.113200
H311	H31	0.141600	0.900800	0.206900
H321	H32	0.858000	0.860300	0.181800
H331	H33	0.262200	0.207500	0.748600
H341	H34	0.271800	0.292900	0.872900
H351	H35	0.423800	0.203500	0.748200
H361	H36	0.435500	0.284900	0.877300
H371	H37	0.578100	0.287500	0.748500
H381	H38	0.573600	0.202100	0.876800
H391	H39	0.735800	0.202300	0.871600
H401	H40	0.741000	0.288700	0.750900
C11	C1	0.005500	0.168000	0.742800
C21	C2	0.984200	0.671300	0.377600
C31	C3	0.992000	0.632600	0.422800
C41	C4	0.080400	0.625600	0.443300
C51	C5	0.909000	0.606200	0.443500
C61	C6	0.087300	0.593600	0.486400
C71	C7	0.918300	0.573600	0.484800
C81	C8	0.002900	0.563700	0.505900
C91	C9	0.008400	0.527700	0.548900
C101	C10	0.009800	0.494500	0.582200
C111	C11	0.009700	0.455600	0.621900
C121	C12	0.091300	0.444500	0.647000
C131	C13	0.923100	0.425400	0.637100
C141	C14	0.917400	0.384100	0.676500
C151	C15	0.086900	0.405500	0.689100
C161	C16	0.001100	0.376500	0.702700
C171	C17	0.999300	0.331300	0.743900
C181	C18	0.006700	0.829700	0.378200
C191	C19	0.001600	0.868500	0.422000
C201	C20	0.083600	0.893000	0.443500
C211	C21	0.913600	0.877100	0.441600
C221	C22	0.910000	0.911900	0.483800
C231	C23	0.077700	0.928600	0.483400
C241	C24	0.993600	0.938400	0.504000
C251	C25	0.987200	0.977500	0.547000
C261	C26	0.986400	0.010300	0.579400
C271	C27	0.991700	0.049800	0.620800
C281	C28	0.078800	0.082300	0.632500
C291	C29	0.911500	0.057000	0.649900
C301	C30	0.914100	0.094400	0.688600
C311	C31	0.082800	0.119100	0.673200
C321	C32	0.004300	0.127100	0.701500
C331	C33	0.701400	0.775700	0.274400
C341	C34	0.696000	0.726200	0.347800
C351	C35	0.605700	0.777900	0.274500
C361	C36	0.598000	0.729500	0.349800
C371	C37	0.547400	0.753700	0.311700
C381	C38	0.444200	0.756600	0.311800
C391	C39	0.391100	0.730400	0.274700
C401	C40	0.394100	0.781100	0.349700
C411	C41	0.298200	0.779800	0.346400
C421	C42	0.294700	0.730400	0.276100
C431	C43	0.994500	0.832000	0.242800
C441	C44	0.015800	0.328700	0.877600
C451	C45	0.008000	0.367400	0.922800
C461	C46	0.919600	0.374400	0.943300
C471	C47	0.091000	0.393800	0.943500
C481	C48	0.912700	0.406400	0.986400
C491	C49	0.081700	0.426400	0.984800
C501	C50	0.997100	0.436300	0.005900
C511	C51	0.991600	0.472300	0.048900
C521	C52	0.990200	0.505500	0.082200
C531	C53	0.990300	0.544400	0.121900
C541	C54	0.908700	0.555500	0.147000
C551	C55	0.076900	0.574600	0.137100
C561	C56	0.082600	0.615900	0.176500
C571	C57	0.913100	0.594500	0.189100
C581	C58	0.998900	0.623500	0.202700
C591	C59	0.000700	0.668700	0.243900
C601	C60	0.993300	0.170300	0.878200
C611	C61	0.998400	0.131500	0.922000
C621	C62	0.916400	0.107000	0.943500
C631	C63	0.086400	0.122900	0.941600
C641	C64	0.090000	0.088100	0.983800
C651	C65	0.922300	0.071400	0.983400
C661	C66	0.006400	0.061600	0.004000
C671	C67	0.012800	0.022500	0.047000
C681	C68	0.013600	0.989700	0.079400
C691	C69	0.008300	0.950200	0.120800
C701	C70	0.921200	0.917700	0.132500
C711	C71	0.088500	0.943000	0.149900
C721	C72	0.085900	0.905600	0.188600
C731	C73	0.917200	0.880900	0.173200
C741	C74	0.995700	0.872900	0.201500
C751	C75	0.298600	0.224300	0.774400
C761	C76	0.304000	0.273800	0.847800
C771	C77	0.394300	0.222100	0.774500
C781	C78	0.402000	0.270500	0.849800
C791	C79	0.452600	0.246300	0.811700
C801	C80	0.555800	0.243400	0.811800
C811	C81	0.608900	0.269600	0.774700
C821	C82	0.605900	0.218900	0.849700
C831	C83	0.701800	0.220200	0.846400
C841	C84	0.705300	0.269600	0.776100
Br11	Br1	0.206030	0.586270	0.514120
Br21	Br2	0.208350	0.481890	0.630120
Br31	Br3	0.790090	0.920560	0.512680
Br41	Br4	0.795030	0.014050	0.633090
Br51	Br5	0.793970	0.413730	0.014120
Br61	Br6	0.791650	0.518110	0.130120
Br71	Br7	0.209910	0.079440	0.012680
Br81	Br8	0.204970	0.985950	0.133090
N11	N1	0.744900	0.749600	0.311300
N21	N2	0.249000	0.755600	0.310800
N31	N3	0.255100	0.250400	0.811300
N41	N4	0.751000	0.244400	0.810800
O11	O1	0.906100	0.686800	0.364400
O21	O2	0.062800	0.687100	0.358000
O31	O3	0.919800	0.305600	0.754990
O41	O4	0.077200	0.323400	0.763310
O51	O5	0.929600	0.815500	0.357300
O61	O6	0.087100	0.814600	0.364760
O71	O7	0.929700	0.177300	0.764280
O81	O8	0.085700	0.194300	0.754540
O91	O9	0.093900	0.313200	0.864400
O101	O10	0.937200	0.312900	0.858000
O111	O11	0.080200	0.694400	0.254990
O121	O12	0.922800	0.676600	0.263310
O131	O13	0.070400	0.184500	0.857300
O141	O14	0.912900	0.185400	0.864760
O151	O15	0.070300	0.822700	0.264280
O161	O16	0.914300	0.805700	0.254540
Zn51	Zn5	0.204370	0.113080	0.484630
Zn61	Zn6	0.416470	0.121500	0.485940
Zn71	Zn7	0.200960	0.609780	0.986570
Zn81	Zn8	0.412160	0.623540	0.984630
H411	H41	0.570000	0.061600	0.538000
H421	H42	0.730900	0.057100	0.541700
H431	H43	0.871300	0.059400	0.431100
H441	H44	0.886100	0.178400	0.542100
H451	H45	0.052200	0.174200	0.539500
H461	H46	0.036000	0.055200	0.432500
H471	H47	0.453600	0.986400	0.597600
H481	H48	0.166700	0.967700	0.588700
H491	H49	0.446700	0.929100	0.668800
H501	H50	0.160300	0.780100	0.791700
H511	H51	0.160800	0.722300	0.860700
H521	H52	0.447300	0.760000	0.871300
H531	H53	0.447300	0.274300	0.586200
H541	H54	0.173400	0.225900	0.613500
H551	H55	0.177600	0.285700	0.680700
H561	H56	0.168800	0.418400	0.798300
H571	H57	0.160300	0.478900	0.867200
H581	H58	0.451600	0.490200	0.876000
H591	H59	0.435400	0.790300	0.077300
H601	H60	0.173900	0.721200	0.113000
H611	H61	0.179800	0.782000	0.182200
H621	H62	0.171500	0.913600	0.300100
H631	H63	0.168100	0.971900	0.371000
H641	H64	0.447500	0.021700	0.359200
H651	H65	0.459800	0.507200	0.106700
H661	H66	0.179400	0.456400	0.092000
H671	H67	0.190700	0.385000	0.151400
H681	H68	0.228700	0.239600	0.270400
H691	H69	0.214700	0.189100	0.343500
H701	H70	0.434700	0.298900	0.393600
H711	H71	0.554100	0.533300	0.960700
H721	H72	0.584700	0.710500	0.998100
H731	H73	0.747200	0.707900	0.995200
H741	H74	0.720700	0.528100	0.955700
H751	H75	0.878900	0.672100	0.039800
H761	H76	0.869600	0.548400	0.931400
H771	H77	0.036000	0.549300	0.934200
H781	H78	0.043500	0.669500	0.040600
H791	H79	0.588100	0.202900	0.460900
H801	H80	0.747300	0.205700	0.464000
C851	C85	0.606500	0.086800	0.516200
C861	C86	0.703100	0.083300	0.519200
C871	C87	0.756500	0.118600	0.489100
C881	C88	0.863900	0.119400	0.490000
C891	C89	0.908400	0.082200	0.454000
C901	C90	0.914900	0.152900	0.519400
C911	C91	0.014900	0.150600	0.517100
C921	C92	0.005800	0.081400	0.454300
C931	C93	0.311700	0.031700	0.549300
C941	C94	0.308100	0.985900	0.590700
C951	C95	0.394400	0.971900	0.611100
C961	C96	0.223100	0.960100	0.605600
C971	C97	0.219200	0.923800	0.644300
C981	C98	0.390200	0.936200	0.651800
C991	C99	0.301700	0.910600	0.668000
C1001	C100	0.300200	0.870300	0.710800
C1011	C101	0.301200	0.843300	0.747900
C1021	C102	0.300100	0.806900	0.790100
C1031	C103	0.218700	0.776600	0.808100
C1041	C104	0.385700	0.801900	0.815400
C1051	C105	0.218700	0.741400	0.848900
C1061	C106	0.388700	0.764800	0.855500
C1071	C107	0.303300	0.734000	0.872700
C1081	C108	0.305500	0.695800	0.915200
C1091	C109	0.309300	0.198100	0.552300
C1101	C110	0.311100	0.242600	0.594300
C1111	C111	0.392600	0.276600	0.605600
C1121	C112	0.231200	0.248100	0.622200
C1131	C113	0.232700	0.284100	0.661500
C1141	C114	0.396100	0.314700	0.645600
C1151	C115	0.317400	0.319500	0.673600
C1161	C116	0.320200	0.357700	0.716200
C1171	C117	0.319000	0.386400	0.751900
C1181	C118	0.315900	0.421200	0.794900
C1191	C119	0.399700	0.443800	0.820000
C1201	C120	0.225400	0.434000	0.813700
C1211	C121	0.220400	0.469600	0.854700
C1221	C122	0.394800	0.476900	0.859900
C1231	C123	0.306200	0.492300	0.878200
C1241	C124	0.302300	0.534100	0.920900
C1251	C125	0.305100	0.702200	0.049500
C1261	C126	0.306700	0.747200	0.090400
C1271	C127	0.384300	0.787800	0.099300
C1281	C128	0.229500	0.746800	0.120100
C1291	C129	0.232300	0.784100	0.161100
C1301	C130	0.389700	0.823900	0.138100
C1311	C131	0.312300	0.824600	0.171000
C1321	C132	0.316900	0.861600	0.212400
C1331	C133	0.318700	0.893000	0.246500
C1341	C134	0.315600	0.930700	0.288200
C1351	C135	0.393600	0.964400	0.307500
C1361	C136	0.228000	0.934600	0.312000
C1371	C137	0.226400	0.970900	0.354200
C1381	C138	0.391400	0.000000	0.347700
C1391	C139	0.303000	0.003800	0.371700
C1401	C140	0.300900	0.039700	0.416000
C1411	C141	0.314000	0.536100	0.052000
C1421	C142	0.317500	0.489200	0.091700
C1431	C143	0.404500	0.482600	0.116000
C1441	C144	0.238900	0.452500	0.107200
C1451	C145	0.244400	0.411600	0.142900
C1461	C146	0.409500	0.442400	0.151900
C1471	C147	0.333400	0.408700	0.168400
C1481	C148	0.333800	0.368100	0.209900
C1491	C149	0.338600	0.338200	0.245500
C1501	C150	0.335300	0.304400	0.288200
C1511	C151	0.398000	0.320400	0.326500
C1521	C152	0.269600	0.253200	0.295600
C1531	C153	0.262900	0.221600	0.338900
C1541	C154	0.392200	0.287200	0.368600
C1551	C155	0.326500	0.237500	0.375200
C1561	C156	0.323500	0.199900	0.419300
C1571	C157	0.594600	0.568600	0.969000
C1581	C158	0.612300	0.672200	0.991100
C1591	C159	0.708700	0.670400	0.990500
C1601	C160	0.693600	0.564500	0.967400
C1611	C161	0.751000	0.615500	0.983300
C1621	C162	0.858300	0.613200	0.985300
C1631	C163	0.909800	0.647200	0.017500
C1641	C164	0.904600	0.574200	0.953400
C1651	C165	0.004000	0.575000	0.955500
C1661	C166	0.007800	0.645500	0.017800
C1671	C167	0.617000	0.167400	0.473100
C1681	C168	0.711300	0.169100	0.473900
Br91	Br9	0.096470	0.892360	0.667890
Br101	Br10	0.498730	0.839470	0.791980
Br111	Br11	0.513000	0.359300	0.661060
Br121	Br12	0.518460	0.424320	0.795190
Br131	Br13	0.498520	0.878790	0.148920
Br141	Br14	0.513120	0.961110	0.275500
Br151	Br15	0.533120	0.452220	0.188970
Br161	Br16	0.488210	0.387920	0.320270
N51	N5	0.060500	0.117200	0.485100
N61	N6	0.559100	0.119300	0.488100
N71	N7	0.556000	0.621900	0.982000
N81	N8	0.055600	0.609800	0.985800
O171	O17	0.231000	0.049300	0.534570
O181	O18	0.391100	0.050200	0.532400
O191	O19	0.228400	0.677200	0.935590
O201	O20	0.386400	0.683300	0.930200
O211	O21	0.229000	0.179000	0.537440
O221	O22	0.387500	0.182600	0.537790
O231	O23	0.220000	0.546800	0.934120
O241	O24	0.377300	0.551500	0.940070
O251	O25	0.227200	0.675800	0.038270
O261	O26	0.385300	0.694700	0.030310
O271	O27	0.219000	0.047700	0.433020
O281	O28	0.379100	0.063400	0.431590
O291	O29	0.233700	0.543000	0.035200
O301	O30	0.389900	0.562900	0.039200
O311	O31	0.244900	0.176300	0.433960
O321	O32	0.403700	0.193400	0.438190
Zn91	Zn9	0.795630	0.886920	0.984630
Zn101	Zn10	0.583530	0.878500	0.985940
Zn111	Zn11	0.799040	0.390220	0.486570
Zn121	Zn12	0.587840	0.376460	0.484630
H811	H81	0.430000	0.938400	0.038000
H821	H82	0.269100	0.942900	0.041700
H831	H83	0.128700	0.940600	0.931100
H841	H84	0.113900	0.821600	0.042100
H851	H85	0.947800	0.825800	0.039500
H861	H86	0.964000	0.944800	0.932500
H871	H87	0.546400	0.013600	0.097600
H881	H88	0.833300	0.032300	0.088700
H891	H89	0.553300	0.070900	0.168800
H901	H90	0.839700	0.219900	0.291700
H911	H91	0.839200	0.277700	0.360700
H921	H92	0.552700	0.240000	0.371300
H931	H93	0.552700	0.725700	0.086200
H941	H94	0.826600	0.774100	0.113500
H951	H95	0.822400	0.714300	0.180700
H961	H96	0.831200	0.581600	0.298300
H971	H97	0.839700	0.521100	0.367200
H981	H98	0.548400	0.509800	0.376000
H991	H99	0.564600	0.209700	0.577300
H1001	H100	0.826100	0.278800	0.613000
H1011	H101	0.820200	0.218000	0.682200
H1021	H102	0.828500	0.086400	0.800100
H1031	H103	0.831900	0.028100	0.871000
H1041	H104	0.552500	0.978300	0.859200
H1051	H105	0.540200	0.492800	0.606700
H1061	H106	0.820600	0.543600	0.592000
H1071	H107	0.809300	0.615000	0.651400
H1081	H108	0.771300	0.760400	0.770400
H1091	H109	0.785300	0.810900	0.843500
H1101	H110	0.565300	0.701100	0.893600
H1111	H111	0.445900	0.466700	0.460700
H1121	H112	0.415300	0.289500	0.498100
H1131	H113	0.252800	0.292100	0.495200
H1141	H114	0.279300	0.471900	0.455700
H1151	H115	0.121100	0.327900	0.539800
H1161	H116	0.130400	0.451600	0.431400
H1171	H117	0.964000	0.450700	0.434200
H1181	H118	0.956500	0.330500	0.540600
H1191	H119	0.411900	0.797100	0.960900
H1201	H120	0.252700	0.794300	0.964000
C1691	C169	0.393500	0.913200	0.016200
C1701	C170	0.296900	0.916700	0.019200
C1711	C171	0.243500	0.881400	0.989100
C1721	C172	0.136100	0.880600	0.990000
C1731	C173	0.091600	0.917800	0.954000
C1741	C174	0.085100	0.847100	0.019400
C1751	C175	0.985100	0.849400	0.017100
C1761	C176	0.994200	0.918600	0.954300
C1771	C177	0.688300	0.968300	0.049300
C1781	C178	0.691900	0.014100	0.090700
C1791	C179	0.605600	0.028100	0.111100
C1801	C180	0.776900	0.039900	0.105600
C1811	C181	0.780800	0.076200	0.144300
C1821	C182	0.609800	0.063800	0.151800
C1831	C183	0.698300	0.089400	0.168000
C1841	C184	0.699800	0.129700	0.210800
C1851	C185	0.698800	0.156700	0.247900
C1861	C186	0.699900	0.193100	0.290100
C1871	C187	0.781300	0.223400	0.308100
C1881	C188	0.614300	0.198100	0.315400
C1891	C189	0.781300	0.258600	0.348900
C1901	C190	0.611300	0.235200	0.355500
C1911	C191	0.696700	0.266000	0.372700
C1921	C192	0.694500	0.304200	0.415200
C1931	C193	0.690700	0.801900	0.052300
C1941	C194	0.688900	0.757400	0.094300
C1951	C195	0.607400	0.723400	0.105600
C1961	C196	0.768800	0.751900	0.122200
C1971	C197	0.767300	0.715900	0.161500
C1981	C198	0.603900	0.685300	0.145600
C1991	C199	0.682600	0.680500	0.173600
C2001	C200	0.679800	0.642300	0.216200
C2011	C201	0.681000	0.613600	0.251900
C2021	C202	0.684100	0.578800	0.294900
C2031	C203	0.600300	0.556200	0.320000
C2041	C204	0.774600	0.566000	0.313700
C2051	C205	0.779600	0.530400	0.354700
C2061	C206	0.605200	0.523100	0.359900
C2071	C207	0.693800	0.507700	0.378200
C2081	C208	0.697700	0.465900	0.420900
C2091	C209	0.694900	0.297800	0.549500
C2101	C210	0.693300	0.252800	0.590400
C2111	C211	0.615700	0.212200	0.599300
C2121	C212	0.770500	0.253200	0.620100
C2131	C213	0.767700	0.215900	0.661100
C2141	C214	0.610300	0.176100	0.638100
C2151	C215	0.687700	0.175400	0.671000
C2161	C216	0.683100	0.138400	0.712400
C2171	C217	0.681300	0.107000	0.746500
C2181	C218	0.684400	0.069300	0.788200
C2191	C219	0.606400	0.035600	0.807500
C2201	C220	0.772000	0.065400	0.812000
C2211	C221	0.773600	0.029100	0.854200
C2221	C222	0.608600	0.000000	0.847700
C2231	C223	0.697000	0.996200	0.871700
C2241	C224	0.699100	0.960300	0.916000
C2251	C225	0.686000	0.463900	0.552000
C2261	C226	0.682500	0.510800	0.591700
C2271	C227	0.595500	0.517400	0.616000
C2281	C228	0.761100	0.547500	0.607200
C2291	C229	0.755600	0.588400	0.642900
C2301	C230	0.590500	0.557600	0.651900
C2311	C231	0.666600	0.591300	0.668400
C2321	C232	0.666200	0.631900	0.709900
C2331	C233	0.661400	0.661800	0.745500
C2341	C234	0.664700	0.695600	0.788200
C2351	C235	0.602000	0.679600	0.826500
C2361	C236	0.730400	0.746800	0.795600
C2371	C237	0.737100	0.778400	0.838900
C2381	C238	0.607800	0.712800	0.868600
C2391	C239	0.673500	0.762500	0.875200
C2401	C240	0.676500	0.800100	0.919300
C2411	C241	0.405400	0.431400	0.469000
C2421	C242	0.387700	0.327800	0.491100
C2431	C243	0.291300	0.329600	0.490500
C2441	C244	0.306400	0.435500	0.467400
C2451	C245	0.249000	0.384500	0.483300
C2461	C246	0.141700	0.386800	0.485300
C2471	C247	0.090200	0.352800	0.517500
C2481	C248	0.095400	0.425800	0.453400
C2491	C249	0.996000	0.425000	0.455500
C2501	C250	0.992200	0.354500	0.517800
C2511	C251	0.383000	0.832600	0.973100
C2521	C252	0.288700	0.830900	0.973900
Br171	Br17	0.903530	0.107640	0.167890
Br181	Br18	0.501270	0.160530	0.291980
Br191	Br19	0.487000	0.640700	0.161060
Br201	Br20	0.481540	0.575680	0.295190
Br211	Br21	0.501480	0.121210	0.648920
Br221	Br22	0.486880	0.038890	0.775500
Br231	Br23	0.466880	0.547780	0.688970
Br241	Br24	0.511790	0.612080	0.820270
N91	N9	0.939500	0.882800	0.985100
N101	N10	0.440900	0.880700	0.988100
N111	N11	0.444000	0.378100	0.482000
N121	N12	0.944400	0.390200	0.485800
O331	O33	0.769000	0.950700	0.034570
O341	O34	0.608900	0.949800	0.032400
O351	O35	0.771600	0.322800	0.435590
O361	O36	0.613600	0.316700	0.430200
O371	O37	0.771000	0.821000	0.037440
O381	O38	0.612500	0.817400	0.037790
O391	O39	0.780000	0.453200	0.434120
O401	O40	0.622700	0.448500	0.440070
O411	O41	0.772800	0.324200	0.538270
O421	O42	0.614700	0.305300	0.530310
O431	O43	0.781000	0.952300	0.933020
O441	O44	0.620900	0.936600	0.931590
O451	O45	0.766300	0.457000	0.535200
O461	O46	0.610100	0.437100	0.539200
O471	O47	0.755100	0.823700	0.933960
O481	O48	0.596300	0.806600	0.938190
