data_AFITEP_clean_PM
_symmetry_space_group_name_H-M	'P1'
_cell_length_a	6.175100
_cell_length_b	14.750800
_cell_length_c	17.144000
_cell_angle_alpha	98.640700
_cell_angle_beta	90.000000
_cell_angle_gamma	102.082000
_symmetry_Int_Tables_number 1

loop_
_symmetry_equiv_pos_as_xyz
'x,y,z'

loop_
_atom_site_label
_atom_site_type_symbol
_atom_site_fract_x
_atom_site_fract_y
_atom_site_fract_z
Zn11	Zn1	0.580530	0.000000	0.750000
Zn21	Zn2	0.419470	0.000000	0.250000
H11	H1	0.414400	0.637600	0.651400
H21	H2	0.001600	0.820600	0.646200
H31	H3	0.149100	0.704000	0.570600
H41	H4	0.562800	0.520200	0.578200
H51	H5	0.127100	0.898600	0.788500
H61	H6	0.574000	0.092200	0.917700
H71	H7	0.337100	0.099000	0.020900
H81	H8	0.878000	0.901000	0.886600
H91	H9	0.776800	0.362400	0.848600
H101	H10	0.181000	0.179400	0.853800
H111	H11	0.445100	0.296000	0.929400
H121	H12	0.042600	0.479800	0.921800
H131	H13	0.228500	0.101400	0.711500
H141	H14	0.481800	0.907800	0.582300
H151	H15	0.238100	0.901000	0.479100
H161	H16	0.977000	0.099000	0.613400
H171	H17	0.585600	0.362400	0.348600
H181	H18	0.998400	0.179400	0.353800
H191	H19	0.850900	0.296000	0.429400
H201	H20	0.437200	0.479800	0.421800
H211	H21	0.872900	0.101400	0.211500
H221	H22	0.426000	0.907800	0.082300
H231	H23	0.662900	0.901000	0.979100
H241	H24	0.122000	0.099000	0.113400
H251	H25	0.223200	0.637600	0.151400
H261	H26	0.819000	0.820600	0.146200
H271	H27	0.554900	0.704000	0.070600
H281	H28	0.957400	0.520200	0.078200
H291	H29	0.771500	0.898600	0.288500
H301	H30	0.518200	0.092200	0.417700
H311	H31	0.761900	0.099000	0.520900
H321	H32	0.023000	0.901000	0.386600
C11	C1	0.597140	0.818480	0.699900
C21	C2	0.696130	0.741060	0.655400
C31	C3	0.563390	0.650780	0.635200
C41	C4	0.912010	0.759620	0.631800
C51	C5	0.000510	0.690020	0.587100
C61	C6	0.651750	0.581500	0.591600
C71	C7	0.871590	0.600380	0.566700
C81	C8	0.960530	0.529060	0.519700
C91	C9	0.169590	0.939980	0.836500
C101	C10	0.430490	0.052580	0.911700
C111	C11	0.289820	0.056840	0.973600
C121	C12	0.021100	0.940600	0.894700
C131	C13	0.078710	0.999820	0.967100
C141	C14	0.778660	0.181520	0.800100
C151	C15	0.955070	0.258940	0.844600
C161	C16	0.912610	0.349220	0.864800
C171	C17	0.152390	0.240380	0.868200
C181	C18	0.310490	0.309980	0.912900
C191	C19	0.070250	0.418500	0.908400
C201	C20	0.271210	0.399620	0.933300
C211	C21	0.431470	0.470940	0.980300
C221	C22	0.229610	0.060020	0.663500
C231	C23	0.377910	0.947420	0.588300
C241	C24	0.232980	0.943160	0.526400
C251	C25	0.080500	0.059400	0.605300
C261	C26	0.078890	0.000180	0.532900
C271	C27	0.402860	0.181520	0.300100
C281	C28	0.303870	0.258940	0.344600
C291	C29	0.436610	0.349220	0.364800
C301	C30	0.087990	0.240380	0.368200
C311	C31	0.999490	0.309980	0.412900
C321	C32	0.348250	0.418500	0.408400
C331	C33	0.128410	0.399620	0.433300
C341	C34	0.039470	0.470940	0.480300
C351	C35	0.830410	0.060020	0.163500
C361	C36	0.569510	0.947420	0.088300
C371	C37	0.710180	0.943160	0.026400
C381	C38	0.978900	0.059400	0.105300
C391	C39	0.921290	0.000180	0.032900
C401	C40	0.221340	0.818480	0.199900
C411	C41	0.044930	0.741060	0.155400
C421	C42	0.087390	0.650780	0.135200
C431	C43	0.847610	0.759620	0.131800
C441	C44	0.689510	0.690020	0.087100
C451	C45	0.929750	0.581500	0.091600
C461	C46	0.728790	0.600380	0.066700
C471	C47	0.568530	0.529060	0.019700
C481	C48	0.770390	0.939980	0.336500
C491	C49	0.622090	0.052580	0.411700
C501	C50	0.767020	0.056840	0.473600
C511	C51	0.919500	0.940600	0.394700
C521	C52	0.921110	0.999820	0.467100
N11	N1	0.374480	0.995160	0.843300
N21	N2	0.379320	0.004840	0.656700
N31	N3	0.625520	0.004840	0.156700
N41	N4	0.620680	0.995160	0.343300
O11	O1	0.730980	0.898960	0.714380
O21	O2	0.401060	0.803720	0.716590
O31	O3	0.832020	0.101040	0.785620
O41	O4	0.597340	0.196280	0.783410
O51	O5	0.269020	0.101040	0.285620
O61	O6	0.598940	0.196280	0.283410
O71	O7	0.167980	0.898960	0.214380
O81	O8	0.402660	0.803720	0.216590
