data_AFIXAO_clean_PM
_symmetry_space_group_name_H-M	'P1'
_cell_length_a	9.452600
_cell_length_b	24.340600
_cell_length_c	24.847000
_cell_angle_alpha	91.877000
_cell_angle_beta	90.000000
_cell_angle_gamma	90.000000
_symmetry_Int_Tables_number 1

loop_
_symmetry_equiv_pos_as_xyz
'x,y,z'

loop_
_atom_site_label
_atom_site_type_symbol
_atom_site_fract_x
_atom_site_fract_y
_atom_site_fract_z
Co11	Co1	0.045570	0.262880	0.679440
Co21	Co2	0.259700	0.484310	0.714880
Co31	Co3	0.764620	0.469210	0.858100
Co41	Co4	0.667470	0.160120	0.516870
Co51	Co5	0.464150	0.714890	0.681060
Co61	Co6	0.545570	0.237120	0.820560
Co71	Co7	0.759700	0.015690	0.785120
Co81	Co8	0.264620	0.030790	0.641900
Co91	Co9	0.167470	0.339880	0.983130
Co101	Co10	0.964150	0.785110	0.818940
Co111	Co11	0.954430	0.737120	0.320560
Co121	Co12	0.740300	0.515690	0.285120
Co131	Co13	0.235380	0.530790	0.141900
Co141	Co14	0.332530	0.839880	0.483130
Co151	Co15	0.535850	0.285110	0.318940
Co161	Co16	0.454430	0.762880	0.179440
Co171	Co17	0.240300	0.984310	0.214880
Co181	Co18	0.735380	0.969210	0.358100
Co191	Co19	0.832530	0.660120	0.016870
Co201	Co20	0.035850	0.214890	0.181060
H11	H1	0.781400	0.353000	0.680200
H21	H2	0.572700	0.342500	0.738500
H31	H3	0.833700	0.218900	0.764800
H41	H4	0.299800	0.309300	0.603700
H51	H5	0.386700	0.405500	0.613900
H61	H6	0.057500	0.388800	0.708700
H71	H7	0.991400	0.570100	0.705000
H81	H8	0.786500	0.567100	0.767400
H91	H9	0.056800	0.452000	0.807100
H101	H10	0.252600	0.540200	0.599700
H111	H11	0.377300	0.632000	0.586100
H121	H12	0.369500	0.604400	0.739500
H131	H13	0.346700	0.157600	0.680700
H141	H14	0.517700	0.212200	0.631700
H151	H15	0.458100	0.070800	0.551200
H161	H16	0.865800	0.973100	0.476900
H171	H17	0.837000	0.052100	0.541400
H181	H18	0.635700	0.085500	0.407600
H191	H19	0.488900	0.390900	0.871100
H201	H20	0.277700	0.397700	0.811400
H211	H21	0.563100	0.506000	0.767000
H221	H22	0.394200	0.232400	0.506000
H231	H23	0.336500	0.287700	0.425300
H241	H24	0.693300	0.207600	0.398900
H251	H25	0.011600	0.156500	0.501500
H261	H26	0.176500	0.198200	0.568700
H271	H27	0.783200	0.222800	0.619300
H281	H28	0.429000	0.835100	0.736300
H291	H29	0.227900	0.863500	0.793000
H301	H30	0.162700	0.710100	0.740700
H311	H31	0.281400	0.147000	0.819800
H321	H32	0.072700	0.157500	0.761500
H331	H33	0.333700	0.281100	0.735200
H341	H34	0.799800	0.190700	0.896300
H351	H35	0.886700	0.094500	0.886100
H361	H36	0.557500	0.111200	0.791300
H371	H37	0.491400	0.929900	0.795000
H381	H38	0.286500	0.932900	0.732600
H391	H39	0.556800	0.048000	0.692900
H401	H40	0.752600	0.959800	0.900300
H411	H41	0.877300	0.868000	0.913900
H421	H42	0.869500	0.895600	0.760500
H431	H43	0.846700	0.342400	0.819300
H441	H44	0.017700	0.287800	0.868300
H451	H45	0.958100	0.429200	0.948800
H461	H46	0.365800	0.526900	0.023100
H471	H47	0.337000	0.447900	0.958600
H481	H48	0.135700	0.414500	0.092400
H491	H49	0.988900	0.109100	0.628900
H501	H50	0.777700	0.102300	0.688600
H511	H51	0.063100	0.994000	0.733000
H521	H52	0.894200	0.267600	0.994000
H531	H53	0.836500	0.212300	0.074700
H541	H54	0.193300	0.292400	0.101100
H551	H55	0.511600	0.343500	0.998500
H561	H56	0.676500	0.301800	0.931300
H571	H57	0.283200	0.277200	0.880700
H581	H58	0.929000	0.664900	0.763700
H591	H59	0.727900	0.636500	0.707000
H601	H60	0.662700	0.789900	0.759300
H611	H61	0.218600	0.647000	0.319800
H621	H62	0.427300	0.657500	0.261500
H631	H63	0.166300	0.781100	0.235200
H641	H64	0.700200	0.690700	0.396300
H651	H65	0.613300	0.594500	0.386100
H661	H66	0.942500	0.611200	0.291300
H671	H67	0.008600	0.429900	0.295000
H681	H68	0.213500	0.432900	0.232600
H691	H69	0.943200	0.548000	0.192900
H701	H70	0.747400	0.459800	0.400300
H711	H71	0.622700	0.368000	0.413900
H721	H72	0.630500	0.395600	0.260500
H731	H73	0.653300	0.842400	0.319300
H741	H74	0.482300	0.787800	0.368300
H751	H75	0.541900	0.929200	0.448800
H761	H76	0.134200	0.026900	0.523100
H771	H77	0.163000	0.947900	0.458600
H781	H78	0.364300	0.914500	0.592400
H791	H79	0.511100	0.609100	0.128900
H801	H80	0.722300	0.602300	0.188600
H811	H81	0.436900	0.494000	0.233000
H821	H82	0.605800	0.767600	0.494000
H831	H83	0.663500	0.712300	0.574700
H841	H84	0.306700	0.792400	0.601100
H851	H85	0.988400	0.843500	0.498500
H861	H86	0.823500	0.801800	0.431300
H871	H87	0.216800	0.777200	0.380700
H881	H88	0.571000	0.164900	0.263700
H891	H89	0.772100	0.136500	0.207000
H901	H90	0.837300	0.289900	0.259300
H911	H91	0.718600	0.853000	0.180200
H921	H92	0.927300	0.842500	0.238500
H931	H93	0.666300	0.718900	0.264800
H941	H94	0.200200	0.809300	0.103700
H951	H95	0.113300	0.905500	0.113900
H961	H96	0.442500	0.888800	0.208700
H971	H97	0.508600	0.070100	0.205000
H981	H98	0.713500	0.067100	0.267400
H991	H99	0.443200	0.952000	0.307100
H1001	H100	0.247400	0.040200	0.099700
H1011	H101	0.122700	0.132000	0.086100
H1021	H102	0.130500	0.104400	0.239500
H1031	H103	0.153300	0.657600	0.180700
H1041	H104	0.982300	0.712200	0.131700
H1051	H105	0.041900	0.570800	0.051200
H1061	H106	0.634200	0.473100	0.976900
H1071	H107	0.663000	0.552100	0.041400
H1081	H108	0.864300	0.585500	0.907600
H1091	H109	0.011100	0.890900	0.371100
H1101	H110	0.222300	0.897700	0.311400
H1111	H111	0.936900	0.006000	0.267000
H1121	H112	0.105800	0.732400	0.006000
H1131	H113	0.163500	0.787700	0.925300
H1141	H114	0.806700	0.707600	0.898900
H1151	H115	0.488400	0.656500	0.001500
H1161	H116	0.323500	0.698200	0.068700
H1171	H117	0.716800	0.722800	0.119300
H1181	H118	0.071000	0.335100	0.236300
H1191	H119	0.272100	0.363500	0.293000
H1201	H120	0.337300	0.210100	0.240700
C11	C1	0.767100	0.324600	0.704900
C21	C2	0.652100	0.318500	0.736900
C31	C3	0.795100	0.251600	0.751000
C41	C4	0.260500	0.337100	0.626900
C51	C5	0.308600	0.390500	0.632500
C61	C6	0.130800	0.380600	0.683500
C71	C7	0.980500	0.545700	0.733700
C81	C8	0.866500	0.543500	0.768000
C91	C9	0.014600	0.481700	0.789000
C101	C10	0.303000	0.561900	0.625600
C111	C11	0.365000	0.614800	0.619500
C121	C12	0.369700	0.597900	0.701600
C131	C13	0.391300	0.146700	0.647800
C141	C14	0.485300	0.176600	0.621100
C151	C15	0.451900	0.099700	0.577700
C161	C16	0.815200	0.005900	0.470100
C171	C17	0.798500	0.049500	0.506100
C181	C18	0.690700	0.066900	0.433400
C191	C19	0.478700	0.415000	0.842100
C201	C20	0.361700	0.418900	0.809000
C211	C21	0.518100	0.477200	0.785400
C221	C22	0.449500	0.234200	0.474200
C231	C23	0.416100	0.264400	0.429100
C241	C24	0.609300	0.221000	0.415700
C251	C25	0.984800	0.175700	0.533900
C261	C26	0.076200	0.198000	0.571100
C271	C27	0.862000	0.211400	0.597900
C281	C28	0.349600	0.812800	0.744100
C291	C29	0.239300	0.828400	0.775700
C301	C30	0.204700	0.745100	0.747000
C311	C31	0.267100	0.175400	0.795100
C321	C32	0.152100	0.181500	0.763100
C331	C33	0.295100	0.248400	0.749000
C341	C34	0.760500	0.162900	0.873100
C351	C35	0.808600	0.109500	0.867500
C361	C36	0.630800	0.119400	0.816500
C371	C37	0.480500	0.954300	0.766300
C381	C38	0.366500	0.956500	0.732000
C391	C39	0.514600	0.018300	0.711000
C401	C40	0.803000	0.938100	0.874400
C411	C41	0.865000	0.885200	0.880500
C421	C42	0.869700	0.902100	0.798400
C431	C43	0.891300	0.353300	0.852200
C441	C44	0.985300	0.323400	0.878900
C451	C45	0.951900	0.400300	0.922300
C461	C46	0.315200	0.494100	0.029900
C471	C47	0.298500	0.450500	0.993900
C481	C48	0.190700	0.433100	0.066600
C491	C49	0.978700	0.085000	0.657900
C501	C50	0.861700	0.081100	0.691000
C511	C51	0.018100	0.022800	0.714600
C521	C52	0.949500	0.265800	0.025800
C531	C53	0.916100	0.235600	0.070900
C541	C54	0.109300	0.279000	0.084300
C551	C55	0.484800	0.324300	0.966100
C561	C56	0.576200	0.302000	0.928900
C571	C57	0.362000	0.288600	0.902100
C581	C58	0.849600	0.687200	0.755900
C591	C59	0.739300	0.671600	0.724300
C601	C60	0.704700	0.754900	0.753000
C611	C61	0.232900	0.675400	0.295100
C621	C62	0.347900	0.681500	0.263100
C631	C63	0.204900	0.748400	0.249000
C641	C64	0.739500	0.662900	0.373100
C651	C65	0.691400	0.609500	0.367500
C661	C66	0.869200	0.619400	0.316500
C671	C67	0.019500	0.454300	0.266300
C681	C68	0.133500	0.456500	0.232000
C691	C69	0.985400	0.518300	0.211000
C701	C70	0.697000	0.438100	0.374400
C711	C71	0.635000	0.385200	0.380500
C721	C72	0.630300	0.402100	0.298400
C731	C73	0.608700	0.853300	0.352200
C741	C74	0.514700	0.823400	0.378900
C751	C75	0.548100	0.900300	0.422300
C761	C76	0.184800	0.994100	0.529900
C771	C77	0.201500	0.950500	0.493900
C781	C78	0.309300	0.933100	0.566600
C791	C79	0.521300	0.585000	0.157900
C801	C80	0.638300	0.581100	0.191000
C811	C81	0.481900	0.522800	0.214600
C821	C82	0.550500	0.765800	0.525800
C831	C83	0.583900	0.735600	0.570900
C841	C84	0.390700	0.779000	0.584300
C851	C85	0.015200	0.824300	0.466100
C861	C86	0.923800	0.802000	0.428900
C871	C87	0.138000	0.788600	0.402100
C881	C88	0.650400	0.187200	0.255900
C891	C89	0.760700	0.171600	0.224300
C901	C90	0.795300	0.254900	0.253000
C911	C91	0.732900	0.824600	0.204900
C921	C92	0.847900	0.818500	0.236900
C931	C93	0.704900	0.751600	0.251000
C941	C94	0.239500	0.837100	0.126900
C951	C95	0.191400	0.890500	0.132500
C961	C96	0.369200	0.880600	0.183500
C971	C97	0.519500	0.045700	0.233700
C981	C98	0.633500	0.043500	0.268000
C991	C99	0.485400	0.981700	0.289000
C1001	C100	0.197000	0.061900	0.125600
C1011	C101	0.135000	0.114800	0.119500
C1021	C102	0.130300	0.097900	0.201600
C1031	C103	0.108700	0.646700	0.147800
C1041	C104	0.014700	0.676600	0.121100
C1051	C105	0.048100	0.599700	0.077700
C1061	C106	0.684800	0.505900	0.970100
C1071	C107	0.701500	0.549500	0.006100
C1081	C108	0.809300	0.566900	0.933400
C1091	C109	0.021300	0.915000	0.342100
C1101	C110	0.138300	0.918900	0.309000
C1111	C111	0.981900	0.977200	0.285400
C1121	C112	0.050500	0.734200	0.974200
C1131	C113	0.083900	0.764400	0.929100
C1141	C114	0.890700	0.721000	0.915700
C1151	C115	0.515200	0.675700	0.033900
C1161	C116	0.423800	0.698000	0.071100
C1171	C117	0.638000	0.711400	0.097900
C1181	C118	0.150400	0.312800	0.244100
C1191	C119	0.260700	0.328400	0.275700
C1201	C120	0.295300	0.245100	0.247000
N11	N1	0.859800	0.282100	0.714400
N21	N2	0.668400	0.273100	0.766100
N31	N3	0.147600	0.330800	0.660000
N41	N4	0.226000	0.417900	0.668700
N51	N5	0.075900	0.506100	0.748400
N61	N6	0.886700	0.502500	0.802400
N71	N7	0.335200	0.549300	0.679700
N81	N8	0.404500	0.637000	0.667900
N91	N9	0.369300	0.097300	0.619700
N101	N10	0.527900	0.146400	0.574900
N111	N11	0.748500	0.016800	0.423700
N121	N12	0.718200	0.087900	0.482700
N131	N13	0.577500	0.452200	0.825600
N141	N14	0.387200	0.458400	0.772300
N151	N15	0.572100	0.208300	0.465100
N161	N16	0.518400	0.254200	0.391400
N171	N17	0.848800	0.185200	0.550300
N181	N18	0.996100	0.220300	0.613000
N191	N19	0.329400	0.759800	0.725200
N201	N20	0.145700	0.784800	0.778700
N211	N21	0.359800	0.217900	0.785600
N221	N22	0.168400	0.226900	0.733900
N231	N23	0.647600	0.169200	0.840000
N241	N24	0.726000	0.082100	0.831300
N251	N25	0.575900	0.993900	0.751600
N261	N26	0.386700	0.997500	0.697600
N271	N27	0.835200	0.950700	0.820300
N281	N28	0.904500	0.863000	0.832100
N291	N29	0.869300	0.402700	0.880300
N301	N30	0.027900	0.353600	0.925100
N311	N31	0.248500	0.483200	0.076300
N321	N32	0.218200	0.412100	0.017300
N331	N33	0.077500	0.047800	0.674400
N341	N34	0.887200	0.041600	0.727700
N351	N35	0.072100	0.291700	0.034900
N361	N36	0.018400	0.245800	0.108600
N371	N37	0.348800	0.314800	0.949700
N381	N38	0.496100	0.279700	0.887000
N391	N39	0.829400	0.740200	0.774800
N401	N40	0.645700	0.715200	0.721300
N411	N41	0.140200	0.717900	0.285600
N421	N42	0.331600	0.726900	0.233900
N431	N43	0.852400	0.669200	0.340000
N441	N44	0.774000	0.582100	0.331300
N451	N45	0.924100	0.493900	0.251600
N461	N46	0.113300	0.497500	0.197600
N471	N47	0.664800	0.450700	0.320300
N481	N48	0.595500	0.363000	0.332100
N491	N49	0.630700	0.902700	0.380300
N501	N50	0.472100	0.853600	0.425100
N511	N51	0.251500	0.983200	0.576300
N521	N52	0.281800	0.912100	0.517300
N531	N53	0.422500	0.547800	0.174400
N541	N54	0.612800	0.541600	0.227700
N551	N55	0.427900	0.791700	0.534900
N561	N56	0.481600	0.745800	0.608600
N571	N57	0.151200	0.814800	0.449700
N581	N58	0.003900	0.779700	0.387000
N591	N59	0.670600	0.240200	0.274800
N601	N60	0.854300	0.215200	0.221300
N611	N61	0.640200	0.782100	0.214400
N621	N62	0.831600	0.773100	0.266100
N631	N63	0.352400	0.830800	0.160000
N641	N64	0.274000	0.917900	0.168700
N651	N65	0.424100	0.006100	0.248400
N661	N66	0.613300	0.002500	0.302400
N671	N67	0.164800	0.049300	0.179700
N681	N68	0.095500	0.137000	0.167900
N691	N69	0.130700	0.597300	0.119700
N701	N70	0.972100	0.646400	0.074900
N711	N71	0.751500	0.516800	0.923700
N721	N72	0.781800	0.587900	0.982700
N731	N73	0.922500	0.952200	0.325600
N741	N74	0.112800	0.958400	0.272300
N751	N75	0.927900	0.708300	0.965100
N761	N76	0.981600	0.754200	0.891400
N771	N77	0.651200	0.685200	0.050300
N781	N78	0.503900	0.720300	0.113000
N791	N79	0.170600	0.259800	0.225200
N801	N80	0.354300	0.284800	0.278700
