data_AFOVOH_clean_PM
_symmetry_space_group_name_H-M	'P1'
_cell_length_a	8.723000
_cell_length_b	14.179000
_cell_length_c	15.031200
_cell_angle_alpha	114.830000
_cell_angle_beta	106.868000
_cell_angle_gamma	90.000000
_symmetry_Int_Tables_number 1

loop_
_symmetry_equiv_pos_as_xyz
'x,y,z'

loop_
_atom_site_label
_atom_site_type_symbol
_atom_site_fract_x
_atom_site_fract_y
_atom_site_fract_z
Nd11	Nd1	0.904170	0.005040	0.546180
Nd21	Nd2	0.357990	0.994960	0.453820
H11	H1	0.843100	0.796700	0.663400
H21	H2	0.853300	0.641600	0.682800
H31	H3	0.379400	0.558700	0.537200
H41	H4	0.364000	0.717900	0.525400
H51	H5	0.820500	0.529900	0.745800
H61	H6	0.858400	0.363800	0.739600
H71	H7	0.468500	0.236000	0.486800
H81	H8	0.444200	0.392500	0.481400
H91	H9	0.792800	0.715400	0.225200
H101	H10	0.725600	0.564300	0.073600
H111	H11	0.256800	0.584900	0.051200
H121	H12	0.334400	0.719700	0.213600
H131	H13	0.179700	0.203300	0.336600
H141	H14	0.170500	0.358400	0.317200
H151	H15	0.842200	0.441300	0.462800
H161	H16	0.838600	0.282100	0.474600
H171	H17	0.074700	0.470100	0.254200
H181	H18	0.118800	0.636200	0.260400
H191	H19	0.981700	0.764000	0.513200
H201	H20	0.962800	0.607500	0.518600
H211	H21	0.567600	0.284600	0.774800
H221	H22	0.652000	0.435700	0.926400
H231	H23	0.205600	0.415100	0.948800
H241	H24	0.120800	0.280300	0.786400
C11	C1	0.597700	0.868200	0.574800
C21	C2	0.602500	0.769800	0.588600
C31	C3	0.749700	0.749200	0.637600
C41	C4	0.755400	0.654700	0.647800
C51	C5	0.619000	0.580600	0.606800
C61	C6	0.473300	0.605600	0.562400
C71	C7	0.463700	0.701300	0.554000
C81	C8	0.629400	0.478600	0.612000
C91	C9	0.753500	0.470200	0.691600
C101	C10	0.774900	0.370400	0.688400
C111	C11	0.672100	0.282400	0.609600
C121	C12	0.543800	0.294200	0.536000
C131	C13	0.526200	0.388100	0.534600
C141	C14	0.711600	0.175500	0.602400
C151	C15	0.616500	0.833300	0.330800
C161	C16	0.572800	0.735200	0.236000
C171	C17	0.684700	0.686000	0.192200
C181	C18	0.645500	0.594500	0.101000
C191	C19	0.479300	0.546100	0.048600
C201	C20	0.366200	0.604700	0.089200
C211	C21	0.412800	0.690600	0.183600
C221	C22	0.022900	0.131800	0.425200
C231	C23	0.013900	0.230200	0.411400
C241	C24	0.112100	0.250800	0.362400
C251	C25	0.107600	0.345300	0.352200
C261	C26	0.012200	0.419400	0.393200
C271	C27	0.910900	0.394400	0.437600
C281	C28	0.909700	0.298700	0.446000
C291	C29	0.017400	0.521400	0.388000
C301	C30	0.061900	0.529800	0.308400
C311	C31	0.086500	0.629600	0.311600
C321	C32	0.062500	0.717600	0.390400
C331	C33	0.007800	0.705800	0.464000
C341	C34	0.991600	0.611900	0.465400
C351	C35	0.109200	0.824500	0.397600
C361	C36	0.285700	0.166700	0.669200
C371	C37	0.336800	0.264800	0.764000
C381	C38	0.492500	0.314000	0.807800
C391	C39	0.544500	0.405500	0.899000
C401	C40	0.430700	0.453900	0.951400
C411	C41	0.277000	0.395300	0.910800
C421	C42	0.229200	0.309400	0.816400
O11	O1	0.723900	0.915400	0.585600
O21	O2	0.458000	0.898500	0.551200
O31	O3	0.627600	0.095800	0.521600
O41	O4	0.832700	0.169900	0.665400
O51	O5	0.766100	0.871100	0.375200
O61	O6	0.507400	0.876300	0.361600
O71	O7	0.138300	0.084600	0.414400
O81	O8	0.906800	0.101500	0.448800
O91	O9	0.106000	0.904200	0.478400
O101	O10	0.167300	0.830100	0.334600
O111	O11	0.390900	0.128900	0.624800
O121	O12	0.145800	0.123700	0.638400
