data_AFOYEB_clean_PM
_symmetry_space_group_name_H-M	'P1'
_cell_length_a	18.968000
_cell_length_b	18.968000
_cell_length_c	5.773000
_cell_angle_alpha	90.000000
_cell_angle_beta	90.000000
_cell_angle_gamma	90.000000
_symmetry_Int_Tables_number 1

loop_
_symmetry_equiv_pos_as_xyz
'x,y,z'

loop_
_atom_site_label
_atom_site_type_symbol
_atom_site_fract_x
_atom_site_fract_y
_atom_site_fract_z
O11	O1	0.242600	0.685400	0.434000
O21	O2	0.224400	0.592800	0.231000
C11	C1	0.238400	0.625000	0.408000
C21	C2	0.249900	0.575700	0.632000
H11	H1	0.206200	0.547800	0.664300
O31	O3	0.263900	0.626100	0.825000
C31	C3	0.315200	0.525600	0.615000
H21	H2	0.306900	0.494500	0.477600
O41	O4	0.373600	0.562200	0.570000
C41	C4	0.316100	0.478600	0.823000
H31	H3	0.324300	0.508800	0.962100
O51	O5	0.379800	0.431400	0.793000
C51	C5	0.252000	0.429200	0.876000
H41	H4	0.210000	0.458600	0.915800
O61	O6	0.271100	0.386400	0.073000
C61	C6	0.237200	0.388700	0.669000
O71	O7	0.245500	0.320400	0.689000
O81	O8	0.214200	0.422200	0.482000
O91	O9	0.757400	0.314600	0.934000
O101	O10	0.775600	0.407200	0.731000
C71	C7	0.761600	0.375000	0.908000
C81	C8	0.750100	0.424300	0.132000
H51	H5	0.793800	0.452200	0.164300
O111	O11	0.736100	0.373900	0.325000
C91	C9	0.684800	0.474400	0.115000
H61	H6	0.693100	0.505500	0.977600
O121	O12	0.626400	0.437800	0.070000
C101	C10	0.683900	0.521400	0.323000
H71	H7	0.675700	0.491200	0.462100
O131	O13	0.620200	0.568600	0.293000
C111	C11	0.748000	0.570800	0.376000
H81	H8	0.790000	0.541400	0.415800
O141	O14	0.728900	0.613600	0.573000
C121	C12	0.762800	0.611300	0.169000
O151	O15	0.754500	0.679600	0.189000
O161	O16	0.785800	0.577800	0.982000
O171	O17	0.814600	0.742600	0.684000
O181	O18	0.907200	0.724400	0.481000
C131	C13	0.875000	0.738400	0.658000
C141	C14	0.924300	0.749900	0.882000
H91	H9	0.952200	0.706200	0.914300
O191	O19	0.873900	0.763900	0.075000
C151	C15	0.974400	0.815200	0.865000
H101	H10	0.005500	0.806900	0.727600
O201	O20	0.937800	0.873600	0.820000
C161	C16	0.021400	0.816100	0.073000
H111	H11	0.991200	0.824300	0.212100
O211	O21	0.068600	0.879800	0.043000
C171	C17	0.070800	0.752000	0.126000
H121	H12	0.041400	0.710000	0.165800
O221	O22	0.113600	0.771100	0.323000
C181	C18	0.111300	0.737200	0.919000
O231	O23	0.179600	0.745500	0.939000
O241	O24	0.077800	0.714200	0.732000
O251	O25	0.185400	0.257400	0.184000
O261	O26	0.092800	0.275600	0.981000
C191	C19	0.125000	0.261600	0.158000
C201	C20	0.075700	0.250100	0.382000
H131	H13	0.047800	0.293800	0.414300
O271	O27	0.126100	0.236100	0.575000
C211	C21	0.025600	0.184800	0.365000
H141	H14	0.994500	0.193100	0.227600
O281	O28	0.062200	0.126400	0.320000
C221	C22	0.978600	0.183900	0.573000
H151	H15	0.008800	0.175700	0.712100
O291	O29	0.931400	0.120200	0.543000
C231	C23	0.929200	0.248000	0.626000
H161	H16	0.958600	0.290000	0.665800
O301	O30	0.886400	0.228900	0.823000
C241	C24	0.888700	0.262800	0.419000
O311	O31	0.820400	0.254500	0.439000
O321	O32	0.922200	0.285800	0.232000
O331	O33	0.257400	0.185400	0.816000
O341	O34	0.275600	0.092800	0.019000
C251	C25	0.261600	0.125000	0.842000
C261	C26	0.250100	0.075700	0.618000
H171	H17	0.293800	0.047800	0.585700
O351	O35	0.236100	0.126100	0.425000
C271	C27	0.184800	0.025600	0.635000
H181	H18	0.193100	0.994500	0.772400
O361	O36	0.126400	0.062200	0.680000
C281	C28	0.183900	0.978600	0.427000
H191	H19	0.175700	0.008800	0.287900
O371	O37	0.120200	0.931400	0.457000
C291	C29	0.248000	0.929200	0.374000
H201	H20	0.290000	0.958600	0.334200
O381	O38	0.228900	0.886400	0.177000
C301	C30	0.262800	0.888700	0.581000
O391	O39	0.254500	0.820400	0.561000
O401	O40	0.285800	0.922200	0.768000
O411	O41	0.742600	0.814600	0.316000
O421	O42	0.724400	0.907200	0.519000
C311	C31	0.738400	0.875000	0.342000
C321	C32	0.749900	0.924300	0.118000
H211	H21	0.706200	0.952200	0.085700
O431	O43	0.763900	0.873900	0.925000
C331	C33	0.815200	0.974400	0.135000
H221	H22	0.806900	0.005500	0.272400
O441	O44	0.873600	0.937800	0.180000
C341	C34	0.816100	0.021400	0.927000
H231	H23	0.824300	0.991200	0.787900
O451	O45	0.879800	0.068600	0.957000
C351	C35	0.752000	0.070800	0.874000
H241	H24	0.710000	0.041400	0.834200
O461	O46	0.771100	0.113600	0.677000
C361	C36	0.737200	0.111300	0.081000
O471	O47	0.745500	0.179600	0.061000
O481	O48	0.714200	0.077800	0.268000
O491	O49	0.685400	0.242600	0.566000
O501	O50	0.592800	0.224400	0.769000
C371	C37	0.625000	0.238400	0.592000
C381	C38	0.575700	0.249900	0.368000
H251	H25	0.547800	0.206200	0.335700
O511	O51	0.626100	0.263900	0.175000
C391	C39	0.525600	0.315200	0.385000
H261	H26	0.494500	0.306900	0.522400
O521	O52	0.562200	0.373600	0.430000
C401	C40	0.478600	0.316100	0.177000
H271	H27	0.508800	0.324300	0.037900
O531	O53	0.431400	0.379800	0.207000
C411	C41	0.429200	0.252000	0.124000
H281	H28	0.458600	0.210000	0.084200
O541	O54	0.386400	0.271100	0.927000
C421	C42	0.388700	0.237200	0.331000
O551	O55	0.320400	0.245500	0.311000
O561	O56	0.422200	0.214200	0.518000
O571	O57	0.314600	0.757400	0.066000
O581	O58	0.407200	0.775600	0.269000
C431	C43	0.375000	0.761600	0.092000
C441	C44	0.424300	0.750100	0.868000
H291	H29	0.452200	0.793800	0.835700
O591	O59	0.373900	0.736100	0.675000
C451	C45	0.474400	0.684800	0.885000
H301	H30	0.505500	0.693100	0.022400
O601	O60	0.437800	0.626400	0.930000
C461	C46	0.521400	0.683900	0.677000
H311	H31	0.491200	0.675700	0.537900
O611	O61	0.568600	0.620200	0.707000
C471	C47	0.570800	0.748000	0.624000
H321	H32	0.541400	0.790000	0.584200
O621	O62	0.613600	0.728900	0.427000
C481	C48	0.611300	0.762800	0.831000
O631	O63	0.679600	0.754500	0.811000
O641	O64	0.577800	0.785800	0.018000
Co11	Co1	0.270320	0.729680	0.750000
Co21	Co2	0.729680	0.270320	0.250000
Co31	Co3	0.770320	0.770320	0.000000
Co41	Co4	0.229680	0.229680	0.500000
Co51	Co5	0.279920	0.279920	0.000000
Co61	Co6	0.720080	0.720080	0.500000
Co71	Co7	0.220080	0.779920	0.250000
Co81	Co8	0.779920	0.220080	0.750000
