data_AFUKET_clean_PM
_symmetry_space_group_name_H-M	'P1'
_cell_length_a	10.521100
_cell_length_b	24.148900
_cell_length_c	37.877100
_cell_angle_alpha	88.266300
_cell_angle_beta	82.016700
_cell_angle_gamma	77.418100
_symmetry_Int_Tables_number 1

loop_
_symmetry_equiv_pos_as_xyz
'x,y,z'

loop_
_atom_site_label
_atom_site_type_symbol
_atom_site_fract_x
_atom_site_fract_y
_atom_site_fract_z
Mn11	Mn1	0.390680	0.736540	0.586760
Mn21	Mn2	0.058430	0.732020	0.617480
Mn31	Mn3	0.799190	0.669610	0.636570
Mn41	Mn4	0.713980	0.263460	0.413240
Mn51	Mn5	0.407930	0.267980	0.382520
Mn61	Mn6	0.105370	0.330390	0.363430
Mn71	Mn7	0.227440	0.236540	0.913240
Mn81	Mn8	0.925910	0.232020	0.882520
Mn91	Mn9	0.685760	0.169610	0.863430
Mn101	Mn10	0.377220	0.763460	0.086760
Mn111	Mn11	0.040450	0.767980	0.117480
Mn121	Mn12	0.718800	0.830390	0.136570
H11	H1	0.078700	0.848800	0.829600
H21	H2	0.109800	0.781800	0.829800
H31	H3	0.323300	0.869400	0.852200
H41	H4	0.288500	0.867400	0.894000
H51	H5	0.052000	0.779000	0.896800
H61	H6	0.008300	0.845400	0.894000
H71	H7	0.329300	0.764400	0.894600
H81	H8	0.373300	0.764600	0.853400
H91	H9	0.124200	0.657200	0.840600
H101	H10	0.152100	0.591200	0.835000
H111	H11	0.461100	0.558200	0.869600
H121	H12	0.450500	0.568600	0.828800
H131	H13	0.172100	0.576600	0.896400
H141	H14	0.151700	0.641600	0.904000
H151	H15	0.405000	0.668400	0.837000
H161	H16	0.416400	0.660000	0.877800
H171	H17	0.061900	0.812600	0.772400
H181	H18	0.070700	0.791400	0.712600
H191	H19	0.459100	0.773800	0.699400
H201	H20	0.447500	0.791400	0.759400
H211	H21	0.978600	0.004600	0.877400
H221	H22	0.990400	0.093400	0.891000
H231	H23	0.378900	0.040400	0.886400
H241	H24	0.357500	0.949600	0.874800
H251	H25	0.182700	0.837400	0.989200
H261	H26	0.057400	0.837000	0.045000
H271	H27	0.762700	0.808600	0.999800
H281	H28	0.883800	0.806800	0.943600
H291	H29	0.002600	0.638400	0.801600
H301	H30	0.886400	0.644400	0.755000
H311	H31	0.212000	0.652400	0.689800
H321	H32	0.326700	0.637800	0.737400
H331	H33	0.285000	0.423000	0.852200
H341	H34	0.408600	0.334400	0.854600
H351	H35	0.730200	0.393800	0.850200
H361	H36	0.603000	0.488000	0.846600
H371	H37	0.446800	0.579600	0.968400
H381	H38	0.408100	0.616800	0.026400
H391	H39	0.055300	0.698200	0.010200
H401	H40	0.091200	0.661000	0.952600
H411	H41	0.805900	0.564600	0.579000
H421	H42	0.850200	0.544200	0.679200
H431	H43	0.846900	0.453200	0.658000
H441	H44	0.836600	0.389200	0.618800
H451	H45	0.795200	0.320400	0.581000
H461	H46	0.682200	0.440400	0.512000
H471	H47	0.720900	0.507200	0.552000
H481	H48	0.732300	0.366200	0.470600
H491	H49	0.706400	0.265000	0.551800
H501	H50	0.701300	0.214600	0.496800
H511	H51	0.757100	0.151200	0.170400
H521	H52	0.721400	0.218200	0.170200
H531	H53	0.044900	0.130600	0.147800
H541	H54	0.049900	0.132600	0.106000
H551	H55	0.727800	0.221000	0.103200
H561	H56	0.747700	0.154600	0.106000
H571	H57	0.988300	0.235600	0.105400
H581	H58	0.991300	0.235400	0.146600
H591	H59	0.622000	0.342800	0.159400
H601	H60	0.578300	0.408800	0.165000
H611	H61	0.888900	0.441800	0.130400
H621	H62	0.847900	0.431400	0.171200
H631	H63	0.645100	0.423400	0.103600
H641	H64	0.697300	0.358400	0.096000
H651	H65	0.910400	0.331600	0.163000
H661	H66	0.954200	0.340000	0.122200
H671	H67	0.646900	0.187400	0.227600
H681	H68	0.574700	0.208600	0.287400
H691	H69	0.932300	0.226200	0.300600
H701	H70	0.998300	0.208600	0.240600
H711	H71	0.860600	0.995400	0.122600
H721	H72	0.974800	0.906600	0.109000
H731	H73	0.305700	0.959600	0.113600
H741	H74	0.181900	0.050400	0.125200
H751	H75	0.009300	0.162600	0.010800
H761	H76	0.939400	0.163000	0.955000
H771	H77	0.571100	0.191400	0.000200
H781	H78	0.634200	0.193200	0.056400
H791	H79	0.442600	0.361600	0.198400
H801	H80	0.285800	0.355600	0.245000
H811	H81	0.554200	0.347600	0.310200
H821	H82	0.701900	0.362200	0.262600
H831	H83	0.560200	0.577000	0.147800
H841	H84	0.597600	0.665600	0.145400
H851	H85	0.974200	0.606200	0.149800
H861	H86	0.937600	0.512000	0.153400
H871	H87	0.994800	0.420400	0.031600
H881	H88	0.051300	0.383200	0.973600
H891	H89	0.763700	0.301800	0.989800
H901	H90	0.704800	0.339000	0.047400
H911	H91	0.949500	0.435400	0.421000
H921	H92	0.073600	0.455800	0.320800
H931	H93	0.958100	0.546800	0.342000
H941	H94	0.844600	0.610800	0.381200
H951	H95	0.696600	0.679600	0.419000
H961	H96	0.634600	0.559600	0.488000
H971	H97	0.780100	0.492800	0.448000
H981	H98	0.569100	0.633800	0.529400
H991	H99	0.523200	0.735000	0.448200
H1001	H100	0.412700	0.785400	0.503200
H1011	H101	0.158300	0.348800	0.670400
H1021	H102	0.189600	0.281800	0.670200
H1031	H103	0.425500	0.369400	0.647800
H1041	H104	0.432500	0.367400	0.606000
H1051	H105	0.198800	0.279000	0.603200
H1061	H106	0.152300	0.345400	0.606000
H1071	H107	0.473900	0.264400	0.605400
H1081	H108	0.476700	0.264600	0.646600
H1091	H109	0.214800	0.157200	0.659400
H1101	H110	0.237100	0.091200	0.665000
H1111	H111	0.580700	0.058200	0.630400
H1121	H112	0.529300	0.068600	0.671200
H1131	H113	0.318500	0.076600	0.603600
H1141	H114	0.305700	0.141600	0.596000
H1151	H115	0.492000	0.168400	0.663000
H1161	H116	0.544200	0.160000	0.622200
H1171	H117	0.084300	0.312600	0.727600
H1181	H118	0.033300	0.291400	0.787400
H1191	H119	0.408500	0.273800	0.800600
H1201	H120	0.456900	0.291400	0.740600
H1211	H121	0.106000	0.504600	0.622600
H1221	H122	0.131400	0.593400	0.609000
H1231	H123	0.515300	0.540400	0.613600
H1241	H124	0.482300	0.449600	0.625200
H1251	H125	0.421900	0.337400	0.510800
H1261	H126	0.352400	0.337000	0.455000
H1271	H127	0.012500	0.308600	0.500200
H1281	H128	0.077400	0.306800	0.556400
H1291	H129	0.054200	0.138400	0.698400
H1301	H130	0.891400	0.144400	0.745000
H1311	H131	0.151800	0.152400	0.810200
H1321	H132	0.314100	0.137800	0.762600
H1331	H133	0.387200	0.923000	0.647800
H1341	H134	0.513200	0.834400	0.645400
H1351	H135	0.830400	0.893800	0.649800
H1361	H136	0.699600	0.988000	0.653400
H1371	H137	0.665200	0.079600	0.531600
H1381	H138	0.684500	0.116800	0.473600
H1391	H139	0.315500	0.198200	0.489800
H1401	H140	0.293800	0.161000	0.547400
H1411	H141	0.634900	0.064600	0.921000
H1421	H142	0.779400	0.044200	0.820800
H1431	H143	0.754900	0.953200	0.842000
H1441	H144	0.705400	0.889200	0.881200
H1451	H145	0.626200	0.820400	0.919000
H1461	H146	0.444200	0.940400	0.988000
H1471	H147	0.522900	0.007200	0.948000
H1481	H148	0.452900	0.866200	0.029400
H1491	H149	0.508200	0.765000	0.948200
H1501	H150	0.448100	0.714600	0.003200
H1511	H151	0.177500	0.651200	0.329600
H1521	H152	0.141600	0.718200	0.329800
H1531	H153	0.442700	0.630600	0.352200
H1541	H154	0.405900	0.632600	0.394000
H1551	H155	0.081000	0.721000	0.396800
H1561	H156	0.103700	0.654600	0.394000
H1571	H157	0.343700	0.735600	0.394600
H1581	H158	0.387900	0.735400	0.353400
H1591	H159	0.031400	0.842800	0.340600
H1601	H160	0.993300	0.908800	0.335000
H1611	H161	0.269300	0.941800	0.369600
H1621	H162	0.269100	0.931400	0.328800
H1631	H163	0.998700	0.923400	0.396400
H1641	H164	0.043300	0.858400	0.404000
H1651	H165	0.323400	0.831600	0.337000
H1661	H166	0.326400	0.840000	0.377800
H1671	H167	0.124500	0.687400	0.272400
H1681	H168	0.112100	0.708600	0.212600
H1691	H169	0.482900	0.726200	0.199400
H1701	H170	0.488900	0.708600	0.259400
H1711	H171	0.233200	0.495400	0.377400
H1721	H172	0.333800	0.406600	0.391000
H1731	H173	0.669300	0.459600	0.386400
H1741	H174	0.557100	0.550400	0.374800
H1751	H175	0.270100	0.662600	0.489200
H1761	H176	0.144400	0.663000	0.545000
H1771	H177	0.821300	0.691400	0.499800
H1781	H178	0.940600	0.693200	0.443600
H1791	H179	0.891000	0.861600	0.301600
H1801	H180	0.780800	0.855600	0.255000
H1811	H181	0.114400	0.847600	0.189800
H1821	H182	0.214500	0.862200	0.237400
H1831	H183	0.958000	0.077000	0.352200
H1841	H184	0.993000	0.165600	0.354600
H1851	H185	0.374000	0.106200	0.350200
H1861	H186	0.341000	0.012000	0.346600
H1871	H187	0.276400	0.920400	0.468400
H1881	H188	0.274900	0.883200	0.526400
H1891	H189	0.003500	0.801800	0.510200
H1901	H190	0.002200	0.839000	0.452600
H1911	H191	0.620500	0.935400	0.079000
H1921	H192	0.644400	0.955800	0.179200
H1931	H193	0.550100	0.046800	0.158000
H1941	H194	0.475800	0.110800	0.118800
H1951	H195	0.365600	0.179600	0.081000
H1961	H196	0.372600	0.059600	0.012000
H1971	H197	0.478100	0.992800	0.052000
H1981	H198	0.348500	0.133800	0.970600
H1991	H199	0.221400	0.235000	0.051800
H2001	H200	0.165900	0.285400	0.996800
C11	C1	0.198640	0.814820	0.868300
C21	C2	0.145920	0.815020	0.832140
C31	C3	0.253400	0.867820	0.871580
C41	C4	0.081190	0.814300	0.897320
C51	C5	0.299020	0.764320	0.871640
C61	C6	0.288970	0.615380	0.861080
C71	C7	0.192940	0.623680	0.834240
C81	C8	0.401450	0.563320	0.851780
C91	C9	0.217110	0.607480	0.897100
C101	C10	0.356060	0.665020	0.860260
C111	C11	0.252610	0.804040	0.771740
C121	C12	0.142540	0.804400	0.757920
C131	C13	0.147330	0.792660	0.721880
C141	C14	0.263580	0.783280	0.700560
C151	C15	0.378440	0.781760	0.713960
C161	C16	0.370450	0.792320	0.749780
C171	C17	0.266950	0.767540	0.661360
C181	C18	0.167430	0.968140	0.876400
C191	C19	0.059840	0.012020	0.880100
C201	C20	0.066240	0.064900	0.887420
C211	C21	0.185840	0.076380	0.889540
C221	C22	0.296420	0.033180	0.884980
C231	C23	0.283110	0.978960	0.878220
C241	C24	0.199100	0.135760	0.898040
C251	C25	0.046130	0.821840	0.961300
C261	C26	0.097750	0.831260	0.991040
C271	C27	0.021940	0.831660	0.024460
C281	C28	0.899400	0.824340	0.027060
C291	C29	0.847940	0.814560	0.997360
C301	C30	0.919610	0.813260	0.963720
C311	C31	0.820860	0.822960	0.062720
C321	C32	0.174790	0.636600	0.774220
C331	C33	0.045950	0.639920	0.778580
C341	C34	0.975080	0.645340	0.751100
C351	C35	0.035470	0.652400	0.717060
C361	C36	0.167790	0.649020	0.712600
C371	C37	0.236200	0.640700	0.741100
C381	C38	0.958200	0.661220	0.687380
C391	C39	0.434170	0.463660	0.851000
C401	C40	0.375110	0.417620	0.852360
C411	C41	0.449040	0.365140	0.853780
C421	C42	0.580310	0.355300	0.854080
C431	C43	0.639390	0.399940	0.851080
C441	C44	0.563060	0.456960	0.849120
C451	C45	0.664360	0.297620	0.858860
C461	C46	0.267380	0.618180	0.955660
C471	C47	0.367550	0.603820	0.976680
C481	C48	0.344500	0.627320	0.011280
C491	C49	0.231550	0.664900	0.022800
C501	C50	0.136360	0.675260	0.001820
C511	C51	0.157100	0.651980	0.967220
C521	C52	0.218910	0.694520	0.058860
C531	C53	0.813370	0.549300	0.601560
C541	C54	0.840480	0.536640	0.656000
C551	C55	0.835240	0.486900	0.645220
C561	C56	0.784080	0.453880	0.586960
C571	C57	0.805820	0.399820	0.597140
C581	C58	0.780640	0.358400	0.574320
C591	C59	0.735570	0.374520	0.542940
C601	C60	0.713100	0.428600	0.533400
C611	C61	0.738560	0.468800	0.557880
C621	C62	0.718880	0.335220	0.484620
C631	C63	0.708470	0.280000	0.528860
C641	C64	0.702650	0.252740	0.498560
C651	C65	0.881760	0.185180	0.131700
C661	C66	0.793080	0.184980	0.167860
C671	C67	0.992800	0.132180	0.128420
C681	C68	0.792810	0.185700	0.102680
C691	C69	0.934980	0.235680	0.128360
C701	C70	0.765430	0.384620	0.138920
C711	C71	0.650860	0.376320	0.165760
C721	C72	0.816550	0.436680	0.148220
C731	C73	0.721690	0.392520	0.102900
C741	C74	0.881340	0.334980	0.139740
C751	C75	0.828390	0.195960	0.228260
C761	C76	0.704860	0.195600	0.242080
C771	C77	0.661870	0.207340	0.278120
C781	C78	0.747420	0.216720	0.299440
C791	C79	0.874160	0.218240	0.286040
C801	C80	0.912550	0.207680	0.250220
C811	C81	0.695850	0.232460	0.338640
C821	C82	0.011970	0.031860	0.123600
C831	C83	0.951960	0.987980	0.119900
C841	C84	0.018560	0.935100	0.112580
C851	C85	0.151760	0.923620	0.110460
C861	C86	0.214580	0.966820	0.115020
C871	C87	0.140290	0.021040	0.121780
C881	C88	0.232900	0.864240	0.101960
C891	C89	0.829270	0.178160	0.038700
C901	C90	0.920050	0.168740	0.008960
C911	C91	0.878060	0.168340	0.975540
C921	C92	0.750800	0.175660	0.972940
C931	C93	0.659860	0.185440	0.002640
C941	C94	0.696590	0.186740	0.036280
C951	C95	0.706540	0.177040	0.937280
C961	C96	0.585610	0.363400	0.225780
C971	C97	0.464450	0.360080	0.221420
C981	C98	0.371520	0.354660	0.248900
C991	C99	0.404930	0.347600	0.282940
C1001	C100	0.529410	0.350980	0.287400
C1011	C101	0.618000	0.359300	0.258900
C1021	C102	0.306800	0.338780	0.312620
C1031	C103	0.748830	0.536340	0.149000
C1041	C104	0.645090	0.582380	0.147640
C1051	C105	0.667960	0.634860	0.146220
C1061	C106	0.789690	0.644700	0.145920
C1071	C107	0.890410	0.600060	0.148920
C1081	C108	0.869140	0.543040	0.150880
C1091	C109	0.820840	0.702380	0.141140
C1101	C110	0.841220	0.381820	0.044340
C1111	C111	0.948050	0.396180	0.023320
C1121	C112	0.983100	0.372680	0.988720
C1131	C113	0.919250	0.335100	0.977200
C1141	C114	0.813440	0.324740	0.998180
C1151	C115	0.776300	0.348020	0.032780
C1161	C116	0.972290	0.305480	0.941140
C1171	C117	0.964230	0.450700	0.398440
C1181	C118	0.033120	0.463360	0.344000
C1191	C119	0.967360	0.513100	0.354780
C1201	C120	0.824920	0.546120	0.413040
C1211	C121	0.802780	0.600180	0.402860
C1221	C122	0.713360	0.641600	0.425680
C1231	C123	0.653030	0.625480	0.457060
C1241	C124	0.675100	0.571400	0.466600
C1251	C125	0.765240	0.531200	0.442120
C1261	C126	0.538720	0.664780	0.515380
C1271	C127	0.517330	0.720000	0.471140
C1281	C128	0.453950	0.747260	0.501440
C1291	C129	0.316940	0.314820	0.631700
C1301	C130	0.228060	0.315020	0.667860
C1311	C131	0.374980	0.367820	0.628420
C1321	C132	0.228510	0.314300	0.602680
C1331	C133	0.420660	0.264320	0.628360
C1341	C134	0.400050	0.115380	0.638920
C1351	C135	0.277180	0.123680	0.665760
C1361	C136	0.503230	0.063320	0.648220
C1371	C137	0.364210	0.107480	0.602900
C1381	C138	0.466320	0.165020	0.639740
C1391	C139	0.274350	0.304040	0.728260
C1401	C140	0.150460	0.304400	0.742080
C1411	C141	0.119210	0.292660	0.778120
C1421	C142	0.214140	0.283280	0.799440
C1431	C143	0.342400	0.281760	0.786040
C1441	C144	0.370230	0.292320	0.750220
C1451	C145	0.178310	0.267540	0.838640
C1461	C146	0.293830	0.468140	0.623600
C1471	C147	0.189940	0.512020	0.619900
C1481	C148	0.203660	0.564900	0.612580
C1491	C149	0.325380	0.576380	0.610460
C1501	C150	0.431400	0.533180	0.615020
C1511	C151	0.411330	0.478960	0.621780
C1521	C152	0.347140	0.635760	0.601960
C1531	C153	0.257430	0.321840	0.538700
C1541	C154	0.338790	0.331260	0.508960
C1551	C155	0.296400	0.331660	0.475540
C1561	C156	0.176460	0.324340	0.472940
C1571	C157	0.095300	0.314560	0.502640
C1581	C158	0.133330	0.313260	0.536280
C1591	C159	0.133580	0.322960	0.437280
C1601	C160	0.199010	0.136600	0.725780
C1611	C161	0.074530	0.139920	0.721420
C1621	C162	0.976180	0.145340	0.748900
C1631	C163	0.002530	0.152400	0.782940
C1641	C164	0.130390	0.149020	0.787400
C1651	C165	0.227300	0.140700	0.758900
C1661	C166	0.895580	0.161220	0.812620
C1671	C167	0.535170	0.963660	0.649000
C1681	C168	0.477470	0.917620	0.647640
C1691	C169	0.552820	0.865140	0.646220
C1701	C170	0.684390	0.855300	0.645920
C1711	C171	0.740470	0.899940	0.648920
C1721	C172	0.662180	0.956960	0.650880
C1731	C173	0.773220	0.797620	0.641140
C1741	C174	0.473040	0.118180	0.544340
C1751	C175	0.594230	0.103820	0.523320
C1761	C176	0.605780	0.127320	0.488720
C1771	C177	0.504350	0.164900	0.477200
C1781	C178	0.388180	0.175260	0.498180
C1791	C179	0.374320	0.151980	0.532780
C1801	C180	0.527770	0.194520	0.441140
C1811	C181	0.664930	0.049300	0.898440
C1821	C182	0.746480	0.036640	0.844000
C1831	C183	0.730460	0.986900	0.854780
C1841	C184	0.621040	0.953880	0.913040
C1851	C185	0.652960	0.899820	0.902860
C1861	C186	0.604960	0.858400	0.925680
C1871	C187	0.528510	0.874520	0.957060
C1881	C188	0.496500	0.928600	0.966600
C1891	C189	0.546440	0.968800	0.942120
C1901	C190	0.453500	0.835220	0.015380
C1911	C191	0.487330	0.780000	0.971140
C1921	C192	0.451210	0.752740	0.001440
C1931	C193	0.263460	0.685180	0.368300
C1941	C194	0.210940	0.684980	0.332140
C1951	C195	0.371220	0.632180	0.371580
C1961	C196	0.145490	0.685700	0.397320
C1971	C197	0.313340	0.735680	0.371640
C1981	C198	0.154350	0.884620	0.361080
C1991	C199	0.066620	0.876320	0.334240
C2001	C200	0.214770	0.936680	0.351780
C2011	C201	0.074590	0.892520	0.397100
C2021	C202	0.271080	0.834980	0.360260
C2031	C203	0.306650	0.695960	0.271740
C2041	C204	0.196940	0.695600	0.257920
C2051	C205	0.189990	0.707340	0.221880
C2061	C206	0.296860	0.716720	0.200560
C2071	C207	0.410200	0.718240	0.213960
C2081	C208	0.412770	0.707680	0.249780
C2091	C209	0.284490	0.732460	0.161360
C2101	C210	0.385570	0.531860	0.376400
C2111	C211	0.321860	0.487980	0.380100
C2121	C212	0.381140	0.435100	0.387420
C2131	C213	0.512220	0.423620	0.389540
C2141	C214	0.579600	0.466820	0.384980
C2151	C215	0.512070	0.521040	0.378220
C2161	C216	0.584860	0.364240	0.398040
C2171	C217	0.117970	0.678160	0.461300
C2181	C218	0.179010	0.668740	0.491040
C2191	C219	0.103600	0.668340	0.524460
C2201	C220	0.973740	0.675660	0.527060
C2211	C221	0.912500	0.685440	0.497360
C2221	C222	0.982870	0.686740	0.463720
C2231	C223	0.893820	0.677040	0.562720
C2241	C224	0.061390	0.863400	0.274220
C2251	C225	0.935870	0.860080	0.278580
C2261	C226	0.870420	0.854660	0.251100
C2271	C227	0.937870	0.847600	0.217060
C2281	C228	0.066810	0.850980	0.212600
C2291	C229	0.126900	0.859300	0.241100
C2301	C230	0.869420	0.838780	0.187380
C2311	C231	0.147830	0.036340	0.351000
C2321	C232	0.042730	0.082380	0.352360
C2331	C233	0.064180	0.134860	0.353780
C2341	C234	0.185610	0.144700	0.354080
C2351	C235	0.289330	0.100060	0.351080
C2361	C236	0.270020	0.043040	0.349120
C2371	C237	0.211980	0.202380	0.358860
C2381	C238	0.135560	0.881820	0.455660
C2391	C239	0.221370	0.896180	0.476680
C2401	C240	0.221820	0.872680	0.511280
C2411	C241	0.146450	0.835100	0.522800
C2421	C242	0.061620	0.824740	0.501820
C2431	C243	0.059080	0.848020	0.467220
C2441	C244	0.163430	0.805480	0.558860
C2451	C245	0.612670	0.950700	0.101560
C2461	C246	0.627120	0.963360	0.156000
C2471	C247	0.572140	0.013100	0.145220
C2481	C248	0.487960	0.046120	0.086960
C2491	C249	0.455640	0.100180	0.097140
C2501	C250	0.389040	0.141600	0.074320
C2511	C251	0.360090	0.125480	0.042940
C2521	C252	0.391700	0.071400	0.033400
C2531	C253	0.457360	0.031200	0.057880
C2541	C254	0.304100	0.164780	0.984620
C2551	C255	0.238470	0.220000	0.028860
C2561	C256	0.205390	0.247260	0.998560
N11	N1	0.830020	0.578140	0.629020
N21	N2	0.808280	0.495120	0.610120
N31	N3	0.699460	0.289080	0.471800
N41	N4	0.717790	0.334220	0.519000
N51	N5	0.037180	0.421860	0.370980
N61	N6	0.913520	0.504880	0.389880
N71	N7	0.460340	0.710920	0.528200
N81	N8	0.571010	0.665780	0.481000
N91	N9	0.709040	0.078140	0.870980
N101	N10	0.668400	0.995120	0.889880
N111	N11	0.421260	0.789080	0.028200
N121	N12	0.486790	0.834220	0.981000
N131	N13	0.658160	0.921860	0.129020
N141	N14	0.553400	0.004880	0.110120
N151	N15	0.238540	0.210920	0.971800
N161	N16	0.302010	0.165780	0.019000
O11	O1	0.252110	0.715460	0.868320
O21	O2	0.259980	0.814160	0.806480
O31	O3	0.145060	0.916600	0.870080
O41	O4	0.129690	0.820280	0.930140
O51	O5	0.253180	0.629760	0.800680
O61	O6	0.346230	0.515240	0.850900
O71	O7	0.304670	0.595460	0.922200
O81	O8	0.161400	0.768460	0.651540
O91	O9	0.378180	0.756220	0.642220
O101	O10	0.098850	0.175480	0.902420
O111	O11	0.307430	0.143220	0.900920
O121	O12	0.701110	0.829280	0.066500
O131	O13	0.878380	0.819060	0.090980
O141	O14	0.842810	0.659200	0.690780
O151	O15	0.014990	0.670500	0.656720
O161	O16	0.603110	0.256720	0.860860
O171	O17	0.779510	0.292700	0.859880
O181	O18	0.104270	0.716540	0.071120
O191	O19	0.320970	0.694400	0.070060
O201	O20	0.835890	0.284540	0.131680
O211	O21	0.880620	0.185840	0.193520
O221	O22	0.931740	0.083400	0.129920
O231	O23	0.880110	0.179720	0.069860
O241	O24	0.683620	0.370240	0.199320
O251	O25	0.712370	0.484760	0.149100
O261	O26	0.822330	0.404540	0.077800
O271	O27	0.581400	0.231540	0.348460
O281	O28	0.776620	0.243780	0.357780
O291	O29	0.176750	0.824520	0.097580
O301	O30	0.351570	0.856780	0.099080
O311	O31	0.596890	0.170720	0.933500
O321	O32	0.788420	0.180940	0.909020
O331	O33	0.192790	0.340800	0.309220
O341	O34	0.342210	0.329500	0.343280
O351	O35	0.720690	0.743280	0.139140
O361	O36	0.932090	0.707300	0.140120
O371	O37	0.891930	0.283460	0.928880
O381	O38	0.085430	0.305600	0.929940
O391	O39	0.370430	0.215460	0.631680
O401	O40	0.316460	0.314160	0.693520
O411	O41	0.265140	0.416600	0.629920
O421	O42	0.309830	0.320280	0.569860
O431	O43	0.303860	0.129760	0.699320
O441	O44	0.447130	0.015240	0.649100
O451	O45	0.476870	0.095460	0.577800
O461	O46	0.062940	0.268460	0.848460
O471	O47	0.270400	0.256220	0.857780
O481	O48	0.251270	0.675480	0.597580
O491	O49	0.458350	0.643220	0.599080
O501	O50	0.017610	0.329280	0.433500
O511	O51	0.219360	0.319060	0.409020
O521	O52	0.783590	0.159200	0.809220
O531	O53	0.921710	0.170500	0.843280
O541	O54	0.713970	0.756720	0.639140
O551	O55	0.889390	0.792700	0.640120
O561	O56	0.425390	0.216540	0.428880
O571	O57	0.641030	0.194400	0.429940
O581	O58	0.217570	0.784540	0.368320
O591	O59	0.324140	0.685840	0.306480
O601	O60	0.311660	0.583400	0.370080
O611	O61	0.199970	0.679720	0.430140
O621	O62	0.132940	0.870240	0.300680
O631	O63	0.111470	0.984760	0.350900
O641	O64	0.150130	0.904540	0.422200
O651	O65	0.179860	0.731540	0.151540
O661	O66	0.384400	0.743780	0.142220
O671	O67	0.524330	0.324520	0.402420
O681	O68	0.700650	0.356780	0.400920
O691	O69	0.780390	0.670720	0.566500
O701	O70	0.947440	0.680940	0.590980
O711	O71	0.752010	0.840800	0.190780
O721	O72	0.935490	0.829500	0.156720
O731	O73	0.109830	0.243280	0.360860
O741	O74	0.322210	0.207300	0.359880
O751	O75	0.070810	0.783460	0.571120
O761	O76	0.265370	0.805600	0.570060
