data_AHINIP_clean_PM
_symmetry_space_group_name_H-M	'P1'
_cell_length_a	10.592000
_cell_length_b	13.120000
_cell_length_c	22.306000
_cell_angle_alpha	90.000000
_cell_angle_beta	90.000000
_cell_angle_gamma	100.813000
_symmetry_Int_Tables_number 1

loop_
_symmetry_equiv_pos_as_xyz
'x,y,z'

loop_
_atom_site_label
_atom_site_type_symbol
_atom_site_fract_x
_atom_site_fract_y
_atom_site_fract_z
Zn11	Zn1	0.777250	0.484480	0.138410
Zn21	Zn2	0.304660	0.987700	0.070780
Zn31	Zn3	0.222750	0.515520	0.638410
Zn41	Zn4	0.695340	0.012300	0.570780
H11	H1	0.476000	0.705800	0.240800
H21	H2	0.358300	0.491500	0.363000
H31	H3	0.208100	0.520600	0.430500
H41	H4	0.080100	0.618500	0.473700
H51	H5	0.977200	0.772200	0.472300
H61	H6	0.101100	0.992400	0.349300
H71	H7	0.615600	0.623200	0.208000
H81	H8	0.465800	0.378100	0.311800
H91	H9	0.632500	0.332000	0.250500
H101	H10	0.880400	0.894000	0.514300
H111	H11	0.921400	0.059800	0.371100
H121	H12	0.767500	0.123400	0.438000
H131	H13	0.478700	0.160700	0.937800
H141	H14	0.397200	0.434900	0.976400
H151	H15	0.240000	0.509600	0.912000
H161	H16	0.094600	0.484300	0.836100
H171	H17	0.991600	0.381700	0.749700
H181	H18	0.069800	0.103300	0.720300
H191	H19	0.596700	0.468400	0.024600
H201	H20	0.542500	0.159600	0.040000
H211	H21	0.688000	0.238700	0.120100
H221	H22	0.866100	0.065800	0.684700
H231	H23	0.937700	0.360100	0.638300
H241	H24	0.784300	0.271300	0.568400
H251	H25	0.293700	0.259700	0.205200
H261	H26	0.296300	0.329400	0.091200
H271	H27	0.380400	0.376000	0.146600
H281	H28	0.242300	0.481300	0.164300
H291	H29	0.155600	0.431600	0.110700
H301	H30	0.056400	0.373300	0.278300
H311	H31	0.172500	0.459600	0.258900
H321	H32	0.192300	0.345200	0.268100
H331	H33	0.999500	0.112200	0.209300
H341	H34	0.002800	0.203500	0.254900
H351	H35	0.122200	0.149500	0.248600
H361	H36	0.943300	0.209600	0.131600
H371	H37	0.041600	0.136700	0.118800
H381	H38	0.063300	0.248300	0.090900
H391	H39	0.854700	0.816600	0.090000
H401	H40	0.832300	0.763000	0.972200
H411	H41	0.913100	0.865200	0.000300
H421	H42	0.757600	0.943400	0.958000
H431	H43	0.656500	0.838700	0.956100
H441	H44	0.711800	0.063100	0.058500
H451	H45	0.823500	0.014800	0.031000
H461	H46	0.782600	0.992400	0.098000
H471	H47	0.682600	0.908700	0.155500
H481	H48	0.686400	0.792400	0.169900
H491	H49	0.554800	0.826100	0.156600
H501	H50	0.574200	0.664300	0.065300
H511	H51	0.509900	0.740300	0.026600
H521	H52	0.484400	0.731400	0.095800
H531	H53	0.524000	0.294200	0.740800
H541	H54	0.641700	0.508500	0.863000
H551	H55	0.791900	0.479400	0.930500
H561	H56	0.919900	0.381500	0.973700
H571	H57	0.022800	0.227800	0.972300
H581	H58	0.898900	0.007600	0.849300
H591	H59	0.384400	0.376800	0.708000
H601	H60	0.534200	0.621900	0.811800
H611	H61	0.367500	0.668000	0.750500
H621	H62	0.119600	0.106000	0.014300
H631	H63	0.078600	0.940200	0.871100
H641	H64	0.232500	0.876600	0.938000
H651	H65	0.521300	0.839300	0.437800
H661	H66	0.602800	0.565100	0.476400
H671	H67	0.760000	0.490400	0.412000
H681	H68	0.905400	0.515700	0.336100
H691	H69	0.008400	0.618300	0.249700
H701	H70	0.930200	0.896700	0.220300
H711	H71	0.403300	0.531600	0.524600
H721	H72	0.457500	0.840400	0.540000
H731	H73	0.312000	0.761300	0.620100
H741	H74	0.133900	0.934200	0.184700
H751	H75	0.062300	0.639900	0.138300
H761	H76	0.215700	0.728700	0.068400
H771	H77	0.706300	0.740300	0.705200
H781	H78	0.703700	0.670600	0.591200
H791	H79	0.619600	0.624000	0.646600
H801	H80	0.757700	0.518700	0.664300
H811	H81	0.844400	0.568400	0.610700
H821	H82	0.943600	0.626700	0.778300
H831	H83	0.827500	0.540400	0.758900
H841	H84	0.807700	0.654800	0.768100
H851	H85	0.000500	0.887800	0.709300
H861	H86	0.997200	0.796500	0.754900
H871	H87	0.877800	0.850500	0.748600
H881	H88	0.056700	0.790400	0.631600
H891	H89	0.958400	0.863300	0.618800
H901	H90	0.936700	0.751700	0.590900
H911	H91	0.145300	0.183400	0.590000
H921	H92	0.167700	0.237000	0.472200
H931	H93	0.086900	0.134800	0.500300
H941	H94	0.242400	0.056600	0.458000
H951	H95	0.343500	0.161300	0.456100
H961	H96	0.288200	0.936900	0.558500
H971	H97	0.176500	0.985200	0.531000
H981	H98	0.217400	0.007600	0.598000
H991	H99	0.317400	0.091300	0.655500
H1001	H100	0.313600	0.207600	0.669900
H1011	H101	0.445200	0.173900	0.656600
H1021	H102	0.425800	0.335700	0.565300
H1031	H103	0.490100	0.259700	0.526600
H1041	H104	0.515600	0.268600	0.595800
C11	C1	0.425300	0.684500	0.274200
C21	C2	0.432900	0.589200	0.298800
C31	C3	0.356600	0.556200	0.346300
C41	C4	0.279100	0.615200	0.369600
C51	C5	0.206400	0.585500	0.414200
C61	C6	0.126000	0.643600	0.439600
C71	C7	0.110000	0.741500	0.415500
C81	C8	0.028100	0.796300	0.439400
C91	C9	0.022700	0.891200	0.412700
C101	C10	0.105300	0.928200	0.366100
C111	C11	0.189600	0.773300	0.370300
C121	C12	0.274200	0.707900	0.344700
C131	C13	0.601300	0.558000	0.225900
C141	C14	0.517100	0.421000	0.284700
C151	C15	0.607600	0.396300	0.249700
C161	C16	0.870800	0.944600	0.486400
C171	C17	0.895900	0.032800	0.408700
C181	C18	0.808600	0.068100	0.445600
C191	C19	0.431900	0.212100	0.929000
C201	C20	0.445200	0.301400	0.964400
C211	C21	0.383800	0.376100	0.952200
C221	C22	0.299500	0.370600	0.904700
C231	C23	0.228200	0.448200	0.890100
C241	C24	0.142500	0.433300	0.844100
C251	C25	0.123700	0.344000	0.808500
C261	C26	0.036000	0.329500	0.760100
C271	C27	0.016900	0.239600	0.729100
C281	C28	0.084400	0.163800	0.743000
C291	C29	0.186800	0.267100	0.820700
C301	C30	0.280900	0.278300	0.870900
C311	C31	0.604200	0.402100	0.037000
C321	C32	0.572200	0.230200	0.045900
C331	C33	0.653500	0.273900	0.089800
C341	C34	0.865300	0.127100	0.664000
C351	C35	0.904500	0.289300	0.638900
C361	C36	0.820600	0.240800	0.600100
C371	C37	0.964300	0.390300	0.180600
C381	C38	0.101000	0.364700	0.190100
C391	C39	0.107600	0.248900	0.178800
C401	C40	0.249100	0.253300	0.166500
C411	C41	0.294500	0.344200	0.133700
C421	C42	0.197300	0.416300	0.147400
C431	C43	0.133500	0.388000	0.254600
C441	C44	0.053000	0.171400	0.227400
C451	C45	0.032300	0.207200	0.125300
C461	C46	0.532100	0.939200	0.034400
C471	C47	0.659600	0.912400	0.039700
C481	C48	0.661600	0.815600	0.075800
C491	C49	0.790500	0.779500	0.062200
C501	C50	0.829500	0.819900	0.999700
C511	C51	0.720800	0.881900	0.980700
C521	C52	0.752300	0.003500	0.058400
C531	C53	0.644600	0.838000	0.146700
C541	C54	0.547100	0.730100	0.064900
C551	C55	0.786000	0.667900	0.071900
C561	C56	0.278500	0.152700	0.134500
C571	C57	0.574700	0.315500	0.774200
C581	C58	0.567100	0.410800	0.798800
C591	C59	0.643400	0.443800	0.846300
C601	C60	0.720900	0.384800	0.869600
C611	C61	0.793600	0.414500	0.914200
C621	C62	0.874000	0.356400	0.939600
C631	C63	0.890000	0.258500	0.915500
C641	C64	0.971900	0.203700	0.939400
C651	C65	0.977300	0.108800	0.912700
C661	C66	0.894700	0.071800	0.866100
C671	C67	0.810400	0.226700	0.870300
C681	C68	0.725800	0.292100	0.844700
C691	C69	0.398700	0.442000	0.725900
C701	C70	0.482900	0.579000	0.784700
C711	C71	0.392400	0.603700	0.749700
C721	C72	0.129200	0.055400	0.986400
C731	C73	0.104100	0.967200	0.908700
C741	C74	0.191400	0.931900	0.945600
C751	C75	0.568100	0.787900	0.429000
C761	C76	0.554800	0.698600	0.464400
C771	C77	0.616200	0.623900	0.452200
C781	C78	0.700500	0.629400	0.404700
C791	C79	0.771800	0.551800	0.390100
C801	C80	0.857500	0.566700	0.344100
C811	C81	0.876300	0.656000	0.308500
C821	C82	0.964000	0.670500	0.260100
C831	C83	0.983100	0.760400	0.229100
C841	C84	0.915600	0.836200	0.243000
C851	C85	0.813200	0.732900	0.320700
C861	C86	0.719100	0.721700	0.370900
C871	C87	0.395800	0.597900	0.537000
C881	C88	0.427800	0.769800	0.545900
C891	C89	0.346500	0.726100	0.589800
C901	C90	0.134700	0.872900	0.164000
C911	C91	0.095500	0.710700	0.138900
C921	C92	0.179400	0.759200	0.100100
C931	C93	0.035700	0.609700	0.680600
C941	C94	0.899000	0.635300	0.690100
C951	C95	0.892400	0.751100	0.678800
C961	C96	0.750900	0.746700	0.666500
C971	C97	0.705500	0.655800	0.633700
C981	C98	0.802700	0.583700	0.647400
C991	C99	0.866500	0.612000	0.754600
C1001	C100	0.947000	0.828600	0.727400
C1011	C101	0.967700	0.792800	0.625300
C1021	C102	0.467900	0.060800	0.534400
C1031	C103	0.340400	0.087600	0.539700
C1041	C104	0.338400	0.184400	0.575800
C1051	C105	0.209500	0.220500	0.562200
C1061	C106	0.170500	0.180100	0.499700
C1071	C107	0.279200	0.118100	0.480700
C1081	C108	0.247700	0.996500	0.558400
C1091	C109	0.355400	0.162000	0.646700
C1101	C110	0.452900	0.269900	0.564900
C1111	C111	0.214000	0.332100	0.571900
C1121	C112	0.721500	0.847300	0.634500
N11	N1	0.350500	0.748400	0.294800
N21	N2	0.193800	0.872600	0.343800
N31	N3	0.514400	0.523900	0.272400
N41	N4	0.661500	0.476500	0.211800
N51	N5	0.938200	0.954300	0.435000
N61	N6	0.794100	0.005800	0.495700
N71	N7	0.347000	0.201100	0.880100
N81	N8	0.173000	0.172000	0.788800
N91	N9	0.542200	0.309100	0.011800
N101	N10	0.675300	0.379300	0.081400
N111	N11	0.936100	0.220700	0.680400
N121	N12	0.795100	0.132700	0.615400
N131	N13	0.649500	0.251600	0.794800
N141	N14	0.806200	0.127400	0.843800
N151	N15	0.485600	0.476100	0.772400
N161	N16	0.338500	0.523500	0.711800
N171	N17	0.061800	0.045700	0.935000
N181	N18	0.205900	0.994200	0.995700
N191	N19	0.653000	0.798900	0.380100
N201	N20	0.827000	0.828000	0.288800
N211	N21	0.457800	0.690900	0.511800
N221	N22	0.324700	0.620700	0.581400
N231	N23	0.063900	0.779300	0.180400
N241	N24	0.204900	0.867300	0.115400
O11	O1	0.952300	0.466700	0.152200
O21	O2	0.868800	0.331300	0.206900
O31	O3	0.279500	0.133200	0.090100
O41	O4	0.292400	0.090600	0.184100
O51	O5	0.483500	0.978300	0.071700
O61	O6	0.462700	0.905200	0.992600
O71	O7	0.784300	0.609100	0.029800
O81	O8	0.780900	0.630700	0.122700
O91	O9	0.047700	0.533300	0.652200
O101	O10	0.131200	0.668700	0.706900
O111	O11	0.720500	0.866800	0.590100
O121	O12	0.707600	0.909400	0.684100
O131	O13	0.516500	0.021700	0.571700
O141	O14	0.537300	0.094800	0.492600
O151	O15	0.215700	0.390900	0.529800
O161	O16	0.219100	0.369300	0.622700
