data_AHOBEG_clean_PM
_symmetry_space_group_name_H-M	'P1'
_cell_length_a	10.553000
_cell_length_b	12.789000
_cell_length_c	14.443000
_cell_angle_alpha	112.206000
_cell_angle_beta	90.401000
_cell_angle_gamma	94.839000
_symmetry_Int_Tables_number 1

loop_
_symmetry_equiv_pos_as_xyz
'x,y,z'

loop_
_atom_site_label
_atom_site_type_symbol
_atom_site_fract_x
_atom_site_fract_y
_atom_site_fract_z
Co11	Co1	0.263730	0.423540	0.229620
Co21	Co2	0.817870	0.271140	0.678330
O11	O1	0.298900	0.398700	0.358200
O21	O2	0.360700	0.567600	0.476210
O31	O3	0.232700	0.059400	0.439300
O41	O4	0.268600	0.077900	0.594400
O51	O5	0.544100	0.594400	0.812900
O61	O6	0.494000	0.419100	0.807900
O71	O7	0.245100	0.701200	0.172030
O81	O8	0.124800	0.810200	0.126200
O91	O9	0.966600	0.389600	0.753330
O101	O10	0.930900	0.557700	0.747310
O111	O11	0.312900	0.606300	0.311750
H11	H1	0.337000	0.602000	0.366000
H21	H2	0.376000	0.612000	0.278000
N11	N1	0.222000	0.247600	0.155600
N21	N2	0.179300	0.084200	0.028100
N31	N3	0.101000	0.790800	0.624500
N41	N4	0.121400	0.731500	0.461100
C11	C1	0.320400	0.464600	0.447800
C21	C2	0.294400	0.412500	0.524100
C31	C3	0.280500	0.295800	0.494500
H31	H3	0.289000	0.250300	0.427600
C41	C4	0.254400	0.245700	0.562800
C51	C5	0.236900	0.314400	0.662400
H41	H4	0.217700	0.281400	0.708600
C61	C6	0.248100	0.431800	0.692900
C71	C7	0.278200	0.480600	0.623700
H51	H5	0.287600	0.559200	0.644100
C81	C8	0.248700	0.117400	0.530100
C91	C9	0.233600	0.508600	0.800100
C101	C10	0.341700	0.553100	0.865500
C111	C11	0.329700	0.624800	0.964700
H61	H6	0.401100	0.650000	0.008200
C121	C12	0.212100	0.658400	0.998700
C131	C13	0.105500	0.621000	0.933600
H71	H7	0.027400	0.647800	0.955100
C141	C14	0.115700	0.543200	0.835700
C151	C15	0.470200	0.519300	0.826200
C161	C16	0.193900	0.730700	0.107800
C171	C17	0.994300	0.493200	0.773000
C181	C18	0.204000	0.197800	0.057700
H81	H8	0.207900	0.236200	0.014300
C191	C19	0.207000	0.162200	0.190800
H91	H9	0.213700	0.171800	0.257800
C201	C20	0.180800	0.060800	0.112900
H101	H10	0.166800	0.989800	0.116800
C211	C21	0.157500	0.007500	0.926200
C221	C22	0.155100	0.050100	0.852000
H111	H11	0.168300	0.128000	0.868900
C231	C23	0.133200	0.979000	0.752700
H121	H12	0.128800	0.008800	0.703300
C241	C24	0.118100	0.863200	0.727800
C251	C25	0.118900	0.820000	0.801600
H131	H13	0.105900	0.742000	0.784600
C261	C26	0.139000	0.891900	0.901500
H141	H14	0.140100	0.862300	0.951200
C271	C27	0.145300	0.817000	0.547200
H151	H15	0.187100	0.886700	0.554200
C281	C28	0.044900	0.680900	0.583900
H161	H16	0.005900	0.639200	0.618200
C291	C29	0.058000	0.646400	0.484300
H171	H17	0.028500	0.575200	0.437800
Co31	Co3	0.736270	0.576460	0.770380
Co41	Co4	0.182130	0.728860	0.321670
O121	O12	0.701100	0.601300	0.641800
O131	O13	0.639300	0.432400	0.523790
O141	O14	0.767300	0.940600	0.560700
O151	O15	0.731400	0.922100	0.405600
O161	O16	0.455900	0.405600	0.187100
O171	O17	0.506000	0.580900	0.192100
O181	O18	0.754900	0.298800	0.827970
O191	O19	0.875200	0.189800	0.873800
O201	O20	0.033400	0.610400	0.246670
O211	O21	0.069100	0.442300	0.252690
O221	O22	0.687100	0.393700	0.688250
H181	H18	0.663000	0.398000	0.634000
H191	H19	0.624000	0.388000	0.722000
N51	N5	0.778000	0.752400	0.844400
N61	N6	0.820700	0.915800	0.971900
N71	N7	0.899000	0.209200	0.375500
N81	N8	0.878600	0.268500	0.538900
C301	C30	0.679600	0.535400	0.552200
C311	C31	0.705600	0.587500	0.475900
C321	C32	0.719500	0.704200	0.505500
H201	H20	0.711000	0.749700	0.572400
C331	C33	0.745600	0.754300	0.437200
C341	C34	0.763100	0.685600	0.337600
H211	H21	0.782300	0.718600	0.291400
C351	C35	0.751900	0.568200	0.307100
C361	C36	0.721800	0.519400	0.376300
H221	H22	0.712400	0.440800	0.355900
C371	C37	0.751300	0.882600	0.469900
C381	C38	0.766400	0.491400	0.199900
C391	C39	0.658300	0.446900	0.134500
C401	C40	0.670300	0.375200	0.035300
H231	H23	0.598900	0.350000	0.991800
C411	C41	0.787900	0.341600	0.001300
C421	C42	0.894500	0.379000	0.066400
H241	H24	0.972600	0.352200	0.044900
C431	C43	0.884300	0.456800	0.164300
C441	C44	0.529800	0.480700	0.173800
C451	C45	0.806100	0.269300	0.892200
C461	C46	0.005700	0.506800	0.227000
C471	C47	0.796000	0.802200	0.942300
H251	H25	0.792100	0.763800	0.985700
C481	C48	0.793000	0.837800	0.809200
H261	H26	0.786300	0.828200	0.742200
C491	C49	0.819200	0.939200	0.887100
H271	H27	0.833200	0.010200	0.883200
C501	C50	0.842500	0.992500	0.073800
C511	C51	0.844900	0.949900	0.148000
H281	H28	0.831700	0.872000	0.131100
C521	C52	0.866800	0.021000	0.247300
H291	H29	0.871200	0.991200	0.296700
C531	C53	0.881900	0.136800	0.272200
C541	C54	0.881100	0.180000	0.198400
H301	H30	0.894100	0.258000	0.215400
C551	C55	0.861000	0.108100	0.098500
H311	H31	0.859900	0.137700	0.048800
C561	C56	0.854700	0.183000	0.452800
H321	H32	0.812900	0.113300	0.445800
C571	C57	0.955100	0.319100	0.416100
H331	H33	0.994100	0.360800	0.381800
C581	C58	0.942000	0.353600	0.515700
H341	H34	0.971500	0.424800	0.562200
