data_AHOKOX_clean_PM
_symmetry_space_group_name_H-M	'P1'
_cell_length_a	22.377300
_cell_length_b	6.763300
_cell_length_c	4.352900
_cell_angle_alpha	90.000000
_cell_angle_beta	90.000000
_cell_angle_gamma	90.000000
_symmetry_Int_Tables_number 1

loop_
_symmetry_equiv_pos_as_xyz
'x,y,z'

loop_
_atom_site_label
_atom_site_type_symbol
_atom_site_fract_x
_atom_site_fract_y
_atom_site_fract_z
O11	O1	0.059600	0.936300	0.690500
O21	O2	0.440400	0.563700	0.690500
O31	O3	0.940400	0.436300	0.309500
O41	O4	0.559600	0.063700	0.309500
O51	O5	0.940400	0.063700	0.309500
O61	O6	0.559600	0.436300	0.309500
O71	O7	0.059600	0.563700	0.690500
O81	O8	0.440400	0.936300	0.690500
Cu11	Cu1	0.000000	0.500000	0.000000
Cu21	Cu2	0.500000	0.000000	0.000000
Cu31	Cu3	0.000000	0.000000	0.000000
Cu41	Cu4	0.500000	0.500000	0.000000
P11	P1	0.066600	0.750000	0.499900
O91	O9	0.018600	0.750000	0.236800
C11	C1	0.138800	0.750000	0.308000
C21	C2	0.193200	0.750000	0.544000
P21	P2	0.433400	0.750000	0.499900
O101	O10	0.481400	0.750000	0.236800
C31	C3	0.361200	0.750000	0.308000
C41	C4	0.306800	0.750000	0.544000
P31	P3	0.933400	0.250000	0.500100
O111	O11	0.981400	0.250000	0.763200
C51	C5	0.861200	0.250000	0.692000
C61	C6	0.806800	0.250000	0.456000
P41	P4	0.566600	0.250000	0.500100
O121	O12	0.518600	0.250000	0.763200
C71	C7	0.638800	0.250000	0.692000
C81	C8	0.693200	0.250000	0.456000
C91	C9	0.250000	0.750000	0.366000
C101	C10	0.750000	0.250000	0.634000
