data_AJAKON_clean_PM
_symmetry_space_group_name_H-M	'P1'
_cell_length_a	14.414400
_cell_length_b	23.396400
_cell_length_c	15.564100
_cell_angle_alpha	90.000000
_cell_angle_beta	107.632000
_cell_angle_gamma	90.000000
_symmetry_Int_Tables_number 1

loop_
_symmetry_equiv_pos_as_xyz
'x,y,z'

loop_
_atom_site_label
_atom_site_type_symbol
_atom_site_fract_x
_atom_site_fract_y
_atom_site_fract_z
Cd11	Cd1	0.246840	0.444740	0.582520
Cd21	Cd2	0.273710	0.308440	0.692520
O11	O1	0.412900	0.435600	0.600100
O21	O2	0.337500	0.352300	0.591200
C11	C1	0.416100	0.382200	0.604700
C21	C2	0.510300	0.352400	0.625200
C31	C3	0.689200	0.297000	0.672600
C41	C4	0.604000	0.266300	0.636100
H11	H1	0.606600	0.227300	0.625600
C51	C5	0.515100	0.293900	0.615200
H21	H2	0.457900	0.272900	0.594100
C61	C6	0.597100	0.383400	0.657100
H31	H3	0.595200	0.423000	0.662000
C71	C7	0.685500	0.355400	0.681400
H41	H4	0.742800	0.376100	0.703800
O31	O3	0.160000	0.381000	0.632300
N11	N1	0.782300	0.268800	0.698400
C81	C8	0.734500	0.201600	0.796700
H51	H5	0.693200	0.229000	0.808500
C91	C9	0.794000	0.215500	0.741500
O41	O4	0.045100	0.407200	0.509300
O51	O5	0.186800	0.223000	0.709900
O61	O6	0.166600	0.258500	0.576100
C101	C10	0.999400	0.347900	0.612600
C111	C11	0.070200	0.380600	0.580600
C121	C12	0.063000	0.181000	0.589100
C131	C13	0.020700	0.327800	0.700600
H61	H6	0.083100	0.332300	0.740400
C141	C14	0.738300	0.148100	0.832200
H71	H7	0.695200	0.138200	0.863800
C151	C15	0.144100	0.222900	0.628700
N21	N2	0.853600	0.055800	0.464800
C161	C16	0.817200	0.017500	0.519300
C171	C17	0.840300	0.006600	0.200100
C181	C18	0.767900	0.010800	0.321500
H81	H8	0.716000	0.002900	0.343400
C191	C19	0.949600	0.300900	0.729300
H91	H9	0.964000	0.287700	0.788200
C201	C20	0.918700	0.037100	0.253700
H101	H10	0.968800	0.047300	0.230700
C211	C21	0.056900	0.130900	0.632900
H111	H11	0.100300	0.124100	0.689800
C221	C22	0.986300	0.089800	0.593300
H121	H12	0.983500	0.055900	0.623500
C231	C23	0.773800	0.039800	0.579900
H131	H13	0.767300	0.079100	0.584600
C241	C24	0.862000	0.176300	0.731700
H141	H14	0.902400	0.185200	0.697000
C251	C25	0.827000	0.959000	0.511100
H151	H15	0.856300	0.944300	0.470200
C261	C26	0.849500	0.040300	0.374900
C271	C27	0.921000	0.099600	0.509700
C281	C28	0.924200	0.052800	0.340200
H161	H16	0.979000	0.072100	0.375600
C291	C29	0.869600	0.123400	0.774400
H171	H17	0.918000	0.098000	0.771100
C301	C30	0.836700	0.312700	0.579900
H181	H18	0.775400	0.306700	0.538900
C311	C31	0.747900	0.944900	0.628100
C321	C32	0.995000	0.191400	0.505600
H191	H19	0.998100	0.225300	0.475500
C331	C33	0.857200	0.293800	0.669700
C341	C34	0.765200	0.993600	0.235900
H201	H20	0.712000	0.972800	0.201300
C351	C35	0.739700	0.002500	0.634300
H211	H21	0.710800	0.017600	0.675300
C361	C36	0.792300	0.922600	0.565500
H221	H22	0.798400	0.883200	0.560600
C371	C37	0.906500	0.339500	0.554000
H231	H23	0.891900	0.352600	0.495000
C381	C38	0.921600	0.151400	0.466300
H241	H24	0.874200	0.159500	0.412100
C391	C39	0.805300	0.108000	0.822100
C401	C40	0.835600	0.990300	0.107800
O71	O7	0.675300	0.926100	0.742800
C411	C41	0.716900	0.906000	0.689300
O81	O8	0.775500	0.952000	0.066600
O91	O9	0.894000	0.016500	0.073100
C421	C42	0.806800	0.049600	0.860500
O101	O10	0.731300	0.852500	0.681900
O111	O11	0.877800	0.016700	0.868600
O121	O12	0.731400	0.035100	0.878500
Cd31	Cd3	0.753160	0.944740	0.917480
Cd41	Cd4	0.726290	0.808440	0.807480
O131	O13	0.587100	0.935600	0.899900
O141	O14	0.662500	0.852300	0.908800
C431	C43	0.583900	0.882200	0.895300
C441	C44	0.489700	0.852400	0.874800
C451	C45	0.310800	0.797000	0.827400
C461	C46	0.396000	0.766300	0.863900
H251	H25	0.393400	0.727300	0.874400
C471	C47	0.484900	0.793900	0.884800
H261	H26	0.542100	0.772900	0.905900
C481	C48	0.402900	0.883400	0.842900
H271	H27	0.404800	0.923000	0.838000
C491	C49	0.314500	0.855400	0.818600
H281	H28	0.257200	0.876100	0.796200
O151	O15	0.840000	0.881000	0.867700
N31	N3	0.217700	0.768800	0.801600
C501	C50	0.265500	0.701600	0.703300
H291	H29	0.306800	0.729000	0.691500
C511	C51	0.206000	0.715500	0.758500
O161	O16	0.954900	0.907200	0.990700
O171	O17	0.813200	0.723000	0.790100
O181	O18	0.833400	0.758500	0.923900
C521	C52	0.000600	0.847900	0.887400
C531	C53	0.929800	0.880600	0.919400
C541	C54	0.937000	0.681000	0.910900
C551	C55	0.979300	0.827800	0.799400
H301	H30	0.916900	0.832300	0.759600
C561	C56	0.261700	0.648100	0.667800
H311	H31	0.304800	0.638200	0.636200
C571	C57	0.855900	0.722900	0.871300
N41	N4	0.146400	0.555800	0.035200
C581	C58	0.182800	0.517500	0.980700
C591	C59	0.159700	0.506600	0.299900
C601	C60	0.232100	0.510800	0.178500
H321	H32	0.284000	0.502900	0.156600
C611	C61	0.050400	0.800900	0.770700
H331	H33	0.036000	0.787700	0.711800
C621	C62	0.081300	0.537100	0.246300
H341	H34	0.031200	0.547300	0.269300
C631	C63	0.943100	0.630900	0.867100
H351	H35	0.899700	0.624100	0.810200
C641	C64	0.013700	0.589800	0.906700
H361	H36	0.016500	0.555900	0.876500
C651	C65	0.226200	0.539800	0.920100
H371	H37	0.232700	0.579100	0.915400
C661	C66	0.138000	0.676300	0.768300
H381	H38	0.097600	0.685200	0.803000
C671	C67	0.173000	0.459000	0.988900
H391	H39	0.143700	0.444300	0.029800
C681	C68	0.150500	0.540300	0.125100
C691	C69	0.079000	0.599600	0.990300
C701	C70	0.075800	0.552800	0.159800
H401	H40	0.021000	0.572100	0.124400
C711	C71	0.130400	0.623400	0.725600
H411	H41	0.082000	0.598000	0.728900
C721	C72	0.163300	0.812700	0.920100
H421	H42	0.224600	0.806700	0.961100
C731	C73	0.252100	0.444900	0.871900
C741	C74	0.005000	0.691400	0.994400
H431	H43	0.001900	0.725300	0.024500
C751	C75	0.142800	0.793800	0.830300
C761	C76	0.234800	0.493600	0.264100
H441	H44	0.288000	0.472800	0.298700
C771	C77	0.260300	0.502500	0.865700
H451	H45	0.289200	0.517600	0.824700
C781	C78	0.207700	0.422600	0.934500
H461	H46	0.201600	0.383200	0.939400
C791	C79	0.093500	0.839500	0.946000
H471	H47	0.108100	0.852600	0.005000
C801	C80	0.078400	0.651400	0.033700
H481	H48	0.125800	0.659500	0.087900
C811	C81	0.194700	0.608000	0.677900
C821	C82	0.164400	0.490300	0.392200
O191	O19	0.324700	0.426100	0.757200
C831	C83	0.283100	0.406000	0.810700
O201	O20	0.224500	0.452000	0.433400
O211	O21	0.106000	0.516500	0.426900
C841	C84	0.193200	0.549600	0.639500
O221	O22	0.268700	0.352500	0.818100
O231	O23	0.122200	0.516700	0.631400
O241	O24	0.268600	0.535100	0.621500
Cd51	Cd5	0.753160	0.555260	0.417480
Cd61	Cd6	0.726290	0.691560	0.307480
O251	O25	0.587100	0.564400	0.399900
O261	O26	0.662500	0.647700	0.408800
C851	C85	0.583900	0.617800	0.395300
C861	C86	0.489700	0.647600	0.374800
C871	C87	0.310800	0.703000	0.327400
C881	C88	0.396000	0.733700	0.363900
H491	H49	0.393400	0.772700	0.374400
C891	C89	0.484900	0.706100	0.384800
H501	H50	0.542100	0.727100	0.405900
C901	C90	0.402900	0.616600	0.342900
H511	H51	0.404800	0.577000	0.338000
C911	C91	0.314500	0.644600	0.318600
H521	H52	0.257200	0.623900	0.296200
O271	O27	0.840000	0.619000	0.367700
N51	N5	0.217700	0.731200	0.301600
C921	C92	0.265500	0.798400	0.203300
H531	H53	0.306800	0.771000	0.191500
C931	C93	0.206000	0.784500	0.258500
O281	O28	0.954900	0.592800	0.490700
O291	O29	0.813200	0.777000	0.290100
O301	O30	0.833400	0.741500	0.423900
C941	C94	0.000600	0.652100	0.387400
C951	C95	0.929800	0.619400	0.419400
C961	C96	0.937000	0.819000	0.410900
C971	C97	0.979300	0.672200	0.299400
H541	H54	0.916900	0.667700	0.259600
C981	C98	0.261700	0.851900	0.167800
H551	H55	0.304800	0.861800	0.136200
C991	C99	0.855900	0.777100	0.371300
N61	N6	0.146400	0.944200	0.535200
C1001	C100	0.182800	0.982500	0.480700
C1011	C101	0.159700	0.993400	0.799900
C1021	C102	0.232100	0.989200	0.678500
H561	H56	0.284000	0.997100	0.656600
C1031	C103	0.050400	0.699100	0.270700
H571	H57	0.036000	0.712300	0.211800
C1041	C104	0.081300	0.962900	0.746300
H581	H58	0.031200	0.952700	0.769300
C1051	C105	0.943100	0.869100	0.367100
H591	H59	0.899700	0.875900	0.310200
C1061	C106	0.013700	0.910200	0.406700
H601	H60	0.016500	0.944100	0.376500
C1071	C107	0.226200	0.960200	0.420100
H611	H61	0.232700	0.920900	0.415400
C1081	C108	0.138000	0.823700	0.268300
H621	H62	0.097600	0.814800	0.303000
C1091	C109	0.173000	0.041000	0.488900
H631	H63	0.143700	0.055700	0.529800
C1101	C110	0.150500	0.959700	0.625100
C1111	C111	0.079000	0.900400	0.490300
C1121	C112	0.075800	0.947200	0.659800
H641	H64	0.021000	0.927900	0.624400
C1131	C113	0.130400	0.876600	0.225600
H651	H65	0.082000	0.902000	0.228900
C1141	C114	0.163300	0.687300	0.420100
H661	H66	0.224600	0.693300	0.461100
C1151	C115	0.252100	0.055100	0.371900
C1161	C116	0.005000	0.808600	0.494400
H671	H67	0.001900	0.774700	0.524500
C1171	C117	0.142800	0.706200	0.330300
C1181	C118	0.234800	0.006400	0.764100
H681	H68	0.288000	0.027200	0.798700
C1191	C119	0.260300	0.997500	0.365700
H691	H69	0.289200	0.982400	0.324700
C1201	C120	0.207700	0.077400	0.434500
H701	H70	0.201600	0.116800	0.439400
C1211	C121	0.093500	0.660500	0.446000
H711	H71	0.108100	0.647400	0.505000
C1221	C122	0.078400	0.848600	0.533700
H721	H72	0.125800	0.840500	0.587900
C1231	C123	0.194700	0.892000	0.177900
C1241	C124	0.164400	0.009700	0.892200
O311	O31	0.324700	0.073900	0.257200
C1251	C125	0.283100	0.094000	0.310700
O321	O32	0.224500	0.048000	0.933400
O331	O33	0.106000	0.983500	0.926900
C1261	C126	0.193200	0.950400	0.139500
O341	O34	0.268700	0.147500	0.318100
O351	O35	0.122200	0.983300	0.131400
O361	O36	0.268600	0.964900	0.121500
Cd71	Cd7	0.246840	0.055260	0.082520
Cd81	Cd8	0.273710	0.191560	0.192520
O371	O37	0.412900	0.064400	0.100100
O381	O38	0.337500	0.147700	0.091200
C1271	C127	0.416100	0.117800	0.104700
C1281	C128	0.510300	0.147600	0.125200
C1291	C129	0.689200	0.203000	0.172600
C1301	C130	0.604000	0.233700	0.136100
H731	H73	0.606600	0.272700	0.125600
C1311	C131	0.515100	0.206100	0.115200
H741	H74	0.457900	0.227100	0.094100
C1321	C132	0.597100	0.116600	0.157100
H751	H75	0.595200	0.077000	0.162000
C1331	C133	0.685500	0.144600	0.181400
H761	H76	0.742800	0.123900	0.203800
O391	O39	0.160000	0.119000	0.132300
N71	N7	0.782300	0.231200	0.198400
C1341	C134	0.734500	0.298400	0.296700
H771	H77	0.693200	0.271000	0.308500
C1351	C135	0.794000	0.284500	0.241500
O401	O40	0.045100	0.092800	0.009300
O411	O41	0.186800	0.277000	0.209900
O421	O42	0.166600	0.241500	0.076100
C1361	C136	0.999400	0.152100	0.112600
C1371	C137	0.070200	0.119400	0.080600
C1381	C138	0.063000	0.319000	0.089100
C1391	C139	0.020700	0.172200	0.200600
H781	H78	0.083100	0.167700	0.240400
C1401	C140	0.738300	0.351900	0.332200
H791	H79	0.695200	0.361800	0.363800
C1411	C141	0.144100	0.277100	0.128700
N81	N8	0.853600	0.444200	0.964800
C1421	C142	0.817200	0.482500	0.019300
C1431	C143	0.840300	0.493400	0.700100
C1441	C144	0.767900	0.489200	0.821500
H801	H80	0.716000	0.497100	0.843400
C1451	C145	0.949600	0.199100	0.229300
H811	H81	0.964000	0.212300	0.288200
C1461	C146	0.918700	0.462900	0.753700
H821	H82	0.968800	0.452700	0.730700
C1471	C147	0.056900	0.369100	0.132900
H831	H83	0.100300	0.375900	0.189800
C1481	C148	0.986300	0.410200	0.093300
H841	H84	0.983500	0.444100	0.123500
C1491	C149	0.773800	0.460200	0.079900
H851	H85	0.767300	0.420900	0.084600
C1501	C150	0.862000	0.323700	0.231700
H861	H86	0.902400	0.314800	0.197000
C1511	C151	0.827000	0.541000	0.011100
H871	H87	0.856300	0.555700	0.970200
C1521	C152	0.849500	0.459700	0.874900
C1531	C153	0.921000	0.400400	0.009700
C1541	C154	0.924200	0.447200	0.840200
H881	H88	0.979000	0.427900	0.875600
C1551	C155	0.869600	0.376600	0.274400
H891	H89	0.918000	0.402000	0.271100
C1561	C156	0.836700	0.187300	0.079900
H901	H90	0.775400	0.193300	0.038900
C1571	C157	0.747900	0.555100	0.128100
C1581	C158	0.995000	0.308600	0.005600
H911	H91	0.998100	0.274700	0.975500
C1591	C159	0.857200	0.206200	0.169700
C1601	C160	0.765200	0.506400	0.735900
H921	H92	0.712000	0.527200	0.701300
C1611	C161	0.739700	0.497500	0.134300
H931	H93	0.710800	0.482400	0.175300
C1621	C162	0.792300	0.577400	0.065500
H941	H94	0.798400	0.616800	0.060600
C1631	C163	0.906500	0.160500	0.054000
H951	H95	0.891900	0.147400	0.995000
C1641	C164	0.921600	0.348600	0.966300
H961	H96	0.874200	0.340500	0.912100
C1651	C165	0.805300	0.392000	0.322100
C1661	C166	0.835600	0.509700	0.607800
O431	O43	0.675300	0.573900	0.242800
C1671	C167	0.716900	0.594000	0.189300
O441	O44	0.775500	0.548000	0.566600
O451	O45	0.894000	0.483500	0.573100
C1681	C168	0.806800	0.450400	0.360500
O461	O46	0.731300	0.647500	0.181900
O471	O47	0.877800	0.483300	0.368600
O481	O48	0.731400	0.464900	0.378500
Cd91	Cd9	0.000000	0.500000	0.500000
Cd101	Cd10	0.000000	0.000000	0.000000
