data_AJAMEF_clean_PM
_symmetry_space_group_name_H-M	'P1'
_cell_length_a	10.895000
_cell_length_b	17.520000
_cell_length_c	20.545000
_cell_angle_alpha	90.000000
_cell_angle_beta	99.160000
_cell_angle_gamma	90.000000
_symmetry_Int_Tables_number 1

loop_
_symmetry_equiv_pos_as_xyz
'x,y,z'

loop_
_atom_site_label
_atom_site_type_symbol
_atom_site_fract_x
_atom_site_fract_y
_atom_site_fract_z
O11	O1	0.355800	0.943860	0.503880
N11	N1	0.490300	0.980800	0.869380
C11	C1	0.379700	0.007400	0.840600
H11	H1	0.360000	0.057900	0.848300
C21	C2	0.514300	0.908200	0.856200
H21	H2	0.591300	0.888500	0.874500
Co11	Co1	0.618940	0.960070	0.442890
N21	N2	0.757600	0.910700	0.516510
C31	C3	0.317800	0.888400	0.788400
C41	C4	0.394600	0.885400	0.479700
C51	C5	0.749200	0.841200	0.542900
H31	H3	0.678600	0.812300	0.528300
C61	C6	0.946800	0.852000	0.612700
C71	C7	0.226500	0.838700	0.747030
C81	C8	0.131200	0.869000	0.701160
H41	H4	0.123800	0.921700	0.696100
C91	C9	0.838600	0.810300	0.590200
H51	H5	0.827400	0.762000	0.607200
C101	C10	0.046900	0.821300	0.662870
C111	C11	0.955700	0.923700	0.585000
H61	H6	0.025500	0.953800	0.598200
C121	C12	0.433700	0.860900	0.817600
H71	H7	0.456000	0.810700	0.810900
C131	C13	0.861200	0.950000	0.537900
H81	H8	0.869900	0.998000	0.519900
N31	N3	0.152800	0.712200	0.715700
C141	C14	0.232000	0.759300	0.752200
H91	H9	0.294500	0.737900	0.782900
C151	C15	0.063100	0.743100	0.672700
H101	H10	0.007200	0.710500	0.647500
O21	O2	0.496300	0.880560	0.458470
C161	C16	0.293900	0.964300	0.800600
H111	H11	0.219100	0.986200	0.781400
C171	C17	0.314600	0.814500	0.474200
H121	H12	0.298700	0.800200	0.427500
C181	C18	0.386200	0.748400	0.511500
H131	H13	0.406400	0.761500	0.557900
H141	H14	0.463500	0.740500	0.494700
C191	C19	0.189800	0.825600	0.495800
H151	H15	0.144200	0.865300	0.469300
H161	H16	0.201900	0.841900	0.541500
O31	O3	0.855800	0.443860	0.503880
N41	N4	0.990300	0.480800	0.869380
C201	C20	0.879700	0.507400	0.840600
H171	H17	0.860000	0.557900	0.848300
C211	C21	0.014300	0.408200	0.856200
H181	H18	0.091300	0.388500	0.874500
Co21	Co2	0.118940	0.460070	0.442890
N51	N5	0.257600	0.410700	0.516510
C221	C22	0.817800	0.388400	0.788400
C231	C23	0.894600	0.385400	0.479700
C241	C24	0.249200	0.341200	0.542900
H191	H19	0.178600	0.312300	0.528300
C251	C25	0.446800	0.352000	0.612700
C261	C26	0.726500	0.338700	0.747030
C271	C27	0.631200	0.369000	0.701160
H201	H20	0.623800	0.421700	0.696100
C281	C28	0.338600	0.310300	0.590200
H211	H21	0.327400	0.262000	0.607200
C291	C29	0.546900	0.321300	0.662870
C301	C30	0.455700	0.423700	0.585000
H221	H22	0.525500	0.453800	0.598200
C311	C31	0.933700	0.360900	0.817600
H231	H23	0.956000	0.310700	0.810900
C321	C32	0.361200	0.450000	0.537900
H241	H24	0.369900	0.498000	0.519900
N61	N6	0.652800	0.212200	0.715700
C331	C33	0.732000	0.259300	0.752200
H251	H25	0.794500	0.237900	0.782900
C341	C34	0.563100	0.243100	0.672700
H261	H26	0.507200	0.210500	0.647500
O41	O4	0.996300	0.380560	0.458470
C351	C35	0.793900	0.464300	0.800600
H271	H27	0.719100	0.486200	0.781400
C361	C36	0.814600	0.314500	0.474200
H281	H28	0.798700	0.300200	0.427500
C371	C37	0.886200	0.248400	0.511500
H291	H29	0.906400	0.261500	0.557900
H301	H30	0.963500	0.240500	0.494700
C381	C38	0.689800	0.325600	0.495800
H311	H31	0.644200	0.365300	0.469300
H321	H32	0.701900	0.341900	0.541500
O51	O5	0.644200	0.943860	0.996120
N71	N7	0.509700	0.980800	0.630620
C391	C39	0.620300	0.007400	0.659400
H331	H33	0.640000	0.057900	0.651700
C401	C40	0.485700	0.908200	0.643800
H341	H34	0.408700	0.888500	0.625500
Co31	Co3	0.381060	0.960070	0.057110
N81	N8	0.242400	0.910700	0.983490
C411	C41	0.682200	0.888400	0.711600
C421	C42	0.605400	0.885400	0.020300
C431	C43	0.250800	0.841200	0.957100
H351	H35	0.321400	0.812300	0.971700
C441	C44	0.053200	0.852000	0.887300
C451	C45	0.773500	0.838700	0.752970
C461	C46	0.868800	0.869000	0.798840
H361	H36	0.876200	0.921700	0.803900
C471	C47	0.161400	0.810300	0.909800
H371	H37	0.172600	0.762000	0.892800
C481	C48	0.953100	0.821300	0.837130
C491	C49	0.044300	0.923700	0.915000
H381	H38	0.974500	0.953800	0.901800
C501	C50	0.566300	0.860900	0.682400
H391	H39	0.544000	0.810700	0.689100
C511	C51	0.138800	0.950000	0.962100
H401	H40	0.130100	0.998000	0.980100
N91	N9	0.847200	0.712200	0.784300
C521	C52	0.768000	0.759300	0.747800
H411	H41	0.705500	0.737900	0.717100
C531	C53	0.936900	0.743100	0.827300
H421	H42	0.992800	0.710500	0.852500
O61	O6	0.503700	0.880560	0.041530
C541	C54	0.706100	0.964300	0.699400
H431	H43	0.780900	0.986200	0.718600
C551	C55	0.685400	0.814500	0.025800
H441	H44	0.701300	0.800200	0.072500
C561	C56	0.613800	0.748400	0.988500
H451	H45	0.593600	0.761500	0.942100
H461	H46	0.536500	0.740500	0.005300
C571	C57	0.810200	0.825600	0.004200
H471	H47	0.855800	0.865300	0.030700
H481	H48	0.798100	0.841900	0.958500
O71	O7	0.144200	0.443860	0.996120
N101	N10	0.009700	0.480800	0.630620
C581	C58	0.120300	0.507400	0.659400
H491	H49	0.140000	0.557900	0.651700
C591	C59	0.985700	0.408200	0.643800
H501	H50	0.908700	0.388500	0.625500
Co41	Co4	0.881060	0.460070	0.057110
N111	N11	0.742400	0.410700	0.983490
C601	C60	0.182200	0.388400	0.711600
C611	C61	0.105400	0.385400	0.020300
C621	C62	0.750800	0.341200	0.957100
H511	H51	0.821400	0.312300	0.971700
C631	C63	0.553200	0.352000	0.887300
C641	C64	0.273500	0.338700	0.752970
C651	C65	0.368800	0.369000	0.798840
H521	H52	0.376200	0.421700	0.803900
C661	C66	0.661400	0.310300	0.909800
H531	H53	0.672600	0.262000	0.892800
C671	C67	0.453100	0.321300	0.837130
C681	C68	0.544300	0.423700	0.915000
H541	H54	0.474500	0.453800	0.901800
C691	C69	0.066300	0.360900	0.682400
H551	H55	0.044000	0.310700	0.689100
C701	C70	0.638800	0.450000	0.962100
H561	H56	0.630100	0.498000	0.980100
N121	N12	0.347200	0.212200	0.784300
C711	C71	0.268000	0.259300	0.747800
H571	H57	0.205500	0.237900	0.717100
C721	C72	0.436900	0.243100	0.827300
H581	H58	0.492800	0.210500	0.852500
O81	O8	0.003700	0.380560	0.041530
C731	C73	0.206100	0.464300	0.699400
H591	H59	0.280900	0.486200	0.718600
C741	C74	0.185400	0.314500	0.025800
H601	H60	0.201300	0.300200	0.072500
C751	C75	0.113800	0.248400	0.988500
H611	H61	0.093600	0.261500	0.942100
H621	H62	0.036500	0.240500	0.005300
C761	C76	0.310200	0.325600	0.004200
H631	H63	0.355800	0.365300	0.030700
H641	H64	0.298100	0.341900	0.958500
O91	O9	0.644200	0.056140	0.496120
N131	N13	0.509700	0.019200	0.130620
C771	C77	0.620300	0.992600	0.159400
H651	H65	0.640000	0.942100	0.151700
C781	C78	0.485700	0.091800	0.143800
H661	H66	0.408700	0.111500	0.125500
Co51	Co5	0.381060	0.039930	0.557110
N141	N14	0.242400	0.089300	0.483490
C791	C79	0.682200	0.111600	0.211600
C801	C80	0.605400	0.114600	0.520300
C811	C81	0.250800	0.158800	0.457100
H671	H67	0.321400	0.187700	0.471700
C821	C82	0.053200	0.148000	0.387300
C831	C83	0.773500	0.161300	0.252970
C841	C84	0.868800	0.131000	0.298840
H681	H68	0.876200	0.078300	0.303900
C851	C85	0.161400	0.189700	0.409800
H691	H69	0.172600	0.238000	0.392800
C861	C86	0.953100	0.178700	0.337130
C871	C87	0.044300	0.076300	0.415000
H701	H70	0.974500	0.046200	0.401800
C881	C88	0.566300	0.139100	0.182400
H711	H71	0.544000	0.189300	0.189100
C891	C89	0.138800	0.050000	0.462100
H721	H72	0.130100	0.002000	0.480100
N151	N15	0.847200	0.287800	0.284300
C901	C90	0.768000	0.240700	0.247800
H731	H73	0.705500	0.262100	0.217100
C911	C91	0.936900	0.256900	0.327300
H741	H74	0.992800	0.289500	0.352500
O101	O10	0.503700	0.119440	0.541530
C921	C92	0.706100	0.035700	0.199400
H751	H75	0.780900	0.013800	0.218600
C931	C93	0.685400	0.185500	0.525800
H761	H76	0.701300	0.199800	0.572500
C941	C94	0.613800	0.251600	0.488500
H771	H77	0.593600	0.238500	0.442100
H781	H78	0.536500	0.259500	0.505300
C951	C95	0.810200	0.174400	0.504200
H791	H79	0.855800	0.134700	0.530700
H801	H80	0.798100	0.158100	0.458500
O111	O11	0.144200	0.556140	0.496120
N161	N16	0.009700	0.519200	0.130620
C961	C96	0.120300	0.492600	0.159400
H811	H81	0.140000	0.442100	0.151700
C971	C97	0.985700	0.591800	0.143800
H821	H82	0.908700	0.611500	0.125500
Co61	Co6	0.881060	0.539930	0.557110
N171	N17	0.742400	0.589300	0.483490
C981	C98	0.182200	0.611600	0.211600
C991	C99	0.105400	0.614600	0.520300
C1001	C100	0.750800	0.658800	0.457100
H831	H83	0.821400	0.687700	0.471700
C1011	C101	0.553200	0.648000	0.387300
C1021	C102	0.273500	0.661300	0.252970
C1031	C103	0.368800	0.631000	0.298840
H841	H84	0.376200	0.578300	0.303900
C1041	C104	0.661400	0.689700	0.409800
H851	H85	0.672600	0.738000	0.392800
C1051	C105	0.453100	0.678700	0.337130
C1061	C106	0.544300	0.576300	0.415000
H861	H86	0.474500	0.546200	0.401800
C1071	C107	0.066300	0.639100	0.182400
H871	H87	0.044000	0.689300	0.189100
C1081	C108	0.638800	0.550000	0.462100
H881	H88	0.630100	0.502000	0.480100
N181	N18	0.347200	0.787800	0.284300
C1091	C109	0.268000	0.740700	0.247800
H891	H89	0.205500	0.762100	0.217100
C1101	C110	0.436900	0.756900	0.327300
H901	H90	0.492800	0.789500	0.352500
O121	O12	0.003700	0.619440	0.541530
C1111	C111	0.206100	0.535700	0.199400
H911	H91	0.280900	0.513800	0.218600
C1121	C112	0.185400	0.685500	0.525800
H921	H92	0.201300	0.699800	0.572500
C1131	C113	0.113800	0.751600	0.488500
H931	H93	0.093600	0.738500	0.442100
H941	H94	0.036500	0.759500	0.505300
C1141	C114	0.310200	0.674400	0.504200
H951	H95	0.355800	0.634700	0.530700
H961	H96	0.298100	0.658100	0.458500
O131	O13	0.355800	0.056140	0.003880
N191	N19	0.490300	0.019200	0.369380
C1151	C115	0.379700	0.992600	0.340600
H971	H97	0.360000	0.942100	0.348300
C1161	C116	0.514300	0.091800	0.356200
H981	H98	0.591300	0.111500	0.374500
Co71	Co7	0.618940	0.039930	0.942890
N201	N20	0.757600	0.089300	0.016510
C1171	C117	0.317800	0.111600	0.288400
C1181	C118	0.394600	0.114600	0.979700
C1191	C119	0.749200	0.158800	0.042900
H991	H99	0.678600	0.187700	0.028300
C1201	C120	0.946800	0.148000	0.112700
C1211	C121	0.226500	0.161300	0.247030
C1221	C122	0.131200	0.131000	0.201160
H1001	H100	0.123800	0.078300	0.196100
C1231	C123	0.838600	0.189700	0.090200
H1011	H101	0.827400	0.238000	0.107200
C1241	C124	0.046900	0.178700	0.162870
C1251	C125	0.955700	0.076300	0.085000
H1021	H102	0.025500	0.046200	0.098200
C1261	C126	0.433700	0.139100	0.317600
H1031	H103	0.456000	0.189300	0.310900
C1271	C127	0.861200	0.050000	0.037900
H1041	H104	0.869900	0.002000	0.019900
N211	N21	0.152800	0.287800	0.215700
C1281	C128	0.232000	0.240700	0.252200
H1051	H105	0.294500	0.262100	0.282900
C1291	C129	0.063100	0.256900	0.172700
H1061	H106	0.007200	0.289500	0.147500
O141	O14	0.496300	0.119440	0.958470
C1301	C130	0.293900	0.035700	0.300600
H1071	H107	0.219100	0.013800	0.281400
C1311	C131	0.314600	0.185500	0.974200
H1081	H108	0.298700	0.199800	0.927500
C1321	C132	0.386200	0.251600	0.011500
H1091	H109	0.406400	0.238500	0.057900
H1101	H110	0.463500	0.259500	0.994700
C1331	C133	0.189800	0.174400	0.995800
H1111	H111	0.144200	0.134700	0.969300
H1121	H112	0.201900	0.158100	0.041500
O151	O15	0.855800	0.556140	0.003880
N221	N22	0.990300	0.519200	0.369380
C1341	C134	0.879700	0.492600	0.340600
H1131	H113	0.860000	0.442100	0.348300
C1351	C135	0.014300	0.591800	0.356200
H1141	H114	0.091300	0.611500	0.374500
Co81	Co8	0.118940	0.539930	0.942890
N231	N23	0.257600	0.589300	0.016510
C1361	C136	0.817800	0.611600	0.288400
C1371	C137	0.894600	0.614600	0.979700
C1381	C138	0.249200	0.658800	0.042900
H1151	H115	0.178600	0.687700	0.028300
C1391	C139	0.446800	0.648000	0.112700
C1401	C140	0.726500	0.661300	0.247030
C1411	C141	0.631200	0.631000	0.201160
H1161	H116	0.623800	0.578300	0.196100
C1421	C142	0.338600	0.689700	0.090200
H1171	H117	0.327400	0.738000	0.107200
C1431	C143	0.546900	0.678700	0.162870
C1441	C144	0.455700	0.576300	0.085000
H1181	H118	0.525500	0.546200	0.098200
C1451	C145	0.933700	0.639100	0.317600
H1191	H119	0.956000	0.689300	0.310900
C1461	C146	0.361200	0.550000	0.037900
H1201	H120	0.369900	0.502000	0.019900
N241	N24	0.652800	0.787800	0.215700
C1471	C147	0.732000	0.740700	0.252200
H1211	H121	0.794500	0.762100	0.282900
C1481	C148	0.563100	0.756900	0.172700
H1221	H122	0.507200	0.789500	0.147500
O161	O16	0.996300	0.619440	0.958470
C1491	C149	0.793900	0.535700	0.300600
H1231	H123	0.719100	0.513800	0.281400
C1501	C150	0.814600	0.685500	0.974200
H1241	H124	0.798700	0.699800	0.927500
C1511	C151	0.886200	0.751600	0.011500
H1251	H125	0.906400	0.738500	0.057900
H1261	H126	0.963500	0.759500	0.994700
C1521	C152	0.689800	0.674400	0.995800
H1271	H127	0.644200	0.634700	0.969300
H1281	H128	0.701900	0.658100	0.041500
