data_AJOTEY_clean_PM
_symmetry_space_group_name_H-M	'P1'
_cell_length_a	19.076600
_cell_length_b	9.165700
_cell_length_c	14.180600
_cell_angle_alpha	90.000000
_cell_angle_beta	90.000000
_cell_angle_gamma	90.000000
_symmetry_Int_Tables_number 1

loop_
_symmetry_equiv_pos_as_xyz
'x,y,z'

loop_
_atom_site_label
_atom_site_type_symbol
_atom_site_fract_x
_atom_site_fract_y
_atom_site_fract_z
V11	V1	0.139160	0.230730	0.134490
V21	V2	0.999580	0.716600	0.351350
V31	V3	0.245560	0.753270	0.337420
P11	P1	0.115680	0.925760	0.237660
P21	P2	0.123930	0.063680	0.931630
P31	P3	0.122410	0.529830	0.260830
P41	P4	0.136160	0.458030	0.950720
O11	O1	0.099100	0.088500	0.226100
O21	O2	0.171900	0.902200	0.312200
O31	O3	0.048300	0.844200	0.257000
O41	O4	0.106400	0.100800	0.032200
O51	O5	0.198100	0.103700	0.904900
O61	O6	0.070600	0.122900	0.861500
O71	O7	0.140500	0.372200	0.241800
O81	O8	0.048000	0.543000	0.297500
O91	O9	0.175300	0.594500	0.328900
O101	O10	0.144900	0.399800	0.049700
O111	O11	0.063600	0.430600	0.912200
O121	O12	0.194900	0.414700	0.885600
V41	V4	0.860840	0.769270	0.634490
V51	V5	0.000420	0.283400	0.851350
V61	V6	0.754440	0.246730	0.837420
P51	P5	0.884320	0.074240	0.737660
P61	P6	0.876070	0.936320	0.431630
P71	P7	0.877590	0.470170	0.760830
P81	P8	0.863840	0.541970	0.450720
O131	O13	0.900900	0.911500	0.726100
O141	O14	0.828100	0.097800	0.812200
O151	O15	0.951700	0.155800	0.757000
O161	O16	0.893600	0.899200	0.532200
O171	O17	0.801900	0.896300	0.404900
O181	O18	0.929400	0.877100	0.361500
O191	O19	0.859500	0.627800	0.741800
O201	O20	0.952000	0.457000	0.797500
O211	O21	0.824700	0.405500	0.828900
O221	O22	0.855100	0.600200	0.549700
O231	O23	0.936400	0.569400	0.412200
O241	O24	0.805100	0.585300	0.385600
V71	V7	0.639160	0.269270	0.134490
V81	V8	0.499580	0.783400	0.351350
V91	V9	0.745560	0.746730	0.337420
P91	P9	0.615680	0.574240	0.237660
P101	P10	0.623930	0.436320	0.931630
P111	P11	0.622410	0.970170	0.260830
P121	P12	0.636160	0.041970	0.950720
O251	O25	0.599100	0.411500	0.226100
O261	O26	0.671900	0.597800	0.312200
O271	O27	0.548300	0.655800	0.257000
O281	O28	0.606400	0.399200	0.032200
O291	O29	0.698100	0.396300	0.904900
O301	O30	0.570600	0.377100	0.861500
O311	O31	0.640500	0.127800	0.241800
O321	O32	0.548000	0.957000	0.297500
O331	O33	0.675300	0.905500	0.328900
O341	O34	0.644900	0.100200	0.049700
O351	O35	0.563600	0.069400	0.912200
O361	O36	0.694900	0.085300	0.885600
V101	V10	0.360840	0.730730	0.634490
V111	V11	0.500420	0.216600	0.851350
V121	V12	0.254440	0.253270	0.837420
P131	P13	0.384320	0.425760	0.737660
P141	P14	0.376070	0.563680	0.431630
P151	P15	0.377590	0.029830	0.760830
P161	P16	0.363840	0.958030	0.450720
O371	O37	0.400900	0.588500	0.726100
O381	O38	0.328100	0.402200	0.812200
O391	O39	0.451700	0.344200	0.757000
O401	O40	0.393600	0.600800	0.532200
O411	O41	0.301900	0.603700	0.404900
O421	O42	0.429400	0.622900	0.361500
O431	O43	0.359500	0.872200	0.741800
O441	O44	0.452000	0.043000	0.797500
O451	O45	0.324700	0.094500	0.828900
O461	O46	0.355100	0.899800	0.549700
O471	O47	0.436400	0.930600	0.412200
O481	O48	0.305100	0.914700	0.385600
