data_AJOVEB_clean_PM
_symmetry_space_group_name_H-M	'P1'
_cell_length_a	7.720100
_cell_length_b	23.250700
_cell_length_c	23.250700
_cell_angle_alpha	61.208400
_cell_angle_beta	83.645500
_cell_angle_gamma	96.354500
_symmetry_Int_Tables_number 1

loop_
_symmetry_equiv_pos_as_xyz
'x,y,z'

loop_
_atom_site_label
_atom_site_type_symbol
_atom_site_fract_x
_atom_site_fract_y
_atom_site_fract_z
Cd11	Cd1	0.745630	0.524220	0.437160
Cd21	Cd2	0.182970	0.478280	0.400880
Cd31	Cd3	0.182790	0.437160	0.038620
Cd41	Cd4	0.583850	0.400880	0.120840
Cd51	Cd5	0.221410	0.038620	0.524220
Cd61	Cd6	0.704690	0.120840	0.478280
Cd71	Cd7	0.254370	0.475780	0.562840
Cd81	Cd8	0.817030	0.521720	0.599120
Cd91	Cd9	0.817210	0.562840	0.961380
Cd101	Cd10	0.416150	0.599120	0.879160
Cd111	Cd11	0.778590	0.961380	0.475780
Cd121	Cd12	0.295310	0.879160	0.521720
H11	H1	0.536700	0.704200	0.298300
H21	H2	0.397700	0.792100	0.241900
H31	H3	0.969700	0.700400	0.390200
H41	H4	0.115000	0.830100	0.375900
H51	H5	0.525900	0.832200	0.359400
H61	H6	0.714100	0.819700	0.284200
H71	H7	0.835000	0.298300	0.997500
H81	H8	0.639600	0.241900	0.966000
H91	H9	0.359900	0.390200	0.909400
H101	H10	0.490900	0.375900	0.794000
H111	H11	0.885300	0.359400	0.808400
H121	H12	0.998300	0.284200	0.896100
H131	H13	0.832500	0.997500	0.704200
H141	H14	0.605600	0.966000	0.792100
H151	H15	0.269300	0.909400	0.700400
H161	H16	0.284900	0.794000	0.830100
H171	H17	0.693700	0.808400	0.832200
H181	H18	0.894400	0.896100	0.819700
H191	H19	0.463300	0.295800	0.701700
H201	H20	0.602300	0.207900	0.758100
H211	H21	0.030300	0.299600	0.609800
H221	H22	0.885000	0.169900	0.624100
H231	H23	0.474100	0.167800	0.640600
H241	H24	0.285900	0.180300	0.715800
H251	H25	0.165000	0.701700	0.002500
H261	H26	0.360400	0.758100	0.034000
H271	H27	0.640100	0.609800	0.090600
H281	H28	0.509100	0.624100	0.206000
H291	H29	0.114700	0.640600	0.191600
H301	H30	0.001700	0.715800	0.103900
H311	H31	0.167500	0.002500	0.295800
H321	H32	0.394400	0.034000	0.207900
H331	H33	0.730700	0.090600	0.299600
H341	H34	0.715100	0.206000	0.169900
H351	H35	0.306300	0.191600	0.167800
H361	H36	0.105600	0.103900	0.180300
C11	C1	0.344430	0.650910	0.379920
C21	C2	0.424300	0.704020	0.317620
C31	C3	0.340710	0.756690	0.283560
C41	C4	0.172180	0.649960	0.407620
C51	C5	0.085680	0.702200	0.372560
C61	C6	0.170800	0.757450	0.311050
C71	C7	0.444810	0.595480	0.413350
C81	C8	0.081800	0.596590	0.476590
C91	C9	0.073610	0.815020	0.273490
C101	C10	0.205920	0.882970	0.231610
C111	C11	0.986100	0.800320	0.224320
C121	C12	0.936020	0.823480	0.321520
C131	C13	0.997120	0.831850	0.371590
C141	C14	0.886080	0.842840	0.415700
C151	C15	0.707210	0.843220	0.411790
C161	C16	0.645420	0.833240	0.362180
C171	C17	0.758060	0.824710	0.317530
C181	C18	0.967580	0.854130	0.466290
C191	C19	0.572060	0.853000	0.456820
C201	C20	0.724350	0.379920	0.969170
C211	C21	0.741920	0.317620	0.978360
C221	C22	0.624270	0.283560	0.959750
C231	C23	0.579800	0.407620	0.942420
C241	C24	0.458240	0.372560	0.925240
C251	C25	0.481850	0.311050	0.931500
C261	C26	0.858160	0.413350	0.991170
C271	C27	0.558390	0.476590	0.926820
C281	C28	0.347100	0.273490	0.911490
C291	C29	0.437530	0.231610	0.885420
C301	C30	0.210420	0.224320	0.975360
C311	C31	0.257540	0.321520	0.855000
C321	C32	0.368710	0.371590	0.796560
C331	C33	0.301780	0.415700	0.741460
C341	C34	0.119000	0.411790	0.744990
C351	C35	0.007600	0.362180	0.804580
C361	C36	0.075590	0.317530	0.857760
C371	C37	0.433870	0.466290	0.679580
C381	C38	0.028880	0.456820	0.690180
C391	C39	0.693520	0.969170	0.650910
C401	C40	0.720280	0.978360	0.704020
C411	C41	0.584020	0.959750	0.756690
C421	C42	0.522220	0.942420	0.649960
C431	C43	0.383480	0.925240	0.702200
C441	C44	0.413350	0.931500	0.757450
C451	C45	0.849330	0.991170	0.595480
C461	C46	0.485210	0.926820	0.596590
C471	C47	0.258590	0.911490	0.815020
C481	C48	0.322950	0.885420	0.882970
C491	C49	0.185780	0.975360	0.800320
C501	C50	0.112540	0.855000	0.823480
C511	C51	0.165270	0.796560	0.831850
C521	C52	0.043240	0.741460	0.842840
C531	C53	0.863990	0.744990	0.843220
C541	C54	0.812180	0.804580	0.833240
C551	C55	0.933350	0.857760	0.824710
C561	C56	0.113450	0.679580	0.854130
C571	C57	0.719060	0.690180	0.853000
C581	C58	0.655570	0.349090	0.620080
C591	C59	0.575700	0.295980	0.682380
C601	C60	0.659290	0.243310	0.716440
C611	C61	0.827820	0.350040	0.592380
C621	C62	0.914320	0.297800	0.627440
C631	C63	0.829200	0.242550	0.688950
C641	C64	0.555190	0.404520	0.586650
C651	C65	0.918200	0.403410	0.523410
C661	C66	0.926390	0.184980	0.726510
C671	C67	0.794080	0.117030	0.768390
C681	C68	0.013900	0.199680	0.775680
C691	C69	0.063980	0.176520	0.678480
C701	C70	0.002880	0.168150	0.628410
C711	C71	0.113920	0.157160	0.584300
C721	C72	0.292790	0.156780	0.588210
C731	C73	0.354580	0.166760	0.637820
C741	C74	0.241940	0.175290	0.682470
C751	C75	0.032420	0.145870	0.533710
C761	C76	0.427940	0.147000	0.543180
C771	C77	0.275650	0.620080	0.030830
C781	C78	0.258080	0.682380	0.021640
C791	C79	0.375730	0.716440	0.040250
C801	C80	0.420200	0.592380	0.057580
C811	C81	0.541760	0.627440	0.074760
C821	C82	0.518150	0.688950	0.068500
C831	C83	0.141840	0.586650	0.008830
C841	C84	0.441610	0.523410	0.073180
C851	C85	0.652900	0.726510	0.088510
C861	C86	0.562470	0.768390	0.114580
C871	C87	0.789580	0.775680	0.024640
C881	C88	0.742460	0.678480	0.145000
C891	C89	0.631290	0.628410	0.203440
C901	C90	0.698220	0.584300	0.258540
C911	C91	0.881000	0.588210	0.255010
C921	C92	0.992400	0.637820	0.195420
C931	C93	0.924410	0.682470	0.142240
C941	C94	0.566130	0.533710	0.320420
C951	C95	0.971120	0.543180	0.309820
C961	C96	0.306480	0.030830	0.349090
C971	C97	0.279720	0.021640	0.295980
C981	C98	0.415980	0.040250	0.243310
C991	C99	0.477780	0.057580	0.350040
C1001	C100	0.616520	0.074760	0.297800
C1011	C101	0.586650	0.068500	0.242550
C1021	C102	0.150670	0.008830	0.404520
C1031	C103	0.514790	0.073180	0.403410
C1041	C104	0.741410	0.088510	0.184980
C1051	C105	0.677050	0.114580	0.117030
C1061	C106	0.814220	0.024640	0.199680
C1071	C107	0.887460	0.145000	0.176520
C1081	C108	0.834730	0.203440	0.168150
C1091	C109	0.956760	0.258540	0.157160
C1101	C110	0.136010	0.255010	0.156780
C1111	C111	0.187820	0.195420	0.166760
C1121	C112	0.066650	0.142240	0.175290
C1131	C113	0.886550	0.320420	0.145870
C1141	C114	0.280940	0.309820	0.147000
O11	O1	0.608830	0.610500	0.402210
O21	O2	0.358750	0.535070	0.449120
O31	O3	0.164620	0.580650	0.523590
O41	O4	0.919940	0.570440	0.485720
O51	O5	0.871990	0.863440	0.507370
O61	O6	0.130090	0.852820	0.464050
O71	O7	0.464100	0.803910	0.501810
O81	O8	0.562890	0.912510	0.443940
O91	O9	0.011040	0.402210	0.987290
O101	O10	0.807870	0.449120	0.015810
O111	O11	0.688210	0.523590	0.895760
O121	O12	0.405660	0.485720	0.943840
O131	O13	0.379360	0.507370	0.629190
O141	O14	0.594140	0.464050	0.683130
O151	O15	0.965910	0.501810	0.694280
O161	O16	0.006830	0.443940	0.643550
O171	O17	0.998330	0.987290	0.610500
O181	O18	0.823680	0.015810	0.535070
O191	O19	0.583970	0.895760	0.580650
O201	O20	0.349500	0.943840	0.570440
O211	O21	0.008550	0.629190	0.863440
O221	O22	0.277270	0.683130	0.852820
O231	O23	0.660190	0.694280	0.803910
O241	O24	0.650380	0.643550	0.912510
O251	O25	0.391170	0.389500	0.597790
O261	O26	0.641250	0.464930	0.550880
O271	O27	0.835380	0.419350	0.476410
O281	O28	0.080060	0.429560	0.514280
O291	O29	0.128010	0.136560	0.492630
O301	O30	0.869910	0.147180	0.535950
O311	O31	0.535900	0.196090	0.498190
O321	O32	0.437110	0.087490	0.556060
O331	O33	0.988960	0.597790	0.012710
O341	O34	0.192130	0.550880	0.984190
O351	O35	0.311790	0.476410	0.104240
O361	O36	0.594340	0.514280	0.056160
O371	O37	0.620640	0.492630	0.370810
O381	O38	0.405860	0.535950	0.316870
O391	O39	0.034090	0.498190	0.305720
O401	O40	0.993170	0.556060	0.356450
O411	O41	0.001670	0.012710	0.389500
O421	O42	0.176320	0.984190	0.464930
O431	O43	0.416030	0.104240	0.419350
O441	O44	0.650500	0.056160	0.429560
O451	O45	0.991450	0.370810	0.136560
O461	O46	0.722730	0.316870	0.147180
O471	O47	0.339810	0.305720	0.196090
O481	O48	0.349620	0.356450	0.087490
F11	F1	0.122810	0.934490	0.212360
F21	F2	0.301620	0.890350	0.176590
F31	F3	0.320870	0.890030	0.268220
F41	F4	0.911360	0.850300	0.183820
F51	F5	0.100660	0.788710	0.185530
F61	F6	0.858770	0.745220	0.257810
F71	F7	0.335170	0.212360	0.853150
F81	F8	0.478210	0.176590	0.933060
F91	F9	0.589090	0.268220	0.841750
F101	F10	0.095180	0.183820	0.965880
F111	F11	0.286190	0.185530	0.025760
F121	F12	0.116580	0.257810	0.996970
F131	F13	0.188320	0.853150	0.934490
F141	F14	0.411270	0.933060	0.890350
F151	F15	0.430840	0.841750	0.890030
F161	F16	0.061060	0.965880	0.850300
F171	F17	0.311950	0.025760	0.788710
F181	F18	0.113550	0.996970	0.745220
F191	F19	0.877190	0.065510	0.787640
F201	F20	0.698380	0.109650	0.823410
F211	F21	0.679130	0.109970	0.731780
F221	F22	0.088640	0.149700	0.816180
F231	F23	0.899340	0.211290	0.814470
F241	F24	0.141230	0.254780	0.742190
F251	F25	0.664830	0.787640	0.146850
F261	F26	0.521790	0.823410	0.066940
F271	F27	0.410910	0.731780	0.158250
F281	F28	0.904820	0.816180	0.034120
F291	F29	0.713810	0.814470	0.974240
F301	F30	0.883420	0.742190	0.003030
F311	F31	0.811680	0.146850	0.065510
F321	F32	0.588730	0.066940	0.109650
F331	F33	0.569160	0.158250	0.109970
F341	F34	0.938940	0.034120	0.149700
F351	F35	0.688050	0.974240	0.211290
F361	F36	0.886450	0.003030	0.254780
