data_AJUNOK_clean_PM
_symmetry_space_group_name_H-M	'P1'
_cell_length_a	16.085000
_cell_length_b	16.084900
_cell_length_c	20.246000
_cell_angle_alpha	90.000000
_cell_angle_beta	90.000000
_cell_angle_gamma	90.000000
_symmetry_Int_Tables_number 1

loop_
_symmetry_equiv_pos_as_xyz
'x,y,z'

loop_
_atom_site_label
_atom_site_type_symbol
_atom_site_fract_x
_atom_site_fract_y
_atom_site_fract_z
C11	C1	0.858190	0.432170	0.293200
H11	H1	0.813400	0.462500	0.277100
C21	C2	0.854430	0.346580	0.290160
H21	H2	0.808000	0.320600	0.272300
C31	C3	0.919860	0.299660	0.313750
C41	C4	0.987600	0.342790	0.340260
H31	H3	0.033100	0.313900	0.357000
C51	C5	0.986350	0.428300	0.341360
H41	H4	0.031900	0.456000	0.359100
C61	C6	0.918850	0.207580	0.311660
C71	C7	0.883520	0.162820	0.257580
C81	C8	0.883070	0.073680	0.256550
C91	C9	0.917440	0.026780	0.309890
C101	C10	0.951200	0.072220	0.360390
H51	H5	0.974400	0.044000	0.396000
C111	C11	0.952400	0.160400	0.360830
H61	H6	0.977300	0.187300	0.396300
C121	C12	0.983600	0.891160	0.337630
H71	H7	0.029000	0.919400	0.355300
C131	C13	0.916870	0.935190	0.310790
C141	C14	0.851500	0.888750	0.286300
H81	H8	0.805300	0.915200	0.268400
C151	C15	0.854900	0.803010	0.288500
H91	H9	0.810300	0.773000	0.271500
C161	C16	0.981700	0.805510	0.337750
H101	H10	0.026800	0.777200	0.355600
C171	C17	0.130550	0.617070	0.322970
C181	C18	0.180010	0.616840	0.386380
C191	C19	0.265800	0.621700	0.383630
H111	H11	0.292400	0.624400	0.342900
C201	C20	0.311900	0.622800	0.441230
H121	H12	0.369500	0.626600	0.438800
C211	C21	0.274030	0.618170	0.502130
C221	C22	0.188700	0.610700	0.504850
H131	H13	0.162400	0.605800	0.545500
C231	C23	0.141600	0.610600	0.446920
H141	H14	0.084000	0.606200	0.449300
C241	C24	0.325600	0.619490	0.564200
Cd11	Cd1	0.912920	0.616530	0.320930
N11	N1	0.850730	0.041700	0.200520
N21	N2	0.851130	0.196630	0.202180
N31	N3	0.923020	0.473680	0.318160
N41	N4	0.918910	0.761230	0.313800
O11	O1	0.053710	0.618500	0.326410
O21	O2	0.170340	0.616050	0.269770
O31	O3	0.402200	0.625900	0.560240
O41	O4	0.290240	0.614100	0.617890
S11	S1	0.824340	0.120130	0.155500
C251	C25	0.141810	0.432170	0.206800
H151	H15	0.186600	0.462500	0.222900
C261	C26	0.145570	0.346580	0.209840
H161	H16	0.192000	0.320600	0.227700
C271	C27	0.080140	0.299660	0.186250
C281	C28	0.012400	0.342790	0.159740
H171	H17	0.966900	0.313900	0.143000
C291	C29	0.013650	0.428300	0.158640
H181	H18	0.968100	0.456000	0.140900
C301	C30	0.081150	0.207580	0.188340
C311	C31	0.116480	0.162820	0.242420
C321	C32	0.116930	0.073680	0.243450
C331	C33	0.082560	0.026780	0.190110
C341	C34	0.048800	0.072220	0.139610
H191	H19	0.025600	0.044000	0.104000
C351	C35	0.047600	0.160400	0.139170
H201	H20	0.022700	0.187300	0.103700
C361	C36	0.016400	0.891160	0.162370
H211	H21	0.971000	0.919400	0.144700
C371	C37	0.083130	0.935190	0.189210
C381	C38	0.148500	0.888750	0.213700
H221	H22	0.194700	0.915200	0.231600
C391	C39	0.145100	0.803010	0.211500
H231	H23	0.189700	0.773000	0.228500
C401	C40	0.018300	0.805510	0.162250
H241	H24	0.973200	0.777200	0.144400
C411	C41	0.869450	0.617070	0.177030
C421	C42	0.819990	0.616840	0.113620
C431	C43	0.734200	0.621700	0.116370
H251	H25	0.707600	0.624400	0.157100
C441	C44	0.688100	0.622800	0.058770
H261	H26	0.630500	0.626600	0.061200
C451	C45	0.725970	0.618170	0.997870
C461	C46	0.811300	0.610700	0.995150
H271	H27	0.837600	0.605800	0.954500
C471	C47	0.858400	0.610600	0.053080
H281	H28	0.916000	0.606200	0.050700
C481	C48	0.674400	0.619490	0.935800
Cd21	Cd2	0.087080	0.616530	0.179070
N51	N5	0.149270	0.041700	0.299480
N61	N6	0.148870	0.196630	0.297820
N71	N7	0.076980	0.473680	0.181840
N81	N8	0.081090	0.761230	0.186200
O51	O5	0.946290	0.618500	0.173590
O61	O6	0.829660	0.616050	0.230230
O71	O7	0.597800	0.625900	0.939760
O81	O8	0.709760	0.614100	0.882110
S21	S2	0.175660	0.120130	0.344500
C491	C49	0.358190	0.432170	0.706800
H291	H29	0.313400	0.462500	0.722900
C501	C50	0.354430	0.346580	0.709840
H301	H30	0.308000	0.320600	0.727700
C511	C51	0.419860	0.299660	0.686250
C521	C52	0.487600	0.342790	0.659740
H311	H31	0.533100	0.313900	0.643000
C531	C53	0.486350	0.428300	0.658640
H321	H32	0.531900	0.456000	0.640900
C541	C54	0.418850	0.207580	0.688340
C551	C55	0.383520	0.162820	0.742420
C561	C56	0.383070	0.073680	0.743450
C571	C57	0.417440	0.026780	0.690110
C581	C58	0.451200	0.072220	0.639610
H331	H33	0.474400	0.044000	0.604000
C591	C59	0.452400	0.160400	0.639170
H341	H34	0.477300	0.187300	0.603700
C601	C60	0.483600	0.891160	0.662370
H351	H35	0.529000	0.919400	0.644700
C611	C61	0.416870	0.935190	0.689210
C621	C62	0.351500	0.888750	0.713700
H361	H36	0.305300	0.915200	0.731600
C631	C63	0.354900	0.803010	0.711500
H371	H37	0.310300	0.773000	0.728500
C641	C64	0.481700	0.805510	0.662250
H381	H38	0.526800	0.777200	0.644400
C651	C65	0.630550	0.617070	0.677030
C661	C66	0.680010	0.616840	0.613620
C671	C67	0.765800	0.621700	0.616370
H391	H39	0.792400	0.624400	0.657100
C681	C68	0.811900	0.622800	0.558770
H401	H40	0.869500	0.626600	0.561200
C691	C69	0.774030	0.618170	0.497870
C701	C70	0.688700	0.610700	0.495150
H411	H41	0.662400	0.605800	0.454500
C711	C71	0.641600	0.610600	0.553080
H421	H42	0.584000	0.606200	0.550700
C721	C72	0.825600	0.619490	0.435800
Cd31	Cd3	0.412920	0.616530	0.679070
N91	N9	0.350730	0.041700	0.799480
N101	N10	0.351130	0.196630	0.797820
N111	N11	0.423020	0.473680	0.681840
N121	N12	0.418910	0.761230	0.686200
O91	O9	0.553710	0.618500	0.673590
O101	O10	0.670340	0.616050	0.730230
O111	O11	0.902200	0.625900	0.439760
O121	O12	0.790240	0.614100	0.382110
S31	S3	0.324340	0.120130	0.844500
C731	C73	0.641810	0.432170	0.793200
H431	H43	0.686600	0.462500	0.777100
C741	C74	0.645570	0.346580	0.790160
H441	H44	0.692000	0.320600	0.772300
C751	C75	0.580140	0.299660	0.813750
C761	C76	0.512400	0.342790	0.840260
H451	H45	0.466900	0.313900	0.857000
C771	C77	0.513650	0.428300	0.841360
H461	H46	0.468100	0.456000	0.859100
C781	C78	0.581150	0.207580	0.811660
C791	C79	0.616480	0.162820	0.757580
C801	C80	0.616930	0.073680	0.756550
C811	C81	0.582560	0.026780	0.809890
C821	C82	0.548800	0.072220	0.860390
H471	H47	0.525600	0.044000	0.896000
C831	C83	0.547600	0.160400	0.860830
H481	H48	0.522700	0.187300	0.896300
C841	C84	0.516400	0.891160	0.837630
H491	H49	0.471000	0.919400	0.855300
C851	C85	0.583130	0.935190	0.810790
C861	C86	0.648500	0.888750	0.786300
H501	H50	0.694700	0.915200	0.768400
C871	C87	0.645100	0.803010	0.788500
H511	H51	0.689700	0.773000	0.771500
C881	C88	0.518300	0.805510	0.837750
H521	H52	0.473200	0.777200	0.855600
C891	C89	0.369450	0.617070	0.822970
C901	C90	0.319990	0.616840	0.886380
C911	C91	0.234200	0.621700	0.883630
H531	H53	0.207600	0.624400	0.842900
C921	C92	0.188100	0.622800	0.941230
H541	H54	0.130500	0.626600	0.938800
C931	C93	0.225970	0.618170	0.002130
C941	C94	0.311300	0.610700	0.004850
H551	H55	0.337600	0.605800	0.045500
C951	C95	0.358400	0.610600	0.946920
H561	H56	0.416000	0.606200	0.949300
C961	C96	0.174400	0.619490	0.064200
Cd41	Cd4	0.587080	0.616530	0.820930
N131	N13	0.649270	0.041700	0.700520
N141	N14	0.648870	0.196630	0.702180
N151	N15	0.576980	0.473680	0.818160
N161	N16	0.581090	0.761230	0.813800
O131	O13	0.446290	0.618500	0.826410
O141	O14	0.329660	0.616050	0.769770
O151	O15	0.097800	0.625900	0.060240
O161	O16	0.209760	0.614100	0.117890
S41	S4	0.675660	0.120130	0.655500
C971	C97	0.641810	0.567830	0.293200
H571	H57	0.686600	0.537500	0.277100
C981	C98	0.645570	0.653420	0.290160
H581	H58	0.692000	0.679400	0.272300
C991	C99	0.580140	0.700340	0.313750
C1001	C100	0.512400	0.657210	0.340260
H591	H59	0.466900	0.686100	0.357000
C1011	C101	0.513650	0.571700	0.341360
H601	H60	0.468100	0.544000	0.359100
C1021	C102	0.581150	0.792420	0.311660
C1031	C103	0.616480	0.837180	0.257580
C1041	C104	0.616930	0.926320	0.256550
C1051	C105	0.582560	0.973220	0.309890
C1061	C106	0.548800	0.927780	0.360390
H611	H61	0.525600	0.956000	0.396000
C1071	C107	0.547600	0.839600	0.360830
H621	H62	0.522700	0.812700	0.396300
C1081	C108	0.516400	0.108840	0.337630
H631	H63	0.471000	0.080600	0.355300
C1091	C109	0.583130	0.064810	0.310790
C1101	C110	0.648500	0.111250	0.286300
H641	H64	0.694700	0.084800	0.268400
C1111	C111	0.645100	0.196990	0.288500
H651	H65	0.689700	0.227000	0.271500
C1121	C112	0.518300	0.194490	0.337750
H661	H66	0.473200	0.222800	0.355600
C1131	C113	0.369450	0.382930	0.322970
C1141	C114	0.319990	0.383160	0.386380
C1151	C115	0.234200	0.378300	0.383630
H671	H67	0.207600	0.375600	0.342900
C1161	C116	0.188100	0.377200	0.441230
H681	H68	0.130500	0.373400	0.438800
C1171	C117	0.225970	0.381830	0.502130
C1181	C118	0.311300	0.389300	0.504850
H691	H69	0.337600	0.394200	0.545500
C1191	C119	0.358400	0.389400	0.446920
H701	H70	0.416000	0.393800	0.449300
C1201	C120	0.174400	0.380510	0.564200
Cd51	Cd5	0.587080	0.383470	0.320930
N171	N17	0.649270	0.958300	0.200520
N181	N18	0.648870	0.803370	0.202180
N191	N19	0.576980	0.526320	0.318160
N201	N20	0.581090	0.238770	0.313800
O171	O17	0.446290	0.381500	0.326410
O181	O18	0.329660	0.383950	0.269770
O191	O19	0.097800	0.374100	0.560240
O201	O20	0.209760	0.385900	0.617890
S51	S5	0.675660	0.879870	0.155500
C1211	C121	0.358190	0.567830	0.206800
H711	H71	0.313400	0.537500	0.222900
C1221	C122	0.354430	0.653420	0.209840
H721	H72	0.308000	0.679400	0.227700
C1231	C123	0.419860	0.700340	0.186250
C1241	C124	0.487600	0.657210	0.159740
H731	H73	0.533100	0.686100	0.143000
C1251	C125	0.486350	0.571700	0.158640
H741	H74	0.531900	0.544000	0.140900
C1261	C126	0.418850	0.792420	0.188340
C1271	C127	0.383520	0.837180	0.242420
C1281	C128	0.383070	0.926320	0.243450
C1291	C129	0.417440	0.973220	0.190110
C1301	C130	0.451200	0.927780	0.139610
H751	H75	0.474400	0.956000	0.104000
C1311	C131	0.452400	0.839600	0.139170
H761	H76	0.477300	0.812700	0.103700
C1321	C132	0.483600	0.108840	0.162370
H771	H77	0.529000	0.080600	0.144700
C1331	C133	0.416870	0.064810	0.189210
C1341	C134	0.351500	0.111250	0.213700
H781	H78	0.305300	0.084800	0.231600
C1351	C135	0.354900	0.196990	0.211500
H791	H79	0.310300	0.227000	0.228500
C1361	C136	0.481700	0.194490	0.162250
H801	H80	0.526800	0.222800	0.144400
C1371	C137	0.630550	0.382930	0.177030
C1381	C138	0.680010	0.383160	0.113620
C1391	C139	0.765800	0.378300	0.116370
H811	H81	0.792400	0.375600	0.157100
C1401	C140	0.811900	0.377200	0.058770
H821	H82	0.869500	0.373400	0.061200
C1411	C141	0.774030	0.381830	0.997870
C1421	C142	0.688700	0.389300	0.995150
H831	H83	0.662400	0.394200	0.954500
C1431	C143	0.641600	0.389400	0.053080
H841	H84	0.584000	0.393800	0.050700
C1441	C144	0.825600	0.380510	0.935800
Cd61	Cd6	0.412920	0.383470	0.179070
N211	N21	0.350730	0.958300	0.299480
N221	N22	0.351130	0.803370	0.297820
N231	N23	0.423020	0.526320	0.181840
N241	N24	0.418910	0.238770	0.186200
O211	O21	0.553710	0.381500	0.173590
O221	O22	0.670340	0.383950	0.230230
O231	O23	0.902200	0.374100	0.939760
O241	O24	0.790240	0.385900	0.882110
S61	S6	0.324340	0.879870	0.344500
C1451	C145	0.141810	0.567830	0.706800
H851	H85	0.186600	0.537500	0.722900
C1461	C146	0.145570	0.653420	0.709840
H861	H86	0.192000	0.679400	0.727700
C1471	C147	0.080140	0.700340	0.686250
C1481	C148	0.012400	0.657210	0.659740
H871	H87	0.966900	0.686100	0.643000
C1491	C149	0.013650	0.571700	0.658640
H881	H88	0.968100	0.544000	0.640900
C1501	C150	0.081150	0.792420	0.688340
C1511	C151	0.116480	0.837180	0.742420
C1521	C152	0.116930	0.926320	0.743450
C1531	C153	0.082560	0.973220	0.690110
C1541	C154	0.048800	0.927780	0.639610
H891	H89	0.025600	0.956000	0.604000
C1551	C155	0.047600	0.839600	0.639170
H901	H90	0.022700	0.812700	0.603700
C1561	C156	0.016400	0.108840	0.662370
H911	H91	0.971000	0.080600	0.644700
C1571	C157	0.083130	0.064810	0.689210
C1581	C158	0.148500	0.111250	0.713700
H921	H92	0.194700	0.084800	0.731600
C1591	C159	0.145100	0.196990	0.711500
H931	H93	0.189700	0.227000	0.728500
C1601	C160	0.018300	0.194490	0.662250
H941	H94	0.973200	0.222800	0.644400
C1611	C161	0.869450	0.382930	0.677030
C1621	C162	0.819990	0.383160	0.613620
C1631	C163	0.734200	0.378300	0.616370
H951	H95	0.707600	0.375600	0.657100
C1641	C164	0.688100	0.377200	0.558770
H961	H96	0.630500	0.373400	0.561200
C1651	C165	0.725970	0.381830	0.497870
C1661	C166	0.811300	0.389300	0.495150
H971	H97	0.837600	0.394200	0.454500
C1671	C167	0.858400	0.389400	0.553080
H981	H98	0.916000	0.393800	0.550700
C1681	C168	0.674400	0.380510	0.435800
Cd71	Cd7	0.087080	0.383470	0.679070
N251	N25	0.149270	0.958300	0.799480
N261	N26	0.148870	0.803370	0.797820
N271	N27	0.076980	0.526320	0.681840
N281	N28	0.081090	0.238770	0.686200
O251	O25	0.946290	0.381500	0.673590
O261	O26	0.829660	0.383950	0.730230
O271	O27	0.597800	0.374100	0.439760
O281	O28	0.709760	0.385900	0.382110
S71	S7	0.175660	0.879870	0.844500
C1691	C169	0.858190	0.567830	0.793200
H991	H99	0.813400	0.537500	0.777100
C1701	C170	0.854430	0.653420	0.790160
H1001	H100	0.808000	0.679400	0.772300
C1711	C171	0.919860	0.700340	0.813750
C1721	C172	0.987600	0.657210	0.840260
H1011	H101	0.033100	0.686100	0.857000
C1731	C173	0.986350	0.571700	0.841360
H1021	H102	0.031900	0.544000	0.859100
C1741	C174	0.918850	0.792420	0.811660
C1751	C175	0.883520	0.837180	0.757580
C1761	C176	0.883070	0.926320	0.756550
C1771	C177	0.917440	0.973220	0.809890
C1781	C178	0.951200	0.927780	0.860390
H1031	H103	0.974400	0.956000	0.896000
C1791	C179	0.952400	0.839600	0.860830
H1041	H104	0.977300	0.812700	0.896300
C1801	C180	0.983600	0.108840	0.837630
H1051	H105	0.029000	0.080600	0.855300
C1811	C181	0.916870	0.064810	0.810790
C1821	C182	0.851500	0.111250	0.786300
H1061	H106	0.805300	0.084800	0.768400
C1831	C183	0.854900	0.196990	0.788500
H1071	H107	0.810300	0.227000	0.771500
C1841	C184	0.981700	0.194490	0.837750
H1081	H108	0.026800	0.222800	0.855600
C1851	C185	0.130550	0.382930	0.822970
C1861	C186	0.180010	0.383160	0.886380
C1871	C187	0.265800	0.378300	0.883630
H1091	H109	0.292400	0.375600	0.842900
C1881	C188	0.311900	0.377200	0.941230
H1101	H110	0.369500	0.373400	0.938800
C1891	C189	0.274030	0.381830	0.002130
C1901	C190	0.188700	0.389300	0.004850
H1111	H111	0.162400	0.394200	0.045500
C1911	C191	0.141600	0.389400	0.946920
H1121	H112	0.084000	0.393800	0.949300
C1921	C192	0.325600	0.380510	0.064200
Cd81	Cd8	0.912920	0.383470	0.820930
N291	N29	0.850730	0.958300	0.700520
N301	N30	0.851130	0.803370	0.702180
N311	N31	0.923020	0.526320	0.818160
N321	N32	0.918910	0.238770	0.813800
O291	O29	0.053710	0.381500	0.826410
O301	O30	0.170340	0.383950	0.769770
O311	O31	0.402200	0.374100	0.060240
O321	O32	0.290240	0.385900	0.117890
S81	S8	0.824340	0.879870	0.655500
