data_AKEDIF_clean_PM
_symmetry_space_group_name_H-M	'P1'
_cell_length_a	31.325600
_cell_length_b	5.888800
_cell_length_c	20.448500
_cell_angle_alpha	90.000000
_cell_angle_beta	102.229000
_cell_angle_gamma	90.000000
_symmetry_Int_Tables_number 1

loop_
_symmetry_equiv_pos_as_xyz
'x,y,z'

loop_
_atom_site_label
_atom_site_type_symbol
_atom_site_fract_x
_atom_site_fract_y
_atom_site_fract_z
O11	O1	0.497440	0.111600	0.323590
O21	O2	0.473900	0.422300	0.365960
N11	N1	0.448000	0.519600	0.209300
C11	C1	0.420710	0.459900	0.151770
H11	H1	0.425500	0.320300	0.131200
C21	C2	0.386160	0.593800	0.121750
H21	H2	0.367500	0.545500	0.081300
C31	C3	0.378390	0.800300	0.150480
C41	C4	0.406510	0.858700	0.210290
H31	H3	0.402200	0.996400	0.232300
C51	C5	0.440550	0.716700	0.237580
H41	H4	0.459600	0.760500	0.278200
C61	C6	0.342930	0.957400	0.121820
H51	H5	0.337300	0.079700	0.149100
C71	C7	0.318510	0.942200	0.061770
H61	H6	0.323700	0.816700	0.035300
C81	C8	0.283370	0.102200	0.030850
C91	C9	0.274930	0.301800	0.062620
H71	H7	0.292000	0.338300	0.105500
C101	C10	0.258370	0.051800	0.968140
H81	H8	0.263900	0.916700	0.945900
C111	C11	0.487100	0.224500	0.371630
C121	C12	0.493310	0.105000	0.437870
C131	C13	0.512300	0.891600	0.446580
H91	H9	0.520600	0.816900	0.410000
C141	C14	0.480880	0.212600	0.491480
H101	H10	0.467600	0.358400	0.485500
O31	O3	0.997440	0.611600	0.323590
O41	O4	0.973900	0.922300	0.365960
N21	N2	0.948000	0.019600	0.209300
C151	C15	0.920710	0.959900	0.151770
H111	H11	0.925500	0.820300	0.131200
C161	C16	0.886160	0.093800	0.121750
H121	H12	0.867500	0.045500	0.081300
C171	C17	0.878390	0.300300	0.150480
C181	C18	0.906510	0.358700	0.210290
H131	H13	0.902200	0.496400	0.232300
C191	C19	0.940550	0.216700	0.237580
H141	H14	0.959600	0.260500	0.278200
C201	C20	0.842930	0.457400	0.121820
H151	H15	0.837300	0.579700	0.149100
C211	C21	0.818510	0.442200	0.061770
H161	H16	0.823700	0.316700	0.035300
C221	C22	0.783370	0.602200	0.030850
C231	C23	0.774930	0.801800	0.062620
H171	H17	0.792000	0.838300	0.105500
C241	C24	0.758370	0.551800	0.968140
H181	H18	0.763900	0.416700	0.945900
C251	C25	0.987100	0.724500	0.371630
C261	C26	0.993310	0.605000	0.437870
C271	C27	0.012300	0.391600	0.446580
H191	H19	0.020600	0.316900	0.410000
C281	C28	0.980880	0.712600	0.491480
H201	H20	0.967600	0.858400	0.485500
O51	O5	0.502560	0.111600	0.176410
O61	O6	0.526100	0.422300	0.134040
N31	N3	0.552000	0.519600	0.290700
C291	C29	0.579290	0.459900	0.348230
H211	H21	0.574500	0.320300	0.368800
C301	C30	0.613840	0.593800	0.378250
H221	H22	0.632500	0.545500	0.418700
C311	C31	0.621610	0.800300	0.349520
C321	C32	0.593490	0.858700	0.289710
H231	H23	0.597800	0.996400	0.267700
C331	C33	0.559450	0.716700	0.262420
H241	H24	0.540400	0.760500	0.221800
C341	C34	0.657070	0.957400	0.378180
H251	H25	0.662700	0.079700	0.350900
C351	C35	0.681490	0.942200	0.438230
H261	H26	0.676300	0.816700	0.464700
C361	C36	0.716630	0.102200	0.469150
C371	C37	0.725070	0.301800	0.437380
H271	H27	0.708000	0.338300	0.394500
C381	C38	0.741630	0.051800	0.531860
H281	H28	0.736100	0.916700	0.554100
C391	C39	0.512900	0.224500	0.128370
C401	C40	0.506690	0.105000	0.062130
C411	C41	0.487700	0.891600	0.053420
H291	H29	0.479400	0.816900	0.090000
C421	C42	0.519120	0.212600	0.008520
H301	H30	0.532400	0.358400	0.014500
O71	O7	0.002560	0.611600	0.176410
O81	O8	0.026100	0.922300	0.134040
N41	N4	0.052000	0.019600	0.290700
C431	C43	0.079290	0.959900	0.348230
H311	H31	0.074500	0.820300	0.368800
C441	C44	0.113840	0.093800	0.378250
H321	H32	0.132500	0.045500	0.418700
C451	C45	0.121610	0.300300	0.349520
C461	C46	0.093490	0.358700	0.289710
H331	H33	0.097800	0.496400	0.267700
C471	C47	0.059450	0.216700	0.262420
H341	H34	0.040400	0.260500	0.221800
C481	C48	0.157070	0.457400	0.378180
H351	H35	0.162700	0.579700	0.350900
C491	C49	0.181490	0.442200	0.438230
H361	H36	0.176300	0.316700	0.464700
C501	C50	0.216630	0.602200	0.469150
C511	C51	0.225070	0.801800	0.437380
H371	H37	0.208000	0.838300	0.394500
C521	C52	0.241630	0.551800	0.531860
H381	H38	0.236100	0.416700	0.554100
C531	C53	0.012900	0.724500	0.128370
C541	C54	0.006690	0.605000	0.062130
C551	C55	0.987700	0.391600	0.053420
H391	H39	0.979400	0.316900	0.090000
C561	C56	0.019120	0.712600	0.008520
H401	H40	0.032400	0.858400	0.014500
O91	O9	0.502560	0.888400	0.676410
O101	O10	0.526100	0.577700	0.634040
N51	N5	0.552000	0.480400	0.790700
C571	C57	0.579290	0.540100	0.848230
H411	H41	0.574500	0.679700	0.868800
C581	C58	0.613840	0.406200	0.878250
H421	H42	0.632500	0.454500	0.918700
C591	C59	0.621610	0.199700	0.849520
C601	C60	0.593490	0.141300	0.789710
H431	H43	0.597800	0.003600	0.767700
C611	C61	0.559450	0.283300	0.762420
H441	H44	0.540400	0.239500	0.721800
C621	C62	0.657070	0.042600	0.878180
H451	H45	0.662700	0.920300	0.850900
C631	C63	0.681490	0.057800	0.938230
H461	H46	0.676300	0.183300	0.964700
C641	C64	0.716630	0.897800	0.969150
C651	C65	0.725070	0.698200	0.937380
H471	H47	0.708000	0.661700	0.894500
C661	C66	0.741630	0.948200	0.031860
H481	H48	0.736100	0.083300	0.054100
C671	C67	0.512900	0.775500	0.628370
C681	C68	0.506690	0.895000	0.562130
C691	C69	0.487700	0.108400	0.553420
H491	H49	0.479400	0.183100	0.590000
C701	C70	0.519120	0.787400	0.508520
H501	H50	0.532400	0.641600	0.514500
O111	O11	0.002560	0.388400	0.676410
O121	O12	0.026100	0.077700	0.634040
N61	N6	0.052000	0.980400	0.790700
C711	C71	0.079290	0.040100	0.848230
H511	H51	0.074500	0.179700	0.868800
C721	C72	0.113840	0.906200	0.878250
H521	H52	0.132500	0.954500	0.918700
C731	C73	0.121610	0.699700	0.849520
C741	C74	0.093490	0.641300	0.789710
H531	H53	0.097800	0.503600	0.767700
C751	C75	0.059450	0.783300	0.762420
H541	H54	0.040400	0.739500	0.721800
C761	C76	0.157070	0.542600	0.878180
H551	H55	0.162700	0.420300	0.850900
C771	C77	0.181490	0.557800	0.938230
H561	H56	0.176300	0.683300	0.964700
C781	C78	0.216630	0.397800	0.969150
C791	C79	0.225070	0.198200	0.937380
H571	H57	0.208000	0.161700	0.894500
C801	C80	0.241630	0.448200	0.031860
H581	H58	0.236100	0.583300	0.054100
C811	C81	0.012900	0.275500	0.628370
C821	C82	0.006690	0.395000	0.562130
C831	C83	0.987700	0.608400	0.553420
H591	H59	0.979400	0.683100	0.590000
C841	C84	0.019120	0.287400	0.508520
H601	H60	0.032400	0.141600	0.514500
O131	O13	0.497440	0.888400	0.823590
O141	O14	0.473900	0.577700	0.865960
N71	N7	0.448000	0.480400	0.709300
C851	C85	0.420710	0.540100	0.651770
H611	H61	0.425500	0.679700	0.631200
C861	C86	0.386160	0.406200	0.621750
H621	H62	0.367500	0.454500	0.581300
C871	C87	0.378390	0.199700	0.650480
C881	C88	0.406510	0.141300	0.710290
H631	H63	0.402200	0.003600	0.732300
C891	C89	0.440550	0.283300	0.737580
H641	H64	0.459600	0.239500	0.778200
C901	C90	0.342930	0.042600	0.621820
H651	H65	0.337300	0.920300	0.649100
C911	C91	0.318510	0.057800	0.561770
H661	H66	0.323700	0.183300	0.535300
C921	C92	0.283370	0.897800	0.530850
C931	C93	0.274930	0.698200	0.562620
H671	H67	0.292000	0.661700	0.605500
C941	C94	0.258370	0.948200	0.468140
H681	H68	0.263900	0.083300	0.445900
C951	C95	0.487100	0.775500	0.871630
C961	C96	0.493310	0.895000	0.937870
C971	C97	0.512300	0.108400	0.946580
H691	H69	0.520600	0.183100	0.910000
C981	C98	0.480880	0.787400	0.991480
H701	H70	0.467600	0.641600	0.985500
O151	O15	0.997440	0.388400	0.823590
O161	O16	0.973900	0.077700	0.865960
N81	N8	0.948000	0.980400	0.709300
C991	C99	0.920710	0.040100	0.651770
H711	H71	0.925500	0.179700	0.631200
C1001	C100	0.886160	0.906200	0.621750
H721	H72	0.867500	0.954500	0.581300
C1011	C101	0.878390	0.699700	0.650480
C1021	C102	0.906510	0.641300	0.710290
H731	H73	0.902200	0.503600	0.732300
C1031	C103	0.940550	0.783300	0.737580
H741	H74	0.959600	0.739500	0.778200
C1041	C104	0.842930	0.542600	0.621820
H751	H75	0.837300	0.420300	0.649100
C1051	C105	0.818510	0.557800	0.561770
H761	H76	0.823700	0.683300	0.535300
C1061	C106	0.783370	0.397800	0.530850
C1071	C107	0.774930	0.198200	0.562620
H771	H77	0.792000	0.161700	0.605500
C1081	C108	0.758370	0.448200	0.468140
H781	H78	0.763900	0.583300	0.445900
C1091	C109	0.987100	0.275500	0.871630
C1101	C110	0.993310	0.395000	0.937870
C1111	C111	0.012300	0.608400	0.946580
H791	H79	0.020600	0.683100	0.910000
C1121	C112	0.980880	0.287400	0.991480
H801	H80	0.967600	0.141600	0.985500
Zn11	Zn1	0.500000	0.321140	0.250000
Zn21	Zn2	0.000000	0.821140	0.250000
Zn31	Zn3	0.500000	0.678860	0.750000
Zn41	Zn4	0.000000	0.178860	0.750000
