data_AKUHOD01_clean_PM
_symmetry_space_group_name_H-M	'P1'
_cell_length_a	10.512500
_cell_length_b	10.512500
_cell_length_c	10.865200
_cell_angle_alpha	78.887700
_cell_angle_beta	62.454300
_cell_angle_gamma	108.834000
_symmetry_Int_Tables_number 1

loop_
_symmetry_equiv_pos_as_xyz
'x,y,z'

loop_
_atom_site_label
_atom_site_type_symbol
_atom_site_fract_x
_atom_site_fract_y
_atom_site_fract_z
Gd11	Gd1	0.052030	0.365550	0.879570
Gd21	Gd2	0.745120	0.931600	0.620430
Gd31	Gd3	0.947970	0.634450	0.120430
Gd41	Gd4	0.254880	0.068400	0.379570
H11	H1	0.460000	0.384900	0.818100
H21	H2	0.604100	0.488800	0.649500
H31	H3	0.887000	0.552000	0.719000
H41	H4	0.703000	0.278100	0.681900
H51	H5	0.638300	0.253600	0.850500
H61	H6	0.771000	0.606000	0.781000
H71	H7	0.540000	0.615100	0.181900
H81	H8	0.395900	0.511200	0.350500
H91	H9	0.113000	0.448000	0.281000
H101	H10	0.297000	0.721900	0.318100
H111	H11	0.361700	0.746400	0.149500
H121	H12	0.229000	0.394000	0.219000
C11	C1	0.453000	0.572400	0.743400
C21	C2	0.487600	0.447600	0.722000
C31	C3	0.402200	0.351100	0.668500
C41	C4	0.901700	0.624900	0.875200
C51	C5	0.815800	0.196400	0.756600
C61	C6	0.669600	0.209600	0.778000
C71	C7	0.519600	0.070700	0.831500
C81	C8	0.000100	0.776900	0.624800
C91	C9	0.547000	0.427600	0.256600
C101	C10	0.512400	0.552400	0.278000
C111	C11	0.597800	0.648900	0.331500
C121	C12	0.098300	0.375100	0.124800
C131	C13	0.184200	0.803600	0.243400
C141	C14	0.330400	0.790400	0.222000
C151	C15	0.480400	0.929300	0.168500
C161	C16	0.999900	0.223100	0.375200
C171	C17	0.875600	0.625600	0.750000
C181	C18	0.124400	0.374400	0.250000
O11	O1	0.312900	0.558200	0.792900
O21	O2	0.568700	0.686000	0.715300
O31	O3	0.252800	0.309800	0.725400
O41	O4	0.482600	0.312500	0.572500
O51	O5	0.962000	0.549100	0.907900
O61	O6	0.869100	0.707100	0.941600
O71	O7	0.851100	0.105800	0.707100
O81	O8	0.901300	0.284000	0.784700
O91	O9	0.535200	0.978200	0.774600
O101	O10	0.385000	0.055100	0.927500
O111	O11	0.957000	0.869900	0.592100
O121	O12	0.148700	0.810700	0.558400
O131	O13	0.687100	0.441800	0.207100
O141	O14	0.431300	0.314000	0.284700
O151	O15	0.747200	0.690200	0.274600
O161	O16	0.517400	0.687500	0.427500
O171	O17	0.038000	0.450900	0.092100
O181	O18	0.130900	0.292900	0.058400
O191	O19	0.148900	0.894200	0.292900
O201	O20	0.098700	0.716000	0.215300
O211	O21	0.464800	0.021800	0.225400
O221	O22	0.615000	0.944900	0.072500
O231	O23	0.043000	0.130100	0.407900
O241	O24	0.851300	0.189300	0.441600
