data_AKUHOD_clean_PM
_symmetry_space_group_name_H-M	'P1'
_cell_length_a	10.527000
_cell_length_b	10.527000
_cell_length_c	10.887200
_cell_angle_alpha	101.098000
_cell_angle_beta	117.544000
_cell_angle_gamma	108.824000
_symmetry_Int_Tables_number 1

loop_
_symmetry_equiv_pos_as_xyz
'x,y,z'

loop_
_atom_site_label
_atom_site_type_symbol
_atom_site_fract_x
_atom_site_fract_y
_atom_site_fract_z
Gd11	Gd1	0.052060	0.365570	0.120410
Gd21	Gd2	0.745160	0.931650	0.379590
Gd31	Gd3	0.947940	0.634430	0.879590
Gd41	Gd4	0.254840	0.068350	0.620410
H11	H1	0.617000	0.489000	0.352000
H21	H2	0.438000	0.378000	0.176000
H31	H3	0.234000	0.373000	0.803000
H41	H4	0.637000	0.265000	0.148000
H51	H5	0.702000	0.262000	0.324000
H61	H6	0.070000	0.431000	0.697000
H71	H7	0.383000	0.511000	0.648000
H81	H8	0.562000	0.622000	0.824000
H91	H9	0.766000	0.627000	0.197000
H101	H10	0.363000	0.735000	0.852000
H111	H11	0.298000	0.738000	0.676000
H121	H12	0.930000	0.569000	0.303000
C11	C1	0.488300	0.448100	0.279200
C21	C2	0.452500	0.572880	0.256180
C31	C3	0.402500	0.351170	0.331470
C41	C4	0.999100	0.223280	0.624580
C51	C5	0.668900	0.209100	0.220800
C61	C6	0.816700	0.196320	0.243820
C71	C7	0.519700	0.071030	0.168530
C81	C8	0.098700	0.374520	0.875420
C91	C9	0.511700	0.551900	0.720800
C101	C10	0.547500	0.427120	0.743820
C111	C11	0.597500	0.648830	0.668530
C121	C12	0.000900	0.776720	0.375420
C131	C13	0.331100	0.790900	0.779200
C141	C14	0.183300	0.803680	0.756180
C151	C15	0.480300	0.928970	0.831470
C161	C16	0.901300	0.625480	0.124580
C171	C17	0.124900	0.374900	0.750000
C181	C18	0.875100	0.625100	0.250000
O11	O1	0.313160	0.558120	0.207220
O21	O2	0.253180	0.310230	0.274650
O31	O3	0.851470	0.189650	0.558440
O41	O4	0.482990	0.312070	0.428120
O51	O5	0.568430	0.685370	0.284540
O61	O6	0.042730	0.130410	0.591600
O71	O7	0.850900	0.105940	0.292780
O81	O8	0.535580	0.978530	0.225350
O91	O9	0.131210	0.293030	0.941560
O101	O10	0.383950	0.054870	0.071880
O111	O11	0.900830	0.283890	0.215460
O121	O12	0.038810	0.451130	0.908400
O131	O13	0.686840	0.441880	0.792780
O141	O14	0.746820	0.689770	0.725350
O151	O15	0.148530	0.810350	0.441560
O161	O16	0.517010	0.687930	0.571880
O171	O17	0.431570	0.314630	0.715460
O181	O18	0.957270	0.869590	0.408400
O191	O19	0.149100	0.894060	0.707220
O201	O20	0.464420	0.021470	0.774650
O211	O21	0.868790	0.706970	0.058440
O221	O22	0.616050	0.945130	0.928120
O231	O23	0.099170	0.716110	0.784540
O241	O24	0.961190	0.548870	0.091600
