data_AKUKUO_clean_PM
_symmetry_space_group_name_H-M	'P1'
_cell_length_a	8.854500
_cell_length_b	10.672000
_cell_length_c	15.389000
_cell_angle_alpha	76.400000
_cell_angle_beta	78.580000
_cell_angle_gamma	79.920000
_symmetry_Int_Tables_number 1

loop_
_symmetry_equiv_pos_as_xyz
'x,y,z'

loop_
_atom_site_label
_atom_site_type_symbol
_atom_site_fract_x
_atom_site_fract_y
_atom_site_fract_z
Ni11	Ni1	0.807740	0.925260	0.626920
C11	C1	0.824300	0.851300	0.456000
C21	C2	0.812600	0.870600	0.357000
H11	H1	0.869200	0.941700	0.323300
H21	H2	0.864000	0.792700	0.335800
N11	N1	0.653700	0.898700	0.335600
C31	C3	0.539400	0.989600	0.360400
H31	H3	0.549200	0.047800	0.394800
N21	N2	0.412000	0.986400	0.330200
C41	C4	0.445800	0.887100	0.285000
H41	H4	0.377000	0.861100	0.256400
C51	C5	0.595500	0.831700	0.288200
H51	H5	0.647400	0.761800	0.262900
P11	P1	0.715410	0.726950	0.537860
O11	O1	0.772200	0.597100	0.515400
O21	O2	0.726900	0.750000	0.629400
O31	O3	0.537500	0.761600	0.528300
H61	H6	0.527700	0.763000	0.476200
P21	P2	0.034090	0.813870	0.471250
O41	O4	0.091000	0.671200	0.473600
O51	O5	0.032700	0.854100	0.560800
O61	O6	0.117200	0.900300	0.391100
O71	O7	0.765400	0.971200	0.488000
H71	H7	0.828500	0.025900	0.472700
N31	N3	0.995900	0.528500	0.359200
C61	C6	0.879600	0.495300	0.330700
H81	H8	0.811100	0.444900	0.372300
C71	C7	0.856400	0.532400	0.242200
H91	H9	0.769000	0.512200	0.226200
C81	C8	0.957300	0.597000	0.178800
C91	C9	0.087100	0.626500	0.207200
H101	H10	0.162200	0.669600	0.165400
C101	C10	0.100500	0.590600	0.297400
H111	H11	0.185700	0.610400	0.316000
C111	C11	0.930500	0.640100	0.082400
H121	H12	0.879200	0.583900	0.064500
C121	C12	0.961400	0.731500	0.024200
H131	H13	0.021000	0.784300	0.039400
C131	C13	0.923000	0.774600	0.935100
C141	C14	0.920400	0.899000	0.890500
H141	H14	0.939100	0.959300	0.920600
C151	C15	0.892400	0.942000	0.804900
H151	H15	0.893800	0.029500	0.778000
C161	C16	0.844100	0.742000	0.801800
H161	H16	0.809300	0.685800	0.774500
C171	C17	0.875700	0.696600	0.891700
H171	H17	0.863500	0.611400	0.921100
N41	N4	0.861700	0.858800	0.756200
Ni21	Ni2	0.192260	0.074740	0.373080
C181	C18	0.175700	0.148700	0.544000
C191	C19	0.187400	0.129400	0.643000
H181	H18	0.130800	0.058300	0.676700
H191	H19	0.136000	0.207300	0.664200
N51	N5	0.346300	0.101300	0.664400
C201	C20	0.460600	0.010400	0.639600
H201	H20	0.450800	0.952200	0.605200
N61	N6	0.588000	0.013600	0.669800
C211	C21	0.554200	0.112900	0.715000
H211	H21	0.623000	0.138900	0.743600
C221	C22	0.404500	0.168300	0.711800
H221	H22	0.352600	0.238200	0.737100
P31	P3	0.284590	0.273050	0.462140
O81	O8	0.227800	0.402900	0.484600
O91	O9	0.273100	0.250000	0.370600
O101	O10	0.462500	0.238400	0.471700
H231	H23	0.472300	0.237000	0.523800
P41	P4	0.965910	0.186130	0.528750
O111	O11	0.909000	0.328800	0.526400
O121	O12	0.967300	0.145900	0.439200
O131	O13	0.882800	0.099700	0.608900
O141	O14	0.234600	0.028800	0.512000
H241	H24	0.171500	0.974100	0.527300
N71	N7	0.004100	0.471500	0.640800
C231	C23	0.120400	0.504700	0.669300
H251	H25	0.188900	0.555100	0.627700
C241	C24	0.143600	0.467600	0.757800
H261	H26	0.231000	0.487800	0.773800
C251	C25	0.042700	0.403000	0.821200
C261	C26	0.912900	0.373500	0.792800
H271	H27	0.837800	0.330400	0.834600
C271	C27	0.899500	0.409400	0.702600
H281	H28	0.814300	0.389600	0.684000
C281	C28	0.069500	0.359900	0.917600
H291	H29	0.120800	0.416100	0.935500
C291	C29	0.038600	0.268500	0.975800
H301	H30	0.979000	0.215700	0.960600
C301	C30	0.077000	0.225400	0.064900
C311	C31	0.079600	0.101000	0.109500
H311	H31	0.060900	0.040700	0.079400
C321	C32	0.107600	0.058000	0.195100
H321	H32	0.106200	0.970500	0.222000
C331	C33	0.155900	0.258000	0.198200
H331	H33	0.190700	0.314200	0.225500
C341	C34	0.124300	0.303400	0.108300
H341	H34	0.136500	0.388600	0.078900
N81	N8	0.138300	0.141200	0.243800
Ni31	Ni3	0.000000	0.500000	0.500000
