data_ALALUU_clean_PM
_symmetry_space_group_name_H-M	'P1'
_cell_length_a	10.633000
_cell_length_b	10.633000
_cell_length_c	11.011800
_cell_angle_alpha	78.595400
_cell_angle_beta	62.528500
_cell_angle_gamma	108.511000
_symmetry_Int_Tables_number 1

loop_
_symmetry_equiv_pos_as_xyz
'x,y,z'

loop_
_atom_site_label
_atom_site_type_symbol
_atom_site_fract_x
_atom_site_fract_y
_atom_site_fract_z
Pr11	Pr1	0.449840	0.636600	0.619760
Pr21	Pr2	0.756360	0.069600	0.880240
Pr31	Pr3	0.550160	0.363400	0.380240
Pr41	Pr4	0.243640	0.930400	0.119760
H11	H1	0.037300	0.618800	0.688300
H21	H2	0.897700	0.514600	0.855900
H31	H3	0.807100	0.725600	0.811700
H41	H4	0.870500	0.753600	0.644100
H51	H5	0.962700	0.381200	0.311700
H61	H6	0.102300	0.485400	0.144100
H71	H7	0.192900	0.274400	0.188300
H81	H8	0.129500	0.246400	0.355900
C11	C1	0.095400	0.650400	0.832400
C21	C2	0.010100	0.553900	0.780800
C31	C3	0.047300	0.430200	0.757900
C41	C4	0.600300	0.373700	0.624800
C51	C5	0.982800	0.927800	0.667600
C61	C6	0.834700	0.790900	0.719200
C71	C7	0.688100	0.805200	0.742100
C81	C8	0.498500	0.225100	0.875200
C91	C9	0.904600	0.349600	0.167600
C101	C10	0.989900	0.446100	0.219200
C111	C11	0.952700	0.569800	0.242100
C121	C12	0.399700	0.626300	0.375200
C131	C13	0.017200	0.072200	0.332400
C141	C14	0.165300	0.209100	0.280800
C151	C15	0.311900	0.194800	0.257900
C161	C16	0.501500	0.774900	0.124800
C171	C17	0.624800	0.374800	0.750000
C181	C18	0.375200	0.625200	0.250000
O11	O1	0.244390	0.693390	0.773000
O21	O2	0.015100	0.687900	0.928200
O31	O3	0.184700	0.444100	0.709800
O41	O4	0.932800	0.319600	0.784800
O51	O5	0.541300	0.449500	0.591200
O61	O6	0.634740	0.293160	0.560100
O71	O7	0.966390	0.017390	0.727000
O81	O8	0.116100	0.943300	0.571800
O91	O9	0.653900	0.894500	0.790200
O101	O10	0.604400	0.717600	0.715200
O111	O11	0.540700	0.132500	0.908800
O121	O12	0.353260	0.194840	0.939900
O131	O13	0.755610	0.306610	0.227000
O141	O14	0.984900	0.312100	0.071800
O151	O15	0.815300	0.555900	0.290200
O161	O16	0.067200	0.680400	0.215200
O171	O17	0.458700	0.550500	0.408800
O181	O18	0.365260	0.706840	0.439900
O191	O19	0.033610	0.982610	0.273000
O201	O20	0.883900	0.056700	0.428200
O211	O21	0.346100	0.105500	0.209800
O221	O22	0.395600	0.282400	0.284800
O231	O23	0.459300	0.867500	0.091200
O241	O24	0.646740	0.805160	0.060100
