data_ALAMUW_clean_PM
_symmetry_space_group_name_H-M	'P1'
_cell_length_a	18.794000
_cell_length_b	18.794000
_cell_length_c	19.935100
_cell_angle_alpha	61.876100
_cell_angle_beta	61.876100
_cell_angle_gamma	60.000000
_symmetry_Int_Tables_number 1

loop_
_symmetry_equiv_pos_as_xyz
'x,y,z'

loop_
_atom_site_label
_atom_site_type_symbol
_atom_site_fract_x
_atom_site_fract_y
_atom_site_fract_z
Cu11	Cu1	0.067670	0.499140	0.934050
Cu21	Cu2	0.499140	0.499140	0.934050
Cu31	Cu3	0.499140	0.067670	0.934050
Cu41	Cu4	0.932330	0.500860	0.065950
Cu51	Cu5	0.500860	0.932330	0.065950
Cu61	Cu6	0.500860	0.500860	0.065950
H11	H1	0.979200	0.467800	0.793600
H21	H2	0.467800	0.759400	0.793600
H31	H3	0.759400	0.979200	0.793600
H41	H4	0.020800	0.240600	0.206400
H51	H5	0.532200	0.020800	0.206400
H61	H6	0.240600	0.532200	0.206400
H71	H7	0.020800	0.532200	0.206400
H81	H8	0.532200	0.240600	0.206400
H91	H9	0.240600	0.020800	0.206400
H101	H10	0.979200	0.759400	0.793600
H111	H11	0.467800	0.979200	0.793600
H121	H12	0.759400	0.467800	0.793600
H131	H13	0.769400	0.466300	0.994900
H141	H14	0.466300	0.769400	0.994900
H151	H15	0.769400	0.769400	0.994900
H161	H16	0.230600	0.230600	0.005100
H171	H17	0.533700	0.230600	0.005100
H181	H18	0.230600	0.533700	0.005100
H191	H19	0.126300	0.500000	0.500000
H201	H20	0.500000	0.873700	0.500000
H211	H21	0.873700	0.126300	0.500000
H221	H22	0.873700	0.500000	0.500000
H231	H23	0.500000	0.126300	0.500000
H241	H24	0.126300	0.873700	0.500000
C11	C1	0.879070	0.467870	0.898990
C21	C2	0.923160	0.467560	0.819820
C31	C3	0.926080	0.473980	0.939760
C41	C4	0.993900	0.463600	0.658300
C51	C5	0.003200	0.480400	0.569200
C61	C6	0.467870	0.754070	0.898990
C71	C7	0.467560	0.789460	0.819820
C81	C8	0.473980	0.660180	0.939760
C91	C9	0.463600	0.884200	0.658300
C101	C10	0.480400	0.947200	0.569200
C111	C11	0.754070	0.879070	0.898990
C121	C12	0.789460	0.923160	0.819820
C131	C13	0.660180	0.926080	0.939760
C141	C14	0.884200	0.993900	0.658300
C151	C15	0.947200	0.003200	0.569200
C161	C16	0.120930	0.245930	0.101010
C171	C17	0.076840	0.210540	0.180180
C181	C18	0.073920	0.339820	0.060240
C191	C19	0.006100	0.115800	0.341700
C201	C20	0.996800	0.052800	0.430800
C211	C21	0.532130	0.120930	0.101010
C221	C22	0.532440	0.076840	0.180180
C231	C23	0.526020	0.073920	0.060240
C241	C24	0.536400	0.006100	0.341700
C251	C25	0.519600	0.996800	0.430800
C261	C26	0.245930	0.532130	0.101010
C271	C27	0.210540	0.532440	0.180180
C281	C28	0.339820	0.526020	0.060240
C291	C29	0.115800	0.536400	0.341700
C301	C30	0.052800	0.519600	0.430800
C311	C31	0.120930	0.532130	0.101010
C321	C32	0.076840	0.532440	0.180180
C331	C33	0.073920	0.526020	0.060240
C341	C34	0.006100	0.536400	0.341700
C351	C35	0.996800	0.519600	0.430800
C361	C36	0.532130	0.245930	0.101010
C371	C37	0.532440	0.210540	0.180180
C381	C38	0.526020	0.339820	0.060240
C391	C39	0.536400	0.115800	0.341700
C401	C40	0.519600	0.052800	0.430800
C411	C41	0.245930	0.120930	0.101010
C421	C42	0.210540	0.076840	0.180180
C431	C43	0.339820	0.073920	0.060240
C441	C44	0.115800	0.006100	0.341700
C451	C45	0.052800	0.996800	0.430800
C461	C46	0.879070	0.754070	0.898990
C471	C47	0.923160	0.789460	0.819820
C481	C48	0.926080	0.660180	0.939760
C491	C49	0.993900	0.884200	0.658300
C501	C50	0.003200	0.947200	0.569200
C511	C51	0.467870	0.879070	0.898990
C521	C52	0.467560	0.923160	0.819820
C531	C53	0.473980	0.926080	0.939760
C541	C54	0.463600	0.993900	0.658300
C551	C55	0.480400	0.003200	0.569200
C561	C56	0.754070	0.467870	0.898990
C571	C57	0.789460	0.467560	0.819820
C581	C58	0.660180	0.473980	0.939760
C591	C59	0.884200	0.463600	0.658300
C601	C60	0.947200	0.480400	0.569200
C611	C61	0.795560	0.467260	0.941620
C621	C62	0.875000	0.467200	0.782800
C631	C63	0.467260	0.795560	0.941620
C641	C64	0.467200	0.875000	0.782800
C651	C65	0.795560	0.795560	0.941620
C661	C66	0.875000	0.875000	0.782800
C671	C67	0.204440	0.204440	0.058380
C681	C68	0.125000	0.125000	0.217200
C691	C69	0.532740	0.204440	0.058380
C701	C70	0.532800	0.125000	0.217200
C711	C71	0.204440	0.532740	0.058380
C721	C72	0.125000	0.532800	0.217200
C731	C73	0.076800	0.500000	0.500000
C741	C74	0.500000	0.923200	0.500000
C751	C75	0.923200	0.076800	0.500000
C761	C76	0.923200	0.500000	0.500000
C771	C77	0.500000	0.076800	0.500000
C781	C78	0.076800	0.923200	0.500000
N11	N1	0.915400	0.477300	0.691900
N21	N2	0.477300	0.915400	0.691900
N31	N3	0.915400	0.915400	0.691900
N41	N4	0.084600	0.084600	0.308100
N51	N5	0.522700	0.084600	0.308100
N61	N6	0.084600	0.522700	0.308100
O11	O1	0.000850	0.477650	0.897850
O21	O2	0.885330	0.479130	0.010710
O31	O3	0.050000	0.470000	0.670000
O41	O4	0.477650	0.623650	0.897850
O51	O5	0.479130	0.624830	0.010710
O61	O6	0.470000	0.810000	0.670000
O71	O7	0.623650	0.000850	0.897850
O81	O8	0.624830	0.885330	0.010710
O91	O9	0.810000	0.050000	0.670000
O101	O10	0.999150	0.376350	0.102150
O111	O11	0.114670	0.375170	0.989290
O121	O12	0.950000	0.190000	0.330000
O131	O13	0.522350	0.999150	0.102150
O141	O14	0.520870	0.114670	0.989290
O151	O15	0.530000	0.950000	0.330000
O161	O16	0.376350	0.522350	0.102150
O171	O17	0.375170	0.520870	0.989290
O181	O18	0.190000	0.530000	0.330000
O191	O19	0.999150	0.522350	0.102150
O201	O20	0.114670	0.520870	0.989290
O211	O21	0.950000	0.530000	0.330000
O221	O22	0.522350	0.376350	0.102150
O231	O23	0.520870	0.375170	0.989290
O241	O24	0.530000	0.190000	0.330000
O251	O25	0.376350	0.999150	0.102150
O261	O26	0.375170	0.114670	0.989290
O271	O27	0.190000	0.950000	0.330000
O281	O28	0.000850	0.623650	0.897850
O291	O29	0.885330	0.624830	0.010710
O301	O30	0.050000	0.810000	0.670000
O311	O31	0.477650	0.000850	0.897850
O321	O32	0.479130	0.885330	0.010710
O331	O33	0.470000	0.050000	0.670000
O341	O34	0.623650	0.477650	0.897850
O351	O35	0.624830	0.479130	0.010710
O361	O36	0.810000	0.470000	0.670000
