data_ALICAA_clean_PM
_symmetry_space_group_name_H-M	'P1'
_cell_length_a	23.575000
_cell_length_b	23.575000
_cell_length_c	23.575000
_cell_angle_alpha	90.000000
_cell_angle_beta	90.000000
_cell_angle_gamma	90.000000
_symmetry_Int_Tables_number 1

loop_
_symmetry_equiv_pos_as_xyz
'x,y,z'

loop_
_atom_site_label
_atom_site_type_symbol
_atom_site_fract_x
_atom_site_fract_y
_atom_site_fract_z
N11	N1	0.363200	0.430700	0.147800
C11	C1	0.209800	0.554200	0.168800
C21	C2	0.352400	0.397900	0.201600
N21	N2	0.863200	0.930700	0.647800
C31	C3	0.709800	0.054200	0.668800
C41	C4	0.852400	0.897900	0.701600
N31	N3	0.636800	0.569300	0.147800
C51	C5	0.790200	0.445800	0.168800
C61	C6	0.647600	0.602100	0.201600
N41	N4	0.136800	0.069300	0.647800
C71	C7	0.290200	0.945800	0.668800
C81	C8	0.147600	0.102100	0.701600
N51	N5	0.636800	0.430700	0.852200
C91	C9	0.790200	0.554200	0.831200
C101	C10	0.647600	0.397900	0.798400
N61	N6	0.136800	0.930700	0.352200
C111	C11	0.290200	0.054200	0.331200
C121	C12	0.147600	0.897900	0.298400
N71	N7	0.363200	0.569300	0.852200
C131	C13	0.209800	0.445800	0.831200
C141	C14	0.352400	0.602100	0.798400
N81	N8	0.863200	0.069300	0.352200
C151	C15	0.709800	0.945800	0.331200
C161	C16	0.852400	0.102100	0.298400
N91	N9	0.147800	0.363200	0.430700
C171	C17	0.168800	0.209800	0.554200
C181	C18	0.201600	0.352400	0.397900
N101	N10	0.647800	0.863200	0.930700
C191	C19	0.668800	0.709800	0.054200
C201	C20	0.701600	0.852400	0.897900
N111	N11	0.147800	0.636800	0.569300
C211	C21	0.168800	0.790200	0.445800
C221	C22	0.201600	0.647600	0.602100
N121	N12	0.647800	0.136800	0.069300
C231	C23	0.668800	0.290200	0.945800
C241	C24	0.701600	0.147600	0.102100
N131	N13	0.852200	0.636800	0.430700
C251	C25	0.831200	0.790200	0.554200
C261	C26	0.798400	0.647600	0.397900
N141	N14	0.352200	0.136800	0.930700
C271	C27	0.331200	0.290200	0.054200
C281	C28	0.298400	0.147600	0.897900
N151	N15	0.852200	0.363200	0.569300
C291	C29	0.831200	0.209800	0.445800
C301	C30	0.798400	0.352400	0.602100
N161	N16	0.352200	0.863200	0.069300
C311	C31	0.331200	0.709800	0.945800
C321	C32	0.298400	0.852400	0.102100
N171	N17	0.430700	0.147800	0.363200
C331	C33	0.554200	0.168800	0.209800
C341	C34	0.397900	0.201600	0.352400
N181	N18	0.930700	0.647800	0.863200
C351	C35	0.054200	0.668800	0.709800
C361	C36	0.897900	0.701600	0.852400
N191	N19	0.569300	0.147800	0.636800
C371	C37	0.445800	0.168800	0.790200
C381	C38	0.602100	0.201600	0.647600
N201	N20	0.069300	0.647800	0.136800
C391	C39	0.945800	0.668800	0.290200
C401	C40	0.102100	0.701600	0.147600
N211	N21	0.430700	0.852200	0.636800
C411	C41	0.554200	0.831200	0.790200
C421	C42	0.397900	0.798400	0.647600
N221	N22	0.930700	0.352200	0.136800
C431	C43	0.054200	0.331200	0.290200
C441	C44	0.897900	0.298400	0.147600
N231	N23	0.569300	0.852200	0.363200
C451	C45	0.445800	0.831200	0.209800
C461	C46	0.602100	0.798400	0.352400
N241	N24	0.069300	0.352200	0.863200
C471	C47	0.945800	0.331200	0.709800
C481	C48	0.102100	0.298400	0.852400
N251	N25	0.430700	0.363200	0.852200
C491	C49	0.554200	0.209800	0.831200
C501	C50	0.397900	0.352400	0.798400
N261	N26	0.930700	0.863200	0.352200
C511	C51	0.054200	0.709800	0.331200
C521	C52	0.897900	0.852400	0.298400
N271	N27	0.569300	0.636800	0.852200
C531	C53	0.445800	0.790200	0.831200
C541	C54	0.602100	0.647600	0.798400
N281	N28	0.069300	0.136800	0.352200
C551	C55	0.945800	0.290200	0.331200
C561	C56	0.102100	0.147600	0.298400
N291	N29	0.430700	0.636800	0.147800
C571	C57	0.554200	0.790200	0.168800
C581	C58	0.397900	0.647600	0.201600
N301	N30	0.930700	0.136800	0.647800
C591	C59	0.054200	0.290200	0.668800
C601	C60	0.897900	0.147600	0.701600
N311	N31	0.569300	0.363200	0.147800
C611	C61	0.445800	0.209800	0.168800
C621	C62	0.602100	0.352400	0.201600
N321	N32	0.069300	0.863200	0.647800
C631	C63	0.945800	0.709800	0.668800
C641	C64	0.102100	0.852400	0.701600
N331	N33	0.363200	0.147800	0.569300
C651	C65	0.209800	0.168800	0.445800
C661	C66	0.352400	0.201600	0.602100
N341	N34	0.863200	0.647800	0.069300
C671	C67	0.709800	0.668800	0.945800
C681	C68	0.852400	0.701600	0.102100
N351	N35	0.636800	0.147800	0.430700
C691	C69	0.790200	0.168800	0.554200
C701	C70	0.647600	0.201600	0.397900
N361	N36	0.136800	0.647800	0.930700
C711	C71	0.290200	0.668800	0.054200
C721	C72	0.147600	0.701600	0.897900
N371	N37	0.636800	0.852200	0.569300
C731	C73	0.790200	0.831200	0.445800
C741	C74	0.647600	0.798400	0.602100
N381	N38	0.136800	0.352200	0.069300
C751	C75	0.290200	0.331200	0.945800
C761	C76	0.147600	0.298400	0.102100
N391	N39	0.363200	0.852200	0.430700
C771	C77	0.209800	0.831200	0.554200
C781	C78	0.352400	0.798400	0.397900
N401	N40	0.863200	0.352200	0.930700
C791	C79	0.709800	0.331200	0.054200
C801	C80	0.852400	0.298400	0.897900
N411	N41	0.147800	0.430700	0.636800
C811	C81	0.168800	0.554200	0.790200
C821	C82	0.201600	0.397900	0.647600
N421	N42	0.647800	0.930700	0.136800
C831	C83	0.668800	0.054200	0.290200
C841	C84	0.701600	0.897900	0.147600
N431	N43	0.147800	0.569300	0.363200
C851	C85	0.168800	0.445800	0.209800
C861	C86	0.201600	0.602100	0.352400
N441	N44	0.647800	0.069300	0.863200
C871	C87	0.668800	0.945800	0.709800
C881	C88	0.701600	0.102100	0.852400
N451	N45	0.852200	0.430700	0.363200
C891	C89	0.831200	0.554200	0.209800
C901	C90	0.798400	0.397900	0.352400
N461	N46	0.352200	0.930700	0.863200
C911	C91	0.331200	0.054200	0.709800
C921	C92	0.298400	0.897900	0.852400
N471	N47	0.852200	0.569300	0.636800
C931	C93	0.831200	0.445800	0.790200
C941	C94	0.798400	0.602100	0.647600
N481	N48	0.352200	0.069300	0.136800
C951	C95	0.331200	0.945800	0.290200
C961	C96	0.298400	0.102100	0.147600
N491	N49	0.636800	0.569300	0.852200
C971	C97	0.790200	0.445800	0.831200
C981	C98	0.647600	0.602100	0.798400
N501	N50	0.136800	0.069300	0.352200
C991	C99	0.290200	0.945800	0.331200
C1001	C100	0.147600	0.102100	0.298400
N511	N51	0.363200	0.430700	0.852200
C1011	C101	0.209800	0.554200	0.831200
C1021	C102	0.352400	0.397900	0.798400
N521	N52	0.863200	0.930700	0.352200
C1031	C103	0.709800	0.054200	0.331200
C1041	C104	0.852400	0.897900	0.298400
N531	N53	0.363200	0.569300	0.147800
C1051	C105	0.209800	0.445800	0.168800
C1061	C106	0.352400	0.602100	0.201600
N541	N54	0.863200	0.069300	0.647800
C1071	C107	0.709800	0.945800	0.668800
C1081	C108	0.852400	0.102100	0.701600
N551	N55	0.636800	0.430700	0.147800
C1091	C109	0.790200	0.554200	0.168800
C1101	C110	0.647600	0.397900	0.201600
N561	N56	0.136800	0.930700	0.647800
C1111	C111	0.290200	0.054200	0.668800
C1121	C112	0.147600	0.897900	0.701600
N571	N57	0.852200	0.636800	0.569300
C1131	C113	0.831200	0.790200	0.445800
C1141	C114	0.798400	0.647600	0.602100
N581	N58	0.352200	0.136800	0.069300
C1151	C115	0.331200	0.290200	0.945800
C1161	C116	0.298400	0.147600	0.102100
N591	N59	0.852200	0.363200	0.430700
C1171	C117	0.831200	0.209800	0.554200
C1181	C118	0.798400	0.352400	0.397900
N601	N60	0.352200	0.863200	0.930700
C1191	C119	0.331200	0.709800	0.054200
C1201	C120	0.298400	0.852400	0.897900
N611	N61	0.147800	0.363200	0.569300
C1211	C121	0.168800	0.209800	0.445800
C1221	C122	0.201600	0.352400	0.602100
N621	N62	0.647800	0.863200	0.069300
C1231	C123	0.668800	0.709800	0.945800
C1241	C124	0.701600	0.852400	0.102100
N631	N63	0.147800	0.636800	0.430700
C1251	C125	0.168800	0.790200	0.554200
C1261	C126	0.201600	0.647600	0.397900
N641	N64	0.647800	0.136800	0.930700
C1271	C127	0.668800	0.290200	0.054200
C1281	C128	0.701600	0.147600	0.897900
N651	N65	0.569300	0.852200	0.636800
C1291	C129	0.445800	0.831200	0.790200
C1301	C130	0.602100	0.798400	0.647600
N661	N66	0.069300	0.352200	0.136800
C1311	C131	0.945800	0.331200	0.290200
C1321	C132	0.102100	0.298400	0.147600
N671	N67	0.430700	0.852200	0.363200
C1331	C133	0.554200	0.831200	0.209800
C1341	C134	0.397900	0.798400	0.352400
N681	N68	0.930700	0.352200	0.863200
C1351	C135	0.054200	0.331200	0.709800
C1361	C136	0.897900	0.298400	0.852400
N691	N69	0.569300	0.147800	0.363200
C1371	C137	0.445800	0.168800	0.209800
C1381	C138	0.602100	0.201600	0.352400
N701	N70	0.069300	0.647800	0.863200
C1391	C139	0.945800	0.668800	0.709800
C1401	C140	0.102100	0.701600	0.852400
N711	N71	0.430700	0.147800	0.636800
C1411	C141	0.554200	0.168800	0.790200
C1421	C142	0.397900	0.201600	0.647600
N721	N72	0.930700	0.647800	0.136800
C1431	C143	0.054200	0.668800	0.290200
C1441	C144	0.897900	0.701600	0.147600
N731	N73	0.569300	0.636800	0.147800
C1451	C145	0.445800	0.790200	0.168800
C1461	C146	0.602100	0.647600	0.201600
N741	N74	0.069300	0.136800	0.647800
C1471	C147	0.945800	0.290200	0.668800
C1481	C148	0.102100	0.147600	0.701600
N751	N75	0.430700	0.363200	0.147800
C1491	C149	0.554200	0.209800	0.168800
C1501	C150	0.397900	0.352400	0.201600
N761	N76	0.930700	0.863200	0.647800
C1511	C151	0.054200	0.709800	0.668800
C1521	C152	0.897900	0.852400	0.701600
N771	N77	0.569300	0.363200	0.852200
C1531	C153	0.445800	0.209800	0.831200
C1541	C154	0.602100	0.352400	0.798400
N781	N78	0.069300	0.863200	0.352200
C1551	C155	0.945800	0.709800	0.331200
C1561	C156	0.102100	0.852400	0.298400
N791	N79	0.430700	0.636800	0.852200
C1571	C157	0.554200	0.790200	0.831200
C1581	C158	0.397900	0.647600	0.798400
N801	N80	0.930700	0.136800	0.352200
C1591	C159	0.054200	0.290200	0.331200
C1601	C160	0.897900	0.147600	0.298400
N811	N81	0.636800	0.852200	0.430700
C1611	C161	0.790200	0.831200	0.554200
C1621	C162	0.647600	0.798400	0.397900
N821	N82	0.136800	0.352200	0.930700
C1631	C163	0.290200	0.331200	0.054200
C1641	C164	0.147600	0.298400	0.897900
N831	N83	0.363200	0.852200	0.569300
C1651	C165	0.209800	0.831200	0.445800
C1661	C166	0.352400	0.798400	0.602100
N841	N84	0.863200	0.352200	0.069300
C1671	C167	0.709800	0.331200	0.945800
C1681	C168	0.852400	0.298400	0.102100
N851	N85	0.363200	0.147800	0.430700
C1691	C169	0.209800	0.168800	0.554200
C1701	C170	0.352400	0.201600	0.397900
N861	N86	0.863200	0.647800	0.930700
C1711	C171	0.709800	0.668800	0.054200
C1721	C172	0.852400	0.701600	0.897900
N871	N87	0.636800	0.147800	0.569300
C1731	C173	0.790200	0.168800	0.445800
C1741	C174	0.647600	0.201600	0.602100
N881	N88	0.136800	0.647800	0.069300
C1751	C175	0.290200	0.668800	0.945800
C1761	C176	0.147600	0.701600	0.102100
N891	N89	0.852200	0.569300	0.363200
C1771	C177	0.831200	0.445800	0.209800
C1781	C178	0.798400	0.602100	0.352400
N901	N90	0.352200	0.069300	0.863200
C1791	C179	0.331200	0.945800	0.709800
C1801	C180	0.298400	0.102100	0.852400
N911	N91	0.852200	0.430700	0.636800
C1811	C181	0.831200	0.554200	0.790200
C1821	C182	0.798400	0.397900	0.647600
N921	N92	0.352200	0.930700	0.136800
C1831	C183	0.331200	0.054200	0.290200
C1841	C184	0.298400	0.897900	0.147600
N931	N93	0.147800	0.569300	0.636800
C1851	C185	0.168800	0.445800	0.790200
C1861	C186	0.201600	0.602100	0.647600
N941	N94	0.647800	0.069300	0.136800
C1871	C187	0.668800	0.945800	0.290200
C1881	C188	0.701600	0.102100	0.147600
N951	N95	0.147800	0.430700	0.363200
C1891	C189	0.168800	0.554200	0.209800
C1901	C190	0.201600	0.397900	0.352400
N961	N96	0.647800	0.930700	0.863200
C1911	C191	0.668800	0.054200	0.709800
C1921	C192	0.701600	0.897900	0.852400
W11	W1	0.250000	0.500000	0.000000
W21	W2	0.750000	0.500000	0.000000
W31	W3	0.000000	0.250000	0.500000
W41	W4	0.000000	0.750000	0.500000
W51	W5	0.500000	0.250000	0.000000
W61	W6	0.500000	0.000000	0.250000
W71	W7	0.500000	0.000000	0.750000
W81	W8	0.500000	0.750000	0.000000
W91	W9	0.250000	0.000000	0.500000
W101	W10	0.750000	0.000000	0.500000
W111	W11	0.000000	0.500000	0.750000
W121	W12	0.000000	0.500000	0.250000
Zn11	Zn1	0.319840	0.500000	0.138590
N971	N97	0.249300	0.500000	0.184000
O11	O1	0.293000	0.500000	0.059100
Zn21	Zn2	0.819840	0.000000	0.638590
N981	N98	0.749300	0.000000	0.684000
O21	O2	0.793000	0.000000	0.559100
Zn31	Zn3	0.680160	0.500000	0.138590
N991	N99	0.750700	0.500000	0.184000
O31	O3	0.707000	0.500000	0.059100
Zn41	Zn4	0.180160	0.000000	0.638590
N1001	N100	0.250700	0.000000	0.684000
O41	O4	0.207000	0.000000	0.559100
Zn51	Zn5	0.680160	0.500000	0.861410
N1011	N101	0.750700	0.500000	0.816000
O51	O5	0.707000	0.500000	0.940900
Zn61	Zn6	0.180160	0.000000	0.361410
N1021	N102	0.250700	0.000000	0.316000
O61	O6	0.207000	0.000000	0.440900
Zn71	Zn7	0.319840	0.500000	0.861410
N1031	N103	0.249300	0.500000	0.816000
O71	O7	0.293000	0.500000	0.940900
Zn81	Zn8	0.819840	0.000000	0.361410
N1041	N104	0.749300	0.000000	0.316000
O81	O8	0.793000	0.000000	0.440900
Zn91	Zn9	0.138590	0.319840	0.500000
N1051	N105	0.184000	0.249300	0.500000
O91	O9	0.059100	0.293000	0.500000
Zn101	Zn10	0.638590	0.819840	0.000000
N1061	N106	0.684000	0.749300	0.000000
O101	O10	0.559100	0.793000	0.000000
Zn111	Zn11	0.138590	0.680160	0.500000
N1071	N107	0.184000	0.750700	0.500000
O111	O11	0.059100	0.707000	0.500000
Zn121	Zn12	0.638590	0.180160	0.000000
N1081	N108	0.684000	0.250700	0.000000
O121	O12	0.559100	0.207000	0.000000
Zn131	Zn13	0.861410	0.680160	0.500000
N1091	N109	0.816000	0.750700	0.500000
O131	O13	0.940900	0.707000	0.500000
Zn141	Zn14	0.361410	0.180160	0.000000
N1101	N110	0.316000	0.250700	0.000000
O141	O14	0.440900	0.207000	0.000000
Zn151	Zn15	0.861410	0.319840	0.500000
N1111	N111	0.816000	0.249300	0.500000
O151	O15	0.940900	0.293000	0.500000
Zn161	Zn16	0.361410	0.819840	0.000000
N1121	N112	0.316000	0.749300	0.000000
O161	O16	0.440900	0.793000	0.000000
Zn171	Zn17	0.500000	0.138590	0.319840
N1131	N113	0.500000	0.184000	0.249300
O171	O17	0.500000	0.059100	0.293000
Zn181	Zn18	0.000000	0.638590	0.819840
N1141	N114	0.000000	0.684000	0.749300
O181	O18	0.000000	0.559100	0.793000
Zn191	Zn19	0.500000	0.138590	0.680160
N1151	N115	0.500000	0.184000	0.750700
O191	O19	0.500000	0.059100	0.707000
Zn201	Zn20	0.000000	0.638590	0.180160
N1161	N116	0.000000	0.684000	0.250700
O201	O20	0.000000	0.559100	0.207000
Zn211	Zn21	0.500000	0.861410	0.680160
N1171	N117	0.500000	0.816000	0.750700
O211	O21	0.500000	0.940900	0.707000
Zn221	Zn22	0.000000	0.361410	0.180160
N1181	N118	0.000000	0.316000	0.250700
O221	O22	0.000000	0.440900	0.207000
Zn231	Zn23	0.500000	0.861410	0.319840
N1191	N119	0.500000	0.816000	0.249300
O231	O23	0.500000	0.940900	0.293000
Zn241	Zn24	0.000000	0.361410	0.819840
N1201	N120	0.000000	0.316000	0.749300
O241	O24	0.000000	0.440900	0.793000
Zn251	Zn25	0.500000	0.319840	0.861410
N1211	N121	0.500000	0.249300	0.816000
O251	O25	0.500000	0.293000	0.940900
Zn261	Zn26	0.000000	0.819840	0.361410
N1221	N122	0.000000	0.749300	0.316000
O261	O26	0.000000	0.793000	0.440900
Zn271	Zn27	0.500000	0.680160	0.861410
N1231	N123	0.500000	0.750700	0.816000
O271	O27	0.500000	0.707000	0.940900
Zn281	Zn28	0.000000	0.180160	0.361410
N1241	N124	0.000000	0.250700	0.316000
O281	O28	0.000000	0.207000	0.440900
Zn291	Zn29	0.500000	0.680160	0.138590
N1251	N125	0.500000	0.750700	0.184000
O291	O29	0.500000	0.707000	0.059100
Zn301	Zn30	0.000000	0.180160	0.638590
N1261	N126	0.000000	0.250700	0.684000
O301	O30	0.000000	0.207000	0.559100
Zn311	Zn31	0.500000	0.319840	0.138590
N1271	N127	0.500000	0.249300	0.184000
O311	O31	0.500000	0.293000	0.059100
Zn321	Zn32	0.000000	0.819840	0.638590
N1281	N128	0.000000	0.749300	0.684000
O321	O32	0.000000	0.793000	0.559100
Zn331	Zn33	0.319840	0.138590	0.500000
N1291	N129	0.249300	0.184000	0.500000
O331	O33	0.293000	0.059100	0.500000
Zn341	Zn34	0.819840	0.638590	0.000000
N1301	N130	0.749300	0.684000	0.000000
O341	O34	0.793000	0.559100	0.000000
Zn351	Zn35	0.680160	0.138590	0.500000
N1311	N131	0.750700	0.184000	0.500000
O351	O35	0.707000	0.059100	0.500000
Zn361	Zn36	0.180160	0.638590	0.000000
N1321	N132	0.250700	0.684000	0.000000
O361	O36	0.207000	0.559100	0.000000
Zn371	Zn37	0.680160	0.861410	0.500000
N1331	N133	0.750700	0.816000	0.500000
O371	O37	0.707000	0.940900	0.500000
Zn381	Zn38	0.180160	0.361410	0.000000
N1341	N134	0.250700	0.316000	0.000000
O381	O38	0.207000	0.440900	0.000000
Zn391	Zn39	0.319840	0.861410	0.500000
N1351	N135	0.249300	0.816000	0.500000
O391	O39	0.293000	0.940900	0.500000
Zn401	Zn40	0.819840	0.361410	0.000000
N1361	N136	0.749300	0.316000	0.000000
O401	O40	0.793000	0.440900	0.000000
Zn411	Zn41	0.138590	0.500000	0.680160
N1371	N137	0.184000	0.500000	0.750700
O411	O41	0.059100	0.500000	0.707000
Zn421	Zn42	0.638590	0.000000	0.180160
N1381	N138	0.684000	0.000000	0.250700
O421	O42	0.559100	0.000000	0.207000
Zn431	Zn43	0.138590	0.500000	0.319840
N1391	N139	0.184000	0.500000	0.249300
O431	O43	0.059100	0.500000	0.293000
Zn441	Zn44	0.638590	0.000000	0.819840
N1401	N140	0.684000	0.000000	0.749300
O441	O44	0.559100	0.000000	0.793000
Zn451	Zn45	0.861410	0.500000	0.319840
N1411	N141	0.816000	0.500000	0.249300
O451	O45	0.940900	0.500000	0.293000
Zn461	Zn46	0.361410	0.000000	0.819840
N1421	N142	0.316000	0.000000	0.749300
O461	O46	0.440900	0.000000	0.793000
Zn471	Zn47	0.861410	0.500000	0.680160
N1431	N143	0.816000	0.500000	0.750700
O471	O47	0.940900	0.500000	0.707000
Zn481	Zn48	0.361410	0.000000	0.180160
N1441	N144	0.316000	0.000000	0.250700
O481	O48	0.440900	0.000000	0.207000
C1931	C193	0.229300	0.500000	0.229300
C1941	C194	0.729300	0.000000	0.729300
C1951	C195	0.770700	0.500000	0.229300
C1961	C196	0.270700	0.000000	0.729300
C1971	C197	0.770700	0.500000	0.770700
C1981	C198	0.270700	0.000000	0.270700
C1991	C199	0.229300	0.500000	0.770700
C2001	C200	0.729300	0.000000	0.270700
C2011	C201	0.229300	0.229300	0.500000
C2021	C202	0.729300	0.729300	0.000000
C2031	C203	0.229300	0.770700	0.500000
C2041	C204	0.729300	0.270700	0.000000
C2051	C205	0.770700	0.770700	0.500000
C2061	C206	0.270700	0.270700	0.000000
C2071	C207	0.770700	0.229300	0.500000
C2081	C208	0.270700	0.729300	0.000000
C2091	C209	0.500000	0.229300	0.229300
C2101	C210	0.000000	0.729300	0.729300
C2111	C211	0.500000	0.229300	0.770700
C2121	C212	0.000000	0.729300	0.270700
C2131	C213	0.500000	0.770700	0.770700
C2141	C214	0.000000	0.270700	0.270700
C2151	C215	0.500000	0.770700	0.229300
C2161	C216	0.000000	0.270700	0.729300
C2171	C217	0.409100	0.409100	0.138800
C2181	C218	0.909100	0.909100	0.638800
C2191	C219	0.590900	0.590900	0.138800
C2201	C220	0.090900	0.090900	0.638800
C2211	C221	0.590900	0.409100	0.861200
C2221	C222	0.090900	0.909100	0.361200
C2231	C223	0.409100	0.590900	0.861200
C2241	C224	0.909100	0.090900	0.361200
C2251	C225	0.138800	0.409100	0.409100
C2261	C226	0.638800	0.909100	0.909100
C2271	C227	0.138800	0.590900	0.590900
C2281	C228	0.638800	0.090900	0.090900
C2291	C229	0.861200	0.590900	0.409100
C2301	C230	0.361200	0.090900	0.909100
C2311	C231	0.861200	0.409100	0.590900
C2321	C232	0.361200	0.909100	0.090900
C2331	C233	0.409100	0.138800	0.409100
C2341	C234	0.909100	0.638800	0.909100
C2351	C235	0.590900	0.138800	0.590900
C2361	C236	0.090900	0.638800	0.090900
C2371	C237	0.409100	0.861200	0.590900
C2381	C238	0.909100	0.361200	0.090900
C2391	C239	0.590900	0.861200	0.409100
C2401	C240	0.090900	0.361200	0.909100
C2411	C241	0.409100	0.409100	0.861200
C2421	C242	0.909100	0.909100	0.361200
C2431	C243	0.590900	0.590900	0.861200
C2441	C244	0.090900	0.090900	0.361200
C2451	C245	0.409100	0.590900	0.138800
C2461	C246	0.909100	0.090900	0.638800
C2471	C247	0.590900	0.409100	0.138800
C2481	C248	0.090900	0.909100	0.638800
C2491	C249	0.409100	0.138800	0.590900
C2501	C250	0.909100	0.638800	0.090900
C2511	C251	0.590900	0.138800	0.409100
C2521	C252	0.090900	0.638800	0.909100
C2531	C253	0.590900	0.861200	0.590900
C2541	C254	0.090900	0.361200	0.090900
C2551	C255	0.409100	0.861200	0.409100
C2561	C256	0.909100	0.361200	0.909100
C2571	C257	0.138800	0.409100	0.590900
C2581	C258	0.638800	0.909100	0.090900
C2591	C259	0.138800	0.590900	0.409100
C2601	C260	0.638800	0.090900	0.909100
C2611	C261	0.861200	0.409100	0.409100
C2621	C262	0.361200	0.909100	0.909100
C2631	C263	0.861200	0.590900	0.590900
C2641	C264	0.361200	0.090900	0.090900
