data_ALULID_clean_PM
_symmetry_space_group_name_H-M	'P1'
_cell_length_a	15.742800
_cell_length_b	16.556200
_cell_length_c	16.976000
_cell_angle_alpha	99.866000
_cell_angle_beta	95.617000
_cell_angle_gamma	115.060000
_symmetry_Int_Tables_number 1

loop_
_symmetry_equiv_pos_as_xyz
'x,y,z'

loop_
_atom_site_label
_atom_site_type_symbol
_atom_site_fract_x
_atom_site_fract_y
_atom_site_fract_z
Ce11	Ce1	0.471060	0.460710	0.365480
Ce21	Ce2	0.446980	0.517380	0.139740
Ce31	Ce3	0.528940	0.539290	0.634520
Ce41	Ce4	0.553020	0.482620	0.860260
H11	H1	0.763100	0.514700	0.139900
H21	H2	0.896700	0.492700	0.189300
H31	H3	0.872700	0.584800	0.414400
H41	H4	0.725600	0.573400	0.363900
H51	H5	0.116200	0.494400	0.318900
H61	H6	0.251200	0.485400	0.371600
H71	H7	0.265600	0.627300	0.588300
H81	H8	0.128400	0.637700	0.541500
H91	H9	0.441800	0.238000	0.104100
H101	H10	0.450000	0.099900	0.090800
H111	H11	0.517300	0.117600	0.875400
H121	H12	0.525300	0.262400	0.894000
H131	H13	0.123800	0.228800	0.260400
H141	H14	0.012500	0.087100	0.179100
H151	H15	0.157100	0.131100	0.998100
H161	H16	0.272400	0.266400	0.082900
H171	H17	0.279200	0.254000	0.617100
H181	H18	0.136400	0.124400	0.605200
H191	H19	0.098600	0.080600	0.361100
H201	H20	0.243500	0.208600	0.374800
H211	H21	0.553600	0.836800	0.281900
H221	H22	0.546600	0.958000	0.369100
H231	H23	0.442600	0.801100	0.521300
H241	H24	0.440700	0.679600	0.433600
H251	H25	0.236900	0.485300	0.860100
H261	H26	0.103300	0.507300	0.810700
H271	H27	0.127300	0.415200	0.585600
H281	H28	0.274400	0.426600	0.636100
H291	H29	0.883800	0.505600	0.681100
H301	H30	0.748800	0.514600	0.628400
H311	H31	0.734400	0.372700	0.411700
H321	H32	0.871600	0.362300	0.458500
H331	H33	0.558200	0.762000	0.895900
H341	H34	0.550000	0.900100	0.909200
H351	H35	0.482700	0.882400	0.124600
H361	H36	0.474700	0.737600	0.106000
H371	H37	0.876200	0.771200	0.739600
H381	H38	0.987500	0.912900	0.820900
H391	H39	0.842900	0.868900	0.001900
H401	H40	0.727600	0.733600	0.917100
H411	H41	0.720800	0.746000	0.382900
H421	H42	0.863600	0.875600	0.394800
H431	H43	0.901400	0.919400	0.638900
H441	H44	0.756500	0.791400	0.625200
H451	H45	0.446400	0.163200	0.718100
H461	H46	0.453400	0.042000	0.630900
H471	H47	0.557400	0.198900	0.478700
H481	H48	0.559300	0.320400	0.566400
C11	C1	0.730600	0.543300	0.248300
C21	C2	0.782900	0.524000	0.195600
C31	C3	0.867400	0.517800	0.224100
C41	C4	0.903500	0.551800	0.307400
C51	C5	0.850600	0.569000	0.358400
C61	C6	0.762800	0.563200	0.327900
C71	C7	0.106600	0.561800	0.427300
C81	C8	0.144400	0.519200	0.373700
C91	C9	0.226500	0.515800	0.406500
C101	C10	0.275400	0.553400	0.486400
C111	C11	0.235000	0.599100	0.534400
C121	C12	0.152100	0.605500	0.507300
C131	C13	0.360700	0.547600	0.517800
C141	C14	0.486100	0.264100	0.002500
C151	C15	0.462300	0.216100	0.059300
C161	C16	0.467800	0.134200	0.051900
C171	C17	0.500000	0.104300	0.986400
C181	C18	0.510000	0.145600	0.924900
C191	C19	0.509600	0.229600	0.934100
C201	C20	0.286000	0.346300	0.234200
C211	C21	0.209500	0.260700	0.177400
C221	C22	0.131000	0.208500	0.208000
C231	C23	0.063400	0.124900	0.158300
C241	C24	0.070000	0.097500	0.080900
C251	C25	0.150100	0.150100	0.050900
C261	C26	0.218400	0.231100	0.101800
C271	C27	0.364800	0.330600	0.501300
C281	C28	0.275700	0.245800	0.496900
C291	C29	0.243300	0.219400	0.565700
C301	C30	0.157600	0.141600	0.558700
C311	C31	0.104000	0.089900	0.482300
C321	C32	0.134800	0.114700	0.412500
C331	C33	0.221400	0.192300	0.421300
C341	C34	0.492000	0.663900	0.289900
C351	C35	0.491200	0.742400	0.348400
C361	C36	0.528000	0.828500	0.328700
C371	C37	0.524600	0.901100	0.382100
C381	C38	0.490100	0.891500	0.452500
C391	C39	0.461900	0.808400	0.471900
C401	C40	0.461900	0.735800	0.419300
C411	C41	0.479100	0.351800	0.013700
C421	C42	0.636300	0.532000	0.215500
C431	C43	0.269400	0.456700	0.751700
C441	C44	0.217100	0.476000	0.804400
C451	C45	0.132600	0.482200	0.775900
C461	C46	0.096500	0.448200	0.692600
C471	C47	0.149400	0.431000	0.641600
C481	C48	0.237200	0.436800	0.672100
C491	C49	0.893400	0.438200	0.572700
C501	C50	0.855600	0.480800	0.626300
C511	C51	0.773500	0.484200	0.593500
C521	C52	0.724600	0.446600	0.513600
C531	C53	0.765000	0.400900	0.465600
C541	C54	0.847900	0.394500	0.492700
C551	C55	0.639300	0.452400	0.482200
C561	C56	0.513900	0.735900	0.997500
C571	C57	0.537700	0.783900	0.940700
C581	C58	0.532200	0.865800	0.948100
C591	C59	0.500000	0.895700	0.013600
C601	C60	0.490000	0.854400	0.075100
C611	C61	0.490400	0.770400	0.065900
C621	C62	0.714000	0.653700	0.765800
C631	C63	0.790500	0.739300	0.822600
C641	C64	0.869000	0.791500	0.792000
C651	C65	0.936600	0.875100	0.841700
C661	C66	0.930000	0.902500	0.919100
C671	C67	0.849900	0.849900	0.949100
C681	C68	0.781600	0.768900	0.898200
C691	C69	0.635200	0.669400	0.498700
C701	C70	0.724300	0.754200	0.503100
C711	C71	0.756700	0.780600	0.434300
C721	C72	0.842400	0.858400	0.441300
C731	C73	0.896000	0.910100	0.517700
C741	C74	0.865200	0.885300	0.587500
C751	C75	0.778600	0.807700	0.578700
C761	C76	0.508000	0.336100	0.710100
C771	C77	0.508800	0.257600	0.651600
C781	C78	0.472000	0.171500	0.671300
C791	C79	0.475400	0.098900	0.617900
C801	C80	0.509900	0.108500	0.547500
C811	C81	0.538100	0.191600	0.528100
C821	C82	0.538100	0.264200	0.580700
C831	C83	0.520900	0.648200	0.986300
C841	C84	0.363700	0.468000	0.784500
N11	N1	0.992000	0.546000	0.331500
N21	N2	0.022300	0.572100	0.403800
N31	N3	0.504900	0.016100	0.970800
N41	N4	0.994700	0.012500	0.034000
N51	N5	0.012800	0.007800	0.468600
N61	N6	0.488900	0.964500	0.510600
N71	N7	0.008000	0.454000	0.668500
N81	N8	0.977700	0.427900	0.596200
N91	N9	0.495100	0.983900	0.029200
N101	N10	0.005300	0.987500	0.966000
N111	N11	0.987200	0.992200	0.531400
N121	N12	0.511100	0.035500	0.489400
O11	O1	0.569400	0.505800	0.253600
O21	O2	0.625100	0.551000	0.152000
O31	O3	0.393900	0.575900	0.591500
O41	O4	0.400900	0.517400	0.468500
O51	O5	0.455500	0.379400	0.077900
O61	O6	0.352200	0.398400	0.204100
O71	O7	0.286700	0.361900	0.307200
O81	O8	0.399700	0.338300	0.440100
O91	O9	0.398200	0.385300	0.569800
O101	O10	0.445000	0.584000	0.302200
O111	O11	0.532400	0.678200	0.230900
O121	O12	0.504900	0.398300	0.962500
O131	O13	0.430600	0.494200	0.746400
O141	O14	0.374900	0.449000	0.848000
O151	O15	0.606100	0.424100	0.408500
O161	O16	0.599100	0.482600	0.531500
O171	O17	0.544500	0.620600	0.922100
O181	O18	0.647800	0.601600	0.795900
O191	O19	0.713300	0.638100	0.692800
O201	O20	0.600300	0.661700	0.559900
O211	O21	0.601800	0.614700	0.430200
O221	O22	0.555000	0.416000	0.697800
O231	O23	0.467600	0.321800	0.769100
O241	O24	0.495100	0.601700	0.037500
