data_ALULAV_clean_PM
_symmetry_space_group_name_H-M	'P1'
_cell_length_a	16.063600
_cell_length_b	16.063600
_cell_length_c	27.915000
_cell_angle_alpha	79.890200
_cell_angle_beta	79.890200
_cell_angle_gamma	63.176300
_symmetry_Int_Tables_number 1

loop_
_symmetry_equiv_pos_as_xyz
'x,y,z'

loop_
_atom_site_label
_atom_site_type_symbol
_atom_site_fract_x
_atom_site_fract_y
_atom_site_fract_z
Gd11	Gd1	0.531270	0.066570	0.046110
Gd21	Gd2	0.933430	0.468730	0.453890
Gd31	Gd3	0.468730	0.933430	0.953890
Gd41	Gd4	0.066570	0.531270	0.546110
H11	H1	0.633700	0.064900	0.203500
H21	H2	0.707700	0.106500	0.253500
H31	H3	0.841200	0.194800	0.133500
H41	H4	0.760300	0.159900	0.085500
H51	H5	0.675200	0.172400	0.910100
H61	H6	0.738600	0.233400	0.841400
H71	H7	0.632800	0.134000	0.757500
H81	H8	0.569200	0.067800	0.829400
H91	H9	0.176200	0.210800	0.944300
H101	H10	0.050400	0.353800	0.957100
H111	H11	0.193300	0.411900	0.039300
H121	H12	0.318100	0.267500	0.031300
H131	H13	0.935100	0.366300	0.296500
H141	H14	0.893500	0.292300	0.246500
H151	H15	0.805200	0.158800	0.366500
H161	H16	0.840100	0.239700	0.414500
H171	H17	0.827600	0.324800	0.589900
H181	H18	0.766600	0.261400	0.658600
H191	H19	0.866000	0.367200	0.742500
H201	H20	0.932200	0.430800	0.670600
H211	H21	0.789200	0.823800	0.555700
H221	H22	0.646200	0.949600	0.542900
H231	H23	0.588100	0.806700	0.460700
H241	H24	0.732500	0.681900	0.468700
H251	H25	0.366300	0.935100	0.796500
H261	H26	0.292300	0.893500	0.746500
H271	H27	0.158800	0.805200	0.866500
H281	H28	0.239700	0.840100	0.914500
H291	H29	0.324800	0.827600	0.089900
H301	H30	0.261400	0.766600	0.158600
H311	H31	0.367200	0.866000	0.242500
H321	H32	0.430800	0.932200	0.170600
H331	H33	0.823800	0.789200	0.055700
H341	H34	0.949600	0.646200	0.042900
H351	H35	0.806700	0.588100	0.960700
H361	H36	0.681900	0.732500	0.968700
H371	H37	0.064900	0.633700	0.703500
H381	H38	0.106500	0.707700	0.753500
H391	H39	0.194800	0.841200	0.633500
H401	H40	0.159900	0.760300	0.585500
H411	H41	0.172400	0.675200	0.410100
H421	H42	0.233400	0.738600	0.341400
H431	H43	0.134000	0.632800	0.257500
H441	H44	0.067800	0.569200	0.329400
H451	H45	0.210800	0.176200	0.444300
H461	H46	0.353800	0.050400	0.457100
H471	H47	0.411900	0.193300	0.539300
H481	H48	0.267500	0.318100	0.531300
C11	C1	0.644900	0.076500	0.109890
C21	C2	0.704200	0.092800	0.138830
C31	C3	0.678200	0.087000	0.189900
C41	C4	0.720100	0.114700	0.219640
C51	C5	0.780100	0.154500	0.198800
C61	C6	0.800000	0.169000	0.147430
C71	C7	0.755700	0.143100	0.119110
C81	C8	0.578700	0.075900	0.923050
C91	C9	0.618000	0.113000	0.877160
C101	C10	0.667400	0.163200	0.879490
C111	C11	0.705200	0.200200	0.838800
C121	C12	0.692900	0.187300	0.795400
C131	C13	0.641500	0.139700	0.788600
C141	C14	0.603300	0.100700	0.831650
C151	C15	0.335300	0.129700	0.980960
C161	C16	0.259460	0.223060	0.987510
C171	C17	0.179100	0.249900	0.964180
C181	C18	0.104900	0.335700	0.971500
C191	C19	0.110330	0.397730	0.001010
C201	C20	0.189200	0.370800	0.021160
C211	C21	0.264740	0.284740	0.016140
C221	C22	0.923500	0.355100	0.390110
C231	C23	0.907200	0.295800	0.361170
C241	C24	0.913000	0.321800	0.310100
C251	C25	0.885300	0.279900	0.280360
C261	C26	0.845500	0.219900	0.301200
C271	C27	0.831000	0.200000	0.352570
C281	C28	0.856900	0.244300	0.380890
C291	C29	0.924100	0.421300	0.576950
C301	C30	0.887000	0.382000	0.622840
C311	C31	0.836800	0.332600	0.620510
C321	C32	0.799800	0.294800	0.661200
C331	C33	0.812700	0.307100	0.704600
C341	C34	0.860300	0.358500	0.711400
C351	C35	0.899300	0.396700	0.668350
C361	C36	0.870300	0.664700	0.519040
C371	C37	0.776940	0.740540	0.512490
C381	C38	0.750100	0.820900	0.535820
C391	C39	0.664300	0.895100	0.528500
C401	C40	0.602270	0.889670	0.498990
C411	C41	0.629200	0.810800	0.478840
C421	C42	0.715260	0.735260	0.483860
C431	C43	0.355100	0.923500	0.890110
C441	C44	0.295800	0.907200	0.861170
C451	C45	0.321800	0.913000	0.810100
C461	C46	0.279900	0.885300	0.780360
C471	C47	0.219900	0.845500	0.801200
C481	C48	0.200000	0.831000	0.852570
C491	C49	0.244300	0.856900	0.880890
C501	C50	0.421300	0.924100	0.076950
C511	C51	0.382000	0.887000	0.122840
C521	C52	0.332600	0.836800	0.120510
C531	C53	0.294800	0.799800	0.161200
C541	C54	0.307100	0.812700	0.204600
C551	C55	0.358500	0.860300	0.211400
C561	C56	0.396700	0.899300	0.168350
C571	C57	0.664700	0.870300	0.019040
C581	C58	0.740540	0.776940	0.012490
C591	C59	0.820900	0.750100	0.035820
C601	C60	0.895100	0.664300	0.028500
C611	C61	0.889670	0.602270	0.998990
C621	C62	0.810800	0.629200	0.978840
C631	C63	0.735260	0.715260	0.983860
C641	C64	0.076500	0.644900	0.609890
C651	C65	0.092800	0.704200	0.638830
C661	C66	0.087000	0.678200	0.689900
C671	C67	0.114700	0.720100	0.719640
C681	C68	0.154500	0.780100	0.698800
C691	C69	0.169000	0.800000	0.647430
C701	C70	0.143100	0.755700	0.619110
C711	C71	0.075900	0.578700	0.423050
C721	C72	0.113000	0.618000	0.377160
C731	C73	0.163200	0.667400	0.379490
C741	C74	0.200200	0.705200	0.338800
C751	C75	0.187300	0.692900	0.295400
C761	C76	0.139700	0.641500	0.288600
C771	C77	0.100700	0.603300	0.331650
C781	C78	0.129700	0.335300	0.480960
C791	C79	0.223060	0.259460	0.487510
C801	C80	0.249900	0.179100	0.464180
C811	C81	0.335700	0.104900	0.471500
C821	C82	0.397730	0.110330	0.501010
C831	C83	0.370800	0.189200	0.521160
C841	C84	0.284740	0.264740	0.516140
N11	N1	0.820160	0.190760	0.225220
N21	N2	0.723740	0.225940	0.750950
N31	N3	0.044270	0.484270	0.005150
N41	N4	0.809240	0.179840	0.274780
N51	N5	0.774060	0.276260	0.749050
N61	N6	0.515730	0.955730	0.494850
N71	N7	0.179840	0.809240	0.774780
N81	N8	0.276260	0.774060	0.249050
N91	N9	0.955730	0.515730	0.994850
N101	N10	0.190760	0.820160	0.725220
N111	N11	0.225940	0.723740	0.250950
N121	N12	0.484270	0.044270	0.505150
O11	O1	0.590430	0.041850	0.126060
O21	O2	0.656550	0.103550	0.063490
O31	O3	0.592330	0.084630	0.964940
O41	O4	0.530910	0.036310	0.914010
O51	O5	0.402920	0.103720	0.002890
O61	O6	0.324720	0.079400	0.953840
O71	O7	0.958150	0.409570	0.373940
O81	O8	0.896450	0.343450	0.436510
O91	O9	0.915370	0.407670	0.535060
O101	O10	0.963690	0.469090	0.585990
O111	O11	0.896280	0.597080	0.497110
O121	O12	0.920600	0.675280	0.546160
O131	O13	0.409570	0.958150	0.873940
O141	O14	0.343450	0.896450	0.936510
O151	O15	0.407670	0.915370	0.035060
O161	O16	0.469090	0.963690	0.085990
O171	O17	0.597080	0.896280	0.997110
O181	O18	0.675280	0.920600	0.046160
O191	O19	0.041850	0.590430	0.626060
O201	O20	0.103550	0.656550	0.563490
O211	O21	0.084630	0.592330	0.464940
O221	O22	0.036310	0.530910	0.414010
O231	O23	0.103720	0.402920	0.502890
O241	O24	0.079400	0.324720	0.453840
