data_AMALND_clean_PM
_symmetry_space_group_name_H-M	'P1'
_cell_length_a	11.258000
_cell_length_b	12.602000
_cell_length_c	14.689000
_cell_angle_alpha	90.000000
_cell_angle_beta	90.000000
_cell_angle_gamma	90.000000
_symmetry_Int_Tables_number 1

loop_
_symmetry_equiv_pos_as_xyz
'x,y,z'

loop_
_atom_site_label
_atom_site_type_symbol
_atom_site_fract_x
_atom_site_fract_y
_atom_site_fract_z
C11	C1	0.032500	0.013100	0.167500
C21	C2	0.303200	0.884000	0.076400
C31	C3	0.385500	0.950600	0.136200
C41	C4	0.429500	0.054600	0.096600
Nd11	Nd1	0.149170	0.113430	0.007410
O11	O1	0.103800	0.085000	0.175000
O21	O2	0.983300	0.991200	0.091100
O31	O3	0.219900	0.930300	0.030700
O41	O4	0.314700	0.784500	0.075200
O51	O5	0.354500	0.116200	0.060400
O61	O6	0.534300	0.071100	0.095200
C51	C5	0.467500	0.486900	0.667500
C61	C6	0.196800	0.616000	0.576400
C71	C7	0.114500	0.549400	0.636200
C81	C8	0.070500	0.445400	0.596600
Nd21	Nd2	0.350830	0.386570	0.507410
O71	O7	0.396200	0.415000	0.675000
O81	O8	0.516700	0.508800	0.591100
O91	O9	0.280100	0.569700	0.530700
O101	O10	0.185300	0.715500	0.575200
O111	O11	0.145500	0.383800	0.560400
O121	O12	0.965700	0.428900	0.595200
C91	C9	0.967500	0.013100	0.332500
C101	C10	0.696800	0.884000	0.423600
C111	C11	0.614500	0.950600	0.363800
C121	C12	0.570500	0.054600	0.403400
Nd31	Nd3	0.850830	0.113430	0.492590
O131	O13	0.896200	0.085000	0.325000
O141	O14	0.016700	0.991200	0.408900
O151	O15	0.780100	0.930300	0.469300
O161	O16	0.685300	0.784500	0.424800
O171	O17	0.645500	0.116200	0.439600
O181	O18	0.465700	0.071100	0.404800
C131	C13	0.532500	0.486900	0.832500
C141	C14	0.803200	0.616000	0.923600
C151	C15	0.885500	0.549400	0.863800
C161	C16	0.929500	0.445400	0.903400
Nd41	Nd4	0.649170	0.386570	0.992590
O191	O19	0.603800	0.415000	0.825000
O201	O20	0.483300	0.508800	0.908900
O211	O21	0.719900	0.569700	0.969300
O221	O22	0.814700	0.715500	0.924800
O231	O23	0.854500	0.383800	0.939600
O241	O24	0.034300	0.428900	0.904800
C171	C17	0.967500	0.986900	0.832500
C181	C18	0.696800	0.116000	0.923600
C191	C19	0.614500	0.049400	0.863800
C201	C20	0.570500	0.945400	0.903400
Nd51	Nd5	0.850830	0.886570	0.992590
O251	O25	0.896200	0.915000	0.825000
O261	O26	0.016700	0.008800	0.908900
O271	O27	0.780100	0.069700	0.969300
O281	O28	0.685300	0.215500	0.924800
O291	O29	0.645500	0.883800	0.939600
O301	O30	0.465700	0.928900	0.904800
C211	C21	0.532500	0.513100	0.332500
C221	C22	0.803200	0.384000	0.423600
C231	C23	0.885500	0.450600	0.363800
C241	C24	0.929500	0.554600	0.403400
Nd61	Nd6	0.649170	0.613430	0.492590
O311	O31	0.603800	0.585000	0.325000
O321	O32	0.483300	0.491200	0.408900
O331	O33	0.719900	0.430300	0.469300
O341	O34	0.814700	0.284500	0.424800
O351	O35	0.854500	0.616200	0.439600
O361	O36	0.034300	0.571100	0.404800
C251	C25	0.032500	0.986900	0.667500
C261	C26	0.303200	0.116000	0.576400
C271	C27	0.385500	0.049400	0.636200
C281	C28	0.429500	0.945400	0.596600
Nd71	Nd7	0.149170	0.886570	0.507410
O371	O37	0.103800	0.915000	0.675000
O381	O38	0.983300	0.008800	0.591100
O391	O39	0.219900	0.069700	0.530700
O401	O40	0.314700	0.215500	0.575200
O411	O41	0.354500	0.883800	0.560400
O421	O42	0.534300	0.928900	0.595200
C291	C29	0.467500	0.513100	0.167500
C301	C30	0.196800	0.384000	0.076400
C311	C31	0.114500	0.450600	0.136200
C321	C32	0.070500	0.554600	0.096600
Nd81	Nd8	0.350830	0.613430	0.007410
O431	O43	0.396200	0.585000	0.175000
O441	O44	0.516700	0.491200	0.091100
O451	O45	0.280100	0.430300	0.030700
O461	O46	0.185300	0.284500	0.075200
O471	O47	0.145500	0.616200	0.060400
O481	O48	0.965700	0.571100	0.095200
C331	C33	0.000000	0.947300	0.250000
C341	C34	0.500000	0.552700	0.750000
C351	C35	0.000000	0.052700	0.750000
C361	C36	0.500000	0.447300	0.250000
