data_AMIKOX_clean_PM
_symmetry_space_group_name_H-M	'P1'
_cell_length_a	9.135100
_cell_length_b	17.419000
_cell_length_c	15.583000
_cell_angle_alpha	90.000000
_cell_angle_beta	90.000000
_cell_angle_gamma	90.000000
_symmetry_Int_Tables_number 1

loop_
_symmetry_equiv_pos_as_xyz
'x,y,z'

loop_
_atom_site_label
_atom_site_type_symbol
_atom_site_fract_x
_atom_site_fract_y
_atom_site_fract_z
Cd11	Cd1	0.000000	0.250000	0.039180
Cd21	Cd2	0.000000	0.750000	0.460820
Cd31	Cd3	0.000000	0.750000	0.960820
Cd41	Cd4	0.000000	0.250000	0.539180
H11	H1	0.960700	0.421000	0.964000
H21	H2	0.831900	0.496700	0.869100
H31	H3	0.664200	0.304100	0.768000
H41	H4	0.795100	0.234400	0.866800
H51	H5	0.653300	0.438500	0.688000
H61	H6	0.451900	0.456200	0.829500
H71	H7	0.502200	0.360000	0.633000
H81	H8	0.329600	0.287600	0.562400
H91	H9	0.021700	0.355300	0.720000
H101	H10	0.187500	0.425900	0.798100
H111	H11	0.039300	0.079000	0.964000
H121	H12	0.168100	0.003300	0.869100
H131	H13	0.335800	0.195900	0.768000
H141	H14	0.204900	0.265600	0.866800
H151	H15	0.346700	0.061500	0.688000
H161	H16	0.548100	0.043800	0.829500
H171	H17	0.497800	0.140000	0.633000
H181	H18	0.670400	0.212400	0.562400
H191	H19	0.978300	0.144700	0.720000
H201	H20	0.812500	0.074100	0.798100
H211	H21	0.960700	0.579000	0.536000
H221	H22	0.831900	0.503300	0.630900
H231	H23	0.664200	0.695900	0.732000
H241	H24	0.795100	0.765600	0.633200
H251	H25	0.653300	0.561500	0.812000
H261	H26	0.451900	0.543800	0.670500
H271	H27	0.502200	0.640000	0.867000
H281	H28	0.329600	0.712400	0.937600
H291	H29	0.021700	0.644700	0.780000
H301	H30	0.187500	0.574100	0.701900
H311	H31	0.039300	0.921000	0.536000
H321	H32	0.168100	0.996700	0.630900
H331	H33	0.335800	0.804100	0.732000
H341	H34	0.204900	0.734400	0.633200
H351	H35	0.346700	0.938500	0.812000
H361	H36	0.548100	0.956200	0.670500
H371	H37	0.497800	0.860000	0.867000
H381	H38	0.670400	0.787600	0.937600
H391	H39	0.978300	0.855300	0.780000
H401	H40	0.812500	0.925900	0.701900
H411	H41	0.039300	0.579000	0.036000
H421	H42	0.168100	0.503300	0.130900
H431	H43	0.335800	0.695900	0.232000
H441	H44	0.204900	0.765600	0.133200
H451	H45	0.346700	0.561500	0.312000
H461	H46	0.548100	0.543800	0.170500
H471	H47	0.497800	0.640000	0.367000
H481	H48	0.670400	0.712400	0.437600
H491	H49	0.978300	0.644700	0.280000
H501	H50	0.812500	0.574100	0.201900
H511	H51	0.960700	0.921000	0.036000
H521	H52	0.831900	0.996700	0.130900
H531	H53	0.664200	0.804100	0.232000
H541	H54	0.795100	0.734400	0.133200
H551	H55	0.653300	0.938500	0.312000
H561	H56	0.451900	0.956200	0.170500
H571	H57	0.502200	0.860000	0.367000
H581	H58	0.329600	0.787600	0.437600
H591	H59	0.021700	0.855300	0.280000
H601	H60	0.187500	0.925900	0.201900
H611	H61	0.039300	0.421000	0.464000
H621	H62	0.168100	0.496700	0.369100
H631	H63	0.335800	0.304100	0.268000
H641	H64	0.204900	0.234400	0.366800
H651	H65	0.346700	0.438500	0.188000
H661	H66	0.548100	0.456200	0.329500
H671	H67	0.497800	0.360000	0.133000
H681	H68	0.670400	0.287600	0.062400
H691	H69	0.978300	0.355300	0.220000
H701	H70	0.812500	0.425900	0.298100
H711	H71	0.960700	0.079000	0.464000
H721	H72	0.831900	0.003300	0.369100
H731	H73	0.664200	0.195900	0.268000
H741	H74	0.795100	0.265600	0.366800
H751	H75	0.653300	0.061500	0.188000
H761	H76	0.451900	0.043800	0.329500
H771	H77	0.502200	0.140000	0.133000
H781	H78	0.329600	0.212400	0.062400
H791	H79	0.021700	0.144700	0.220000
H801	H80	0.187500	0.074100	0.298100
C11	C1	0.897600	0.397120	0.924600
C21	C2	0.821300	0.443040	0.867500
C31	C3	0.729300	0.409220	0.808130
C41	C4	0.722700	0.329780	0.808500
C51	C5	0.801600	0.288290	0.867900
C61	C6	0.636200	0.455490	0.747810
C71	C7	0.469100	0.457190	0.766800
C81	C8	0.364800	0.403600	0.722480
C91	C9	0.404600	0.360270	0.652000
C101	C10	0.300200	0.317400	0.609600
C111	C11	0.120000	0.356500	0.702200
C121	C12	0.218400	0.399420	0.748800
C131	C13	0.102400	0.102880	0.924600
C141	C14	0.178700	0.056960	0.867500
C151	C15	0.270700	0.090780	0.808130
C161	C16	0.277300	0.170220	0.808500
C171	C17	0.198400	0.211710	0.867900
C181	C18	0.363800	0.044510	0.747810
C191	C19	0.530900	0.042810	0.766800
C201	C20	0.635200	0.096400	0.722480
C211	C21	0.595400	0.139730	0.652000
C221	C22	0.699800	0.182600	0.609600
C231	C23	0.880000	0.143500	0.702200
C241	C24	0.781600	0.100580	0.748800
C251	C25	0.897600	0.602880	0.575400
C261	C26	0.821300	0.556960	0.632500
C271	C27	0.729300	0.590780	0.691870
C281	C28	0.722700	0.670220	0.691500
C291	C29	0.801600	0.711710	0.632100
C301	C30	0.636200	0.544510	0.752190
C311	C31	0.469100	0.542810	0.733200
C321	C32	0.364800	0.596400	0.777520
C331	C33	0.404600	0.639730	0.848000
C341	C34	0.300200	0.682600	0.890400
C351	C35	0.120000	0.643500	0.797800
C361	C36	0.218400	0.600580	0.751200
C371	C37	0.102400	0.897120	0.575400
C381	C38	0.178700	0.943040	0.632500
C391	C39	0.270700	0.909220	0.691870
C401	C40	0.277300	0.829780	0.691500
C411	C41	0.198400	0.788290	0.632100
C421	C42	0.363800	0.955490	0.752190
C431	C43	0.530900	0.957190	0.733200
C441	C44	0.635200	0.903600	0.777520
C451	C45	0.595400	0.860270	0.848000
C461	C46	0.699800	0.817400	0.890400
C471	C47	0.880000	0.856500	0.797800
C481	C48	0.781600	0.899420	0.751200
C491	C49	0.102400	0.602880	0.075400
C501	C50	0.178700	0.556960	0.132500
C511	C51	0.270700	0.590780	0.191870
C521	C52	0.277300	0.670220	0.191500
C531	C53	0.198400	0.711710	0.132100
C541	C54	0.363800	0.544510	0.252190
C551	C55	0.530900	0.542810	0.233200
C561	C56	0.635200	0.596400	0.277520
C571	C57	0.595400	0.639730	0.348000
C581	C58	0.699800	0.682600	0.390400
C591	C59	0.880000	0.643500	0.297800
C601	C60	0.781600	0.600580	0.251200
C611	C61	0.897600	0.897120	0.075400
C621	C62	0.821300	0.943040	0.132500
C631	C63	0.729300	0.909220	0.191870
C641	C64	0.722700	0.829780	0.191500
C651	C65	0.801600	0.788290	0.132100
C661	C66	0.636200	0.955490	0.252190
C671	C67	0.469100	0.957190	0.233200
C681	C68	0.364800	0.903600	0.277520
C691	C69	0.404600	0.860270	0.348000
C701	C70	0.300200	0.817400	0.390400
C711	C71	0.120000	0.856500	0.297800
C721	C72	0.218400	0.899420	0.251200
C731	C73	0.102400	0.397120	0.424600
C741	C74	0.178700	0.443040	0.367500
C751	C75	0.270700	0.409220	0.308130
C761	C76	0.277300	0.329780	0.308500
C771	C77	0.198400	0.288290	0.367900
C781	C78	0.363800	0.455490	0.247810
C791	C79	0.530900	0.457190	0.266800
C801	C80	0.635200	0.403600	0.222480
C811	C81	0.595400	0.360270	0.152000
C821	C82	0.699800	0.317400	0.109600
C831	C83	0.880000	0.356500	0.202200
C841	C84	0.781600	0.399420	0.248800
C851	C85	0.897600	0.102880	0.424600
C861	C86	0.821300	0.056960	0.367500
C871	C87	0.729300	0.090780	0.308130
C881	C88	0.722700	0.170220	0.308500
C891	C89	0.801600	0.211710	0.367900
C901	C90	0.636200	0.044510	0.247810
C911	C91	0.469100	0.042810	0.266800
C921	C92	0.364800	0.096400	0.222480
C931	C93	0.404600	0.139730	0.152000
C941	C94	0.300200	0.182600	0.109600
C951	C95	0.120000	0.143500	0.202200
C961	C96	0.218400	0.100580	0.248800
N11	N1	0.886500	0.321070	0.926610
N21	N2	0.158800	0.316260	0.632770
N31	N3	0.113500	0.178930	0.926610
N41	N4	0.841200	0.183740	0.632770
N51	N5	0.886500	0.678930	0.573390
N61	N6	0.158800	0.683740	0.867230
N71	N7	0.113500	0.821070	0.573390
N81	N8	0.841200	0.816260	0.867230
N91	N9	0.113500	0.678930	0.073390
N101	N10	0.841200	0.683740	0.367230
N111	N11	0.886500	0.821070	0.073390
N121	N12	0.158800	0.816260	0.367230
N131	N13	0.113500	0.321070	0.426610
N141	N14	0.841200	0.316260	0.132770
N151	N15	0.886500	0.178930	0.426610
N161	N16	0.158800	0.183740	0.132770
Cl11	Cl1	0.195190	0.359980	0.048940
Cl21	Cl2	0.804810	0.140020	0.048940
Cl31	Cl3	0.195190	0.640020	0.451060
Cl41	Cl4	0.804810	0.859980	0.451060
Cl51	Cl5	0.804810	0.640020	0.951060
Cl61	Cl6	0.195190	0.859980	0.951060
Cl71	Cl7	0.804810	0.359980	0.548940
Cl81	Cl8	0.195190	0.140020	0.548940
