data_AMILUE_clean_PM
_symmetry_space_group_name_H-M	'P1'
_cell_length_a	12.340000
_cell_length_b	19.902900
_cell_length_c	19.902900
_cell_angle_alpha	102.773000
_cell_angle_beta	94.559300
_cell_angle_gamma	94.559300
_symmetry_Int_Tables_number 1

loop_
_symmetry_equiv_pos_as_xyz
'x,y,z'

loop_
_atom_site_label
_atom_site_type_symbol
_atom_site_fract_x
_atom_site_fract_y
_atom_site_fract_z
Zn11	Zn1	0.611900	0.076390	0.565100
Zn21	Zn2	0.808800	0.016870	0.526320
Zn31	Zn3	0.410500	0.339780	0.608170
Zn41	Zn4	0.500060	0.487280	0.748760
Zn51	Zn5	0.111900	0.565100	0.076390
Zn61	Zn6	0.308800	0.526320	0.016870
Zn71	Zn7	0.910500	0.608170	0.339780
Zn81	Zn8	0.000060	0.748760	0.487280
H11	H1	0.493800	0.200200	0.541800
H21	H2	0.553300	0.220800	0.619000
H31	H3	0.526900	0.143300	0.697500
H41	H4	0.451600	0.071400	0.671000
H51	H5	0.362200	0.040200	0.552000
H61	H6	0.378200	0.092500	0.501900
H71	H7	0.319900	0.251800	0.705800
H81	H8	0.449600	0.250100	0.717300
H91	H9	0.203800	0.142200	0.662800
H101	H10	0.258600	0.070900	0.648300
H111	H11	0.296500	0.199200	0.522400
H121	H12	0.227000	0.220500	0.587100
H131	H13	0.864900	0.872700	0.472100
H141	H14	0.917000	0.890800	0.551000
H151	H15	0.984800	0.022900	0.429100
H161	H16	0.906900	0.952900	0.397900
H171	H17	0.035000	0.998400	0.598000
H181	H18	0.062100	0.050300	0.549100
H191	H19	0.982800	0.844000	0.378600
H201	H20	0.111000	0.842000	0.397000
H211	H21	0.176700	0.019700	0.459300
H221	H22	0.226900	0.946700	0.447300
H231	H23	0.188100	0.869200	0.519800
H241	H24	0.108600	0.888900	0.579500
H251	H25	0.658700	0.859900	0.343900
H261	H26	0.278800	0.862600	0.323000
H271	H27	0.389500	0.946800	0.404600
H281	H28	0.640400	0.755100	0.246300
H291	H29	0.533600	0.673700	0.162300
H301	H30	0.260900	0.755000	0.229000
H311	H31	0.925600	0.159800	0.406000
H321	H32	0.971400	0.250600	0.354400
H331	H33	0.650800	0.244500	0.464100
H341	H34	0.932700	0.360600	0.324800
H351	H35	0.672200	0.453900	0.396100
H361	H36	0.618500	0.360800	0.441600
H371	H37	0.118900	0.341000	0.632600
H381	H38	0.977600	0.509000	0.799800
H391	H39	0.164200	0.503900	0.798700
H401	H40	0.928000	0.294000	0.582200
H411	H41	0.741700	0.297600	0.582600
H421	H42	0.788500	0.458400	0.751200
H431	H43	0.776800	0.850600	0.629200
H441	H44	0.441400	0.829200	0.721400
H451	H45	0.487300	0.923500	0.675700
H461	H46	0.818300	0.737500	0.651300
H471	H47	0.770200	0.641800	0.694600
H481	H48	0.484300	0.714000	0.743400
H491	H49	0.993800	0.541800	0.200200
H501	H50	0.053300	0.619000	0.220800
H511	H51	0.026900	0.697500	0.143300
H521	H52	0.951600	0.671000	0.071400
H531	H53	0.862200	0.552000	0.040200
H541	H54	0.878200	0.501900	0.092500
H551	H55	0.819900	0.705800	0.251800
H561	H56	0.949600	0.717300	0.250100
H571	H57	0.703800	0.662800	0.142200
H581	H58	0.758600	0.648300	0.070900
H591	H59	0.796500	0.522400	0.199200
H601	H60	0.727000	0.587100	0.220500
H611	H61	0.364900	0.472100	0.872700
H621	H62	0.417000	0.551000	0.890800
H631	H63	0.484800	0.429100	0.022900
H641	H64	0.406900	0.397900	0.952900
H651	H65	0.535000	0.598000	0.998400
H661	H66	0.562100	0.549100	0.050300
H671	H67	0.482800	0.378600	0.844000
H681	H68	0.611000	0.397000	0.842000
H691	H69	0.676700	0.459300	0.019700
H701	H70	0.726900	0.447300	0.946700
H711	H71	0.688100	0.519800	0.869200
H721	H72	0.608600	0.579500	0.888900
H731	H73	0.158700	0.343900	0.859900
H741	H74	0.778800	0.323000	0.862600
H751	H75	0.889500	0.404600	0.946800
H761	H76	0.140400	0.246300	0.755100
H771	H77	0.033600	0.162300	0.673700
H781	H78	0.760900	0.229000	0.755000
H791	H79	0.425600	0.406000	0.159800
H801	H80	0.471400	0.354400	0.250600
H811	H81	0.150800	0.464100	0.244500
H821	H82	0.432700	0.324800	0.360600
H831	H83	0.172200	0.396100	0.453900
H841	H84	0.118500	0.441600	0.360800
H851	H85	0.618900	0.632600	0.341000
H861	H86	0.477600	0.799800	0.509000
H871	H87	0.664200	0.798700	0.503900
H881	H88	0.428000	0.582200	0.294000
H891	H89	0.241700	0.582600	0.297600
H901	H90	0.288500	0.751200	0.458400
H911	H91	0.276800	0.629200	0.850600
H921	H92	0.941400	0.721400	0.829200
H931	H93	0.987300	0.675700	0.923500
H941	H94	0.318300	0.651300	0.737500
H951	H95	0.270200	0.694600	0.641800
H961	H96	0.984300	0.743400	0.714000
C11	C1	0.486000	0.197370	0.590190
C21	C2	0.460300	0.120380	0.667540
C31	C3	0.372000	0.089750	0.550530
C41	C4	0.382300	0.227520	0.687960
C51	C5	0.268700	0.120120	0.646080
C61	C6	0.291100	0.196920	0.571180
C71	C7	0.930500	0.894680	0.503620
C81	C8	0.971500	0.973620	0.430760
C91	C9	0.048200	0.000850	0.550090
C101	C10	0.046600	0.865960	0.411660
C111	C11	0.161600	0.970500	0.460700
C121	C12	0.122300	0.892810	0.532130
C131	C13	0.603700	0.960150	0.440090
C141	C14	0.535400	0.907960	0.382700
C151	C15	0.581500	0.859840	0.339660
C161	C16	0.517100	0.808010	0.287230
C171	C17	0.403000	0.808420	0.281420
C181	C18	0.355800	0.861310	0.326610
C191	C19	0.421200	0.910700	0.375500
C201	C20	0.563400	0.756320	0.242320
C211	C21	0.499900	0.707680	0.192880
C221	C22	0.385000	0.706610	0.186030
C231	C23	0.338200	0.756120	0.231400
C241	C24	0.317900	0.650120	0.133700
C251	C25	0.753800	0.136290	0.474810
C261	C26	0.782300	0.194800	0.439860
C271	C27	0.879400	0.196020	0.407180
C281	C28	0.906600	0.250060	0.377140
C291	C29	0.840400	0.304880	0.379520
C301	C30	0.744100	0.303220	0.412300
C311	C31	0.716300	0.246320	0.442260
C321	C32	0.870600	0.361170	0.350030
C331	C33	0.810200	0.416490	0.358110
C341	C34	0.714900	0.415770	0.391810
C351	C35	0.683000	0.360510	0.418490
C361	C36	0.852100	0.479910	0.333090
C371	C37	0.279300	0.418560	0.715160
C381	C38	0.157700	0.420860	0.714620
C391	C39	0.089500	0.374580	0.666040
C401	C40	0.974000	0.376110	0.664950
C411	C41	0.931300	0.425860	0.716880
C421	C42	0.005000	0.474550	0.766270
C431	C43	0.115400	0.471660	0.765300
C441	C44	0.900200	0.327960	0.616180
C451	C45	0.789900	0.329110	0.616910
C461	C46	0.747600	0.377770	0.669210
C471	C47	0.817700	0.425280	0.717200
C481	C48	0.627600	0.377970	0.670510
C491	C49	0.664800	0.955690	0.615430
C501	C50	0.637000	0.895830	0.646470
C511	C51	0.708000	0.845620	0.646860
C521	C52	0.679800	0.787110	0.673090
C531	C53	0.579200	0.780150	0.700250
C541	C54	0.508700	0.832720	0.701680
C551	C55	0.536300	0.888840	0.674960
C561	C56	0.750700	0.733710	0.670630
C571	C57	0.722000	0.676910	0.696090
C581	C58	0.622400	0.670000	0.724480
C591	C59	0.552600	0.719610	0.725390
C601	C60	0.586900	0.605100	0.745300
C611	C61	0.986000	0.590190	0.197370
C621	C62	0.960300	0.667540	0.120380
C631	C63	0.872000	0.550530	0.089750
C641	C64	0.882300	0.687960	0.227520
C651	C65	0.768700	0.646080	0.120120
C661	C66	0.791100	0.571180	0.196920
C671	C67	0.430500	0.503620	0.894680
C681	C68	0.471500	0.430760	0.973620
C691	C69	0.548200	0.550090	0.000850
C701	C70	0.546600	0.411660	0.865960
C711	C71	0.661600	0.460700	0.970500
C721	C72	0.622300	0.532130	0.892810
C731	C73	0.103700	0.440090	0.960150
C741	C74	0.035400	0.382700	0.907960
C751	C75	0.081500	0.339660	0.859840
C761	C76	0.017100	0.287230	0.808010
C771	C77	0.903000	0.281420	0.808420
C781	C78	0.855800	0.326610	0.861310
C791	C79	0.921200	0.375500	0.910700
C801	C80	0.063400	0.242320	0.756320
C811	C81	0.999900	0.192880	0.707680
C821	C82	0.885000	0.186030	0.706610
C831	C83	0.838200	0.231400	0.756120
C841	C84	0.817900	0.133700	0.650120
C851	C85	0.253800	0.474810	0.136290
C861	C86	0.282300	0.439860	0.194800
C871	C87	0.379400	0.407180	0.196020
C881	C88	0.406600	0.377140	0.250060
C891	C89	0.340400	0.379520	0.304880
C901	C90	0.244100	0.412300	0.303220
C911	C91	0.216300	0.442260	0.246320
C921	C92	0.370600	0.350030	0.361170
C931	C93	0.310200	0.358110	0.416490
C941	C94	0.214900	0.391810	0.415770
C951	C95	0.183000	0.418490	0.360510
C961	C96	0.352100	0.333090	0.479910
C971	C97	0.779300	0.715160	0.418560
C981	C98	0.657700	0.714620	0.420860
C991	C99	0.589500	0.666040	0.374580
C1001	C100	0.474000	0.664950	0.376110
C1011	C101	0.431300	0.716880	0.425860
C1021	C102	0.505000	0.766270	0.474550
C1031	C103	0.615400	0.765300	0.471660
C1041	C104	0.400200	0.616180	0.327960
C1051	C105	0.289900	0.616910	0.329110
C1061	C106	0.247600	0.669210	0.377770
C1071	C107	0.317700	0.717200	0.425280
C1081	C108	0.127600	0.670510	0.377970
C1091	C109	0.164800	0.615430	0.955690
C1101	C110	0.137000	0.646470	0.895830
C1111	C111	0.208000	0.646860	0.845620
C1121	C112	0.179800	0.673090	0.787110
C1131	C113	0.079200	0.700250	0.780150
C1141	C114	0.008700	0.701680	0.832720
C1151	C115	0.036300	0.674960	0.888840
C1161	C116	0.250700	0.670630	0.733710
C1171	C117	0.222000	0.696090	0.676910
C1181	C118	0.122400	0.724480	0.670000
C1191	C119	0.052600	0.725390	0.719610
C1201	C120	0.086900	0.745300	0.605100
N11	N1	0.473600	0.123470	0.594130
N21	N2	0.391500	0.233040	0.614260
N31	N3	0.366200	0.154050	0.691750
N41	N4	0.276000	0.124160	0.575660
N51	N5	0.948000	0.969290	0.501910
N61	N6	0.026200	0.857350	0.482470
N71	N7	0.065600	0.938260	0.409420
N81	N8	0.143000	0.966170	0.531350
N91	N9	0.973600	0.594130	0.123470
N101	N10	0.891500	0.614260	0.233040
N111	N11	0.866200	0.691750	0.154050
N121	N12	0.776000	0.575660	0.124160
N131	N13	0.448000	0.501910	0.969290
N141	N14	0.526200	0.482470	0.857350
N151	N15	0.565600	0.409420	0.938260
N161	N16	0.643000	0.531350	0.966170
O11	O1	0.552800	0.005290	0.477190
O21	O2	0.704700	0.954900	0.448460
O31	O3	0.368100	0.610520	0.093320
O41	O4	0.215600	0.646570	0.135010
O51	O5	0.670400	0.139260	0.506520
O61	O6	0.817700	0.088940	0.469760
O71	O7	0.924900	0.474470	0.291930
O81	O8	0.813100	0.533930	0.356550
O91	O9	0.595900	0.998250	0.615250
O101	O10	0.338530	0.470980	0.748300
O111	O11	0.314330	0.363960	0.683260
O121	O12	0.569590	0.345470	0.615810
O131	O13	0.589900	0.407430	0.725510
O141	O14	0.754100	0.957290	0.589590
O151	O15	0.649100	0.556800	0.739100
O161	O16	0.494400	0.595630	0.763690
O171	O17	0.052800	0.477190	0.005290
O181	O18	0.204700	0.448460	0.954900
O191	O19	0.868100	0.093320	0.610520
O201	O20	0.715600	0.135010	0.646570
O211	O21	0.170400	0.506520	0.139260
O221	O22	0.317700	0.469760	0.088940
O231	O23	0.424900	0.291930	0.474470
O241	O24	0.313100	0.356550	0.533930
O251	O25	0.095900	0.615250	0.998250
O261	O26	0.838530	0.748300	0.470980
O271	O27	0.814330	0.683260	0.363960
O281	O28	0.069590	0.615810	0.345470
O291	O29	0.089900	0.725510	0.407430
O301	O30	0.254100	0.589590	0.957290
O311	O31	0.149100	0.739100	0.556800
O321	O32	0.994400	0.763690	0.595630
