data_AMIWOJ_clean_PM
_symmetry_space_group_name_H-M	'P1'
_cell_length_a	10.853000
_cell_length_b	13.291000
_cell_length_c	14.337000
_cell_angle_alpha	90.000000
_cell_angle_beta	90.000000
_cell_angle_gamma	90.032000
_symmetry_Int_Tables_number 1

loop_
_symmetry_equiv_pos_as_xyz
'x,y,z'

loop_
_atom_site_label
_atom_site_type_symbol
_atom_site_fract_x
_atom_site_fract_y
_atom_site_fract_z
Gd11	Gd1	0.755570	0.785290	0.782200
Gd21	Gd2	0.004540	0.132250	0.861690
Gd31	Gd3	0.744430	0.714710	0.282200
Gd41	Gd4	0.495460	0.367750	0.361690
Gd51	Gd5	0.244430	0.214710	0.217800
Gd61	Gd6	0.995460	0.867750	0.138310
Gd71	Gd7	0.255570	0.285290	0.717800
Gd81	Gd8	0.504540	0.632250	0.638310
H11	H1	0.560800	0.086900	0.867700
H21	H2	0.876300	0.867400	0.544800
H31	H3	0.030900	0.564300	0.852800
H41	H4	0.939200	0.413100	0.367700
H51	H5	0.623700	0.632600	0.044800
H61	H6	0.469100	0.935700	0.352800
H71	H7	0.439200	0.913100	0.132300
H81	H8	0.123700	0.132600	0.455200
H91	H9	0.969100	0.435700	0.147200
H101	H10	0.060800	0.586900	0.632300
H111	H11	0.376300	0.367400	0.955200
H121	H12	0.530900	0.064300	0.647200
C11	C1	0.753900	0.993500	0.933400
C21	C2	0.622900	0.997200	0.971600
C31	C3	0.587400	0.944700	0.052300
C41	C4	0.681200	0.888100	0.111400
C51	C5	0.535900	0.052000	0.920700
C61	C6	0.910400	0.979300	0.688800
C71	C7	0.960800	0.992800	0.592700
C81	C8	0.035500	0.072900	0.566100
C91	C9	0.086400	0.152600	0.630300
C101	C10	0.926200	0.920900	0.526600
C111	C11	0.959900	0.710700	0.953200
C121	C12	0.978000	0.603200	0.982800
C131	C13	0.957400	0.563000	0.072300
C141	C14	0.903300	0.622500	0.152700
C151	C15	0.019000	0.538400	0.912300
C161	C16	0.746100	0.506500	0.433400
C171	C17	0.877100	0.502800	0.471600
C181	C18	0.912600	0.555300	0.552300
C191	C19	0.818800	0.611900	0.611400
C201	C20	0.964100	0.448000	0.420700
C211	C21	0.589600	0.520700	0.188800
C221	C22	0.539200	0.507200	0.092700
C231	C23	0.464500	0.427100	0.066100
C241	C24	0.413600	0.347400	0.130300
C251	C25	0.573800	0.579100	0.026600
C261	C26	0.540100	0.789300	0.453200
C271	C27	0.522000	0.896800	0.482800
C281	C28	0.542600	0.937000	0.572300
C291	C29	0.596700	0.877500	0.652700
C301	C30	0.481000	0.961600	0.412300
C311	C31	0.246100	0.006500	0.066600
C321	C32	0.377100	0.002800	0.028400
C331	C33	0.412600	0.055300	0.947700
C341	C34	0.318800	0.111900	0.888600
C351	C35	0.464100	0.948000	0.079300
C361	C36	0.089600	0.020700	0.311200
C371	C37	0.039200	0.007200	0.407300
C381	C38	0.964500	0.927100	0.433900
C391	C39	0.913600	0.847400	0.369700
C401	C40	0.073800	0.079100	0.473400
C411	C41	0.040100	0.289300	0.046800
C421	C42	0.022000	0.396800	0.017200
C431	C43	0.042600	0.437000	0.927700
C441	C44	0.096700	0.377500	0.847300
C451	C45	0.981000	0.461600	0.087700
C461	C46	0.253900	0.493500	0.566600
C471	C47	0.122900	0.497200	0.528400
C481	C48	0.087400	0.444700	0.447700
C491	C49	0.181200	0.388100	0.388600
C501	C50	0.035900	0.552000	0.579300
C511	C51	0.410400	0.479300	0.811200
C521	C52	0.460800	0.492800	0.907300
C531	C53	0.535500	0.572900	0.933900
C541	C54	0.586400	0.652600	0.869700
C551	C55	0.426200	0.420900	0.973400
C561	C56	0.459900	0.210700	0.546800
C571	C57	0.478000	0.103200	0.517200
C581	C58	0.457400	0.063000	0.427700
C591	C59	0.403300	0.122500	0.347300
C601	C60	0.519000	0.038400	0.587700
O11	O1	0.819100	0.072100	0.941400
O21	O2	0.786600	0.915400	0.892000
O31	O3	0.792600	0.906700	0.094000
O41	O4	0.642800	0.830500	0.175300
O51	O5	0.891400	0.055000	0.739300
O61	O6	0.890900	0.888800	0.710700
O71	O7	0.106800	0.238500	0.597300
O81	O8	0.117700	0.133000	0.714300
O91	O9	0.900100	0.720900	0.879200
O101	O10	0.010200	0.781200	0.996200
O111	O11	0.887500	0.580800	0.229700
O121	O12	0.867400	0.712300	0.138900
O131	O13	0.680900	0.427900	0.441400
O141	O14	0.713400	0.584600	0.392000
O151	O15	0.707400	0.593300	0.594000
O161	O16	0.857200	0.669500	0.675300
O171	O17	0.608600	0.445000	0.239300
O181	O18	0.609100	0.611200	0.210700
O191	O19	0.393200	0.261500	0.097300
O201	O20	0.382300	0.367000	0.214300
O211	O21	0.599900	0.779100	0.379200
O221	O22	0.489800	0.718800	0.496200
O231	O23	0.612500	0.919200	0.729700
O241	O24	0.632600	0.787700	0.638900
O251	O25	0.180900	0.927900	0.058600
O261	O26	0.213400	0.084600	0.108000
O271	O27	0.207400	0.093300	0.906000
O281	O28	0.357200	0.169500	0.824700
O291	O29	0.108600	0.945000	0.260700
O301	O30	0.109100	0.111200	0.289300
O311	O31	0.893200	0.761500	0.402700
O321	O32	0.882300	0.867000	0.285700
O331	O33	0.099900	0.279100	0.120800
O341	O34	0.989800	0.218800	0.003800
O351	O35	0.112500	0.419200	0.770300
O361	O36	0.132600	0.287700	0.861100
O371	O37	0.319100	0.572100	0.558600
O381	O38	0.286600	0.415400	0.608000
O391	O39	0.292600	0.406700	0.406000
O401	O40	0.142800	0.330500	0.324700
O411	O41	0.391400	0.555000	0.760700
O421	O42	0.390900	0.388800	0.789300
O431	O43	0.606800	0.738500	0.902700
O441	O44	0.617700	0.633000	0.785700
O451	O45	0.400100	0.220900	0.620800
O461	O46	0.510200	0.281200	0.503800
O471	O47	0.387500	0.080800	0.270300
O481	O48	0.367400	0.212300	0.361100
