data_AMIXEA_clean_PM
_symmetry_space_group_name_H-M	'P1'
_cell_length_a	10.788000
_cell_length_b	13.170000
_cell_length_c	14.223000
_cell_angle_alpha	90.000000
_cell_angle_beta	90.000000
_cell_angle_gamma	90.402000
_symmetry_Int_Tables_number 1

loop_
_symmetry_equiv_pos_as_xyz
'x,y,z'

loop_
_atom_site_label
_atom_site_type_symbol
_atom_site_fract_x
_atom_site_fract_y
_atom_site_fract_z
Ho11	Ho1	0.744700	0.714090	0.781910
Ho21	Ho2	0.993270	0.867590	0.638070
Ho31	Ho3	0.755300	0.785910	0.281910
Ho41	Ho4	0.506730	0.632410	0.138070
Ho51	Ho5	0.255290	0.285910	0.218090
Ho61	Ho6	0.006730	0.132410	0.361930
Ho71	Ho7	0.244700	0.214090	0.718090
Ho81	Ho8	0.493270	0.367590	0.861930
H11	H1	0.876300	0.865700	0.045900
H21	H2	0.469000	0.934000	0.852000
H31	H3	0.438700	0.911500	0.632900
H41	H4	0.623700	0.634300	0.545900
H51	H5	0.031000	0.566000	0.352000
H61	H6	0.061300	0.588500	0.132900
H71	H7	0.123700	0.134300	0.954100
H81	H8	0.531000	0.066000	0.148000
H91	H9	0.561300	0.088500	0.367100
H101	H10	0.376300	0.365700	0.454100
H111	H11	0.969000	0.434000	0.648000
H121	H12	0.938700	0.411500	0.867100
C11	C1	0.913200	0.845500	0.869200
C21	C2	0.089100	0.020700	0.809600
C31	C3	0.925900	0.920000	0.027100
C41	C4	0.963600	0.926000	0.933300
C51	C5	0.039800	0.007300	0.906900
C61	C6	0.544500	0.788900	0.952700
C71	C7	0.597900	0.879300	0.152800
C81	C8	0.481400	0.960700	0.911800
C91	C9	0.523800	0.896900	0.983000
C101	C10	0.542900	0.937300	0.072800
C111	C11	0.680700	0.887300	0.611600
C121	C12	0.754300	0.993700	0.432400
C131	C13	0.463800	0.947000	0.579600
C141	C14	0.623500	0.997500	0.471200
C151	C15	0.587600	0.943600	0.552100
C161	C16	0.586800	0.654500	0.369200
C171	C17	0.410900	0.479300	0.309600
C181	C18	0.574100	0.580000	0.527100
C191	C19	0.536400	0.574000	0.433300
C201	C20	0.460200	0.492700	0.406900
C211	C21	0.955500	0.711100	0.452700
C221	C22	0.902100	0.620700	0.652800
C231	C23	0.018600	0.539300	0.411800
C241	C24	0.976200	0.603100	0.483000
C251	C25	0.957100	0.562700	0.572800
C261	C26	0.819300	0.612700	0.111600
C271	C27	0.745700	0.506300	0.932400
C281	C28	0.036200	0.553000	0.079600
C291	C29	0.876500	0.502500	0.971200
C301	C30	0.912400	0.556400	0.052100
C311	C31	0.086800	0.154500	0.130800
C321	C32	0.910900	0.979300	0.190400
C331	C33	0.074100	0.080000	0.972900
C341	C34	0.036400	0.074000	0.066700
C351	C35	0.960200	0.992700	0.093100
C361	C36	0.455500	0.211100	0.047300
C371	C37	0.402100	0.120700	0.847200
C381	C38	0.518600	0.039300	0.088200
C391	C39	0.476200	0.103100	0.017000
C401	C40	0.457100	0.062700	0.927200
C411	C41	0.319300	0.112700	0.388400
C421	C42	0.245700	0.006300	0.567600
C431	C43	0.536200	0.053000	0.420400
C441	C44	0.376500	0.002500	0.528800
C451	C45	0.412400	0.056400	0.447900
C461	C46	0.413200	0.345500	0.630800
C471	C47	0.589100	0.520700	0.690400
C481	C48	0.425900	0.420000	0.472900
C491	C49	0.463600	0.426000	0.566700
C501	C50	0.539800	0.507300	0.593100
C511	C51	0.044500	0.288900	0.547300
C521	C52	0.097900	0.379300	0.347200
C531	C53	0.981400	0.460700	0.588200
C541	C54	0.023800	0.396900	0.517000
C551	C55	0.042900	0.437300	0.427200
C561	C56	0.180700	0.387300	0.888400
C571	C57	0.254300	0.493700	0.067600
C581	C58	0.963800	0.447000	0.920400
C591	C59	0.123500	0.497500	0.028800
C601	C60	0.087600	0.443600	0.947900
O11	O1	0.892600	0.759000	0.901400
O21	O2	0.880200	0.866300	0.784200
O31	O3	0.109100	0.112200	0.787900
O41	O4	0.106700	0.944900	0.758900
O51	O5	0.604000	0.779400	0.878600
O61	O6	0.495600	0.716100	0.996400
O71	O7	0.614800	0.920800	0.231000
O81	O8	0.634300	0.787500	0.140400
O91	O9	0.642500	0.829000	0.676200
O101	O10	0.793400	0.905300	0.593700
O111	O11	0.821500	0.073300	0.440900
O121	O12	0.787000	0.915300	0.390800
O131	O13	0.607400	0.741000	0.401400
O141	O14	0.619800	0.633700	0.284200
O151	O15	0.390900	0.387800	0.287900
O161	O16	0.393300	0.555100	0.258900
O171	O17	0.896000	0.720600	0.378600
O181	O18	0.004400	0.783900	0.496400
O191	O19	0.885200	0.579200	0.731000
O201	O20	0.865700	0.712500	0.640400
O211	O21	0.857500	0.671000	0.176200
O221	O22	0.706600	0.594700	0.093700
O231	O23	0.678500	0.426700	0.940900
O241	O24	0.713000	0.584700	0.890800
O251	O25	0.107400	0.241000	0.098600
O261	O26	0.119800	0.133700	0.215800
O271	O27	0.890900	0.887800	0.212100
O281	O28	0.893300	0.055100	0.241100
O291	O29	0.396000	0.220600	0.121400
O301	O30	0.504400	0.283900	0.003600
O311	O31	0.385200	0.079200	0.769000
O321	O32	0.365700	0.212500	0.859600
O331	O33	0.357500	0.171000	0.323800
O341	O34	0.206600	0.094700	0.406300
O351	O35	0.178500	0.926700	0.559100
O361	O36	0.213000	0.084700	0.609200
O371	O37	0.392600	0.259000	0.598600
O381	O38	0.380200	0.366300	0.715800
O391	O39	0.609100	0.612200	0.712100
O401	O40	0.606700	0.444900	0.741100
O411	O41	0.104000	0.279400	0.621400
O421	O42	0.995600	0.216100	0.503600
O431	O43	0.114800	0.420800	0.269000
O441	O44	0.134300	0.287500	0.359600
O451	O45	0.142500	0.329000	0.823800
O461	O46	0.293400	0.405300	0.906300
O471	O47	0.321500	0.573300	0.059100
O481	O48	0.287000	0.415300	0.109200
