data_AMOZAE_clean_PM
_symmetry_space_group_name_H-M	'P1'
_cell_length_a	6.759000
_cell_length_b	13.978000
_cell_length_c	14.265100
_cell_angle_alpha	90.000000
_cell_angle_beta	92.496300
_cell_angle_gamma	90.000000
_symmetry_Int_Tables_number 1

loop_
_symmetry_equiv_pos_as_xyz
'x,y,z'

loop_
_atom_site_label
_atom_site_type_symbol
_atom_site_fract_x
_atom_site_fract_y
_atom_site_fract_z
K11	K1	0.706340	0.309450	0.258240
K21	K2	0.793660	0.809450	0.241760
K31	K3	0.293660	0.690550	0.741760
K41	K4	0.206340	0.190550	0.758240
Sm11	Sm1	0.760800	0.255910	0.934600
Sm21	Sm2	0.739200	0.755910	0.565400
Sm31	Sm3	0.239200	0.744090	0.065400
Sm41	Sm4	0.260800	0.244090	0.434600
H11	H1	0.754000	0.697100	0.871200
H21	H2	0.746000	0.197100	0.628800
H31	H3	0.246000	0.302900	0.128800
H41	H4	0.254000	0.802900	0.371200
C11	C1	0.743200	0.441100	0.076000
C21	C2	0.752200	0.494500	0.983200
C31	C3	0.748500	0.593200	0.971600
C41	C4	0.757800	0.629800	0.880900
C51	C5	0.772600	0.568800	0.804900
C61	C6	0.783500	0.469800	0.823000
C71	C7	0.821500	0.394900	0.749300
C81	C8	0.735600	0.664300	0.052700
C91	C9	0.778400	0.610100	0.707800
C101	C10	0.756800	0.941100	0.424000
C111	C11	0.747800	0.994500	0.516800
C121	C12	0.751500	0.093200	0.528400
C131	C13	0.742200	0.129800	0.619100
C141	C14	0.727400	0.068800	0.695100
C151	C15	0.716500	0.969800	0.677000
C161	C16	0.678500	0.894900	0.750700
C171	C17	0.764400	0.164300	0.447300
C181	C18	0.721600	0.110100	0.792200
C191	C19	0.256800	0.558900	0.924000
C201	C20	0.247800	0.505500	0.016800
C211	C21	0.251500	0.406800	0.028400
C221	C22	0.242200	0.370200	0.119100
C231	C23	0.227400	0.431200	0.195100
C241	C24	0.216500	0.530200	0.177000
C251	C25	0.178500	0.605100	0.250700
C261	C26	0.264400	0.335700	0.947300
C271	C27	0.221600	0.389900	0.292200
C281	C28	0.243200	0.058900	0.576000
C291	C29	0.252200	0.005500	0.483200
C301	C30	0.248500	0.906800	0.471600
C311	C31	0.257800	0.870200	0.380900
C321	C32	0.272600	0.931200	0.304900
C331	C33	0.283500	0.030200	0.323000
C341	C34	0.321500	0.105100	0.249300
C351	C35	0.235600	0.835700	0.552700
C361	C36	0.278400	0.889900	0.207800
N11	N1	0.772400	0.435200	0.910100
N21	N2	0.727600	0.935200	0.589900
N31	N3	0.227600	0.564800	0.089900
N41	N4	0.272400	0.064800	0.410100
O11	O1	0.747900	0.351100	0.073100
O21	O2	0.732600	0.488800	0.148900
O31	O3	0.570300	0.683900	0.083000
O41	O4	0.894100	0.700700	0.082700
O51	O5	0.930000	0.647200	0.680300
O61	O6	0.617000	0.613800	0.658700
O71	O7	0.873700	0.423100	0.671200
O81	O8	0.799700	0.308900	0.773700
O91	O9	0.752100	0.851100	0.426900
O101	O10	0.767400	0.988800	0.351100
O111	O11	0.929700	0.183900	0.417000
O121	O12	0.605900	0.200700	0.417300
O131	O13	0.570000	0.147200	0.819700
O141	O14	0.883000	0.113800	0.841300
O151	O15	0.626300	0.923100	0.828800
O161	O16	0.700300	0.808900	0.726300
O171	O17	0.252100	0.648900	0.926900
O181	O18	0.267400	0.511200	0.851100
O191	O19	0.429700	0.316100	0.917000
O201	O20	0.105900	0.299300	0.917300
O211	O21	0.070000	0.352800	0.319700
O221	O22	0.383000	0.386200	0.341300
O231	O23	0.126300	0.576900	0.328800
O241	O24	0.200300	0.691100	0.226300
O251	O25	0.247900	0.148900	0.573100
O261	O26	0.232600	0.011200	0.648900
O271	O27	0.070300	0.816100	0.583000
O281	O28	0.394100	0.799300	0.582700
O291	O29	0.430000	0.852800	0.180300
O301	O30	0.117000	0.886200	0.158700
O311	O31	0.373700	0.076900	0.171200
O321	O32	0.299700	0.191100	0.273700
