data_AMUFIZ_clean_PM
_symmetry_space_group_name_H-M	'P1'
_cell_length_a	9.083800
_cell_length_b	9.615700
_cell_length_c	12.425200
_cell_angle_alpha	93.488000
_cell_angle_beta	104.357000
_cell_angle_gamma	113.993000
_symmetry_Int_Tables_number 1

loop_
_symmetry_equiv_pos_as_xyz
'x,y,z'

loop_
_atom_site_label
_atom_site_type_symbol
_atom_site_fract_x
_atom_site_fract_y
_atom_site_fract_z
C11	C1	0.668500	0.346500	0.059700
C21	C2	0.295800	0.149500	0.025100
C31	C3	0.173900	0.148600	0.220800
C41	C4	0.732600	0.184600	0.244200
C51	C5	0.644400	0.284200	0.257900
H11	H1	0.719400	0.370100	0.321100
C61	C6	0.587500	0.354800	0.152500
H21	H2	0.631100	0.465500	0.181500
C71	C7	0.391500	0.290600	0.119500
H31	H3	0.358900	0.372800	0.098200
C81	C8	0.355000	0.250600	0.232800
H41	H4	0.385300	0.348600	0.281000
C91	C9	0.481300	0.188800	0.288500
H51	H5	0.438500	0.079400	0.259400
H61	H6	0.502500	0.203600	0.369800
C101	C10	0.866600	0.830700	0.397900
H71	H7	0.983100	0.884400	0.413900
C111	C11	0.805400	0.732500	0.467000
H81	H8	0.878700	0.721300	0.529200
C121	C12	0.633300	0.649800	0.443500
C131	C13	0.527400	0.671200	0.351300
H91	H9	0.410700	0.616900	0.333700
C141	C14	0.599100	0.774800	0.286300
H101	H10	0.528300	0.790500	0.225200
N11	N1	0.576000	0.544900	0.517400
Co11	Co1	0.866860	0.004990	0.204100
N21	N2	0.768300	0.854700	0.307500
O11	O1	0.602000	0.230300	0.982400
O21	O2	0.805800	0.460600	0.071500
O31	O3	0.306200	0.026400	0.043900
O41	O4	0.210400	0.164100	0.932300
O51	O5	0.060200	0.174500	0.155500
O61	O6	0.131700	0.041800	0.276500
O71	O7	0.662700	0.066200	0.164300
O81	O8	0.870900	0.211900	0.309300
C151	C15	0.331500	0.653500	0.940300
C161	C16	0.704200	0.850500	0.974900
C171	C17	0.826100	0.851400	0.779200
C181	C18	0.267400	0.815400	0.755800
C191	C19	0.355600	0.715800	0.742100
H111	H11	0.280600	0.629900	0.678900
C201	C20	0.412500	0.645200	0.847500
H121	H12	0.368900	0.534500	0.818500
C211	C21	0.608500	0.709400	0.880500
H131	H13	0.641100	0.627200	0.901800
C221	C22	0.645000	0.749400	0.767200
H141	H14	0.614700	0.651400	0.719000
C231	C23	0.518700	0.811200	0.711500
H151	H15	0.561500	0.920600	0.740600
H161	H16	0.497500	0.796400	0.630200
C241	C24	0.133400	0.169300	0.602100
H171	H17	0.016900	0.115600	0.586100
C251	C25	0.194600	0.267500	0.533000
H181	H18	0.121300	0.278700	0.470800
C261	C26	0.366700	0.350200	0.556500
C271	C27	0.472600	0.328800	0.648700
H191	H19	0.589300	0.383100	0.666300
C281	C28	0.400900	0.225200	0.713700
H201	H20	0.471700	0.209500	0.774800
N31	N3	0.424000	0.455100	0.482600
Co21	Co2	0.133140	0.995010	0.795900
N41	N4	0.231700	0.145300	0.692500
O91	O9	0.398000	0.769700	0.017600
O101	O10	0.194200	0.539400	0.928500
O111	O11	0.693800	0.973600	0.956100
O121	O12	0.789600	0.835900	0.067700
O131	O13	0.939800	0.825500	0.844500
O141	O14	0.868300	0.958200	0.723500
O151	O15	0.337300	0.933800	0.835700
O161	O16	0.129100	0.788100	0.690700
Co31	Co3	0.500000	0.000000	0.000000
Co41	Co4	0.000000	0.500000	0.000000
