data_AMUFEV_clean_PM
_symmetry_space_group_name_H-M	'P1'
_cell_length_a	9.146100
_cell_length_b	9.658700
_cell_length_c	12.761700
_cell_angle_alpha	94.664000
_cell_angle_beta	103.837000
_cell_angle_gamma	114.830000
_symmetry_Int_Tables_number 1

loop_
_symmetry_equiv_pos_as_xyz
'x,y,z'

loop_
_atom_site_label
_atom_site_type_symbol
_atom_site_fract_x
_atom_site_fract_y
_atom_site_fract_z
C11	C1	0.768000	0.310100	0.260720
O11	O1	0.288900	0.339700	0.564980
O21	O2	0.436700	0.315500	0.343980
O31	O3	0.372000	0.453000	0.234200
C21	C2	0.327200	0.345300	0.284500
C31	C3	0.143400	0.244900	0.273240
H11	H1	0.109600	0.145100	0.225500
O41	O4	0.688100	0.039800	0.425750
O51	O5	0.898200	0.269940	0.516720
C41	C4	0.828600	0.152800	0.439050
Co11	Co1	0.634430	0.487810	0.301230
O61	O6	0.193810	0.474300	0.458220
O71	O7	0.836200	0.429100	0.339000
C51	C5	0.203000	0.350100	0.475670
C61	C6	0.106200	0.207200	0.382470
H21	H2	0.136900	0.125000	0.402600
N11	N1	0.728800	0.634900	0.198360
C71	C7	0.857900	0.211300	0.247510
H31	H3	0.783300	0.123900	0.185100
C81	C8	0.022500	0.307000	0.219500
H41	H4	0.002500	0.291400	0.140300
H51	H5	0.067300	0.417300	0.249300
C91	C9	0.920000	0.957500	0.997000
H61	H6	0.839300	0.970700	0.944600
C101	C10	0.858000	0.844300	0.065500
C111	C11	0.910600	0.141900	0.349120
H71	H7	0.865100	0.030100	0.320000
O81	O8	0.630000	0.279600	0.194090
C121	C12	0.963300	0.822500	0.153100
H81	H8	0.079900	0.877900	0.168800
C131	C13	0.627900	0.654600	0.113500
H91	H9	0.511800	0.596900	0.098700
C141	C14	0.686300	0.756100	0.046100
H101	H10	0.610000	0.765100	0.987600
C151	C15	0.896300	0.719000	0.217100
H111	H11	0.969800	0.706800	0.275700
C161	C16	0.232000	0.689900	0.739280
O91	O9	0.711100	0.660300	0.435020
O101	O10	0.563300	0.684500	0.656020
O111	O11	0.628000	0.547000	0.765800
C171	C17	0.672800	0.654700	0.715500
C181	C18	0.856600	0.755100	0.726760
H121	H12	0.890400	0.854900	0.774500
O121	O12	0.311900	0.960200	0.574250
O131	O13	0.101800	0.730060	0.483280
C191	C19	0.171400	0.847200	0.560950
Co21	Co2	0.365570	0.512190	0.698770
O141	O14	0.806190	0.525700	0.541780
O151	O15	0.163800	0.570900	0.661000
C201	C20	0.797000	0.649900	0.524330
C211	C21	0.893800	0.792800	0.617530
H131	H13	0.863100	0.875000	0.597400
N21	N2	0.271200	0.365100	0.801640
C221	C22	0.142100	0.788700	0.752490
H141	H14	0.216700	0.876100	0.814900
C231	C23	0.977500	0.693000	0.780500
H151	H15	0.997500	0.708600	0.859700
H161	H16	0.932700	0.582700	0.750700
C241	C24	0.080000	0.042500	0.003000
H171	H17	0.160700	0.029300	0.055400
C251	C25	0.142000	0.155700	0.934500
C261	C26	0.089400	0.858100	0.650880
H181	H18	0.134900	0.969900	0.680000
O161	O16	0.370000	0.720400	0.805910
C271	C27	0.036700	0.177500	0.846900
H191	H19	0.920100	0.122100	0.831200
C281	C28	0.372100	0.345400	0.886500
H201	H20	0.488200	0.403100	0.901300
C291	C29	0.313700	0.243900	0.953900
H211	H21	0.390000	0.234900	0.012400
C301	C30	0.103700	0.281000	0.782900
H221	H22	0.030200	0.293200	0.724300
Co31	Co3	0.000000	0.500000	0.500000
Co41	Co4	0.500000	0.000000	0.500000
