data_AMUXAI_clean_PM
_symmetry_space_group_name_H-M	'P1'
_cell_length_a	9.950600
_cell_length_b	15.682300
_cell_length_c	21.500000
_cell_angle_alpha	100.072000
_cell_angle_beta	93.060000
_cell_angle_gamma	106.834000
_symmetry_Int_Tables_number 1

loop_
_symmetry_equiv_pos_as_xyz
'x,y,z'

loop_
_atom_site_label
_atom_site_type_symbol
_atom_site_fract_x
_atom_site_fract_y
_atom_site_fract_z
Cu11	Cu1	0.376350	0.799750	0.543980
Cu21	Cu2	0.949380	0.086880	0.365900
Cu31	Cu3	0.934540	0.099590	0.802760
Cu41	Cu4	0.623650	0.200250	0.456020
Cu51	Cu5	0.050620	0.913120	0.634100
Cu61	Cu6	0.065460	0.900410	0.197240
H11	H1	0.297500	0.327500	0.334200
H21	H2	0.513400	0.442500	0.364000
H31	H3	0.547500	0.376000	0.532300
H41	H4	0.330000	0.262400	0.504900
H51	H5	0.751100	0.492400	0.550500
H61	H6	0.722400	0.517100	0.428100
H71	H7	0.197900	0.684000	0.620600
H81	H8	0.979000	0.581600	0.612800
H91	H9	0.918300	0.603600	0.430500
H101	H10	0.156500	0.709800	0.444700
H111	H11	0.294400	0.151600	0.931200
H121	H12	0.493400	0.163500	0.013300
H131	H13	0.260500	0.936200	0.058300
H141	H14	0.086300	0.921000	0.980400
H151	H15	0.596100	0.108200	0.090200
H161	H16	0.423300	0.975400	0.133800
H171	H17	0.932500	0.124400	0.241200
H181	H18	0.783600	0.115300	0.156400
H191	H19	0.483600	0.957200	0.239400
H201	H20	0.646900	0.980300	0.323500
H211	H21	0.879800	0.076600	0.572300
H221	H22	0.198000	0.111700	0.761200
H231	H23	0.378500	0.209700	0.720700
H241	H24	0.374900	0.356600	0.719000
H251	H25	0.190900	0.405400	0.757700
H261	H26	0.010500	0.307300	0.798200
H271	H27	0.702500	0.672500	0.665800
H281	H28	0.486600	0.557500	0.636000
H291	H29	0.452500	0.624000	0.467700
H301	H30	0.670000	0.737600	0.495100
H311	H31	0.248900	0.507600	0.449500
H321	H32	0.277600	0.482900	0.571900
H331	H33	0.802100	0.316000	0.379400
H341	H34	0.021000	0.418400	0.387200
H351	H35	0.081700	0.396400	0.569500
H361	H36	0.843500	0.290200	0.555300
H371	H37	0.705600	0.848400	0.068800
H381	H38	0.506600	0.836500	0.986700
H391	H39	0.739500	0.063800	0.941700
H401	H40	0.913700	0.079000	0.019600
H411	H41	0.403900	0.891800	0.909800
H421	H42	0.576700	0.024600	0.866200
H431	H43	0.067500	0.875600	0.758800
H441	H44	0.216400	0.884700	0.843600
H451	H45	0.516400	0.042800	0.760600
H461	H46	0.353100	0.019700	0.676500
H471	H47	0.120200	0.923400	0.427700
H481	H48	0.802000	0.888300	0.238800
H491	H49	0.621500	0.790300	0.279300
H501	H50	0.625100	0.643400	0.281000
H511	H51	0.809100	0.594600	0.242300
H521	H52	0.989500	0.692700	0.201800
C11	C1	0.153600	0.214000	0.401800
C21	C2	0.291700	0.286300	0.420500
C31	C3	0.346100	0.337900	0.374300
C41	C4	0.476900	0.405300	0.392300
C51	C5	0.552100	0.418100	0.449500
C61	C6	0.497900	0.366600	0.492600
C71	C7	0.365700	0.298900	0.476200
C81	C8	0.781300	0.516700	0.515400
C91	C9	0.692700	0.488900	0.461700
C101	C10	0.141900	0.666700	0.581700
C111	C11	0.009400	0.606300	0.577800
C121	C12	0.923100	0.582900	0.522800
C131	C13	0.974000	0.619300	0.469300
C141	C14	0.118900	0.683100	0.477900
C151	C15	0.057700	0.038000	0.893200
C161	C16	0.174700	0.031100	0.946000
C171	C17	0.289000	0.106800	0.955100
C181	C18	0.410000	0.115000	0.007000
C191	C19	0.390000	0.051000	0.042500
C201	C20	0.271500	0.979600	0.033000
C211	C21	0.167000	0.970800	0.985700
C221	C22	0.511500	0.064300	0.092400
C231	C23	0.507200	0.021800	0.135300
C241	C24	0.837800	0.092600	0.241400
C251	C25	0.752500	0.086200	0.189400
C261	C26	0.612600	0.032100	0.188600
C271	C27	0.575700	0.993600	0.239000
C281	C28	0.673900	0.008200	0.289500
C291	C29	0.560300	0.869100	0.657300
C301	C30	0.623800	0.922000	0.609000
C311	C31	0.752200	0.994600	0.617300
C321	C32	0.838600	0.029100	0.681400
C331	C33	0.796000	0.029000	0.566800
C341	C34	0.778300	0.034800	0.449400
C351	C35	0.721500	0.996900	0.505500
C361	C36	0.593500	0.922400	0.501200
C371	C37	0.493900	0.873600	0.443500
C381	C38	0.197000	0.170500	0.760500
C391	C39	0.305000	0.229000	0.736200
C401	C40	0.303000	0.317000	0.735000
C411	C41	0.192000	0.346500	0.758000
C421	C42	0.084000	0.287700	0.782700
C431	C43	0.846400	0.786000	0.598200
C441	C44	0.708300	0.713700	0.579500
C451	C45	0.653900	0.662100	0.625700
C461	C46	0.523100	0.594700	0.607700
C471	C47	0.447900	0.581900	0.550500
C481	C48	0.502100	0.633400	0.507400
C491	C49	0.634300	0.701100	0.523800
C501	C50	0.218700	0.483300	0.484600
C511	C51	0.307300	0.511100	0.538300
C521	C52	0.858100	0.333300	0.418300
C531	C53	0.990600	0.393700	0.422200
C541	C54	0.076900	0.417100	0.477200
C551	C55	0.026000	0.380700	0.530700
C561	C56	0.881100	0.316900	0.522100
C571	C57	0.942300	0.962000	0.106800
C581	C58	0.825300	0.968900	0.054000
C591	C59	0.711000	0.893200	0.044900
C601	C60	0.590000	0.885000	0.993000
C611	C61	0.610000	0.949000	0.957500
C621	C62	0.728500	0.020400	0.967000
C631	C63	0.833000	0.029200	0.014300
C641	C64	0.488500	0.935700	0.907600
C651	C65	0.492800	0.978200	0.864700
C661	C66	0.162200	0.907400	0.758600
C671	C67	0.247500	0.913800	0.810600
C681	C68	0.387400	0.967900	0.811400
C691	C69	0.424300	0.006400	0.761000
C701	C70	0.326100	0.991800	0.710500
C711	C71	0.439700	0.130900	0.342700
C721	C72	0.376200	0.078000	0.391000
C731	C73	0.247800	0.005400	0.382700
C741	C74	0.161400	0.970900	0.318600
C751	C75	0.204000	0.971000	0.433200
C761	C76	0.221700	0.965200	0.550600
C771	C77	0.278500	0.003100	0.494500
C781	C78	0.406500	0.077600	0.498800
C791	C79	0.506100	0.126400	0.556500
C801	C80	0.803000	0.829500	0.239500
C811	C81	0.695000	0.771000	0.263800
C821	C82	0.697000	0.683000	0.265000
C831	C83	0.808000	0.653500	0.242000
C841	C84	0.916000	0.712300	0.217300
N11	N1	0.193700	0.701300	0.534100
N21	N2	0.805200	0.060000	0.292300
N31	N3	0.555300	0.893500	0.552000
N41	N4	0.086400	0.199800	0.783700
N51	N5	0.806300	0.298700	0.465900
N61	N6	0.194800	0.940000	0.707700
N71	N7	0.444700	0.106500	0.448000
N81	N8	0.913600	0.800200	0.216300
O11	O1	0.107500	0.157600	0.436800
O21	O2	0.083700	0.205200	0.348300
O31	O3	0.967700	0.946400	0.881100
O41	O4	0.063800	0.097000	0.869700
O51	O5	0.618500	0.880200	0.712300
O61	O6	0.436000	0.808400	0.634600
O71	O7	0.812900	0.086900	0.721800
O81	O8	0.945300	0.999900	0.687500
O91	O9	0.848700	0.995200	0.416700
O101	O10	0.756400	0.105500	0.442700
O111	O11	0.515000	0.896400	0.391400
O121	O12	0.388400	0.806500	0.453200
O131	O13	0.892500	0.842400	0.563200
O141	O14	0.916300	0.794800	0.651700
O151	O15	0.032300	0.053600	0.118900
O161	O16	0.936200	0.903000	0.130300
O171	O17	0.381500	0.119800	0.287700
O181	O18	0.564000	0.191600	0.365400
O191	O19	0.187100	0.913100	0.278200
O201	O20	0.054700	0.000100	0.312500
O211	O21	0.151300	0.004800	0.583300
O221	O22	0.243600	0.894500	0.557300
O231	O23	0.485000	0.103600	0.608600
O241	O24	0.611600	0.193500	0.546800
