data_ANEHEI_clean_PM
_symmetry_space_group_name_H-M	'P1'
_cell_length_a	14.921500
_cell_length_b	15.322600
_cell_length_c	15.984000
_cell_angle_alpha	72.669000
_cell_angle_beta	63.676000
_cell_angle_gamma	63.788000
_symmetry_Int_Tables_number 1

loop_
_symmetry_equiv_pos_as_xyz
'x,y,z'

loop_
_atom_site_label
_atom_site_type_symbol
_atom_site_fract_x
_atom_site_fract_y
_atom_site_fract_z
Zn11	Zn1	0.698150	0.106320	0.153990
Zn21	Zn2	0.210810	0.996000	0.390220
Zn31	Zn3	0.314020	0.097470	0.484420
Zn41	Zn4	0.842510	0.340880	0.352600
C11	C1	0.278700	0.978100	0.667300
H11	H1	0.295400	0.023400	0.679900
C21	C2	0.247800	0.917500	0.577900
C31	C3	0.227000	0.837600	0.642100
C41	C4	0.231100	0.833000	0.727100
C51	C5	0.209700	0.825400	0.525400
C61	C6	0.147200	0.294500	0.507500
H21	H2	0.192200	0.298100	0.531200
C71	C7	0.110500	0.209400	0.445400
C81	C8	0.019400	0.290400	0.438200
C91	C9	0.995800	0.376100	0.471000
C101	C10	0.028600	0.172100	0.386500
H31	H3	0.014100	0.135700	0.360000
C111	C11	0.366600	0.971900	0.205300
H41	H4	0.320000	0.947100	0.205000
C121	C12	0.416900	0.032500	0.282700
C131	C13	0.501600	0.040000	0.204400
C141	C14	0.518300	0.016800	0.119400
C151	C15	0.495700	0.098200	0.313200
H51	H5	0.511100	0.127800	0.345500
C161	C16	0.070100	0.859100	0.318000
H61	H6	0.019400	0.848600	0.381600
C171	C17	0.008800	0.932900	0.266400
H71	H7	0.976400	0.993500	0.293500
H81	H8	0.951300	0.914600	0.273200
C181	C18	0.075000	0.951900	0.158500
H91	H9	0.029100	0.004100	0.127100
H101	H10	0.133100	0.970600	0.149700
C191	C19	0.119800	0.855100	0.118200
H111	H11	0.059500	0.837500	0.128900
C201	C20	0.187300	0.776900	0.169900
H121	H12	0.246200	0.794300	0.161100
H131	H13	0.217200	0.715700	0.144400
C211	C21	0.121000	0.762800	0.276000
H141	H14	0.065200	0.740800	0.285100
H151	H15	0.167200	0.712900	0.308300
C221	C22	0.151900	0.886400	0.328600
C231	C23	0.179700	0.867200	0.016700
C241	C24	0.474200	0.202300	0.575500
H161	H16	0.537800	0.141900	0.568400
C251	C25	0.455200	0.239000	0.661100
H171	H17	0.431100	0.195000	0.716300
H181	H18	0.522500	0.237500	0.657300
C261	C26	0.374300	0.340600	0.672900
H191	H19	0.368800	0.361700	0.727100
H201	H20	0.304600	0.341500	0.683800
C271	C27	0.407600	0.410700	0.584800
H211	H21	0.478400	0.407300	0.575600
C281	C28	0.419000	0.377000	0.499700
H221	H22	0.440500	0.421600	0.443900
H231	H23	0.350600	0.377500	0.507300
C291	C29	0.504200	0.272100	0.487600
H241	H24	0.509300	0.250000	0.434300
H251	H25	0.573700	0.272700	0.475300
C301	C30	0.382600	0.172400	0.584700
C311	C31	0.331200	0.513600	0.601100
C321	C32	0.956200	0.485800	0.097800
H261	H26	0.932500	0.555000	0.104300
C331	C33	0.899500	0.487500	0.046700
H271	H27	0.823300	0.519500	0.079500
H281	H28	0.912300	0.420700	0.043000
C341	C34	0.066300	0.457300	0.055300
H291	H29	0.097300	0.387200	0.052500
H301	H30	0.093900	0.470800	0.092800
C351	C35	0.925300	0.437300	0.197200
N11	N1	0.260300	0.905900	0.733000
N21	N2	0.274300	0.989000	0.581600
N31	N3	0.200900	0.778300	0.612900
N41	N4	0.234800	0.907400	0.501900
N51	N5	0.202000	0.757200	0.795000
H311	H31	0.244100	0.730400	0.826800
H321	H32	0.136700	0.782400	0.833300
N61	N6	0.068100	0.371700	0.505400
N71	N7	0.176900	0.207700	0.480900
N81	N8	0.967800	0.263600	0.401100
N91	N9	0.113800	0.135500	0.413100
N101	N10	0.916400	0.456300	0.465100
H331	H33	0.907700	0.508200	0.482700
H341	H34	0.872100	0.457800	0.443500
N111	N11	0.447800	0.978700	0.123500
N121	N12	0.346300	0.996800	0.286400
N131	N13	0.556000	0.081500	0.225400
N141	N14	0.410300	0.069900	0.353700
N151	N15	0.590900	0.029200	0.037600
H351	H35	0.593600	0.013900	0.988800
H361	H36	0.636100	0.052800	0.032500
O11	O1	0.147700	0.861700	0.959200
O21	O2	0.266600	0.885200	0.985300
O31	O3	0.124400	0.959200	0.354800
O41	O4	0.248500	0.817600	0.319600
O51	O5	0.401200	0.141800	0.511500
O61	O6	0.302200	0.177900	0.657100
O71	O7	0.267600	0.558200	0.554700
O81	O8	0.317900	0.549400	0.667800
O91	O9	0.913800	0.351200	0.211900
O101	O10	0.903600	0.473800	0.267000
Zn51	Zn5	0.301850	0.893680	0.846010
Zn61	Zn6	0.789190	0.004000	0.609780
Zn71	Zn7	0.685980	0.902530	0.515580
Zn81	Zn8	0.157490	0.659120	0.647400
C361	C36	0.721300	0.021900	0.332700
H371	H37	0.704600	0.976600	0.320100
C371	C37	0.752200	0.082500	0.422100
C381	C38	0.773000	0.162400	0.357900
C391	C39	0.768900	0.167000	0.272900
C401	C40	0.790300	0.174600	0.474600
C411	C41	0.852800	0.705500	0.492500
H381	H38	0.807800	0.701900	0.468800
C421	C42	0.889500	0.790600	0.554600
C431	C43	0.980600	0.709600	0.561800
C441	C44	0.004200	0.623900	0.529000
C451	C45	0.971400	0.827900	0.613500
H391	H39	0.985900	0.864300	0.640000
C461	C46	0.633400	0.028100	0.794700
H401	H40	0.680000	0.052900	0.795000
C471	C47	0.583100	0.967500	0.717300
C481	C48	0.498400	0.960000	0.795600
C491	C49	0.481700	0.983200	0.880600
C501	C50	0.504300	0.901800	0.686800
H411	H41	0.488900	0.872200	0.654500
C511	C51	0.929900	0.140900	0.682000
H421	H42	0.980600	0.151400	0.618400
C521	C52	0.991200	0.067100	0.733600
H431	H43	0.023600	0.006500	0.706500
H441	H44	0.048700	0.085400	0.726800
C531	C53	0.925000	0.048100	0.841500
H451	H45	0.970900	0.995900	0.872900
H461	H46	0.866900	0.029400	0.850300
C541	C54	0.880200	0.144900	0.881800
H471	H47	0.940500	0.162500	0.871100
C551	C55	0.812700	0.223100	0.830100
H481	H48	0.753800	0.205700	0.838900
H491	H49	0.782800	0.284300	0.855600
C561	C56	0.879000	0.237200	0.724000
H501	H50	0.934800	0.259200	0.714900
H511	H51	0.832800	0.287100	0.691700
C571	C57	0.848100	0.113600	0.671400
C581	C58	0.820300	0.132800	0.983300
C591	C59	0.525800	0.797700	0.424500
H521	H52	0.462200	0.858100	0.431600
C601	C60	0.544800	0.761000	0.338900
H531	H53	0.568900	0.805000	0.283700
H541	H54	0.477500	0.762500	0.342700
C611	C61	0.625700	0.659400	0.327100
H551	H55	0.631200	0.638300	0.272900
H561	H56	0.695400	0.658500	0.316200
C621	C62	0.592400	0.589300	0.415200
H571	H57	0.521600	0.592700	0.424400
C631	C63	0.581000	0.623000	0.500300
H581	H58	0.559500	0.578400	0.556100
H591	H59	0.649400	0.622500	0.492700
C641	C64	0.495800	0.727900	0.512400
H601	H60	0.490700	0.750000	0.565700
H611	H61	0.426300	0.727300	0.524700
C651	C65	0.617400	0.827600	0.415300
C661	C66	0.668800	0.486400	0.398900
C671	C67	0.043800	0.514200	0.902200
H621	H62	0.067500	0.445000	0.895700
C681	C68	0.100500	0.512500	0.953300
H631	H63	0.176700	0.480500	0.920500
H641	H64	0.087700	0.579300	0.957000
C691	C69	0.933700	0.542700	0.944700
H651	H65	0.902700	0.612800	0.947500
H661	H66	0.906100	0.529200	0.907200
C701	C70	0.074700	0.562700	0.802800
N161	N16	0.739700	0.094100	0.267000
N171	N17	0.725700	0.011000	0.418400
N181	N18	0.799100	0.221700	0.387100
N191	N19	0.765200	0.092600	0.498100
N201	N20	0.798000	0.242800	0.205000
H671	H67	0.755900	0.269600	0.173200
H681	H68	0.863300	0.217600	0.166700
N211	N21	0.931900	0.628300	0.494600
N221	N22	0.823100	0.792300	0.519100
N231	N23	0.032200	0.736400	0.598900
N241	N24	0.886200	0.864500	0.586900
N251	N25	0.083600	0.543700	0.534900
H691	H69	0.092300	0.491800	0.517300
H701	H70	0.127900	0.542200	0.556500
N261	N26	0.552200	0.021300	0.876500
N271	N27	0.653700	0.003200	0.713600
N281	N28	0.444000	0.918500	0.774600
N291	N29	0.589700	0.930100	0.646300
N301	N30	0.409100	0.970800	0.962400
H711	H71	0.406400	0.986100	0.011200
H721	H72	0.363900	0.947200	0.967500
O111	O11	0.852300	0.138300	0.040800
O121	O12	0.733400	0.114800	0.014700
O131	O13	0.875600	0.040800	0.645200
O141	O14	0.751500	0.182400	0.680400
O151	O15	0.598800	0.858200	0.488500
O161	O16	0.697800	0.822100	0.342900
O171	O17	0.732400	0.441800	0.445300
O181	O18	0.682100	0.450600	0.332200
O191	O19	0.086200	0.648800	0.788100
O201	O20	0.096400	0.526200	0.733000
