data_ANENEN_clean_PM
_symmetry_space_group_name_H-M	'P1'
_cell_length_a	9.799000
_cell_length_b	11.272000
_cell_length_c	15.935000
_cell_angle_alpha	70.517000
_cell_angle_beta	84.668000
_cell_angle_gamma	71.046000
_symmetry_Int_Tables_number 1

loop_
_symmetry_equiv_pos_as_xyz
'x,y,z'

loop_
_atom_site_label
_atom_site_type_symbol
_atom_site_fract_x
_atom_site_fract_y
_atom_site_fract_z
La11	La1	0.780910	0.550680	0.989270
La21	La2	0.219090	0.449320	0.010730
H11	H1	0.899500	0.247700	0.654200
H21	H2	0.852900	0.317100	0.777700
H31	H3	0.252500	0.339100	0.768100
H41	H4	0.301500	0.260400	0.649800
H51	H5	0.023200	0.951300	0.583000
H61	H6	0.892500	0.841200	0.690000
H71	H7	0.152300	0.815500	0.877600
H81	H8	0.271500	0.939700	0.771300
H91	H9	0.000100	0.346800	0.396200
H101	H10	0.975300	0.428700	0.461900
H111	H11	0.089000	0.443800	0.386300
H121	H12	0.424500	0.883300	0.585400
H131	H13	0.340800	0.826400	0.537400
H141	H14	0.430000	0.918300	0.481600
H151	H15	0.725300	0.444300	0.369500
H161	H16	0.725600	0.440500	0.225300
H171	H17	0.318800	0.432500	0.251000
H181	H18	0.318700	0.436700	0.394800
H191	H19	0.100500	0.752300	0.345800
H201	H20	0.147100	0.682900	0.222300
H211	H21	0.747500	0.660900	0.231900
H221	H22	0.698500	0.739600	0.350200
H231	H23	0.976800	0.048700	0.417000
H241	H24	0.107500	0.158800	0.310000
H251	H25	0.847700	0.184500	0.122400
H261	H26	0.728500	0.060300	0.228700
H271	H27	0.999900	0.653200	0.603800
H281	H28	0.024700	0.571300	0.538100
H291	H29	0.911000	0.556200	0.613700
H301	H30	0.575500	0.116700	0.414600
H311	H31	0.659200	0.173600	0.462600
H321	H32	0.570000	0.081700	0.518400
H331	H33	0.274700	0.555700	0.630500
H341	H34	0.274400	0.559500	0.774700
H351	H35	0.681200	0.567500	0.749000
H361	H36	0.681300	0.563300	0.605200
C11	C1	0.157000	0.184700	0.564700
C21	C2	0.105800	0.244300	0.639000
C31	C3	0.972100	0.264400	0.677800
C41	C4	0.942500	0.308600	0.751000
C51	C5	0.045300	0.339700	0.783600
C61	C6	0.181000	0.320100	0.745400
C71	C7	0.210100	0.273100	0.674500
C81	C8	0.017200	0.393600	0.859600
C91	C9	0.250600	0.040200	0.600200
C101	C10	0.159700	0.959700	0.665600
C111	C11	0.047700	0.926700	0.642800
C121	C12	0.971000	0.857900	0.706800
C131	C13	0.011000	0.813500	0.796100
C141	C14	0.123800	0.844500	0.818200
C151	C15	0.196800	0.918300	0.754100
C161	C16	0.937600	0.729400	0.865500
C171	C17	0.046000	0.383000	0.428000
C181	C18	0.371000	0.901000	0.533000
C191	C19	0.537000	0.436100	0.491600
C201	C20	0.521400	0.439400	0.397400
C211	C21	0.643700	0.441000	0.346100
C221	C22	0.644000	0.437800	0.259800
C231	C23	0.525900	0.430900	0.225000
C241	C24	0.401300	0.433200	0.275200
C251	C25	0.401400	0.436500	0.361000
C261	C26	0.529600	0.418900	0.133600
C271	C27	0.607000	0.227500	0.556300
C281	C28	0.843000	0.815300	0.435300
C291	C29	0.894200	0.755700	0.361000
C301	C30	0.027900	0.735600	0.322200
C311	C31	0.057500	0.691400	0.249000
C321	C32	0.954700	0.660300	0.216400
C331	C33	0.819000	0.679900	0.254600
C341	C34	0.789900	0.726900	0.325500
C351	C35	0.982800	0.606400	0.140400
C361	C36	0.749400	0.959800	0.399800
C371	C37	0.840300	0.040300	0.334400
C381	C38	0.952300	0.073300	0.357200
C391	C39	0.029000	0.142100	0.293200
C401	C40	0.989000	0.186500	0.203900
C411	C41	0.876200	0.155500	0.181800
C421	C42	0.803200	0.081700	0.245900
C431	C43	0.062400	0.270600	0.134500
C441	C44	0.954000	0.617000	0.572000
C451	C45	0.629000	0.099000	0.467000
C461	C46	0.463000	0.563900	0.508400
C471	C47	0.478600	0.560600	0.602600
C481	C48	0.356300	0.559000	0.653900
C491	C49	0.356000	0.562200	0.740200
C501	C50	0.474100	0.569100	0.775000
C511	C51	0.598700	0.566800	0.724800
C521	C52	0.598600	0.563500	0.639000
C531	C53	0.470400	0.581100	0.866400
C541	C54	0.393000	0.772500	0.443700
O11	O1	0.890400	0.426000	0.886600
O21	O2	0.122200	0.408100	0.889600
O31	O3	0.808700	0.743800	0.854400
O41	O4	0.006600	0.645200	0.934500
O51	O5	0.156000	0.276800	0.487400
O61	O6	0.244000	0.017000	0.523900
O71	O7	0.639100	0.425300	0.088300
O81	O8	0.423900	0.399900	0.107700
O91	O9	0.641600	0.348600	0.541900
O101	O10	0.109600	0.574000	0.113400
O111	O11	0.877800	0.591900	0.110400
O121	O12	0.191300	0.256200	0.145600
O131	O13	0.993400	0.354800	0.065500
O141	O14	0.844000	0.723200	0.512600
O151	O15	0.756000	0.983000	0.476100
O161	O16	0.360900	0.574700	0.911700
O171	O17	0.576100	0.600100	0.892300
O181	O18	0.358400	0.651400	0.458100
