data_ANEPIT_clean_PM
_symmetry_space_group_name_H-M	'P1'
_cell_length_a	14.381000
_cell_length_b	16.173000
_cell_length_c	21.049000
_cell_angle_alpha	89.880000
_cell_angle_beta	89.880000
_cell_angle_gamma	65.100000
_symmetry_Int_Tables_number 1

loop_
_symmetry_equiv_pos_as_xyz
'x,y,z'

loop_
_atom_site_label
_atom_site_type_symbol
_atom_site_fract_x
_atom_site_fract_y
_atom_site_fract_z
Co11	Co1	0.800120	0.234840	0.438950
Co21	Co2	0.572410	0.445420	0.436680
Co31	Co3	0.062250	0.941640	0.065200
Co41	Co4	0.301880	0.742910	0.065090
Co51	Co5	0.199880	0.765160	0.561050
Co61	Co6	0.427590	0.554580	0.563320
Co71	Co7	0.937750	0.058360	0.934800
Co81	Co8	0.698120	0.257090	0.934910
H11	H1	0.635100	0.098100	0.370500
H21	H2	0.437000	0.326900	0.287800
H31	H3	0.376700	0.242600	0.225900
H41	H4	0.468700	0.894100	0.127700
H51	H5	0.195900	0.080700	0.183500
H61	H6	0.275600	0.152700	0.240900
H71	H7	0.820400	0.976900	0.461100
H81	H8	0.606600	0.073800	0.596400
H91	H9	0.600100	0.933100	0.602100
H101	H10	0.796900	0.571600	0.582400
H111	H11	0.525900	0.703600	0.496600
H121	H12	0.550800	0.835700	0.496300
H131	H13	0.920900	0.352700	0.290100
H141	H14	0.775500	0.581600	0.389500
H151	H15	0.862200	0.649200	0.334500
H161	H16	0.194700	0.616800	0.197100
H171	H17	0.907500	0.787700	0.155000
H181	H18	0.848200	0.697100	0.210800
H191	H19	0.323500	0.060300	0.974800
H201	H20	0.022500	0.204000	0.002700
H211	H21	0.045600	0.336000	0.007000
H221	H22	0.292400	0.497700	0.070200
H231	H23	0.124600	0.557900	0.912800
H241	H24	0.119500	0.417800	0.916600
H251	H25	0.832600	0.059200	0.369300
H261	H26	0.949900	0.947700	0.308100
H271	H27	0.131900	0.077300	0.318500
H281	H28	0.010000	0.185600	0.380200
H291	H29	0.167300	0.956300	0.239100
H301	H30	0.100400	0.900800	0.238000
H311	H31	0.182700	0.817300	0.324700
H321	H32	0.236800	0.881700	0.338500
H331	H33	0.280800	0.774500	0.226300
H341	H34	0.344200	0.826500	0.251600
H351	H35	0.573600	0.621200	0.388800
H361	H36	0.482400	0.747600	0.328600
H371	H37	0.290900	0.638000	0.285600
H381	H38	0.389100	0.510800	0.343600
H391	H39	0.509900	0.702300	0.135300
H401	H40	0.634900	0.589100	0.190600
H411	H41	0.456900	0.456700	0.193400
H421	H42	0.339400	0.572100	0.137600
H431	H43	0.688100	0.451500	0.255500
H441	H44	0.604000	0.417000	0.271500
H451	H45	0.743200	0.359100	0.171800
H461	H46	0.647900	0.335900	0.174100
H471	H47	0.794400	0.280700	0.272500
H481	H48	0.708500	0.246300	0.262400
H491	H49	0.031700	0.123000	0.115000
H501	H50	0.925700	0.241600	0.176100
H511	H51	0.759700	0.102300	0.212900
H521	H52	0.870400	0.985900	0.151300
H531	H53	0.364900	0.901900	0.629500
H541	H54	0.563000	0.673100	0.712200
H551	H55	0.623300	0.757400	0.774100
H561	H56	0.531300	0.105900	0.872300
H571	H57	0.804100	0.919300	0.816500
H581	H58	0.724400	0.847300	0.759100
H591	H59	0.179600	0.023100	0.538900
H601	H60	0.393400	0.926200	0.403600
H611	H61	0.399900	0.066900	0.397900
H621	H62	0.203100	0.428400	0.417600
H631	H63	0.474100	0.296400	0.503400
H641	H64	0.449200	0.164300	0.503700
H651	H65	0.079100	0.647300	0.709900
H661	H66	0.224500	0.418400	0.610500
H671	H67	0.137800	0.350800	0.665500
H681	H68	0.805300	0.383200	0.802900
H691	H69	0.092500	0.212300	0.845000
H701	H70	0.151800	0.302900	0.789200
H711	H71	0.676500	0.939700	0.025200
H721	H72	0.977500	0.796000	0.997300
H731	H73	0.954400	0.664000	0.993000
H741	H74	0.707600	0.502300	0.929800
H751	H75	0.875400	0.442100	0.087200
H761	H76	0.880500	0.582200	0.083400
H771	H77	0.167400	0.940800	0.630700
H781	H78	0.050100	0.052300	0.691900
H791	H79	0.868100	0.922700	0.681500
H801	H80	0.990000	0.814400	0.619800
H811	H81	0.832700	0.043700	0.760900
H821	H82	0.899600	0.099200	0.762000
H831	H83	0.817300	0.182700	0.675300
H841	H84	0.763200	0.118300	0.661500
H851	H85	0.719200	0.225500	0.773700
H861	H86	0.655800	0.173500	0.748400
H871	H87	0.426400	0.378800	0.611200
H881	H88	0.517600	0.252400	0.671400
H891	H89	0.709100	0.362000	0.714400
H901	H90	0.610900	0.489200	0.656400
H911	H91	0.490100	0.297700	0.864700
H921	H92	0.365100	0.410900	0.809400
H931	H93	0.543100	0.543300	0.806600
H941	H94	0.660600	0.427900	0.862400
H951	H95	0.311900	0.548500	0.744500
H961	H96	0.396000	0.583000	0.728500
H971	H97	0.256800	0.640900	0.828200
H981	H98	0.352100	0.664100	0.825900
H991	H99	0.205600	0.719300	0.727500
H1001	H100	0.291500	0.753700	0.737600
H1011	H101	0.968300	0.877000	0.885000
H1021	H102	0.074300	0.758400	0.823900
H1031	H103	0.240300	0.897700	0.787100
H1041	H104	0.129600	0.014100	0.848700
C11	C1	0.466500	0.118000	0.261100
C21	C2	0.542500	0.078100	0.307500
C31	C3	0.582500	0.127700	0.341700
C41	C4	0.545400	0.221500	0.333800
C51	C5	0.466000	0.263800	0.291800
C61	C6	0.428500	0.212700	0.255200
C71	C7	0.594500	0.272300	0.370800
C81	C8	0.421900	0.068200	0.220400
C91	C9	0.477000	0.991200	0.183700
C101	C10	0.429200	0.946200	0.150700
C111	C11	0.324400	0.976900	0.151200
C121	C12	0.267100	0.056600	0.184300
C131	C13	0.315500	0.100200	0.218500
C141	C14	0.274300	0.923200	0.118300
C151	C15	0.703100	0.870500	0.534300
C161	C16	0.766800	0.886300	0.491900
C171	C17	0.774500	0.969400	0.489200
C181	C18	0.714700	0.040000	0.527900
C191	C19	0.648400	0.026500	0.570100
C201	C20	0.644100	0.941500	0.573000
C211	C21	0.719500	0.131100	0.522600
C221	C22	0.688400	0.784200	0.538100
C231	C23	0.757900	0.705100	0.566300
C241	C24	0.746700	0.624500	0.565300
C251	C25	0.659200	0.623700	0.538200
C261	C26	0.585900	0.703000	0.513400
C271	C27	0.601000	0.782600	0.513400
C281	C28	0.648800	0.535400	0.533900
C291	C29	0.937800	0.546700	0.274000
C301	C30	0.951800	0.457300	0.261500
C311	C31	0.906400	0.413400	0.298100
C321	C32	0.839300	0.459500	0.346600
C331	C33	0.822000	0.548900	0.358100
C341	C34	0.872400	0.590200	0.323900
C351	C35	0.783900	0.413600	0.382700
C361	C36	0.984300	0.600000	0.237300
C371	C37	0.089600	0.578800	0.233700
C381	C38	0.124500	0.633400	0.200200
C391	C39	0.056700	0.712600	0.171300
C401	C40	0.953800	0.735200	0.174900
C411	C41	0.918500	0.679900	0.208100
C421	C42	0.098700	0.771000	0.135700
C431	C43	0.198600	0.280000	0.993700
C441	C44	0.280000	0.196000	0.984700
C451	C45	0.267200	0.115800	0.980900
C461	C46	0.170200	0.119600	0.986400
C471	C47	0.087700	0.201800	0.997400
C481	C48	0.102000	0.280800	0.000400
C491	C49	0.156500	0.032700	0.982300
C501	C50	0.205400	0.370100	0.995200
C511	C51	0.253400	0.398600	0.041300
C521	C52	0.257400	0.481900	0.038800
C531	C53	0.210000	0.542600	0.990000
C541	C54	0.158500	0.517500	0.945400
C551	C55	0.155600	0.432900	0.947600
C561	C56	0.214700	0.633700	0.989500
C571	C57	0.893400	0.063300	0.358700
C581	C58	0.963800	0.995800	0.322100
C591	C59	0.054700	0.999100	0.306000
C601	C60	0.071400	0.072200	0.328300
C611	C61	0.997400	0.137400	0.365000
C621	C62	0.133800	0.927900	0.265600
C631	C63	0.213300	0.854000	0.305000
C641	C64	0.305200	0.792700	0.264400
C651	C65	0.515500	0.624300	0.367600
C661	C66	0.460600	0.701200	0.331900
C671	C67	0.374300	0.708100	0.301500
C681	C68	0.348900	0.635800	0.306400
C691	C69	0.407500	0.559400	0.341800
C701	C70	0.500400	0.650200	0.144800
C711	C71	0.575400	0.583000	0.179900
C721	C72	0.562700	0.508300	0.198900
C731	C73	0.470700	0.505700	0.181300
C741	C74	0.401700	0.574100	0.146700
C751	C75	0.639400	0.431400	0.236900
C761	C76	0.696000	0.348400	0.200100
C771	C77	0.756100	0.264900	0.240500
C781	C78	0.976300	0.118400	0.135000
C791	C79	0.912600	0.190300	0.171600
C801	C80	0.829000	0.186500	0.202000
C811	C81	0.814800	0.108000	0.193400
C821	C82	0.881500	0.038100	0.156200
C831	C83	0.533500	0.882000	0.738900
C841	C84	0.457500	0.921900	0.692500
C851	C85	0.417500	0.872300	0.658300
C861	C86	0.454600	0.778500	0.666200
C871	C87	0.534000	0.736200	0.708200
C881	C88	0.571500	0.787300	0.744800
C891	C89	0.405500	0.727700	0.629200
C901	C90	0.578100	0.931800	0.779600
C911	C91	0.523000	0.008800	0.816300
C921	C92	0.570800	0.053800	0.849300
C931	C93	0.675600	0.023100	0.848800
C941	C94	0.732900	0.943400	0.815700
C951	C95	0.684500	0.899800	0.781500
C961	C96	0.725700	0.076800	0.881700
C971	C97	0.296900	0.129500	0.465700
C981	C98	0.233200	0.113700	0.508100
C991	C99	0.225500	0.030600	0.510800
C1001	C100	0.285300	0.960000	0.472100
C1011	C101	0.351600	0.973500	0.429900
C1021	C102	0.355900	0.058500	0.427000
C1031	C103	0.280500	0.868900	0.477400
C1041	C104	0.311600	0.215800	0.461900
C1051	C105	0.242100	0.294900	0.433700
C1061	C106	0.253300	0.375500	0.434700
C1071	C107	0.340800	0.376300	0.461800
C1081	C108	0.414100	0.297000	0.486600
C1091	C109	0.399000	0.217400	0.486600
C1101	C110	0.351200	0.464600	0.466100
C1111	C111	0.062200	0.453300	0.726000
C1121	C112	0.048200	0.542700	0.738500
C1131	C113	0.093600	0.586600	0.701900
C1141	C114	0.160700	0.540500	0.653400
C1151	C115	0.178000	0.451100	0.641900
C1161	C116	0.127600	0.409800	0.676100
C1171	C117	0.216100	0.586400	0.617300
C1181	C118	0.015700	0.400000	0.762700
C1191	C119	0.910400	0.421200	0.766300
C1201	C120	0.875500	0.366600	0.799800
C1211	C121	0.943300	0.287400	0.828700
C1221	C122	0.046200	0.264800	0.825100
C1231	C123	0.081500	0.320100	0.791900
C1241	C124	0.901300	0.229000	0.864300
C1251	C125	0.801400	0.720000	0.006300
C1261	C126	0.720000	0.804000	0.015300
C1271	C127	0.732800	0.884200	0.019100
C1281	C128	0.829800	0.880400	0.013600
C1291	C129	0.912300	0.798200	0.002600
C1301	C130	0.898000	0.719200	0.999600
C1311	C131	0.843500	0.967300	0.017700
C1321	C132	0.794600	0.629900	0.004800
C1331	C133	0.746600	0.601400	0.958700
C1341	C134	0.742600	0.518100	0.961200
C1351	C135	0.790000	0.457400	0.010000
C1361	C136	0.841500	0.482500	0.054600
C1371	C137	0.844400	0.567100	0.052400
C1381	C138	0.785300	0.366300	0.010500
C1391	C139	0.106600	0.936700	0.641300
C1401	C140	0.036200	0.004200	0.677900
C1411	C141	0.945300	0.000900	0.694000
C1421	C142	0.928600	0.927800	0.671700
C1431	C143	0.002600	0.862600	0.635000
C1441	C144	0.866200	0.072100	0.734400
C1451	C145	0.786700	0.146000	0.695000
C1461	C146	0.694800	0.207300	0.735600
C1471	C147	0.484500	0.375700	0.632400
C1481	C148	0.539400	0.298800	0.668100
C1491	C149	0.625700	0.291900	0.698500
C1501	C150	0.651100	0.364200	0.693600
C1511	C151	0.592500	0.440600	0.658200
C1521	C152	0.499600	0.349800	0.855200
C1531	C153	0.424600	0.417000	0.820100
C1541	C154	0.437300	0.491700	0.801100
C1551	C155	0.529300	0.494300	0.818700
C1561	C156	0.598300	0.425900	0.853300
C1571	C157	0.360600	0.568600	0.763100
C1581	C158	0.304000	0.651600	0.799900
C1591	C159	0.243900	0.735100	0.759500
C1601	C160	0.023700	0.881600	0.865000
C1611	C161	0.087400	0.809700	0.828400
C1621	C162	0.171000	0.813500	0.798000
C1631	C163	0.185200	0.892000	0.806600
C1641	C164	0.118500	0.961900	0.843800
N11	N1	0.583800	0.981000	0.322600
N21	N2	0.590200	0.952900	0.177400
N31	N3	0.829500	0.818100	0.445200
N41	N4	0.850100	0.702400	0.597900
N51	N5	0.015800	0.405500	0.208400
N61	N6	0.166400	0.499400	0.264800
N71	N7	0.387100	0.183900	0.979400
N81	N8	0.301800	0.341200	0.096400
N91	N9	0.908100	0.134800	0.380100
N101	N10	0.490500	0.554200	0.373400
N111	N11	0.962700	0.043000	0.126700
N121	N12	0.418000	0.646200	0.124200
N131	N13	0.416200	0.019000	0.677400
N141	N14	0.409800	0.047100	0.822600
N151	N15	0.170500	0.181900	0.554800
N161	N16	0.149900	0.297600	0.402100
N171	N17	0.984200	0.594500	0.791600
N181	N18	0.833600	0.500600	0.735200
N191	N19	0.612900	0.816100	0.020600
N201	N20	0.698200	0.658800	0.903600
N211	N21	0.091900	0.865200	0.619900
N221	N22	0.509500	0.445800	0.626600
N231	N23	0.037300	0.957000	0.873300
N241	N24	0.582000	0.353800	0.875800
O11	O1	0.681800	0.223100	0.391300
O21	O2	0.546400	0.356400	0.376100
O31	O3	0.333100	0.843700	0.103000
O41	O4	0.179300	0.961300	0.111800
O51	O5	0.630400	0.005900	0.182800
O61	O6	0.637000	0.873400	0.165800
O71	O7	0.684300	0.942200	0.327200
O81	O8	0.541700	0.935300	0.309100
O91	O9	0.798800	0.130000	0.495900
O101	O10	0.646800	0.199100	0.543000
O111	O11	0.564800	0.538300	0.511390
O121	O12	0.721700	0.464200	0.551300
O131	O13	0.849400	0.738600	0.454300
O141	O14	0.872700	0.838200	0.401700
O151	O15	0.924600	0.637500	0.600500
O161	O16	0.859100	0.761500	0.619300
O171	O17	0.699900	0.463600	0.407100
O181	O18	0.825200	0.328400	0.384600
O191	O19	0.193600	0.741000	0.130900
O201	O20	0.034900	0.845300	0.114200
O211	O21	0.050700	0.321200	0.210600
O221	O22	0.030300	0.446900	0.164700
O231	O23	0.153500	0.432400	0.282700
O241	O24	0.253700	0.498300	0.277400
O251	O25	0.066900	0.037400	0.997660
O261	O26	0.230100	0.962000	0.965900
O271	O27	0.288400	0.636600	0.020800
O281	O28	0.149000	0.697700	0.959400
O291	O29	0.456100	0.114200	0.994400
O301	O30	0.399700	0.250000	0.958500
O311	O31	0.394300	0.343600	0.111400
O321	O32	0.331400	0.257600	0.094600
O331	O33	0.677200	0.336200	0.497220
O341	O34	0.175900	0.836800	0.006790
O351	O35	0.318200	0.776900	0.608700
O361	O36	0.453600	0.643600	0.623900
O371	O37	0.666900	0.156300	0.897000
O381	O38	0.820700	0.038700	0.888200
O391	O39	0.369600	0.994100	0.817200
O401	O40	0.363000	0.126600	0.834200
O411	O41	0.315700	0.057800	0.672800
O421	O42	0.458300	0.064700	0.690900
O431	O43	0.201200	0.870000	0.504100
O441	O44	0.353200	0.800900	0.457000
O451	O45	0.435200	0.461700	0.488610
O461	O46	0.278300	0.535800	0.448700
O471	O47	0.150600	0.261400	0.545700
O481	O48	0.127300	0.161800	0.598300
O491	O49	0.075400	0.362500	0.399500
O501	O50	0.140900	0.238500	0.380700
O511	O51	0.300100	0.536400	0.592900
O521	O52	0.174800	0.671600	0.615400
O531	O53	0.806400	0.259000	0.869100
O541	O54	0.965100	0.154700	0.885800
O551	O55	0.949300	0.678800	0.789400
O561	O56	0.969700	0.553100	0.835300
O571	O57	0.846500	0.567600	0.717300
O581	O58	0.746300	0.501700	0.722600
O591	O59	0.933100	0.962600	0.002340
O601	O60	0.769900	0.038000	0.034100
O611	O61	0.711600	0.363400	0.979200
O621	O62	0.851000	0.302300	0.040600
O631	O63	0.543900	0.885800	0.005600
O641	O64	0.600300	0.750000	0.041500
O651	O65	0.605700	0.656400	0.888600
O661	O66	0.668600	0.742400	0.905400
O671	O67	0.322800	0.663800	0.502780
O681	O68	0.824100	0.163200	0.993210
