data_ANOMUM_clean_PM
_symmetry_space_group_name_H-M	'P1'
_cell_length_a	10.303600
_cell_length_b	15.224800
_cell_length_c	20.406900
_cell_angle_alpha	68.097400
_cell_angle_beta	75.377200
_cell_angle_gamma	90.000000
_symmetry_Int_Tables_number 1

loop_
_symmetry_equiv_pos_as_xyz
'x,y,z'

loop_
_atom_site_label
_atom_site_type_symbol
_atom_site_fract_x
_atom_site_fract_y
_atom_site_fract_z
Cu11	Cu1	0.618550	0.525270	0.949460
Cu21	Cu2	0.068010	0.974730	0.050540
Cu31	Cu3	0.931990	0.025270	0.949460
Cu41	Cu4	0.381450	0.474730	0.050540
H11	H1	0.484300	0.756700	0.782400
H21	H2	0.241100	0.822600	0.564600
H31	H3	0.766700	0.743300	0.217600
H41	H4	0.305700	0.677400	0.435400
H51	H5	0.233300	0.960900	0.782400
H61	H6	0.694300	0.112800	0.564600
H71	H7	0.515700	0.539100	0.217600
H81	H8	0.758900	0.387200	0.435400
H91	H9	0.515700	0.243300	0.217600
H101	H10	0.758900	0.177400	0.435400
H111	H11	0.233300	0.256700	0.782400
H121	H12	0.694300	0.322600	0.564600
H131	H13	0.766700	0.039100	0.217600
H141	H14	0.305700	0.887200	0.435400
H151	H15	0.484300	0.460900	0.782400
H161	H16	0.241100	0.612800	0.564600
H171	H17	0.262500	0.762500	0.975000
H181	H18	0.737500	0.737500	0.025000
H191	H19	0.737500	0.237500	0.025000
H201	H20	0.262500	0.262500	0.975000
C11	C1	0.428400	0.654150	0.926200
C21	C2	0.377120	0.744710	0.885360
C31	C3	0.419080	0.784330	0.808640
C41	C4	0.331920	0.866620	0.657960
C51	C5	0.374710	0.907310	0.576180
C61	C6	0.311800	0.873100	0.538600
C71	C7	0.854600	0.845850	0.073800
C81	C8	0.762480	0.755290	0.114640
C91	C9	0.727720	0.715670	0.191360
C101	C10	0.489880	0.633380	0.342040
C111	C11	0.450890	0.592690	0.423820
C121	C12	0.350400	0.626900	0.461400
C131	C13	0.145400	0.919650	0.926200
C141	C14	0.237520	0.869930	0.885360
C151	C15	0.272280	0.907030	0.808640
C161	C16	0.510120	0.975420	0.657960
C171	C17	0.549110	0.016510	0.576180
C181	C18	0.649600	0.088300	0.538600
C191	C19	0.571600	0.580350	0.073800
C201	C20	0.622880	0.630070	0.114640
C211	C21	0.580920	0.592970	0.191360
C221	C22	0.668080	0.524580	0.342040
C231	C23	0.625290	0.483490	0.423820
C241	C24	0.688200	0.411700	0.461400
C251	C25	0.571600	0.345850	0.073800
C261	C26	0.622880	0.255290	0.114640
C271	C27	0.580920	0.215670	0.191360
C281	C28	0.668080	0.133380	0.342040
C291	C29	0.625290	0.092690	0.423820
C301	C30	0.688200	0.126900	0.461400
C311	C31	0.145400	0.154150	0.926200
C321	C32	0.237520	0.244710	0.885360
C331	C33	0.272280	0.284330	0.808640
C341	C34	0.510120	0.366620	0.657960
C351	C35	0.549110	0.407310	0.576180
C361	C36	0.649600	0.373100	0.538600
C371	C37	0.854600	0.080350	0.073800
C381	C38	0.762480	0.130070	0.114640
C391	C39	0.727720	0.092970	0.191360
C401	C40	0.489880	0.024580	0.342040
C411	C41	0.450890	0.983490	0.423820
C421	C42	0.350400	0.911700	0.461400
C431	C43	0.428400	0.419650	0.926200
C441	C44	0.377120	0.369930	0.885360
C451	C45	0.419080	0.407030	0.808640
C461	C46	0.331920	0.475420	0.657960
C471	C47	0.374710	0.516510	0.576180
C481	C48	0.311800	0.588300	0.538600
C491	C49	0.288570	0.788570	0.922860
C501	C50	0.364000	0.864000	0.772000
C511	C51	0.480590	0.980590	0.538820
C521	C52	0.711430	0.711430	0.077140
C531	C53	0.636000	0.636000	0.228000
C541	C54	0.519410	0.519410	0.461180
C551	C55	0.711430	0.211430	0.077140
C561	C56	0.636000	0.136000	0.228000
C571	C57	0.519410	0.019410	0.461180
C581	C58	0.288570	0.288570	0.922860
C591	C59	0.364000	0.364000	0.772000
C601	C60	0.480590	0.480590	0.538820
N11	N1	0.403900	0.903900	0.692200
N21	N2	0.596100	0.596100	0.307800
N31	N3	0.596100	0.096100	0.307800
N41	N4	0.403900	0.403900	0.692200
O11	O1	0.544650	0.640120	0.897500
O21	O2	0.347790	0.599670	0.985200
O31	O3	0.242210	0.803810	0.693580
O41	O4	0.942150	0.859880	0.102500
O51	O5	0.832990	0.900330	0.014800
O61	O6	0.435790	0.696190	0.306420
O71	O7	0.057850	0.962380	0.897500
O81	O8	0.167010	0.915130	0.985200
O91	O9	0.564210	0.002610	0.693580
O101	O10	0.455350	0.537620	0.102500
O111	O11	0.652210	0.584870	0.014800
O121	O12	0.757790	0.497390	0.306420
O131	O13	0.455350	0.359880	0.102500
O141	O14	0.652210	0.400330	0.014800
O151	O15	0.757790	0.196190	0.306420
O161	O16	0.057850	0.140120	0.897500
O171	O17	0.167010	0.099670	0.985200
O181	O18	0.564210	0.303810	0.693580
O191	O19	0.942150	0.037620	0.102500
O201	O20	0.832990	0.084870	0.014800
O211	O21	0.435790	0.997390	0.306420
O221	O22	0.544650	0.462380	0.897500
O231	O23	0.347790	0.415130	0.985200
O241	O24	0.242210	0.502610	0.693580
