data_APARAM_clean_PM
_symmetry_space_group_name_H-M	'P1'
_cell_length_a	22.200300
_cell_length_b	22.200300
_cell_length_c	7.729800
_cell_angle_alpha	90.000000
_cell_angle_beta	90.000000
_cell_angle_gamma	120.000000
_symmetry_Int_Tables_number 1

loop_
_symmetry_equiv_pos_as_xyz
'x,y,z'

loop_
_atom_site_label
_atom_site_type_symbol
_atom_site_fract_x
_atom_site_fract_y
_atom_site_fract_z
C11	C1	0.481800	0.812500	0.854500
H11	H1	0.456600	0.835200	0.868600
O11	O1	0.504800	0.919100	0.636400
O21	O2	0.577500	0.000900	0.332600
N11	N1	0.501800	0.580600	0.321400
C21	C2	0.528100	0.830500	0.712500
C31	C3	0.535400	0.885900	0.592000
C41	C4	0.510400	0.620000	0.031500
H21	H2	0.515000	0.612300	0.915300
F11	F1	0.599700	0.956300	0.019800
C51	C5	0.505900	0.573300	0.153800
H31	H3	0.505800	0.533500	0.115500
C61	C6	0.633500	0.956400	0.167300
C71	C7	0.592700	0.953800	0.323800
C81	C8	0.514000	0.730300	0.953900
C91	C9	0.574600	0.898400	0.435800
H41	H4	0.589000	0.866900	0.407100
F21	F2	0.648600	0.906200	0.151100
C101	C10	0.473200	0.762500	0.971200
H51	H5	0.441000	0.749900	0.060400
C111	C11	0.563100	0.796800	0.695300
H61	H6	0.594600	0.808500	0.604700
C121	C12	0.553900	0.744100	0.809500
H71	H7	0.575200	0.718000	0.786500
F31	F3	0.692500	0.015000	0.162500
C131	C13	0.495500	0.681700	0.256400
H81	H8	0.488200	0.717000	0.296500
C141	C14	0.494400	0.634200	0.365600
H91	H9	0.487800	0.639300	0.482400
C151	C15	0.507900	0.676900	0.079700
C161	C16	0.187500	0.669300	0.854500
H101	H10	0.164800	0.621400	0.868600
O31	O3	0.080900	0.585700	0.636400
O41	O4	0.999100	0.576600	0.332600
N21	N2	0.419400	0.921200	0.321400
C171	C17	0.169500	0.697600	0.712500
C181	C18	0.114100	0.649500	0.592000
C191	C19	0.380000	0.890400	0.031500
H111	H11	0.387700	0.902700	0.915300
F41	F4	0.043700	0.643400	0.019800
C201	C20	0.426700	0.932600	0.153800
H121	H12	0.466500	0.972300	0.115500
C211	C21	0.043600	0.677100	0.167300
C221	C22	0.046200	0.638900	0.323800
C231	C23	0.269700	0.783700	0.953900
C241	C24	0.101600	0.676200	0.435800
H131	H13	0.133100	0.722100	0.407100
F51	F5	0.093800	0.742400	0.151100
C251	C25	0.237500	0.710700	0.971200
H141	H14	0.250100	0.691100	0.060400
C261	C26	0.203200	0.766300	0.695300
H151	H15	0.191500	0.786100	0.604700
C271	C27	0.255900	0.809800	0.809500
H161	H16	0.282000	0.857200	0.786500
F61	F6	0.985000	0.677500	0.162500
C281	C28	0.318300	0.813800	0.256400
H171	H17	0.283000	0.771200	0.296500
C291	C29	0.365800	0.860200	0.365600
H181	H18	0.360700	0.848500	0.482400
C301	C30	0.323100	0.831000	0.079700
C311	C31	0.330700	0.518200	0.854500
H191	H19	0.378600	0.543400	0.868600
O51	O5	0.414300	0.495200	0.636400
O61	O6	0.423400	0.422500	0.332600
N31	N3	0.078800	0.498200	0.321400
C321	C32	0.302400	0.471900	0.712500
C331	C33	0.350500	0.464600	0.592000
C341	C34	0.109600	0.489600	0.031500
H201	H20	0.097300	0.485000	0.915300
F71	F7	0.356600	0.400300	0.019800
C351	C35	0.067400	0.494100	0.153800
H211	H21	0.027700	0.494200	0.115500
C361	C36	0.322900	0.366500	0.167300
C371	C37	0.361100	0.407300	0.323800
C381	C38	0.216300	0.486000	0.953900
C391	C39	0.323800	0.425400	0.435800
H221	H22	0.277900	0.411000	0.407100
F81	F8	0.257600	0.351400	0.151100
C401	C40	0.289300	0.526800	0.971200
H231	H23	0.308900	0.559000	0.060400
C411	C41	0.233700	0.436900	0.695300
H241	H24	0.213900	0.405400	0.604700
C421	C42	0.190200	0.446100	0.809500
H251	H25	0.142800	0.424800	0.786500
F91	F9	0.322500	0.307500	0.162500
C431	C43	0.186200	0.504500	0.256400
H261	H26	0.228800	0.511800	0.296500
C441	C44	0.139800	0.505600	0.365600
H271	H27	0.151500	0.512200	0.482400
C451	C45	0.169000	0.492100	0.079700
C461	C46	0.518200	0.187500	0.145500
H281	H28	0.543400	0.164800	0.131400
O71	O7	0.495200	0.080900	0.363600
O81	O8	0.422500	0.999100	0.667400
N41	N4	0.498200	0.419400	0.678600
C471	C47	0.471900	0.169500	0.287500
C481	C48	0.464600	0.114100	0.408000
C491	C49	0.489600	0.380000	0.968500
H291	H29	0.485000	0.387700	0.084700
F101	F10	0.400300	0.043700	0.980200
C501	C50	0.494100	0.426700	0.846200
H301	H30	0.494200	0.466500	0.884500
C511	C51	0.366500	0.043600	0.832700
C521	C52	0.407300	0.046200	0.676200
C531	C53	0.486000	0.269700	0.046100
C541	C54	0.425400	0.101600	0.564200
H311	H31	0.411000	0.133100	0.592900
F111	F11	0.351400	0.093800	0.848900
C551	C55	0.526800	0.237500	0.028800
H321	H32	0.559000	0.250100	0.939600
C561	C56	0.436900	0.203200	0.304700
H331	H33	0.405400	0.191500	0.395300
C571	C57	0.446100	0.255900	0.190500
H341	H34	0.424800	0.282000	0.213500
F121	F12	0.307500	0.985000	0.837500
C581	C58	0.504500	0.318300	0.743600
H351	H35	0.511800	0.283000	0.703500
C591	C59	0.505600	0.365800	0.634400
H361	H36	0.512200	0.360700	0.517600
C601	C60	0.492100	0.323100	0.920300
C611	C61	0.812500	0.330700	0.145500
H371	H37	0.835200	0.378600	0.131400
O91	O9	0.919100	0.414300	0.363600
O101	O10	0.000900	0.423400	0.667400
N51	N5	0.580600	0.078800	0.678600
C621	C62	0.830500	0.302400	0.287500
C631	C63	0.885900	0.350500	0.408000
C641	C64	0.620000	0.109600	0.968500
H381	H38	0.612300	0.097300	0.084700
F131	F13	0.956300	0.356600	0.980200
C651	C65	0.573300	0.067400	0.846200
H391	H39	0.533500	0.027700	0.884500
C661	C66	0.956400	0.322900	0.832700
C671	C67	0.953800	0.361100	0.676200
C681	C68	0.730300	0.216300	0.046100
C691	C69	0.898400	0.323800	0.564200
H401	H40	0.866900	0.277900	0.592900
F141	F14	0.906200	0.257600	0.848900
C701	C70	0.762500	0.289300	0.028800
H411	H41	0.749900	0.308900	0.939600
C711	C71	0.796800	0.233700	0.304700
H421	H42	0.808500	0.213900	0.395300
C721	C72	0.744100	0.190200	0.190500
H431	H43	0.718000	0.142800	0.213500
F151	F15	0.015000	0.322500	0.837500
C731	C73	0.681700	0.186200	0.743600
H441	H44	0.717000	0.228800	0.703500
C741	C74	0.634200	0.139800	0.634400
H451	H45	0.639300	0.151500	0.517600
C751	C75	0.676900	0.169000	0.920300
C761	C76	0.669300	0.481800	0.145500
H461	H46	0.621400	0.456600	0.131400
O111	O11	0.585700	0.504800	0.363600
O121	O12	0.576600	0.577500	0.667400
N61	N6	0.921200	0.501800	0.678600
C771	C77	0.697600	0.528100	0.287500
C781	C78	0.649500	0.535400	0.408000
C791	C79	0.890400	0.510400	0.968500
H471	H47	0.902700	0.515000	0.084700
F161	F16	0.643400	0.599700	0.980200
C801	C80	0.932600	0.505900	0.846200
H481	H48	0.972300	0.505800	0.884500
C811	C81	0.677100	0.633500	0.832700
C821	C82	0.638900	0.592700	0.676200
C831	C83	0.783700	0.514000	0.046100
C841	C84	0.676200	0.574600	0.564200
H491	H49	0.722100	0.589000	0.592900
F171	F17	0.742400	0.648600	0.848900
C851	C85	0.710700	0.473200	0.028800
H501	H50	0.691100	0.441000	0.939600
C861	C86	0.766300	0.563100	0.304700
H511	H51	0.786100	0.594600	0.395300
C871	C87	0.809800	0.553900	0.190500
H521	H52	0.857200	0.575200	0.213500
F181	F18	0.677500	0.692500	0.837500
C881	C88	0.813800	0.495500	0.743600
H531	H53	0.771200	0.488200	0.703500
C891	C89	0.860200	0.494400	0.634400
H541	H54	0.848500	0.487800	0.517600
C901	C90	0.831000	0.507900	0.920300
Mn11	Mn1	0.500000	0.000000	0.500000
Mn21	Mn2	0.000000	0.500000	0.500000
Mn31	Mn3	0.500000	0.500000	0.500000
