data_APAZOI_clean_PM
_symmetry_space_group_name_H-M	'P1'
_cell_length_a	24.799000
_cell_length_b	13.263000
_cell_length_c	14.971000
_cell_angle_alpha	90.000000
_cell_angle_beta	96.635000
_cell_angle_gamma	90.000000
_symmetry_Int_Tables_number 1

loop_
_symmetry_equiv_pos_as_xyz
'x,y,z'

loop_
_atom_site_label
_atom_site_type_symbol
_atom_site_fract_x
_atom_site_fract_y
_atom_site_fract_z
C11	C1	0.249500	0.933800	0.926100
C21	C2	0.214900	0.007000	0.869600
C31	C3	0.236700	0.056700	0.799500
H11	H1	0.272200	0.043600	0.788700
C41	C4	0.205900	0.124400	0.746900
C51	C5	0.153500	0.146500	0.765600
H21	H2	0.132700	0.192900	0.730000
C61	C6	0.131600	0.100400	0.836700
C71	C7	0.162200	0.027600	0.886100
H31	H3	0.147100	0.992200	0.930800
C81	C8	0.227400	0.173800	0.666500
C91	C9	0.077400	0.131200	0.860400
C101	C10	0.061600	0.232200	0.854400
H41	H4	0.084100	0.279400	0.831700
C111	C11	0.012700	0.263100	0.881900
H51	H5	0.002300	0.330400	0.876300
C121	C12	0.979300	0.193900	0.917700
C131	C13	0.993700	0.094100	0.921400
H61	H6	0.970700	0.046800	0.942800
C141	C14	0.042800	0.063200	0.893400
H71	H7	0.052300	0.995300	0.897000
C151	C15	0.929700	0.228400	0.957400
La11	La1	0.329890	0.792150	0.030640
O11	O1	0.299360	0.946600	0.936300
O21	O2	0.226840	0.860200	0.961800
O31	O3	0.274890	0.151400	0.652300
O41	O4	0.197280	0.234700	0.623600
O51	O5	0.915980	0.319300	0.953300
O61	O6	0.901990	0.163200	0.993700
C161	C16	0.749500	0.433800	0.926100
C171	C17	0.714900	0.507000	0.869600
C181	C18	0.736700	0.556700	0.799500
H81	H8	0.772200	0.543600	0.788700
C191	C19	0.705900	0.624400	0.746900
C201	C20	0.653500	0.646500	0.765600
H91	H9	0.632700	0.692900	0.730000
C211	C21	0.631600	0.600400	0.836700
C221	C22	0.662200	0.527600	0.886100
H101	H10	0.647100	0.492200	0.930800
C231	C23	0.727400	0.673800	0.666500
C241	C24	0.577400	0.631200	0.860400
C251	C25	0.561600	0.732200	0.854400
H111	H11	0.584100	0.779400	0.831700
C261	C26	0.512700	0.763100	0.881900
H121	H12	0.502300	0.830400	0.876300
C271	C27	0.479300	0.693900	0.917700
C281	C28	0.493700	0.594100	0.921400
H131	H13	0.470700	0.546800	0.942800
C291	C29	0.542800	0.563200	0.893400
H141	H14	0.552300	0.495300	0.897000
C301	C30	0.429700	0.728400	0.957400
La21	La2	0.829890	0.292150	0.030640
O71	O7	0.799360	0.446600	0.936300
O81	O8	0.726840	0.360200	0.961800
O91	O9	0.774890	0.651400	0.652300
O101	O10	0.697280	0.734700	0.623600
O111	O11	0.415980	0.819300	0.953300
O121	O12	0.401990	0.663200	0.993700
C311	C31	0.750500	0.933800	0.573900
C321	C32	0.785100	0.007000	0.630400
C331	C33	0.763300	0.056700	0.700500
H151	H15	0.727800	0.043600	0.711300
C341	C34	0.794100	0.124400	0.753100
C351	C35	0.846500	0.146500	0.734400
H161	H16	0.867300	0.192900	0.770000
C361	C36	0.868400	0.100400	0.663300
C371	C37	0.837800	0.027600	0.613900
H171	H17	0.852900	0.992200	0.569200
C381	C38	0.772600	0.173800	0.833500
C391	C39	0.922600	0.131200	0.639600
C401	C40	0.938400	0.232200	0.645600
H181	H18	0.915900	0.279400	0.668300
C411	C41	0.987300	0.263100	0.618100
H191	H19	0.997700	0.330400	0.623700
C421	C42	0.020700	0.193900	0.582300
C431	C43	0.006300	0.094100	0.578600
H201	H20	0.029300	0.046800	0.557200
C441	C44	0.957200	0.063200	0.606600
H211	H21	0.947700	0.995300	0.603000
C451	C45	0.070300	0.228400	0.542600
La31	La3	0.670110	0.792150	0.469360
O131	O13	0.700640	0.946600	0.563700
O141	O14	0.773160	0.860200	0.538200
O151	O15	0.725110	0.151400	0.847700
O161	O16	0.802720	0.234700	0.876400
O171	O17	0.084020	0.319300	0.546700
O181	O18	0.098010	0.163200	0.506300
C461	C46	0.250500	0.433800	0.573900
C471	C47	0.285100	0.507000	0.630400
C481	C48	0.263300	0.556700	0.700500
H221	H22	0.227800	0.543600	0.711300
C491	C49	0.294100	0.624400	0.753100
C501	C50	0.346500	0.646500	0.734400
H231	H23	0.367300	0.692900	0.770000
C511	C51	0.368400	0.600400	0.663300
C521	C52	0.337800	0.527600	0.613900
H241	H24	0.352900	0.492200	0.569200
C531	C53	0.272600	0.673800	0.833500
C541	C54	0.422600	0.631200	0.639600
C551	C55	0.438400	0.732200	0.645600
H251	H25	0.415900	0.779400	0.668300
C561	C56	0.487300	0.763100	0.618100
H261	H26	0.497700	0.830400	0.623700
C571	C57	0.520700	0.693900	0.582300
C581	C58	0.506300	0.594100	0.578600
H271	H27	0.529300	0.546800	0.557200
C591	C59	0.457200	0.563200	0.606600
H281	H28	0.447700	0.495300	0.603000
C601	C60	0.570300	0.728400	0.542600
La41	La4	0.170110	0.292150	0.469360
O191	O19	0.200640	0.446600	0.563700
O201	O20	0.273160	0.360200	0.538200
O211	O21	0.225110	0.651400	0.847700
O221	O22	0.302720	0.734700	0.876400
O231	O23	0.584020	0.819300	0.546700
O241	O24	0.598010	0.663200	0.506300
C611	C61	0.750500	0.066200	0.073900
C621	C62	0.785100	0.993000	0.130400
C631	C63	0.763300	0.943300	0.200500
H291	H29	0.727800	0.956400	0.211300
C641	C64	0.794100	0.875600	0.253100
C651	C65	0.846500	0.853500	0.234400
H301	H30	0.867300	0.807100	0.270000
C661	C66	0.868400	0.899600	0.163300
C671	C67	0.837800	0.972400	0.113900
H311	H31	0.852900	0.007800	0.069200
C681	C68	0.772600	0.826200	0.333500
C691	C69	0.922600	0.868800	0.139600
C701	C70	0.938400	0.767800	0.145600
H321	H32	0.915900	0.720600	0.168300
C711	C71	0.987300	0.736900	0.118100
H331	H33	0.997700	0.669600	0.123700
C721	C72	0.020700	0.806100	0.082300
C731	C73	0.006300	0.905900	0.078600
H341	H34	0.029300	0.953200	0.057200
C741	C74	0.957200	0.936800	0.106600
H351	H35	0.947700	0.004700	0.103000
C751	C75	0.070300	0.771600	0.042600
La51	La5	0.670110	0.207850	0.969360
O251	O25	0.700640	0.053400	0.063700
O261	O26	0.773160	0.139800	0.038200
O271	O27	0.725110	0.848600	0.347700
O281	O28	0.802720	0.765300	0.376400
O291	O29	0.084020	0.680700	0.046700
O301	O30	0.098010	0.836800	0.006300
C761	C76	0.250500	0.566200	0.073900
C771	C77	0.285100	0.493000	0.130400
C781	C78	0.263300	0.443300	0.200500
H361	H36	0.227800	0.456400	0.211300
C791	C79	0.294100	0.375600	0.253100
C801	C80	0.346500	0.353500	0.234400
H371	H37	0.367300	0.307100	0.270000
C811	C81	0.368400	0.399600	0.163300
C821	C82	0.337800	0.472400	0.113900
H381	H38	0.352900	0.507800	0.069200
C831	C83	0.272600	0.326200	0.333500
C841	C84	0.422600	0.368800	0.139600
C851	C85	0.438400	0.267800	0.145600
H391	H39	0.415900	0.220600	0.168300
C861	C86	0.487300	0.236900	0.118100
H401	H40	0.497700	0.169600	0.123700
C871	C87	0.520700	0.306100	0.082300
C881	C88	0.506300	0.405900	0.078600
H411	H41	0.529300	0.453200	0.057200
C891	C89	0.457200	0.436800	0.106600
H421	H42	0.447700	0.504700	0.103000
C901	C90	0.570300	0.271600	0.042600
La61	La6	0.170110	0.707850	0.969360
O311	O31	0.200640	0.553400	0.063700
O321	O32	0.273160	0.639800	0.038200
O331	O33	0.225110	0.348600	0.347700
O341	O34	0.302720	0.265300	0.376400
O351	O35	0.584020	0.180700	0.046700
O361	O36	0.598010	0.336800	0.006300
C911	C91	0.249500	0.066200	0.426100
C921	C92	0.214900	0.993000	0.369600
C931	C93	0.236700	0.943300	0.299500
H431	H43	0.272200	0.956400	0.288700
C941	C94	0.205900	0.875600	0.246900
C951	C95	0.153500	0.853500	0.265600
H441	H44	0.132700	0.807100	0.230000
C961	C96	0.131600	0.899600	0.336700
C971	C97	0.162200	0.972400	0.386100
H451	H45	0.147100	0.007800	0.430800
C981	C98	0.227400	0.826200	0.166500
C991	C99	0.077400	0.868800	0.360400
C1001	C100	0.061600	0.767800	0.354400
H461	H46	0.084100	0.720600	0.331700
C1011	C101	0.012700	0.736900	0.381900
H471	H47	0.002300	0.669600	0.376300
C1021	C102	0.979300	0.806100	0.417700
C1031	C103	0.993700	0.905900	0.421400
H481	H48	0.970700	0.953200	0.442800
C1041	C104	0.042800	0.936800	0.393400
H491	H49	0.052300	0.004700	0.397000
C1051	C105	0.929700	0.771600	0.457400
La71	La7	0.329890	0.207850	0.530640
O371	O37	0.299360	0.053400	0.436300
O381	O38	0.226840	0.139800	0.461800
O391	O39	0.274890	0.848600	0.152300
O401	O40	0.197280	0.765300	0.123600
O411	O41	0.915980	0.680700	0.453300
O421	O42	0.901990	0.836800	0.493700
C1061	C106	0.749500	0.566200	0.426100
C1071	C107	0.714900	0.493000	0.369600
C1081	C108	0.736700	0.443300	0.299500
H501	H50	0.772200	0.456400	0.288700
C1091	C109	0.705900	0.375600	0.246900
C1101	C110	0.653500	0.353500	0.265600
H511	H51	0.632700	0.307100	0.230000
C1111	C111	0.631600	0.399600	0.336700
C1121	C112	0.662200	0.472400	0.386100
H521	H52	0.647100	0.507800	0.430800
C1131	C113	0.727400	0.326200	0.166500
C1141	C114	0.577400	0.368800	0.360400
C1151	C115	0.561600	0.267800	0.354400
H531	H53	0.584100	0.220600	0.331700
C1161	C116	0.512700	0.236900	0.381900
H541	H54	0.502300	0.169600	0.376300
C1171	C117	0.479300	0.306100	0.417700
C1181	C118	0.493700	0.405900	0.421400
H551	H55	0.470700	0.453200	0.442800
C1191	C119	0.542800	0.436800	0.393400
H561	H56	0.552300	0.504700	0.397000
C1201	C120	0.429700	0.271600	0.457400
La81	La8	0.829890	0.707850	0.530640
O431	O43	0.799360	0.553400	0.436300
O441	O44	0.726840	0.639800	0.461800
O451	O45	0.774890	0.348600	0.152300
O461	O46	0.697280	0.265300	0.123600
O471	O47	0.415980	0.180700	0.453300
O481	O48	0.401990	0.336800	0.493700
