data_APEBUU_clean_PM
_symmetry_space_group_name_H-M	'P1'
_cell_length_a	28.187000
_cell_length_b	14.002000
_cell_length_c	27.657000
_cell_angle_alpha	90.000000
_cell_angle_beta	116.228000
_cell_angle_gamma	90.000000
_symmetry_Int_Tables_number 1

loop_
_symmetry_equiv_pos_as_xyz
'x,y,z'

loop_
_atom_site_label
_atom_site_type_symbol
_atom_site_fract_x
_atom_site_fract_y
_atom_site_fract_z
Cd11	Cd1	0.199820	0.631550	0.152990
Cd21	Cd2	0.404500	0.375020	0.049780
Cd31	Cd3	0.124350	0.463830	0.220830
O11	O1	0.179270	0.470810	0.146340
O21	O2	0.340350	0.501800	0.119050
O31	O3	0.184600	0.373690	0.212370
O41	O4	0.317950	0.107630	0.271460
O51	O5	0.385980	0.368400	0.124250
O61	O6	0.384850	0.118500	0.251610
N11	N1	0.108590	0.084800	0.111150
N21	N2	0.214340	0.115000	0.287070
N31	N3	0.314270	0.384200	0.991970
N41	N4	0.230370	0.432900	0.954850
N51	N5	0.192840	0.793200	0.151910
N61	N6	0.068810	0.967000	0.151020
N71	N7	0.135860	0.422600	0.937140
N81	N8	0.203050	0.613100	0.072040
N91	N9	0.192630	0.559600	0.992170
N101	N10	0.148900	0.060900	0.212000
N111	N11	0.083610	0.134600	0.027060
N121	N12	0.163440	0.551600	0.892250
N131	N13	0.157040	0.934800	0.150740
N141	N14	0.987340	0.908100	0.112470
N151	N15	0.137230	0.576400	0.804650
N161	N16	0.095900	0.289500	0.943390
C11	C1	0.224140	0.862600	0.145360
H11	H1	0.255300	0.851600	0.142500
C21	C2	0.011230	0.879500	0.165220
H21	H2	0.995800	0.841600	0.181900
C31	C3	0.272470	0.278400	0.213600
H31	H3	0.255200	0.249300	0.231600
C41	C4	0.324940	0.366900	0.161140
C51	C5	0.319870	0.240900	0.217990
C61	C6	0.234780	0.357000	0.924940
H41	H4	0.207400	0.330200	0.894700
C71	C7	0.342840	0.151100	0.249740
C81	C8	0.353380	0.415200	0.132830
C91	C9	0.200820	0.404600	0.179560
C101	C10	0.060790	0.915200	0.189140
H51	H5	0.085100	0.906400	0.224900
C111	C11	0.023120	0.958800	0.105960
H61	H6	0.017500	0.986500	0.073300
C121	C12	0.345850	0.285200	0.191480
H71	H7	0.377400	0.259900	0.194100
C131	C13	0.163730	0.521000	0.846340
H81	H8	0.181100	0.465700	0.844200
C141	C14	0.058540	0.353900	0.912500
H91	H9	0.022200	0.343300	0.896800
C151	C15	0.182720	0.546300	0.035220
H101	H10	0.163400	0.494900	0.038500
C161	C16	0.202410	0.949600	0.143780
H111	H11	0.215400	0.008000	0.139000
C171	C17	0.277100	0.403600	0.156090
H121	H12	0.262700	0.457600	0.135100
C181	C18	0.133700	0.634300	0.877770
H131	H13	0.125800	0.673100	0.900500
C191	C19	0.153660	0.839800	0.155040
H141	H14	0.126500	0.810000	0.159700
C201	C20	0.098030	0.061400	0.059990
H151	H15	0.100700	0.999500	0.049200
C211	C21	0.201350	0.065500	0.242560
H161	H16	0.225900	0.036800	0.233300
C221	C22	0.127420	0.113300	0.239430
H171	H17	0.091700	0.125500	0.228400
C231	C23	0.118340	0.648600	0.824640
H181	H18	0.098000	0.699700	0.804700
C241	C24	0.285820	0.328800	0.947400
H191	H19	0.299600	0.279700	0.934700
C251	C25	0.100820	0.181800	0.110140
H201	H20	0.104800	0.219900	0.139200
C261	C26	0.279850	0.444400	0.994580
H211	H21	0.288700	0.490800	0.021300
C271	C27	0.223000	0.640800	0.004010
H221	H22	0.237000	0.668800	0.982600
C281	C28	0.141560	0.333300	0.957000
H231	H23	0.174200	0.305400	0.978100
C291	C29	0.082010	0.435200	0.908000
H241	H24	0.065000	0.489500	0.888800
C301	C30	0.228800	0.672500	0.052420
H251	H25	0.247600	0.726800	0.069800
C311	C31	0.167880	0.143800	0.285430
H261	H26	0.164400	0.179400	0.312000
C321	C32	0.086400	0.211600	0.059260
H271	H27	0.079400	0.274600	0.047600
C331	C33	0.250780	0.359600	0.182350
B11	B1	0.180590	0.492100	0.944400
B21	B2	0.120840	0.012600	0.156640
Cd41	Cd4	0.699820	0.131550	0.152990
Cd51	Cd5	0.904500	0.875020	0.049780
Cd61	Cd6	0.624350	0.963830	0.220830
O71	O7	0.679270	0.970810	0.146340
O81	O8	0.840350	0.001800	0.119050
O91	O9	0.684600	0.873690	0.212370
O101	O10	0.817950	0.607630	0.271460
O111	O11	0.885980	0.868400	0.124250
O121	O12	0.884850	0.618500	0.251610
N171	N17	0.608590	0.584800	0.111150
N181	N18	0.714340	0.615000	0.287070
N191	N19	0.814270	0.884200	0.991970
N201	N20	0.730370	0.932900	0.954850
N211	N21	0.692840	0.293200	0.151910
N221	N22	0.568810	0.467000	0.151020
N231	N23	0.635860	0.922600	0.937140
N241	N24	0.703050	0.113100	0.072040
N251	N25	0.692630	0.059600	0.992170
N261	N26	0.648900	0.560900	0.212000
N271	N27	0.583610	0.634600	0.027060
N281	N28	0.663440	0.051600	0.892250
N291	N29	0.657040	0.434800	0.150740
N301	N30	0.487340	0.408100	0.112470
N311	N31	0.637230	0.076400	0.804650
N321	N32	0.595900	0.789500	0.943390
C341	C34	0.724140	0.362600	0.145360
H281	H28	0.755300	0.351600	0.142500
C351	C35	0.511230	0.379500	0.165220
H291	H29	0.495800	0.341600	0.181900
C361	C36	0.772470	0.778400	0.213600
H301	H30	0.755200	0.749300	0.231600
C371	C37	0.824940	0.866900	0.161140
C381	C38	0.819870	0.740900	0.217990
C391	C39	0.734780	0.857000	0.924940
H311	H31	0.707400	0.830200	0.894700
C401	C40	0.842840	0.651100	0.249740
C411	C41	0.853380	0.915200	0.132830
C421	C42	0.700820	0.904600	0.179560
C431	C43	0.560790	0.415200	0.189140
H321	H32	0.585100	0.406400	0.224900
C441	C44	0.523120	0.458800	0.105960
H331	H33	0.517500	0.486500	0.073300
C451	C45	0.845850	0.785200	0.191480
H341	H34	0.877400	0.759900	0.194100
C461	C46	0.663730	0.021000	0.846340
H351	H35	0.681100	0.965700	0.844200
C471	C47	0.558540	0.853900	0.912500
H361	H36	0.522200	0.843300	0.896800
C481	C48	0.682720	0.046300	0.035220
H371	H37	0.663400	0.994900	0.038500
C491	C49	0.702410	0.449600	0.143780
H381	H38	0.715400	0.508000	0.139000
C501	C50	0.777100	0.903600	0.156090
H391	H39	0.762700	0.957600	0.135100
C511	C51	0.633700	0.134300	0.877770
H401	H40	0.625800	0.173100	0.900500
C521	C52	0.653660	0.339800	0.155040
H411	H41	0.626500	0.310000	0.159700
C531	C53	0.598030	0.561400	0.059990
H421	H42	0.600700	0.499500	0.049200
C541	C54	0.701350	0.565500	0.242560
H431	H43	0.725900	0.536800	0.233300
C551	C55	0.627420	0.613300	0.239430
H441	H44	0.591700	0.625500	0.228400
C561	C56	0.618340	0.148600	0.824640
H451	H45	0.598000	0.199700	0.804700
C571	C57	0.785820	0.828800	0.947400
H461	H46	0.799600	0.779700	0.934700
C581	C58	0.600820	0.681800	0.110140
H471	H47	0.604800	0.719900	0.139200
C591	C59	0.779850	0.944400	0.994580
H481	H48	0.788700	0.990800	0.021300
C601	C60	0.723000	0.140800	0.004010
H491	H49	0.737000	0.168800	0.982600
C611	C61	0.641560	0.833300	0.957000
H501	H50	0.674200	0.805400	0.978100
C621	C62	0.582010	0.935200	0.908000
H511	H51	0.565000	0.989500	0.888800
C631	C63	0.728800	0.172500	0.052420
H521	H52	0.747600	0.226800	0.069800
C641	C64	0.667880	0.643800	0.285430
H531	H53	0.664400	0.679400	0.312000
C651	C65	0.586400	0.711600	0.059260
H541	H54	0.579400	0.774600	0.047600
C661	C66	0.750780	0.859600	0.182350
B31	B3	0.680590	0.992100	0.944400
B41	B4	0.620840	0.512600	0.156640
Cd71	Cd7	0.800180	0.631550	0.347010
Cd81	Cd8	0.595500	0.375020	0.450220
Cd91	Cd9	0.875650	0.463830	0.279170
O131	O13	0.820730	0.470810	0.353660
O141	O14	0.659650	0.501800	0.380950
O151	O15	0.815400	0.373690	0.287630
O161	O16	0.682050	0.107630	0.228540
O171	O17	0.614020	0.368400	0.375750
O181	O18	0.615150	0.118500	0.248390
N331	N33	0.891410	0.084800	0.388850
N341	N34	0.785660	0.115000	0.212930
N351	N35	0.685730	0.384200	0.508030
N361	N36	0.769630	0.432900	0.545150
N371	N37	0.807160	0.793200	0.348090
N381	N38	0.931190	0.967000	0.348980
N391	N39	0.864140	0.422600	0.562860
N401	N40	0.796950	0.613100	0.427960
N411	N41	0.807370	0.559600	0.507830
N421	N42	0.851100	0.060900	0.288000
N431	N43	0.916390	0.134600	0.472940
N441	N44	0.836560	0.551600	0.607750
N451	N45	0.842960	0.934800	0.349260
N461	N46	0.012660	0.908100	0.387530
N471	N47	0.862770	0.576400	0.695350
N481	N48	0.904100	0.289500	0.556610
C671	C67	0.775860	0.862600	0.354640
H551	H55	0.744700	0.851600	0.357500
C681	C68	0.988770	0.879500	0.334780
H561	H56	0.004200	0.841600	0.318100
C691	C69	0.727530	0.278400	0.286400
H571	H57	0.744800	0.249300	0.268400
C701	C70	0.675060	0.366900	0.338860
C711	C71	0.680130	0.240900	0.282010
C721	C72	0.765220	0.357000	0.575060
H581	H58	0.792600	0.330200	0.605300
C731	C73	0.657160	0.151100	0.250260
C741	C74	0.646620	0.415200	0.367170
C751	C75	0.799180	0.404600	0.320440
C761	C76	0.939210	0.915200	0.310860
H591	H59	0.914900	0.906400	0.275100
C771	C77	0.976880	0.958800	0.394040
H601	H60	0.982500	0.986500	0.426700
C781	C78	0.654150	0.285200	0.308520
H611	H61	0.622600	0.259900	0.305900
C791	C79	0.836270	0.521000	0.653660
H621	H62	0.818900	0.465700	0.655800
C801	C80	0.941460	0.353900	0.587500
H631	H63	0.977800	0.343300	0.603200
C811	C81	0.817280	0.546300	0.464780
H641	H64	0.836600	0.494900	0.461500
C821	C82	0.797590	0.949600	0.356220
H651	H65	0.784600	0.008000	0.361000
C831	C83	0.722900	0.403600	0.343910
H661	H66	0.737300	0.457600	0.364900
C841	C84	0.866300	0.634300	0.622230
H671	H67	0.874200	0.673100	0.599500
C851	C85	0.846340	0.839800	0.344960
H681	H68	0.873500	0.810000	0.340300
C861	C86	0.901970	0.061400	0.440010
H691	H69	0.899300	0.999500	0.450800
C871	C87	0.798650	0.065500	0.257440
H701	H70	0.774100	0.036800	0.266700
C881	C88	0.872580	0.113300	0.260570
H711	H71	0.908300	0.125500	0.271600
C891	C89	0.881660	0.648600	0.675360
H721	H72	0.902000	0.699700	0.695300
C901	C90	0.714180	0.328800	0.552600
H731	H73	0.700400	0.279700	0.565300
C911	C91	0.899180	0.181800	0.389860
H741	H74	0.895200	0.219900	0.360800
C921	C92	0.720150	0.444400	0.505420
H751	H75	0.711300	0.490800	0.478700
C931	C93	0.777000	0.640800	0.495990
H761	H76	0.763000	0.668800	0.517400
C941	C94	0.858440	0.333300	0.543000
H771	H77	0.825800	0.305400	0.521900
C951	C95	0.917990	0.435200	0.592000
H781	H78	0.935000	0.489500	0.611200
C961	C96	0.771200	0.672500	0.447580
H791	H79	0.752400	0.726800	0.430200
C971	C97	0.832120	0.143800	0.214570
H801	H80	0.835600	0.179400	0.188000
C981	C98	0.913600	0.211600	0.440740
H811	H81	0.920600	0.274600	0.452400
C991	C99	0.749220	0.359600	0.317650
B51	B5	0.819410	0.492100	0.555600
B61	B6	0.879160	0.012600	0.343360
Cd101	Cd10	0.300180	0.131550	0.347010
Cd111	Cd11	0.095500	0.875020	0.450220
Cd121	Cd12	0.375650	0.963830	0.279170
O191	O19	0.320730	0.970810	0.353660
O201	O20	0.159650	0.001800	0.380950
O211	O21	0.315400	0.873690	0.287630
O221	O22	0.182050	0.607630	0.228540
O231	O23	0.114020	0.868400	0.375750
O241	O24	0.115150	0.618500	0.248390
N491	N49	0.391410	0.584800	0.388850
N501	N50	0.285660	0.615000	0.212930
N511	N51	0.185730	0.884200	0.508030
N521	N52	0.269630	0.932900	0.545150
N531	N53	0.307160	0.293200	0.348090
N541	N54	0.431190	0.467000	0.348980
N551	N55	0.364140	0.922600	0.562860
N561	N56	0.296950	0.113100	0.427960
N571	N57	0.307370	0.059600	0.507830
N581	N58	0.351100	0.560900	0.288000
N591	N59	0.416390	0.634600	0.472940
N601	N60	0.336560	0.051600	0.607750
N611	N61	0.342960	0.434800	0.349260
N621	N62	0.512660	0.408100	0.387530
N631	N63	0.362770	0.076400	0.695350
N641	N64	0.404100	0.789500	0.556610
C1001	C100	0.275860	0.362600	0.354640
H821	H82	0.244700	0.351600	0.357500
C1011	C101	0.488770	0.379500	0.334780
H831	H83	0.504200	0.341600	0.318100
C1021	C102	0.227530	0.778400	0.286400
H841	H84	0.244800	0.749300	0.268400
C1031	C103	0.175060	0.866900	0.338860
C1041	C104	0.180130	0.740900	0.282010
C1051	C105	0.265220	0.857000	0.575060
H851	H85	0.292600	0.830200	0.605300
C1061	C106	0.157160	0.651100	0.250260
C1071	C107	0.146620	0.915200	0.367170
C1081	C108	0.299180	0.904600	0.320440
C1091	C109	0.439210	0.415200	0.310860
H861	H86	0.414900	0.406400	0.275100
C1101	C110	0.476880	0.458800	0.394040
H871	H87	0.482500	0.486500	0.426700
C1111	C111	0.154150	0.785200	0.308520
H881	H88	0.122600	0.759900	0.305900
C1121	C112	0.336270	0.021000	0.653660
H891	H89	0.318900	0.965700	0.655800
C1131	C113	0.441460	0.853900	0.587500
H901	H90	0.477800	0.843300	0.603200
C1141	C114	0.317280	0.046300	0.464780
H911	H91	0.336600	0.994900	0.461500
C1151	C115	0.297590	0.449600	0.356220
H921	H92	0.284600	0.508000	0.361000
C1161	C116	0.222900	0.903600	0.343910
H931	H93	0.237300	0.957600	0.364900
C1171	C117	0.366300	0.134300	0.622230
H941	H94	0.374200	0.173100	0.599500
C1181	C118	0.346340	0.339800	0.344960
H951	H95	0.373500	0.310000	0.340300
C1191	C119	0.401970	0.561400	0.440010
H961	H96	0.399300	0.499500	0.450800
C1201	C120	0.298650	0.565500	0.257440
H971	H97	0.274100	0.536800	0.266700
C1211	C121	0.372580	0.613300	0.260570
H981	H98	0.408300	0.625500	0.271600
C1221	C122	0.381660	0.148600	0.675360
H991	H99	0.402000	0.199700	0.695300
C1231	C123	0.214180	0.828800	0.552600
H1001	H100	0.200400	0.779700	0.565300
C1241	C124	0.399180	0.681800	0.389860
H1011	H101	0.395200	0.719900	0.360800
C1251	C125	0.220150	0.944400	0.505420
H1021	H102	0.211300	0.990800	0.478700
C1261	C126	0.277000	0.140800	0.495990
H1031	H103	0.263000	0.168800	0.517400
C1271	C127	0.358440	0.833300	0.543000
H1041	H104	0.325800	0.805400	0.521900
C1281	C128	0.417990	0.935200	0.592000
H1051	H105	0.435000	0.989500	0.611200
C1291	C129	0.271200	0.172500	0.447580
H1061	H106	0.252400	0.226800	0.430200
C1301	C130	0.332120	0.643800	0.214570
H1071	H107	0.335600	0.679400	0.188000
C1311	C131	0.413600	0.711600	0.440740
H1081	H108	0.420600	0.774600	0.452400
C1321	C132	0.249220	0.859600	0.317650
B71	B7	0.319410	0.992100	0.555600
B81	B8	0.379160	0.512600	0.343360
Cd131	Cd13	0.800180	0.368450	0.847010
Cd141	Cd14	0.595500	0.624980	0.950220
Cd151	Cd15	0.875650	0.536170	0.779170
O251	O25	0.820730	0.529190	0.853660
O261	O26	0.659650	0.498200	0.880950
O271	O27	0.815400	0.626310	0.787630
O281	O28	0.682050	0.892370	0.728540
O291	O29	0.614020	0.631600	0.875750
O301	O30	0.615150	0.881500	0.748390
N651	N65	0.891410	0.915200	0.888850
N661	N66	0.785660	0.885000	0.712930
N671	N67	0.685730	0.615800	0.008030
N681	N68	0.769630	0.567100	0.045150
N691	N69	0.807160	0.206800	0.848090
N701	N70	0.931190	0.033000	0.848980
N711	N71	0.864140	0.577400	0.062860
N721	N72	0.796950	0.386900	0.927960
N731	N73	0.807370	0.440400	0.007830
N741	N74	0.851100	0.939100	0.788000
N751	N75	0.916390	0.865400	0.972940
N761	N76	0.836560	0.448400	0.107750
N771	N77	0.842960	0.065200	0.849260
N781	N78	0.012660	0.091900	0.887530
N791	N79	0.862770	0.423600	0.195350
N801	N80	0.904100	0.710500	0.056610
C1331	C133	0.775860	0.137400	0.854640
H1091	H109	0.744700	0.148400	0.857500
C1341	C134	0.988770	0.120500	0.834780
H1101	H110	0.004200	0.158400	0.818100
C1351	C135	0.727530	0.721600	0.786400
H1111	H111	0.744800	0.750700	0.768400
C1361	C136	0.675060	0.633100	0.838860
C1371	C137	0.680130	0.759100	0.782010
C1381	C138	0.765220	0.643000	0.075060
H1121	H112	0.792600	0.669800	0.105300
C1391	C139	0.657160	0.848900	0.750260
C1401	C140	0.646620	0.584800	0.867170
C1411	C141	0.799180	0.595400	0.820440
C1421	C142	0.939210	0.084800	0.810860
H1131	H113	0.914900	0.093600	0.775100
C1431	C143	0.976880	0.041200	0.894040
H1141	H114	0.982500	0.013500	0.926700
C1441	C144	0.654150	0.714800	0.808520
H1151	H115	0.622600	0.740100	0.805900
C1451	C145	0.836270	0.479000	0.153660
H1161	H116	0.818900	0.534300	0.155800
C1461	C146	0.941460	0.646100	0.087500
H1171	H117	0.977800	0.656700	0.103200
C1471	C147	0.817280	0.453700	0.964780
H1181	H118	0.836600	0.505100	0.961500
C1481	C148	0.797590	0.050400	0.856220
H1191	H119	0.784600	0.992000	0.861000
C1491	C149	0.722900	0.596400	0.843910
H1201	H120	0.737300	0.542400	0.864900
C1501	C150	0.866300	0.365700	0.122230
H1211	H121	0.874200	0.326900	0.099500
C1511	C151	0.846340	0.160200	0.844960
H1221	H122	0.873500	0.190000	0.840300
C1521	C152	0.901970	0.938600	0.940010
H1231	H123	0.899300	0.000500	0.950800
C1531	C153	0.798650	0.934500	0.757440
H1241	H124	0.774100	0.963200	0.766700
C1541	C154	0.872580	0.886700	0.760570
H1251	H125	0.908300	0.874500	0.771600
C1551	C155	0.881660	0.351400	0.175360
H1261	H126	0.902000	0.300300	0.195300
C1561	C156	0.714180	0.671200	0.052600
H1271	H127	0.700400	0.720300	0.065300
C1571	C157	0.899180	0.818200	0.889860
H1281	H128	0.895200	0.780100	0.860800
C1581	C158	0.720150	0.555600	0.005420
H1291	H129	0.711300	0.509200	0.978700
C1591	C159	0.777000	0.359200	0.995990
H1301	H130	0.763000	0.331200	0.017400
C1601	C160	0.858440	0.666700	0.043000
H1311	H131	0.825800	0.694600	0.021900
C1611	C161	0.917990	0.564800	0.092000
H1321	H132	0.935000	0.510500	0.111200
C1621	C162	0.771200	0.327500	0.947580
H1331	H133	0.752400	0.273200	0.930200
C1631	C163	0.832120	0.856200	0.714570
H1341	H134	0.835600	0.820600	0.688000
C1641	C164	0.913600	0.788400	0.940740
H1351	H135	0.920600	0.725400	0.952400
C1651	C165	0.749220	0.640400	0.817650
B91	B9	0.819410	0.507900	0.055600
B101	B10	0.879160	0.987400	0.843360
Cd161	Cd16	0.300180	0.868450	0.847010
Cd171	Cd17	0.095500	0.124980	0.950220
Cd181	Cd18	0.375650	0.036170	0.779170
O311	O31	0.320730	0.029190	0.853660
O321	O32	0.159650	0.998200	0.880950
O331	O33	0.315400	0.126310	0.787630
O341	O34	0.182050	0.392370	0.728540
O351	O35	0.114020	0.131600	0.875750
O361	O36	0.115150	0.381500	0.748390
N811	N81	0.391410	0.415200	0.888850
N821	N82	0.285660	0.385000	0.712930
N831	N83	0.185730	0.115800	0.008030
N841	N84	0.269630	0.067100	0.045150
N851	N85	0.307160	0.706800	0.848090
N861	N86	0.431190	0.533000	0.848980
N871	N87	0.364140	0.077400	0.062860
N881	N88	0.296950	0.886900	0.927960
N891	N89	0.307370	0.940400	0.007830
N901	N90	0.351100	0.439100	0.788000
N911	N91	0.416390	0.365400	0.972940
N921	N92	0.336560	0.948400	0.107750
N931	N93	0.342960	0.565200	0.849260
N941	N94	0.512660	0.591900	0.887530
N951	N95	0.362770	0.923600	0.195350
N961	N96	0.404100	0.210500	0.056610
C1661	C166	0.275860	0.637400	0.854640
H1361	H136	0.244700	0.648400	0.857500
C1671	C167	0.488770	0.620500	0.834780
H1371	H137	0.504200	0.658400	0.818100
C1681	C168	0.227530	0.221600	0.786400
H1381	H138	0.244800	0.250700	0.768400
C1691	C169	0.175060	0.133100	0.838860
C1701	C170	0.180130	0.259100	0.782010
C1711	C171	0.265220	0.143000	0.075060
H1391	H139	0.292600	0.169800	0.105300
C1721	C172	0.157160	0.348900	0.750260
C1731	C173	0.146620	0.084800	0.867170
C1741	C174	0.299180	0.095400	0.820440
C1751	C175	0.439210	0.584800	0.810860
H1401	H140	0.414900	0.593600	0.775100
C1761	C176	0.476880	0.541200	0.894040
H1411	H141	0.482500	0.513500	0.926700
C1771	C177	0.154150	0.214800	0.808520
H1421	H142	0.122600	0.240100	0.805900
C1781	C178	0.336270	0.979000	0.153660
H1431	H143	0.318900	0.034300	0.155800
C1791	C179	0.441460	0.146100	0.087500
H1441	H144	0.477800	0.156700	0.103200
C1801	C180	0.317280	0.953700	0.964780
H1451	H145	0.336600	0.005100	0.961500
C1811	C181	0.297590	0.550400	0.856220
H1461	H146	0.284600	0.492000	0.861000
C1821	C182	0.222900	0.096400	0.843910
H1471	H147	0.237300	0.042400	0.864900
C1831	C183	0.366300	0.865700	0.122230
H1481	H148	0.374200	0.826900	0.099500
C1841	C184	0.346340	0.660200	0.844960
H1491	H149	0.373500	0.690000	0.840300
C1851	C185	0.401970	0.438600	0.940010
H1501	H150	0.399300	0.500500	0.950800
C1861	C186	0.298650	0.434500	0.757440
H1511	H151	0.274100	0.463200	0.766700
C1871	C187	0.372580	0.386700	0.760570
H1521	H152	0.408300	0.374500	0.771600
C1881	C188	0.381660	0.851400	0.175360
H1531	H153	0.402000	0.800300	0.195300
C1891	C189	0.214180	0.171200	0.052600
H1541	H154	0.200400	0.220300	0.065300
C1901	C190	0.399180	0.318200	0.889860
H1551	H155	0.395200	0.280100	0.860800
C1911	C191	0.220150	0.055600	0.005420
H1561	H156	0.211300	0.009200	0.978700
C1921	C192	0.277000	0.859200	0.995990
H1571	H157	0.263000	0.831200	0.017400
C1931	C193	0.358440	0.166700	0.043000
H1581	H158	0.325800	0.194600	0.021900
C1941	C194	0.417990	0.064800	0.092000
H1591	H159	0.435000	0.010500	0.111200
C1951	C195	0.271200	0.827500	0.947580
H1601	H160	0.252400	0.773200	0.930200
C1961	C196	0.332120	0.356200	0.714570
H1611	H161	0.335600	0.320600	0.688000
C1971	C197	0.413600	0.288400	0.940740
H1621	H162	0.420600	0.225400	0.952400
C1981	C198	0.249220	0.140400	0.817650
B111	B11	0.319410	0.007900	0.055600
B121	B12	0.379160	0.487400	0.843360
Cd191	Cd19	0.199820	0.368450	0.652990
Cd201	Cd20	0.404500	0.624980	0.549780
Cd211	Cd21	0.124350	0.536170	0.720830
O371	O37	0.179270	0.529190	0.646340
O381	O38	0.340350	0.498200	0.619050
O391	O39	0.184600	0.626310	0.712370
O401	O40	0.317950	0.892370	0.771460
O411	O41	0.385980	0.631600	0.624250
O421	O42	0.384850	0.881500	0.751610
N971	N97	0.108590	0.915200	0.611150
N981	N98	0.214340	0.885000	0.787070
N991	N99	0.314270	0.615800	0.491970
N1001	N100	0.230370	0.567100	0.454850
N1011	N101	0.192840	0.206800	0.651910
N1021	N102	0.068810	0.033000	0.651020
N1031	N103	0.135860	0.577400	0.437140
N1041	N104	0.203050	0.386900	0.572040
N1051	N105	0.192630	0.440400	0.492170
N1061	N106	0.148900	0.939100	0.712000
N1071	N107	0.083610	0.865400	0.527060
N1081	N108	0.163440	0.448400	0.392250
N1091	N109	0.157040	0.065200	0.650740
N1101	N110	0.987340	0.091900	0.612470
N1111	N111	0.137230	0.423600	0.304650
N1121	N112	0.095900	0.710500	0.443390
C1991	C199	0.224140	0.137400	0.645360
H1631	H163	0.255300	0.148400	0.642500
C2001	C200	0.011230	0.120500	0.665220
H1641	H164	0.995800	0.158400	0.681900
C2011	C201	0.272470	0.721600	0.713600
H1651	H165	0.255200	0.750700	0.731600
C2021	C202	0.324940	0.633100	0.661140
C2031	C203	0.319870	0.759100	0.717990
C2041	C204	0.234780	0.643000	0.424940
H1661	H166	0.207400	0.669800	0.394700
C2051	C205	0.342840	0.848900	0.749740
C2061	C206	0.353380	0.584800	0.632830
C2071	C207	0.200820	0.595400	0.679560
C2081	C208	0.060790	0.084800	0.689140
H1671	H167	0.085100	0.093600	0.724900
C2091	C209	0.023120	0.041200	0.605960
H1681	H168	0.017500	0.013500	0.573300
C2101	C210	0.345850	0.714800	0.691480
H1691	H169	0.377400	0.740100	0.694100
C2111	C211	0.163730	0.479000	0.346340
H1701	H170	0.181100	0.534300	0.344200
C2121	C212	0.058540	0.646100	0.412500
H1711	H171	0.022200	0.656700	0.396800
C2131	C213	0.182720	0.453700	0.535220
H1721	H172	0.163400	0.505100	0.538500
C2141	C214	0.202410	0.050400	0.643780
H1731	H173	0.215400	0.992000	0.639000
C2151	C215	0.277100	0.596400	0.656090
H1741	H174	0.262700	0.542400	0.635100
C2161	C216	0.133700	0.365700	0.377770
H1751	H175	0.125800	0.326900	0.400500
C2171	C217	0.153660	0.160200	0.655040
H1761	H176	0.126500	0.190000	0.659700
C2181	C218	0.098030	0.938600	0.559990
H1771	H177	0.100700	0.000500	0.549200
C2191	C219	0.201350	0.934500	0.742560
H1781	H178	0.225900	0.963200	0.733300
C2201	C220	0.127420	0.886700	0.739430
H1791	H179	0.091700	0.874500	0.728400
C2211	C221	0.118340	0.351400	0.324640
H1801	H180	0.098000	0.300300	0.304700
C2221	C222	0.285820	0.671200	0.447400
H1811	H181	0.299600	0.720300	0.434700
C2231	C223	0.100820	0.818200	0.610140
H1821	H182	0.104800	0.780100	0.639200
C2241	C224	0.279850	0.555600	0.494580
H1831	H183	0.288700	0.509200	0.521300
C2251	C225	0.223000	0.359200	0.504010
H1841	H184	0.237000	0.331200	0.482600
C2261	C226	0.141560	0.666700	0.457000
H1851	H185	0.174200	0.694600	0.478100
C2271	C227	0.082010	0.564800	0.408000
H1861	H186	0.065000	0.510500	0.388800
C2281	C228	0.228800	0.327500	0.552420
H1871	H187	0.247600	0.273200	0.569800
C2291	C229	0.167880	0.856200	0.785430
H1881	H188	0.164400	0.820600	0.812000
C2301	C230	0.086400	0.788400	0.559260
H1891	H189	0.079400	0.725400	0.547600
C2311	C231	0.250780	0.640400	0.682350
B131	B13	0.180590	0.507900	0.444400
B141	B14	0.120840	0.987400	0.656640
Cd221	Cd22	0.699820	0.868450	0.652990
Cd231	Cd23	0.904500	0.124980	0.549780
Cd241	Cd24	0.624350	0.036170	0.720830
O431	O43	0.679270	0.029190	0.646340
O441	O44	0.840350	0.998200	0.619050
O451	O45	0.684600	0.126310	0.712370
O461	O46	0.817950	0.392370	0.771460
O471	O47	0.885980	0.131600	0.624250
O481	O48	0.884850	0.381500	0.751610
N1131	N113	0.608590	0.415200	0.611150
N1141	N114	0.714340	0.385000	0.787070
N1151	N115	0.814270	0.115800	0.491970
N1161	N116	0.730370	0.067100	0.454850
N1171	N117	0.692840	0.706800	0.651910
N1181	N118	0.568810	0.533000	0.651020
N1191	N119	0.635860	0.077400	0.437140
N1201	N120	0.703050	0.886900	0.572040
N1211	N121	0.692630	0.940400	0.492170
N1221	N122	0.648900	0.439100	0.712000
N1231	N123	0.583610	0.365400	0.527060
N1241	N124	0.663440	0.948400	0.392250
N1251	N125	0.657040	0.565200	0.650740
N1261	N126	0.487340	0.591900	0.612470
N1271	N127	0.637230	0.923600	0.304650
N1281	N128	0.595900	0.210500	0.443390
C2321	C232	0.724140	0.637400	0.645360
H1901	H190	0.755300	0.648400	0.642500
C2331	C233	0.511230	0.620500	0.665220
H1911	H191	0.495800	0.658400	0.681900
C2341	C234	0.772470	0.221600	0.713600
H1921	H192	0.755200	0.250700	0.731600
C2351	C235	0.824940	0.133100	0.661140
C2361	C236	0.819870	0.259100	0.717990
C2371	C237	0.734780	0.143000	0.424940
H1931	H193	0.707400	0.169800	0.394700
C2381	C238	0.842840	0.348900	0.749740
C2391	C239	0.853380	0.084800	0.632830
C2401	C240	0.700820	0.095400	0.679560
C2411	C241	0.560790	0.584800	0.689140
H1941	H194	0.585100	0.593600	0.724900
C2421	C242	0.523120	0.541200	0.605960
H1951	H195	0.517500	0.513500	0.573300
C2431	C243	0.845850	0.214800	0.691480
H1961	H196	0.877400	0.240100	0.694100
C2441	C244	0.663730	0.979000	0.346340
H1971	H197	0.681100	0.034300	0.344200
C2451	C245	0.558540	0.146100	0.412500
H1981	H198	0.522200	0.156700	0.396800
C2461	C246	0.682720	0.953700	0.535220
H1991	H199	0.663400	0.005100	0.538500
C2471	C247	0.702410	0.550400	0.643780
H2001	H200	0.715400	0.492000	0.639000
C2481	C248	0.777100	0.096400	0.656090
H2011	H201	0.762700	0.042400	0.635100
C2491	C249	0.633700	0.865700	0.377770
H2021	H202	0.625800	0.826900	0.400500
C2501	C250	0.653660	0.660200	0.655040
H2031	H203	0.626500	0.690000	0.659700
C2511	C251	0.598030	0.438600	0.559990
H2041	H204	0.600700	0.500500	0.549200
C2521	C252	0.701350	0.434500	0.742560
H2051	H205	0.725900	0.463200	0.733300
C2531	C253	0.627420	0.386700	0.739430
H2061	H206	0.591700	0.374500	0.728400
C2541	C254	0.618340	0.851400	0.324640
H2071	H207	0.598000	0.800300	0.304700
C2551	C255	0.785820	0.171200	0.447400
H2081	H208	0.799600	0.220300	0.434700
C2561	C256	0.600820	0.318200	0.610140
H2091	H209	0.604800	0.280100	0.639200
C2571	C257	0.779850	0.055600	0.494580
H2101	H210	0.788700	0.009200	0.521300
C2581	C258	0.723000	0.859200	0.504010
H2111	H211	0.737000	0.831200	0.482600
C2591	C259	0.641560	0.166700	0.457000
H2121	H212	0.674200	0.194600	0.478100
C2601	C260	0.582010	0.064800	0.408000
H2131	H213	0.565000	0.010500	0.388800
C2611	C261	0.728800	0.827500	0.552420
H2141	H214	0.747600	0.773200	0.569800
C2621	C262	0.667880	0.356200	0.785430
H2151	H215	0.664400	0.320600	0.812000
C2631	C263	0.586400	0.288400	0.559260
H2161	H216	0.579400	0.225400	0.547600
C2641	C264	0.750780	0.140400	0.682350
B151	B15	0.680590	0.007900	0.444400
B161	B16	0.620840	0.487400	0.656640
