data_APETAS_clean_PM
_symmetry_space_group_name_H-M	'P1'
_cell_length_a	6.865400
_cell_length_b	11.420000
_cell_length_c	17.439600
_cell_angle_alpha	90.000000
_cell_angle_beta	98.662000
_cell_angle_gamma	90.000000
_symmetry_Int_Tables_number 1

loop_
_symmetry_equiv_pos_as_xyz
'x,y,z'

loop_
_atom_site_label
_atom_site_type_symbol
_atom_site_fract_x
_atom_site_fract_y
_atom_site_fract_z
Cd11	Cd1	0.832050	0.358450	0.526720
C11	C1	0.541200	0.274100	0.303000
C21	C2	0.512800	0.365100	0.249900
H11	H1	0.531700	0.442000	0.266900
C31	C3	0.456300	0.342200	0.171600
C41	C4	0.427400	0.227000	0.147000
H21	H2	0.392300	0.210300	0.094500
C51	C5	0.451200	0.137400	0.200800
C61	C6	0.509400	0.159000	0.278400
H31	H3	0.527200	0.097600	0.313800
C71	C7	0.611800	0.297700	0.387800
C81	C8	0.426100	0.438200	0.113200
C91	C9	0.492500	0.983800	0.112700
H41	H4	0.634100	0.995100	0.121500
H51	H5	0.437800	0.030900	0.068300
C101	C10	0.446600	0.857400	0.096000
O11	O1	0.662600	0.402400	0.406500
O21	O2	0.631600	0.217500	0.434500
O31	O3	0.381700	0.416900	0.042900
O41	O4	0.440200	0.542900	0.137900
O51	O5	0.412400	0.020700	0.179000
O61	O6	0.337700	0.802800	0.134300
O71	O7	0.516600	0.811100	0.041000
Cd21	Cd2	0.667950	0.358450	0.973280
C111	C11	0.958800	0.274100	0.197000
C121	C12	0.987200	0.365100	0.250100
H61	H6	0.968300	0.442000	0.233100
C131	C13	0.043700	0.342200	0.328400
C141	C14	0.072600	0.227000	0.353000
H71	H7	0.107700	0.210300	0.405500
C151	C15	0.048800	0.137400	0.299200
C161	C16	0.990600	0.159000	0.221600
H81	H8	0.972800	0.097600	0.186200
C171	C17	0.888200	0.297700	0.112200
C181	C18	0.073900	0.438200	0.386800
C191	C19	0.007500	0.983800	0.387300
H91	H9	0.865900	0.995100	0.378500
H101	H10	0.062200	0.030900	0.431700
C201	C20	0.053400	0.857400	0.404000
O81	O8	0.837400	0.402400	0.093500
O91	O9	0.868400	0.217500	0.065500
O101	O10	0.118300	0.416900	0.457100
O111	O11	0.059800	0.542900	0.362100
O121	O12	0.087600	0.020700	0.321000
O131	O13	0.162300	0.802800	0.365700
O141	O14	0.983400	0.811100	0.459000
Cd31	Cd3	0.167950	0.641550	0.473280
C211	C21	0.458800	0.725900	0.697000
C221	C22	0.487200	0.634900	0.750100
H111	H11	0.468300	0.558000	0.733100
C231	C23	0.543700	0.657800	0.828400
C241	C24	0.572600	0.773000	0.853000
H121	H12	0.607700	0.789700	0.905500
C251	C25	0.548800	0.862600	0.799200
C261	C26	0.490600	0.841000	0.721600
H131	H13	0.472800	0.902400	0.686200
C271	C27	0.388200	0.702300	0.612200
C281	C28	0.573900	0.561800	0.886800
C291	C29	0.507500	0.016200	0.887300
H141	H14	0.365900	0.004900	0.878500
H151	H15	0.562200	0.969100	0.931700
C301	C30	0.553400	0.142600	0.904000
O151	O15	0.337400	0.597600	0.593500
O161	O16	0.368400	0.782500	0.565500
O171	O17	0.618300	0.583100	0.957100
O181	O18	0.559800	0.457100	0.862100
O191	O19	0.587600	0.979300	0.821000
O201	O20	0.662300	0.197200	0.865700
O211	O21	0.483400	0.188900	0.959000
Cd41	Cd4	0.332050	0.641550	0.026720
C311	C31	0.041200	0.725900	0.803000
C321	C32	0.012800	0.634900	0.749900
H161	H16	0.031700	0.558000	0.766900
C331	C33	0.956300	0.657800	0.671600
C341	C34	0.927400	0.773000	0.647000
H171	H17	0.892300	0.789700	0.594500
C351	C35	0.951200	0.862600	0.700800
C361	C36	0.009400	0.841000	0.778400
H181	H18	0.027200	0.902400	0.813800
C371	C37	0.111800	0.702300	0.887800
C381	C38	0.926100	0.561800	0.613200
C391	C39	0.992500	0.016200	0.612700
H191	H19	0.134100	0.004900	0.621500
H201	H20	0.937800	0.969100	0.568300
C401	C40	0.946600	0.142600	0.596000
O221	O22	0.162600	0.597600	0.906500
O231	O23	0.131600	0.782500	0.934500
O241	O24	0.881700	0.583100	0.542900
O251	O25	0.940200	0.457100	0.637900
O261	O26	0.912400	0.979300	0.679000
O271	O27	0.837700	0.197200	0.634300
O281	O28	0.016600	0.188900	0.541000
Cd51	Cd5	0.250000	0.854020	0.250000
Cd61	Cd6	0.750000	0.145980	0.750000
