data_APUPEH_clean_PM
_symmetry_space_group_name_H-M	'P1'
_cell_length_a	30.189200
_cell_length_b	30.189200
_cell_length_c	30.189200
_cell_angle_alpha	90.000000
_cell_angle_beta	90.000000
_cell_angle_gamma	90.000000
_symmetry_Int_Tables_number 1

loop_
_symmetry_equiv_pos_as_xyz
'x,y,z'

loop_
_atom_site_label
_atom_site_type_symbol
_atom_site_fract_x
_atom_site_fract_y
_atom_site_fract_z
O11	O1	0.500890	0.562950	0.962520
C11	C1	0.502310	0.654320	0.959350
H11	H1	0.503800	0.637900	0.933300
C21	C2	0.502420	0.701840	0.957320
C31	C3	0.504920	0.727700	0.913300
O21	O2	0.504690	0.727200	0.917290
O31	O3	0.000890	0.062950	0.462520
C41	C4	0.002310	0.154320	0.459350
H21	H2	0.003800	0.137900	0.433300
C51	C5	0.002420	0.201840	0.457320
C61	C6	0.004920	0.227700	0.413300
O41	O4	0.004690	0.227200	0.417290
O51	O5	0.499110	0.437050	0.962520
C71	C7	0.497690	0.345680	0.959350
H31	H3	0.496200	0.362100	0.933300
C81	C8	0.497580	0.298160	0.957320
C91	C9	0.495080	0.272300	0.913300
O61	O6	0.495310	0.272800	0.917290
O71	O7	0.999110	0.937050	0.462520
C101	C10	0.997690	0.845680	0.459350
H41	H4	0.996200	0.862100	0.433300
C111	C11	0.997580	0.798160	0.457320
C121	C12	0.995080	0.772300	0.413300
O81	O8	0.995310	0.772800	0.417290
O91	O9	0.499110	0.562950	0.037480
C131	C13	0.497690	0.654320	0.040650
H51	H5	0.496200	0.637900	0.066700
C141	C14	0.497580	0.701840	0.042680
C151	C15	0.495080	0.727700	0.086700
O101	O10	0.495310	0.727200	0.082710
O111	O11	0.999110	0.062950	0.537480
C161	C16	0.997690	0.154320	0.540650
H61	H6	0.996200	0.137900	0.566700
C171	C17	0.997580	0.201840	0.542680
C181	C18	0.995080	0.227700	0.586700
O121	O12	0.995310	0.227200	0.582710
O131	O13	0.500890	0.437050	0.037480
C191	C19	0.502310	0.345680	0.040650
H71	H7	0.503800	0.362100	0.066700
C201	C20	0.502420	0.298160	0.042680
C211	C21	0.504920	0.272300	0.086700
O141	O14	0.504690	0.272800	0.082710
O151	O15	0.000890	0.937050	0.537480
C221	C22	0.002310	0.845680	0.540650
H81	H8	0.003800	0.862100	0.566700
C231	C23	0.002420	0.798160	0.542680
C241	C24	0.004920	0.772300	0.586700
O161	O16	0.004690	0.772800	0.582710
O171	O17	0.962520	0.500890	0.562950
C251	C25	0.959350	0.502310	0.654320
H91	H9	0.933300	0.503800	0.637900
C261	C26	0.957320	0.502420	0.701840
C271	C27	0.913300	0.504920	0.727700
O181	O18	0.917290	0.504690	0.727200
O191	O19	0.462520	0.000890	0.062950
C281	C28	0.459350	0.002310	0.154320
H101	H10	0.433300	0.003800	0.137900
C291	C29	0.457320	0.002420	0.201840
C301	C30	0.413300	0.004920	0.227700
O201	O20	0.417290	0.004690	0.227200
O211	O21	0.962520	0.499110	0.437050
C311	C31	0.959350	0.497690	0.345680
H111	H11	0.933300	0.496200	0.362100
C321	C32	0.957320	0.497580	0.298160
C331	C33	0.913300	0.495080	0.272300
O221	O22	0.917290	0.495310	0.272800
O231	O23	0.462520	0.999110	0.937050
C341	C34	0.459350	0.997690	0.845680
H121	H12	0.433300	0.996200	0.862100
C351	C35	0.457320	0.997580	0.798160
C361	C36	0.413300	0.995080	0.772300
O241	O24	0.417290	0.995310	0.772800
O251	O25	0.037480	0.499110	0.562950
C371	C37	0.040650	0.497690	0.654320
H131	H13	0.066700	0.496200	0.637900
C381	C38	0.042680	0.497580	0.701840
C391	C39	0.086700	0.495080	0.727700
O261	O26	0.082710	0.495310	0.727200
O271	O27	0.537480	0.999110	0.062950
C401	C40	0.540650	0.997690	0.154320
H141	H14	0.566700	0.996200	0.137900
C411	C41	0.542680	0.997580	0.201840
C421	C42	0.586700	0.995080	0.227700
O281	O28	0.582710	0.995310	0.227200
O291	O29	0.037480	0.500890	0.437050
C431	C43	0.040650	0.502310	0.345680
H151	H15	0.066700	0.503800	0.362100
C441	C44	0.042680	0.502420	0.298160
C451	C45	0.086700	0.504920	0.272300
O301	O30	0.082710	0.504690	0.272800
O311	O31	0.537480	0.000890	0.937050
C461	C46	0.540650	0.002310	0.845680
H161	H16	0.566700	0.003800	0.862100
C471	C47	0.542680	0.002420	0.798160
C481	C48	0.586700	0.004920	0.772300
O321	O32	0.582710	0.004690	0.772800
O331	O33	0.562950	0.962520	0.500890
C491	C49	0.654320	0.959350	0.502310
H171	H17	0.637900	0.933300	0.503800
C501	C50	0.701840	0.957320	0.502420
C511	C51	0.727700	0.913300	0.504920
O341	O34	0.727200	0.917290	0.504690
O351	O35	0.062950	0.462520	0.000890
C521	C52	0.154320	0.459350	0.002310
H181	H18	0.137900	0.433300	0.003800
C531	C53	0.201840	0.457320	0.002420
C541	C54	0.227700	0.413300	0.004920
O361	O36	0.227200	0.417290	0.004690
O371	O37	0.437050	0.962520	0.499110
C551	C55	0.345680	0.959350	0.497690
H191	H19	0.362100	0.933300	0.496200
C561	C56	0.298160	0.957320	0.497580
C571	C57	0.272300	0.913300	0.495080
O381	O38	0.272800	0.917290	0.495310
O391	O39	0.937050	0.462520	0.999110
C581	C58	0.845680	0.459350	0.997690
H201	H20	0.862100	0.433300	0.996200
C591	C59	0.798160	0.457320	0.997580
C601	C60	0.772300	0.413300	0.995080
O401	O40	0.772800	0.417290	0.995310
O411	O41	0.562950	0.037480	0.499110
C611	C61	0.654320	0.040650	0.497690
H211	H21	0.637900	0.066700	0.496200
C621	C62	0.701840	0.042680	0.497580
C631	C63	0.727700	0.086700	0.495080
O421	O42	0.727200	0.082710	0.495310
O431	O43	0.062950	0.537480	0.999110
C641	C64	0.154320	0.540650	0.997690
H221	H22	0.137900	0.566700	0.996200
C651	C65	0.201840	0.542680	0.997580
C661	C66	0.227700	0.586700	0.995080
O441	O44	0.227200	0.582710	0.995310
O451	O45	0.437050	0.037480	0.500890
C671	C67	0.345680	0.040650	0.502310
H231	H23	0.362100	0.066700	0.503800
C681	C68	0.298160	0.042680	0.502420
C691	C69	0.272300	0.086700	0.504920
O461	O46	0.272800	0.082710	0.504690
O471	O47	0.937050	0.537480	0.000890
C701	C70	0.845680	0.540650	0.002310
H241	H24	0.862100	0.566700	0.003800
C711	C71	0.798160	0.542680	0.002420
C721	C72	0.772300	0.586700	0.004920
O481	O48	0.772800	0.582710	0.004690
O491	O49	0.562950	0.500890	0.037480
C731	C73	0.654320	0.502310	0.040650
H251	H25	0.637900	0.503800	0.066700
C741	C74	0.701840	0.502420	0.042680
C751	C75	0.727700	0.504920	0.086700
O501	O50	0.727200	0.504690	0.082710
O511	O51	0.062950	0.000890	0.537480
C761	C76	0.154320	0.002310	0.540650
H261	H26	0.137900	0.003800	0.566700
C771	C77	0.201840	0.002420	0.542680
C781	C78	0.227700	0.004920	0.586700
O521	O52	0.227200	0.004690	0.582710
O531	O53	0.437050	0.499110	0.037480
C791	C79	0.345680	0.497690	0.040650
H271	H27	0.362100	0.496200	0.066700
C801	C80	0.298160	0.497580	0.042680
C811	C81	0.272300	0.495080	0.086700
O541	O54	0.272800	0.495310	0.082710
O551	O55	0.937050	0.999110	0.537480
C821	C82	0.845680	0.997690	0.540650
H281	H28	0.862100	0.996200	0.566700
C831	C83	0.798160	0.997580	0.542680
C841	C84	0.772300	0.995080	0.586700
O561	O56	0.772800	0.995310	0.582710
O571	O57	0.562950	0.499110	0.962520
C851	C85	0.654320	0.497690	0.959350
H291	H29	0.637900	0.496200	0.933300
C861	C86	0.701840	0.497580	0.957320
C871	C87	0.727700	0.495080	0.913300
O581	O58	0.727200	0.495310	0.917290
O591	O59	0.062950	0.999110	0.462520
C881	C88	0.154320	0.997690	0.459350
H301	H30	0.137900	0.996200	0.433300
C891	C89	0.201840	0.997580	0.457320
C901	C90	0.227700	0.995080	0.413300
O601	O60	0.227200	0.995310	0.417290
O611	O61	0.437050	0.500890	0.962520
C911	C91	0.345680	0.502310	0.959350
H311	H31	0.362100	0.503800	0.933300
C921	C92	0.298160	0.502420	0.957320
C931	C93	0.272300	0.504920	0.913300
O621	O62	0.272800	0.504690	0.917290
O631	O63	0.937050	0.000890	0.462520
C941	C94	0.845680	0.002310	0.459350
H321	H32	0.862100	0.003800	0.433300
C951	C95	0.798160	0.002420	0.457320
C961	C96	0.772300	0.004920	0.413300
O641	O64	0.772800	0.004690	0.417290
O651	O65	0.500890	0.962520	0.437050
C971	C97	0.502310	0.959350	0.345680
H331	H33	0.503800	0.933300	0.362100
C981	C98	0.502420	0.957320	0.298160
C991	C99	0.504920	0.913300	0.272300
O661	O66	0.504690	0.917290	0.272800
O671	O67	0.000890	0.462520	0.937050
C1001	C100	0.002310	0.459350	0.845680
H341	H34	0.003800	0.433300	0.862100
C1011	C101	0.002420	0.457320	0.798160
C1021	C102	0.004920	0.413300	0.772300
O681	O68	0.004690	0.417290	0.772800
O691	O69	0.499110	0.962520	0.562950
C1031	C103	0.497690	0.959350	0.654320
H351	H35	0.496200	0.933300	0.637900
C1041	C104	0.497580	0.957320	0.701840
C1051	C105	0.495080	0.913300	0.727700
O701	O70	0.495310	0.917290	0.727200
O711	O71	0.999110	0.462520	0.062950
C1061	C106	0.997690	0.459350	0.154320
H361	H36	0.996200	0.433300	0.137900
C1071	C107	0.997580	0.457320	0.201840
C1081	C108	0.995080	0.413300	0.227700
O721	O72	0.995310	0.417290	0.227200
O731	O73	0.499110	0.037480	0.437050
C1091	C109	0.497690	0.040650	0.345680
H371	H37	0.496200	0.066700	0.362100
C1101	C110	0.497580	0.042680	0.298160
C1111	C111	0.495080	0.086700	0.272300
O741	O74	0.495310	0.082710	0.272800
O751	O75	0.999110	0.537480	0.937050
C1121	C112	0.997690	0.540650	0.845680
H381	H38	0.996200	0.566700	0.862100
C1131	C113	0.997580	0.542680	0.798160
C1141	C114	0.995080	0.586700	0.772300
O761	O76	0.995310	0.582710	0.772800
O771	O77	0.500890	0.037480	0.562950
C1151	C115	0.502310	0.040650	0.654320
H391	H39	0.503800	0.066700	0.637900
C1161	C116	0.502420	0.042680	0.701840
C1171	C117	0.504920	0.086700	0.727700
O781	O78	0.504690	0.082710	0.727200
O791	O79	0.000890	0.537480	0.062950
C1181	C118	0.002310	0.540650	0.154320
H401	H40	0.003800	0.566700	0.137900
C1191	C119	0.002420	0.542680	0.201840
C1201	C120	0.004920	0.586700	0.227700
O801	O80	0.004690	0.582710	0.227200
O811	O81	0.962520	0.562950	0.499110
C1211	C121	0.959350	0.654320	0.497690
H411	H41	0.933300	0.637900	0.496200
C1221	C122	0.957320	0.701840	0.497580
C1231	C123	0.913300	0.727700	0.495080
O821	O82	0.917290	0.727200	0.495310
O831	O83	0.462520	0.062950	0.999110
C1241	C124	0.459350	0.154320	0.997690
H421	H42	0.433300	0.137900	0.996200
C1251	C125	0.457320	0.201840	0.997580
C1261	C126	0.413300	0.227700	0.995080
O841	O84	0.417290	0.227200	0.995310
O851	O85	0.962520	0.437050	0.500890
C1271	C127	0.959350	0.345680	0.502310
H431	H43	0.933300	0.362100	0.503800
C1281	C128	0.957320	0.298160	0.502420
C1291	C129	0.913300	0.272300	0.504920
O861	O86	0.917290	0.272800	0.504690
O871	O87	0.462520	0.937050	0.000890
C1301	C130	0.459350	0.845680	0.002310
H441	H44	0.433300	0.862100	0.003800
C1311	C131	0.457320	0.798160	0.002420
C1321	C132	0.413300	0.772300	0.004920
O881	O88	0.417290	0.772800	0.004690
O891	O89	0.037480	0.562950	0.500890
C1331	C133	0.040650	0.654320	0.502310
H451	H45	0.066700	0.637900	0.503800
C1341	C134	0.042680	0.701840	0.502420
C1351	C135	0.086700	0.727700	0.504920
O901	O90	0.082710	0.727200	0.504690
O911	O91	0.537480	0.062950	0.000890
C1361	C136	0.540650	0.154320	0.002310
H461	H46	0.566700	0.137900	0.003800
C1371	C137	0.542680	0.201840	0.002420
C1381	C138	0.586700	0.227700	0.004920
O921	O92	0.582710	0.227200	0.004690
O931	O93	0.037480	0.437050	0.499110
C1391	C139	0.040650	0.345680	0.497690
H471	H47	0.066700	0.362100	0.496200
C1401	C140	0.042680	0.298160	0.497580
C1411	C141	0.086700	0.272300	0.495080
O941	O94	0.082710	0.272800	0.495310
O951	O95	0.537480	0.937050	0.999110
C1421	C142	0.540650	0.845680	0.997690
H481	H48	0.566700	0.862100	0.996200
C1431	C143	0.542680	0.798160	0.997580
C1441	C144	0.586700	0.772300	0.995080
O961	O96	0.582710	0.772800	0.995310
Cu11	Cu1	0.500000	0.500000	0.956730
Cu21	Cu2	0.000000	0.000000	0.456730
Cu31	Cu3	0.500000	0.500000	0.043270
Cu41	Cu4	0.000000	0.000000	0.543270
Cu51	Cu5	0.956730	0.500000	0.500000
Cu61	Cu6	0.456730	0.000000	0.000000
Cu71	Cu7	0.043270	0.500000	0.500000
Cu81	Cu8	0.543270	0.000000	0.000000
Cu91	Cu9	0.500000	0.956730	0.500000
Cu101	Cu10	0.000000	0.456730	0.000000
Cu111	Cu11	0.500000	0.043270	0.500000
Cu121	Cu12	0.000000	0.543270	0.000000
C1451	C145	0.500000	0.582720	0.000000
C1461	C146	0.500000	0.632690	0.000000
C1471	C147	0.500000	0.723170	0.000000
C1481	C148	0.000000	0.082720	0.500000
C1491	C149	0.000000	0.132690	0.500000
C1501	C150	0.000000	0.223170	0.500000
C1511	C151	0.500000	0.417280	0.000000
C1521	C152	0.500000	0.367310	0.000000
C1531	C153	0.500000	0.276830	0.000000
C1541	C154	0.000000	0.917280	0.500000
C1551	C155	0.000000	0.867310	0.500000
C1561	C156	0.000000	0.776830	0.500000
C1571	C157	0.000000	0.500000	0.582720
C1581	C158	0.000000	0.500000	0.632690
C1591	C159	0.000000	0.500000	0.723170
C1601	C160	0.500000	0.000000	0.082720
C1611	C161	0.500000	0.000000	0.132690
C1621	C162	0.500000	0.000000	0.223170
C1631	C163	0.000000	0.500000	0.417280
C1641	C164	0.000000	0.500000	0.367310
C1651	C165	0.000000	0.500000	0.276830
C1661	C166	0.500000	0.000000	0.917280
C1671	C167	0.500000	0.000000	0.867310
C1681	C168	0.500000	0.000000	0.776830
C1691	C169	0.582720	0.000000	0.500000
C1701	C170	0.632690	0.000000	0.500000
C1711	C171	0.723170	0.000000	0.500000
C1721	C172	0.082720	0.500000	0.000000
C1731	C173	0.132690	0.500000	0.000000
C1741	C174	0.223170	0.500000	0.000000
C1751	C175	0.417280	0.000000	0.500000
C1761	C176	0.367310	0.000000	0.500000
C1771	C177	0.276830	0.000000	0.500000
C1781	C178	0.917280	0.500000	0.000000
C1791	C179	0.867310	0.500000	0.000000
C1801	C180	0.776830	0.500000	0.000000
C1811	C181	0.582720	0.500000	0.000000
C1821	C182	0.632690	0.500000	0.000000
C1831	C183	0.723170	0.500000	0.000000
C1841	C184	0.082720	0.000000	0.500000
C1851	C185	0.132690	0.000000	0.500000
C1861	C186	0.223170	0.000000	0.500000
C1871	C187	0.417280	0.500000	0.000000
C1881	C188	0.367310	0.500000	0.000000
C1891	C189	0.276830	0.500000	0.000000
C1901	C190	0.917280	0.000000	0.500000
C1911	C191	0.867310	0.000000	0.500000
C1921	C192	0.776830	0.000000	0.500000
C1931	C193	0.500000	0.000000	0.417280
C1941	C194	0.500000	0.000000	0.367310
C1951	C195	0.500000	0.000000	0.276830
C1961	C196	0.000000	0.500000	0.917280
C1971	C197	0.000000	0.500000	0.867310
C1981	C198	0.000000	0.500000	0.776830
C1991	C199	0.500000	0.000000	0.582720
C2001	C200	0.500000	0.000000	0.632690
C2011	C201	0.500000	0.000000	0.723170
C2021	C202	0.000000	0.500000	0.082720
C2031	C203	0.000000	0.500000	0.132690
C2041	C204	0.000000	0.500000	0.223170
C2051	C205	0.000000	0.582720	0.500000
C2061	C206	0.000000	0.632690	0.500000
C2071	C207	0.000000	0.723170	0.500000
C2081	C208	0.500000	0.082720	0.000000
C2091	C209	0.500000	0.132690	0.000000
C2101	C210	0.500000	0.223170	0.000000
C2111	C211	0.000000	0.417280	0.500000
C2121	C212	0.000000	0.367310	0.500000
C2131	C213	0.000000	0.276830	0.500000
C2141	C214	0.500000	0.917280	0.000000
C2151	C215	0.500000	0.867310	0.000000
C2161	C216	0.500000	0.776830	0.000000
