data_AQALOU_clean_PM
_symmetry_space_group_name_H-M	'P1'
_cell_length_a	11.425000
_cell_length_b	15.824000
_cell_length_c	12.649000
_cell_angle_alpha	90.000000
_cell_angle_beta	90.000000
_cell_angle_gamma	90.000000
_symmetry_Int_Tables_number 1

loop_
_symmetry_equiv_pos_as_xyz
'x,y,z'

loop_
_atom_site_label
_atom_site_type_symbol
_atom_site_fract_x
_atom_site_fract_y
_atom_site_fract_z
Sr11	Sr1	0.250000	0.672450	0.128740
Sr21	Sr2	0.750000	0.827550	0.628740
Sr31	Sr3	0.750000	0.327550	0.871260
Sr41	Sr4	0.250000	0.172450	0.371260
Gd11	Gd1	0.250000	0.422940	0.522330
Gd21	Gd2	0.250000	0.426220	0.022280
Gd31	Gd3	0.750000	0.077060	0.022330
Gd41	Gd4	0.750000	0.073780	0.522280
Gd51	Gd5	0.750000	0.577060	0.477670
Gd61	Gd6	0.750000	0.573780	0.977720
Gd71	Gd7	0.250000	0.922940	0.977670
Gd81	Gd8	0.250000	0.926220	0.477720
H11	H1	0.193900	0.253000	0.595600
H21	H2	0.806100	0.247000	0.095600
H31	H3	0.693900	0.747000	0.404400
H41	H4	0.306100	0.753000	0.904400
H51	H5	0.806100	0.747000	0.404400
H61	H6	0.193900	0.753000	0.904400
H71	H7	0.306100	0.253000	0.595600
H81	H8	0.693900	0.247000	0.095600
C11	C1	0.025500	0.542200	0.979700
C21	C2	0.317000	0.407600	0.773000
C31	C3	0.977100	0.457800	0.477500
C41	C4	0.974500	0.957800	0.479700
C51	C5	0.683000	0.092400	0.273000
C61	C6	0.022900	0.042200	0.977500
C71	C7	0.525500	0.457800	0.020300
C81	C8	0.817000	0.592400	0.227000
C91	C9	0.477100	0.542200	0.522500
C101	C10	0.474500	0.042200	0.520300
C111	C11	0.183000	0.907600	0.727000
C121	C12	0.522900	0.957800	0.022500
C131	C13	0.974500	0.457800	0.020300
C141	C14	0.683000	0.592400	0.227000
C151	C15	0.022900	0.542200	0.522500
C161	C16	0.025500	0.042200	0.520300
C171	C17	0.317000	0.907600	0.727000
C181	C18	0.977100	0.957800	0.022500
C191	C19	0.474500	0.542200	0.979700
C201	C20	0.183000	0.407600	0.773000
C211	C21	0.522900	0.457800	0.477500
C221	C22	0.525500	0.957800	0.479700
C231	C23	0.817000	0.092400	0.273000
C241	C24	0.477100	0.042200	0.977500
C251	C25	0.250000	0.473300	0.271800
C261	C26	0.250000	0.376700	0.269000
C271	C27	0.750000	0.026700	0.771800
C281	C28	0.750000	0.123300	0.769000
C291	C29	0.750000	0.526700	0.728200
C301	C30	0.750000	0.623300	0.731000
C311	C31	0.250000	0.973300	0.228200
C321	C32	0.250000	0.876700	0.231000
O11	O1	0.132200	0.554900	0.995300
O21	O2	0.365400	0.406300	0.861100
O31	O3	0.954500	0.591800	0.934800
O41	O4	0.050900	0.399300	0.468500
O51	O5	0.367000	0.407900	0.684600
O61	O6	0.872100	0.453400	0.453600
O71	O7	0.867800	0.945100	0.495300
O81	O8	0.634600	0.093700	0.361100
O91	O9	0.045500	0.908200	0.434800
O101	O10	0.949100	0.100700	0.968500
O111	O11	0.633000	0.092100	0.184600
O121	O12	0.127900	0.046600	0.953600
O131	O13	0.632200	0.445100	0.004700
O141	O14	0.865400	0.593700	0.138900
O151	O15	0.454500	0.408200	0.065200
O161	O16	0.550900	0.600700	0.531500
O171	O17	0.867000	0.592100	0.315400
O181	O18	0.372100	0.546600	0.546400
O191	O19	0.367800	0.054900	0.504700
O201	O20	0.134600	0.906300	0.638900
O211	O21	0.545500	0.091800	0.565200
O221	O22	0.449100	0.899300	0.031500
O231	O23	0.133000	0.907900	0.815400
O241	O24	0.627900	0.953400	0.046400
O251	O25	0.867800	0.445100	0.004700
O261	O26	0.634600	0.593700	0.138900
O271	O27	0.045500	0.408200	0.065200
O281	O28	0.949100	0.600700	0.531500
O291	O29	0.633000	0.592100	0.315400
O301	O30	0.127900	0.546600	0.546400
O311	O31	0.132200	0.054900	0.504700
O321	O32	0.365400	0.906300	0.638900
O331	O33	0.954500	0.091800	0.565200
O341	O34	0.050900	0.899300	0.031500
O351	O35	0.367000	0.907900	0.815400
O361	O36	0.872100	0.953400	0.046400
O371	O37	0.367800	0.554900	0.995300
O381	O38	0.134600	0.406300	0.861100
O391	O39	0.545500	0.591800	0.934800
O401	O40	0.449100	0.399300	0.468500
O411	O41	0.133000	0.407900	0.684600
O421	O42	0.627900	0.453400	0.453600
O431	O43	0.632200	0.945100	0.495300
O441	O44	0.865400	0.093700	0.361100
O451	O45	0.454500	0.908200	0.434800
O461	O46	0.550900	0.100700	0.968500
O471	O47	0.867000	0.092100	0.184600
O481	O48	0.372100	0.046600	0.953600
O491	O49	0.250000	0.508400	0.360500
O501	O50	0.250000	0.338200	0.356800
O511	O51	0.250000	0.342200	0.181500
O521	O52	0.250000	0.510100	0.184500
O531	O53	0.250000	0.267200	0.556700
O541	O54	0.750000	0.991600	0.860500
O551	O55	0.750000	0.161800	0.856800
O561	O56	0.750000	0.157800	0.681500
O571	O57	0.750000	0.989900	0.684500
O581	O58	0.750000	0.232800	0.056700
O591	O59	0.750000	0.491600	0.639500
O601	O60	0.750000	0.661800	0.643200
O611	O61	0.750000	0.657800	0.818500
O621	O62	0.750000	0.489900	0.815500
O631	O63	0.750000	0.732800	0.443300
O641	O64	0.250000	0.008400	0.139500
O651	O65	0.250000	0.838200	0.143200
O661	O66	0.250000	0.842200	0.318500
O671	O67	0.250000	0.010100	0.315500
O681	O68	0.250000	0.767200	0.943300
