data_AQEFUY_clean_PM
_symmetry_space_group_name_H-M	'P1'
_cell_length_a	23.353300
_cell_length_b	20.537900
_cell_length_c	12.622600
_cell_angle_alpha	90.000000
_cell_angle_beta	98.320000
_cell_angle_gamma	90.000000
_symmetry_Int_Tables_number 1

loop_
_symmetry_equiv_pos_as_xyz
'x,y,z'

loop_
_atom_site_label
_atom_site_type_symbol
_atom_site_fract_x
_atom_site_fract_y
_atom_site_fract_z
Ag11	Ag1	0.264030	0.076760	0.571800
N11	N1	0.422100	0.042000	0.352000
N21	N2	0.498400	0.467400	0.407000
N31	N3	0.082300	0.154800	0.341000
N41	N4	0.337000	0.049000	0.482000
N51	N5	0.185300	0.116200	0.462000
C11	C1	0.390200	0.066400	0.517000
H11	H1	0.399000	0.083200	0.585400
C21	C2	0.026900	0.402000	0.181000
H21	H2	0.049800	0.423500	0.137700
C31	C3	0.158100	0.077000	0.388000
H31	H3	0.172500	0.035900	0.377300
C41	C4	0.166600	0.175000	0.471000
H41	H4	0.187300	0.203900	0.519000
C51	C5	0.434200	0.061000	0.453000
H51	H5	0.472200	0.069800	0.482400
C61	C6	0.112400	0.196000	0.406000
H61	H6	0.099400	0.238000	0.410900
C71	C7	0.369000	0.024000	0.320000
H71	H7	0.359600	0.009900	0.249500
C81	C8	0.549600	0.476100	0.472000
H81	H8	0.583800	0.460200	0.452600
C91	C9	0.475100	0.199900	0.323000
H91	H9	0.457700	0.177700	0.374000
C101	C10	0.476700	0.273000	0.318000
H101	H10	0.459500	0.296800	0.367400
C111	C11	0.107000	0.099400	0.325000
H111	H11	0.089900	0.073000	0.269300
C121	C12	0.326000	0.024000	0.381000
H121	H12	0.289200	0.008500	0.353900
C131	C13	0.019700	0.331400	0.174000
H131	H13	0.029300	0.309400	0.114800
C141	C14	0.449700	0.491400	0.432000
H141	H14	0.415300	0.486300	0.385900
Ag21	Ag2	0.735970	0.076760	0.928200
N61	N6	0.577900	0.042000	0.148000
N71	N7	0.501600	0.467400	0.093000
N81	N8	0.917700	0.154800	0.159000
N91	N9	0.663000	0.049000	0.018000
N101	N10	0.814700	0.116200	0.038000
C151	C15	0.609800	0.066400	0.983000
H151	H15	0.601000	0.083200	0.914600
C161	C16	0.973100	0.402000	0.319000
H161	H16	0.950200	0.423500	0.362300
C171	C17	0.841900	0.077000	0.112000
H171	H17	0.827500	0.035900	0.122700
C181	C18	0.833400	0.175000	0.029000
H181	H18	0.812700	0.203900	0.981000
C191	C19	0.565800	0.061000	0.047000
H191	H19	0.527800	0.069800	0.017600
C201	C20	0.887600	0.196000	0.094000
H201	H20	0.900600	0.238000	0.089100
C211	C21	0.631000	0.024000	0.180000
H211	H21	0.640400	0.009900	0.250500
C221	C22	0.450400	0.476100	0.028000
H221	H22	0.416200	0.460200	0.047400
C231	C23	0.524900	0.199900	0.177000
H231	H23	0.542300	0.177700	0.126000
C241	C24	0.523300	0.273000	0.182000
H241	H24	0.540500	0.296800	0.132600
C251	C25	0.893000	0.099400	0.175000
H251	H25	0.910100	0.073000	0.230700
C261	C26	0.674000	0.024000	0.119000
H261	H26	0.710800	0.008500	0.146100
C271	C27	0.980300	0.331400	0.326000
H271	H27	0.970700	0.309400	0.385200
C281	C28	0.550300	0.491400	0.068000
H281	H28	0.584700	0.486300	0.114100
Ag31	Ag3	0.735970	0.923240	0.428200
N111	N11	0.577900	0.958000	0.648000
N121	N12	0.501600	0.532600	0.593000
N131	N13	0.917700	0.845200	0.659000
N141	N14	0.663000	0.951000	0.518000
N151	N15	0.814700	0.883800	0.538000
C291	C29	0.609800	0.933600	0.483000
H291	H29	0.601000	0.916800	0.414600
C301	C30	0.973100	0.598000	0.819000
H301	H30	0.950200	0.576500	0.862300
C311	C31	0.841900	0.923000	0.612000
H311	H31	0.827500	0.964100	0.622700
C321	C32	0.833400	0.825000	0.529000
H321	H32	0.812700	0.796100	0.481000
C331	C33	0.565800	0.939000	0.547000
H331	H33	0.527800	0.930200	0.517600
C341	C34	0.887600	0.804000	0.594000
H341	H34	0.900600	0.762000	0.589100
C351	C35	0.631000	0.976000	0.680000
H351	H35	0.640400	0.990100	0.750500
C361	C36	0.450400	0.523900	0.528000
H361	H36	0.416200	0.539800	0.547400
C371	C37	0.524900	0.800100	0.677000
H371	H37	0.542300	0.822300	0.626000
C381	C38	0.523300	0.727000	0.682000
H381	H38	0.540500	0.703200	0.632600
C391	C39	0.893000	0.900600	0.675000
H391	H39	0.910100	0.927000	0.730700
C401	C40	0.674000	0.976000	0.619000
H401	H40	0.710800	0.991500	0.646100
C411	C41	0.980300	0.668600	0.826000
H411	H41	0.970700	0.690600	0.885200
C421	C42	0.550300	0.508600	0.568000
H421	H42	0.584700	0.513700	0.614100
Ag41	Ag4	0.264030	0.923240	0.071800
N161	N16	0.422100	0.958000	0.852000
N171	N17	0.498400	0.532600	0.907000
N181	N18	0.082300	0.845200	0.841000
N191	N19	0.337000	0.951000	0.982000
N201	N20	0.185300	0.883800	0.962000
C431	C43	0.390200	0.933600	0.017000
H431	H43	0.399000	0.916800	0.085400
C441	C44	0.026900	0.598000	0.681000
H441	H44	0.049800	0.576500	0.637700
C451	C45	0.158100	0.923000	0.888000
H451	H45	0.172500	0.964100	0.877300
C461	C46	0.166600	0.825000	0.971000
H461	H46	0.187300	0.796100	0.019000
C471	C47	0.434200	0.939000	0.953000
H471	H47	0.472200	0.930200	0.982400
C481	C48	0.112400	0.804000	0.906000
H481	H48	0.099400	0.762000	0.910900
C491	C49	0.369000	0.976000	0.820000
H491	H49	0.359600	0.990100	0.749500
C501	C50	0.549600	0.523900	0.972000
H501	H50	0.583800	0.539800	0.952600
C511	C51	0.475100	0.800100	0.823000
H511	H51	0.457700	0.822300	0.874000
C521	C52	0.476700	0.727000	0.818000
H521	H52	0.459500	0.703200	0.867400
C531	C53	0.107000	0.900600	0.825000
H531	H53	0.089900	0.927000	0.769300
C541	C54	0.326000	0.976000	0.881000
H541	H54	0.289200	0.991500	0.853900
C551	C55	0.019700	0.668600	0.674000
H551	H55	0.029300	0.690600	0.614800
C561	C56	0.449700	0.508600	0.932000
H561	H56	0.415300	0.513700	0.885900
Ag51	Ag5	0.500000	0.413000	0.250000
Ag61	Ag6	0.500000	0.054400	0.250000
N211	N21	0.500000	0.303000	0.250000
N221	N22	0.500000	0.170000	0.250000
Ag71	Ag7	0.500000	0.587000	0.750000
Ag81	Ag8	0.500000	0.945600	0.750000
N231	N23	0.500000	0.697000	0.750000
N241	N24	0.500000	0.830000	0.750000
Ag91	Ag9	0.000000	0.186700	0.250000
N251	N25	0.000000	0.434000	0.250000
N261	N26	0.000000	0.299000	0.250000
Ag101	Ag10	0.000000	0.813300	0.750000
N271	N27	0.000000	0.566000	0.750000
N281	N28	0.000000	0.701000	0.750000
Ag111	Ag11	0.764030	0.576760	0.571800
N291	N29	0.922100	0.542000	0.352000
N301	N30	0.998400	0.967400	0.407000
N311	N31	0.582300	0.654800	0.341000
N321	N32	0.837000	0.549000	0.482000
N331	N33	0.685300	0.616200	0.462000
C571	C57	0.890200	0.566400	0.517000
H571	H57	0.899000	0.583200	0.585400
C581	C58	0.526900	0.902000	0.181000
H581	H58	0.549800	0.923500	0.137700
C591	C59	0.658100	0.577000	0.388000
H591	H59	0.672500	0.535900	0.377300
C601	C60	0.666600	0.675000	0.471000
H601	H60	0.687300	0.703900	0.519000
C611	C61	0.934200	0.561000	0.453000
H611	H61	0.972200	0.569800	0.482400
C621	C62	0.612400	0.696000	0.406000
H621	H62	0.599400	0.738000	0.410900
C631	C63	0.869000	0.524000	0.320000
H631	H63	0.859600	0.509900	0.249500
C641	C64	0.049600	0.976100	0.472000
H641	H64	0.083800	0.960200	0.452600
C651	C65	0.975100	0.699900	0.323000
H651	H65	0.957700	0.677700	0.374000
C661	C66	0.976700	0.773000	0.318000
H661	H66	0.959500	0.796800	0.367400
C671	C67	0.607000	0.599400	0.325000
H671	H67	0.589900	0.573000	0.269300
C681	C68	0.826000	0.524000	0.381000
H681	H68	0.789200	0.508500	0.353900
C691	C69	0.519700	0.831400	0.174000
H691	H69	0.529300	0.809400	0.114800
C701	C70	0.949700	0.991400	0.432000
H701	H70	0.915300	0.986300	0.385900
Ag121	Ag12	0.235970	0.576760	0.928200
N341	N34	0.077900	0.542000	0.148000
N351	N35	0.001600	0.967400	0.093000
N361	N36	0.417700	0.654800	0.159000
N371	N37	0.163000	0.549000	0.018000
N381	N38	0.314700	0.616200	0.038000
C711	C71	0.109800	0.566400	0.983000
H711	H71	0.101000	0.583200	0.914600
C721	C72	0.473100	0.902000	0.319000
H721	H72	0.450200	0.923500	0.362300
C731	C73	0.341900	0.577000	0.112000
H731	H73	0.327500	0.535900	0.122700
C741	C74	0.333400	0.675000	0.029000
H741	H74	0.312700	0.703900	0.981000
C751	C75	0.065800	0.561000	0.047000
H751	H75	0.027800	0.569800	0.017600
C761	C76	0.387600	0.696000	0.094000
H761	H76	0.400600	0.738000	0.089100
C771	C77	0.131000	0.524000	0.180000
H771	H77	0.140400	0.509900	0.250500
C781	C78	0.950400	0.976100	0.028000
H781	H78	0.916200	0.960200	0.047400
C791	C79	0.024900	0.699900	0.177000
H791	H79	0.042300	0.677700	0.126000
C801	C80	0.023300	0.773000	0.182000
H801	H80	0.040500	0.796800	0.132600
C811	C81	0.393000	0.599400	0.175000
H811	H81	0.410100	0.573000	0.230700
C821	C82	0.174000	0.524000	0.119000
H821	H82	0.210800	0.508500	0.146100
C831	C83	0.480300	0.831400	0.326000
H831	H83	0.470700	0.809400	0.385200
C841	C84	0.050300	0.991400	0.068000
H841	H84	0.084700	0.986300	0.114100
Ag131	Ag13	0.235970	0.423240	0.428200
N391	N39	0.077900	0.458000	0.648000
N401	N40	0.001600	0.032600	0.593000
N411	N41	0.417700	0.345200	0.659000
N421	N42	0.163000	0.451000	0.518000
N431	N43	0.314700	0.383800	0.538000
C851	C85	0.109800	0.433600	0.483000
H851	H85	0.101000	0.416800	0.414600
C861	C86	0.473100	0.098000	0.819000
H861	H86	0.450200	0.076500	0.862300
C871	C87	0.341900	0.423000	0.612000
H871	H87	0.327500	0.464100	0.622700
C881	C88	0.333400	0.325000	0.529000
H881	H88	0.312700	0.296100	0.481000
C891	C89	0.065800	0.439000	0.547000
H891	H89	0.027800	0.430200	0.517600
C901	C90	0.387600	0.304000	0.594000
H901	H90	0.400600	0.262000	0.589100
C911	C91	0.131000	0.476000	0.680000
H911	H91	0.140400	0.490100	0.750500
C921	C92	0.950400	0.023900	0.528000
H921	H92	0.916200	0.039800	0.547400
C931	C93	0.024900	0.300100	0.677000
H931	H93	0.042300	0.322300	0.626000
C941	C94	0.023300	0.227000	0.682000
H941	H94	0.040500	0.203200	0.632600
C951	C95	0.393000	0.400600	0.675000
H951	H95	0.410100	0.427000	0.730700
C961	C96	0.174000	0.476000	0.619000
H961	H96	0.210800	0.491500	0.646100
C971	C97	0.480300	0.168600	0.826000
H971	H97	0.470700	0.190600	0.885200
C981	C98	0.050300	0.008600	0.568000
H981	H98	0.084700	0.013700	0.614100
Ag141	Ag14	0.764030	0.423240	0.071800
N441	N44	0.922100	0.458000	0.852000
N451	N45	0.998400	0.032600	0.907000
N461	N46	0.582300	0.345200	0.841000
N471	N47	0.837000	0.451000	0.982000
N481	N48	0.685300	0.383800	0.962000
C991	C99	0.890200	0.433600	0.017000
H991	H99	0.899000	0.416800	0.085400
C1001	C100	0.526900	0.098000	0.681000
H1001	H100	0.549800	0.076500	0.637700
C1011	C101	0.658100	0.423000	0.888000
H1011	H101	0.672500	0.464100	0.877300
C1021	C102	0.666600	0.325000	0.971000
H1021	H102	0.687300	0.296100	0.019000
C1031	C103	0.934200	0.439000	0.953000
H1031	H103	0.972200	0.430200	0.982400
C1041	C104	0.612400	0.304000	0.906000
H1041	H104	0.599400	0.262000	0.910900
C1051	C105	0.869000	0.476000	0.820000
H1051	H105	0.859600	0.490100	0.749500
C1061	C106	0.049600	0.023900	0.972000
H1061	H106	0.083800	0.039800	0.952600
C1071	C107	0.975100	0.300100	0.823000
H1071	H107	0.957700	0.322300	0.874000
C1081	C108	0.976700	0.227000	0.818000
H1081	H108	0.959500	0.203200	0.867400
C1091	C109	0.607000	0.400600	0.825000
H1091	H109	0.589900	0.427000	0.769300
C1101	C110	0.826000	0.476000	0.881000
H1101	H110	0.789200	0.491500	0.853900
C1111	C111	0.519700	0.168600	0.674000
H1111	H111	0.529300	0.190600	0.614800
C1121	C112	0.949700	0.008600	0.932000
H1121	H112	0.915300	0.013700	0.885900
Ag151	Ag15	0.000000	0.913000	0.250000
Ag161	Ag16	0.000000	0.554400	0.250000
N491	N49	0.000000	0.803000	0.250000
N501	N50	0.000000	0.670000	0.250000
Ag171	Ag17	0.000000	0.087000	0.750000
Ag181	Ag18	0.000000	0.445600	0.750000
N511	N51	0.000000	0.197000	0.750000
N521	N52	0.000000	0.330000	0.750000
Ag191	Ag19	0.500000	0.686700	0.250000
N531	N53	0.500000	0.934000	0.250000
N541	N54	0.500000	0.799000	0.250000
Ag201	Ag20	0.500000	0.313300	0.750000
N551	N55	0.500000	0.066000	0.750000
N561	N56	0.500000	0.201000	0.750000
