data_AQEQIW_clean_PM
_symmetry_space_group_name_H-M	'P1'
_cell_length_a	10.877800
_cell_length_b	15.151800
_cell_length_c	11.622100
_cell_angle_alpha	90.000000
_cell_angle_beta	96.249000
_cell_angle_gamma	90.000000
_symmetry_Int_Tables_number 1

loop_
_symmetry_equiv_pos_as_xyz
'x,y,z'

loop_
_atom_site_label
_atom_site_type_symbol
_atom_site_fract_x
_atom_site_fract_y
_atom_site_fract_z
Zn11	Zn1	0.254830	0.012400	0.498780
C11	C1	0.410200	0.175500	0.262300
C21	C2	0.536400	0.169900	0.298200
C31	C3	0.617600	0.222600	0.245100
H11	H1	0.701900	0.217400	0.268100
C41	C4	0.578500	0.282800	0.159000
C51	C5	0.451400	0.289300	0.124900
C61	C6	0.370000	0.235200	0.174400
H21	H2	0.286100	0.238500	0.148800
C71	C7	0.315000	0.121800	0.315900
C81	C8	0.592000	0.114400	0.399500
C91	C9	0.671700	0.341800	0.111900
C101	C10	0.395300	0.355600	0.037300
O11	O1	0.357700	0.062100	0.387600
O21	O2	0.204500	0.137700	0.290800
O31	O3	0.635600	0.039700	0.373600
O41	O4	0.600900	0.147400	0.497100
O51	O5	0.630600	0.412000	0.063000
O61	O6	0.781400	0.321000	0.123600
O71	O7	0.357500	0.425900	0.083800
O81	O8	0.381800	0.337400	0.934000
Zn21	Zn2	0.245170	0.512400	0.001220
C111	C11	0.089800	0.675500	0.237700
C121	C12	0.963600	0.669900	0.201800
C131	C13	0.882400	0.722600	0.254900
H31	H3	0.798100	0.717400	0.231900
C141	C14	0.921500	0.782800	0.341000
C151	C15	0.048600	0.789300	0.375100
C161	C16	0.130000	0.735200	0.325600
H41	H4	0.213900	0.738500	0.351200
C171	C17	0.185000	0.621800	0.184100
C181	C18	0.908000	0.614400	0.100500
C191	C19	0.828300	0.841800	0.388100
C201	C20	0.104700	0.855600	0.462700
O91	O9	0.142300	0.562100	0.112400
O101	O10	0.295500	0.637700	0.209200
O111	O11	0.864400	0.539700	0.126400
O121	O12	0.899100	0.647400	0.002900
O131	O13	0.869400	0.912000	0.437000
O141	O14	0.718600	0.821000	0.376400
O151	O15	0.142500	0.925900	0.416200
O161	O16	0.118200	0.837400	0.566000
Zn31	Zn3	0.745170	0.987600	0.501220
C211	C21	0.589800	0.824500	0.737700
C221	C22	0.463600	0.830100	0.701800
C231	C23	0.382400	0.777400	0.754900
H51	H5	0.298100	0.782600	0.731900
C241	C24	0.421500	0.717200	0.841000
C251	C25	0.548600	0.710700	0.875100
C261	C26	0.630000	0.764800	0.825600
H61	H6	0.713900	0.761500	0.851200
C271	C27	0.685000	0.878200	0.684100
C281	C28	0.408000	0.885600	0.600500
C291	C29	0.328300	0.658200	0.888100
C301	C30	0.604700	0.644400	0.962700
O171	O17	0.642300	0.937900	0.612400
O181	O18	0.795500	0.862300	0.709200
O191	O19	0.364400	0.960300	0.626400
O201	O20	0.399100	0.852600	0.502900
O211	O21	0.369400	0.588000	0.937000
O221	O22	0.218600	0.679000	0.876400
O231	O23	0.642500	0.574100	0.916200
O241	O24	0.618200	0.662600	0.066000
Zn41	Zn4	0.754830	0.487600	0.998780
C311	C31	0.910200	0.324500	0.762300
C321	C32	0.036400	0.330100	0.798200
C331	C33	0.117600	0.277400	0.745100
H71	H7	0.201900	0.282600	0.768100
C341	C34	0.078500	0.217200	0.659000
C351	C35	0.951400	0.210700	0.624900
C361	C36	0.870000	0.264800	0.674400
H81	H8	0.786100	0.261500	0.648800
C371	C37	0.815000	0.378200	0.815900
C381	C38	0.092000	0.385600	0.899500
C391	C39	0.171700	0.158200	0.611900
C401	C40	0.895300	0.144400	0.537300
O251	O25	0.857700	0.437900	0.887600
O261	O26	0.704500	0.362300	0.790800
O271	O27	0.135600	0.460300	0.873600
O281	O28	0.100900	0.352600	0.997100
O291	O29	0.130600	0.088000	0.563000
O301	O30	0.281400	0.179000	0.623600
O311	O31	0.857500	0.074100	0.583800
O321	O32	0.881800	0.162600	0.434000
