data_AQMAND01_clean_PM
_symmetry_space_group_name_H-M	'P1'
_cell_length_a	10.602600
_cell_length_b	10.602600
_cell_length_c	10.973500
_cell_angle_alpha	78.659500
_cell_angle_beta	62.558500
_cell_angle_gamma	108.634000
_symmetry_Int_Tables_number 1

loop_
_symmetry_equiv_pos_as_xyz
'x,y,z'

loop_
_atom_site_label
_atom_site_type_symbol
_atom_site_fract_x
_atom_site_fract_y
_atom_site_fract_z
Nd11	Nd1	0.449370	0.635950	0.619840
Nd21	Nd2	0.755790	0.069210	0.880160
Nd31	Nd3	0.550630	0.364050	0.380160
Nd41	Nd4	0.244210	0.930790	0.119840
H11	H1	0.034900	0.616600	0.689700
H21	H2	0.894400	0.512200	0.857800
H31	H3	0.806300	0.724600	0.810300
H41	H4	0.870000	0.752200	0.642200
H51	H5	0.965100	0.383400	0.310300
H61	H6	0.105600	0.487800	0.142200
H71	H7	0.193700	0.275400	0.189700
H81	H8	0.130000	0.247800	0.357800
H91	H9	0.701200	0.451200	0.750000
H101	H10	0.298800	0.548800	0.250000
C11	C1	0.047600	0.430700	0.757300
C21	C2	0.007300	0.551700	0.782800
C31	C3	0.095100	0.649800	0.832700
C41	C4	0.599500	0.375100	0.625600
C51	C5	0.688000	0.804900	0.742700
C61	C6	0.834500	0.790100	0.717200
C71	C7	0.982500	0.927800	0.667300
C81	C8	0.500700	0.225100	0.874400
C91	C9	0.952400	0.569300	0.242700
C101	C10	0.992700	0.448300	0.217200
C111	C11	0.904900	0.350200	0.167300
C121	C12	0.400500	0.624900	0.374400
C131	C13	0.312000	0.195100	0.257300
C141	C14	0.165500	0.209900	0.282800
C151	C15	0.017500	0.072200	0.332700
C161	C16	0.499300	0.774900	0.125600
C171	C17	0.624400	0.374400	0.750000
C181	C18	0.375600	0.625600	0.250000
O11	O1	0.184500	0.442700	0.710200
O21	O2	0.932000	0.319200	0.785800
O31	O3	0.016100	0.688700	0.927200
O41	O4	0.244800	0.692000	0.774200
O51	O5	0.539400	0.449900	0.591900
O61	O6	0.634300	0.293800	0.558900
O71	O7	0.652900	0.894700	0.789800
O81	O8	0.605000	0.717800	0.714200
O91	O9	0.115900	0.943300	0.572800
O101	O10	0.966200	0.019000	0.725800
O111	O11	0.541800	0.131300	0.908100
O121	O12	0.352700	0.193200	0.941100
O131	O13	0.815500	0.557300	0.289800
O141	O14	0.068000	0.680800	0.214200
O151	O15	0.983900	0.311300	0.072800
O161	O16	0.755200	0.308000	0.225800
O171	O17	0.460600	0.550100	0.408100
O181	O18	0.365700	0.706200	0.441100
O191	O19	0.347100	0.105300	0.210200
O201	O20	0.395000	0.282200	0.285800
O211	O21	0.884100	0.056700	0.427200
O221	O22	0.033800	0.981000	0.274200
O231	O23	0.458200	0.868700	0.091900
O241	O24	0.647300	0.806800	0.058900
