data_AQODOA_clean_PM
_symmetry_space_group_name_H-M	'P1'
_cell_length_a	6.442000
_cell_length_b	8.910000
_cell_length_c	24.416000
_cell_angle_alpha	90.000000
_cell_angle_beta	97.291000
_cell_angle_gamma	90.000000
_symmetry_Int_Tables_number 1

loop_
_symmetry_equiv_pos_as_xyz
'x,y,z'

loop_
_atom_site_label
_atom_site_type_symbol
_atom_site_fract_x
_atom_site_fract_y
_atom_site_fract_z
Ag11	Ag1	0.224260	0.502570	0.694220
Ag21	Ag2	0.775740	0.002570	0.805780
Ag31	Ag3	0.775740	0.497430	0.305780
Ag41	Ag4	0.224260	0.997430	0.194220
H11	H1	0.577000	0.701300	0.763500
H21	H2	0.429300	0.810200	0.726200
H31	H3	0.745500	0.493600	0.722000
H41	H4	0.705600	0.468800	0.657900
H51	H5	0.538000	0.193900	0.494400
H61	H6	0.368900	0.774100	0.627800
H71	H7	0.477500	0.641400	0.600200
H81	H8	0.637100	0.016900	0.435700
H91	H9	0.847800	0.648200	0.596000
H101	H10	0.980500	0.785200	0.621000
H111	H11	0.953100	0.707200	0.759100
H121	H12	0.042700	0.820400	0.718900
H131	H13	0.760300	0.264200	0.573700
H141	H14	0.818600	0.985400	0.662500
H151	H15	0.576400	0.985400	0.664800
H161	H16	0.423000	0.201300	0.736500
H171	H17	0.570700	0.310200	0.773800
H181	H18	0.254500	0.993600	0.778000
H191	H19	0.294400	0.968800	0.842100
H201	H20	0.462000	0.693900	0.005600
H211	H21	0.631100	0.274100	0.872200
H221	H22	0.522500	0.141400	0.899800
H231	H23	0.362900	0.516900	0.064300
H241	H24	0.152200	0.148200	0.904000
H251	H25	0.019500	0.285200	0.879000
H261	H26	0.046900	0.207200	0.740900
H271	H27	0.957300	0.320400	0.781100
H281	H28	0.239700	0.764200	0.926300
H291	H29	0.181400	0.485400	0.837500
H301	H30	0.423600	0.485400	0.835200
H311	H31	0.423000	0.298700	0.236500
H321	H32	0.570700	0.189800	0.273800
H331	H33	0.254500	0.506400	0.278000
H341	H34	0.294400	0.531200	0.342100
H351	H35	0.462000	0.806100	0.505600
H361	H36	0.631100	0.225900	0.372200
H371	H37	0.522500	0.358600	0.399800
H381	H38	0.362900	0.983100	0.564300
H391	H39	0.152200	0.351800	0.404000
H401	H40	0.019500	0.214800	0.379000
H411	H41	0.046900	0.292800	0.240900
H421	H42	0.957300	0.179600	0.281100
H431	H43	0.239700	0.735800	0.426300
H441	H44	0.181400	0.014600	0.337500
H451	H45	0.423600	0.014600	0.335200
H461	H46	0.577000	0.798700	0.263500
H471	H47	0.429300	0.689800	0.226200
H481	H48	0.745500	0.006400	0.222000
H491	H49	0.705600	0.031200	0.157900
H501	H50	0.538000	0.306100	0.994400
H511	H51	0.368900	0.725900	0.127800
H521	H52	0.477500	0.858600	0.100200
H531	H53	0.637100	0.483100	0.935700
H541	H54	0.847800	0.851800	0.096000
H551	H55	0.980500	0.714800	0.121000
H561	H56	0.953100	0.792800	0.259100
H571	H57	0.042700	0.679600	0.218900
H581	H58	0.760300	0.235800	0.073700
H591	H59	0.818600	0.514600	0.162500
H601	H60	0.576400	0.514600	0.164800
C11	C1	0.555600	0.750200	0.727800
C21	C2	0.995900	0.131600	0.560100
C31	C3	0.721400	0.544600	0.686600
C41	C4	0.669500	0.149900	0.501700
C51	C5	0.495600	0.714400	0.629900
C61	C6	0.729400	0.045000	0.466400
C71	C7	0.862400	0.721000	0.625800
C81	C8	0.930500	0.977700	0.475600
C91	C9	0.924700	0.755900	0.723400
C101	C10	0.804200	0.193400	0.549600
C111	C11	0.699600	0.922000	0.667000
C121	C12	0.444400	0.250200	0.772200
C131	C13	0.004100	0.631600	0.939900
C141	C14	0.278600	0.044600	0.813400
C151	C15	0.330500	0.649900	0.998300
C161	C16	0.504400	0.214400	0.870100
C171	C17	0.270600	0.545000	0.033600
C181	C18	0.137600	0.221000	0.874200
C191	C19	0.069500	0.477700	0.024400
C201	C20	0.075300	0.255900	0.776600
C211	C21	0.195800	0.693400	0.950400
C221	C22	0.300400	0.422000	0.833000
C231	C23	0.444400	0.249800	0.272200
C241	C24	0.004100	0.868400	0.439900
C251	C25	0.278600	0.455400	0.313400
C261	C26	0.330500	0.850100	0.498300
C271	C27	0.504400	0.285600	0.370100
C281	C28	0.270600	0.955000	0.533600
C291	C29	0.137600	0.279000	0.374200
C301	C30	0.069500	0.022300	0.524400
C311	C31	0.075300	0.244100	0.276600
C321	C32	0.195800	0.806600	0.450400
C331	C33	0.300400	0.078000	0.333000
C341	C34	0.555600	0.749800	0.227800
C351	C35	0.995900	0.368400	0.060100
C361	C36	0.721400	0.955400	0.186600
C371	C37	0.669500	0.350100	0.001700
C381	C38	0.495600	0.785600	0.129900
C391	C39	0.729400	0.455000	0.966400
C401	C40	0.862400	0.779000	0.125800
C411	C41	0.930500	0.522300	0.975600
C421	C42	0.924700	0.744100	0.223400
C431	C43	0.804200	0.306600	0.049600
C441	C44	0.699600	0.578000	0.167000
S11	S1	0.158100	0.187500	0.621450
S21	S2	0.841900	0.687500	0.878550
S31	S3	0.841900	0.812500	0.378550
S41	S4	0.158100	0.312500	0.121450
N11	N1	0.526600	0.634100	0.683900
N21	N2	0.733700	0.849000	0.722400
N31	N3	0.904500	0.640800	0.679700
N41	N4	0.672100	0.812200	0.622600
N51	N5	0.473400	0.134100	0.816100
N61	N6	0.266300	0.349000	0.777600
N71	N7	0.095500	0.140800	0.820300
N81	N8	0.327900	0.312200	0.877400
N91	N9	0.473400	0.365900	0.316100
N101	N10	0.266300	0.151000	0.277600
N111	N11	0.095500	0.359200	0.320300
N121	N12	0.327900	0.187800	0.377400
N131	N13	0.526600	0.865900	0.183900
N141	N14	0.733700	0.651000	0.222400
N151	N15	0.904500	0.859200	0.179700
N161	N16	0.672100	0.687800	0.122600
O11	O1	0.034300	0.298500	0.646800
O21	O2	0.198500	0.055000	0.655600
O31	O3	0.347700	0.251800	0.605100
O41	O4	0.965700	0.798500	0.853200
O51	O5	0.801500	0.555000	0.844400
O61	O6	0.652300	0.751800	0.894900
O71	O7	0.965700	0.701500	0.353200
O81	O8	0.801500	0.945000	0.344400
O91	O9	0.652300	0.748200	0.394900
O101	O10	0.034300	0.201500	0.146800
O111	O11	0.198500	0.445000	0.155600
O121	O12	0.347700	0.248200	0.105100
