data_AQOLEZ_clean_PM
_symmetry_space_group_name_H-M	'P1'
_cell_length_a	18.705900
_cell_length_b	18.705900
_cell_length_c	18.705900
_cell_angle_alpha	90.000000
_cell_angle_beta	90.000000
_cell_angle_gamma	90.000000
_symmetry_Int_Tables_number 1

loop_
_symmetry_equiv_pos_as_xyz
'x,y,z'

loop_
_atom_site_label
_atom_site_type_symbol
_atom_site_fract_x
_atom_site_fract_y
_atom_site_fract_z
N11	N1	0.073440	0.372290	0.576350
C11	C1	0.128030	0.328840	0.588450
H11	H1	0.140300	0.288100	0.560700
N21	N2	0.411550	0.128030	0.671160
N31	N3	0.926560	0.627710	0.576350
C21	C2	0.871970	0.671160	0.588450
H21	H2	0.859700	0.711900	0.560700
N41	N4	0.588450	0.871970	0.671160
N51	N5	0.926560	0.372290	0.423650
C31	C3	0.871970	0.328840	0.411550
H31	H3	0.859700	0.288100	0.439300
N61	N6	0.588450	0.128030	0.328840
N71	N7	0.073440	0.627710	0.423650
C41	C4	0.128030	0.671160	0.411550
H41	H4	0.140300	0.711900	0.439300
N81	N8	0.411550	0.871970	0.328840
N91	N9	0.576350	0.073440	0.372290
H51	H5	0.560700	0.140300	0.288100
N101	N10	0.671160	0.411550	0.128030
N111	N11	0.576350	0.926560	0.627710
H61	H6	0.560700	0.859700	0.711900
N121	N12	0.671160	0.588450	0.871970
N131	N13	0.423650	0.926560	0.372290
H71	H7	0.439300	0.859700	0.288100
N141	N14	0.328840	0.588450	0.128030
N151	N15	0.423650	0.073440	0.627710
H81	H8	0.439300	0.140300	0.711900
N161	N16	0.328840	0.411550	0.871970
N171	N17	0.372290	0.576350	0.073440
H91	H9	0.288100	0.560700	0.140300
N181	N18	0.627710	0.576350	0.926560
H101	H10	0.711900	0.560700	0.859700
N191	N19	0.372290	0.423650	0.926560
H111	H11	0.288100	0.439300	0.859700
N201	N20	0.627710	0.423650	0.073440
H121	H12	0.711900	0.439300	0.140300
N211	N21	0.372290	0.073440	0.423650
C51	C5	0.328840	0.128030	0.411550
H131	H13	0.288100	0.140300	0.439300
N221	N22	0.128030	0.411550	0.328840
N231	N23	0.627710	0.926560	0.423650
C61	C6	0.671160	0.871970	0.411550
H141	H14	0.711900	0.859700	0.439300
N241	N24	0.871970	0.588450	0.328840
N251	N25	0.372290	0.926560	0.576350
C71	C7	0.328840	0.871970	0.588450
H151	H15	0.288100	0.859700	0.560700
N261	N26	0.128030	0.588450	0.671160
N271	N27	0.627710	0.073440	0.576350
C81	C8	0.671160	0.128030	0.588450
H161	H16	0.711900	0.140300	0.560700
N281	N28	0.871970	0.411550	0.671160
N291	N29	0.073440	0.576350	0.627710
H171	H17	0.140300	0.560700	0.711900
N301	N30	0.411550	0.671160	0.871970
N311	N31	0.926560	0.576350	0.372290
H181	H18	0.859700	0.560700	0.288100
N321	N32	0.588450	0.671160	0.128030
N331	N33	0.926560	0.423650	0.627710
H191	H19	0.859700	0.439300	0.711900
N341	N34	0.588450	0.328840	0.871970
N351	N35	0.073440	0.423650	0.372290
H201	H20	0.140300	0.439300	0.288100
N361	N36	0.411550	0.328840	0.128030
N371	N37	0.576350	0.372290	0.926560
H211	H21	0.560700	0.288100	0.859700
N381	N38	0.576350	0.627710	0.073440
H221	H22	0.560700	0.711900	0.140300
N391	N39	0.423650	0.372290	0.073440
H231	H23	0.439300	0.288100	0.140300
N401	N40	0.423650	0.627710	0.926560
H241	H24	0.439300	0.711900	0.859700
N411	N41	0.926560	0.627710	0.423650
C91	C9	0.871970	0.671160	0.411550
H251	H25	0.859700	0.711900	0.439300
N421	N42	0.588450	0.871970	0.328840
N431	N43	0.073440	0.372290	0.423650
C101	C10	0.128030	0.328840	0.411550
H261	H26	0.140300	0.288100	0.439300
N441	N44	0.411550	0.128030	0.328840
N451	N45	0.073440	0.627710	0.576350
C111	C11	0.128030	0.671160	0.588450
H271	H27	0.140300	0.711900	0.560700
N461	N46	0.411550	0.871970	0.671160
N471	N47	0.926560	0.372290	0.576350
C121	C12	0.871970	0.328840	0.588450
H281	H28	0.859700	0.288100	0.560700
N481	N48	0.588450	0.128030	0.671160
N491	N49	0.423650	0.926560	0.627710
H291	H29	0.439300	0.859700	0.711900
N501	N50	0.328840	0.588450	0.871970
N511	N51	0.423650	0.073440	0.372290
H301	H30	0.439300	0.140300	0.288100
N521	N52	0.328840	0.411550	0.128030
N531	N53	0.576350	0.073440	0.627710
H311	H31	0.560700	0.140300	0.711900
N541	N54	0.671160	0.411550	0.871970
N551	N55	0.576350	0.926560	0.372290
H321	H32	0.560700	0.859700	0.288100
N561	N56	0.671160	0.588450	0.128030
N571	N57	0.627710	0.423650	0.926560
H331	H33	0.711900	0.439300	0.859700
N581	N58	0.372290	0.423650	0.073440
H341	H34	0.288100	0.439300	0.140300
N591	N59	0.627710	0.576350	0.073440
H351	H35	0.711900	0.560700	0.140300
N601	N60	0.372290	0.576350	0.926560
H361	H36	0.288100	0.560700	0.859700
N611	N61	0.627710	0.926560	0.576350
C131	C13	0.671160	0.871970	0.588450
H371	H37	0.711900	0.859700	0.560700
N621	N62	0.871970	0.588450	0.671160
N631	N63	0.372290	0.073440	0.576350
C141	C14	0.328840	0.128030	0.588450
H381	H38	0.288100	0.140300	0.560700
N641	N64	0.128030	0.411550	0.671160
N651	N65	0.627710	0.073440	0.423650
C151	C15	0.671160	0.128030	0.411550
H391	H39	0.711900	0.140300	0.439300
N661	N66	0.871970	0.411550	0.328840
N671	N67	0.372290	0.926560	0.423650
C161	C16	0.328840	0.871970	0.411550
H401	H40	0.288100	0.859700	0.439300
N681	N68	0.128030	0.588450	0.328840
N691	N69	0.926560	0.423650	0.372290
H411	H41	0.859700	0.439300	0.288100
N701	N70	0.588450	0.328840	0.128030
N711	N71	0.073440	0.423650	0.627710
H421	H42	0.140300	0.439300	0.711900
N721	N72	0.411550	0.328840	0.871970
N731	N73	0.073440	0.576350	0.372290
H431	H43	0.140300	0.560700	0.288100
N741	N74	0.411550	0.671160	0.128030
N751	N75	0.926560	0.576350	0.627710
H441	H44	0.859700	0.560700	0.711900
N761	N76	0.588450	0.671160	0.871970
N771	N77	0.423650	0.627710	0.073440
H451	H45	0.439300	0.711900	0.140300
N781	N78	0.423650	0.372290	0.926560
H461	H46	0.439300	0.288100	0.859700
N791	N79	0.576350	0.627710	0.926560
H471	H47	0.560700	0.711900	0.859700
N801	N80	0.576350	0.372290	0.073440
H481	H48	0.560700	0.288100	0.140300
Co11	Co1	0.000000	0.368960	0.500000
Co21	Co2	0.000000	0.631040	0.500000
Co31	Co3	0.500000	0.000000	0.368960
Co41	Co4	0.500000	0.000000	0.631040
Co51	Co5	0.368960	0.500000	0.000000
Co61	Co6	0.631040	0.500000	0.000000
Co71	Co7	0.368960	0.000000	0.500000
Co81	Co8	0.631040	0.000000	0.500000
Co91	Co9	0.000000	0.500000	0.631040
Co101	Co10	0.000000	0.500000	0.368960
Co111	Co11	0.500000	0.368960	0.000000
Co121	Co12	0.500000	0.631040	0.000000
Cl11	Cl1	0.000000	0.500000	0.500000
Cl21	Cl2	0.500000	0.000000	0.500000
Cl31	Cl3	0.500000	0.500000	0.000000
C171	C17	0.228800	0.320540	0.679460
C181	C18	0.163800	0.352400	0.647600
C191	C19	0.771200	0.679460	0.679460
C201	C20	0.836200	0.647600	0.647600
C211	C21	0.771200	0.320540	0.320540
C221	C22	0.836200	0.352400	0.352400
C231	C23	0.228800	0.679460	0.320540
C241	C24	0.163800	0.647600	0.352400
C251	C25	0.679460	0.228800	0.320540
C261	C26	0.647600	0.163800	0.352400
C271	C27	0.679460	0.771200	0.679460
C281	C28	0.647600	0.836200	0.647600
C291	C29	0.320540	0.771200	0.320540
C301	C30	0.352400	0.836200	0.352400
C311	C31	0.320540	0.228800	0.679460
C321	C32	0.352400	0.163800	0.647600
C331	C33	0.320540	0.679460	0.228800
C341	C34	0.352400	0.647600	0.163800
C351	C35	0.679460	0.679460	0.771200
C361	C36	0.647600	0.647600	0.836200
C371	C37	0.320540	0.320540	0.771200
C381	C38	0.352400	0.352400	0.836200
C391	C39	0.679460	0.320540	0.228800
C401	C40	0.647600	0.352400	0.163800
C411	C41	0.320540	0.228800	0.320540
C421	C42	0.352400	0.163800	0.352400
C431	C43	0.679460	0.771200	0.320540
C441	C44	0.647600	0.836200	0.352400
C451	C45	0.320540	0.771200	0.679460
C461	C46	0.352400	0.836200	0.647600
C471	C47	0.679460	0.228800	0.679460
C481	C48	0.647600	0.163800	0.647600
C491	C49	0.228800	0.679460	0.679460
C501	C50	0.163800	0.647600	0.647600
C511	C51	0.771200	0.679460	0.320540
C521	C52	0.836200	0.647600	0.352400
C531	C53	0.771200	0.320540	0.679460
C541	C54	0.836200	0.352400	0.647600
C551	C55	0.228800	0.320540	0.320540
C561	C56	0.163800	0.352400	0.352400
C571	C57	0.679460	0.320540	0.771200
C581	C58	0.647600	0.352400	0.836200
C591	C59	0.679460	0.679460	0.228800
C601	C60	0.647600	0.647600	0.163800
C611	C61	0.320540	0.320540	0.228800
C621	C62	0.352400	0.352400	0.163800
C631	C63	0.320540	0.679460	0.771200
C641	C64	0.352400	0.647600	0.836200
C651	C65	0.259700	0.259700	0.650300
H491	H49	0.238600	0.238600	0.609200
C661	C66	0.740300	0.740300	0.650300
H501	H50	0.761400	0.761400	0.609200
C671	C67	0.740300	0.259700	0.349700
H511	H51	0.761400	0.238600	0.390800
C681	C68	0.259700	0.740300	0.349700
H521	H52	0.238600	0.761400	0.390800
C691	C69	0.650300	0.259700	0.259700
H531	H53	0.609200	0.238600	0.238600
C701	C70	0.650300	0.740300	0.740300
H541	H54	0.609200	0.761400	0.761400
C711	C71	0.349700	0.740300	0.259700
H551	H55	0.390800	0.761400	0.238600
C721	C72	0.349700	0.259700	0.740300
H561	H56	0.390800	0.238600	0.761400
C731	C73	0.259700	0.650300	0.259700
H571	H57	0.238600	0.609200	0.238600
C741	C74	0.740300	0.650300	0.740300
H581	H58	0.761400	0.609200	0.761400
C751	C75	0.259700	0.349700	0.740300
H591	H59	0.238600	0.390800	0.761400
C761	C76	0.740300	0.349700	0.259700
H601	H60	0.761400	0.390800	0.238600
C771	C77	0.259700	0.259700	0.349700
H611	H61	0.238600	0.238600	0.390800
C781	C78	0.740300	0.740300	0.349700
H621	H62	0.761400	0.761400	0.390800
C791	C79	0.259700	0.740300	0.650300
H631	H63	0.238600	0.761400	0.609200
C801	C80	0.740300	0.259700	0.650300
H641	H64	0.761400	0.238600	0.609200
C811	C81	0.259700	0.650300	0.740300
H651	H65	0.238600	0.609200	0.761400
C821	C82	0.740300	0.650300	0.259700
H661	H66	0.761400	0.609200	0.238600
C831	C83	0.740300	0.349700	0.740300
H671	H67	0.761400	0.390800	0.761400
C841	C84	0.259700	0.349700	0.259700
H681	H68	0.238600	0.390800	0.238600
C851	C85	0.650300	0.259700	0.740300
H691	H69	0.609200	0.238600	0.761400
C861	C86	0.650300	0.740300	0.259700
H701	H70	0.609200	0.761400	0.238600
C871	C87	0.349700	0.259700	0.259700
H711	H71	0.390800	0.238600	0.238600
C881	C88	0.349700	0.740300	0.740300
H721	H72	0.390800	0.761400	0.761400
