data_AQUDAS_clean_PM
_symmetry_space_group_name_H-M	'P1'
_cell_length_a	11.409500
_cell_length_b	12.994800
_cell_length_c	23.103000
_cell_angle_alpha	90.000000
_cell_angle_beta	90.000000
_cell_angle_gamma	111.628000
_symmetry_Int_Tables_number 1

loop_
_symmetry_equiv_pos_as_xyz
'x,y,z'

loop_
_atom_site_label
_atom_site_type_symbol
_atom_site_fract_x
_atom_site_fract_y
_atom_site_fract_z
Cu11	Cu1	0.444500	0.964800	0.556700
Cu21	Cu2	0.695700	0.314000	0.061400
Cu31	Cu3	0.755400	0.832400	0.028000
Cu41	Cu4	0.365700	0.439400	0.515000
Cu51	Cu5	0.058000	0.974800	0.680780
Cu61	Cu6	0.960900	0.207400	0.246800
Cu71	Cu7	0.944500	0.464800	0.443300
Cu81	Cu8	0.195700	0.814000	0.938600
Cu91	Cu9	0.255400	0.332400	0.972000
Cu101	Cu10	0.865700	0.939400	0.485000
Cu111	Cu11	0.558000	0.474800	0.319220
Cu121	Cu12	0.460900	0.707400	0.753200
H11	H1	0.278100	0.726200	0.614800
H21	H2	0.574800	0.175400	0.480700
H31	H3	0.827900	0.014600	0.103200
H41	H4	0.186600	0.309400	0.180500
H51	H5	0.594200	0.935200	0.973200
H61	H6	0.567800	0.106200	0.985100
H71	H7	0.264000	0.556300	0.595200
H81	H8	0.548700	0.666600	0.488800
H91	H9	0.541800	0.332000	0.472900
H101	H10	0.279700	0.239900	0.590400
H111	H11	0.860300	0.527700	0.113300
H121	H12	0.885000	0.709800	0.098700
H131	H13	0.400100	0.414800	0.202500
H141	H14	0.596400	0.614200	0.993500
H151	H15	0.114400	0.319200	0.347100
H161	H16	0.778100	0.226200	0.385200
H171	H17	0.074800	0.675400	0.519300
H181	H18	0.327900	0.514600	0.896800
H191	H19	0.686600	0.809400	0.819500
H201	H20	0.094200	0.435200	0.026800
H211	H21	0.067800	0.606200	0.014900
H221	H22	0.764000	0.056300	0.404800
H231	H23	0.048700	0.166600	0.511200
H241	H24	0.041800	0.832000	0.527100
H251	H25	0.779700	0.739900	0.409600
H261	H26	0.360300	0.027700	0.886700
H271	H27	0.385000	0.209800	0.901300
H281	H28	0.900100	0.914800	0.797500
H291	H29	0.096400	0.114200	0.006500
H301	H30	0.614400	0.819200	0.652900
C11	C1	0.539000	0.394000	0.004100
C21	C2	0.334000	0.716000	0.588300
C31	C3	0.500000	0.787000	0.519700
C41	C4	0.516000	0.188000	0.504400
C51	C5	0.840000	0.230000	0.120800
C61	C6	0.780000	0.142000	0.081800
C71	C7	0.781000	0.038000	0.076900
C81	C8	0.213000	0.329000	0.218400
C91	C9	0.640000	0.987000	0.000800
C101	C10	0.626000	0.090000	0.007500
C111	C11	0.325000	0.614000	0.576200
C121	C12	0.490000	0.679000	0.512800
C131	C13	0.493000	0.282000	0.500500
C141	C14	0.343000	0.232000	0.567500
C151	C15	0.353000	0.406000	0.391100
C161	C16	0.294000	0.375000	0.333800
C171	C17	0.642000	0.493000	0.034000
C181	C18	0.587000	0.885000	0.491800
C191	C19	0.807000	0.545000	0.088100
C201	C20	0.820000	0.654000	0.079900
C211	C21	0.342000	0.388000	0.232400
C221	C22	0.651000	0.601000	0.019600
C231	C23	0.174000	0.331000	0.317700
C241	C24	0.367000	0.134000	0.571000
C251	C25	0.279000	0.045000	0.614800
C261	C26	0.039000	0.894000	0.995900
C271	C27	0.834000	0.216000	0.411700
C281	C28	0.000000	0.287000	0.480300
C291	C29	0.016000	0.688000	0.495600
C301	C30	0.340000	0.730000	0.879200
C311	C31	0.280000	0.642000	0.918200
C321	C32	0.281000	0.538000	0.923100
C331	C33	0.713000	0.829000	0.781600
C341	C34	0.140000	0.487000	0.999200
C351	C35	0.126000	0.590000	0.992500
C361	C36	0.825000	0.114000	0.423800
C371	C37	0.990000	0.179000	0.487200
C381	C38	0.993000	0.782000	0.499500
C391	C39	0.843000	0.732000	0.432500
C401	C40	0.853000	0.906000	0.608900
C411	C41	0.794000	0.875000	0.666200
C421	C42	0.142000	0.993000	0.966000
C431	C43	0.087000	0.385000	0.508200
C441	C44	0.307000	0.045000	0.911900
C451	C45	0.320000	0.154000	0.920100
C461	C46	0.842000	0.888000	0.767600
C471	C47	0.151000	0.101000	0.980400
C481	C48	0.674000	0.831000	0.682300
C491	C49	0.867000	0.634000	0.429000
C501	C50	0.779000	0.545000	0.385200
N11	N1	0.742000	0.681000	0.045100
N21	N2	0.128000	0.301000	0.264200
N31	N3	0.717000	0.969000	0.035500
N41	N4	0.423000	0.809000	0.563500
N51	N5	0.451000	0.113000	0.543300
N61	N6	0.383000	0.406000	0.286100
N71	N7	0.412000	0.318000	0.530400
N81	N8	0.722000	0.470000	0.061300
N91	N9	0.698000	0.167000	0.045500
N101	N10	0.402000	0.589000	0.537400
N111	N11	0.242000	0.181000	0.954900
N121	N12	0.628000	0.801000	0.735800
N131	N13	0.217000	0.469000	0.964500
N141	N14	0.923000	0.309000	0.436500
N151	N15	0.951000	0.613000	0.456700
N161	N16	0.883000	0.906000	0.713900
N171	N17	0.912000	0.818000	0.469600
N181	N18	0.222000	0.970000	0.938700
N191	N19	0.198000	0.667000	0.954500
N201	N20	0.902000	0.089000	0.462600
O11	O1	0.449000	0.409000	0.979500
O21	O2	0.555000	0.299000	0.012600
O31	O3	0.923000	0.217000	0.156800
O41	O4	0.824000	0.319000	0.118000
O51	O5	0.473000	0.458000	0.394500
O61	O6	0.278000	0.395000	0.430800
O71	O7	0.210800	0.064800	0.645600
O81	O8	0.303800	0.956800	0.608100
O91	O9	0.660400	0.867800	0.459300
O101	O10	0.579000	0.975000	0.503000
O111	O11	0.949000	0.909000	0.020500
O121	O12	0.055000	0.799000	0.987400
O131	O13	0.423000	0.717000	0.843200
O141	O14	0.324000	0.819000	0.882000
O151	O15	0.973000	0.958000	0.605500
O161	O16	0.778000	0.895000	0.569200
O171	O17	0.710800	0.564800	0.354400
O181	O18	0.803800	0.456800	0.391900
O191	O19	0.160400	0.367800	0.540700
O201	O20	0.079000	0.475000	0.497000
