data_AQUDEX_clean_PM
_symmetry_space_group_name_H-M	'P1'
_cell_length_a	28.684100
_cell_length_b	9.265500
_cell_length_c	9.300500
_cell_angle_alpha	90.000000
_cell_angle_beta	116.369000
_cell_angle_gamma	90.000000
_symmetry_Int_Tables_number 1

loop_
_symmetry_equiv_pos_as_xyz
'x,y,z'

loop_
_atom_site_label
_atom_site_type_symbol
_atom_site_fract_x
_atom_site_fract_y
_atom_site_fract_z
Cu11	Cu1	0.188000	0.829200	0.314000
O11	O1	0.128400	0.070300	0.338400
O21	O2	0.137900	0.178000	0.566800
N11	N1	0.220400	0.012500	0.737200
N21	N2	0.257100	0.909600	0.793200
N31	N3	0.251300	0.826500	0.670600
N41	N4	0.211700	0.874500	0.537900
N51	N5	0.143200	0.660700	0.322900
C11	C1	0.149100	0.086900	0.484800
C21	C2	0.193300	0.988500	0.581300
C31	C3	0.112100	0.720000	0.380800
C41	C4	0.074600	0.645000	0.406900
C51	C5	0.069240	0.498700	0.369900
C61	C6	0.100700	0.433900	0.310000
C71	C7	0.137100	0.518700	0.288300
C81	C8	0.029290	0.410000	0.395260
H11	H1	0.116170	0.821140	0.405820
H21	H2	0.053370	0.692110	0.448510
H31	H3	0.097400	0.332920	0.284220
H41	H4	0.158780	0.474050	0.246850
H51	H5	0.046470	0.350310	0.488500
H61	H6	0.005310	0.473250	0.410380
H71	H7	0.024170	0.256000	0.231700
Cu21	Cu2	0.688000	0.329200	0.314000
O31	O3	0.628400	0.570300	0.338400
O41	O4	0.637900	0.678000	0.566800
N61	N6	0.720400	0.512500	0.737200
N71	N7	0.757100	0.409600	0.793200
N81	N8	0.751300	0.326500	0.670600
N91	N9	0.711700	0.374500	0.537900
N101	N10	0.643200	0.160700	0.322900
C91	C9	0.649100	0.586900	0.484800
C101	C10	0.693300	0.488500	0.581300
C111	C11	0.612100	0.220000	0.380800
C121	C12	0.574600	0.145000	0.406900
C131	C13	0.569240	0.998700	0.369900
C141	C14	0.600700	0.933900	0.310000
C151	C15	0.637100	0.018700	0.288300
C161	C16	0.529290	0.910000	0.395260
H81	H8	0.616170	0.321140	0.405820
H91	H9	0.553370	0.192110	0.448510
H101	H10	0.597400	0.832920	0.284220
H111	H11	0.658780	0.974050	0.246850
H121	H12	0.546470	0.850310	0.488500
H131	H13	0.505310	0.973250	0.410380
H141	H14	0.524170	0.756000	0.231700
Cu31	Cu3	0.812000	0.829200	0.186000
O51	O5	0.871600	0.070300	0.161600
O61	O6	0.862100	0.178000	0.933200
N111	N11	0.779600	0.012500	0.762800
N121	N12	0.742900	0.909600	0.706800
N131	N13	0.748700	0.826500	0.829400
N141	N14	0.788300	0.874500	0.962100
N151	N15	0.856800	0.660700	0.177100
C171	C17	0.850900	0.086900	0.015200
C181	C18	0.806700	0.988500	0.918700
C191	C19	0.887900	0.720000	0.119200
C201	C20	0.925400	0.645000	0.093100
C211	C21	0.930760	0.498700	0.130100
C221	C22	0.899300	0.433900	0.190000
C231	C23	0.862900	0.518700	0.211700
C241	C24	0.970710	0.410000	0.104740
H151	H15	0.883830	0.821140	0.094180
H161	H16	0.946630	0.692110	0.051490
H171	H17	0.902600	0.332920	0.215780
H181	H18	0.841220	0.474050	0.253150
H191	H19	0.953530	0.350310	0.011500
H201	H20	0.994690	0.473250	0.089620
H211	H21	0.975830	0.256000	0.268300
Cu41	Cu4	0.312000	0.329200	0.186000
O71	O7	0.371600	0.570300	0.161600
O81	O8	0.362100	0.678000	0.933200
N161	N16	0.279600	0.512500	0.762800
N171	N17	0.242900	0.409600	0.706800
N181	N18	0.248700	0.326500	0.829400
N191	N19	0.288300	0.374500	0.962100
N201	N20	0.356800	0.160700	0.177100
C251	C25	0.350900	0.586900	0.015200
C261	C26	0.306700	0.488500	0.918700
C271	C27	0.387900	0.220000	0.119200
C281	C28	0.425400	0.145000	0.093100
C291	C29	0.430760	0.998700	0.130100
C301	C30	0.399300	0.933900	0.190000
C311	C31	0.362900	0.018700	0.211700
C321	C32	0.470710	0.910000	0.104740
H221	H22	0.383830	0.321140	0.094180
H231	H23	0.446630	0.192110	0.051490
H241	H24	0.402600	0.832920	0.215780
H251	H25	0.341220	0.974050	0.253150
H261	H26	0.453530	0.850310	0.011500
H271	H27	0.494690	0.973250	0.089620
H281	H28	0.475830	0.756000	0.268300
Cu51	Cu5	0.812000	0.170800	0.686000
O91	O9	0.871600	0.929700	0.661600
O101	O10	0.862100	0.822000	0.433200
N211	N21	0.779600	0.987500	0.262800
N221	N22	0.742900	0.090400	0.206800
N231	N23	0.748700	0.173500	0.329400
N241	N24	0.788300	0.125500	0.462100
N251	N25	0.856800	0.339300	0.677100
C331	C33	0.850900	0.913100	0.515200
C341	C34	0.806700	0.011500	0.418700
C351	C35	0.887900	0.280000	0.619200
C361	C36	0.925400	0.355000	0.593100
C371	C37	0.930760	0.501300	0.630100
C381	C38	0.899300	0.566100	0.690000
C391	C39	0.862900	0.481300	0.711700
C401	C40	0.970710	0.590000	0.604740
H291	H29	0.883830	0.178860	0.594180
H301	H30	0.946630	0.307890	0.551490
H311	H31	0.902600	0.667080	0.715780
H321	H32	0.841220	0.525950	0.753150
H331	H33	0.953530	0.649690	0.511500
H341	H34	0.994690	0.526750	0.589620
H351	H35	0.975830	0.744000	0.768300
Cu61	Cu6	0.312000	0.670800	0.686000
O111	O11	0.371600	0.429700	0.661600
O121	O12	0.362100	0.322000	0.433200
N261	N26	0.279600	0.487500	0.262800
N271	N27	0.242900	0.590400	0.206800
N281	N28	0.248700	0.673500	0.329400
N291	N29	0.288300	0.625500	0.462100
N301	N30	0.356800	0.839300	0.677100
C411	C41	0.350900	0.413100	0.515200
C421	C42	0.306700	0.511500	0.418700
C431	C43	0.387900	0.780000	0.619200
C441	C44	0.425400	0.855000	0.593100
C451	C45	0.430760	0.001300	0.630100
C461	C46	0.399300	0.066100	0.690000
C471	C47	0.362900	0.981300	0.711700
C481	C48	0.470710	0.090000	0.604740
H361	H36	0.383830	0.678860	0.594180
H371	H37	0.446630	0.807890	0.551490
H381	H38	0.402600	0.167080	0.715780
H391	H39	0.341220	0.025950	0.753150
H401	H40	0.453530	0.149690	0.511500
H411	H41	0.494690	0.026750	0.589620
H421	H42	0.475830	0.244000	0.768300
Cu71	Cu7	0.188000	0.170800	0.814000
O131	O13	0.128400	0.929700	0.838400
O141	O14	0.137900	0.822000	0.066800
N311	N31	0.220400	0.987500	0.237200
N321	N32	0.257100	0.090400	0.293200
N331	N33	0.251300	0.173500	0.170600
N341	N34	0.211700	0.125500	0.037900
N351	N35	0.143200	0.339300	0.822900
C491	C49	0.149100	0.913100	0.984800
C501	C50	0.193300	0.011500	0.081300
C511	C51	0.112100	0.280000	0.880800
C521	C52	0.074600	0.355000	0.906900
C531	C53	0.069240	0.501300	0.869900
C541	C54	0.100700	0.566100	0.810000
C551	C55	0.137100	0.481300	0.788300
C561	C56	0.029290	0.590000	0.895260
H431	H43	0.116170	0.178860	0.905820
H441	H44	0.053370	0.307890	0.948510
H451	H45	0.097400	0.667080	0.784220
H461	H46	0.158780	0.525950	0.746850
H471	H47	0.046470	0.649690	0.988500
H481	H48	0.005310	0.526750	0.910380
H491	H49	0.024170	0.744000	0.731700
Cu81	Cu8	0.688000	0.670800	0.814000
O151	O15	0.628400	0.429700	0.838400
O161	O16	0.637900	0.322000	0.066800
N361	N36	0.720400	0.487500	0.237200
N371	N37	0.757100	0.590400	0.293200
N381	N38	0.751300	0.673500	0.170600
N391	N39	0.711700	0.625500	0.037900
N401	N40	0.643200	0.839300	0.822900
C571	C57	0.649100	0.413100	0.984800
C581	C58	0.693300	0.511500	0.081300
C591	C59	0.612100	0.780000	0.880800
C601	C60	0.574600	0.855000	0.906900
C611	C61	0.569240	0.001300	0.869900
C621	C62	0.600700	0.066100	0.810000
C631	C63	0.637100	0.981300	0.788300
C641	C64	0.529290	0.090000	0.895260
H501	H50	0.616170	0.678860	0.905820
H511	H51	0.553370	0.807890	0.948510
H521	H52	0.597400	0.167080	0.784220
H531	H53	0.658780	0.025950	0.746850
H541	H54	0.546470	0.149690	0.988500
H551	H55	0.505310	0.026750	0.910380
H561	H56	0.524170	0.244000	0.731700
C651	C65	0.000000	0.315900	0.250000
C661	C66	0.500000	0.815900	0.250000
C671	C67	0.000000	0.684100	0.750000
C681	C68	0.500000	0.184100	0.750000
