data_ARAFEF_clean_PM
_symmetry_space_group_name_H-M	'P1'
_cell_length_a	22.538000
_cell_length_b	7.044000
_cell_length_c	13.772000
_cell_angle_alpha	90.000000
_cell_angle_beta	90.000000
_cell_angle_gamma	90.000000
_symmetry_Int_Tables_number 1

loop_
_symmetry_equiv_pos_as_xyz
'x,y,z'

loop_
_atom_site_label
_atom_site_type_symbol
_atom_site_fract_x
_atom_site_fract_y
_atom_site_fract_z
N11	N1	0.937580	0.344300	0.936100
H11	H1	0.878300	0.533100	0.878200
C11	C1	0.889370	0.404600	0.888700
C21	C2	0.776400	0.412500	0.777300
H21	H2	0.793400	0.530400	0.796000
N21	N2	0.889370	0.095400	0.888700
N31	N3	0.437580	0.844300	0.436100
H31	H3	0.378300	0.033100	0.378200
C31	C3	0.389370	0.904600	0.388700
C41	C4	0.276400	0.912500	0.277300
H41	H4	0.293400	0.030400	0.296000
N41	N4	0.389370	0.595400	0.388700
N51	N5	0.062420	0.155700	0.936100
H51	H5	0.121700	0.966900	0.878200
C51	C5	0.110630	0.095400	0.888700
C61	C6	0.223600	0.087500	0.777300
H61	H6	0.206600	0.969600	0.796000
N61	N6	0.110630	0.404600	0.888700
N71	N7	0.562420	0.655700	0.436100
H71	H7	0.621700	0.466900	0.378200
C71	C7	0.610630	0.595400	0.388700
C81	C8	0.723600	0.587500	0.277300
H81	H8	0.706600	0.469600	0.296000
N81	N8	0.610630	0.904600	0.388700
N91	N9	0.062420	0.844300	0.063900
H91	H9	0.121700	0.033100	0.121800
C91	C9	0.110630	0.904600	0.111300
C101	C10	0.223600	0.912500	0.222700
H101	H10	0.206600	0.030400	0.204000
N101	N10	0.110630	0.595400	0.111300
N111	N11	0.562420	0.344300	0.563900
H111	H11	0.621700	0.533100	0.621800
C111	C11	0.610630	0.404600	0.611300
C121	C12	0.723600	0.412500	0.722700
H121	H12	0.706600	0.530400	0.704000
N121	N12	0.610630	0.095400	0.611300
N131	N13	0.937580	0.655700	0.063900
H131	H13	0.878300	0.466900	0.121800
C131	C13	0.889370	0.595400	0.111300
C141	C14	0.776400	0.587500	0.222700
H141	H14	0.793400	0.469600	0.204000
N141	N14	0.889370	0.904600	0.111300
N151	N15	0.437580	0.155700	0.563900
H151	H15	0.378300	0.966900	0.621800
C151	C15	0.389370	0.095400	0.611300
C161	C16	0.276400	0.087500	0.722700
H161	H16	0.293400	0.969600	0.704000
N161	N16	0.389370	0.404600	0.611300
N171	N17	0.062420	0.655700	0.063900
H171	H17	0.121700	0.466900	0.121800
C171	C17	0.223600	0.587500	0.222700
H181	H18	0.206600	0.469600	0.204000
N181	N18	0.562420	0.155700	0.563900
H191	H19	0.621700	0.966900	0.621800
C181	C18	0.723600	0.087500	0.722700
H201	H20	0.706600	0.969600	0.704000
N191	N19	0.937580	0.844300	0.063900
H211	H21	0.878300	0.033100	0.121800
C191	C19	0.776400	0.912500	0.222700
H221	H22	0.793400	0.030400	0.204000
N201	N20	0.437580	0.344300	0.563900
H231	H23	0.378300	0.533100	0.621800
C201	C20	0.276400	0.412500	0.722700
H241	H24	0.293400	0.530400	0.704000
N211	N21	0.937580	0.155700	0.936100
H251	H25	0.878300	0.966900	0.878200
C211	C21	0.776400	0.087500	0.777300
H261	H26	0.793400	0.969600	0.796000
N221	N22	0.437580	0.655700	0.436100
H271	H27	0.378300	0.466900	0.378200
C221	C22	0.276400	0.587500	0.277300
H281	H28	0.293400	0.469600	0.296000
N231	N23	0.062420	0.344300	0.936100
H291	H29	0.121700	0.533100	0.878200
C231	C23	0.223600	0.412500	0.777300
H301	H30	0.206600	0.530400	0.796000
N241	N24	0.562420	0.844300	0.436100
H311	H31	0.621700	0.033100	0.378200
C241	C24	0.723600	0.912500	0.277300
H321	H32	0.706600	0.030400	0.296000
Cu11	Cu1	0.000000	0.500000	0.000000
Cu21	Cu2	0.500000	0.000000	0.500000
Cu31	Cu3	0.000000	0.000000	0.000000
Cu41	Cu4	0.500000	0.500000	0.500000
C251	C25	0.803500	0.250000	0.803800
C261	C26	0.859300	0.250000	0.858400
C271	C27	0.303500	0.750000	0.303800
C281	C28	0.359300	0.750000	0.358400
C291	C29	0.196500	0.250000	0.803800
C301	C30	0.140700	0.250000	0.858400
C311	C31	0.696500	0.750000	0.303800
C321	C32	0.640700	0.750000	0.358400
C331	C33	0.196500	0.750000	0.196200
C341	C34	0.140700	0.750000	0.141600
C351	C35	0.696500	0.250000	0.696200
C361	C36	0.640700	0.250000	0.641600
C371	C37	0.803500	0.750000	0.196200
C381	C38	0.859300	0.750000	0.141600
C391	C39	0.303500	0.250000	0.696200
C401	C40	0.359300	0.250000	0.641600
