data_ARAGOR_clean_PM
_symmetry_space_group_name_H-M	'P1'
_cell_length_a	17.009300
_cell_length_b	11.993900
_cell_length_c	25.031700
_cell_angle_alpha	90.000000
_cell_angle_beta	92.911000
_cell_angle_gamma	90.000000
_symmetry_Int_Tables_number 1

loop_
_symmetry_equiv_pos_as_xyz
'x,y,z'

loop_
_atom_site_label
_atom_site_type_symbol
_atom_site_fract_x
_atom_site_fract_y
_atom_site_fract_z
Cu11	Cu1	0.046410	0.695130	0.121470
S11	S1	0.778000	0.426000	0.109540
S21	S2	0.282700	0.461400	0.136160
O11	O1	0.461600	0.289000	0.091200
O21	O2	0.969400	0.590500	0.148400
O31	O3	0.627200	0.311000	0.115400
O41	O4	0.104500	0.577200	0.049200
O51	O5	0.133900	0.591300	0.136300
O61	O6	0.918700	0.539000	0.068900
C11	C1	0.416600	0.335400	0.122000
O71	O7	0.428800	0.346400	0.170700
C21	C2	0.917000	0.549100	0.117600
C31	C3	0.219200	0.485600	0.081800
C41	C4	0.148200	0.552500	0.089700
C51	C5	0.845700	0.507100	0.145100
O81	O8	0.608900	0.342000	0.201200
C61	C6	0.344700	0.382000	0.096700
C71	C7	0.314900	0.381200	0.044800
H11	H1	0.338900	0.343700	0.017400
C81	C8	0.646700	0.345500	0.157800
C91	C9	0.244400	0.442700	0.036700
H21	H2	0.218400	0.452300	0.003400
C101	C10	0.720900	0.415000	0.163700
C111	C11	0.823600	0.534000	0.194400
H31	H3	0.851500	0.580800	0.218000
C121	C12	0.751300	0.479000	0.205400
H41	H4	0.727100	0.486900	0.237700
Cu21	Cu2	0.546410	0.195130	0.121470
S31	S3	0.278000	0.926000	0.109540
S41	S4	0.782700	0.961400	0.136160
O91	O9	0.961600	0.789000	0.091200
O101	O10	0.469400	0.090500	0.148400
O111	O11	0.127200	0.811000	0.115400
O121	O12	0.604500	0.077200	0.049200
O131	O13	0.633900	0.091300	0.136300
O141	O14	0.418700	0.039000	0.068900
C131	C13	0.916600	0.835400	0.122000
O151	O15	0.928800	0.846400	0.170700
C141	C14	0.417000	0.049100	0.117600
C151	C15	0.719200	0.985600	0.081800
C161	C16	0.648200	0.052500	0.089700
C171	C17	0.345700	0.007100	0.145100
O161	O16	0.108900	0.842000	0.201200
C181	C18	0.844700	0.882000	0.096700
C191	C19	0.814900	0.881200	0.044800
H51	H5	0.838900	0.843700	0.017400
C201	C20	0.146700	0.845500	0.157800
C211	C21	0.744400	0.942700	0.036700
H61	H6	0.718400	0.952300	0.003400
C221	C22	0.220900	0.915000	0.163700
C231	C23	0.323600	0.034000	0.194400
H71	H7	0.351500	0.080800	0.218000
C241	C24	0.251300	0.979000	0.205400
H81	H8	0.227100	0.986900	0.237700
Cu31	Cu3	0.953590	0.695130	0.378530
S51	S5	0.222000	0.426000	0.390460
S61	S6	0.717300	0.461400	0.363840
O171	O17	0.538400	0.289000	0.408800
O181	O18	0.030600	0.590500	0.351600
O191	O19	0.372800	0.311000	0.384600
O201	O20	0.895500	0.577200	0.450800
O211	O21	0.866100	0.591300	0.363700
O221	O22	0.081300	0.539000	0.431100
C251	C25	0.583400	0.335400	0.378000
O231	O23	0.571200	0.346400	0.329300
C261	C26	0.083000	0.549100	0.382400
C271	C27	0.780800	0.485600	0.418200
C281	C28	0.851800	0.552500	0.410300
C291	C29	0.154300	0.507100	0.354900
O241	O24	0.391100	0.342000	0.298800
C301	C30	0.655300	0.382000	0.403300
C311	C31	0.685100	0.381200	0.455200
H91	H9	0.661100	0.343700	0.482600
C321	C32	0.353300	0.345500	0.342200
C331	C33	0.755600	0.442700	0.463300
H101	H10	0.781600	0.452300	0.496600
C341	C34	0.279100	0.415000	0.336300
C351	C35	0.176400	0.534000	0.305600
H111	H11	0.148500	0.580800	0.282000
C361	C36	0.248700	0.479000	0.294600
H121	H12	0.272900	0.486900	0.262300
Cu41	Cu4	0.453590	0.195130	0.378530
S71	S7	0.722000	0.926000	0.390460
S81	S8	0.217300	0.961400	0.363840
O251	O25	0.038400	0.789000	0.408800
O261	O26	0.530600	0.090500	0.351600
O271	O27	0.872800	0.811000	0.384600
O281	O28	0.395500	0.077200	0.450800
O291	O29	0.366100	0.091300	0.363700
O301	O30	0.581300	0.039000	0.431100
C371	C37	0.083400	0.835400	0.378000
O311	O31	0.071200	0.846400	0.329300
C381	C38	0.583000	0.049100	0.382400
C391	C39	0.280800	0.985600	0.418200
C401	C40	0.351800	0.052500	0.410300
C411	C41	0.654300	0.007100	0.354900
O321	O32	0.891100	0.842000	0.298800
C421	C42	0.155300	0.882000	0.403300
C431	C43	0.185100	0.881200	0.455200
H131	H13	0.161100	0.843700	0.482600
C441	C44	0.853300	0.845500	0.342200
C451	C45	0.255600	0.942700	0.463300
H141	H14	0.281600	0.952300	0.496600
C461	C46	0.779100	0.915000	0.336300
C471	C47	0.676400	0.034000	0.305600
H151	H15	0.648500	0.080800	0.282000
C481	C48	0.748700	0.979000	0.294600
H161	H16	0.772900	0.986900	0.262300
Cu51	Cu5	0.953590	0.304870	0.878530
S91	S9	0.222000	0.574000	0.890460
S101	S10	0.717300	0.538600	0.863840
O331	O33	0.538400	0.711000	0.908800
O341	O34	0.030600	0.409500	0.851600
O351	O35	0.372800	0.689000	0.884600
O361	O36	0.895500	0.422800	0.950800
O371	O37	0.866100	0.408700	0.863700
O381	O38	0.081300	0.461000	0.931100
C491	C49	0.583400	0.664600	0.878000
O391	O39	0.571200	0.653600	0.829300
C501	C50	0.083000	0.450900	0.882400
C511	C51	0.780800	0.514400	0.918200
C521	C52	0.851800	0.447500	0.910300
C531	C53	0.154300	0.492900	0.854900
O401	O40	0.391100	0.658000	0.798800
C541	C54	0.655300	0.618000	0.903300
C551	C55	0.685100	0.618800	0.955200
H171	H17	0.661100	0.656300	0.982600
C561	C56	0.353300	0.654500	0.842200
C571	C57	0.755600	0.557300	0.963300
H181	H18	0.781600	0.547700	0.996600
C581	C58	0.279100	0.585000	0.836300
C591	C59	0.176400	0.466000	0.805600
H191	H19	0.148500	0.419200	0.782000
C601	C60	0.248700	0.521000	0.794600
H201	H20	0.272900	0.513100	0.762300
Cu61	Cu6	0.453590	0.804870	0.878530
S111	S11	0.722000	0.074000	0.890460
S121	S12	0.217300	0.038600	0.863840
O411	O41	0.038400	0.211000	0.908800
O421	O42	0.530600	0.909500	0.851600
O431	O43	0.872800	0.189000	0.884600
O441	O44	0.395500	0.922800	0.950800
O451	O45	0.366100	0.908700	0.863700
O461	O46	0.581300	0.961000	0.931100
C611	C61	0.083400	0.164600	0.878000
O471	O47	0.071200	0.153600	0.829300
C621	C62	0.583000	0.950900	0.882400
C631	C63	0.280800	0.014400	0.918200
C641	C64	0.351800	0.947500	0.910300
C651	C65	0.654300	0.992900	0.854900
O481	O48	0.891100	0.158000	0.798800
C661	C66	0.155300	0.118000	0.903300
C671	C67	0.185100	0.118800	0.955200
H211	H21	0.161100	0.156300	0.982600
C681	C68	0.853300	0.154500	0.842200
C691	C69	0.255600	0.057300	0.963300
H221	H22	0.281600	0.047700	0.996600
C701	C70	0.779100	0.085000	0.836300
C711	C71	0.676400	0.966000	0.805600
H231	H23	0.648500	0.919200	0.782000
C721	C72	0.748700	0.021000	0.794600
H241	H24	0.772900	0.013100	0.762300
Cu71	Cu7	0.046410	0.304870	0.621470
S131	S13	0.778000	0.574000	0.609540
S141	S14	0.282700	0.538600	0.636160
O491	O49	0.461600	0.711000	0.591200
O501	O50	0.969400	0.409500	0.648400
O511	O51	0.627200	0.689000	0.615400
O521	O52	0.104500	0.422800	0.549200
O531	O53	0.133900	0.408700	0.636300
O541	O54	0.918700	0.461000	0.568900
C731	C73	0.416600	0.664600	0.622000
O551	O55	0.428800	0.653600	0.670700
C741	C74	0.917000	0.450900	0.617600
C751	C75	0.219200	0.514400	0.581800
C761	C76	0.148200	0.447500	0.589700
C771	C77	0.845700	0.492900	0.645100
O561	O56	0.608900	0.658000	0.701200
C781	C78	0.344700	0.618000	0.596700
C791	C79	0.314900	0.618800	0.544800
H251	H25	0.338900	0.656300	0.517400
C801	C80	0.646700	0.654500	0.657800
C811	C81	0.244400	0.557300	0.536700
H261	H26	0.218400	0.547700	0.503400
C821	C82	0.720900	0.585000	0.663700
C831	C83	0.823600	0.466000	0.694400
H271	H27	0.851500	0.419200	0.718000
C841	C84	0.751300	0.521000	0.705400
H281	H28	0.727100	0.513100	0.737700
Cu81	Cu8	0.546410	0.804870	0.621470
S151	S15	0.278000	0.074000	0.609540
S161	S16	0.782700	0.038600	0.636160
O571	O57	0.961600	0.211000	0.591200
O581	O58	0.469400	0.909500	0.648400
O591	O59	0.127200	0.189000	0.615400
O601	O60	0.604500	0.922800	0.549200
O611	O61	0.633900	0.908700	0.636300
O621	O62	0.418700	0.961000	0.568900
C851	C85	0.916600	0.164600	0.622000
O631	O63	0.928800	0.153600	0.670700
C861	C86	0.417000	0.950900	0.617600
C871	C87	0.719200	0.014400	0.581800
C881	C88	0.648200	0.947500	0.589700
C891	C89	0.345700	0.992900	0.645100
O641	O64	0.108900	0.158000	0.701200
C901	C90	0.844700	0.118000	0.596700
C911	C91	0.814900	0.118800	0.544800
H291	H29	0.838900	0.156300	0.517400
C921	C92	0.146700	0.154500	0.657800
C931	C93	0.744400	0.057300	0.536700
H301	H30	0.718400	0.047700	0.503400
C941	C94	0.220900	0.085000	0.663700
C951	C95	0.323600	0.966000	0.694400
H311	H31	0.351500	0.919200	0.718000
C961	C96	0.251300	0.021000	0.705400
H321	H32	0.227100	0.013100	0.737700
Ca11	Ca1	0.500000	0.359000	0.250000
Ca21	Ca2	0.000000	0.859000	0.250000
Ca31	Ca3	0.500000	0.641000	0.750000
Ca41	Ca4	0.000000	0.141000	0.750000
Ca51	Ca5	0.000000	0.500000	0.000000
Ca61	Ca6	0.500000	0.000000	0.000000
Ca71	Ca7	0.000000	0.500000	0.500000
Ca81	Ca8	0.500000	0.000000	0.500000
