data_ARAHIM_clean_PM
_symmetry_space_group_name_H-M	'P1'
_cell_length_a	9.942000
_cell_length_b	9.942000
_cell_length_c	15.764000
_cell_angle_alpha	90.000000
_cell_angle_beta	90.000000
_cell_angle_gamma	90.000000
_symmetry_Int_Tables_number 1

loop_
_symmetry_equiv_pos_as_xyz
'x,y,z'

loop_
_atom_site_label
_atom_site_type_symbol
_atom_site_fract_x
_atom_site_fract_y
_atom_site_fract_z
C11	C1	0.242100	0.160100	0.312000
H11	H1	0.239200	0.098500	0.356400
C21	C2	0.742100	0.660100	0.812000
H21	H2	0.739200	0.598500	0.856400
C31	C3	0.757900	0.839900	0.312000
H31	H3	0.760800	0.901500	0.356400
C41	C4	0.257900	0.339900	0.812000
H41	H4	0.260800	0.401500	0.856400
C51	C5	0.839900	0.242100	0.312000
H51	H5	0.901500	0.239200	0.356400
C61	C6	0.339900	0.742100	0.812000
H61	H6	0.401500	0.739200	0.856400
C71	C7	0.160100	0.757900	0.312000
H71	H7	0.098500	0.760800	0.356400
C81	C8	0.660100	0.257900	0.812000
H81	H8	0.598500	0.260800	0.856400
C91	C9	0.757900	0.160100	0.188000
H91	H9	0.760800	0.098500	0.143600
C101	C10	0.257900	0.660100	0.688000
H101	H10	0.260800	0.598500	0.643600
C111	C11	0.242100	0.839900	0.188000
H111	H11	0.239200	0.901500	0.143600
C121	C12	0.742100	0.339900	0.688000
H121	H12	0.739200	0.401500	0.643600
C131	C13	0.160100	0.242100	0.188000
H131	H13	0.098500	0.239200	0.143600
C141	C14	0.660100	0.742100	0.688000
H141	H14	0.598500	0.739200	0.643600
C151	C15	0.839900	0.757900	0.188000
H151	H15	0.901500	0.760800	0.143600
C161	C16	0.339900	0.257900	0.688000
H161	H16	0.401500	0.260800	0.643600
C171	C17	0.757900	0.839900	0.688000
H171	H17	0.760800	0.901500	0.643600
C181	C18	0.257900	0.339900	0.188000
H181	H18	0.260800	0.401500	0.143600
C191	C19	0.242100	0.160100	0.688000
H191	H19	0.239200	0.098500	0.643600
C201	C20	0.742100	0.660100	0.188000
H201	H20	0.739200	0.598500	0.143600
C211	C21	0.160100	0.757900	0.688000
H211	H21	0.098500	0.760800	0.643600
C221	C22	0.660100	0.257900	0.188000
H221	H22	0.598500	0.260800	0.143600
C231	C23	0.839900	0.242100	0.688000
H231	H23	0.901500	0.239200	0.643600
C241	C24	0.339900	0.742100	0.188000
H241	H24	0.401500	0.739200	0.143600
C251	C25	0.242100	0.839900	0.812000
H251	H25	0.239200	0.901500	0.856400
C261	C26	0.742100	0.339900	0.312000
H261	H26	0.739200	0.401500	0.356400
C271	C27	0.757900	0.160100	0.812000
H271	H27	0.760800	0.098500	0.856400
C281	C28	0.257900	0.660100	0.312000
H281	H28	0.260800	0.598500	0.356400
C291	C29	0.839900	0.757900	0.812000
H291	H29	0.901500	0.760800	0.856400
C301	C30	0.339900	0.257900	0.312000
H301	H30	0.401500	0.260800	0.356400
C311	C31	0.160100	0.242100	0.812000
H311	H31	0.098500	0.239200	0.856400
C321	C32	0.660100	0.742100	0.312000
H321	H32	0.598500	0.739200	0.356400
Nb11	Nb1	0.000000	0.000000	0.000000
Nb21	Nb2	0.500000	0.500000	0.500000
Nb31	Nb3	0.000000	0.000000	0.500000
Nb41	Nb4	0.500000	0.500000	0.000000
Ni11	Ni1	0.000000	0.000000	0.250000
Ni21	Ni2	0.500000	0.500000	0.750000
Ni31	Ni3	0.000000	0.000000	0.750000
Ni41	Ni4	0.500000	0.500000	0.250000
O11	O1	0.000000	0.000000	0.123100
F11	F1	0.000000	0.000000	0.376900
O21	O2	0.500000	0.500000	0.623100
F21	F2	0.500000	0.500000	0.876900
O31	O3	0.000000	0.000000	0.876900
F31	F3	0.000000	0.000000	0.623100
O41	O4	0.500000	0.500000	0.376900
F41	F4	0.500000	0.500000	0.123100
F51	F5	0.008000	0.190800	0.000000
F61	F6	0.508000	0.690800	0.500000
F71	F7	0.992000	0.809200	0.000000
F81	F8	0.492000	0.309200	0.500000
F91	F9	0.809200	0.008000	0.000000
F101	F10	0.309200	0.508000	0.500000
F111	F11	0.190800	0.992000	0.000000
F121	F12	0.690800	0.492000	0.500000
F131	F13	0.992000	0.190800	0.500000
F141	F14	0.492000	0.690800	0.000000
F151	F15	0.008000	0.809200	0.500000
F161	F16	0.508000	0.309200	0.000000
F171	F17	0.190800	0.008000	0.500000
F181	F18	0.690800	0.508000	0.000000
F191	F19	0.809200	0.992000	0.500000
F201	F20	0.309200	0.492000	0.000000
N11	N1	0.151400	0.151400	0.250000
N21	N2	0.651400	0.651400	0.750000
N31	N3	0.848600	0.848600	0.250000
N41	N4	0.348600	0.348600	0.750000
N51	N5	0.848600	0.151400	0.250000
N61	N6	0.348600	0.651400	0.750000
N71	N7	0.151400	0.848600	0.250000
N81	N8	0.651400	0.348600	0.750000
N91	N9	0.848600	0.848600	0.750000
N101	N10	0.348600	0.348600	0.250000
N111	N11	0.151400	0.151400	0.750000
N121	N12	0.651400	0.651400	0.250000
N131	N13	0.151400	0.848600	0.750000
N141	N14	0.651400	0.348600	0.250000
N151	N15	0.848600	0.151400	0.750000
N161	N16	0.348600	0.651400	0.250000
