data_AROFAP_clean_PM
_symmetry_space_group_name_H-M	'P1'
_cell_length_a	15.420000
_cell_length_b	15.842000
_cell_length_c	17.819000
_cell_angle_alpha	112.763000
_cell_angle_beta	112.203000
_cell_angle_gamma	95.425000
_symmetry_Int_Tables_number 1

loop_
_symmetry_equiv_pos_as_xyz
'x,y,z'

loop_
_atom_site_label
_atom_site_type_symbol
_atom_site_fract_x
_atom_site_fract_y
_atom_site_fract_z
Cd11	Cd1	0.353040	0.686240	0.958770
Cd21	Cd2	0.228230	0.449490	0.923670
Cd31	Cd3	0.592620	0.819350	0.998590
Cd41	Cd4	0.003190	0.314060	0.906860
Cd51	Cd5	0.852770	0.078000	0.848650
Cd61	Cd6	0.773940	0.895120	0.921810
H11	H1	0.500900	0.364000	0.258200
H21	H2	0.472400	0.384200	0.340100
H31	H3	0.950200	0.964800	0.666300
H41	H4	0.564100	0.240100	0.397000
H51	H5	0.571100	0.344500	0.467400
H61	H6	0.516400	0.444800	0.140800
H71	H7	0.580000	0.594400	0.597700
H81	H8	0.932700	0.602000	0.451800
H91	H9	0.933300	0.700900	0.526200
H101	H10	0.043800	0.857100	0.460500
H111	H11	0.112600	0.822700	0.529800
H121	H12	0.676300	0.484800	0.254300
H131	H13	0.658200	0.476200	0.372900
H141	H14	0.731700	0.455800	0.451900
H151	H15	0.862600	0.309700	0.583600
H161	H16	0.263200	0.616800	0.759100
H171	H17	0.731300	0.743000	0.261400
H181	H18	0.883700	0.744900	0.330800
H191	H19	0.857000	0.772100	0.414400
H201	H20	0.226400	0.682800	0.659200
H211	H21	0.622900	0.176600	0.634800
H221	H22	0.579700	0.246200	0.535900
H231	H23	0.903300	0.249700	0.687000
H241	H24	0.574500	0.694700	0.139200
H251	H25	0.638800	0.751200	0.697300
H261	H26	0.606000	0.215800	0.273200
H271	H27	0.713000	0.287000	0.345800
H281	H28	0.213200	0.156100	0.684800
H291	H29	0.306500	0.168500	0.600800
H301	H30	0.288800	0.198900	0.521300
H311	H31	0.345400	0.475400	0.776300
H321	H32	0.745300	0.072600	0.103100
H331	H33	0.447300	0.114700	0.472400
H341	H34	0.343600	0.112800	0.401800
H351	H35	0.153200	0.993500	0.578000
H361	H36	0.192300	0.015600	0.475600
H371	H37	0.223100	0.945600	0.402900
H381	H38	0.378800	0.825400	0.283300
H391	H39	0.458700	0.069100	0.594700
H401	H40	0.392200	0.966000	0.512000
H411	H41	0.761900	0.625800	0.491500
H421	H42	0.823100	0.786700	0.594500
H431	H43	0.504200	0.054900	0.222800
H441	H44	0.306100	0.315700	0.663400
H451	H45	0.889800	0.841600	0.245700
H461	H46	0.687300	0.150000	0.205400
H471	H47	0.512500	0.967200	0.638600
H481	H48	0.056700	0.900200	0.345900
H491	H49	0.432300	0.780300	0.170600
H501	H50	0.087000	0.090600	0.255800
H511	H51	0.345100	0.360200	0.201600
H521	H52	0.732200	0.283600	0.026400
H531	H53	0.936300	0.573900	0.570100
H541	H54	0.443600	0.098200	0.327600
H551	H55	0.590600	0.921500	0.752100
H561	H56	0.929200	0.012800	0.134500
H571	H57	0.613900	0.531800	0.793400
H581	H58	0.289200	0.977500	0.706100
H591	H59	0.361000	0.914200	0.805500
H601	H60	0.974800	0.598900	0.329800
H611	H61	0.080600	0.649600	0.416100
H621	H62	0.973700	0.502000	0.664000
H631	H63	0.189600	0.314000	0.086000
H641	H64	0.079200	0.538200	0.285800
H651	H65	0.583300	0.370600	0.696900
H661	H66	0.676600	0.359300	0.131700
H671	H67	0.105300	0.454500	0.157400
H681	H68	0.121100	0.775800	0.255700
H691	H69	0.016400	0.123200	0.775000
H701	H70	0.309800	0.086600	0.163900
H711	H71	0.151400	0.049600	0.056300
H721	H72	0.177400	0.698700	0.150900
C11	C1	0.602300	0.345600	0.363800
C21	C2	0.978000	0.719900	0.434100
C31	C3	0.499000	0.341800	0.302500
C41	C4	0.529700	0.566400	0.130900
C51	C5	0.005000	0.003000	0.670800
C61	C6	0.717900	0.281500	0.548100
C71	C7	0.601900	0.308200	0.430700
C81	C8	0.560400	0.505100	0.164200
C91	C9	0.629900	0.633700	0.597100
C101	C10	0.968600	0.670500	0.491700
C111	C11	0.765800	0.207900	0.672800
C121	C12	0.121300	0.554500	0.725300
C131	C13	0.044600	0.822800	0.496800
C141	C14	0.077400	0.635200	0.606800
C151	C15	0.655200	0.528600	0.232000
C161	C16	0.662300	0.449500	0.415600
C171	C17	0.813300	0.283400	0.594400
C181	C18	0.196900	0.608200	0.720900
C191	C19	0.689000	0.681100	0.235700
C201	C20	0.791300	0.163400	0.733300
C211	C21	0.047400	0.962800	0.614200
C221	C22	0.879200	0.724900	0.375700
C231	C23	0.175500	0.647600	0.662300
C241	C24	0.672300	0.205800	0.625900
C251	C25	0.645100	0.244800	0.564800
C261	C26	0.837200	0.247700	0.655500
C271	C27	0.666300	0.594500	0.534000
C281	C28	0.594300	0.652800	0.164600
C291	C29	0.665200	0.725700	0.655800
C301	C30	0.645800	0.283200	0.306000
C311	C31	0.739500	0.786300	0.659100
C321	C32	0.159100	0.117000	0.680400
C331	C33	0.332200	0.173500	0.559000
C341	C34	0.483400	0.516800	0.796200
C351	C35	0.333800	0.075800	0.498100
C361	C36	0.393000	0.454100	0.758000
C371	C37	0.680400	0.263500	0.181300
C381	C38	0.732000	0.131600	0.108900
C391	C39	0.376900	0.079700	0.436300
C401	C40	0.124600	0.019700	0.617400
C411	C41	0.786200	0.124000	0.992200
C421	C42	0.747200	0.171600	0.054000
C431	C43	0.502900	0.619100	0.862700
C441	C44	0.402400	0.965200	0.315600
C451	C45	0.225800	0.012900	0.437400
C461	C46	0.144500	0.516200	0.791800
C471	C47	0.402700	0.872400	0.269800
C481	C48	0.390600	0.028400	0.553800
C491	C49	0.394300	0.978500	0.662700
C501	C50	0.085500	0.002800	0.312400
C511	C51	0.737000	0.651700	0.534200
C521	C52	0.773800	0.747300	0.595700
C531	C53	0.442700	0.329500	0.670100
C541	C54	0.890900	0.920700	0.178300
C551	C55	0.154300	0.259000	0.798500
C561	C56	0.163100	0.516300	0.059600
C571	C57	0.477700	0.915600	0.188500
C581	C58	0.478000	0.007300	0.234500
C591	C59	0.427200	0.538600	0.055900
C601	C60	0.369500	0.358300	0.691800
C611	C61	0.930200	0.889100	0.243900
C621	C62	0.698300	0.178000	0.170100
C631	C63	0.482700	0.960000	0.674500
C641	C64	0.028800	0.927400	0.306600
C651	C65	0.436800	0.845300	0.204100
C661	C66	0.517700	0.887300	0.122300
C671	C67	0.047900	0.036800	0.250900
C681	C68	0.533800	0.875800	0.854000
C691	C69	0.782900	0.887200	0.729000
C701	C70	0.307000	0.295500	0.170900
C711	C71	0.724900	0.256200	0.063300
C721	C72	0.002500	0.582000	0.608100
C731	C73	0.441900	0.033400	0.296900
C741	C74	0.788100	0.880700	0.113500
C751	C75	0.345300	0.229900	0.194100
C761	C76	0.527700	0.930300	0.740800
C771	C77	0.952300	0.993000	0.180700
C781	C78	0.553100	0.487600	0.770500
C791	C79	0.153800	0.175600	0.059200
C801	C80	0.117300	0.157100	0.735500
C811	C81	0.138600	0.568700	0.137400
C821	C82	0.349500	0.963500	0.713300
C831	C83	0.485500	0.914100	0.788100
C841	C84	0.718500	0.618300	0.266400
C851	C85	0.393100	0.928400	0.773900
C861	C86	0.022800	0.661400	0.376900
C871	C87	0.025300	0.541200	0.665100
C881	C88	0.214000	0.268100	0.103400
C891	C89	0.090100	0.568700	0.252300
C901	C90	0.533200	0.392500	0.710400
C911	C91	0.691900	0.301200	0.126100
C921	C92	0.110600	0.520700	0.178800
C931	C93	0.086300	0.662800	0.274300
C941	C94	0.118700	0.710400	0.237300
C951	C95	0.054800	0.152200	0.983100
C961	C96	0.042100	0.097600	0.732900
C971	C97	0.285600	0.134000	0.149400
C981	C98	0.192000	0.112900	0.084900
C991	C99	0.148600	0.663000	0.172100
O11	O1	0.881700	0.180500	0.789800
O21	O2	0.725800	0.109000	0.733700
O31	O3	0.699600	0.319000	0.488300
O41	O4	0.811900	0.632600	0.329700
O51	O5	0.437400	0.244800	0.254600
O61	O6	0.066100	0.681500	0.552600
O71	O7	0.008300	0.866900	0.558500
O81	O8	0.621500	0.498300	0.474100
O91	O9	0.114200	0.298200	0.851300
O101	O10	0.143900	0.426100	0.027500
O111	O11	0.399200	0.599500	0.033100
O121	O12	0.572400	0.950700	0.120900
O131	O13	0.434700	0.647800	0.874700
O141	O14	0.498700	0.798900	0.067700
O151	O15	0.837400	0.944100	0.721400
O161	O16	0.814900	0.053800	0.990700
O171	O17	0.763200	0.918500	0.797700
O181	O18	0.225100	0.311200	0.805000
O191	O19	0.234400	0.543900	0.854100
O201	O20	0.754100	0.900500	0.046600
O211	O21	0.610700	0.854800	0.859500
O221	O22	0.731900	0.827800	0.122800
O231	O23	0.589600	0.673300	0.905900
O241	O24	0.794100	0.161300	0.938800
O251	O25	0.375500	0.457900	0.024900
O261	O26	0.019400	0.213900	0.969500
O271	O27	0.000100	0.065500	0.938300
O281	O28	0.647100	0.315700	0.242200
O291	O29	0.363500	0.982100	0.374300
O301	O30	0.429700	0.236900	0.610900
O311	O31	0.346400	0.015000	0.605500
O321	O32	0.082900	0.459000	0.789700
O331	O33	0.180800	0.049800	0.377100
O341	O34	0.495100	0.867800	0.904200
O351	O35	0.195700	0.558100	0.029000
O361	O36	0.051000	0.710700	0.334100
