data_ARUCUN_clean_PM
_symmetry_space_group_name_H-M	'P1'
_cell_length_a	10.142000
_cell_length_b	13.222000
_cell_length_c	14.872000
_cell_angle_alpha	109.018000
_cell_angle_beta	101.882000
_cell_angle_gamma	98.999000
_symmetry_Int_Tables_number 1

loop_
_symmetry_equiv_pos_as_xyz
'x,y,z'

loop_
_atom_site_label
_atom_site_type_symbol
_atom_site_fract_x
_atom_site_fract_y
_atom_site_fract_z
Co11	Co1	0.530030	0.514700	0.148430
C11	C1	0.743300	0.736800	0.261000
H11	H1	0.805800	0.693200	0.247800
C21	C2	0.796300	0.846600	0.316600
H21	H2	0.891800	0.875800	0.340200
C31	C3	0.705800	0.913700	0.337100
C41	C4	0.564900	0.863300	0.300000
H31	H3	0.499700	0.904700	0.311700
C51	C5	0.523200	0.754000	0.246800
H41	H4	0.428200	0.722400	0.224000
C61	C6	0.875600	0.094300	0.424900
C71	C7	0.978200	0.296200	0.502800
H51	H5	0.031200	0.287600	0.457900
C81	C8	0.991200	0.399500	0.569100
H61	H6	0.049600	0.460500	0.568100
C91	C9	0.915900	0.411300	0.637500
C101	C10	0.830100	0.321100	0.639000
H71	H7	0.781200	0.329400	0.686400
C111	C11	0.816600	0.219100	0.570800
H81	H8	0.757200	0.158700	0.572100
C121	C12	0.888400	0.203000	0.500100
C131	C13	0.001200	0.609900	0.731400
C141	C14	0.142200	0.621700	0.745700
H91	H9	0.179700	0.560400	0.730800
C151	C15	0.225400	0.725900	0.782200
H101	H10	0.320000	0.734700	0.788400
C161	C16	0.173500	0.818500	0.810100
C171	C17	0.029600	0.803300	0.793700
H111	H11	0.991400	0.864100	0.809400
C181	C18	0.945800	0.700200	0.754900
H121	H12	0.850300	0.690600	0.744100
C191	C19	0.272700	0.929000	0.853200
C201	C20	0.306800	0.117900	0.972000
C211	C21	0.434100	0.163400	0.963600
H131	H13	0.478300	0.120100	0.922700
C221	C22	0.493000	0.271500	0.015600
H141	H14	0.579000	0.299500	0.009100
C231	C23	0.317300	0.297100	0.082800
H151	H15	0.274300	0.342700	0.122900
C241	C24	0.251100	0.187600	0.034700
H161	H16	0.167400	0.160600	0.044900
C251	C25	0.515400	0.506700	0.311900
C261	C26	0.507600	0.502600	0.408700
C271	C27	0.612700	0.480000	0.466800
H171	H17	0.690300	0.466600	0.445300
C281	C28	0.395600	0.523200	0.442300
H181	H18	0.323700	0.539500	0.403700
C291	C29	0.975500	0.517700	0.091100
H191	H19	0.958900	0.529900	0.152500
C301	C30	0.107700	0.520500	0.081900
H201	H20	0.180200	0.534100	0.137300
C311	C31	0.134200	0.503600	0.991900
C321	C32	0.279800	0.512000	0.982500
N11	N1	0.607800	0.687900	0.224400
N21	N2	0.744500	0.025300	0.396400
N31	N3	0.232700	0.009600	0.921500
N41	N4	0.439200	0.341700	0.075400
O11	O1	0.969100	0.068000	0.390800
O21	O2	0.908600	0.510400	0.703300
O31	O3	0.381500	0.943900	0.833100
O41	O4	0.621500	0.493800	0.283100
O51	O5	0.413100	0.521800	0.257700
O61	O6	0.375200	0.544400	0.060500
O71	O7	0.296400	0.488300	0.897200
Co21	Co2	0.469970	0.485300	0.851570
C331	C33	0.256700	0.263200	0.739000
H211	H21	0.194200	0.306800	0.752200
C341	C34	0.203700	0.153400	0.683400
H221	H22	0.108200	0.124200	0.659800
C351	C35	0.294200	0.086300	0.662900
C361	C36	0.435100	0.136700	0.700000
H231	H23	0.500300	0.095300	0.688300
C371	C37	0.476800	0.246000	0.753200
H241	H24	0.571800	0.277600	0.776000
C381	C38	0.124400	0.905700	0.575100
C391	C39	0.021800	0.703800	0.497200
H251	H25	0.968800	0.712400	0.542100
C401	C40	0.008800	0.600500	0.430900
H261	H26	0.950400	0.539500	0.431900
C411	C41	0.084100	0.588700	0.362500
C421	C42	0.169900	0.678900	0.361000
H271	H27	0.218800	0.670600	0.313600
C431	C43	0.183400	0.780900	0.429200
H281	H28	0.242800	0.841300	0.427900
C441	C44	0.111600	0.797000	0.499900
C451	C45	0.998800	0.390100	0.268600
C461	C46	0.857800	0.378300	0.254300
H291	H29	0.820300	0.439600	0.269200
C471	C47	0.774600	0.274100	0.217800
H301	H30	0.680000	0.265300	0.211600
C481	C48	0.826500	0.181500	0.189900
C491	C49	0.970400	0.196700	0.206300
H311	H31	0.008600	0.135900	0.190600
C501	C50	0.054200	0.299800	0.245100
H321	H32	0.149700	0.309400	0.255900
C511	C51	0.727300	0.071000	0.146800
C521	C52	0.693200	0.882100	0.028000
C531	C53	0.565900	0.836600	0.036400
H331	H33	0.521700	0.879900	0.077300
C541	C54	0.507000	0.728500	0.984400
H341	H34	0.421000	0.700500	0.990900
C551	C55	0.682700	0.702900	0.917200
H351	H35	0.725700	0.657300	0.877100
C561	C56	0.748900	0.812400	0.965300
H361	H36	0.832600	0.839400	0.955100
C571	C57	0.484600	0.493300	0.688100
C581	C58	0.492400	0.497400	0.591300
C591	C59	0.387300	0.520000	0.533200
H371	H37	0.309700	0.533400	0.554700
C601	C60	0.604400	0.476800	0.557700
H381	H38	0.676300	0.460500	0.596300
C611	C61	0.024500	0.482300	0.908900
H391	H39	0.041100	0.470100	0.847500
C621	C62	0.892300	0.479500	0.918100
H401	H40	0.819800	0.465900	0.862700
C631	C63	0.865800	0.496400	0.008100
C641	C64	0.720200	0.488000	0.017500
N51	N5	0.392200	0.312100	0.775600
N61	N6	0.255500	0.974700	0.603600
N71	N7	0.767300	0.990400	0.078500
N81	N8	0.560800	0.658300	0.924600
O81	O8	0.030900	0.932000	0.609200
O91	O9	0.091400	0.489600	0.296700
O101	O10	0.618500	0.056100	0.166900
O111	O11	0.378500	0.506200	0.716900
O121	O12	0.586900	0.478200	0.742300
O131	O13	0.624800	0.455600	0.939500
O141	O14	0.703600	0.511700	0.102800
