data_ARUJED_clean_PM
_symmetry_space_group_name_H-M	'P1'
_cell_length_a	14.156100
_cell_length_b	10.523900
_cell_length_c	27.033000
_cell_angle_alpha	90.000000
_cell_angle_beta	100.649000
_cell_angle_gamma	90.000000
_symmetry_Int_Tables_number 1

loop_
_symmetry_equiv_pos_as_xyz
'x,y,z'

loop_
_atom_site_label
_atom_site_type_symbol
_atom_site_fract_x
_atom_site_fract_y
_atom_site_fract_z
Mn11	Mn1	0.252620	0.607630	0.489190
C11	C1	0.340800	0.475300	0.403300
C21	C2	0.305000	0.413000	0.352100
C31	C3	0.364000	0.337200	0.329600
H11	H1	0.426900	0.321800	0.345600
C41	C4	0.330100	0.284900	0.283700
H21	H2	0.370300	0.233600	0.268700
C51	C5	0.182000	0.376700	0.281100
H31	H3	0.119500	0.390800	0.264100
C61	C6	0.211000	0.430600	0.327700
H41	H4	0.168300	0.477800	0.342600
C71	C7	0.202700	0.252500	0.208900
H51	H5	0.139200	0.216700	0.207900
H61	H6	0.245000	0.184900	0.202100
C81	C8	0.197600	0.354300	0.169000
H71	H7	0.262000	0.376000	0.164400
H81	H8	0.168100	0.430200	0.179700
C91	C9	0.139400	0.307200	0.119800
H91	H9	0.173600	0.238900	0.106700
H101	H10	0.078200	0.274300	0.125400
C101	C10	0.178100	0.425100	0.047500
H111	H11	0.225300	0.364700	0.045500
C111	C11	0.164800	0.526000	0.014500
H121	H12	0.202100	0.532400	0.989700
C121	C12	0.095700	0.618800	0.018100
C131	C13	0.040000	0.600100	0.054400
H131	H13	0.991400	0.657900	0.056900
C141	C14	0.053900	0.501500	0.086100
H141	H14	0.016200	0.492700	0.110600
C151	C15	0.081000	0.730700	0.983500
C161	C16	0.431600	0.770700	0.511300
C171	C17	0.492300	0.871300	0.542500
C181	C18	0.450400	0.974400	0.561300
H151	H15	0.383800	0.980100	0.557300
C191	C19	0.507000	0.067600	0.585800
H161	H16	0.478600	0.138100	0.597700
C201	C20	0.645900	0.958900	0.576400
H171	H17	0.712600	0.953400	0.582400
C211	C21	0.591800	0.863900	0.550600
H181	H18	0.621700	0.794900	0.538500
C221	C22	0.663100	0.164700	0.619300
H191	H19	0.632200	0.246000	0.610400
H201	H20	0.725500	0.165400	0.609300
C231	C23	0.674700	0.143200	0.674900
H211	H21	0.703500	0.060400	0.683200
H221	H22	0.612000	0.143600	0.684500
C241	C24	0.737700	0.245400	0.704400
H231	H23	0.795100	0.257900	0.690100
H241	H24	0.702900	0.325200	0.702300
C251	C25	0.697700	0.173900	0.784400
H251	H25	0.633300	0.174000	0.768800
C261	C26	0.722500	0.141700	0.834200
H261	H26	0.674900	0.124700	0.852800
C271	C27	0.817400	0.134600	0.856700
C281	C28	0.885500	0.164800	0.827900
H271	H27	0.950600	0.159200	0.841700
C291	C29	0.856900	0.203000	0.778700
H281	H28	0.902600	0.227500	0.760000
C301	C30	0.846800	0.101200	0.911200
N11	N1	0.365300	0.480300	0.529300
N21	N2	0.350600	0.397300	0.556600
N31	N3	0.338300	0.315000	0.583800
N41	N4	0.139000	0.456700	0.476600
N51	N5	0.163200	0.355700	0.463000
N61	N6	0.189700	0.259000	0.451100
N71	N7	0.238900	0.306400	0.259600
N81	N8	0.122700	0.414200	0.082600
N91	N9	0.602800	0.059800	0.593100
N101	N10	0.765200	0.205300	0.758100
O11	O1	0.422300	0.444700	0.425200
O21	O2	0.285200	0.555400	0.417000
O31	O3	0.145300	0.749400	0.956400
O41	O4	0.008600	0.795700	0.983000
O51	O5	0.475100	0.698600	0.485800
O61	O6	0.343600	0.774700	0.510200
O71	O7	0.924900	0.041700	0.923700
O81	O8	0.792700	0.139700	0.938800
Mn21	Mn2	0.747380	0.107630	0.010810
C311	C31	0.659200	0.975300	0.096700
C321	C32	0.695000	0.913000	0.147900
C331	C33	0.636000	0.837200	0.170400
H291	H29	0.573100	0.821800	0.154400
C341	C34	0.669900	0.784900	0.216300
H301	H30	0.629700	0.733600	0.231300
C351	C35	0.818000	0.876700	0.218900
H311	H31	0.880500	0.890800	0.235900
C361	C36	0.789000	0.930600	0.172300
H321	H32	0.831700	0.977800	0.157400
C371	C37	0.797300	0.752500	0.291100
H331	H33	0.860800	0.716700	0.292100
H341	H34	0.755000	0.684900	0.297900
C381	C38	0.802400	0.854300	0.331000
H351	H35	0.738000	0.876000	0.335600
H361	H36	0.831900	0.930200	0.320300
C391	C39	0.860600	0.807200	0.380200
H371	H37	0.826400	0.738900	0.393300
H381	H38	0.921800	0.774300	0.374600
C401	C40	0.821900	0.925100	0.452500
H391	H39	0.774700	0.864700	0.454500
C411	C41	0.835200	0.026000	0.485500
H401	H40	0.797900	0.032400	0.510300
C421	C42	0.904300	0.118800	0.481900
C431	C43	0.960000	0.100100	0.445600
H411	H41	0.008600	0.157900	0.443100
C441	C44	0.946100	0.001500	0.413900
H421	H42	0.983800	0.992700	0.389400
C451	C45	0.919000	0.230700	0.516500
C461	C46	0.568400	0.270700	0.988700
C471	C47	0.507700	0.371300	0.957500
C481	C48	0.549600	0.474400	0.938700
H431	H43	0.616200	0.480100	0.942700
C491	C49	0.493000	0.567600	0.914200
H441	H44	0.521400	0.638100	0.902300
C501	C50	0.354100	0.458900	0.923600
H451	H45	0.287400	0.453400	0.917600
C511	C51	0.408200	0.363900	0.949400
H461	H46	0.378300	0.294900	0.961500
C521	C52	0.336900	0.664700	0.880700
H471	H47	0.367800	0.746000	0.889600
H481	H48	0.274500	0.665400	0.890700
C531	C53	0.325300	0.643200	0.825100
H491	H49	0.296500	0.560400	0.816800
H501	H50	0.388000	0.643600	0.815500
C541	C54	0.262300	0.745400	0.795600
H511	H51	0.204900	0.757900	0.809900
H521	H52	0.297100	0.825200	0.797700
C551	C55	0.302300	0.673900	0.715600
H531	H53	0.366700	0.674000	0.731200
C561	C56	0.277500	0.641700	0.665800
H541	H54	0.325100	0.624700	0.647200
C571	C57	0.182600	0.634600	0.643300
C581	C58	0.114500	0.664800	0.672100
H551	H55	0.049400	0.659200	0.658300
C591	C59	0.143100	0.703000	0.721300
H561	H56	0.097400	0.727500	0.740000
C601	C60	0.153200	0.601200	0.588800
N111	N11	0.634700	0.980300	0.970700
N121	N12	0.649400	0.897300	0.943400
N131	N13	0.661700	0.815000	0.916200
N141	N14	0.861000	0.956700	0.023400
N151	N15	0.836800	0.855700	0.037000
N161	N16	0.810300	0.759000	0.048900
N171	N17	0.761100	0.806400	0.240400
N181	N18	0.877300	0.914200	0.417400
N191	N19	0.397200	0.559800	0.906900
N201	N20	0.234800	0.705300	0.741900
O91	O9	0.577700	0.944700	0.074800
O101	O10	0.714800	0.055400	0.083000
O111	O11	0.854700	0.249400	0.543600
O121	O12	0.991400	0.295700	0.517000
O131	O13	0.524900	0.198600	0.014200
O141	O14	0.656400	0.274700	0.989800
O151	O15	0.075100	0.541700	0.576300
O161	O16	0.207300	0.639700	0.561200
Mn31	Mn3	0.747380	0.392370	0.510810
C611	C61	0.659200	0.524700	0.596700
C621	C62	0.695000	0.587000	0.647900
C631	C63	0.636000	0.662800	0.670400
H571	H57	0.573100	0.678200	0.654400
C641	C64	0.669900	0.715100	0.716300
H581	H58	0.629700	0.766400	0.731300
C651	C65	0.818000	0.623300	0.718900
H591	H59	0.880500	0.609200	0.735900
C661	C66	0.789000	0.569400	0.672300
H601	H60	0.831700	0.522200	0.657400
C671	C67	0.797300	0.747500	0.791100
H611	H61	0.860800	0.783300	0.792100
H621	H62	0.755000	0.815100	0.797900
C681	C68	0.802400	0.645700	0.831000
H631	H63	0.738000	0.624000	0.835600
H641	H64	0.831900	0.569800	0.820300
C691	C69	0.860600	0.692800	0.880200
H651	H65	0.826400	0.761100	0.893300
H661	H66	0.921800	0.725700	0.874600
C701	C70	0.821900	0.574900	0.952500
H671	H67	0.774700	0.635300	0.954500
C711	C71	0.835200	0.474000	0.985500
H681	H68	0.797900	0.467600	0.010300
C721	C72	0.904300	0.381200	0.981900
C731	C73	0.960000	0.399900	0.945600
H691	H69	0.008600	0.342100	0.943100
C741	C74	0.946100	0.498500	0.913900
H701	H70	0.983800	0.507300	0.889400
C751	C75	0.919000	0.269300	0.016500
C761	C76	0.568400	0.229300	0.488700
C771	C77	0.507700	0.128700	0.457500
C781	C78	0.549600	0.025600	0.438700
H711	H71	0.616200	0.019900	0.442700
C791	C79	0.493000	0.932400	0.414200
H721	H72	0.521400	0.861900	0.402300
C801	C80	0.354100	0.041100	0.423600
H731	H73	0.287400	0.046600	0.417600
C811	C81	0.408200	0.136100	0.449400
H741	H74	0.378300	0.205100	0.461500
C821	C82	0.336900	0.835300	0.380700
H751	H75	0.367800	0.754000	0.389600
H761	H76	0.274500	0.834600	0.390700
C831	C83	0.325300	0.856800	0.325100
H771	H77	0.296500	0.939600	0.316800
H781	H78	0.388000	0.856400	0.315500
C841	C84	0.262300	0.754600	0.295600
H791	H79	0.204900	0.742100	0.309900
H801	H80	0.297100	0.674800	0.297700
C851	C85	0.302300	0.826100	0.215600
H811	H81	0.366700	0.826000	0.231200
C861	C86	0.277500	0.858300	0.165800
H821	H82	0.325100	0.875300	0.147200
C871	C87	0.182600	0.865400	0.143300
C881	C88	0.114500	0.835200	0.172100
H831	H83	0.049400	0.840800	0.158300
C891	C89	0.143100	0.797000	0.221300
H841	H84	0.097400	0.772500	0.240000
C901	C90	0.153200	0.898800	0.088800
N211	N21	0.634700	0.519700	0.470700
N221	N22	0.649400	0.602700	0.443400
N231	N23	0.661700	0.685000	0.416200
N241	N24	0.861000	0.543300	0.523400
N251	N25	0.836800	0.644300	0.537000
N261	N26	0.810300	0.741000	0.548900
N271	N27	0.761100	0.693600	0.740400
N281	N28	0.877300	0.585800	0.917400
N291	N29	0.397200	0.940200	0.406900
N301	N30	0.234800	0.794700	0.241900
O171	O17	0.577700	0.555300	0.574800
O181	O18	0.714800	0.444600	0.583000
O191	O19	0.854700	0.250600	0.043600
O201	O20	0.991400	0.204300	0.017000
O211	O21	0.524900	0.301400	0.514200
O221	O22	0.656400	0.225300	0.489800
O231	O23	0.075100	0.958300	0.076300
O241	O24	0.207300	0.860300	0.061200
Mn41	Mn4	0.252620	0.892370	0.989190
C911	C91	0.340800	0.024700	0.903300
C921	C92	0.305000	0.087000	0.852100
C931	C93	0.364000	0.162800	0.829600
H851	H85	0.426900	0.178200	0.845600
C941	C94	0.330100	0.215100	0.783700
H861	H86	0.370300	0.266400	0.768700
C951	C95	0.182000	0.123300	0.781100
H871	H87	0.119500	0.109200	0.764100
C961	C96	0.211000	0.069400	0.827700
H881	H88	0.168300	0.022200	0.842600
C971	C97	0.202700	0.247500	0.708900
H891	H89	0.139200	0.283300	0.707900
H901	H90	0.245000	0.315100	0.702100
C981	C98	0.197600	0.145700	0.669000
H911	H91	0.262000	0.124000	0.664400
H921	H92	0.168100	0.069800	0.679700
C991	C99	0.139400	0.192800	0.619800
H931	H93	0.173600	0.261100	0.606700
H941	H94	0.078200	0.225700	0.625400
C1001	C100	0.178100	0.074900	0.547500
H951	H95	0.225300	0.135300	0.545500
C1011	C101	0.164800	0.974000	0.514500
H961	H96	0.202100	0.967600	0.489700
C1021	C102	0.095700	0.881200	0.518100
C1031	C103	0.040000	0.899900	0.554400
H971	H97	0.991400	0.842100	0.556900
C1041	C104	0.053900	0.998500	0.586100
H981	H98	0.016200	0.007300	0.610600
C1051	C105	0.081000	0.769300	0.483500
C1061	C106	0.431600	0.729300	0.011300
C1071	C107	0.492300	0.628700	0.042500
C1081	C108	0.450400	0.525600	0.061300
H991	H99	0.383800	0.519900	0.057300
C1091	C109	0.507000	0.432400	0.085800
H1001	H100	0.478600	0.361900	0.097700
C1101	C110	0.645900	0.541100	0.076400
H1011	H101	0.712600	0.546600	0.082400
C1111	C111	0.591800	0.636100	0.050600
H1021	H102	0.621700	0.705100	0.038500
C1121	C112	0.663100	0.335300	0.119300
H1031	H103	0.632200	0.254000	0.110400
H1041	H104	0.725500	0.334600	0.109300
C1131	C113	0.674700	0.356800	0.174900
H1051	H105	0.703500	0.439600	0.183200
H1061	H106	0.612000	0.356400	0.184500
C1141	C114	0.737700	0.254600	0.204400
H1071	H107	0.795100	0.242100	0.190100
H1081	H108	0.702900	0.174800	0.202300
C1151	C115	0.697700	0.326100	0.284400
H1091	H109	0.633300	0.326000	0.268800
C1161	C116	0.722500	0.358300	0.334200
H1101	H110	0.674900	0.375300	0.352800
C1171	C117	0.817400	0.365400	0.356700
C1181	C118	0.885500	0.335200	0.327900
H1111	H111	0.950600	0.340800	0.341700
C1191	C119	0.856900	0.297000	0.278700
H1121	H112	0.902600	0.272500	0.260000
C1201	C120	0.846800	0.398800	0.411200
N311	N31	0.365300	0.019700	0.029300
N321	N32	0.350600	0.102700	0.056600
N331	N33	0.338300	0.185000	0.083800
N341	N34	0.139000	0.043300	0.976600
N351	N35	0.163200	0.144300	0.963000
N361	N36	0.189700	0.241000	0.951100
N371	N37	0.238900	0.193600	0.759600
N381	N38	0.122700	0.085800	0.582600
N391	N39	0.602800	0.440200	0.093100
N401	N40	0.765200	0.294700	0.258100
O251	O25	0.422300	0.055300	0.925200
O261	O26	0.285200	0.944600	0.917000
O271	O27	0.145300	0.750600	0.456400
O281	O28	0.008600	0.704300	0.483000
O291	O29	0.475100	0.801400	0.985800
O301	O30	0.343600	0.725300	0.010200
O311	O31	0.924900	0.458300	0.423700
O321	O32	0.792700	0.360300	0.438800
Mn51	Mn5	0.500000	0.500000	0.500000
Mn61	Mn6	0.500000	0.000000	0.000000
Mn71	Mn7	0.000000	0.000000	0.000000
Mn81	Mn8	0.000000	0.500000	0.500000
