data_ARUYES_clean_PM
_symmetry_space_group_name_H-M	'P1'
_cell_length_a	7.080000
_cell_length_b	17.326500
_cell_length_c	20.786700
_cell_angle_alpha	90.000000
_cell_angle_beta	99.275200
_cell_angle_gamma	90.000000
_symmetry_Int_Tables_number 1

loop_
_symmetry_equiv_pos_as_xyz
'x,y,z'

loop_
_atom_site_label
_atom_site_type_symbol
_atom_site_fract_x
_atom_site_fract_y
_atom_site_fract_z
Na11	Na1	0.222200	0.762050	0.387800
Na21	Na2	0.277800	0.262050	0.112200
Na31	Na3	0.777800	0.237950	0.612200
Na41	Na4	0.722200	0.737950	0.887800
Bi11	Bi1	0.694530	0.769930	0.365380
Bi21	Bi2	0.805470	0.269930	0.134620
Bi31	Bi3	0.305470	0.230070	0.634620
Bi41	Bi4	0.194530	0.730070	0.865380
H11	H1	0.130400	0.910900	0.300800
H21	H2	0.573100	0.047000	0.274400
H31	H3	0.361400	0.136200	0.220500
H41	H4	0.918200	0.001000	0.246900
H51	H5	0.164700	0.725600	0.630900
H61	H6	0.714700	0.715600	0.718100
H71	H7	0.810300	0.713400	0.616700
H81	H8	0.260800	0.728900	0.530200
H91	H9	0.369600	0.410900	0.199200
H101	H10	0.926900	0.547000	0.225600
H111	H11	0.138600	0.636200	0.279500
H121	H12	0.581800	0.501000	0.253100
H131	H13	0.335300	0.225600	0.869100
H141	H14	0.785300	0.215600	0.781900
H151	H15	0.689700	0.213400	0.883300
H161	H16	0.239200	0.228900	0.969800
H171	H17	0.869600	0.089100	0.699200
H181	H18	0.426900	0.953000	0.725600
H191	H19	0.638600	0.863800	0.779500
H201	H20	0.081800	0.999000	0.753100
H211	H21	0.835300	0.274400	0.369100
H221	H22	0.285300	0.284400	0.281900
H231	H23	0.189700	0.286600	0.383300
H241	H24	0.739200	0.271100	0.469800
H251	H25	0.630400	0.589100	0.800800
H261	H26	0.073100	0.453000	0.774400
H271	H27	0.861400	0.363800	0.720500
H281	H28	0.418200	0.499000	0.746900
H291	H29	0.664700	0.774400	0.130900
H301	H30	0.214700	0.784400	0.218100
H311	H31	0.310300	0.786600	0.116700
H321	H32	0.760800	0.771100	0.030200
C11	C1	0.509800	0.910800	0.325200
C21	C2	0.373300	0.970500	0.293400
C31	C3	0.176200	0.956200	0.284800
C41	C4	0.442100	0.037800	0.269000
C51	C5	0.315700	0.091000	0.236600
C61	C6	0.049400	0.009800	0.252400
C71	C7	0.119800	0.076800	0.228200
C81	C8	0.981500	0.134400	0.192600
C91	C9	0.366100	0.722600	0.750600
C101	C10	0.429400	0.721500	0.684800
C111	C11	0.294500	0.724600	0.628100
C121	C12	0.623800	0.717800	0.680400
C131	C13	0.681000	0.717400	0.619700
C141	C14	0.351800	0.726000	0.567800
C151	C15	0.545900	0.723000	0.563000
C161	C16	0.610200	0.727500	0.497500
C171	C17	0.990200	0.410800	0.174800
C181	C18	0.126700	0.470500	0.206600
C191	C19	0.323800	0.456200	0.215200
C201	C20	0.057900	0.537800	0.231000
C211	C21	0.184300	0.591000	0.263400
C221	C22	0.450600	0.509800	0.247600
C231	C23	0.380200	0.576800	0.271800
C241	C24	0.518500	0.634400	0.307400
C251	C25	0.133900	0.222600	0.749400
C261	C26	0.070600	0.221500	0.815200
C271	C27	0.205500	0.224600	0.871900
C281	C28	0.876200	0.217800	0.819600
C291	C29	0.819000	0.217400	0.880300
C301	C30	0.148200	0.226000	0.932200
C311	C31	0.954100	0.223000	0.937000
C321	C32	0.889800	0.227500	0.002500
C331	C33	0.490200	0.089200	0.674800
C341	C34	0.626700	0.029500	0.706600
C351	C35	0.823800	0.043800	0.715200
C361	C36	0.557900	0.962200	0.731000
C371	C37	0.684300	0.909000	0.763400
C381	C38	0.950600	0.990200	0.747600
C391	C39	0.880200	0.923200	0.771800
C401	C40	0.018500	0.865600	0.807400
C411	C41	0.633900	0.277400	0.249400
C421	C42	0.570600	0.278500	0.315200
C431	C43	0.705500	0.275400	0.371900
C441	C44	0.376200	0.282200	0.319600
C451	C45	0.319000	0.282600	0.380300
C461	C46	0.648200	0.274000	0.432200
C471	C47	0.454100	0.277000	0.437000
C481	C48	0.389800	0.272500	0.502500
C491	C49	0.009800	0.589200	0.825200
C501	C50	0.873300	0.529500	0.793400
C511	C51	0.676200	0.543800	0.784800
C521	C52	0.942100	0.462200	0.769000
C531	C53	0.815700	0.409000	0.736600
C541	C54	0.549400	0.490200	0.752400
C551	C55	0.619800	0.423200	0.728200
C561	C56	0.481500	0.365600	0.692600
C571	C57	0.866100	0.777400	0.250600
C581	C58	0.929400	0.778500	0.184800
C591	C59	0.794500	0.775400	0.128100
C601	C60	0.123800	0.782200	0.180400
C611	C61	0.181000	0.782600	0.119700
C621	C62	0.851800	0.774000	0.067800
C631	C63	0.045900	0.777000	0.063000
C641	C64	0.110200	0.772500	0.997500
O11	O1	0.435710	0.845730	0.337810
O21	O2	0.684560	0.921700	0.338260
O31	O3	0.805520	0.125710	0.186120
O41	O4	0.056960	0.193920	0.168860
O51	O5	0.188060	0.719030	0.752860
O61	O6	0.489890	0.727360	0.800990
O71	O7	0.518580	0.773840	0.456380
O81	O8	0.750080	0.689700	0.486280
O91	O9	0.064290	0.345730	0.162190
O101	O10	0.815440	0.421700	0.161740
O111	O11	0.694480	0.625710	0.313880
O121	O12	0.443040	0.693920	0.331140
O131	O13	0.311940	0.219030	0.747140
O141	O14	0.010110	0.227360	0.699010
O151	O15	0.981420	0.273840	0.043620
O161	O16	0.749920	0.189700	0.013720
O171	O17	0.564290	0.154270	0.662190
O181	O18	0.315440	0.078300	0.661740
O191	O19	0.194480	0.874290	0.813880
O201	O20	0.943040	0.806080	0.831140
O211	O21	0.811940	0.280970	0.247140
O221	O22	0.510110	0.272640	0.199010
O231	O23	0.481420	0.226160	0.543620
O241	O24	0.249920	0.310300	0.513720
O251	O25	0.935710	0.654270	0.837810
O261	O26	0.184560	0.578300	0.838260
O271	O27	0.305520	0.374290	0.686120
O281	O28	0.556960	0.306080	0.668860
O291	O29	0.688060	0.780970	0.252860
O301	O30	0.989890	0.772640	0.300990
O311	O31	0.018580	0.726160	0.956380
O321	O32	0.250080	0.810300	0.986280
