data_ARUYUH_clean_PM
_symmetry_space_group_name_H-M	'P1'
_cell_length_a	9.816200
_cell_length_b	23.284000
_cell_length_c	8.930600
_cell_angle_alpha	90.000000
_cell_angle_beta	90.000000
_cell_angle_gamma	90.000000
_symmetry_Int_Tables_number 1

loop_
_symmetry_equiv_pos_as_xyz
'x,y,z'

loop_
_atom_site_label
_atom_site_type_symbol
_atom_site_fract_x
_atom_site_fract_y
_atom_site_fract_z
Zn11	Zn1	0.440510	0.546960	0.218920
P11	P1	0.287150	0.497150	0.937350
H11	H1	0.293000	0.454900	0.019000
P21	P2	0.425320	0.684440	0.263680
H21	H2	0.536000	0.708900	0.207000
O11	O1	0.325800	0.545160	0.043000
O21	O2	0.141800	0.503390	0.881500
O31	O3	0.386400	0.491180	0.809400
O41	O4	0.465200	0.623080	0.297300
O51	O5	0.313800	0.687940	0.147100
O61	O6	0.396900	0.715730	0.406900
Zn21	Zn2	0.059490	0.953040	0.218920
P31	P3	0.212850	0.002850	0.937350
H31	H3	0.207000	0.045100	0.019000
P41	P4	0.074680	0.815560	0.263680
H41	H4	0.964000	0.791100	0.207000
O71	O7	0.174200	0.954840	0.043000
O81	O8	0.358200	0.996610	0.881500
O91	O9	0.113600	0.008820	0.809400
O101	O10	0.034800	0.876920	0.297300
O111	O11	0.186200	0.812060	0.147100
O121	O12	0.103100	0.784270	0.406900
Zn31	Zn3	0.559490	0.046960	0.281080
P51	P5	0.712850	0.997150	0.562650
H51	H5	0.707000	0.954900	0.481000
P61	P6	0.574680	0.184440	0.236320
H61	H6	0.464000	0.208900	0.293000
O131	O13	0.674200	0.045160	0.457000
O141	O14	0.858200	0.003390	0.618500
O151	O15	0.613600	0.991180	0.690600
O161	O16	0.534800	0.123080	0.202700
O171	O17	0.686200	0.187940	0.352900
O181	O18	0.603100	0.215730	0.093100
Zn41	Zn4	0.940510	0.453040	0.281080
P71	P7	0.787150	0.502850	0.562650
H71	H7	0.793000	0.545100	0.481000
P81	P8	0.925320	0.315560	0.236320
H81	H8	0.036000	0.291100	0.293000
O191	O19	0.825800	0.454840	0.457000
O201	O20	0.641800	0.496610	0.618500
O211	O21	0.886400	0.508820	0.690600
O221	O22	0.965200	0.376920	0.202700
O231	O23	0.813800	0.312060	0.352900
O241	O24	0.896900	0.284270	0.093100
Zn51	Zn5	0.559490	0.453040	0.781080
P91	P9	0.712850	0.502850	0.062650
H91	H9	0.707000	0.545100	0.981000
P101	P10	0.574680	0.315560	0.736320
H101	H10	0.464000	0.291100	0.793000
O251	O25	0.674200	0.454840	0.957000
O261	O26	0.858200	0.496610	0.118500
O271	O27	0.613600	0.508820	0.190600
O281	O28	0.534800	0.376920	0.702700
O291	O29	0.686200	0.312060	0.852900
O301	O30	0.603100	0.284270	0.593100
Zn61	Zn6	0.940510	0.046960	0.781080
P111	P11	0.787150	0.997150	0.062650
H111	H11	0.793000	0.954900	0.981000
P121	P12	0.925320	0.184440	0.736320
H121	H12	0.036000	0.208900	0.793000
O311	O31	0.825800	0.045160	0.957000
O321	O32	0.641800	0.003390	0.118500
O331	O33	0.886400	0.991180	0.190600
O341	O34	0.965200	0.123080	0.702700
O351	O35	0.813800	0.187940	0.852900
O361	O36	0.896900	0.215730	0.593100
Zn71	Zn7	0.440510	0.953040	0.718920
P131	P13	0.287150	0.002850	0.437350
H131	H13	0.293000	0.045100	0.519000
P141	P14	0.425320	0.815560	0.763680
H141	H14	0.536000	0.791100	0.707000
O371	O37	0.325800	0.954840	0.543000
O381	O38	0.141800	0.996610	0.381500
O391	O39	0.386400	0.008820	0.309400
O401	O40	0.465200	0.876920	0.797300
O411	O41	0.313800	0.812060	0.647100
O421	O42	0.396900	0.784270	0.906900
Zn81	Zn8	0.059490	0.546960	0.718920
P151	P15	0.212850	0.497150	0.437350
H151	H15	0.207000	0.454900	0.519000
P161	P16	0.074680	0.684440	0.763680
H161	H16	0.964000	0.708900	0.707000
O431	O43	0.174200	0.545160	0.543000
O441	O44	0.358200	0.503390	0.381500
O451	O45	0.113600	0.491180	0.309400
O461	O46	0.034800	0.623080	0.797300
O471	O47	0.186200	0.687940	0.647100
O481	O48	0.103100	0.715730	0.906900
Zn91	Zn9	0.250000	0.750000	0.018890
Zn101	Zn10	0.750000	0.250000	0.481110
Zn111	Zn11	0.750000	0.250000	0.981110
Zn121	Zn12	0.250000	0.750000	0.518890
