data_ASACON_clean_PM
_symmetry_space_group_name_H-M	'P1'
_cell_length_a	12.056000
_cell_length_b	15.987000
_cell_length_c	15.383000
_cell_angle_alpha	90.000000
_cell_angle_beta	90.000000
_cell_angle_gamma	90.000000
_symmetry_Int_Tables_number 1

loop_
_symmetry_equiv_pos_as_xyz
'x,y,z'

loop_
_atom_site_label
_atom_site_type_symbol
_atom_site_fract_x
_atom_site_fract_y
_atom_site_fract_z
Zn11	Zn1	0.025060	0.947670	0.813240
Zn21	Zn2	0.974940	0.552330	0.813240
Zn31	Zn3	0.525060	0.552330	0.686760
Zn41	Zn4	0.474940	0.947670	0.686760
Zn51	Zn5	0.974940	0.052330	0.186760
Zn61	Zn6	0.025060	0.447670	0.186760
Zn71	Zn7	0.474940	0.447670	0.313240
Zn81	Zn8	0.525060	0.052330	0.313240
Zn91	Zn9	0.250000	0.841060	0.750000
Zn101	Zn10	0.750000	0.658940	0.750000
Zn111	Zn11	0.750000	0.158940	0.250000
Zn121	Zn12	0.250000	0.341060	0.250000
Zn131	Zn13	0.000000	0.250000	0.186360
Zn141	Zn14	0.500000	0.250000	0.313640
Zn151	Zn15	0.000000	0.750000	0.813640
Zn161	Zn16	0.500000	0.750000	0.686360
H11	H1	0.967000	0.087500	0.574300
H21	H2	0.972300	0.156000	0.444800
H31	H3	0.033000	0.412500	0.574300
H41	H4	0.027700	0.344000	0.444800
H51	H5	0.467000	0.412500	0.925700
H61	H6	0.472300	0.344000	0.055200
H71	H7	0.533000	0.087500	0.925700
H81	H8	0.527700	0.156000	0.055200
H91	H9	0.033000	0.912500	0.425700
H101	H10	0.027700	0.844000	0.555200
H111	H11	0.967000	0.587500	0.425700
H121	H12	0.972300	0.656000	0.555200
H131	H13	0.533000	0.587500	0.074300
H141	H14	0.527700	0.656000	0.944800
H151	H15	0.467000	0.912500	0.074300
H161	H16	0.472300	0.844000	0.944800
C11	C1	0.032800	0.088900	0.542900
C21	C2	0.126400	0.046800	0.575000
C31	C3	0.117100	0.993700	0.654600
C41	C4	0.226900	0.048800	0.526700
C51	C5	0.230800	0.100800	0.450200
C61	C6	0.342400	0.111200	0.406200
C71	C7	0.136600	0.140100	0.420100
C81	C8	0.133900	0.193700	0.340500
C91	C9	0.036700	0.131800	0.466600
C101	C10	0.325500	0.997600	0.552400
C111	C11	0.967200	0.411100	0.542900
C121	C12	0.873600	0.453200	0.575000
C131	C13	0.882900	0.506300	0.654600
C141	C14	0.773100	0.451200	0.526700
C151	C15	0.769200	0.399200	0.450200
C161	C16	0.657600	0.388800	0.406200
C171	C17	0.863400	0.359900	0.420100
C181	C18	0.866100	0.306300	0.340500
C191	C19	0.963300	0.368200	0.466600
C201	C20	0.674500	0.502400	0.552400
C211	C21	0.532800	0.411100	0.957100
C221	C22	0.626400	0.453200	0.925000
C231	C23	0.617100	0.506300	0.845400
C241	C24	0.726900	0.451200	0.973300
C251	C25	0.730800	0.399200	0.049800
C261	C26	0.842400	0.388800	0.093800
C271	C27	0.636600	0.359900	0.079900
C281	C28	0.633900	0.306300	0.159500
C291	C29	0.536700	0.368200	0.033400
C301	C30	0.825500	0.502400	0.947600
C311	C31	0.467200	0.088900	0.957100
C321	C32	0.373600	0.046800	0.925000
C331	C33	0.382900	0.993700	0.845400
C341	C34	0.273100	0.048800	0.973300
C351	C35	0.269200	0.100800	0.049800
C361	C36	0.157600	0.111200	0.093800
C371	C37	0.363400	0.140100	0.079900
C381	C38	0.366100	0.193700	0.159500
C391	C39	0.463300	0.131800	0.033400
C401	C40	0.174500	0.997600	0.947600
C411	C41	0.967200	0.911100	0.457100
C421	C42	0.873600	0.953200	0.425000
C431	C43	0.882900	0.006300	0.345400
C441	C44	0.773100	0.951200	0.473300
C451	C45	0.769200	0.899200	0.549800
C461	C46	0.657600	0.888800	0.593800
C471	C47	0.863400	0.859900	0.579900
C481	C48	0.866100	0.806300	0.659500
C491	C49	0.963300	0.868200	0.533400
C501	C50	0.674500	0.002400	0.447600
C511	C51	0.032800	0.588900	0.457100
C521	C52	0.126400	0.546800	0.425000
C531	C53	0.117100	0.493700	0.345400
C541	C54	0.226900	0.548800	0.473300
C551	C55	0.230800	0.600800	0.549800
C561	C56	0.342400	0.611200	0.593800
C571	C57	0.136600	0.640100	0.579900
C581	C58	0.133900	0.693700	0.659500
C591	C59	0.036700	0.631800	0.533400
C601	C60	0.325500	0.497600	0.447600
C611	C61	0.467200	0.588900	0.042900
C621	C62	0.373600	0.546800	0.075000
C631	C63	0.382900	0.493700	0.154600
C641	C64	0.273100	0.548800	0.026700
C651	C65	0.269200	0.600800	0.950200
C661	C66	0.157600	0.611200	0.906200
C671	C67	0.363400	0.640100	0.920100
C681	C68	0.366100	0.693700	0.840500
C691	C69	0.463300	0.631800	0.966600
C701	C70	0.174500	0.497600	0.052400
C711	C71	0.532800	0.911100	0.042900
C721	C72	0.626400	0.953200	0.075000
C731	C73	0.617100	0.006300	0.154600
C741	C74	0.726900	0.951200	0.026700
C751	C75	0.730800	0.899200	0.950200
C761	C76	0.842400	0.888800	0.906200
C771	C77	0.636600	0.859900	0.920100
C781	C78	0.633900	0.806300	0.840500
C791	C79	0.536700	0.868200	0.966600
C801	C80	0.825500	0.002400	0.052400
O11	O1	0.037100	0.011200	0.705300
O21	O2	0.186500	0.939000	0.667100
O31	O3	0.342300	0.930500	0.516100
O41	O4	0.387200	0.028000	0.612000
O51	O5	0.372400	0.050200	0.358600
O61	O6	0.394900	0.176300	0.417600
O71	O7	0.194700	0.258100	0.342800
O81	O8	0.069800	0.173400	0.280300
O91	O9	0.390600	0.843400	0.672800
O101	O10	0.962900	0.488800	0.705300
O111	O11	0.813500	0.561000	0.667100
O121	O12	0.657700	0.569500	0.516100
O131	O13	0.612800	0.472000	0.612000
O141	O14	0.627600	0.449800	0.358600
O151	O15	0.605100	0.323700	0.417600
O161	O16	0.805300	0.241900	0.342800
O171	O17	0.930200	0.326600	0.280300
O181	O18	0.609400	0.656600	0.672800
O191	O19	0.537100	0.488800	0.794700
O201	O20	0.686500	0.561000	0.832900
O211	O21	0.842300	0.569500	0.983900
O221	O22	0.887200	0.472000	0.888000
O231	O23	0.872400	0.449800	0.141400
O241	O24	0.894900	0.323700	0.082400
O251	O25	0.694700	0.241900	0.157200
O261	O26	0.569800	0.326600	0.219700
O271	O27	0.890600	0.656600	0.827200
O281	O28	0.462900	0.011200	0.794700
O291	O29	0.313500	0.939000	0.832900
O301	O30	0.157700	0.930500	0.983900
O311	O31	0.112800	0.028000	0.888000
O321	O32	0.127600	0.050200	0.141400
O331	O33	0.105100	0.176300	0.082400
O341	O34	0.305300	0.258100	0.157200
O351	O35	0.430200	0.173400	0.219700
O361	O36	0.109400	0.843400	0.827200
O371	O37	0.962900	0.988800	0.294700
O381	O38	0.813500	0.061000	0.332900
O391	O39	0.657700	0.069500	0.483900
O401	O40	0.612800	0.972000	0.388000
O411	O41	0.627600	0.949800	0.641400
O421	O42	0.605100	0.823700	0.582400
O431	O43	0.805300	0.741900	0.657200
O441	O44	0.930200	0.826600	0.719700
O451	O45	0.609400	0.156600	0.327200
O461	O46	0.037100	0.511200	0.294700
O471	O47	0.186500	0.439000	0.332900
O481	O48	0.342300	0.430500	0.483900
O491	O49	0.387200	0.528000	0.388000
O501	O50	0.372400	0.550200	0.641400
O511	O51	0.394900	0.676300	0.582400
O521	O52	0.194700	0.758100	0.657200
O531	O53	0.069800	0.673400	0.719700
O541	O54	0.390600	0.343400	0.327200
O551	O55	0.462900	0.511200	0.205300
O561	O56	0.313500	0.439000	0.167100
O571	O57	0.157700	0.430500	0.016100
O581	O58	0.112800	0.528000	0.112000
O591	O59	0.127600	0.550200	0.858600
O601	O60	0.105100	0.676300	0.917600
O611	O61	0.305300	0.758100	0.842800
O621	O62	0.430200	0.673400	0.780300
O631	O63	0.109400	0.343400	0.172800
O641	O64	0.537100	0.988800	0.205300
O651	O65	0.686500	0.061000	0.167100
O661	O66	0.842300	0.069500	0.016100
O671	O67	0.887200	0.972000	0.112000
O681	O68	0.872400	0.949800	0.858600
O691	O69	0.894900	0.823700	0.917600
O701	O70	0.694700	0.741900	0.842800
O711	O71	0.569800	0.826600	0.780300
O721	O72	0.890600	0.156600	0.172800
