data_ASIRUR_clean_PM
_symmetry_space_group_name_H-M	'P1'
_cell_length_a	10.893000
_cell_length_b	6.618000
_cell_length_c	17.337000
_cell_angle_alpha	90.000000
_cell_angle_beta	106.885000
_cell_angle_gamma	90.000000
_symmetry_Int_Tables_number 1

loop_
_symmetry_equiv_pos_as_xyz
'x,y,z'

loop_
_atom_site_label
_atom_site_type_symbol
_atom_site_fract_x
_atom_site_fract_y
_atom_site_fract_z
Mn11	Mn1	0.468590	0.496770	0.087390
O11	O1	0.273400	0.352800	0.038200
O21	O2	0.348500	0.038500	0.060100
O31	O3	0.362800	0.145400	0.338100
O41	O4	0.359900	0.454400	0.386200
O51	O5	0.562400	0.312700	0.018600
H11	H1	0.654500	0.312800	0.046700
C11	C1	0.257400	0.165700	0.041400
C21	C2	0.123600	0.081800	0.022200
C31	C3	0.033800	0.150700	0.059900
C41	C4	0.072100	0.297900	0.128300
C51	C5	0.171700	0.247300	0.196600
H21	H2	0.211100	0.121800	0.199000
C61	C6	0.213500	0.379800	0.261200
C71	C7	0.153600	0.568500	0.256400
H31	H3	0.180700	0.659500	0.298900
C81	C8	0.054400	0.620900	0.189100
H41	H4	0.016100	0.747400	0.186300
C91	C9	0.011400	0.483700	0.125200
H51	H5	0.942500	0.517000	0.081000
C101	C10	0.322600	0.322000	0.334500
C111	C11	0.087700	0.930300	0.963300
H61	H6	0.148100	0.883100	0.939200
Mn21	Mn2	0.531410	0.996770	0.412610
O61	O6	0.726600	0.852800	0.461800
O71	O7	0.651500	0.538500	0.439900
O81	O8	0.637200	0.645400	0.161900
O91	O9	0.640100	0.954400	0.113800
O101	O10	0.437600	0.812700	0.481400
H71	H7	0.345500	0.812800	0.453300
C121	C12	0.742600	0.665700	0.458600
C131	C13	0.876400	0.581800	0.477800
C141	C14	0.966200	0.650700	0.440100
C151	C15	0.927900	0.797900	0.371700
C161	C16	0.828300	0.747300	0.303400
H81	H8	0.788900	0.621800	0.301000
C171	C17	0.786500	0.879800	0.238800
C181	C18	0.846400	0.068500	0.243600
H91	H9	0.819300	0.159500	0.201100
C191	C19	0.945600	0.120900	0.310900
H101	H10	0.983900	0.247400	0.313700
C201	C20	0.988600	0.983700	0.374800
H111	H11	0.057500	0.017000	0.419000
C211	C21	0.677400	0.822000	0.165500
C221	C22	0.912300	0.430300	0.536700
H121	H12	0.851900	0.383100	0.560800
Mn31	Mn3	0.531410	0.503230	0.912610
O111	O11	0.726600	0.647200	0.961800
O121	O12	0.651500	0.961500	0.939900
O131	O13	0.637200	0.854600	0.661900
O141	O14	0.640100	0.545600	0.613800
O151	O15	0.437600	0.687300	0.981400
H131	H13	0.345500	0.687200	0.953300
C231	C23	0.742600	0.834300	0.958600
C241	C24	0.876400	0.918200	0.977800
C251	C25	0.966200	0.849300	0.940100
C261	C26	0.927900	0.702100	0.871700
C271	C27	0.828300	0.752700	0.803400
H141	H14	0.788900	0.878200	0.801000
C281	C28	0.786500	0.620200	0.738800
C291	C29	0.846400	0.431500	0.743600
H151	H15	0.819300	0.340500	0.701100
C301	C30	0.945600	0.379100	0.810900
H161	H16	0.983900	0.252600	0.813700
C311	C31	0.988600	0.516300	0.874800
H171	H17	0.057500	0.483000	0.919000
C321	C32	0.677400	0.678000	0.665500
C331	C33	0.912300	0.069700	0.036700
H181	H18	0.851900	0.116900	0.060800
Mn41	Mn4	0.468590	0.003230	0.587390
O161	O16	0.273400	0.147200	0.538200
O171	O17	0.348500	0.461500	0.560100
O181	O18	0.362800	0.354600	0.838100
O191	O19	0.359900	0.045600	0.886200
O201	O20	0.562400	0.187300	0.518600
H191	H19	0.654500	0.187200	0.546700
C341	C34	0.257400	0.334300	0.541400
C351	C35	0.123600	0.418200	0.522200
C361	C36	0.033800	0.349300	0.559900
C371	C37	0.072100	0.202100	0.628300
C381	C38	0.171700	0.252700	0.696600
H201	H20	0.211100	0.378200	0.699000
C391	C39	0.213500	0.120200	0.761200
C401	C40	0.153600	0.931500	0.756400
H211	H21	0.180700	0.840500	0.798900
C411	C41	0.054400	0.879100	0.689100
H221	H22	0.016100	0.752600	0.686300
C421	C42	0.011400	0.016300	0.625200
H231	H23	0.942500	0.983000	0.581000
C431	C43	0.322600	0.178000	0.834500
C441	C44	0.087700	0.569700	0.463300
H241	H24	0.148100	0.616900	0.439200
Mn51	Mn5	0.500000	0.000000	0.000000
Mn61	Mn6	0.500000	0.500000	0.500000
