data_ASOSUY_clean_PM
_symmetry_space_group_name_H-M	'P1'
_cell_length_a	18.518500
_cell_length_b	18.518500
_cell_length_c	19.121500
_cell_angle_alpha	90.000000
_cell_angle_beta	90.000000
_cell_angle_gamma	120.000000
_symmetry_Int_Tables_number 1

loop_
_symmetry_equiv_pos_as_xyz
'x,y,z'

loop_
_atom_site_label
_atom_site_type_symbol
_atom_site_fract_x
_atom_site_fract_y
_atom_site_fract_z
O11	O1	0.439490	0.029180	0.089880
O21	O2	0.480690	0.109630	0.994660
C11	C1	0.364400	0.117900	0.142110
H11	H1	0.346900	0.064600	0.161900
H21	H2	0.163900	0.165500	0.208200
C21	C2	0.417900	0.144370	0.084940
C31	C3	0.448500	0.090000	0.054020
O31	O3	0.970820	0.410310	0.089880
O41	O4	0.890370	0.371060	0.994660
C41	C4	0.882100	0.246500	0.142110
H31	H3	0.935400	0.282300	0.161900
H41	H4	0.834500	0.998400	0.208200
C51	C5	0.855630	0.273530	0.084940
C61	C6	0.910000	0.358500	0.054020
O51	O5	0.589690	0.560510	0.089880
O61	O6	0.628940	0.519310	0.994660
C71	C7	0.753500	0.635600	0.142110
H51	H5	0.717700	0.653100	0.161900
H61	H6	0.001600	0.836100	0.208200
C81	C8	0.726470	0.582100	0.084940
C91	C9	0.641500	0.551500	0.054020
O71	O7	0.560510	0.970820	0.589880
O81	O8	0.519310	0.890370	0.494660
C101	C10	0.635600	0.882100	0.642110
H71	H7	0.653100	0.935400	0.661900
H81	H8	0.836100	0.834500	0.708200
C111	C11	0.582100	0.855630	0.584940
C121	C12	0.551500	0.910000	0.554020
O91	O9	0.029180	0.589690	0.589880
O101	O10	0.109630	0.628940	0.494660
C131	C13	0.117900	0.753500	0.642110
H91	H9	0.064600	0.717700	0.661900
H101	H10	0.165500	0.001600	0.708200
C141	C14	0.144370	0.726470	0.584940
C151	C15	0.090000	0.641500	0.554020
O111	O11	0.410310	0.439490	0.589880
O121	O12	0.371060	0.480690	0.494660
C161	C16	0.246500	0.364400	0.642110
H111	H11	0.282300	0.346900	0.661900
H121	H12	0.998400	0.163900	0.708200
C171	C17	0.273530	0.417900	0.584940
C181	C18	0.358500	0.448500	0.554020
O131	O13	0.029180	0.439490	0.910120
O141	O14	0.109630	0.480690	0.005340
C191	C19	0.117900	0.364400	0.857890
H131	H13	0.064600	0.346900	0.838100
H141	H14	0.165500	0.163900	0.791800
C201	C20	0.144370	0.417900	0.915060
C211	C21	0.090000	0.448500	0.945980
O151	O15	0.410310	0.970820	0.910120
O161	O16	0.371060	0.890370	0.005340
C221	C22	0.246500	0.882100	0.857890
H151	H15	0.282300	0.935400	0.838100
H161	H16	0.998400	0.834500	0.791800
C231	C23	0.273530	0.855630	0.915060
C241	C24	0.358500	0.910000	0.945980
O171	O17	0.560510	0.589690	0.910120
O181	O18	0.519310	0.628940	0.005340
C251	C25	0.635600	0.753500	0.857890
H171	H17	0.653100	0.717700	0.838100
H181	H18	0.836100	0.001600	0.791800
C261	C26	0.582100	0.726470	0.915060
C271	C27	0.551500	0.641500	0.945980
O191	O19	0.970820	0.560510	0.410120
O201	O20	0.890370	0.519310	0.505340
C281	C28	0.882100	0.635600	0.357890
H191	H19	0.935400	0.653100	0.338100
H201	H20	0.834500	0.836100	0.291800
C291	C29	0.855630	0.582100	0.415060
C301	C30	0.910000	0.551500	0.445980
O211	O21	0.589690	0.029180	0.410120
O221	O22	0.628940	0.109630	0.505340
C311	C31	0.753500	0.117900	0.357890
H211	H21	0.717700	0.064600	0.338100
H221	H22	0.001600	0.165500	0.291800
C321	C32	0.726470	0.144370	0.415060
C331	C33	0.641500	0.090000	0.445980
O231	O23	0.439490	0.410310	0.410120
O241	O24	0.480690	0.371060	0.505340
C341	C34	0.364400	0.246500	0.357890
H231	H23	0.346900	0.282300	0.338100
H241	H24	0.163900	0.998400	0.291800
C351	C35	0.417900	0.273530	0.415060
C361	C36	0.448500	0.358500	0.445980
O251	O25	0.560510	0.970820	0.910120
O261	O26	0.519310	0.890370	0.005340
C371	C37	0.635600	0.882100	0.857890
H251	H25	0.653100	0.935400	0.838100
H261	H26	0.836100	0.834500	0.791800
C381	C38	0.582100	0.855630	0.915060
C391	C39	0.551500	0.910000	0.945980
O271	O27	0.029180	0.589690	0.910120
O281	O28	0.109630	0.628940	0.005340
C401	C40	0.117900	0.753500	0.857890
H271	H27	0.064600	0.717700	0.838100
H281	H28	0.165500	0.001600	0.791800
C411	C41	0.144370	0.726470	0.915060
C421	C42	0.090000	0.641500	0.945980
O291	O29	0.410310	0.439490	0.910120
O301	O30	0.371060	0.480690	0.005340
C431	C43	0.246500	0.364400	0.857890
H291	H29	0.282300	0.346900	0.838100
H301	H30	0.998400	0.163900	0.791800
C441	C44	0.273530	0.417900	0.915060
C451	C45	0.358500	0.448500	0.945980
O311	O31	0.439490	0.029180	0.410120
O321	O32	0.480690	0.109630	0.505340
C461	C46	0.364400	0.117900	0.357890
H311	H31	0.346900	0.064600	0.338100
H321	H32	0.163900	0.165500	0.291800
C471	C47	0.417900	0.144370	0.415060
C481	C48	0.448500	0.090000	0.445980
O331	O33	0.970820	0.410310	0.410120
O341	O34	0.890370	0.371060	0.505340
C491	C49	0.882100	0.246500	0.357890
H331	H33	0.935400	0.282300	0.338100
H341	H34	0.834500	0.998400	0.291800
C501	C50	0.855630	0.273530	0.415060
C511	C51	0.910000	0.358500	0.445980
O351	O35	0.589690	0.560510	0.410120
O361	O36	0.628940	0.519310	0.505340
C521	C52	0.753500	0.635600	0.357890
H351	H35	0.717700	0.653100	0.338100
H361	H36	0.001600	0.836100	0.291800
C531	C53	0.726470	0.582100	0.415060
C541	C54	0.641500	0.551500	0.445980
O371	O37	0.970820	0.560510	0.089880
O381	O38	0.890370	0.519310	0.994660
C551	C55	0.882100	0.635600	0.142110
H371	H37	0.935400	0.653100	0.161900
H381	H38	0.834500	0.836100	0.208200
C561	C56	0.855630	0.582100	0.084940
C571	C57	0.910000	0.551500	0.054020
O391	O39	0.589690	0.029180	0.089880
O401	O40	0.628940	0.109630	0.994660
C581	C58	0.753500	0.117900	0.142110
H391	H39	0.717700	0.064600	0.161900
H401	H40	0.001600	0.165500	0.208200
C591	C59	0.726470	0.144370	0.084940
C601	C60	0.641500	0.090000	0.054020
O411	O41	0.439490	0.410310	0.089880
O421	O42	0.480690	0.371060	0.994660
C611	C61	0.364400	0.246500	0.142110
H411	H41	0.346900	0.282300	0.161900
H421	H42	0.163900	0.998400	0.208200
C621	C62	0.417900	0.273530	0.084940
C631	C63	0.448500	0.358500	0.054020
O431	O43	0.029180	0.439490	0.589880
O441	O44	0.109630	0.480690	0.494660
C641	C64	0.117900	0.364400	0.642110
H431	H43	0.064600	0.346900	0.661900
H441	H44	0.165500	0.163900	0.708200
C651	C65	0.144370	0.417900	0.584940
C661	C66	0.090000	0.448500	0.554020
O451	O45	0.410310	0.970820	0.589880
O461	O46	0.371060	0.890370	0.494660
C671	C67	0.246500	0.882100	0.642110
H451	H45	0.282300	0.935400	0.661900
H461	H46	0.998400	0.834500	0.708200
C681	C68	0.273530	0.855630	0.584940
C691	C69	0.358500	0.910000	0.554020
O471	O47	0.560510	0.589690	0.589880
O481	O48	0.519310	0.628940	0.494660
C701	C70	0.635600	0.753500	0.642110
H471	H47	0.653100	0.717700	0.661900
H481	H48	0.836100	0.001600	0.708200
C711	C71	0.582100	0.726470	0.584940
C721	C72	0.551500	0.641500	0.554020
Cu11	Cu1	0.476420	0.952840	0.056260
Cu21	Cu2	0.047160	0.523580	0.056260
Cu31	Cu3	0.476420	0.523580	0.056260
Cu41	Cu4	0.523580	0.047160	0.556260
Cu51	Cu5	0.952840	0.476420	0.556260
Cu61	Cu6	0.523580	0.476420	0.556260
Cu71	Cu7	0.952840	0.476420	0.943740
Cu81	Cu8	0.523580	0.047160	0.943740
Cu91	Cu9	0.523580	0.476420	0.943740
Cu101	Cu10	0.047160	0.523580	0.443740
Cu111	Cu11	0.476420	0.952840	0.443740
Cu121	Cu12	0.476420	0.523580	0.443740
Si11	Si1	0.265650	0.132830	0.250000
Si21	Si2	0.867180	0.132820	0.250000
Si31	Si3	0.867180	0.734350	0.250000
Si41	Si4	0.734350	0.867180	0.750000
Si51	Si5	0.132830	0.867180	0.750000
Si61	Si6	0.132830	0.265650	0.750000
C731	C73	0.336000	0.168000	0.170900
C741	C74	0.442900	0.221450	0.056100
H491	H49	0.477600	0.238800	0.015900
C751	C75	0.832000	0.168000	0.170900
C761	C76	0.778550	0.221450	0.056100
H501	H50	0.761200	0.238800	0.015900
C771	C77	0.832000	0.664000	0.170900
C781	C78	0.778550	0.557100	0.056100
H511	H51	0.761200	0.522400	0.015900
C791	C79	0.664000	0.832000	0.670900
C801	C80	0.557100	0.778550	0.556100
H521	H52	0.522400	0.761200	0.515900
C811	C81	0.168000	0.832000	0.670900
C821	C82	0.221450	0.778550	0.556100
H531	H53	0.238800	0.761200	0.515900
C831	C83	0.168000	0.336000	0.670900
C841	C84	0.221450	0.442900	0.556100
H541	H54	0.238800	0.477600	0.515900
C851	C85	0.168000	0.336000	0.829100
C861	C86	0.221450	0.442900	0.943900
H551	H55	0.238800	0.477600	0.984100
C871	C87	0.168000	0.832000	0.829100
C881	C88	0.221450	0.778550	0.943900
H561	H56	0.238800	0.761200	0.984100
C891	C89	0.664000	0.832000	0.829100
C901	C90	0.557100	0.778550	0.943900
H571	H57	0.522400	0.761200	0.984100
C911	C91	0.832000	0.664000	0.329100
C921	C92	0.778550	0.557100	0.443900
H581	H58	0.761200	0.522400	0.484100
C931	C93	0.832000	0.168000	0.329100
C941	C94	0.778550	0.221450	0.443900
H591	H59	0.761200	0.238800	0.484100
C951	C95	0.336000	0.168000	0.329100
C961	C96	0.442900	0.221450	0.443900
H601	H60	0.477600	0.238800	0.484100
C971	C97	0.199200	0.182800	0.250000
H611	H61	0.234900	0.243600	0.250000
C981	C98	0.817200	0.016400	0.250000
H621	H62	0.756400	0.991300	0.250000
C991	C99	0.983600	0.800800	0.250000
H631	H63	0.008700	0.765100	0.250000
C1001	C100	0.800800	0.817200	0.750000
H641	H64	0.765100	0.756400	0.750000
C1011	C101	0.182800	0.983600	0.750000
H651	H65	0.243600	0.008700	0.750000
C1021	C102	0.016400	0.199200	0.750000
H661	H66	0.991300	0.234900	0.750000
C1031	C103	0.182800	0.199200	0.750000
H671	H67	0.243600	0.234900	0.750000
C1041	C104	0.016400	0.817200	0.750000
H681	H68	0.991300	0.756400	0.750000
C1051	C105	0.800800	0.983600	0.750000
H691	H69	0.765100	0.008700	0.750000
C1061	C106	0.817200	0.800800	0.250000
H701	H70	0.756400	0.765100	0.250000
C1071	C107	0.983600	0.182800	0.250000
H711	H71	0.008700	0.243600	0.250000
C1081	C108	0.199200	0.016400	0.250000
H721	H72	0.234900	0.991300	0.250000
