data_ASUJIJ_clean_PM
_symmetry_space_group_name_H-M	'P1'
_cell_length_a	19.377000
_cell_length_b	16.277000
_cell_length_c	10.720000
_cell_angle_alpha	90.000000
_cell_angle_beta	101.384000
_cell_angle_gamma	90.000000
_symmetry_Int_Tables_number 1

loop_
_symmetry_equiv_pos_as_xyz
'x,y,z'

loop_
_atom_site_label
_atom_site_type_symbol
_atom_site_fract_x
_atom_site_fract_y
_atom_site_fract_z
Zn11	Zn1	0.010630	0.658560	0.047940
Zn21	Zn2	0.499050	0.653120	0.018720
C11	C1	0.023620	0.777200	0.285500
N11	N1	0.021970	0.763900	0.407100
C21	C2	0.021500	0.858500	0.221700
H11	H1	0.993100	0.895500	0.261700
H21	H2	0.998000	0.852100	0.133600
N21	N2	0.022900	0.681800	0.423200
C31	C3	0.145900	0.855000	0.198900
H31	H3	0.141800	0.798600	0.186200
N31	N3	0.024000	0.646300	0.314900
C41	C4	0.207700	0.893900	0.191100
H41	H4	0.245400	0.863200	0.174500
N41	N4	0.024180	0.705200	0.225400
C51	C5	0.215200	0.978300	0.207300
N51	N5	0.497970	0.227240	0.329400
C61	C6	0.157700	0.020800	0.235800
H51	H5	0.160600	0.077200	0.249000
N61	N6	0.522240	0.304200	0.356400
C71	C7	0.096900	0.979600	0.244500
H61	H6	0.059100	0.008500	0.264200
N71	N7	0.526400	0.341300	0.251000
C81	C8	0.281500	0.022300	0.194700
N81	N8	0.504430	0.289220	0.152500
C91	C9	0.345300	0.981200	0.207500
H71	H7	0.348100	0.925600	0.227900
N91	N9	0.091300	0.897630	0.224700
C101	C10	0.799580	0.461300	0.934200
O11	O1	0.919050	0.610120	0.051200
C111	C11	0.732200	0.430700	0.931500
H81	H8	0.723400	0.375100	0.916700
O21	O2	0.899740	0.590800	0.843400
C121	C12	0.677580	0.482100	0.950800
O31	O3	0.644630	0.696690	0.008800
C131	C13	0.691650	0.565200	0.976900
O41	O4	0.581850	0.585700	0.032800
C141	C14	0.758970	0.596200	0.976200
H91	H9	0.767800	0.651900	0.990200
O51	O5	0.562010	0.457160	0.835600
C151	C15	0.812740	0.544900	0.954800
O61	O6	0.595060	0.394770	0.021300
C161	C16	0.856900	0.401700	0.920900
O71	O7	0.841990	0.334300	0.873200
C171	C17	0.605400	0.444200	0.934100
O81	O8	0.919440	0.424590	0.965300
C181	C18	0.635950	0.621700	0.006700
C191	C19	0.404200	0.022400	0.190100
H101	H10	0.446700	0.994400	0.198900
N101	N10	0.401560	0.102760	0.160300
C201	C20	0.341400	0.144800	0.153100
H111	H11	0.340200	0.200700	0.134600
C211	C21	0.281500	0.106100	0.172900
H121	H12	0.240700	0.136400	0.171500
C221	C22	0.464000	0.144100	0.126900
H131	H13	0.453100	0.158800	0.037500
H141	H14	0.502800	0.105400	0.138900
C231	C23	0.487100	0.219800	0.203400
C241	C24	0.883400	0.583300	0.948300
Zn31	Zn3	0.989370	0.158560	0.452060
Zn41	Zn4	0.500950	0.153120	0.481280
C251	C25	0.976380	0.277200	0.214500
N111	N11	0.978030	0.263900	0.092900
C261	C26	0.978500	0.358500	0.278300
H151	H15	0.006900	0.395500	0.238300
H161	H16	0.002000	0.352100	0.366400
N121	N12	0.977100	0.181800	0.076800
C271	C27	0.854100	0.355000	0.301100
H171	H17	0.858200	0.298600	0.313800
N131	N13	0.976000	0.146300	0.185100
C281	C28	0.792300	0.393900	0.308900
H181	H18	0.754600	0.363200	0.325500
N141	N14	0.975820	0.205200	0.274600
C291	C29	0.784800	0.478300	0.292700
N151	N15	0.502030	0.727240	0.170600
C301	C30	0.842300	0.520800	0.264200
H191	H19	0.839400	0.577200	0.251000
N161	N16	0.477760	0.804200	0.143600
C311	C31	0.903100	0.479600	0.255500
H201	H20	0.940900	0.508500	0.235800
N171	N17	0.473600	0.841300	0.249000
C321	C32	0.718500	0.522300	0.305300
N181	N18	0.495570	0.789220	0.347500
C331	C33	0.654700	0.481200	0.292500
H211	H21	0.651900	0.425600	0.272100
N191	N19	0.908700	0.397630	0.275300
C341	C34	0.200420	0.961300	0.565800
O91	O9	0.080950	0.110120	0.448800
C351	C35	0.267800	0.930700	0.568500
H221	H22	0.276600	0.875100	0.583300
O101	O10	0.100260	0.090800	0.656600
C361	C36	0.322420	0.982100	0.549200
O111	O11	0.355370	0.196690	0.491200
C371	C37	0.308350	0.065200	0.523100
O121	O12	0.418150	0.085700	0.467200
C381	C38	0.241030	0.096200	0.523800
H231	H23	0.232200	0.151900	0.509800
O131	O13	0.437990	0.957160	0.664400
C391	C39	0.187260	0.044900	0.545200
O141	O14	0.404940	0.894770	0.478700
C401	C40	0.143100	0.901700	0.579100
O151	O15	0.158010	0.834300	0.626800
C411	C41	0.394600	0.944200	0.565900
O161	O16	0.080560	0.924590	0.534700
C421	C42	0.364050	0.121700	0.493300
C431	C43	0.595800	0.522400	0.309900
H241	H24	0.553300	0.494400	0.301100
N201	N20	0.598440	0.602760	0.339700
C441	C44	0.658600	0.644800	0.346900
H251	H25	0.659800	0.700700	0.365400
C451	C45	0.718500	0.606100	0.327100
H261	H26	0.759300	0.636400	0.328500
C461	C46	0.536000	0.644100	0.373100
H271	H27	0.546900	0.658800	0.462500
H281	H28	0.497200	0.605400	0.361100
C471	C47	0.512900	0.719800	0.296600
C481	C48	0.116600	0.083300	0.551700
Zn51	Zn5	0.989370	0.341440	0.952060
Zn61	Zn6	0.500950	0.346880	0.981280
C491	C49	0.976380	0.222800	0.714500
N211	N21	0.978030	0.236100	0.592900
C501	C50	0.978500	0.141500	0.778300
H291	H29	0.006900	0.104500	0.738300
H301	H30	0.002000	0.147900	0.866400
N221	N22	0.977100	0.318200	0.576800
C511	C51	0.854100	0.145000	0.801100
H311	H31	0.858200	0.201400	0.813800
N231	N23	0.976000	0.353700	0.685100
C521	C52	0.792300	0.106100	0.808900
H321	H32	0.754600	0.136800	0.825500
N241	N24	0.975820	0.294800	0.774600
C531	C53	0.784800	0.021700	0.792700
N251	N25	0.502030	0.772760	0.670600
C541	C54	0.842300	0.979200	0.764200
H331	H33	0.839400	0.922800	0.751000
N261	N26	0.477760	0.695800	0.643600
C551	C55	0.903100	0.020400	0.755500
H341	H34	0.940900	0.991500	0.735800
N271	N27	0.473600	0.658700	0.749000
C561	C56	0.718500	0.977700	0.805300
N281	N28	0.495570	0.710780	0.847500
C571	C57	0.654700	0.018800	0.792500
H351	H35	0.651900	0.074400	0.772100
N291	N29	0.908700	0.102370	0.775300
C581	C58	0.200420	0.538700	0.065800
O171	O17	0.080950	0.389880	0.948800
C591	C59	0.267800	0.569300	0.068500
H361	H36	0.276600	0.624900	0.083300
O181	O18	0.100260	0.409200	0.156600
C601	C60	0.322420	0.517900	0.049200
O191	O19	0.355370	0.303310	0.991200
C611	C61	0.308350	0.434800	0.023100
O201	O20	0.418150	0.414300	0.967200
C621	C62	0.241030	0.403800	0.023800
H371	H37	0.232200	0.348100	0.009800
O211	O21	0.437990	0.542840	0.164400
C631	C63	0.187260	0.455100	0.045200
O221	O22	0.404940	0.605230	0.978700
C641	C64	0.143100	0.598300	0.079100
O231	O23	0.158010	0.665700	0.126800
C651	C65	0.394600	0.555800	0.065900
O241	O24	0.080560	0.575410	0.034700
C661	C66	0.364050	0.378300	0.993300
C671	C67	0.595800	0.977600	0.809900
H381	H38	0.553300	0.005600	0.801100
N301	N30	0.598440	0.897240	0.839700
C681	C68	0.658600	0.855200	0.846900
H391	H39	0.659800	0.799300	0.865400
C691	C69	0.718500	0.893900	0.827100
H401	H40	0.759300	0.863600	0.828500
C701	C70	0.536000	0.855900	0.873100
H411	H41	0.546900	0.841200	0.962500
H421	H42	0.497200	0.894600	0.861100
C711	C71	0.512900	0.780200	0.796600
C721	C72	0.116600	0.416700	0.051700
Zn71	Zn7	0.010630	0.841440	0.547940
Zn81	Zn8	0.499050	0.846880	0.518720
C731	C73	0.023620	0.722800	0.785500
N311	N31	0.021970	0.736100	0.907100
C741	C74	0.021500	0.641500	0.721700
H431	H43	0.993100	0.604500	0.761700
H441	H44	0.998000	0.647900	0.633600
N321	N32	0.022900	0.818200	0.923200
C751	C75	0.145900	0.645000	0.698900
H451	H45	0.141800	0.701400	0.686200
N331	N33	0.024000	0.853700	0.814900
C761	C76	0.207700	0.606100	0.691100
H461	H46	0.245400	0.636800	0.674500
N341	N34	0.024180	0.794800	0.725400
C771	C77	0.215200	0.521700	0.707300
N351	N35	0.497970	0.272760	0.829400
C781	C78	0.157700	0.479200	0.735800
H471	H47	0.160600	0.422800	0.749000
N361	N36	0.522240	0.195800	0.856400
C791	C79	0.096900	0.520400	0.744500
H481	H48	0.059100	0.491500	0.764200
N371	N37	0.526400	0.158700	0.751000
C801	C80	0.281500	0.477700	0.694700
N381	N38	0.504430	0.210780	0.652500
C811	C81	0.345300	0.518800	0.707500
H491	H49	0.348100	0.574400	0.727900
N391	N39	0.091300	0.602370	0.724700
C821	C82	0.799580	0.038700	0.434200
O251	O25	0.919050	0.889880	0.551200
C831	C83	0.732200	0.069300	0.431500
H501	H50	0.723400	0.124900	0.416700
O261	O26	0.899740	0.909200	0.343400
C841	C84	0.677580	0.017900	0.450800
O271	O27	0.644630	0.803310	0.508800
C851	C85	0.691650	0.934800	0.476900
O281	O28	0.581850	0.914300	0.532800
C861	C86	0.758970	0.903800	0.476200
H511	H51	0.767800	0.848100	0.490200
O291	O29	0.562010	0.042840	0.335600
C871	C87	0.812740	0.955100	0.454800
O301	O30	0.595060	0.105230	0.521300
C881	C88	0.856900	0.098300	0.420900
O311	O31	0.841990	0.165700	0.373200
C891	C89	0.605400	0.055800	0.434100
O321	O32	0.919440	0.075410	0.465300
C901	C90	0.635950	0.878300	0.506700
C911	C91	0.404200	0.477600	0.690100
H521	H52	0.446700	0.505600	0.698900
N401	N40	0.401560	0.397240	0.660300
C921	C92	0.341400	0.355200	0.653100
H531	H53	0.340200	0.299300	0.634600
C931	C93	0.281500	0.393900	0.672900
H541	H54	0.240700	0.363600	0.671500
C941	C94	0.464000	0.355900	0.626900
H551	H55	0.453100	0.341200	0.537500
H561	H56	0.502800	0.394600	0.638900
C951	C95	0.487100	0.280200	0.703400
C961	C96	0.883400	0.916700	0.448300
