data_ASUWUI_clean_PM
_symmetry_space_group_name_H-M	'P1'
_cell_length_a	14.995300
_cell_length_b	17.533500
_cell_length_c	20.238100
_cell_angle_alpha	115.225000
_cell_angle_beta	92.329000
_cell_angle_gamma	105.606000
_symmetry_Int_Tables_number 1

loop_
_symmetry_equiv_pos_as_xyz
'x,y,z'

loop_
_atom_site_label
_atom_site_type_symbol
_atom_site_fract_x
_atom_site_fract_y
_atom_site_fract_z
Zn11	Zn1	0.731280	0.639950	0.347360
Zn21	Zn2	0.797100	0.701820	0.942550
Zn31	Zn3	0.858080	0.778130	0.678500
Zn41	Zn4	0.687620	0.556970	0.607390
O11	O1	0.640100	0.431600	0.580200
O21	O2	0.695200	0.513100	0.278900
O31	O3	0.557100	0.495800	0.315900
O41	O4	0.752700	0.581000	0.929100
O51	O5	0.929200	0.741000	0.986300
N11	N1	0.641900	0.708200	0.344800
O61	O6	0.548700	0.424200	0.488000
O71	O7	0.858500	0.673900	0.326900
N21	N2	0.721800	0.621200	0.545300
N31	N3	0.464000	0.114700	0.783500
N41	N4	0.779900	0.862700	0.713000
N51	N5	0.815900	0.714000	0.739900
N61	N6	0.341200	0.972100	0.404300
N71	N7	0.414000	0.044400	0.100100
N81	N8	0.750500	0.632300	0.715300
N91	N9	0.792200	0.700900	0.571500
N101	N10	0.718200	0.782200	0.991600
N111	N11	0.743600	0.651800	0.452100
C11	C1	0.520500	0.810000	0.362200
C21	C2	0.633300	0.233700	0.180500
H11	H1	0.680000	0.206600	0.173100
N121	N12	0.790900	0.689200	0.837200
O81	O8	0.937900	0.860200	0.976600
C31	C3	0.629700	0.749700	0.002000
H21	H2	0.607500	0.690300	0.992000
O91	O9	0.609300	0.563400	0.885000
C41	C4	0.552900	0.671900	0.313800
H31	H3	0.529800	0.610400	0.286000
C51	C5	0.539500	0.290700	0.493400
C61	C6	0.471600	0.105300	0.440500
C71	C7	0.490600	0.720400	0.320000
H41	H4	0.428600	0.691200	0.295200
C81	C8	0.613000	0.465500	0.278800
O101	O10	0.872400	0.806500	0.416000
C91	C9	0.410300	0.152000	0.437900
H51	H5	0.346500	0.122100	0.419100
C101	C10	0.566600	0.151400	0.470300
H61	H6	0.608300	0.121000	0.471200
C111	C11	0.493700	0.955400	0.396800
H71	H7	0.558100	0.981200	0.401800
C121	C12	0.591000	0.017300	0.759900
C131	C13	0.445400	0.243200	0.463600
H81	H8	0.404400	0.273600	0.460700
C141	C14	0.571000	0.034200	0.095500
H91	H9	0.635500	0.062800	0.105000
C151	C15	0.749000	0.998400	0.738200
H101	H10	0.771200	0.056000	0.743500
C161	C16	0.535500	0.942100	0.063200
C171	C17	0.434800	0.008000	0.412900
C181	C18	0.737200	0.620200	0.774500
H111	H11	0.695300	0.569300	0.773100
C191	C19	0.361100	0.828100	0.361900
H121	H12	0.333800	0.767100	0.343600
C201	C20	0.807600	0.946800	0.723000
H131	H13	0.869400	0.971500	0.719700
C211	C21	0.656700	0.326800	0.220900
H141	H14	0.719300	0.361200	0.241100
C221	C22	0.557800	0.156200	0.802400
C231	C23	0.275500	0.918200	0.055900
C241	C24	0.456700	0.864400	0.373400
C251	C25	0.589100	0.254700	0.833800
C261	C26	0.589100	0.367000	0.230800
C271	C27	0.507200	0.084000	0.113900
C281	C28	0.493500	0.974900	0.741200
H151	H15	0.469300	0.913300	0.720400
C291	C29	0.577500	0.389200	0.521700
C301	C30	0.539200	0.182900	0.151700
C311	C31	0.746000	0.867700	0.008000
H161	H16	0.806900	0.892600	0.003000
C321	C32	0.623600	0.109500	0.792800
H171	H17	0.687800	0.140100	0.808300
C331	C33	0.838000	0.743300	0.810700
H181	H18	0.883100	0.797700	0.841000
C341	C34	0.613000	0.847900	0.398200
H191	H19	0.636100	0.908700	0.429500
C351	C35	0.690600	0.829800	0.719800
H201	H20	0.669300	0.771600	0.713200
C361	C36	0.629500	0.879000	0.736400
H211	H21	0.568900	0.853600	0.741600
C371	C37	0.694900	0.595300	0.474900
H221	H22	0.647000	0.543100	0.444200
C381	C38	0.802700	0.716600	0.514300
H231	H23	0.846100	0.767100	0.516400
C391	C39	0.439000	0.902600	0.050600
H241	H24	0.413400	0.841100	0.030200
C401	C40	0.472200	0.226500	0.160400
H251	H25	0.409500	0.193200	0.139600
C411	C41	0.656200	0.964600	0.745500
C421	C42	0.679700	0.303100	0.836300
H261	H26	0.723400	0.273600	0.819400
C431	C43	0.380400	0.956200	0.069000
C441	C44	0.433300	0.025700	0.754100
C451	C45	0.079700	0.853000	0.022200
C461	C46	0.303900	0.884000	0.378000
C471	C47	0.571600	0.801300	0.026900
H271	H27	0.511800	0.776200	0.033700
C481	C48	0.523800	0.299400	0.855100
H281	H28	0.462000	0.268400	0.853300
C491	C49	0.133800	0.795300	0.010900
H291	H29	0.103500	0.734800	0.993000
C501	C50	0.598500	0.243800	0.498900
H301	H30	0.660900	0.274800	0.522200
C511	C51	0.496200	0.316600	0.198600
H311	H31	0.450200	0.344300	0.203100
C521	C52	0.220400	0.971400	0.073600
H321	H32	0.249500	0.032500	0.100000
C531	C53	0.672100	0.796700	0.388400
H331	H33	0.734400	0.824200	0.412600
C541	C54	0.706600	0.392800	0.862800
H341	H34	0.769100	0.423600	0.866300
C551	C55	0.551600	0.392400	0.879800
H351	H35	0.507300	0.422100	0.892800
C561	C56	0.230400	0.827000	0.025700
H361	H36	0.265300	0.788100	0.015800
C571	C57	0.691000	0.921700	0.032000
H371	H37	0.714500	0.981000	0.041700
C581	C58	0.903300	0.751600	0.363100
C591	C59	0.600500	0.888500	0.041700
C601	C60	0.643300	0.439100	0.884700
C611	C61	0.124900	0.940500	0.054800
H381	H38	0.091000	0.980300	0.064700
C621	C62	0.670000	0.533500	0.903500
C631	C63	0.973600	0.814700	0.993400
C641	C64	0.134100	0.902500	0.688000
C651	C65	0.190000	0.863000	0.710300
H391	H39	0.162400	0.810100	0.712500
C661	C66	0.287100	0.902700	0.729200
H401	H40	0.324500	0.876300	0.744100
C671	C67	0.328200	0.981800	0.725900
C681	C68	0.272300	0.021300	0.703600
H411	H41	0.299900	0.074200	0.701400
C691	C69	0.175300	0.981600	0.684700
H421	H42	0.137900	0.008100	0.669800
O111	O11	0.992700	0.806400	0.692400
O121	O12	0.975100	0.886700	0.641200
C701	C70	0.029600	0.864500	0.676700
C711	C71	0.055200	0.875700	0.403800
H431	H43	0.023300	0.915100	0.429200
C721	C72	0.151700	0.906800	0.407200
H441	H44	0.184400	0.967000	0.434900
C731	C73	0.199300	0.847800	0.369300
C741	C74	0.150400	0.757800	0.328000
H451	H45	0.182200	0.718400	0.302600
C751	C75	0.053900	0.726700	0.324500
H461	H46	0.021100	0.666400	0.296900
C761	C76	0.006300	0.785600	0.362500
Zn51	Zn5	0.268720	0.360050	0.652640
Zn61	Zn6	0.202900	0.298180	0.057450
Zn71	Zn7	0.141920	0.221870	0.321500
Zn81	Zn8	0.312380	0.443030	0.392610
O131	O13	0.359900	0.568400	0.419800
O141	O14	0.304800	0.486900	0.721100
O151	O15	0.442900	0.504200	0.684100
O161	O16	0.247300	0.419000	0.070900
O171	O17	0.070800	0.259000	0.013700
N131	N13	0.358100	0.291800	0.655200
O181	O18	0.451300	0.575800	0.512000
O191	O19	0.141500	0.326100	0.673100
N141	N14	0.278200	0.378800	0.454700
N151	N15	0.536000	0.885300	0.216500
N161	N16	0.220100	0.137300	0.287000
N171	N17	0.184100	0.286000	0.260100
N181	N18	0.658800	0.027900	0.595700
N191	N19	0.586000	0.955600	0.899900
N201	N20	0.249500	0.367700	0.284700
N211	N21	0.207800	0.299100	0.428500
N221	N22	0.281800	0.217800	0.008400
N231	N23	0.256400	0.348200	0.547900
C771	C77	0.479500	0.190000	0.637800
C781	C78	0.366700	0.766300	0.819500
H471	H47	0.320000	0.793400	0.826900
N241	N24	0.209100	0.310800	0.162800
O201	O20	0.062100	0.139800	0.023400
C791	C79	0.370300	0.250300	0.998000
H481	H48	0.392500	0.309700	0.008000
O211	O21	0.390700	0.436600	0.115000
C801	C80	0.447100	0.328100	0.686200
H491	H49	0.470200	0.389600	0.714000
C811	C81	0.460500	0.709300	0.506600
C821	C82	0.528400	0.894700	0.559500
C831	C83	0.509400	0.279600	0.680000
H501	H50	0.571400	0.308800	0.704800
C841	C84	0.387000	0.534500	0.721200
O221	O22	0.127600	0.193500	0.584000
C851	C85	0.589700	0.848000	0.562100
H511	H51	0.653500	0.877900	0.580900
C861	C86	0.433400	0.848600	0.529700
H521	H52	0.391700	0.879000	0.528800
C871	C87	0.506300	0.044600	0.603200
H531	H53	0.441900	0.018800	0.598200
C881	C88	0.409000	0.982700	0.240100
C891	C89	0.554600	0.756800	0.536400
H541	H54	0.595600	0.726400	0.539300
C901	C90	0.429000	0.965800	0.904500
H551	H55	0.364500	0.937200	0.895000
C911	C91	0.251000	0.001600	0.261800
H561	H56	0.228800	0.944000	0.256500
C921	C92	0.464500	0.057900	0.936800
C931	C93	0.565200	0.992000	0.587100
C941	C94	0.262800	0.379800	0.225500
H571	H57	0.304700	0.430700	0.226900
C951	C95	0.638900	0.171900	0.638100
H581	H58	0.666200	0.232900	0.656400
C961	C96	0.192400	0.053200	0.277000
H591	H59	0.130600	0.028500	0.280300
C971	C97	0.343300	0.673200	0.779100
H601	H60	0.280700	0.638800	0.758900
C981	C98	0.442200	0.843800	0.197600
C991	C99	0.724500	0.081800	0.944100
C1001	C100	0.543300	0.135600	0.626600
C1011	C101	0.410900	0.745300	0.166200
C1021	C102	0.410900	0.633000	0.769200
C1031	C103	0.492800	0.916000	0.886100
C1041	C104	0.506500	0.025100	0.258800
H611	H61	0.530700	0.086700	0.279600
C1051	C105	0.422500	0.610800	0.478300
C1061	C106	0.460800	0.817100	0.848300
C1071	C107	0.254000	0.132300	0.992000
H621	H62	0.193100	0.107400	0.997000
C1081	C108	0.376400	0.890500	0.207200
H631	H63	0.312200	0.859900	0.191700
C1091	C109	0.162000	0.256700	0.189300
H641	H64	0.116900	0.202300	0.159000
C1101	C110	0.387000	0.152100	0.601800
H651	H65	0.363900	0.091300	0.570500
C1111	C111	0.309400	0.170200	0.280200
H661	H66	0.330700	0.228400	0.286800
C1121	C112	0.370500	0.121000	0.263600
H671	H67	0.431100	0.146400	0.258400
C1131	C113	0.305100	0.404700	0.525100
H681	H68	0.353000	0.456900	0.555800
C1141	C114	0.197300	0.283400	0.485700
H691	H69	0.153900	0.232900	0.483600
C1151	C115	0.561000	0.097400	0.949400
H701	H70	0.586600	0.158900	0.969800
C1161	C116	0.527800	0.773500	0.839600
H711	H71	0.590500	0.806800	0.860400
C1171	C117	0.343800	0.035400	0.254500
C1181	C118	0.320300	0.696900	0.163700
H721	H72	0.276600	0.726400	0.180600
C1191	C119	0.619600	0.043800	0.931000
C1201	C120	0.566700	0.974300	0.245900
C1211	C121	0.920300	0.147000	0.977800
C1221	C122	0.696100	0.116000	0.622000
C1231	C123	0.428400	0.198700	0.973100
H731	H73	0.488200	0.223800	0.966300
C1241	C124	0.476200	0.700600	0.144900
H741	H74	0.538000	0.731600	0.146700
C1251	C125	0.866200	0.204700	0.989100
H751	H75	0.896500	0.265200	0.007000
C1261	C126	0.401500	0.756200	0.501100
H761	H76	0.339100	0.725200	0.477800
C1271	C127	0.503800	0.683400	0.801400
H771	H77	0.549800	0.655700	0.796900
C1281	C128	0.779600	0.028600	0.926400
H781	H78	0.750500	0.967500	0.900000
C1291	C129	0.327900	0.203300	0.611600
H791	H79	0.265600	0.175800	0.587400
C1301	C130	0.293400	0.607200	0.137200
H801	H80	0.230900	0.576400	0.133700
C1311	C131	0.448400	0.607600	0.120200
H811	H81	0.492700	0.577900	0.107200
C1321	C132	0.769600	0.173000	0.974300
H821	H82	0.734700	0.211900	0.984200
C1331	C133	0.309000	0.078300	0.968000
H831	H83	0.285500	0.019000	0.958300
C1341	C134	0.096700	0.248400	0.636900
C1351	C135	0.399500	0.111500	0.958300
C1361	C136	0.356700	0.560900	0.115300
C1371	C137	0.875100	0.059500	0.945200
H841	H84	0.909000	0.019700	0.935300
C1381	C138	0.330000	0.466500	0.096500
C1391	C139	0.026400	0.185300	0.006600
C1401	C140	0.865900	0.097500	0.312000
C1411	C141	0.810000	0.137000	0.289700
H851	H85	0.837600	0.189900	0.287500
C1421	C142	0.712900	0.097300	0.270800
H861	H86	0.675500	0.123700	0.255900
C1431	C143	0.671800	0.018200	0.274100
C1441	C144	0.727700	0.978700	0.296400
H871	H87	0.700100	0.925800	0.298600
C1451	C145	0.824700	0.018400	0.315300
H881	H88	0.862100	0.991900	0.330200
O231	O23	0.007300	0.193600	0.307600
O241	O24	0.024900	0.113300	0.358800
C1461	C146	0.970400	0.135500	0.323300
C1471	C147	0.944800	0.124300	0.596200
H891	H89	0.976700	0.084900	0.570800
C1481	C148	0.848300	0.093200	0.592800
H901	H90	0.815600	0.033000	0.565100
C1491	C149	0.800700	0.152200	0.630700
C1501	C150	0.849600	0.242200	0.672000
H911	H91	0.817800	0.281600	0.697400
C1511	C151	0.946100	0.273300	0.675500
H921	H92	0.978900	0.333600	0.703100
C1521	C152	0.993700	0.214400	0.637500
