data_ATAFIK_clean_PM
_symmetry_space_group_name_H-M	'P1'
_cell_length_a	11.810500
_cell_length_b	18.777500
_cell_length_c	18.777500
_cell_angle_alpha	90.000000
_cell_angle_beta	90.000000
_cell_angle_gamma	90.000000
_symmetry_Int_Tables_number 1

loop_
_symmetry_equiv_pos_as_xyz
'x,y,z'

loop_
_atom_site_label
_atom_site_type_symbol
_atom_site_fract_x
_atom_site_fract_y
_atom_site_fract_z
Zn11	Zn1	0.500040	0.147280	0.810090
Zn21	Zn2	0.321540	0.277390	0.773200
Zn31	Zn3	0.500040	0.852720	0.189910
Zn41	Zn4	0.321540	0.722610	0.226800
Zn51	Zn5	0.000040	0.189910	0.147280
Zn61	Zn6	0.821540	0.226800	0.277390
Zn71	Zn7	0.000040	0.810090	0.852720
Zn81	Zn8	0.821540	0.773200	0.722610
Zn91	Zn9	0.500040	0.647280	0.689910
Zn101	Zn10	0.321540	0.777390	0.726800
Zn111	Zn11	0.500040	0.352720	0.310090
Zn121	Zn12	0.321540	0.222610	0.273200
Zn131	Zn13	0.000040	0.689910	0.352720
Zn141	Zn14	0.821540	0.726800	0.222610
Zn151	Zn15	0.000040	0.310090	0.647280
Zn161	Zn16	0.821540	0.273200	0.777390
H11	H1	0.764700	0.230900	0.001100
H21	H2	0.387800	0.273500	0.047500
H31	H3	0.764700	0.769100	0.998900
H41	H4	0.387800	0.726500	0.952500
H51	H5	0.264700	0.998900	0.230900
H61	H6	0.887800	0.952500	0.273500
H71	H7	0.264700	0.001100	0.769100
H81	H8	0.887800	0.047500	0.726500
H91	H9	0.764700	0.730900	0.498900
H101	H10	0.387800	0.773500	0.452500
H111	H11	0.764700	0.269100	0.501100
H121	H12	0.387800	0.226500	0.547500
H131	H13	0.264700	0.498900	0.269100
H141	H14	0.887800	0.452500	0.226500
H151	H15	0.264700	0.501100	0.730900
H161	H16	0.887800	0.547500	0.773500
C11	C1	0.500400	0.260400	0.967600
C21	C2	0.615200	0.247000	0.953800
C31	C3	0.688400	0.238800	0.010400
C41	C4	0.652100	0.241800	0.081000
C51	C5	0.538100	0.256400	0.095600
C61	C6	0.463900	0.264800	0.038400
C71	C7	0.410300	0.269000	0.910900
C81	C8	0.670400	0.240700	0.881000
C91	C9	0.739900	0.226700	0.136900
C101	C10	0.488600	0.264200	0.169300
C111	C11	0.500400	0.739600	0.032400
C121	C12	0.615200	0.753000	0.046200
C131	C13	0.688400	0.761200	0.989600
C141	C14	0.652100	0.758200	0.919000
C151	C15	0.538100	0.743600	0.904400
C161	C16	0.463900	0.735200	0.961600
C171	C17	0.410300	0.731000	0.089100
C181	C18	0.670400	0.759300	0.119000
C191	C19	0.739900	0.773300	0.863100
C201	C20	0.488600	0.735800	0.830700
C211	C21	0.000400	0.032400	0.260400
C221	C22	0.115200	0.046200	0.247000
C231	C23	0.188400	0.989600	0.238800
C241	C24	0.152100	0.919000	0.241800
C251	C25	0.038100	0.904400	0.256400
C261	C26	0.963900	0.961600	0.264800
C271	C27	0.910300	0.089100	0.269000
C281	C28	0.170400	0.119000	0.240700
C291	C29	0.239900	0.863100	0.226700
C301	C30	0.988600	0.830700	0.264200
C311	C31	0.000400	0.967600	0.739600
C321	C32	0.115200	0.953800	0.753000
C331	C33	0.188400	0.010400	0.761200
C341	C34	0.152100	0.081000	0.758200
C351	C35	0.038100	0.095600	0.743600
C361	C36	0.963900	0.038400	0.735200
C371	C37	0.910300	0.910900	0.731000
C381	C38	0.170400	0.881000	0.759300
C391	C39	0.239900	0.136900	0.773300
C401	C40	0.988600	0.169300	0.735800
C411	C41	0.500400	0.760400	0.532400
C421	C42	0.615200	0.747000	0.546200
C431	C43	0.688400	0.738800	0.489600
C441	C44	0.652100	0.741800	0.419000
C451	C45	0.538100	0.756400	0.404400
C461	C46	0.463900	0.764800	0.461600
C471	C47	0.410300	0.769000	0.589100
C481	C48	0.670400	0.740700	0.619000
C491	C49	0.739900	0.726700	0.363100
C501	C50	0.488600	0.764200	0.330700
C511	C51	0.500400	0.239600	0.467600
C521	C52	0.615200	0.253000	0.453800
C531	C53	0.688400	0.261200	0.510400
C541	C54	0.652100	0.258200	0.581000
C551	C55	0.538100	0.243600	0.595600
C561	C56	0.463900	0.235200	0.538400
C571	C57	0.410300	0.231000	0.410900
C581	C58	0.670400	0.259300	0.381000
C591	C59	0.739900	0.273300	0.636900
C601	C60	0.488600	0.235800	0.669300
C611	C61	0.000400	0.532400	0.239600
C621	C62	0.115200	0.546200	0.253000
C631	C63	0.188400	0.489600	0.261200
C641	C64	0.152100	0.419000	0.258200
C651	C65	0.038100	0.404400	0.243600
C661	C66	0.963900	0.461600	0.235200
C671	C67	0.910300	0.589100	0.231000
C681	C68	0.170400	0.619000	0.259300
C691	C69	0.239900	0.363100	0.273300
C701	C70	0.988600	0.330700	0.235800
C711	C71	0.000400	0.467600	0.760400
C721	C72	0.115200	0.453800	0.747000
C731	C73	0.188400	0.510400	0.738800
C741	C74	0.152100	0.581000	0.741800
C751	C75	0.038100	0.595600	0.756400
C761	C76	0.963900	0.538400	0.764800
C771	C77	0.910300	0.410900	0.769000
C781	C78	0.170400	0.381000	0.740700
C791	C79	0.239900	0.636900	0.726700
C801	C80	0.988600	0.669300	0.764200
O11	O1	0.439100	0.255800	0.846200
O21	O2	0.316000	0.285200	0.927500
O31	O3	0.650300	0.191500	0.839400
O41	O4	0.747700	0.286400	0.869800
O51	O5	0.837500	0.212800	0.116000
O61	O6	0.709400	0.226500	0.200300
O71	O7	0.415900	0.217600	0.186400
O81	O8	0.515400	0.316100	0.205500
O91	O9	0.439100	0.744200	0.153800
O101	O10	0.316000	0.714800	0.072500
O111	O11	0.650300	0.808500	0.160600
O121	O12	0.747700	0.713600	0.130200
O131	O13	0.837500	0.787200	0.884000
O141	O14	0.709400	0.773500	0.799700
O151	O15	0.415900	0.782400	0.813600
O161	O16	0.515400	0.683900	0.794500
O171	O17	0.939100	0.153800	0.255800
O181	O18	0.816000	0.072500	0.285200
O191	O19	0.150300	0.160600	0.191500
O201	O20	0.247700	0.130200	0.286400
O211	O21	0.337500	0.884000	0.212800
O221	O22	0.209400	0.799700	0.226500
O231	O23	0.915900	0.813600	0.217600
O241	O24	0.015400	0.794500	0.316100
O251	O25	0.939100	0.846200	0.744200
O261	O26	0.816000	0.927500	0.714800
O271	O27	0.150300	0.839400	0.808500
O281	O28	0.247700	0.869800	0.713600
O291	O29	0.337500	0.116000	0.787200
O301	O30	0.209400	0.200300	0.773500
O311	O31	0.915900	0.186400	0.782400
O321	O32	0.015400	0.205500	0.683900
O331	O33	0.439100	0.755800	0.653800
O341	O34	0.316000	0.785200	0.572500
O351	O35	0.650300	0.691500	0.660600
O361	O36	0.747700	0.786400	0.630200
O371	O37	0.837500	0.712800	0.384000
O381	O38	0.709400	0.726500	0.299700
O391	O39	0.415900	0.717600	0.313600
O401	O40	0.515400	0.816100	0.294500
O411	O41	0.439100	0.244200	0.346200
O421	O42	0.316000	0.214800	0.427500
O431	O43	0.650300	0.308500	0.339400
O441	O44	0.747700	0.213600	0.369800
O451	O45	0.837500	0.287200	0.616000
O461	O46	0.709400	0.273500	0.700300
O471	O47	0.415900	0.282400	0.686400
O481	O48	0.515400	0.183900	0.705500
O491	O49	0.939100	0.653800	0.244200
O501	O50	0.816000	0.572500	0.214800
O511	O51	0.150300	0.660600	0.308500
O521	O52	0.247700	0.630200	0.213600
O531	O53	0.337500	0.384000	0.287200
O541	O54	0.209400	0.299700	0.273500
O551	O55	0.915900	0.313600	0.282400
O561	O56	0.015400	0.294500	0.183900
O571	O57	0.939100	0.346200	0.755800
O581	O58	0.816000	0.427500	0.785200
O591	O59	0.150300	0.339400	0.691500
O601	O60	0.247700	0.369800	0.786400
O611	O61	0.337500	0.616000	0.712800
O621	O62	0.209400	0.700300	0.726500
O631	O63	0.915900	0.686400	0.717600
O641	O64	0.015400	0.705500	0.816100
