data_ATAYAX_clean_PM
_symmetry_space_group_name_H-M	'P1'
_cell_length_a	18.557000
_cell_length_b	18.557000
_cell_length_c	24.189000
_cell_angle_alpha	90.000000
_cell_angle_beta	90.000000
_cell_angle_gamma	120.000000
_symmetry_Int_Tables_number 1

loop_
_symmetry_equiv_pos_as_xyz
'x,y,z'

loop_
_atom_site_label
_atom_site_type_symbol
_atom_site_fract_x
_atom_site_fract_y
_atom_site_fract_z
C11	C1	0.908800	0.550200	0.545200
C21	C2	0.854100	0.577400	0.571250
C31	C3	0.874100	0.619400	0.620900
H11	H1	0.925200	0.633200	0.638400
O11	O1	0.890410	0.519300	0.497780
O21	O2	0.971700	0.562600	0.572410
C41	C4	0.449800	0.358600	0.545200
C51	C5	0.422600	0.276700	0.571250
C61	C6	0.380600	0.254700	0.620900
H21	H2	0.366800	0.292000	0.638400
O31	O3	0.480700	0.371110	0.497780
O41	O4	0.437400	0.409100	0.572410
C71	C7	0.641400	0.091200	0.545200
C81	C8	0.723300	0.145900	0.571250
C91	C9	0.745300	0.125900	0.620900
H31	H3	0.708000	0.074800	0.638400
O51	O5	0.628890	0.109590	0.497780
O61	O6	0.590900	0.028300	0.572410
C101	C10	0.091200	0.449800	0.045200
C111	C11	0.145900	0.422600	0.071250
C121	C12	0.125900	0.380600	0.120900
H41	H4	0.074800	0.366800	0.138400
O71	O7	0.109590	0.480700	0.997780
O81	O8	0.028300	0.437400	0.072410
C131	C13	0.550200	0.641400	0.045200
C141	C14	0.577400	0.723300	0.071250
C151	C15	0.619400	0.745300	0.120900
H51	H5	0.633200	0.708000	0.138400
O91	O9	0.519300	0.628890	0.997780
O101	O10	0.562600	0.590900	0.072410
C161	C16	0.358600	0.908800	0.045200
C171	C17	0.276700	0.854100	0.071250
C181	C18	0.254700	0.874100	0.120900
H61	H6	0.292000	0.925200	0.138400
O111	O11	0.371110	0.890410	0.997780
O121	O12	0.409100	0.971700	0.072410
C191	C19	0.550200	0.908800	0.454800
C201	C20	0.577400	0.854100	0.428750
C211	C21	0.619400	0.874100	0.379100
H71	H7	0.633200	0.925200	0.361600
O131	O13	0.519300	0.890410	0.502220
O141	O14	0.562600	0.971700	0.427590
C221	C22	0.358600	0.449800	0.454800
C231	C23	0.276700	0.422600	0.428750
C241	C24	0.254700	0.380600	0.379100
H81	H8	0.292000	0.366800	0.361600
O151	O15	0.371110	0.480700	0.502220
O161	O16	0.409100	0.437400	0.427590
C251	C25	0.091200	0.641400	0.454800
C261	C26	0.145900	0.723300	0.428750
C271	C27	0.125900	0.745300	0.379100
H91	H9	0.074800	0.708000	0.361600
O171	O17	0.109590	0.628890	0.502220
O181	O18	0.028300	0.590900	0.427590
C281	C28	0.449800	0.091200	0.954800
C291	C29	0.422600	0.145900	0.928750
C301	C30	0.380600	0.125900	0.879100
H101	H10	0.366800	0.074800	0.861600
O191	O19	0.480700	0.109590	0.002220
O201	O20	0.437400	0.028300	0.927590
C311	C31	0.641400	0.550200	0.954800
C321	C32	0.723300	0.577400	0.928750
C331	C33	0.745300	0.619400	0.879100
H111	H11	0.708000	0.633200	0.861600
O211	O21	0.628890	0.519300	0.002220
O221	O22	0.590900	0.562600	0.927590
C341	C34	0.908800	0.358600	0.954800
C351	C35	0.854100	0.276700	0.928750
C361	C36	0.874100	0.254700	0.879100
H121	H12	0.925200	0.292000	0.861600
O231	O23	0.890410	0.371110	0.002220
O241	O24	0.971700	0.409100	0.927590
C371	C37	0.091200	0.449800	0.454800
C381	C38	0.145900	0.422600	0.428750
C391	C39	0.125900	0.380600	0.379100
H131	H13	0.074800	0.366800	0.361600
O251	O25	0.109590	0.480700	0.502220
O261	O26	0.028300	0.437400	0.427590
C401	C40	0.550200	0.641400	0.454800
C411	C41	0.577400	0.723300	0.428750
C421	C42	0.619400	0.745300	0.379100
H141	H14	0.633200	0.708000	0.361600
O271	O27	0.519300	0.628890	0.502220
O281	O28	0.562600	0.590900	0.427590
C431	C43	0.358600	0.908800	0.454800
C441	C44	0.276700	0.854100	0.428750
C451	C45	0.254700	0.874100	0.379100
H151	H15	0.292000	0.925200	0.361600
O291	O29	0.371110	0.890410	0.502220
O301	O30	0.409100	0.971700	0.427590
C461	C46	0.908800	0.550200	0.954800
C471	C47	0.854100	0.577400	0.928750
C481	C48	0.874100	0.619400	0.879100
H161	H16	0.925200	0.633200	0.861600
O311	O31	0.890410	0.519300	0.002220
O321	O32	0.971700	0.562600	0.927590
C491	C49	0.449800	0.358600	0.954800
C501	C50	0.422600	0.276700	0.928750
C511	C51	0.380600	0.254700	0.879100
H171	H17	0.366800	0.292000	0.861600
O331	O33	0.480700	0.371110	0.002220
O341	O34	0.437400	0.409100	0.927590
C521	C52	0.641400	0.091200	0.954800
C531	C53	0.723300	0.145900	0.928750
C541	C54	0.745300	0.125900	0.879100
H181	H18	0.708000	0.074800	0.861600
O351	O35	0.628890	0.109590	0.002220
O361	O36	0.590900	0.028300	0.927590
C551	C55	0.449800	0.091200	0.545200
C561	C56	0.422600	0.145900	0.571250
C571	C57	0.380600	0.125900	0.620900
H191	H19	0.366800	0.074800	0.638400
O371	O37	0.480700	0.109590	0.497780
O381	O38	0.437400	0.028300	0.572410
C581	C58	0.641400	0.550200	0.545200
C591	C59	0.723300	0.577400	0.571250
C601	C60	0.745300	0.619400	0.620900
H201	H20	0.708000	0.633200	0.638400
O391	O39	0.628890	0.519300	0.497780
O401	O40	0.590900	0.562600	0.572410
C611	C61	0.908800	0.358600	0.545200
C621	C62	0.854100	0.276700	0.571250
C631	C63	0.874100	0.254700	0.620900
H211	H21	0.925200	0.292000	0.638400
O411	O41	0.890410	0.371110	0.497780
O421	O42	0.971700	0.409100	0.572410
C641	C64	0.550200	0.908800	0.045200
C651	C65	0.577400	0.854100	0.071250
C661	C66	0.619400	0.874100	0.120900
H221	H22	0.633200	0.925200	0.138400
O431	O43	0.519300	0.890410	0.997780
O441	O44	0.562600	0.971700	0.072410
C671	C67	0.358600	0.449800	0.045200
C681	C68	0.276700	0.422600	0.071250
C691	C69	0.254700	0.380600	0.120900
H231	H23	0.292000	0.366800	0.138400
O451	O45	0.371110	0.480700	0.997780
O461	O46	0.409100	0.437400	0.072410
C701	C70	0.091200	0.641400	0.045200
C711	C71	0.145900	0.723300	0.071250
C721	C72	0.125900	0.745300	0.120900
H241	H24	0.074800	0.708000	0.138400
O471	O47	0.109590	0.628890	0.997780
O481	O48	0.028300	0.590900	0.072410
C731	C73	0.883200	0.766400	0.697900
H251	H25	0.898050	0.796100	0.663900
C741	C74	0.778600	0.557200	0.545300
H261	H26	0.765000	0.530000	0.510500
C751	C75	0.843250	0.686500	0.700200
C761	C76	0.820900	0.641800	0.645700
H271	H27	0.765650	0.531300	0.781500
C771	C77	0.233600	0.116800	0.697900
H281	H28	0.203900	0.101950	0.663900
C781	C78	0.442800	0.221400	0.545300
H291	H29	0.470000	0.235000	0.510500
C791	C79	0.313500	0.156750	0.700200
C801	C80	0.358200	0.179100	0.645700
H301	H30	0.468700	0.234350	0.781500
C811	C81	0.883200	0.116800	0.697900
H311	H31	0.898050	0.101950	0.663900
C821	C82	0.778600	0.221400	0.545300
H321	H32	0.765000	0.235000	0.510500
C831	C83	0.843250	0.156750	0.700200
C841	C84	0.820900	0.179100	0.645700
H331	H33	0.765650	0.234350	0.781500
C851	C85	0.116800	0.233600	0.197900
H341	H34	0.101950	0.203900	0.163900
C861	C86	0.221400	0.442800	0.045300
H351	H35	0.235000	0.470000	0.010500
C871	C87	0.156750	0.313500	0.200200
C881	C88	0.179100	0.358200	0.145700
H361	H36	0.234350	0.468700	0.281500
C891	C89	0.766400	0.883200	0.197900
H371	H37	0.796100	0.898050	0.163900
C901	C90	0.557200	0.778600	0.045300
H381	H38	0.530000	0.765000	0.010500
C911	C91	0.686500	0.843250	0.200200
C921	C92	0.641800	0.820900	0.145700
H391	H39	0.531300	0.765650	0.281500
C931	C93	0.116800	0.883200	0.197900
H401	H40	0.101950	0.898050	0.163900
C941	C94	0.221400	0.778600	0.045300
H411	H41	0.235000	0.765000	0.010500
C951	C95	0.156750	0.843250	0.200200
C961	C96	0.179100	0.820900	0.145700
H421	H42	0.234350	0.765650	0.281500
C971	C97	0.766400	0.883200	0.302100
H431	H43	0.796100	0.898050	0.336100
C981	C98	0.557200	0.778600	0.454700
H441	H44	0.530000	0.765000	0.489500
C991	C99	0.686500	0.843250	0.299800
C1001	C100	0.641800	0.820900	0.354300
H451	H45	0.531300	0.765650	0.218500
C1011	C101	0.116800	0.233600	0.302100
H461	H46	0.101950	0.203900	0.336100
C1021	C102	0.221400	0.442800	0.454700
H471	H47	0.235000	0.470000	0.489500
C1031	C103	0.156750	0.313500	0.299800
C1041	C104	0.179100	0.358200	0.354300
H481	H48	0.234350	0.468700	0.218500
C1051	C105	0.116800	0.883200	0.302100
H491	H49	0.101950	0.898050	0.336100
C1061	C106	0.221400	0.778600	0.454700
H501	H50	0.235000	0.765000	0.489500
C1071	C107	0.156750	0.843250	0.299800
C1081	C108	0.179100	0.820900	0.354300
H511	H51	0.234350	0.765650	0.218500
C1091	C109	0.233600	0.116800	0.802100
H521	H52	0.203900	0.101950	0.836100
C1101	C110	0.442800	0.221400	0.954700
H531	H53	0.470000	0.235000	0.989500
C1111	C111	0.313500	0.156750	0.799800
C1121	C112	0.358200	0.179100	0.854300
H541	H54	0.468700	0.234350	0.718500
C1131	C113	0.883200	0.766400	0.802100
H551	H55	0.898050	0.796100	0.836100
C1141	C114	0.778600	0.557200	0.954700
H561	H56	0.765000	0.530000	0.989500
C1151	C115	0.843250	0.686500	0.799800
C1161	C116	0.820900	0.641800	0.854300
H571	H57	0.765650	0.531300	0.718500
C1171	C117	0.883200	0.116800	0.802100
H581	H58	0.898050	0.101950	0.836100
C1181	C118	0.778600	0.221400	0.954700
H591	H59	0.765000	0.235000	0.989500
C1191	C119	0.843250	0.156750	0.799800
C1201	C120	0.820900	0.179100	0.854300
H601	H60	0.765650	0.234350	0.718500
C1211	C121	0.903350	0.806700	0.750000
C1221	C122	0.823750	0.647500	0.750000
N11	N1	0.779350	0.558700	0.750000
F11	F1	0.948350	0.896700	0.750000
C1231	C123	0.193300	0.096650	0.750000
C1241	C124	0.352500	0.176250	0.750000
N21	N2	0.441300	0.220650	0.750000
F21	F2	0.103300	0.051650	0.750000
C1251	C125	0.903350	0.096650	0.750000
C1261	C126	0.823750	0.176250	0.750000
N31	N3	0.779350	0.220650	0.750000
F31	F3	0.948350	0.051650	0.750000
C1271	C127	0.096650	0.193300	0.250000
C1281	C128	0.176250	0.352500	0.250000
N41	N4	0.220650	0.441300	0.250000
F41	F4	0.051650	0.103300	0.250000
C1291	C129	0.806700	0.903350	0.250000
C1301	C130	0.647500	0.823750	0.250000
N51	N5	0.558700	0.779350	0.250000
F51	F5	0.896700	0.948350	0.250000
C1311	C131	0.096650	0.903350	0.250000
C1321	C132	0.176250	0.823750	0.250000
N61	N6	0.220650	0.779350	0.250000
F61	F6	0.051650	0.948350	0.250000
Zn11	Zn1	0.946030	0.473020	0.449750
Zn21	Zn2	0.526980	0.473020	0.449750
Zn31	Zn3	0.526980	0.053970	0.449750
Zn41	Zn4	0.053970	0.526980	0.949750
Zn51	Zn5	0.473020	0.526980	0.949750
Zn61	Zn6	0.473020	0.946030	0.949750
Zn71	Zn7	0.473020	0.946030	0.550250
Zn81	Zn8	0.473020	0.526990	0.550250
Zn91	Zn9	0.053970	0.526980	0.550250
Zn101	Zn10	0.526980	0.053970	0.050250
Zn111	Zn11	0.526980	0.473020	0.050250
Zn121	Zn12	0.946030	0.473020	0.050250
