data_ATEXII_clean_PM
_symmetry_space_group_name_H-M	'P1'
_cell_length_a	10.948800
_cell_length_b	11.731200
_cell_length_c	21.686400
_cell_angle_alpha	90.000000
_cell_angle_beta	90.000000
_cell_angle_gamma	90.000000
_symmetry_Int_Tables_number 1

loop_
_symmetry_equiv_pos_as_xyz
'x,y,z'

loop_
_atom_site_label
_atom_site_type_symbol
_atom_site_fract_x
_atom_site_fract_y
_atom_site_fract_z
Zn11	Zn1	0.864510	0.893410	0.884030
Zn21	Zn2	0.654650	0.191540	0.841500
N11	N1	0.817000	0.889500	0.786400
O11	O1	0.779900	0.098300	0.882210
N21	N2	0.006100	0.894700	0.376600
O21	O2	0.815800	0.878600	0.978760
N31	N3	0.515400	0.713000	0.112300
N41	N4	0.691600	0.831000	0.884200
C11	C1	0.892700	0.115300	0.887900
C21	C2	0.701100	0.784900	0.156900
C31	C3	0.741900	0.815900	0.098300
H11	H1	0.820000	0.850000	0.093600
N51	N5	0.636100	0.800500	0.938900
C41	C4	0.717100	0.881100	0.668600
H21	H2	0.683400	0.875100	0.628300
C51	C5	0.670300	0.797600	0.047600
C61	C6	0.700200	0.854500	0.776900
C71	C7	0.195200	0.982000	0.344600
H31	H3	0.245000	0.009600	0.312000
C81	C8	0.558500	0.745400	0.056000
H41	H4	0.509100	0.731300	0.020800
N61	N6	0.881000	0.854300	0.206000
O31	O3	0.966500	0.034000	0.890880
N71	N7	0.931600	0.870000	0.263700
C91	C9	0.649100	0.851200	0.719200
H51	H5	0.566500	0.828200	0.714300
C101	C10	0.711900	0.828200	0.983800
C111	C11	0.634700	0.820500	0.832400
H61	H6	0.553600	0.792000	0.830500
C121	C12	0.588200	0.732700	0.160900
H71	H7	0.560500	0.709400	0.200500
C131	C13	0.045000	0.904000	0.435500
H81	H8	0.992500	0.878200	0.467500
C141	C14	0.879300	0.922600	0.737600
H91	H9	0.960000	0.950300	0.743700
C151	C15	0.034100	0.924900	0.270600
H101	H10	0.076400	0.956500	0.236400
C161	C16	0.080900	0.935500	0.333600
C171	C17	0.832800	0.919300	0.676600
H111	H11	0.881200	0.943000	0.642600
C181	C18	0.157800	0.949500	0.451900
H121	H12	0.181500	0.954700	0.493900
C191	C19	0.233500	0.986400	0.406000
H131	H13	0.312300	0.015000	0.415800
C201	C20	0.941500	0.235800	0.893800
H141	H14	0.882000	0.283000	0.915900
H151	H15	0.955500	0.267700	0.852700
H161	H16	0.018700	0.234600	0.916700
O41	O4	0.725400	0.772800	0.265010
C211	C21	0.772900	0.802800	0.214400
Zn31	Zn3	0.635490	0.106590	0.384030
Zn41	Zn4	0.845350	0.808460	0.341500
N81	N8	0.683000	0.110500	0.286400
O51	O5	0.720100	0.901700	0.382210
N91	N9	0.493900	0.105300	0.876600
O61	O6	0.684200	0.121400	0.478760
N101	N10	0.984600	0.287000	0.612300
N111	N11	0.808400	0.169000	0.384200
C221	C22	0.607300	0.884700	0.387900
C231	C23	0.798900	0.215100	0.656900
C241	C24	0.758100	0.184100	0.598300
H171	H17	0.680000	0.150000	0.593600
N121	N12	0.863900	0.199500	0.438900
C251	C25	0.782900	0.118900	0.168600
H181	H18	0.816600	0.124900	0.128300
C261	C26	0.829700	0.202400	0.547600
C271	C27	0.799800	0.145500	0.276900
C281	C28	0.304800	0.018000	0.844600
H191	H19	0.255000	0.990400	0.812000
C291	C29	0.941500	0.254600	0.556000
H201	H20	0.990900	0.268700	0.520800
N131	N13	0.619000	0.145700	0.706000
O71	O7	0.533500	0.966000	0.390880
N141	N14	0.568400	0.130000	0.763700
C301	C30	0.850900	0.148800	0.219200
H211	H21	0.933500	0.171800	0.214300
C311	C31	0.788100	0.171800	0.483800
C321	C32	0.865300	0.179500	0.332400
H221	H22	0.946400	0.208000	0.330500
C331	C33	0.911800	0.267300	0.660900
H231	H23	0.939500	0.290600	0.700500
C341	C34	0.455000	0.096000	0.935500
H241	H24	0.507500	0.121800	0.967500
C351	C35	0.620700	0.077400	0.237600
H251	H25	0.540000	0.049700	0.243700
C361	C36	0.465900	0.075100	0.770600
H261	H26	0.423600	0.043500	0.736400
C371	C37	0.419100	0.064500	0.833600
C381	C38	0.667200	0.080700	0.176600
H271	H27	0.618800	0.057000	0.142600
C391	C39	0.342200	0.050500	0.951900
H281	H28	0.318500	0.045300	0.993900
C401	C40	0.266500	0.013600	0.906000
H291	H29	0.187700	0.985000	0.915800
C411	C41	0.558500	0.764200	0.393800
H301	H30	0.618000	0.717000	0.415900
H311	H31	0.544500	0.732300	0.352700
H321	H32	0.481300	0.765400	0.416700
O81	O8	0.774600	0.227200	0.765010
C421	C42	0.727100	0.197200	0.714400
Zn51	Zn5	0.135490	0.393410	0.615970
Zn61	Zn6	0.345350	0.691540	0.658500
N151	N15	0.183000	0.389500	0.713600
O91	O9	0.220100	0.598300	0.617790
N161	N16	0.993900	0.394700	0.123400
O101	O10	0.184200	0.378600	0.521240
N171	N17	0.484600	0.213000	0.387700
N181	N18	0.308400	0.331000	0.615800
C431	C43	0.107300	0.615300	0.612100
C441	C44	0.298900	0.284900	0.343100
C451	C45	0.258100	0.315900	0.401700
H331	H33	0.180000	0.350000	0.406400
N191	N19	0.363900	0.300500	0.561100
C461	C46	0.282900	0.381100	0.831400
H341	H34	0.316600	0.375100	0.871700
C471	C47	0.329700	0.297600	0.452400
C481	C48	0.299800	0.354500	0.723100
C491	C49	0.804800	0.482000	0.155400
H351	H35	0.755000	0.509600	0.188000
C501	C50	0.441500	0.245400	0.444000
H361	H36	0.490900	0.231300	0.479200
N201	N20	0.119000	0.354300	0.294000
O111	O11	0.033500	0.534000	0.609120
N211	N21	0.068400	0.370000	0.236300
C511	C51	0.350900	0.351200	0.780800
H371	H37	0.433500	0.328200	0.785700
C521	C52	0.288100	0.328200	0.516200
C531	C53	0.365300	0.320500	0.667600
H381	H38	0.446400	0.292000	0.669500
C541	C54	0.411800	0.232700	0.339100
H391	H39	0.439500	0.209400	0.299500
C551	C55	0.955000	0.404000	0.064500
H401	H40	0.007500	0.378200	0.032500
C561	C56	0.120700	0.422600	0.762400
H411	H41	0.040000	0.450300	0.756300
C571	C57	0.965900	0.424900	0.229400
H421	H42	0.923600	0.456500	0.263600
C581	C58	0.919100	0.435500	0.166400
C591	C59	0.167200	0.419300	0.823400
H431	H43	0.118800	0.443000	0.857400
C601	C60	0.842200	0.449500	0.048100
H441	H44	0.818500	0.454700	0.006100
C611	C61	0.766500	0.486400	0.094000
H451	H45	0.687700	0.515000	0.084200
C621	C62	0.058500	0.735800	0.606200
H461	H46	0.118000	0.783000	0.584100
H471	H47	0.044500	0.767700	0.647300
H481	H48	0.981300	0.734600	0.583300
O121	O12	0.274600	0.272800	0.234990
C631	C63	0.227100	0.302800	0.285600
Zn71	Zn7	0.364510	0.606590	0.115970
Zn81	Zn8	0.154650	0.308460	0.158500
N221	N22	0.317000	0.610500	0.213600
O131	O13	0.279900	0.401700	0.117790
N231	N23	0.506100	0.605300	0.623400
O141	O14	0.315800	0.621400	0.021240
N241	N24	0.015400	0.787000	0.887700
N251	N25	0.191600	0.669000	0.115800
C641	C64	0.392700	0.384700	0.112100
C651	C65	0.201100	0.715100	0.843100
C661	C66	0.241900	0.684100	0.901700
H491	H49	0.320000	0.650000	0.906400
N261	N26	0.136100	0.699500	0.061100
C671	C67	0.217100	0.618900	0.331400
H501	H50	0.183400	0.624900	0.371700
C681	C68	0.170300	0.702400	0.952400
C691	C69	0.200200	0.645500	0.223100
C701	C70	0.695200	0.518000	0.655400
H511	H51	0.745000	0.490400	0.688000
C711	C71	0.058500	0.754600	0.944000
H521	H52	0.009100	0.768700	0.979200
N271	N27	0.381000	0.645700	0.794000
O151	O15	0.466500	0.466000	0.109120
N281	N28	0.431600	0.630000	0.736300
C721	C72	0.149100	0.648800	0.280800
H531	H53	0.066500	0.671800	0.285700
C731	C73	0.211900	0.671800	0.016200
C741	C74	0.134700	0.679500	0.167600
H541	H54	0.053600	0.708000	0.169500
C751	C75	0.088200	0.767300	0.839100
H551	H55	0.060500	0.790600	0.799500
C761	C76	0.545000	0.596000	0.564500
H561	H56	0.492500	0.621800	0.532500
C771	C77	0.379300	0.577400	0.262400
H571	H57	0.460000	0.549700	0.256300
C781	C78	0.534100	0.575100	0.729400
H581	H58	0.576400	0.543500	0.763600
C791	C79	0.580900	0.564500	0.666400
C801	C80	0.332800	0.580700	0.323400
H591	H59	0.381200	0.557000	0.357400
C811	C81	0.657800	0.550500	0.548100
H601	H60	0.681500	0.545300	0.506100
C821	C82	0.733500	0.513600	0.594000
H611	H61	0.812300	0.485000	0.584200
C831	C83	0.441500	0.264200	0.106200
H621	H62	0.382000	0.217000	0.084100
H631	H63	0.455500	0.232300	0.147300
H641	H64	0.518700	0.265400	0.083300
O161	O16	0.225400	0.727200	0.734990
C841	C84	0.272900	0.697200	0.785600
