data_ATIBUA_clean_PM
_symmetry_space_group_name_H-M	'P1'
_cell_length_a	10.005000
_cell_length_b	11.519000
_cell_length_c	14.961000
_cell_angle_alpha	91.228500
_cell_angle_beta	90.000000
_cell_angle_gamma	90.000000
_symmetry_Int_Tables_number 1

loop_
_symmetry_equiv_pos_as_xyz
'x,y,z'

loop_
_atom_site_label
_atom_site_type_symbol
_atom_site_fract_x
_atom_site_fract_y
_atom_site_fract_z
Mn11	Mn1	0.914110	0.756240	0.131610
Mn21	Mn2	0.097130	0.735820	0.314850
Mn31	Mn3	0.414110	0.743760	0.368390
Mn41	Mn4	0.597130	0.764180	0.185150
Mn51	Mn5	0.085890	0.243760	0.868390
Mn61	Mn6	0.902870	0.264180	0.685150
Mn71	Mn7	0.585890	0.256240	0.631610
Mn81	Mn8	0.402870	0.235820	0.814850
Mn91	Mn9	0.000000	0.500000	0.000000
Mn101	Mn10	0.500000	0.000000	0.500000
Mn111	Mn11	0.000000	0.000000	0.000000
Mn121	Mn12	0.500000	0.500000	0.500000
H11	H1	0.746000	0.868000	0.364000
H21	H2	0.026000	0.471500	0.264500
H31	H3	0.611000	0.551700	0.045700
H41	H4	0.195000	0.973000	0.231000
H51	H5	0.163000	0.697000	0.935000
H61	H6	0.701000	0.990500	0.004500
H71	H7	0.246000	0.632000	0.136000
H81	H8	0.526000	0.028500	0.235500
H91	H9	0.111000	0.948300	0.454300
H101	H10	0.695000	0.527000	0.269000
H111	H11	0.663000	0.803000	0.565000
H121	H12	0.201000	0.509500	0.495500
H131	H13	0.254000	0.132000	0.636000
H141	H14	0.974000	0.528500	0.735500
H151	H15	0.389000	0.448300	0.954300
H161	H16	0.805000	0.027000	0.769000
H171	H17	0.837000	0.303000	0.065000
H181	H18	0.299000	0.009500	0.995500
H191	H19	0.754000	0.368000	0.864000
H201	H20	0.474000	0.971500	0.764500
H211	H21	0.889000	0.051700	0.545700
H221	H22	0.305000	0.473000	0.731000
H231	H23	0.337000	0.197000	0.435000
H241	H24	0.799000	0.490500	0.504500
C11	C1	0.816900	0.836200	0.328200
C21	C2	0.007900	0.512860	0.211160
C31	C3	0.705500	0.573320	0.052320
C41	C4	0.128400	0.949290	0.186590
C51	C5	0.108100	0.742220	0.971120
C61	C6	0.714400	0.932120	0.048420
C71	C7	0.316900	0.663800	0.171800
C81	C8	0.507900	0.987140	0.288840
C91	C9	0.205500	0.926680	0.447680
C101	C10	0.628400	0.550710	0.313410
C111	C11	0.608100	0.757780	0.528880
C121	C12	0.214400	0.567880	0.451580
C131	C13	0.183100	0.163800	0.671800
C141	C14	0.992100	0.487140	0.788840
C151	C15	0.294500	0.426680	0.947680
C161	C16	0.871600	0.050710	0.813410
C171	C17	0.891900	0.257780	0.028880
C181	C18	0.285600	0.067880	0.951580
C191	C19	0.683100	0.336200	0.828200
C201	C20	0.492100	0.012860	0.711160
C211	C21	0.794500	0.073320	0.552320
C221	C22	0.371600	0.449290	0.686590
C231	C23	0.391900	0.242220	0.471120
C241	C24	0.785600	0.432120	0.548420
O11	O1	0.791480	0.813480	0.246350
O21	O2	0.922860	0.815810	0.367710
O31	O3	0.995000	0.622830	0.219850
O41	O4	0.002060	0.456740	0.140440
O51	O5	0.733920	0.652540	0.109530
O61	O6	0.785270	0.517540	0.005540
O71	O7	0.077640	0.848880	0.196950
O81	O8	0.105510	0.015720	0.125720
O91	O9	0.030150	0.686490	0.022510
O101	O10	0.115680	0.848180	0.965480
O111	O11	0.835050	0.899600	0.057770
O121	O12	0.616350	0.896640	0.090150
O131	O13	0.291480	0.686520	0.253650
O141	O14	0.422860	0.684190	0.132290
O151	O15	0.495000	0.877170	0.280150
O161	O16	0.502060	0.043260	0.359560
O171	O17	0.233920	0.847460	0.390470
O181	O18	0.285270	0.982460	0.494460
O191	O19	0.577640	0.651120	0.303050
O201	O20	0.605510	0.484280	0.374280
O211	O21	0.530150	0.813510	0.477490
O221	O22	0.615680	0.651820	0.534520
O231	O23	0.335050	0.600400	0.442230
O241	O24	0.116350	0.603360	0.409850
O251	O25	0.208520	0.186520	0.753650
O261	O26	0.077140	0.184190	0.632290
O271	O27	0.005000	0.377170	0.780150
O281	O28	0.997940	0.543260	0.859560
O291	O29	0.266080	0.347460	0.890470
O301	O30	0.214730	0.482460	0.994460
O311	O31	0.922360	0.151120	0.803050
O321	O32	0.894490	0.984280	0.874280
O331	O33	0.969850	0.313510	0.977490
O341	O34	0.884320	0.151820	0.034520
O351	O35	0.164950	0.100400	0.942230
O361	O36	0.383650	0.103360	0.909850
O371	O37	0.708520	0.313480	0.746350
O381	O38	0.577140	0.315810	0.867710
O391	O39	0.505000	0.122830	0.719850
O401	O40	0.497940	0.956740	0.640440
O411	O41	0.766080	0.152540	0.609530
O421	O42	0.714730	0.017540	0.505540
O431	O43	0.422360	0.348880	0.696950
O441	O44	0.394490	0.515720	0.625720
O451	O45	0.469850	0.186490	0.522510
O461	O46	0.384320	0.348180	0.465480
O471	O47	0.664950	0.399600	0.557770
O481	O48	0.883650	0.396640	0.590150
