data_ATICAH_clean_PM
_symmetry_space_group_name_H-M	'P1'
_cell_length_a	10.161700
_cell_length_b	11.654800
_cell_length_c	15.294300
_cell_angle_alpha	91.149500
_cell_angle_beta	90.000000
_cell_angle_gamma	90.000000
_symmetry_Int_Tables_number 1

loop_
_symmetry_equiv_pos_as_xyz
'x,y,z'

loop_
_atom_site_label
_atom_site_type_symbol
_atom_site_fract_x
_atom_site_fract_y
_atom_site_fract_z
Mn11	Mn1	0.922070	0.755230	0.131840
Mn21	Mn2	0.110430	0.738430	0.308550
Mn31	Mn3	0.422070	0.744770	0.368160
Mn41	Mn4	0.610430	0.761570	0.191450
Mn51	Mn5	0.077930	0.244770	0.868160
Mn61	Mn6	0.889570	0.261570	0.691450
Mn71	Mn7	0.577930	0.255230	0.631840
Mn81	Mn8	0.389570	0.238430	0.808550
Mn91	Mn9	0.000000	0.500000	0.000000
Mn101	Mn10	0.500000	0.000000	0.500000
Mn111	Mn11	0.000000	0.000000	0.000000
Mn121	Mn12	0.500000	0.500000	0.500000
H11	H1	0.755000	0.867200	0.363200
H21	H2	0.047000	0.473000	0.262000
H31	H3	0.621000	0.538900	0.070900
H41	H4	0.224000	0.955300	0.212300
H51	H5	0.142000	0.692400	0.920400
H61	H6	0.712000	0.006900	0.028900
H71	H7	0.255000	0.632800	0.136800
H81	H8	0.547000	0.027000	0.238000
H91	H9	0.121000	0.961100	0.429100
H101	H10	0.724000	0.544700	0.287700
H111	H11	0.642000	0.807600	0.579600
H121	H12	0.212000	0.493100	0.471100
H131	H13	0.245000	0.132800	0.636800
H141	H14	0.953000	0.527000	0.738000
H151	H15	0.379000	0.461100	0.929100
H161	H16	0.776000	0.044700	0.787700
H171	H17	0.858000	0.307600	0.079600
H181	H18	0.288000	0.993100	0.971100
H191	H19	0.745000	0.367200	0.863200
H201	H20	0.453000	0.973000	0.762000
H211	H21	0.879000	0.038900	0.570900
H221	H22	0.276000	0.455300	0.712300
H231	H23	0.358000	0.192400	0.420400
H241	H24	0.788000	0.506900	0.528900
C11	C1	0.831900	0.831440	0.327240
C21	C2	0.025200	0.518260	0.206960
C31	C3	0.713300	0.565960	0.065560
C41	C4	0.151100	0.937160	0.173360
C51	C5	0.089800	0.741040	0.962440
C61	C6	0.726000	0.939320	0.063620
C71	C7	0.331900	0.668560	0.172760
C81	C8	0.525200	0.981740	0.293040
C91	C9	0.213300	0.934040	0.434440
C101	C10	0.651100	0.562840	0.326640
C111	C11	0.589800	0.758960	0.537560
C121	C12	0.226000	0.560680	0.436380
C131	C13	0.168100	0.168560	0.672760
C141	C14	0.974800	0.481740	0.793040
C151	C15	0.286700	0.434040	0.934440
C161	C16	0.848900	0.062840	0.826640
C171	C17	0.910200	0.258960	0.037560
C181	C18	0.274000	0.060680	0.936380
C191	C19	0.668100	0.331440	0.827240
C201	C20	0.474800	0.018260	0.706960
C211	C21	0.786700	0.065960	0.565560
C221	C22	0.348900	0.437160	0.673360
C231	C23	0.410200	0.241040	0.462440
C241	C24	0.774000	0.439320	0.563620
O11	O1	0.803680	0.809730	0.247360
O21	O2	0.940290	0.815420	0.362370
O31	O3	0.007740	0.625810	0.216280
O41	O4	0.019770	0.463220	0.137210
O51	O5	0.743210	0.652300	0.114680
O61	O6	0.789570	0.510890	0.018240
O71	O7	0.087540	0.846580	0.191520
O81	O8	0.129040	0.001460	0.111760
O91	O9	0.022580	0.686600	0.019070
O101	O10	0.096200	0.846100	0.956230
O111	O11	0.843970	0.903100	0.066340
O121	O12	0.629870	0.898280	0.101650
O131	O13	0.303680	0.690270	0.252640
O141	O14	0.440290	0.684580	0.137630
O151	O15	0.507740	0.874190	0.283720
O161	O16	0.519770	0.036780	0.362790
O171	O17	0.243210	0.847700	0.385320
O181	O18	0.289570	0.989110	0.481760
O191	O19	0.587540	0.653420	0.308480
O201	O20	0.629040	0.498540	0.388240
O211	O21	0.522580	0.813400	0.480930
O221	O22	0.596200	0.653900	0.543770
O231	O23	0.343970	0.596900	0.433660
O241	O24	0.129870	0.601720	0.398350
O251	O25	0.196320	0.190270	0.752640
O261	O26	0.059710	0.184580	0.637630
O271	O27	0.992260	0.374190	0.783720
O281	O28	0.980230	0.536780	0.862790
O291	O29	0.256790	0.347700	0.885320
O301	O30	0.210430	0.489110	0.981760
O311	O31	0.912460	0.153420	0.808480
O321	O32	0.870960	0.998540	0.888240
O331	O33	0.977420	0.313400	0.980930
O341	O34	0.903800	0.153900	0.043770
O351	O35	0.156030	0.096900	0.933660
O361	O36	0.370130	0.101720	0.898350
O371	O37	0.696320	0.309730	0.747360
O381	O38	0.559710	0.315420	0.862370
O391	O39	0.492260	0.125810	0.716280
O401	O40	0.480230	0.963220	0.637210
O411	O41	0.756790	0.152300	0.614680
O421	O42	0.710430	0.010890	0.518240
O431	O43	0.412460	0.346580	0.691520
O441	O44	0.370960	0.501460	0.611760
O451	O45	0.477420	0.186600	0.519070
O461	O46	0.403800	0.346100	0.456230
O471	O47	0.656030	0.403100	0.566340
O481	O48	0.870130	0.398280	0.601650
