data_ATIJUJ_manual_PM
_symmetry_space_group_name_H-M	'P1'
_cell_length_a	6.263100
_cell_length_b	23.928300
_cell_length_c	23.928300
_cell_angle_alpha	60.752600
_cell_angle_beta	84.994700
_cell_angle_gamma	95.005300
_symmetry_Int_Tables_number 1

loop_
_symmetry_equiv_pos_as_xyz
'x,y,z'

loop_
_atom_site_label
_atom_site_type_symbol
_atom_site_fract_x
_atom_site_fract_y
_atom_site_fract_z
Co11	Co1	0.339800	0.722370	0.672270
Co21	Co2	0.012070	0.672270	0.605360
Co31	Co3	0.617430	0.605360	0.722370
Co41	Co4	0.660200	0.277630	0.327730
Co51	Co5	0.987930	0.327730	0.394640
Co61	Co6	0.382570	0.394640	0.277630
P11	P1	0.826290	0.758120	0.668450
P21	P2	0.494740	0.668450	0.573430
P31	P3	0.068170	0.573430	0.758120
P41	P4	0.173710	0.241880	0.331550
P51	P5	0.505260	0.331550	0.426570
P61	P6	0.931830	0.426570	0.241880
C11	C1	0.727600	0.810000	0.598200
C21	C2	0.418140	0.851690	0.538670
C31	C3	0.515610	0.924270	0.492240
C41	C4	0.469670	0.963670	0.524860
C51	C5	0.531140	0.935110	0.595090
C61	C6	0.448910	0.862610	0.638180
C71	C7	0.325800	0.598200	0.591800
C81	C8	0.956810	0.538670	0.609640
C91	C9	0.007850	0.492240	0.583490
C101	C10	0.994530	0.524860	0.511470
C111	C11	0.126230	0.595090	0.469800
C121	C12	0.087090	0.638180	0.499210
C131	C13	0.917600	0.591800	0.810000
C141	C14	0.566450	0.609640	0.851690
C151	C15	0.591340	0.583490	0.924270
C161	C16	0.506000	0.511470	0.963670
C171	C17	0.596030	0.469800	0.935110
C181	C18	0.586300	0.499210	0.862610
C191	C19	0.272400	0.190000	0.401800
C201	C20	0.581860	0.148310	0.461330
C211	C21	0.484390	0.075730	0.507760
C221	C22	0.530330	0.036330	0.475140
C231	C23	0.468860	0.064890	0.404910
C241	C24	0.551090	0.137390	0.361820
C251	C25	0.674200	0.401800	0.408200
C261	C26	0.043190	0.461330	0.390360
C271	C27	0.992150	0.507760	0.416510
C281	C28	0.005470	0.475140	0.488530
C291	C29	0.873770	0.404910	0.530200
C301	C30	0.912910	0.361820	0.500790
C311	C31	0.082400	0.408200	0.190000
C321	C32	0.433550	0.390360	0.148310
C331	C33	0.408660	0.416510	0.075730
C341	C34	0.494000	0.488530	0.036330
C351	C35	0.403970	0.530200	0.064890
C361	C36	0.413700	0.500790	0.137390
N11	N1	0.501040	0.824370	0.603750
N21	N2	0.104790	0.603750	0.571880
N31	N3	0.676670	0.571880	0.824370
N41	N4	0.498960	0.175630	0.396250
N51	N5	0.895210	0.396250	0.428120
N61	N6	0.323330	0.428120	0.175630
O11	O1	0.885630	0.786430	0.714040
O21	O2	0.040740	0.736770	0.648450
O31	O3	0.645110	0.695270	0.701240
O41	O4	0.599670	0.714040	0.499530
O51	O5	0.689190	0.648450	0.614780
O61	O6	0.346350	0.701240	0.603490
O71	O7	0.099200	0.499530	0.786430
O81	O8	0.303970	0.614780	0.736770
O91	O9	0.949840	0.603490	0.695270
O101	O10	0.114370	0.213570	0.285960
O111	O11	0.959260	0.263230	0.351550
O121	O12	0.354890	0.304730	0.298760
O131	O13	0.400330	0.285960	0.500470
O141	O14	0.310810	0.351550	0.385220
O151	O15	0.653650	0.298760	0.396510
O161	O16	0.900800	0.500470	0.213570
O171	O17	0.696030	0.385220	0.263230
O181	O18	0.050160	0.396510	0.304730
H11	H1	0.463870	0.822230	0.514930
H21	H2	0.234020	0.846950	0.547860
H31	H3	0.439440	0.943740	0.445920
H41	H4	0.698350	0.928530	0.479770
H51	H5	0.459410	0.962090	0.618680
H61	H6	0.715010	0.942350	0.592030
H71	H7	0.265880	0.855280	0.652460
H81	H8	0.528770	0.842630	0.683850
H91	H9	0.978800	0.514930	0.662840
H101	H10	0.781870	0.547860	0.605200
H111	H11	0.885360	0.445920	0.610340
H121	H12	0.178120	0.479770	0.591700
H131	H13	0.078080	0.618680	0.419230
H141	H14	0.307040	0.592030	0.465620
H151	H15	0.918340	0.652460	0.492260
H161	H16	0.212620	0.683850	0.473510
H171	H17	0.641640	0.662840	0.822230
H181	H18	0.387070	0.605200	0.846950
H191	H19	0.495690	0.610340	0.943740
H201	H20	0.769820	0.591700	0.928530
H211	H21	0.497320	0.419230	0.962090
H221	H22	0.772660	0.465620	0.942350
H231	H23	0.410600	0.492260	0.855280
H241	H24	0.686130	0.473510	0.842630
H251	H25	0.766030	0.152760	0.452880
H261	H26	0.534950	0.178180	0.484490
H271	H27	0.301730	0.071560	0.520280
H281	H28	0.560730	0.056160	0.554050
H291	H29	0.284940	0.056540	0.408580
H301	H30	0.542560	0.038880	0.380500
H311	H31	0.472330	0.156840	0.315960
H321	H32	0.734440	0.145180	0.347900
H331	H33	0.218910	0.452880	0.394360
H341	H34	0.019440	0.484490	0.337330
H351	H35	0.822010	0.520280	0.408160
H361	H36	0.114790	0.554050	0.389790
H371	H37	0.693520	0.408580	0.534880
H381	H38	0.923060	0.380500	0.580610
H391	H39	0.788290	0.315960	0.527200
H401	H40	0.082340	0.347900	0.506920
H411	H41	0.613270	0.394360	0.152760
H421	H42	0.356770	0.337330	0.178180
H431	H43	0.230170	0.408160	0.071560
H441	H44	0.504580	0.389790	0.056160
H451	H45	0.228400	0.534880	0.056540
H461	H46	0.503680	0.580610	0.038880
H471	H47	0.315490	0.527200	0.156840
H481	H48	0.589260	0.506920	0.145180
H491	H49	0.735250	0.794600	0.735390
H501	H50	0.680640	0.760570	0.492660
H511	H51	0.274030	0.495290	0.787610
H521	H52	0.936410	0.208590	0.286120
H531	H53	0.432540	0.311310	0.527940
H541	H54	0.061210	0.530570	0.201600
