data_ATUYAR_clean_PM
_symmetry_space_group_name_H-M	'P1'
_cell_length_a	11.003000
_cell_length_b	12.486000
_cell_length_c	15.925000
_cell_angle_alpha	100.091000
_cell_angle_beta	106.028000
_cell_angle_gamma	95.762000
_symmetry_Int_Tables_number 1

loop_
_symmetry_equiv_pos_as_xyz
'x,y,z'

loop_
_atom_site_label
_atom_site_type_symbol
_atom_site_fract_x
_atom_site_fract_y
_atom_site_fract_z
Gd11	Gd1	0.059850	0.241200	0.628370
Gd21	Gd2	0.496360	0.741420	0.117130
O11	O1	0.861500	0.886200	0.888400
O21	O2	0.893700	0.083500	0.628400
O31	O3	0.095600	0.061300	0.671700
O41	O4	0.962200	0.877700	0.515400
O51	O5	0.919600	0.700300	0.508200
O61	O6	0.298000	0.776600	0.154200
O71	O7	0.276500	0.723100	0.012300
O81	O8	0.711900	0.791000	0.134900
O91	O9	0.870300	0.721300	0.217400
O101	O10	0.411200	0.378800	0.399400
O111	O11	0.594900	0.576400	0.170300
O121	O12	0.385800	0.564200	0.123300
O131	O13	0.488100	0.375400	0.019500
O141	O14	0.495100	0.202900	0.024600
O151	O15	0.878000	0.321200	0.670000
O161	O16	0.849000	0.256700	0.529000
O171	O17	0.447000	0.214200	0.729800
O181	O18	0.270700	0.223200	0.627000
C11	C1	0.892100	0.862000	0.810300
C21	C2	0.922800	0.944900	0.775900
H11	H1	0.931400	0.016700	0.807600
C31	C3	0.943300	0.925700	0.690200
C41	C4	0.928400	0.820500	0.643200
C51	C5	0.895200	0.733700	0.680200
H21	H2	0.884600	0.661700	0.648400
C61	C6	0.877600	0.752700	0.763800
H31	H3	0.856700	0.694300	0.788900
C71	C7	0.978200	0.029400	0.659300
C81	C8	0.939200	0.798400	0.551200
C91	C9	0.918500	0.840300	0.959400
C101	C10	0.041400	0.815900	0.975100
H41	H4	0.088100	0.825100	0.935600
C111	C11	0.093300	0.777000	0.052100
C121	C12	0.025500	0.764300	0.112100
H51	H5	0.063100	0.741200	0.164400
C131	C13	0.900500	0.786400	0.093000
C141	C14	0.847100	0.825300	0.016500
H61	H6	0.763900	0.841100	0.004000
C151	C15	0.229900	0.758100	0.074000
C161	C16	0.821400	0.765500	0.153000
C171	C17	0.441200	0.357700	0.321000
C181	C18	0.452800	0.444000	0.280400
H71	H7	0.451100	0.515200	0.309000
C191	C19	0.467600	0.423200	0.194500
C201	C20	0.475400	0.321400	0.153400
C211	C21	0.461100	0.233100	0.194200
H81	H8	0.462000	0.162200	0.164500
C221	C22	0.445500	0.249900	0.278700
H91	H9	0.438200	0.191400	0.306800
C231	C23	0.485600	0.526300	0.159600
C241	C24	0.488900	0.298800	0.061500
C251	C25	0.476800	0.337700	0.470700
C261	C26	0.606600	0.335600	0.492500
H101	H10	0.653800	0.357200	0.456300
C271	C27	0.665000	0.300800	0.569200
C281	C28	0.596200	0.272300	0.624400
H111	H11	0.637300	0.252200	0.677400
C291	C29	0.466200	0.273600	0.600800
C301	C30	0.406600	0.307300	0.524600
H121	H12	0.319100	0.309700	0.509200
C311	C31	0.805000	0.294800	0.591100
C321	C32	0.386000	0.234100	0.655900
K11	K1	0.781700	0.024200	0.444860
K21	K2	0.268800	0.490400	0.942180
Gd31	Gd3	0.940150	0.758800	0.371630
Gd41	Gd4	0.503640	0.258580	0.882870
O191	O19	0.138500	0.113800	0.111600
O201	O20	0.106300	0.916500	0.371600
O211	O21	0.904400	0.938700	0.328300
O221	O22	0.037800	0.122300	0.484600
O231	O23	0.080400	0.299700	0.491800
O241	O24	0.702000	0.223400	0.845800
O251	O25	0.723500	0.276900	0.987700
O261	O26	0.288100	0.209000	0.865100
O271	O27	0.129700	0.278700	0.782600
O281	O28	0.588800	0.621200	0.600600
O291	O29	0.405100	0.423600	0.829700
O301	O30	0.614200	0.435800	0.876700
O311	O31	0.511900	0.624600	0.980500
O321	O32	0.504900	0.797100	0.975400
O331	O33	0.122000	0.678800	0.330000
O341	O34	0.151000	0.743300	0.471000
O351	O35	0.553000	0.785800	0.270200
O361	O36	0.729300	0.776800	0.373000
C331	C33	0.107900	0.138000	0.189700
C341	C34	0.077200	0.055100	0.224100
H131	H13	0.068600	0.983300	0.192400
C351	C35	0.056700	0.074300	0.309800
C361	C36	0.071600	0.179500	0.356800
C371	C37	0.104800	0.266300	0.319800
H141	H14	0.115400	0.338300	0.351600
C381	C38	0.122400	0.247300	0.236200
H151	H15	0.143300	0.305700	0.211100
C391	C39	0.021800	0.970600	0.340700
C401	C40	0.060800	0.201600	0.448800
C411	C41	0.081500	0.159700	0.040600
C421	C42	0.958600	0.184100	0.024900
H161	H16	0.911900	0.174900	0.064400
C431	C43	0.906700	0.223000	0.947900
C441	C44	0.974500	0.235700	0.887900
H171	H17	0.936900	0.258800	0.835600
C451	C45	0.099500	0.213600	0.907000
C461	C46	0.152900	0.174700	0.983500
H181	H18	0.236100	0.158900	0.996000
C471	C47	0.770100	0.241900	0.926000
C481	C48	0.178600	0.234500	0.847000
C491	C49	0.558800	0.642300	0.679000
C501	C50	0.547200	0.556000	0.719600
H191	H19	0.548900	0.484800	0.691000
C511	C51	0.532400	0.576800	0.805500
C521	C52	0.524600	0.678600	0.846600
C531	C53	0.538900	0.766900	0.805800
H201	H20	0.538000	0.837800	0.835500
C541	C54	0.554500	0.750100	0.721300
H211	H21	0.561800	0.808600	0.693200
C551	C55	0.514400	0.473700	0.840400
C561	C56	0.511100	0.701200	0.938500
C571	C57	0.523200	0.662300	0.529300
C581	C58	0.393400	0.664400	0.507500
H221	H22	0.346200	0.642800	0.543700
C591	C59	0.335000	0.699200	0.430800
C601	C60	0.403800	0.727700	0.375600
H231	H23	0.362700	0.747800	0.322600
C611	C61	0.533800	0.726400	0.399200
C621	C62	0.593400	0.692700	0.475400
H241	H24	0.680900	0.690300	0.490800
C631	C63	0.195000	0.705200	0.408900
C641	C64	0.614000	0.765900	0.344100
K31	K3	0.218300	0.975800	0.555140
K41	K4	0.731200	0.509600	0.057820
