data_AVELUJ_clean_PM
_symmetry_space_group_name_H-M	'P1'
_cell_length_a	13.749500
_cell_length_b	13.749500
_cell_length_c	25.533000
_cell_angle_alpha	90.000000
_cell_angle_beta	90.000000
_cell_angle_gamma	90.000000
_symmetry_Int_Tables_number 1

loop_
_symmetry_equiv_pos_as_xyz
'x,y,z'

loop_
_atom_site_label
_atom_site_type_symbol
_atom_site_fract_x
_atom_site_fract_y
_atom_site_fract_z
Ni11	Ni1	0.093380	0.249060	0.023680
Ni21	Ni2	0.906620	0.750940	0.023680
Ni31	Ni3	0.749060	0.593380	0.476320
Ni41	Ni4	0.250940	0.406620	0.476320
H11	H1	0.200300	0.207300	0.942600
H21	H2	0.039500	0.253900	0.900200
H31	H3	0.136500	0.127900	0.863800
H41	H4	0.026300	0.131600	0.848100
H51	H5	0.062200	0.056400	0.890000
H61	H6	0.921600	0.365500	0.054100
H71	H7	0.852100	0.435200	0.127700
H81	H8	0.054100	0.304400	0.214400
H91	H9	0.122100	0.242600	0.137600
H101	H10	0.850300	0.465400	0.220400
H111	H11	0.167800	0.443400	0.045900
H121	H12	0.310500	0.525800	0.064400
H131	H13	0.448100	0.270100	0.059300
H141	H14	0.304000	0.196800	0.040100
H151	H15	0.547200	0.414300	0.070700
H161	H16	0.799700	0.792700	0.942600
H171	H17	0.960500	0.746100	0.900200
H181	H18	0.863500	0.872100	0.863800
H191	H19	0.973700	0.868400	0.848100
H201	H20	0.937800	0.943600	0.890000
H211	H21	0.078400	0.634500	0.054100
H221	H22	0.147900	0.564800	0.127700
H231	H23	0.945900	0.695600	0.214400
H241	H24	0.877900	0.757400	0.137600
H251	H25	0.149700	0.534600	0.220400
H261	H26	0.832200	0.556600	0.045900
H271	H27	0.689500	0.474200	0.064400
H281	H28	0.551900	0.729900	0.059300
H291	H29	0.696000	0.803200	0.040100
H301	H30	0.452800	0.585700	0.070700
H311	H31	0.707300	0.700300	0.557400
H321	H32	0.753900	0.539500	0.599800
H331	H33	0.627900	0.636500	0.636200
H341	H34	0.631600	0.526300	0.651900
H351	H35	0.556400	0.562200	0.610000
H361	H36	0.865500	0.421600	0.445900
H371	H37	0.935200	0.352100	0.372300
H381	H38	0.804400	0.554100	0.285600
H391	H39	0.742600	0.622100	0.362400
H401	H40	0.965400	0.350300	0.279600
H411	H41	0.943400	0.667800	0.454100
H421	H42	0.025800	0.810500	0.435600
H431	H43	0.770100	0.948100	0.440700
H441	H44	0.696800	0.804000	0.459900
H451	H45	0.914300	0.047200	0.429300
H461	H46	0.292700	0.299700	0.557400
H471	H47	0.246100	0.460500	0.599800
H481	H48	0.372100	0.363500	0.636200
H491	H49	0.368400	0.473700	0.651900
H501	H50	0.443600	0.437800	0.610000
H511	H51	0.134500	0.578400	0.445900
H521	H52	0.064800	0.647900	0.372300
H531	H53	0.195600	0.445900	0.285600
H541	H54	0.257400	0.377900	0.362400
H551	H55	0.034600	0.649700	0.279600
H561	H56	0.056600	0.332200	0.454100
H571	H57	0.974200	0.189500	0.435600
H581	H58	0.229900	0.051900	0.440700
H591	H59	0.303200	0.196000	0.459900
H601	H60	0.085700	0.952800	0.429300
C11	C1	0.963400	0.172200	0.951200
C21	C2	0.053000	0.192500	0.918200
C31	C3	0.071100	0.120900	0.876400
C41	C4	0.950000	0.354500	0.086600
C51	C5	0.906200	0.395100	0.131000
C61	C6	0.943800	0.375400	0.179100
C71	C7	0.026000	0.318400	0.182100
C81	C8	0.067100	0.281700	0.135500
C91	C9	0.898300	0.418800	0.226000
C101	C10	0.225000	0.407500	0.048300
C111	C11	0.310700	0.458800	0.059100
C121	C12	0.397600	0.403900	0.061500
C131	C13	0.392200	0.307800	0.055900
C141	C14	0.304500	0.263800	0.045100
C151	C15	0.492700	0.453800	0.067000
C161	C16	0.036600	0.827800	0.951200
C171	C17	0.947000	0.807500	0.918200
C181	C18	0.928900	0.879100	0.876400
C191	C19	0.050000	0.645500	0.086600
C201	C20	0.093800	0.604900	0.131000
C211	C21	0.056200	0.624600	0.179100
C221	C22	0.974000	0.681600	0.182100
C231	C23	0.932900	0.718300	0.135500
C241	C24	0.101700	0.581200	0.226000
C251	C25	0.775000	0.592500	0.048300
C261	C26	0.689300	0.541200	0.059100
C271	C27	0.602400	0.596100	0.061500
C281	C28	0.607800	0.692200	0.055900
C291	C29	0.695500	0.736200	0.045100
C301	C30	0.507300	0.546200	0.067000
C311	C31	0.672200	0.463400	0.548800
C321	C32	0.692500	0.553000	0.581800
C331	C33	0.620900	0.571100	0.623600
C341	C34	0.854500	0.450000	0.413400
C351	C35	0.895100	0.406200	0.369000
C361	C36	0.875400	0.443800	0.320900
C371	C37	0.818400	0.526000	0.317900
C381	C38	0.781700	0.567100	0.364500
C391	C39	0.918800	0.398300	0.274000
C401	C40	0.907500	0.725000	0.451700
C411	C41	0.958800	0.810700	0.440900
C421	C42	0.903900	0.897600	0.438500
C431	C43	0.807800	0.892200	0.444100
C441	C44	0.763800	0.804500	0.454900
C451	C45	0.953800	0.992700	0.433000
C461	C46	0.327800	0.536600	0.548800
C471	C47	0.307500	0.447000	0.581800
C481	C48	0.379100	0.428900	0.623600
C491	C49	0.145500	0.550000	0.413400
C501	C50	0.104900	0.593800	0.369000
C511	C51	0.124600	0.556200	0.320900
C521	C52	0.181600	0.474000	0.317900
C531	C53	0.218300	0.432900	0.364500
C541	C54	0.081200	0.601700	0.274000
C551	C55	0.092500	0.275000	0.451700
C561	C56	0.041200	0.189300	0.440900
C571	C57	0.096100	0.102400	0.438500
C581	C58	0.192200	0.107800	0.444100
C591	C59	0.236200	0.195500	0.454900
C601	C60	0.046200	0.007300	0.433000
N11	N1	0.137700	0.212400	0.952500
N21	N2	0.029600	0.301300	0.088800
N31	N3	0.218500	0.312600	0.041200
N41	N4	0.862300	0.787600	0.952500
N51	N5	0.970400	0.698700	0.088800
N61	N6	0.781500	0.687400	0.041200
N71	N7	0.712400	0.637700	0.547500
N81	N8	0.801300	0.529600	0.411200
N91	N9	0.812600	0.718500	0.458800
N101	N10	0.287600	0.362300	0.547500
N111	N11	0.198700	0.470400	0.411200
N121	N12	0.187400	0.281500	0.458800
O11	O1	0.969100	0.201800	0.999910
O21	O2	0.890700	0.136500	0.932260
O31	O3	0.030900	0.798200	0.999910
O41	O4	0.109300	0.863500	0.932260
O51	O5	0.701800	0.469100	0.500090
O61	O6	0.636500	0.390700	0.567740
O71	O7	0.298200	0.530900	0.500090
O81	O8	0.363500	0.609300	0.567740
Ni51	Ni5	0.249060	0.906620	0.976320
Ni61	Ni6	0.750940	0.093380	0.976320
Ni71	Ni7	0.593380	0.250940	0.523680
Ni81	Ni8	0.406620	0.749060	0.523680
H611	H61	0.207300	0.799700	0.057400
H621	H62	0.253900	0.960500	0.099800
H631	H63	0.127900	0.863500	0.136200
H641	H64	0.131600	0.973700	0.151900
H651	H65	0.056400	0.937800	0.110000
H661	H66	0.365500	0.078400	0.945900
H671	H67	0.435200	0.147900	0.872300
H681	H68	0.304400	0.945900	0.785600
H691	H69	0.242600	0.877900	0.862400
H701	H70	0.465400	0.149700	0.779600
H711	H71	0.443400	0.832200	0.954100
H721	H72	0.525800	0.689500	0.935600
H731	H73	0.270100	0.551900	0.940700
H741	H74	0.196800	0.696000	0.959900
H751	H75	0.414300	0.452800	0.929300
H761	H76	0.792700	0.200300	0.057400
H771	H77	0.746100	0.039500	0.099800
H781	H78	0.872100	0.136500	0.136200
H791	H79	0.868400	0.026300	0.151900
H801	H80	0.943600	0.062200	0.110000
H811	H81	0.634500	0.921600	0.945900
H821	H82	0.564800	0.852100	0.872300
H831	H83	0.695600	0.054100	0.785600
H841	H84	0.757400	0.122100	0.862400
H851	H85	0.534600	0.850300	0.779600
H861	H86	0.556600	0.167800	0.954100
H871	H87	0.474200	0.310500	0.935600
H881	H88	0.729900	0.448100	0.940700
H891	H89	0.803200	0.304000	0.959900
H901	H90	0.585700	0.547200	0.929300
H911	H91	0.700300	0.292700	0.442600
H921	H92	0.539500	0.246100	0.400200
H931	H93	0.636500	0.372100	0.363800
H941	H94	0.526300	0.368400	0.348100
H951	H95	0.562200	0.443600	0.390000
H961	H96	0.421600	0.134500	0.554100
H971	H97	0.352100	0.064800	0.627700
H981	H98	0.554100	0.195600	0.714400
H991	H99	0.622100	0.257400	0.637600
H1001	H100	0.350300	0.034600	0.720400
H1011	H101	0.667800	0.056600	0.545900
H1021	H102	0.810500	0.974200	0.564400
H1031	H103	0.948100	0.229900	0.559300
H1041	H104	0.804000	0.303200	0.540100
H1051	H105	0.047200	0.085700	0.570700
H1061	H106	0.299700	0.707300	0.442600
H1071	H107	0.460500	0.753900	0.400200
H1081	H108	0.363500	0.627900	0.363800
H1091	H109	0.473700	0.631600	0.348100
H1101	H110	0.437800	0.556400	0.390000
H1111	H111	0.578400	0.865500	0.554100
H1121	H112	0.647900	0.935200	0.627700
H1131	H113	0.445900	0.804400	0.714400
H1141	H114	0.377900	0.742600	0.637600
H1151	H115	0.649700	0.965400	0.720400
H1161	H116	0.332200	0.943400	0.545900
H1171	H117	0.189500	0.025800	0.564400
H1181	H118	0.051900	0.770100	0.559300
H1191	H119	0.196000	0.696800	0.540100
H1201	H120	0.952800	0.914300	0.570700
C611	C61	0.172200	0.036600	0.048800
C621	C62	0.192500	0.947000	0.081800
C631	C63	0.120900	0.928900	0.123600
C641	C64	0.354500	0.050000	0.913400
C651	C65	0.395100	0.093800	0.869000
C661	C66	0.375400	0.056200	0.820900
C671	C67	0.318400	0.974000	0.817900
C681	C68	0.281700	0.932900	0.864500
C691	C69	0.418800	0.101700	0.774000
C701	C70	0.407500	0.775000	0.951700
C711	C71	0.458800	0.689300	0.940900
C721	C72	0.403900	0.602400	0.938500
C731	C73	0.307800	0.607800	0.944100
C741	C74	0.263800	0.695500	0.954900
C751	C75	0.453800	0.507300	0.933000
C761	C76	0.827800	0.963400	0.048800
C771	C77	0.807500	0.053000	0.081800
C781	C78	0.879100	0.071100	0.123600
C791	C79	0.645500	0.950000	0.913400
C801	C80	0.604900	0.906200	0.869000
C811	C81	0.624600	0.943800	0.820900
C821	C82	0.681600	0.026000	0.817900
C831	C83	0.718300	0.067100	0.864500
C841	C84	0.581200	0.898300	0.774000
C851	C85	0.592500	0.225000	0.951700
C861	C86	0.541200	0.310700	0.940900
C871	C87	0.596100	0.397600	0.938500
C881	C88	0.692200	0.392200	0.944100
C891	C89	0.736200	0.304500	0.954900
C901	C90	0.546200	0.492700	0.933000
C911	C91	0.463400	0.327800	0.451200
C921	C92	0.553000	0.307500	0.418200
C931	C93	0.571100	0.379100	0.376400
C941	C94	0.450000	0.145500	0.586600
C951	C95	0.406200	0.104900	0.631000
C961	C96	0.443800	0.124600	0.679100
C971	C97	0.526000	0.181600	0.682100
C981	C98	0.567100	0.218300	0.635500
C991	C99	0.398300	0.081200	0.726000
C1001	C100	0.725000	0.092500	0.548300
C1011	C101	0.810700	0.041200	0.559100
C1021	C102	0.897600	0.096100	0.561500
C1031	C103	0.892200	0.192200	0.555900
C1041	C104	0.804500	0.236200	0.545100
C1051	C105	0.992700	0.046200	0.567000
C1061	C106	0.536600	0.672200	0.451200
C1071	C107	0.447000	0.692500	0.418200
C1081	C108	0.428900	0.620900	0.376400
C1091	C109	0.550000	0.854500	0.586600
C1101	C110	0.593800	0.895100	0.631000
C1111	C111	0.556200	0.875400	0.679100
C1121	C112	0.474000	0.818400	0.682100
C1131	C113	0.432900	0.781700	0.635500
C1141	C114	0.601700	0.918800	0.726000
C1151	C115	0.275000	0.907500	0.548300
C1161	C116	0.189300	0.958800	0.559100
C1171	C117	0.102400	0.903900	0.561500
C1181	C118	0.107800	0.807800	0.555900
C1191	C119	0.195500	0.763800	0.545100
C1201	C120	0.007300	0.953800	0.567000
N131	N13	0.212400	0.862300	0.047500
N141	N14	0.301300	0.970400	0.911200
N151	N15	0.312600	0.781500	0.958800
N161	N16	0.787600	0.137700	0.047500
N171	N17	0.698700	0.029600	0.911200
N181	N18	0.687400	0.218500	0.958800
N191	N19	0.637700	0.287600	0.452500
N201	N20	0.529600	0.198700	0.588800
N211	N21	0.718500	0.187400	0.541200
N221	N22	0.362300	0.712400	0.452500
N231	N23	0.470400	0.801300	0.588800
N241	N24	0.281500	0.812600	0.541200
O91	O9	0.201800	0.030900	0.000090
O101	O10	0.136500	0.109300	0.067740
O111	O11	0.798200	0.969100	0.000090
O121	O12	0.863500	0.890700	0.067740
O131	O13	0.469100	0.298200	0.499910
O141	O14	0.390700	0.363500	0.432260
O151	O15	0.530900	0.701800	0.499910
O161	O16	0.609300	0.636500	0.432260
