data_AVEQID_clean_PM
_symmetry_space_group_name_H-M	'P1'
_cell_length_a	12.495700
_cell_length_b	15.316300
_cell_length_c	24.254000
_cell_angle_alpha	90.000000
_cell_angle_beta	102.304000
_cell_angle_gamma	90.000000
_symmetry_Int_Tables_number 1

loop_
_symmetry_equiv_pos_as_xyz
'x,y,z'

loop_
_atom_site_label
_atom_site_type_symbol
_atom_site_fract_x
_atom_site_fract_y
_atom_site_fract_z
C11	C1	0.366000	0.477700	0.260120
C21	C2	0.322720	0.405250	0.220710
C31	C3	0.228500	0.417780	0.178420
H11	H1	0.192000	0.471100	0.175500
C41	C4	0.189470	0.351310	0.140960
C51	C5	0.246000	0.273890	0.145110
H21	H2	0.221600	0.229500	0.119400
C61	C6	0.339900	0.260790	0.187500
C71	C7	0.376200	0.326550	0.225290
H31	H3	0.437400	0.317700	0.254100
C81	C8	0.404500	0.177720	0.189450
C91	C9	0.090560	0.367280	0.094890
C101	C10	0.086920	0.440630	0.062280
H41	H4	0.145200	0.479600	0.070600
C111	C11	0.000320	0.460040	0.017250
C121	C12	0.913180	0.399680	0.007630
H51	H5	0.853700	0.410000	0.978000
C131	C13	0.912350	0.325870	0.040320
C141	C14	0.001600	0.307600	0.085020
C151	C15	0.817010	0.263710	0.028620
C161	C16	0.782100	0.226220	0.975520
H61	H6	0.814300	0.243200	0.946000
C171	C17	0.699100	0.163380	0.966080
C181	C18	0.650900	0.138750	0.009910
H71	H7	0.598100	0.095000	0.004300
C191	C19	0.680700	0.178750	0.062360
C201	C20	0.762800	0.241150	0.071210
H81	H8	0.782100	0.268500	0.106200
C211	C21	0.662800	0.119770	0.909160
C221	C22	0.628300	0.151300	0.109500
N11	N1	0.004300	0.233930	0.117800
H91	H9	0.950600	0.197700	0.111200
H101	H10	0.059800	0.224200	0.144900
O11	O1	0.455560	0.461410	0.294520
O21	O2	0.314700	0.547110	0.256780
O31	O3	0.487370	0.167750	0.228200
O41	O4	0.370030	0.122330	0.151500
O51	O5	0.644300	0.195440	0.152840
O61	O6	0.570250	0.082370	0.100720
O71	O7	0.610910	0.049080	0.911160
O81	O8	0.682800	0.153240	0.866120
Zn11	Zn1	0.528920	0.530790	0.356350
Zn21	Zn2	0.341890	0.678740	0.261340
C231	C23	0.634000	0.977700	0.239880
C241	C24	0.677280	0.905250	0.279290
C251	C25	0.771500	0.917780	0.321580
H111	H11	0.808000	0.971100	0.324500
C261	C26	0.810530	0.851310	0.359040
C271	C27	0.754000	0.773890	0.354890
H121	H12	0.778400	0.729500	0.380600
C281	C28	0.660100	0.760790	0.312500
C291	C29	0.623800	0.826550	0.274710
H131	H13	0.562600	0.817700	0.245900
C301	C30	0.595500	0.677720	0.310550
C311	C31	0.909440	0.867280	0.405110
C321	C32	0.913080	0.940630	0.437720
H141	H14	0.854800	0.979600	0.429400
C331	C33	0.999680	0.960040	0.482750
C341	C34	0.086820	0.899680	0.492370
H151	H15	0.146300	0.910000	0.522000
C351	C35	0.087650	0.825870	0.459680
C361	C36	0.998400	0.807600	0.414980
C371	C37	0.182990	0.763710	0.471380
C381	C38	0.217900	0.726220	0.524480
H161	H16	0.185700	0.743200	0.554000
C391	C39	0.300900	0.663380	0.533920
C401	C40	0.349100	0.638750	0.490090
H171	H17	0.401900	0.595000	0.495700
C411	C41	0.319300	0.678750	0.437640
C421	C42	0.237200	0.741150	0.428790
H181	H18	0.217900	0.768500	0.393800
C431	C43	0.337200	0.619770	0.590840
C441	C44	0.371700	0.651300	0.390500
N21	N2	0.995700	0.733930	0.382200
H191	H19	0.049400	0.697700	0.388800
H201	H20	0.940200	0.724200	0.355100
O91	O9	0.544440	0.961410	0.205480
O101	O10	0.685300	0.047110	0.243220
O111	O11	0.512630	0.667750	0.271800
O121	O12	0.629970	0.622330	0.348500
O131	O13	0.355700	0.695440	0.347160
O141	O14	0.429750	0.582370	0.399280
O151	O15	0.389090	0.549080	0.588840
O161	O16	0.317200	0.653240	0.633880
Zn31	Zn3	0.471080	0.030790	0.143650
Zn41	Zn4	0.658110	0.178740	0.238660
C451	C45	0.634000	0.522300	0.739880
C461	C46	0.677280	0.594750	0.779290
C471	C47	0.771500	0.582220	0.821580
H211	H21	0.808000	0.528900	0.824500
C481	C48	0.810530	0.648690	0.859040
C491	C49	0.754000	0.726110	0.854890
H221	H22	0.778400	0.770500	0.880600
C501	C50	0.660100	0.739210	0.812500
C511	C51	0.623800	0.673450	0.774710
H231	H23	0.562600	0.682300	0.745900
C521	C52	0.595500	0.822280	0.810550
C531	C53	0.909440	0.632720	0.905110
C541	C54	0.913080	0.559370	0.937720
H241	H24	0.854800	0.520400	0.929400
C551	C55	0.999680	0.539960	0.982750
C561	C56	0.086820	0.600320	0.992370
H251	H25	0.146300	0.590000	0.022000
C571	C57	0.087650	0.674130	0.959680
C581	C58	0.998400	0.692400	0.914980
C591	C59	0.182990	0.736290	0.971380
C601	C60	0.217900	0.773780	0.024480
H261	H26	0.185700	0.756800	0.054000
C611	C61	0.300900	0.836620	0.033920
C621	C62	0.349100	0.861250	0.990090
H271	H27	0.401900	0.905000	0.995700
C631	C63	0.319300	0.821250	0.937640
C641	C64	0.237200	0.758850	0.928790
H281	H28	0.217900	0.731500	0.893800
C651	C65	0.337200	0.880230	0.090840
C661	C66	0.371700	0.848700	0.890500
N31	N3	0.995700	0.766070	0.882200
H291	H29	0.049400	0.802300	0.888800
H301	H30	0.940200	0.775800	0.855100
O171	O17	0.544440	0.538590	0.705480
O181	O18	0.685300	0.452890	0.743220
O191	O19	0.512630	0.832250	0.771800
O201	O20	0.629970	0.877670	0.848500
O211	O21	0.355700	0.804560	0.847160
O221	O22	0.429750	0.917630	0.899280
O231	O23	0.389090	0.950920	0.088840
O241	O24	0.317200	0.846760	0.133880
Zn51	Zn5	0.471080	0.469210	0.643650
Zn61	Zn6	0.658110	0.321260	0.738660
C671	C67	0.366000	0.022300	0.760120
C681	C68	0.322720	0.094750	0.720710
C691	C69	0.228500	0.082220	0.678420
H311	H31	0.192000	0.028900	0.675500
C701	C70	0.189470	0.148690	0.640960
C711	C71	0.246000	0.226110	0.645110
H321	H32	0.221600	0.270500	0.619400
C721	C72	0.339900	0.239210	0.687500
C731	C73	0.376200	0.173450	0.725290
H331	H33	0.437400	0.182300	0.754100
C741	C74	0.404500	0.322280	0.689450
C751	C75	0.090560	0.132720	0.594890
C761	C76	0.086920	0.059370	0.562280
H341	H34	0.145200	0.020400	0.570600
C771	C77	0.000320	0.039960	0.517250
C781	C78	0.913180	0.100320	0.507630
H351	H35	0.853700	0.090000	0.478000
C791	C79	0.912350	0.174130	0.540320
C801	C80	0.001600	0.192400	0.585020
C811	C81	0.817010	0.236290	0.528620
C821	C82	0.782100	0.273780	0.475520
H361	H36	0.814300	0.256800	0.446000
C831	C83	0.699100	0.336620	0.466080
C841	C84	0.650900	0.361250	0.509910
H371	H37	0.598100	0.405000	0.504300
C851	C85	0.680700	0.321250	0.562360
C861	C86	0.762800	0.258850	0.571210
H381	H38	0.782100	0.231500	0.606200
C871	C87	0.662800	0.380230	0.409160
C881	C88	0.628300	0.348700	0.609500
N41	N4	0.004300	0.266070	0.617800
H391	H39	0.950600	0.302300	0.611200
H401	H40	0.059800	0.275800	0.644900
O251	O25	0.455560	0.038590	0.794520
O261	O26	0.314700	0.952890	0.756780
O271	O27	0.487370	0.332250	0.728200
O281	O28	0.370030	0.377670	0.651500
O291	O29	0.644300	0.304560	0.652840
O301	O30	0.570250	0.417630	0.600720
O311	O31	0.610910	0.450920	0.411160
O321	O32	0.682800	0.346760	0.366120
Zn71	Zn7	0.528920	0.969210	0.856350
Zn81	Zn8	0.341890	0.821260	0.761340
