data_AVESOL_clean_PM
_symmetry_space_group_name_H-M	'P1'
_cell_length_a	16.147500
_cell_length_b	12.516000
_cell_length_c	19.868700
_cell_angle_alpha	90.000000
_cell_angle_beta	93.321000
_cell_angle_gamma	90.000000
_symmetry_Int_Tables_number 1

loop_
_symmetry_equiv_pos_as_xyz
'x,y,z'

loop_
_atom_site_label
_atom_site_type_symbol
_atom_site_fract_x
_atom_site_fract_y
_atom_site_fract_z
Zn11	Zn1	0.143250	0.564760	0.210310
O11	O1	0.701040	0.011740	0.411600
O21	O2	0.810710	0.963500	0.356950
O31	O3	0.052900	0.613800	0.284920
O41	O4	0.044410	0.459800	0.235310
O51	O5	0.733830	0.252190	0.368590
O61	O6	0.811300	0.213700	0.287430
O71	O7	0.649830	0.465300	0.766050
O81	O8	0.770260	0.483000	0.717940
O91	O9	0.441990	0.835000	0.617820
O101	O10	0.434170	0.740100	0.709410
C11	C1	0.755200	0.945400	0.396760
C21	C2	0.754400	0.836500	0.426710
C31	C3	0.795100	0.754700	0.396560
H11	H1	0.826300	0.770100	0.359900
C41	C4	0.791200	0.650900	0.418760
C51	C5	0.747590	0.630200	0.475670
H21	H2	0.745300	0.560600	0.491900
C61	C6	0.707460	0.710800	0.508760
C71	C7	0.709800	0.813900	0.483230
H31	H3	0.681500	0.868400	0.503900
C81	C8	0.016900	0.526900	0.275400
C91	C9	0.790200	0.273700	0.332800
C101	C10	0.940300	0.502000	0.311110
C111	C11	0.903200	0.403400	0.305640
H41	H4	0.925900	0.350700	0.279300
C121	C12	0.831300	0.382000	0.339580
C131	C13	0.796400	0.462100	0.377020
H51	H5	0.748600	0.448000	0.399400
C141	C14	0.831800	0.562600	0.381430
C151	C15	0.904700	0.581900	0.348990
H61	H6	0.929800	0.648700	0.352600
C161	C16	0.695400	0.504200	0.723140
C171	C17	0.469800	0.764700	0.658300
C181	C18	0.656600	0.582700	0.673870
C191	C19	0.582800	0.632600	0.686760
H71	H7	0.555000	0.613800	0.724700
C201	C20	0.550200	0.710300	0.643240
C211	C21	0.590400	0.735500	0.585930
H81	H8	0.567800	0.787000	0.556500
C221	C22	0.663700	0.685600	0.571340
C231	C23	0.696300	0.609900	0.616460
H91	H9	0.746100	0.576600	0.607900
Zn21	Zn2	0.665810	0.125840	0.346040
Zn31	Zn3	0.856750	0.064760	0.289690
O111	O11	0.298960	0.511740	0.088400
O121	O12	0.189290	0.463500	0.143050
O131	O13	0.947100	0.113800	0.215080
O141	O14	0.955590	0.959800	0.264690
O151	O15	0.266170	0.752190	0.131410
O161	O16	0.188700	0.713700	0.212570
O171	O17	0.350170	0.965300	0.733950
O181	O18	0.229740	0.983000	0.782060
O191	O19	0.558010	0.335000	0.882180
O201	O20	0.565830	0.240100	0.790590
C241	C24	0.244800	0.445400	0.103240
C251	C25	0.245600	0.336500	0.073290
C261	C26	0.204900	0.254700	0.103440
H101	H10	0.173700	0.270100	0.140100
C271	C27	0.208800	0.150900	0.081240
C281	C28	0.252410	0.130200	0.024330
H111	H11	0.254700	0.060600	0.008100
C291	C29	0.292540	0.210800	0.991240
C301	C30	0.290200	0.313900	0.016770
H121	H12	0.318500	0.368400	0.996100
C311	C31	0.983100	0.026900	0.224600
C321	C32	0.209800	0.773700	0.167200
C331	C33	0.059700	0.002000	0.188890
C341	C34	0.096800	0.903400	0.194360
H131	H13	0.074100	0.850700	0.220700
C351	C35	0.168700	0.882000	0.160420
C361	C36	0.203600	0.962100	0.122980
H141	H14	0.251400	0.948000	0.100600
C371	C37	0.168200	0.062600	0.118570
C381	C38	0.095300	0.081900	0.151010
H151	H15	0.070200	0.148700	0.147400
C391	C39	0.304600	0.004200	0.776860
C401	C40	0.530200	0.264700	0.841700
C411	C41	0.343400	0.082700	0.826130
C421	C42	0.417200	0.132600	0.813240
H161	H16	0.445000	0.113800	0.775300
C431	C43	0.449800	0.210300	0.856760
C441	C44	0.409600	0.235500	0.914070
H171	H17	0.432200	0.287000	0.943500
C451	C45	0.336300	0.185600	0.928660
C461	C46	0.303700	0.109900	0.883540
H181	H18	0.253900	0.076600	0.892100
Zn41	Zn4	0.334190	0.625840	0.153960
Zn51	Zn5	0.856750	0.435240	0.789690
O211	O21	0.298960	0.988260	0.588400
O221	O22	0.189290	0.036500	0.643050
O231	O23	0.947100	0.386200	0.715080
O241	O24	0.955590	0.540200	0.764690
O251	O25	0.266170	0.747810	0.631410
O261	O26	0.188700	0.786300	0.712570
O271	O27	0.350170	0.534700	0.233950
O281	O28	0.229740	0.517000	0.282060
O291	O29	0.558010	0.165000	0.382180
O301	O30	0.565830	0.259900	0.290590
C471	C47	0.244800	0.054600	0.603240
C481	C48	0.245600	0.163500	0.573290
C491	C49	0.204900	0.245300	0.603440
H191	H19	0.173700	0.229900	0.640100
C501	C50	0.208800	0.349100	0.581240
C511	C51	0.252410	0.369800	0.524330
H201	H20	0.254700	0.439400	0.508100
C521	C52	0.292540	0.289200	0.491240
C531	C53	0.290200	0.186100	0.516770
H211	H21	0.318500	0.131600	0.496100
C541	C54	0.983100	0.473100	0.724600
C551	C55	0.209800	0.726300	0.667200
C561	C56	0.059700	0.498000	0.688890
C571	C57	0.096800	0.596600	0.694360
H221	H22	0.074100	0.649300	0.720700
C581	C58	0.168700	0.618000	0.660420
C591	C59	0.203600	0.537900	0.622980
H231	H23	0.251400	0.552000	0.600600
C601	C60	0.168200	0.437400	0.618570
C611	C61	0.095300	0.418100	0.651010
H241	H24	0.070200	0.351300	0.647400
C621	C62	0.304600	0.495800	0.276860
C631	C63	0.530200	0.235300	0.341700
C641	C64	0.343400	0.417300	0.326130
C651	C65	0.417200	0.367400	0.313240
H251	H25	0.445000	0.386200	0.275300
C661	C66	0.449800	0.289700	0.356760
C671	C67	0.409600	0.264500	0.414070
H261	H26	0.432200	0.213000	0.443500
C681	C68	0.336300	0.314400	0.428660
C691	C69	0.303700	0.390100	0.383540
H271	H27	0.253900	0.423400	0.392100
Zn61	Zn6	0.334190	0.874160	0.653960
Zn71	Zn7	0.143250	0.935240	0.710310
O311	O31	0.701040	0.488260	0.911600
O321	O32	0.810710	0.536500	0.856950
O331	O33	0.052900	0.886200	0.784920
O341	O34	0.044410	0.040200	0.735310
O351	O35	0.733830	0.247810	0.868590
O361	O36	0.811300	0.286300	0.787430
O371	O37	0.649830	0.034700	0.266050
O381	O38	0.770260	0.017000	0.217940
O391	O39	0.441990	0.665000	0.117820
O401	O40	0.434170	0.759900	0.209410
C701	C70	0.755200	0.554600	0.896760
C711	C71	0.754400	0.663500	0.926710
C721	C72	0.795100	0.745300	0.896560
H281	H28	0.826300	0.729900	0.859900
C731	C73	0.791200	0.849100	0.918760
C741	C74	0.747590	0.869800	0.975670
H291	H29	0.745300	0.939400	0.991900
C751	C75	0.707460	0.789200	0.008760
C761	C76	0.709800	0.686100	0.983230
H301	H30	0.681500	0.631600	0.003900
C771	C77	0.016900	0.973100	0.775400
C781	C78	0.790200	0.226300	0.832800
C791	C79	0.940300	0.998000	0.811110
C801	C80	0.903200	0.096600	0.805640
H311	H31	0.925900	0.149300	0.779300
C811	C81	0.831300	0.118000	0.839580
C821	C82	0.796400	0.037900	0.877020
H321	H32	0.748600	0.052000	0.899400
C831	C83	0.831800	0.937400	0.881430
C841	C84	0.904700	0.918100	0.848990
H331	H33	0.929800	0.851300	0.852600
C851	C85	0.695400	0.995800	0.223140
C861	C86	0.469800	0.735300	0.158300
C871	C87	0.656600	0.917300	0.173870
C881	C88	0.582800	0.867400	0.186760
H341	H34	0.555000	0.886200	0.224700
C891	C89	0.550200	0.789700	0.143240
C901	C90	0.590400	0.764500	0.085930
H351	H35	0.567800	0.713000	0.056500
C911	C91	0.663700	0.814400	0.071340
C921	C92	0.696300	0.890100	0.116460
H361	H36	0.746100	0.923400	0.107900
Zn81	Zn8	0.665810	0.374160	0.846040
