data_AVIPAX_clean_PM
_symmetry_space_group_name_H-M	'P1'
_cell_length_a	11.192900
_cell_length_b	12.347500
_cell_length_c	28.673400
_cell_angle_alpha	98.816000
_cell_angle_beta	90.000000
_cell_angle_gamma	90.000000
_symmetry_Int_Tables_number 1

loop_
_symmetry_equiv_pos_as_xyz
'x,y,z'

loop_
_atom_site_label
_atom_site_type_symbol
_atom_site_fract_x
_atom_site_fract_y
_atom_site_fract_z
Mg11	Mg1	0.173270	0.337070	0.859880
Mg21	Mg2	0.457750	0.553410	0.833910
Mg31	Mg3	0.289800	0.272600	0.141580
Mg41	Mg4	0.673270	0.162930	0.640120
Mg51	Mg5	0.957750	0.946590	0.666090
Mg61	Mg6	0.789800	0.227400	0.358420
Mg71	Mg7	0.826730	0.662930	0.140120
Mg81	Mg8	0.542250	0.446590	0.166090
Mg91	Mg9	0.710200	0.727400	0.858420
Mg101	Mg10	0.326730	0.837070	0.359880
Mg111	Mg11	0.042250	0.053410	0.333910
Mg121	Mg12	0.210200	0.772600	0.641580
H11	H1	0.516000	0.332000	0.715900
H21	H2	0.194100	0.195600	0.733600
H31	H3	0.432700	0.050800	0.638700
H41	H4	0.343600	0.315600	0.985400
H51	H5	0.649600	0.424900	0.935200
H61	H6	0.644900	0.352000	0.063500
H71	H7	0.966100	0.647600	0.883800
H81	H8	0.200500	0.680100	0.780200
H91	H9	0.872000	0.817500	0.784300
H101	H10	0.016000	0.168000	0.784100
H111	H11	0.694100	0.304400	0.766400
H121	H12	0.932700	0.449200	0.861300
H131	H13	0.843600	0.184400	0.514600
H141	H14	0.149600	0.075100	0.564800
H151	H15	0.144900	0.148000	0.436500
H161	H16	0.466100	0.852400	0.616200
H171	H17	0.700500	0.819900	0.719800
H181	H18	0.372000	0.682500	0.715700
H191	H19	0.484000	0.668000	0.284100
H201	H20	0.805900	0.804400	0.266400
H211	H21	0.567300	0.949200	0.361300
H221	H22	0.656400	0.684400	0.014600
H231	H23	0.350400	0.575100	0.064800
H241	H24	0.355100	0.648000	0.936500
H251	H25	0.033900	0.352400	0.116200
H261	H26	0.799500	0.319900	0.219800
H271	H27	0.128000	0.182500	0.215700
H281	H28	0.984000	0.832000	0.215900
H291	H29	0.305900	0.695600	0.233600
H301	H30	0.067300	0.550800	0.138700
H311	H31	0.156400	0.815600	0.485400
H321	H32	0.850400	0.924900	0.435200
H331	H33	0.855100	0.852000	0.563500
H341	H34	0.533900	0.147600	0.383800
H351	H35	0.299500	0.180100	0.280200
H361	H36	0.628000	0.317500	0.284300
C11	C1	0.460700	0.273900	0.707620
C21	C2	0.350600	0.278900	0.730910
C31	C3	0.269700	0.194400	0.718470
C41	C4	0.300410	0.107780	0.683580
C51	C5	0.411900	0.109900	0.662550
C61	C6	0.324400	0.369140	0.771290
C71	C7	0.184360	0.582440	0.857370
C81	C8	0.424600	0.390960	0.907620
C91	C9	0.414600	0.302600	0.073100
C101	C10	0.483700	0.331200	0.031540
C111	C11	0.425000	0.336790	0.989280
C121	C12	0.486500	0.373590	0.952750
C131	C13	0.607100	0.398900	0.959900
C141	C14	0.604500	0.357100	0.034740
C151	C15	0.218460	0.011250	0.671100
C161	C16	0.055490	0.789450	0.727030
C171	C17	0.037680	0.752310	0.774250
C181	C18	0.985190	0.676480	0.855890
C191	C19	0.096620	0.653700	0.835950
C201	C20	0.124230	0.693190	0.794450
C211	C21	0.929300	0.774290	0.797570
C221	C22	0.960700	0.226100	0.792380
C231	C23	0.850600	0.221100	0.769090
C241	C24	0.769700	0.305600	0.781530
C251	C25	0.800410	0.392220	0.816420
C261	C26	0.911900	0.390100	0.837450
C271	C27	0.824400	0.130860	0.728710
C281	C28	0.684360	0.917560	0.642630
C291	C29	0.924600	0.109040	0.592380
C301	C30	0.914600	0.197400	0.426900
C311	C31	0.983700	0.168800	0.468460
C321	C32	0.925000	0.163210	0.510720
C331	C33	0.986500	0.126410	0.547250
C341	C34	0.107100	0.101100	0.540100
C351	C35	0.104500	0.142900	0.465260
C361	C36	0.718460	0.488750	0.828900
C371	C37	0.555490	0.710550	0.772970
C381	C38	0.537680	0.747690	0.725750
C391	C39	0.485190	0.823520	0.644110
C401	C40	0.596620	0.846300	0.664050
C411	C41	0.624230	0.806810	0.705550
C421	C42	0.429300	0.725710	0.702430
C431	C43	0.539300	0.726100	0.292380
C441	C44	0.649400	0.721100	0.269090
C451	C45	0.730300	0.805600	0.281530
C461	C46	0.699590	0.892220	0.316420
C471	C47	0.588100	0.890100	0.337450
C481	C48	0.675600	0.630860	0.228710
C491	C49	0.815640	0.417560	0.142630
C501	C50	0.575400	0.609040	0.092380
C511	C51	0.585400	0.697400	0.926900
C521	C52	0.516300	0.668800	0.968460
C531	C53	0.575000	0.663210	0.010720
C541	C54	0.513500	0.626410	0.047250
C551	C55	0.392900	0.601100	0.040100
C561	C56	0.395500	0.642900	0.965260
C571	C57	0.781540	0.988750	0.328900
C581	C58	0.944510	0.210550	0.272970
C591	C59	0.962320	0.247690	0.225750
C601	C60	0.014810	0.323520	0.144110
C611	C61	0.903380	0.346300	0.164050
C621	C62	0.875770	0.306810	0.205550
C631	C63	0.070700	0.225710	0.202430
C641	C64	0.039300	0.773900	0.207620
C651	C65	0.149400	0.778900	0.230910
C661	C66	0.230300	0.694400	0.218470
C671	C67	0.199590	0.607780	0.183580
C681	C68	0.088100	0.609900	0.162550
C691	C69	0.175600	0.869140	0.271290
C701	C70	0.315640	0.082440	0.357370
C711	C71	0.075400	0.890960	0.407620
C721	C72	0.085400	0.802600	0.573100
C731	C73	0.016300	0.831200	0.531540
C741	C74	0.075000	0.836790	0.489280
C751	C75	0.013500	0.873590	0.452750
C761	C76	0.892900	0.898900	0.459900
C771	C77	0.895500	0.857100	0.534740
C781	C78	0.281540	0.511250	0.171100
C791	C79	0.444510	0.289450	0.227030
C801	C80	0.462320	0.252310	0.274250
C811	C81	0.514810	0.176480	0.355890
C821	C82	0.403380	0.153700	0.335950
C831	C83	0.375770	0.193190	0.294450
C841	C84	0.570700	0.274290	0.297570
N11	N1	0.491840	0.190500	0.674000
N21	N2	0.902130	0.737410	0.837800
N31	N3	0.666790	0.388800	0.999500
N41	N4	0.991840	0.309500	0.826000
N51	N5	0.402130	0.762590	0.662200
N61	N6	0.166790	0.111200	0.500500
N71	N7	0.508160	0.809500	0.326000
N81	N8	0.097870	0.262590	0.162200
N91	N9	0.333210	0.611200	0.000500
N101	N10	0.008160	0.690500	0.174000
N111	N11	0.597870	0.237410	0.337800
N121	N12	0.833210	0.888800	0.499500
O11	O1	0.292010	0.607350	0.854420
O21	O2	0.142250	0.505470	0.876350
O31	O3	0.476390	0.451880	0.883170
O41	O4	0.327010	0.342420	0.898900
O51	O5	0.394410	0.447970	0.777340
O61	O6	0.234610	0.355400	0.795800
O71	O7	0.462110	0.316830	0.114060
O81	O8	0.310390	0.265210	0.066980
O91	O9	0.258950	0.932020	0.642550
O101	O10	0.119300	0.014990	0.690770
O111	O11	0.156930	0.771960	0.708250
O121	O12	0.968010	0.832060	0.710310
O131	O13	0.792010	0.892650	0.645580
O141	O14	0.642250	0.994530	0.623650
O151	O15	0.976390	0.048120	0.616830
O161	O16	0.827010	0.157580	0.601100
O171	O17	0.894410	0.052030	0.722660
O181	O18	0.734610	0.144600	0.704200
O191	O19	0.962110	0.183170	0.385940
O201	O20	0.810390	0.234790	0.433020
O211	O21	0.758950	0.567980	0.857450
O221	O22	0.619300	0.485010	0.809230
O231	O23	0.656930	0.728040	0.791750
O241	O24	0.468010	0.667940	0.789690
O251	O25	0.707990	0.392650	0.145580
O261	O26	0.857750	0.494530	0.123650
O271	O27	0.523610	0.548120	0.116830
O281	O28	0.672990	0.657580	0.101100
O291	O29	0.605590	0.552030	0.222660
O301	O30	0.765390	0.644600	0.204200
O311	O31	0.537890	0.683170	0.885940
O321	O32	0.689610	0.734790	0.933020
O331	O33	0.741050	0.067980	0.357450
O341	O34	0.880700	0.985010	0.309230
O351	O35	0.843070	0.228040	0.291750
O361	O36	0.031990	0.167940	0.289690
O371	O37	0.207990	0.107350	0.354420
O381	O38	0.357750	0.005470	0.376350
O391	O39	0.023610	0.951880	0.383170
O401	O40	0.172990	0.842420	0.398900
O411	O41	0.105590	0.947970	0.277340
O421	O42	0.265390	0.855400	0.295800
O431	O43	0.037890	0.816830	0.614060
O441	O44	0.189610	0.765210	0.566980
O451	O45	0.241050	0.432020	0.142550
O461	O46	0.380700	0.514990	0.190770
O471	O47	0.343070	0.271960	0.208250
O481	O48	0.531990	0.332060	0.210310
