data_AVIPOL_clean_PM
_symmetry_space_group_name_H-M	'P1'
_cell_length_a	13.744200
_cell_length_b	14.288700
_cell_length_c	14.117800
_cell_angle_alpha	90.000000
_cell_angle_beta	104.912000
_cell_angle_gamma	90.000000
_symmetry_Int_Tables_number 1

loop_
_symmetry_equiv_pos_as_xyz
'x,y,z'

loop_
_atom_site_label
_atom_site_type_symbol
_atom_site_fract_x
_atom_site_fract_y
_atom_site_fract_z
Mg11	Mg1	0.125290	0.208770	0.517380
Mg21	Mg2	0.383410	0.098880	0.551420
O11	O1	0.191450	0.220520	0.404480
O21	O2	0.356180	0.189630	0.436980
O31	O3	0.136930	0.494030	0.046130
O41	O4	0.031240	0.411320	0.108070
O51	O5	0.385650	0.201300	0.650920
O61	O6	0.237100	0.273780	0.617790
O71	O7	0.317280	0.574590	0.957720
O81	O8	0.180320	0.509200	0.865800
N11	N1	0.371160	0.318870	0.177350
N21	N2	0.483960	0.341070	0.912290
C11	C1	0.275760	0.224380	0.386280
C21	C2	0.279900	0.276690	0.294750
C31	C3	0.364240	0.273900	0.258200
H11	H1	0.419200	0.238700	0.291900
C41	C4	0.292230	0.370900	0.130690
H21	H2	0.297200	0.404600	0.075800
C51	C5	0.203540	0.377210	0.159880
C61	C6	0.116450	0.432760	0.099510
C71	C7	0.197570	0.328310	0.242810
H31	H3	0.138700	0.330000	0.263700
C81	C8	0.324560	0.259480	0.668130
C91	C9	0.359590	0.317420	0.759530
C101	C10	0.450610	0.297100	0.825930
H41	H4	0.490700	0.250500	0.809800
C111	C11	0.426480	0.409880	0.932310
H51	H5	0.448400	0.441200	0.991700
C121	C12	0.335530	0.437300	0.869100
C131	C13	0.274000	0.513400	0.898820
C141	C14	0.301240	0.388750	0.781970
H61	H6	0.239700	0.403900	0.739100
Mg31	Mg3	0.374710	0.708770	0.982620
Mg41	Mg4	0.116590	0.598880	0.948580
O91	O9	0.308550	0.720520	0.095520
O101	O10	0.143820	0.689630	0.063020
O111	O11	0.363070	0.994030	0.453870
O121	O12	0.468760	0.911320	0.391930
O131	O13	0.114350	0.701300	0.849080
O141	O14	0.262900	0.773780	0.882210
O151	O15	0.182720	0.074590	0.542280
O161	O16	0.319680	0.009200	0.634200
N31	N3	0.128840	0.818870	0.322650
N41	N4	0.016040	0.841070	0.587710
C151	C15	0.224240	0.724380	0.113720
C161	C16	0.220100	0.776690	0.205250
C171	C17	0.135760	0.773900	0.241800
H71	H7	0.080800	0.738700	0.208100
C181	C18	0.207770	0.870900	0.369310
H81	H8	0.202800	0.904600	0.424200
C191	C19	0.296460	0.877210	0.340120
C201	C20	0.383550	0.932760	0.400490
C211	C21	0.302430	0.828310	0.257190
H91	H9	0.361300	0.830000	0.236300
C221	C22	0.175440	0.759480	0.831870
C231	C23	0.140410	0.817420	0.740470
C241	C24	0.049390	0.797100	0.674070
H101	H10	0.009300	0.750500	0.690200
C251	C25	0.073520	0.909880	0.567690
H111	H11	0.051600	0.941200	0.508300
C261	C26	0.164470	0.937300	0.630900
C271	C27	0.226000	0.013400	0.601180
C281	C28	0.198760	0.888750	0.718030
H121	H12	0.260300	0.903900	0.760900
Mg51	Mg5	0.874710	0.791230	0.482620
Mg61	Mg6	0.616590	0.901120	0.448580
O171	O17	0.808550	0.779480	0.595520
O181	O18	0.643820	0.810370	0.563020
O191	O19	0.863070	0.505970	0.953870
O201	O20	0.968760	0.588680	0.891930
O211	O21	0.614350	0.798700	0.349080
O221	O22	0.762900	0.726220	0.382210
O231	O23	0.682720	0.425410	0.042280
O241	O24	0.819680	0.490800	0.134200
N51	N5	0.628840	0.681130	0.822650
N61	N6	0.516040	0.658930	0.087710
C291	C29	0.724240	0.775620	0.613720
C301	C30	0.720100	0.723310	0.705250
C311	C31	0.635760	0.726100	0.741800
H131	H13	0.580800	0.761300	0.708100
C321	C32	0.707770	0.629100	0.869310
H141	H14	0.702800	0.595400	0.924200
C331	C33	0.796460	0.622790	0.840120
C341	C34	0.883550	0.567240	0.900490
C351	C35	0.802430	0.671690	0.757190
H151	H15	0.861300	0.670000	0.736300
C361	C36	0.675440	0.740520	0.331870
C371	C37	0.640410	0.682580	0.240470
C381	C38	0.549390	0.702900	0.174070
H161	H16	0.509300	0.749500	0.190200
C391	C39	0.573520	0.590120	0.067690
H171	H17	0.551600	0.558800	0.008300
C401	C40	0.664470	0.562700	0.130900
C411	C41	0.726000	0.486600	0.101180
C421	C42	0.698760	0.611250	0.218030
H181	H18	0.760300	0.596100	0.260900
Mg71	Mg7	0.625290	0.291230	0.017380
Mg81	Mg8	0.883410	0.401120	0.051420
O251	O25	0.691450	0.279480	0.904480
O261	O26	0.856180	0.310370	0.936980
O271	O27	0.636930	0.005970	0.546130
O281	O28	0.531240	0.088680	0.608070
O291	O29	0.885650	0.298700	0.150920
O301	O30	0.737100	0.226220	0.117790
O311	O31	0.817280	0.925410	0.457720
O321	O32	0.680320	0.990800	0.365800
N71	N7	0.871160	0.181130	0.677350
N81	N8	0.983960	0.158930	0.412290
C431	C43	0.775760	0.275620	0.886280
C441	C44	0.779900	0.223310	0.794750
C451	C45	0.864240	0.226100	0.758200
H191	H19	0.919200	0.261300	0.791900
C461	C46	0.792230	0.129100	0.630690
H201	H20	0.797200	0.095400	0.575800
C471	C47	0.703540	0.122790	0.659880
C481	C48	0.616450	0.067240	0.599510
C491	C49	0.697570	0.171690	0.742810
H211	H21	0.638700	0.170000	0.763700
C501	C50	0.824560	0.240520	0.168130
C511	C51	0.859590	0.182580	0.259530
C521	C52	0.950610	0.202900	0.325930
H221	H22	0.990700	0.249500	0.309800
C531	C53	0.926480	0.090120	0.432310
H231	H23	0.948400	0.058800	0.491700
C541	C54	0.835530	0.062700	0.369100
C551	C55	0.774000	0.986600	0.398820
C561	C56	0.801240	0.111250	0.281970
H241	H24	0.739700	0.096100	0.239100
