data_AWAGEL_clean_PM
_symmetry_space_group_name_H-M	'P1'
_cell_length_a	9.266300
_cell_length_b	14.912700
_cell_length_c	27.248100
_cell_angle_alpha	98.253000
_cell_angle_beta	90.000000
_cell_angle_gamma	90.000000
_symmetry_Int_Tables_number 1

loop_
_symmetry_equiv_pos_as_xyz
'x,y,z'

loop_
_atom_site_label
_atom_site_type_symbol
_atom_site_fract_x
_atom_site_fract_y
_atom_site_fract_z
Cd11	Cd1	0.791200	0.506850	0.226090
Cd21	Cd2	0.208800	0.006850	0.726090
H11	H1	0.239800	0.091100	0.018600
H21	H2	0.209200	0.069600	0.933400
H31	H3	0.183700	0.801700	0.934000
H41	H4	0.237500	0.821700	0.016900
H51	H5	0.086800	0.790600	0.855000
H61	H6	0.075800	0.823100	0.770500
H71	H7	0.222400	0.042400	0.853000
H81	H8	0.491500	0.075000	0.061400
H91	H9	0.550400	0.218700	0.101600
H101	H10	0.238500	0.198900	0.200600
H111	H11	0.168700	0.061800	0.156800
H121	H12	0.255300	0.378000	0.200900
H131	H13	0.415400	0.499600	0.239300
H141	H14	0.662400	0.302800	0.180000
H151	H15	0.033600	0.887500	0.082900
H161	H16	0.968900	0.770400	0.126800
H171	H17	0.361000	0.783700	0.189000
H181	H18	0.429500	0.895800	0.142100
H191	H19	0.311700	0.633700	0.205400
H201	H20	0.157200	0.532400	0.245200
H211	H21	0.902800	0.704000	0.192500
H221	H22	0.760200	0.591100	0.518600
H231	H23	0.790800	0.569600	0.433400
H241	H24	0.816300	0.301700	0.434000
H251	H25	0.762500	0.321700	0.516900
H261	H26	0.913200	0.290600	0.355000
H271	H27	0.924200	0.323100	0.270500
H281	H28	0.777600	0.542400	0.353000
H291	H29	0.508500	0.575000	0.561400
H301	H30	0.449600	0.718700	0.601600
H311	H31	0.761500	0.698900	0.700600
H321	H32	0.831300	0.561800	0.656800
H331	H33	0.744700	0.878000	0.700900
H341	H34	0.584600	0.999600	0.739300
H351	H35	0.337600	0.802800	0.680000
H361	H36	0.966400	0.387500	0.582900
H371	H37	0.031100	0.270400	0.626800
H381	H38	0.639000	0.283700	0.689000
H391	H39	0.570500	0.395800	0.642100
H401	H40	0.688300	0.133700	0.705400
H411	H41	0.842800	0.032400	0.745200
H421	H42	0.097200	0.204000	0.692500
C11	C1	0.249100	0.958800	0.027400
C21	C2	0.233900	0.032600	0.001500
C31	C3	0.209800	0.019900	0.950500
C41	C4	0.187100	0.934000	0.925110
C51	C5	0.197800	0.859900	0.950800
C61	C6	0.229200	0.872100	0.000600
C71	C7	0.112500	0.844900	0.844300
C81	C8	0.107700	0.863000	0.797700
C91	C9	0.188100	0.984000	0.842780
C101	C10	0.322700	0.054700	0.104500
C111	C11	0.438200	0.100700	0.088800
C121	C12	0.476100	0.186000	0.113700
C131	C13	0.403700	0.221400	0.155900
C141	C14	0.288500	0.174800	0.172200
C151	C15	0.247600	0.092300	0.146100
C161	C16	0.355700	0.377100	0.201600
C171	C17	0.446100	0.444200	0.222400
C181	C18	0.581200	0.336900	0.190400
C191	C19	0.235400	0.901300	0.107200
C201	C20	0.100700	0.865400	0.103600
C211	C21	0.060500	0.795900	0.130100
C221	C22	0.161400	0.766300	0.161520
C231	C23	0.296100	0.803600	0.166800
C241	C24	0.337100	0.871300	0.139300
C251	C25	0.211600	0.635600	0.207400
C261	C26	0.124700	0.579900	0.229400
C271	C27	0.984900	0.673400	0.200600
C281	C28	0.750900	0.458800	0.527400
C291	C29	0.766100	0.532600	0.501500
C301	C30	0.790200	0.519900	0.450500
C311	C31	0.812900	0.434000	0.425110
C321	C32	0.802200	0.359900	0.450800
C331	C33	0.770800	0.372100	0.500600
C341	C34	0.887500	0.344900	0.344300
C351	C35	0.892300	0.363000	0.297700
C361	C36	0.811900	0.484000	0.342780
C371	C37	0.677300	0.554700	0.604500
C381	C38	0.561800	0.600700	0.588800
C391	C39	0.523900	0.686000	0.613700
C401	C40	0.596300	0.721400	0.655900
C411	C41	0.711500	0.674800	0.672200
C421	C42	0.752400	0.592300	0.646100
C431	C43	0.644300	0.877100	0.701600
C441	C44	0.553900	0.944200	0.722400
C451	C45	0.418800	0.836900	0.690400
C461	C46	0.764600	0.401300	0.607200
C471	C47	0.899300	0.365400	0.603600
C481	C48	0.939500	0.295900	0.630100
C491	C49	0.838600	0.266300	0.661520
C501	C50	0.703900	0.303600	0.666800
C511	C51	0.662900	0.371300	0.639300
C521	C52	0.788400	0.135600	0.707400
C531	C53	0.875300	0.079900	0.729400
C541	C54	0.015100	0.173400	0.700600
N11	N1	0.585400	0.419900	0.215500
N21	N2	0.444800	0.308200	0.182110
N31	N3	0.278000	0.970600	0.078240
N41	N4	0.162600	0.921500	0.873520
N51	N5	0.157300	0.950200	0.796210
N61	N6	0.121600	0.694800	0.188940
N71	N7	0.984100	0.602900	0.225340
N81	N8	0.414600	0.919900	0.715500
N91	N9	0.555200	0.808200	0.682110
N101	N10	0.722000	0.470600	0.578240
N111	N11	0.837400	0.421500	0.373520
N121	N12	0.842700	0.450200	0.296210
N131	N13	0.878400	0.194800	0.688940
N141	N14	0.015900	0.102900	0.725340
Cd31	Cd3	0.791200	0.993150	0.273910
Cd41	Cd4	0.208800	0.493150	0.773910
H431	H43	0.239800	0.408900	0.481400
H441	H44	0.209200	0.430400	0.566600
H451	H45	0.183700	0.698300	0.566000
H461	H46	0.237500	0.678300	0.483100
H471	H47	0.086800	0.709400	0.645000
H481	H48	0.075800	0.676900	0.729500
H491	H49	0.222400	0.457600	0.647000
H501	H50	0.491500	0.425000	0.438600
H511	H51	0.550400	0.281300	0.398400
H521	H52	0.238500	0.301100	0.299400
H531	H53	0.168700	0.438200	0.343200
H541	H54	0.255300	0.122000	0.299100
H551	H55	0.415400	0.000400	0.260700
H561	H56	0.662400	0.197200	0.320000
H571	H57	0.033600	0.612500	0.417100
H581	H58	0.968900	0.729600	0.373200
H591	H59	0.361000	0.716300	0.311000
H601	H60	0.429500	0.604200	0.357900
H611	H61	0.311700	0.866300	0.294600
H621	H62	0.157200	0.967600	0.254800
H631	H63	0.902800	0.796000	0.307500
H641	H64	0.760200	0.908900	0.981400
H651	H65	0.790800	0.930400	0.066600
H661	H66	0.816300	0.198300	0.066000
H671	H67	0.762500	0.178300	0.983100
H681	H68	0.913200	0.209400	0.145000
H691	H69	0.924200	0.176900	0.229500
H701	H70	0.777600	0.957600	0.147000
H711	H71	0.508500	0.925000	0.938600
H721	H72	0.449600	0.781300	0.898400
H731	H73	0.761500	0.801100	0.799400
H741	H74	0.831300	0.938200	0.843200
H751	H75	0.744700	0.622000	0.799100
H761	H76	0.584600	0.500400	0.760700
H771	H77	0.337600	0.697200	0.820000
H781	H78	0.966400	0.112500	0.917100
H791	H79	0.031100	0.229600	0.873200
H801	H80	0.639000	0.216300	0.811000
H811	H81	0.570500	0.104200	0.857900
H821	H82	0.688300	0.366300	0.794600
H831	H83	0.842800	0.467600	0.754800
H841	H84	0.097200	0.296000	0.807500
C551	C55	0.249100	0.541200	0.472600
C561	C56	0.233900	0.467400	0.498500
C571	C57	0.209800	0.480100	0.549500
C581	C58	0.187100	0.566000	0.574890
C591	C59	0.197800	0.640100	0.549200
C601	C60	0.229200	0.627900	0.499400
C611	C61	0.112500	0.655100	0.655700
C621	C62	0.107700	0.637000	0.702300
C631	C63	0.188100	0.516000	0.657220
C641	C64	0.322700	0.445300	0.395500
C651	C65	0.438200	0.399300	0.411200
C661	C66	0.476100	0.314000	0.386300
C671	C67	0.403700	0.278600	0.344100
C681	C68	0.288500	0.325200	0.327800
C691	C69	0.247600	0.407700	0.353900
C701	C70	0.355700	0.122900	0.298400
C711	C71	0.446100	0.055800	0.277600
C721	C72	0.581200	0.163100	0.309600
C731	C73	0.235400	0.598700	0.392800
C741	C74	0.100700	0.634600	0.396400
C751	C75	0.060500	0.704100	0.369900
C761	C76	0.161400	0.733700	0.338480
C771	C77	0.296100	0.696400	0.333200
C781	C78	0.337100	0.628700	0.360700
C791	C79	0.211600	0.864400	0.292600
C801	C80	0.124700	0.920100	0.270600
C811	C81	0.984900	0.826600	0.299400
C821	C82	0.750900	0.041200	0.972600
C831	C83	0.766100	0.967400	0.998500
C841	C84	0.790200	0.980100	0.049500
C851	C85	0.812900	0.066000	0.074890
C861	C86	0.802200	0.140100	0.049200
C871	C87	0.770800	0.127900	0.999400
C881	C88	0.887500	0.155100	0.155700
C891	C89	0.892300	0.137000	0.202300
C901	C90	0.811900	0.016000	0.157220
C911	C91	0.677300	0.945300	0.895500
C921	C92	0.561800	0.899300	0.911200
C931	C93	0.523900	0.814000	0.886300
C941	C94	0.596300	0.778600	0.844100
C951	C95	0.711500	0.825200	0.827800
C961	C96	0.752400	0.907700	0.853900
C971	C97	0.644300	0.622900	0.798400
C981	C98	0.553900	0.555800	0.777600
C991	C99	0.418800	0.663100	0.809600
C1001	C100	0.764600	0.098700	0.892800
C1011	C101	0.899300	0.134600	0.896400
C1021	C102	0.939500	0.204100	0.869900
C1031	C103	0.838600	0.233700	0.838480
C1041	C104	0.703900	0.196400	0.833200
C1051	C105	0.662900	0.128700	0.860700
C1061	C106	0.788400	0.364400	0.792600
C1071	C107	0.875300	0.420100	0.770600
C1081	C108	0.015100	0.326600	0.799400
N151	N15	0.585400	0.080100	0.284500
N161	N16	0.444800	0.191800	0.317890
N171	N17	0.278000	0.529400	0.421760
N181	N18	0.162600	0.578500	0.626480
N191	N19	0.157300	0.549800	0.703790
N201	N20	0.121600	0.805200	0.311060
N211	N21	0.984100	0.897100	0.274660
N221	N22	0.414600	0.580100	0.784500
N231	N23	0.555200	0.691800	0.817890
N241	N24	0.722000	0.029400	0.921760
N251	N25	0.837400	0.078500	0.126480
N261	N26	0.842700	0.049800	0.203790
N271	N27	0.878400	0.305200	0.811060
N281	N28	0.015900	0.397100	0.774660
