data_AWAGOV_clean_PM
_symmetry_space_group_name_H-M	'P1'
_cell_length_a	22.466000
_cell_length_b	22.466000
_cell_length_c	13.387000
_cell_angle_alpha	90.000000
_cell_angle_beta	90.000000
_cell_angle_gamma	90.000000
_symmetry_Int_Tables_number 1

loop_
_symmetry_equiv_pos_as_xyz
'x,y,z'

loop_
_atom_site_label
_atom_site_type_symbol
_atom_site_fract_x
_atom_site_fract_y
_atom_site_fract_z
Ni11	Ni1	0.182730	0.065800	0.724060
C11	C1	0.084440	0.366970	0.265800
C21	C2	0.096410	0.427150	0.262800
H11	H1	0.075400	0.451400	0.219000
C31	C3	0.139380	0.451920	0.324500
H21	H2	0.146900	0.492600	0.322700
C41	C4	0.170940	0.415350	0.388900
C51	C5	0.161360	0.354970	0.388300
H31	H3	0.184300	0.330300	0.428700
C61	C6	0.118230	0.331080	0.328400
H41	H4	0.111400	0.290300	0.329500
C71	C7	0.231180	0.417190	0.543900
H51	H5	0.217000	0.381300	0.569100
C81	C8	0.278900	0.498270	0.527700
H61	H6	0.304400	0.529900	0.540600
C91	C9	0.244200	0.492920	0.445500
H71	H7	0.242000	0.519400	0.392200
C101	C10	0.958660	0.399800	0.276600
H81	H8	0.979000	0.400900	0.337100
C111	C11	0.903680	0.427000	0.268100
H91	H9	0.887400	0.446500	0.322900
C121	C12	0.872850	0.425560	0.179200
C131	C13	0.897140	0.396700	0.097000
H101	H10	0.876300	0.394700	0.037100
C141	C14	0.952900	0.370910	0.105700
H111	H11	0.970200	0.353100	0.050100
C151	C15	0.983370	0.371130	0.195800
C161	C16	0.766540	0.427130	0.125400
H121	H12	0.765600	0.392300	0.087800
C171	C17	0.720920	0.463530	0.144600
H131	H13	0.682000	0.457500	0.123200
C181	C18	0.796470	0.502150	0.215900
H141	H14	0.821000	0.527500	0.252400
C191	C19	0.008240	0.246650	0.133700
H151	H15	0.970900	0.251100	0.162800
C201	C20	0.020000	0.196520	0.075400
H161	H16	0.990800	0.167800	0.065400
C211	C21	0.075540	0.190020	0.032800
C221	C22	0.118930	0.231550	0.050100
H171	H17	0.156900	0.226000	0.023900
C231	C23	0.106760	0.281790	0.106500
H181	H18	0.136000	0.310500	0.116000
C241	C24	0.050720	0.289350	0.148900
C251	C25	0.130070	0.138330	0.897800
H191	H19	0.155400	0.169900	0.883400
C261	C26	0.060100	0.086110	0.968100
H201	H20	0.028900	0.073800	0.008800
C271	C27	0.087110	0.053840	0.894000
H211	H21	0.077200	0.015100	0.876100
C281	C28	0.093120	0.039830	0.630700
C291	C29	0.044760	0.019260	0.564500
C301	C30	0.037160	0.958740	0.545700
H221	H22	0.062000	0.931000	0.576100
C311	C31	0.007520	0.060130	0.518400
H231	H23	0.012600	0.100600	0.530600
N11	N1	0.038970	0.341480	0.205000
N21	N2	0.213060	0.440930	0.456400
N31	N3	0.270740	0.449920	0.589400
N41	N4	0.814980	0.451380	0.172000
N51	N5	0.739850	0.511260	0.200800
N61	N6	0.088120	0.139770	0.969980
N71	N7	0.130870	0.087220	0.850300
O11	O1	0.107320	0.093840	0.634100
O21	O2	0.121310	0.001580	0.682790
Ni21	Ni2	0.317270	0.434200	0.724060
C321	C32	0.415560	0.133030	0.265800
C331	C33	0.403590	0.072850	0.262800
H241	H24	0.424600	0.048600	0.219000
C341	C34	0.360620	0.048080	0.324500
H251	H25	0.353100	0.007400	0.322700
C351	C35	0.329060	0.084650	0.388900
C361	C36	0.338640	0.145030	0.388300
H261	H26	0.315700	0.169700	0.428700
C371	C37	0.381770	0.168920	0.328400
H271	H27	0.388600	0.209700	0.329500
C381	C38	0.268820	0.082810	0.543900
H281	H28	0.283000	0.118700	0.569100
C391	C39	0.221100	0.001730	0.527700
H291	H29	0.195600	0.970100	0.540600
C401	C40	0.255800	0.007080	0.445500
H301	H30	0.258000	0.980600	0.392200
C411	C41	0.541340	0.100200	0.276600
H311	H31	0.521000	0.099100	0.337100
C421	C42	0.596320	0.073000	0.268100
H321	H32	0.612600	0.053500	0.322900
C431	C43	0.627150	0.074440	0.179200
C441	C44	0.602860	0.103300	0.097000
H331	H33	0.623700	0.105300	0.037100
C451	C45	0.547100	0.129090	0.105700
H341	H34	0.529800	0.146900	0.050100
C461	C46	0.516630	0.128870	0.195800
C471	C47	0.733460	0.072870	0.125400
H351	H35	0.734400	0.107700	0.087800
C481	C48	0.779080	0.036470	0.144600
H361	H36	0.818000	0.042500	0.123200
C491	C49	0.703530	0.997850	0.215900
H371	H37	0.679000	0.972500	0.252400
C501	C50	0.491760	0.253350	0.133700
H381	H38	0.529100	0.248900	0.162800
C511	C51	0.480000	0.303480	0.075400
H391	H39	0.509200	0.332200	0.065400
C521	C52	0.424460	0.309980	0.032800
C531	C53	0.381070	0.268450	0.050100
H401	H40	0.343100	0.274000	0.023900
C541	C54	0.393240	0.218210	0.106500
H411	H41	0.364000	0.189500	0.116000
C551	C55	0.449280	0.210650	0.148900
C561	C56	0.369930	0.361670	0.897800
H421	H42	0.344600	0.330100	0.883400
C571	C57	0.439900	0.413890	0.968100
H431	H43	0.471100	0.426200	0.008800
C581	C58	0.412890	0.446160	0.894000
H441	H44	0.422800	0.484900	0.876100
C591	C59	0.406880	0.460170	0.630700
C601	C60	0.455240	0.480740	0.564500
C611	C61	0.462840	0.541260	0.545700
H451	H45	0.438000	0.569000	0.576100
C621	C62	0.492480	0.439870	0.518400
H461	H46	0.487400	0.399400	0.530600
N81	N8	0.461030	0.158520	0.205000
N91	N9	0.286940	0.059070	0.456400
N101	N10	0.229260	0.050080	0.589400
N111	N11	0.685020	0.048620	0.172000
N121	N12	0.760150	0.988740	0.200800
N131	N13	0.411880	0.360230	0.969980
N141	N14	0.369130	0.412780	0.850300
O31	O3	0.392680	0.406160	0.634100
O41	O4	0.378690	0.498420	0.682790
Ni31	Ni3	0.817270	0.934200	0.275940
C631	C63	0.915560	0.633030	0.734200
C641	C64	0.903590	0.572850	0.737200
H471	H47	0.924600	0.548600	0.781000
C651	C65	0.860620	0.548080	0.675500
H481	H48	0.853100	0.507400	0.677300
C661	C66	0.829060	0.584650	0.611100
C671	C67	0.838640	0.645030	0.611700
H491	H49	0.815700	0.669700	0.571300
C681	C68	0.881770	0.668920	0.671600
H501	H50	0.888600	0.709700	0.670500
C691	C69	0.768820	0.582810	0.456100
H511	H51	0.783000	0.618700	0.430900
C701	C70	0.721100	0.501730	0.472300
H521	H52	0.695600	0.470100	0.459400
C711	C71	0.755800	0.507080	0.554500
H531	H53	0.758000	0.480600	0.607800
C721	C72	0.041340	0.600200	0.723400
H541	H54	0.021000	0.599100	0.662900
C731	C73	0.096320	0.573000	0.731900
H551	H55	0.112600	0.553500	0.677100
C741	C74	0.127150	0.574440	0.820800
C751	C75	0.102860	0.603300	0.903000
H561	H56	0.123700	0.605300	0.962900
C761	C76	0.047100	0.629090	0.894300
H571	H57	0.029800	0.646900	0.949900
C771	C77	0.016630	0.628870	0.804200
C781	C78	0.233460	0.572870	0.874600
H581	H58	0.234400	0.607700	0.912200
C791	C79	0.279080	0.536470	0.855400
H591	H59	0.318000	0.542500	0.876800
C801	C80	0.203530	0.497850	0.784100
H601	H60	0.179000	0.472500	0.747600
C811	C81	0.991760	0.753350	0.866300
H611	H61	0.029100	0.748900	0.837200
C821	C82	0.980000	0.803480	0.924600
H621	H62	0.009200	0.832200	0.934600
C831	C83	0.924460	0.809980	0.967200
C841	C84	0.881070	0.768450	0.949900
H631	H63	0.843100	0.774000	0.976100
C851	C85	0.893240	0.718210	0.893500
H641	H64	0.864000	0.689500	0.884000
C861	C86	0.949280	0.710650	0.851100
C871	C87	0.869930	0.861670	0.102200
H651	H65	0.844600	0.830100	0.116600
C881	C88	0.939900	0.913890	0.031900
H661	H66	0.971100	0.926200	0.991200
C891	C89	0.912890	0.946160	0.106000
H671	H67	0.922800	0.984900	0.123900
C901	C90	0.906880	0.960170	0.369300
C911	C91	0.955240	0.980740	0.435500
C921	C92	0.962840	0.041260	0.454300
H681	H68	0.938000	0.069000	0.423900
C931	C93	0.992480	0.939870	0.481600
H691	H69	0.987400	0.899400	0.469400
N151	N15	0.961030	0.658520	0.795000
N161	N16	0.786940	0.559070	0.543600
N171	N17	0.729260	0.550080	0.410600
N181	N18	0.185020	0.548620	0.828000
N191	N19	0.260150	0.488740	0.799200
N201	N20	0.911880	0.860230	0.030020
N211	N21	0.869130	0.912780	0.149700
O51	O5	0.892680	0.906160	0.365900
O61	O6	0.878690	0.998420	0.317210
Ni41	Ni4	0.682730	0.565800	0.275940
C941	C94	0.584440	0.866970	0.734200
C951	C95	0.596410	0.927150	0.737200
H701	H70	0.575400	0.951400	0.781000
C961	C96	0.639380	0.951920	0.675500
H711	H71	0.646900	0.992600	0.677300
C971	C97	0.670940	0.915350	0.611100
C981	C98	0.661360	0.854970	0.611700
H721	H72	0.684300	0.830300	0.571300
C991	C99	0.618230	0.831080	0.671600
H731	H73	0.611400	0.790300	0.670500
C1001	C100	0.731180	0.917190	0.456100
H741	H74	0.717000	0.881300	0.430900
C1011	C101	0.778900	0.998270	0.472300
H751	H75	0.804400	0.029900	0.459400
C1021	C102	0.744200	0.992920	0.554500
H761	H76	0.742000	0.019400	0.607800
C1031	C103	0.458660	0.899800	0.723400
H771	H77	0.479000	0.900900	0.662900
C1041	C104	0.403680	0.927000	0.731900
H781	H78	0.387400	0.946500	0.677100
C1051	C105	0.372850	0.925560	0.820800
C1061	C106	0.397140	0.896700	0.903000
H791	H79	0.376300	0.894700	0.962900
C1071	C107	0.452900	0.870910	0.894300
H801	H80	0.470200	0.853100	0.949900
C1081	C108	0.483370	0.871130	0.804200
C1091	C109	0.266540	0.927130	0.874600
H811	H81	0.265600	0.892300	0.912200
C1101	C110	0.220920	0.963530	0.855400
H821	H82	0.182000	0.957500	0.876800
C1111	C111	0.296470	0.002150	0.784100
H831	H83	0.321000	0.027500	0.747600
C1121	C112	0.508240	0.746650	0.866300
H841	H84	0.470900	0.751100	0.837200
C1131	C113	0.520000	0.696520	0.924600
H851	H85	0.490800	0.667800	0.934600
C1141	C114	0.575540	0.690020	0.967200
C1151	C115	0.618930	0.731550	0.949900
H861	H86	0.656900	0.726000	0.976100
C1161	C116	0.606760	0.781790	0.893500
H871	H87	0.636000	0.810500	0.884000
C1171	C117	0.550720	0.789350	0.851100
C1181	C118	0.630070	0.638330	0.102200
H881	H88	0.655400	0.669900	0.116600
C1191	C119	0.560100	0.586110	0.031900
H891	H89	0.528900	0.573800	0.991200
C1201	C120	0.587110	0.553840	0.106000
H901	H90	0.577200	0.515100	0.123900
C1211	C121	0.593120	0.539830	0.369300
C1221	C122	0.544760	0.519260	0.435500
C1231	C123	0.537160	0.458740	0.454300
H911	H91	0.562000	0.431000	0.423900
C1241	C124	0.507520	0.560130	0.481600
H921	H92	0.512600	0.600600	0.469400
N221	N22	0.538970	0.841480	0.795000
N231	N23	0.713060	0.940930	0.543600
N241	N24	0.770740	0.949920	0.410600
N251	N25	0.314980	0.951380	0.828000
N261	N26	0.239850	0.011260	0.799200
N271	N27	0.588120	0.639770	0.030020
N281	N28	0.630870	0.587220	0.149700
O71	O7	0.607320	0.593840	0.365900
O81	O8	0.621310	0.501580	0.317210
Ni51	Ni5	0.434200	0.182730	0.724060
C1251	C125	0.133030	0.084440	0.265800
C1261	C126	0.072850	0.096410	0.262800
H931	H93	0.048600	0.075400	0.219000
C1271	C127	0.048080	0.139380	0.324500
H941	H94	0.007400	0.146900	0.322700
C1281	C128	0.084650	0.170940	0.388900
C1291	C129	0.145030	0.161360	0.388300
H951	H95	0.169700	0.184300	0.428700
C1301	C130	0.168920	0.118230	0.328400
H961	H96	0.209700	0.111400	0.329500
C1311	C131	0.082810	0.231180	0.543900
H971	H97	0.118700	0.217000	0.569100
C1321	C132	0.001730	0.278900	0.527700
H981	H98	0.970100	0.304400	0.540600
C1331	C133	0.007080	0.244200	0.445500
H991	H99	0.980600	0.242000	0.392200
C1341	C134	0.100200	0.958660	0.276600
H1001	H100	0.099100	0.979000	0.337100
C1351	C135	0.073000	0.903680	0.268100
H1011	H101	0.053500	0.887400	0.322900
C1361	C136	0.074440	0.872850	0.179200
C1371	C137	0.103300	0.897140	0.097000
H1021	H102	0.105300	0.876300	0.037100
C1381	C138	0.129090	0.952900	0.105700
H1031	H103	0.146900	0.970200	0.050100
C1391	C139	0.128870	0.983370	0.195800
C1401	C140	0.072870	0.766540	0.125400
H1041	H104	0.107700	0.765600	0.087800
C1411	C141	0.036470	0.720920	0.144600
H1051	H105	0.042500	0.682000	0.123200
C1421	C142	0.997850	0.796470	0.215900
H1061	H106	0.972500	0.821000	0.252400
C1431	C143	0.253350	0.008240	0.133700
H1071	H107	0.248900	0.970900	0.162800
C1441	C144	0.303480	0.020000	0.075400
H1081	H108	0.332200	0.990800	0.065400
C1451	C145	0.309980	0.075540	0.032800
C1461	C146	0.268450	0.118930	0.050100
H1091	H109	0.274000	0.156900	0.023900
C1471	C147	0.218210	0.106760	0.106500
H1101	H110	0.189500	0.136000	0.116000
C1481	C148	0.210650	0.050720	0.148900
C1491	C149	0.361670	0.130070	0.897800
H1111	H111	0.330100	0.155400	0.883400
C1501	C150	0.413890	0.060100	0.968100
H1121	H112	0.426200	0.028900	0.008800
C1511	C151	0.446160	0.087110	0.894000
H1131	H113	0.484900	0.077200	0.876100
C1521	C152	0.460170	0.093120	0.630700
C1531	C153	0.480740	0.044760	0.564500
C1541	C154	0.541260	0.037160	0.545700
H1141	H114	0.569000	0.062000	0.576100
C1551	C155	0.439870	0.007520	0.518400
H1151	H115	0.399400	0.012600	0.530600
N291	N29	0.158520	0.038970	0.205000
N301	N30	0.059070	0.213060	0.456400
N311	N31	0.050080	0.270740	0.589400
N321	N32	0.048620	0.814980	0.172000
N331	N33	0.988740	0.739850	0.200800
N341	N34	0.360230	0.088120	0.969980
N351	N35	0.412780	0.130870	0.850300
O91	O9	0.406160	0.107320	0.634100
O101	O10	0.498420	0.121310	0.682790
Ni61	Ni6	0.065800	0.317270	0.724060
C1561	C156	0.366970	0.415560	0.265800
C1571	C157	0.427150	0.403590	0.262800
H1161	H116	0.451400	0.424600	0.219000
C1581	C158	0.451920	0.360620	0.324500
H1171	H117	0.492600	0.353100	0.322700
C1591	C159	0.415350	0.329060	0.388900
C1601	C160	0.354970	0.338640	0.388300
H1181	H118	0.330300	0.315700	0.428700
C1611	C161	0.331080	0.381770	0.328400
H1191	H119	0.290300	0.388600	0.329500
C1621	C162	0.417190	0.268820	0.543900
H1201	H120	0.381300	0.283000	0.569100
C1631	C163	0.498270	0.221100	0.527700
H1211	H121	0.529900	0.195600	0.540600
C1641	C164	0.492920	0.255800	0.445500
H1221	H122	0.519400	0.258000	0.392200
C1651	C165	0.399800	0.541340	0.276600
H1231	H123	0.400900	0.521000	0.337100
C1661	C166	0.427000	0.596320	0.268100
H1241	H124	0.446500	0.612600	0.322900
C1671	C167	0.425560	0.627150	0.179200
C1681	C168	0.396700	0.602860	0.097000
H1251	H125	0.394700	0.623700	0.037100
C1691	C169	0.370910	0.547100	0.105700
H1261	H126	0.353100	0.529800	0.050100
C1701	C170	0.371130	0.516630	0.195800
C1711	C171	0.427130	0.733460	0.125400
H1271	H127	0.392300	0.734400	0.087800
C1721	C172	0.463530	0.779080	0.144600
H1281	H128	0.457500	0.818000	0.123200
C1731	C173	0.502150	0.703530	0.215900
H1291	H129	0.527500	0.679000	0.252400
C1741	C174	0.246650	0.491760	0.133700
H1301	H130	0.251100	0.529100	0.162800
C1751	C175	0.196520	0.480000	0.075400
H1311	H131	0.167800	0.509200	0.065400
C1761	C176	0.190020	0.424460	0.032800
C1771	C177	0.231550	0.381070	0.050100
H1321	H132	0.226000	0.343100	0.023900
C1781	C178	0.281790	0.393240	0.106500
H1331	H133	0.310500	0.364000	0.116000
C1791	C179	0.289350	0.449280	0.148900
C1801	C180	0.138330	0.369930	0.897800
H1341	H134	0.169900	0.344600	0.883400
C1811	C181	0.086110	0.439900	0.968100
H1351	H135	0.073800	0.471100	0.008800
C1821	C182	0.053840	0.412890	0.894000
H1361	H136	0.015100	0.422800	0.876100
C1831	C183	0.039830	0.406880	0.630700
C1841	C184	0.019260	0.455240	0.564500
C1851	C185	0.958740	0.462840	0.545700
H1371	H137	0.931000	0.438000	0.576100
C1861	C186	0.060130	0.492480	0.518400
H1381	H138	0.100600	0.487400	0.530600
N361	N36	0.341480	0.461030	0.205000
N371	N37	0.440930	0.286940	0.456400
N381	N38	0.449920	0.229260	0.589400
N391	N39	0.451380	0.685020	0.172000
N401	N40	0.511260	0.760150	0.200800
N411	N41	0.139770	0.411880	0.969980
N421	N42	0.087220	0.369130	0.850300
O111	O11	0.093840	0.392680	0.634100
O121	O12	0.001580	0.378690	0.682790
Ni71	Ni7	0.565800	0.817270	0.275940
C1871	C187	0.866970	0.915560	0.734200
C1881	C188	0.927150	0.903590	0.737200
H1391	H139	0.951400	0.924600	0.781000
C1891	C189	0.951920	0.860620	0.675500
H1401	H140	0.992600	0.853100	0.677300
C1901	C190	0.915350	0.829060	0.611100
C1911	C191	0.854970	0.838640	0.611700
H1411	H141	0.830300	0.815700	0.571300
C1921	C192	0.831080	0.881770	0.671600
H1421	H142	0.790300	0.888600	0.670500
C1931	C193	0.917190	0.768820	0.456100
H1431	H143	0.881300	0.783000	0.430900
C1941	C194	0.998270	0.721100	0.472300
H1441	H144	0.029900	0.695600	0.459400
C1951	C195	0.992920	0.755800	0.554500
H1451	H145	0.019400	0.758000	0.607800
C1961	C196	0.899800	0.041340	0.723400
H1461	H146	0.900900	0.021000	0.662900
C1971	C197	0.927000	0.096320	0.731900
H1471	H147	0.946500	0.112600	0.677100
C1981	C198	0.925560	0.127150	0.820800
C1991	C199	0.896700	0.102860	0.903000
H1481	H148	0.894700	0.123700	0.962900
C2001	C200	0.870910	0.047100	0.894300
H1491	H149	0.853100	0.029800	0.949900
C2011	C201	0.871130	0.016630	0.804200
C2021	C202	0.927130	0.233460	0.874600
H1501	H150	0.892300	0.234400	0.912200
C2031	C203	0.963530	0.279080	0.855400
H1511	H151	0.957500	0.318000	0.876800
C2041	C204	0.002150	0.203530	0.784100
H1521	H152	0.027500	0.179000	0.747600
C2051	C205	0.746650	0.991760	0.866300
H1531	H153	0.751100	0.029100	0.837200
C2061	C206	0.696520	0.980000	0.924600
H1541	H154	0.667800	0.009200	0.934600
C2071	C207	0.690020	0.924460	0.967200
C2081	C208	0.731550	0.881070	0.949900
H1551	H155	0.726000	0.843100	0.976100
C2091	C209	0.781790	0.893240	0.893500
H1561	H156	0.810500	0.864000	0.884000
C2101	C210	0.789350	0.949280	0.851100
C2111	C211	0.638330	0.869930	0.102200
H1571	H157	0.669900	0.844600	0.116600
C2121	C212	0.586110	0.939900	0.031900
H1581	H158	0.573800	0.971100	0.991200
C2131	C213	0.553840	0.912890	0.106000
H1591	H159	0.515100	0.922800	0.123900
C2141	C214	0.539830	0.906880	0.369300
C2151	C215	0.519260	0.955240	0.435500
C2161	C216	0.458740	0.962840	0.454300
H1601	H160	0.431000	0.938000	0.423900
C2171	C217	0.560130	0.992480	0.481600
H1611	H161	0.600600	0.987400	0.469400
N431	N43	0.841480	0.961030	0.795000
N441	N44	0.940930	0.786940	0.543600
N451	N45	0.949920	0.729260	0.410600
N461	N46	0.951380	0.185020	0.828000
N471	N47	0.011260	0.260150	0.799200
N481	N48	0.639770	0.911880	0.030020
N491	N49	0.587220	0.869130	0.149700
O131	O13	0.593840	0.892680	0.365900
O141	O14	0.501580	0.878690	0.317210
Ni81	Ni8	0.934200	0.682730	0.275940
C2181	C218	0.633030	0.584440	0.734200
C2191	C219	0.572850	0.596410	0.737200
H1621	H162	0.548600	0.575400	0.781000
C2201	C220	0.548080	0.639380	0.675500
H1631	H163	0.507400	0.646900	0.677300
C2211	C221	0.584650	0.670940	0.611100
C2221	C222	0.645030	0.661360	0.611700
H1641	H164	0.669700	0.684300	0.571300
C2231	C223	0.668920	0.618230	0.671600
H1651	H165	0.709700	0.611400	0.670500
C2241	C224	0.582810	0.731180	0.456100
H1661	H166	0.618700	0.717000	0.430900
C2251	C225	0.501730	0.778900	0.472300
H1671	H167	0.470100	0.804400	0.459400
C2261	C226	0.507080	0.744200	0.554500
H1681	H168	0.480600	0.742000	0.607800
C2271	C227	0.600200	0.458660	0.723400
H1691	H169	0.599100	0.479000	0.662900
C2281	C228	0.573000	0.403680	0.731900
H1701	H170	0.553500	0.387400	0.677100
C2291	C229	0.574440	0.372850	0.820800
C2301	C230	0.603300	0.397140	0.903000
H1711	H171	0.605300	0.376300	0.962900
C2311	C231	0.629090	0.452900	0.894300
H1721	H172	0.646900	0.470200	0.949900
C2321	C232	0.628870	0.483370	0.804200
C2331	C233	0.572870	0.266540	0.874600
H1731	H173	0.607700	0.265600	0.912200
C2341	C234	0.536470	0.220920	0.855400
H1741	H174	0.542500	0.182000	0.876800
C2351	C235	0.497850	0.296470	0.784100
H1751	H175	0.472500	0.321000	0.747600
C2361	C236	0.753350	0.508240	0.866300
H1761	H176	0.748900	0.470900	0.837200
C2371	C237	0.803480	0.520000	0.924600
H1771	H177	0.832200	0.490800	0.934600
C2381	C238	0.809980	0.575540	0.967200
C2391	C239	0.768450	0.618930	0.949900
H1781	H178	0.774000	0.656900	0.976100
C2401	C240	0.718210	0.606760	0.893500
H1791	H179	0.689500	0.636000	0.884000
C2411	C241	0.710650	0.550720	0.851100
C2421	C242	0.861670	0.630070	0.102200
H1801	H180	0.830100	0.655400	0.116600
C2431	C243	0.913890	0.560100	0.031900
H1811	H181	0.926200	0.528900	0.991200
C2441	C244	0.946160	0.587110	0.106000
H1821	H182	0.984900	0.577200	0.123900
C2451	C245	0.960170	0.593120	0.369300
C2461	C246	0.980740	0.544760	0.435500
C2471	C247	0.041260	0.537160	0.454300
H1831	H183	0.069000	0.562000	0.423900
C2481	C248	0.939870	0.507520	0.481600
H1841	H184	0.899400	0.512600	0.469400
N501	N50	0.658520	0.538970	0.795000
N511	N51	0.559070	0.713060	0.543600
N521	N52	0.550080	0.770740	0.410600
N531	N53	0.548620	0.314980	0.828000
N541	N54	0.488740	0.239850	0.799200
N551	N55	0.860230	0.588120	0.030020
N561	N56	0.912780	0.630870	0.149700
O151	O15	0.906160	0.607320	0.365900
O161	O16	0.998420	0.621310	0.317210
