data_AWAHEM_clean_PM
_symmetry_space_group_name_H-M	'P1'
_cell_length_a	12.770800
_cell_length_b	14.529800
_cell_length_c	18.858700
_cell_angle_alpha	82.784000
_cell_angle_beta	72.179000
_cell_angle_gamma	79.385000
_symmetry_Int_Tables_number 1

loop_
_symmetry_equiv_pos_as_xyz
'x,y,z'

loop_
_atom_site_label
_atom_site_type_symbol
_atom_site_fract_x
_atom_site_fract_y
_atom_site_fract_z
U11	U1	0.447470	0.422540	0.102540
U21	U2	0.538630	0.835370	0.102760
U31	U3	0.286380	0.051320	0.263460
U41	U4	0.181490	0.834310	0.464000
U51	U5	0.130280	0.416500	0.427570
U61	U6	0.552530	0.577460	0.897460
U71	U7	0.461370	0.164630	0.897240
U81	U8	0.713620	0.948680	0.736540
U91	U9	0.818510	0.165690	0.536000
U101	U10	0.869720	0.583510	0.572430
Mn11	Mn1	0.618780	0.470250	0.248180
Mn21	Mn2	0.437150	0.481590	0.430870
Mn31	Mn3	0.381220	0.529750	0.751820
Mn41	Mn4	0.562850	0.518410	0.569130
P11	P1	0.602510	0.574850	0.084950
P21	P2	0.413530	0.359790	0.304460
P31	P3	0.356420	0.200320	0.094220
P41	P4	0.410460	0.824340	0.298300
P51	P5	0.069040	0.198130	0.386490
P61	P6	0.820620	0.425570	0.493030
P71	P7	0.397490	0.425150	0.915050
P81	P8	0.586470	0.640210	0.695540
P91	P9	0.643580	0.799680	0.905780
P101	P10	0.589540	0.175660	0.701700
P111	P11	0.930960	0.801870	0.613510
P121	P12	0.179380	0.574430	0.506970
H11	H1	0.782200	0.579400	0.008500
H21	H2	0.767600	0.474200	0.042400
H31	H3	0.478400	0.201600	0.321500
H41	H4	0.535500	0.262200	0.360000
H51	H5	0.503100	0.162500	0.148100
H61	H6	0.551300	0.170300	0.058800
H71	H7	0.516600	0.784700	0.380500
H81	H8	0.594600	0.779100	0.296100
H91	H9	0.113500	0.166800	0.499900
H101	H10	0.225200	0.161500	0.431400
H111	H11	0.860500	0.422300	0.365500
H121	H12	0.810400	0.526600	0.390000
H131	H13	0.217800	0.420600	0.991500
H141	H14	0.232400	0.525800	0.957600
H151	H15	0.521600	0.798400	0.678500
H161	H16	0.464500	0.737800	0.640000
H171	H17	0.496900	0.837500	0.851900
H181	H18	0.448700	0.829700	0.941200
H191	H19	0.483400	0.215300	0.619500
H201	H20	0.405400	0.220900	0.703900
H211	H21	0.886500	0.833200	0.500100
H221	H22	0.774800	0.838500	0.568600
H231	H23	0.139500	0.577700	0.634500
H241	H24	0.189600	0.473400	0.610000
C11	C1	0.750300	0.540700	0.054500
C21	C2	0.804200	0.552600	0.115000
C31	C3	0.513600	0.258700	0.314600
C41	C4	0.617500	0.249700	0.247800
C51	C5	0.493200	0.146000	0.101400
C61	C6	0.506500	0.042000	0.101400
C71	C7	0.523700	0.763400	0.331100
C81	C8	0.526800	0.657100	0.338100
C91	C9	0.149800	0.143500	0.449700
C101	C10	0.159400	0.038900	0.455100
C111	C11	0.801500	0.459700	0.402900
C121	C12	0.689500	0.447100	0.397600
C131	C13	0.249700	0.459300	0.945500
C141	C14	0.195800	0.447400	0.885000
C151	C15	0.486400	0.741300	0.685400
C161	C16	0.382500	0.750300	0.752200
C171	C17	0.506800	0.854000	0.898600
C181	C18	0.493500	0.958000	0.898600
C191	C19	0.476300	0.236600	0.668900
C201	C20	0.473200	0.342900	0.661900
C211	C21	0.850200	0.856500	0.550300
C221	C22	0.840600	0.961100	0.544900
C231	C23	0.198500	0.540300	0.597100
C241	C24	0.310500	0.552900	0.602400
O11	O1	0.578900	0.675900	0.099900
O21	O2	0.553500	0.551100	0.025600
O31	O3	0.552700	0.510000	0.153700
O41	O4	0.777200	0.504700	0.175900
O51	O5	0.874900	0.608700	0.100000
O61	O6	0.408600	0.367800	0.224200
O71	O7	0.302000	0.347500	0.361800
O81	O8	0.456500	0.445200	0.319900
O91	O9	0.653800	0.171300	0.221700
O101	O10	0.661400	0.324300	0.218700
O111	O11	0.345200	0.305300	0.100900
O121	O12	0.272600	0.153400	0.158600
O131	O13	0.344500	0.177600	0.017500
O141	O14	0.577900	0.997400	0.050100
O151	O15	0.441900	0.995900	0.154500
O161	O16	0.301900	0.798300	0.350300
O171	O17	0.427700	0.797300	0.219900
O181	O18	0.413600	0.929300	0.298800
O191	O19	0.461600	0.622600	0.395400
O201	O20	0.593800	0.610600	0.285200
O211	O21	0.074600	0.303100	0.378200
O221	O22	0.124000	0.152400	0.312500
O231	O23	0.948100	0.178200	0.419000
O241	O24	0.118300	0.992800	0.513700
O251	O25	0.211500	0.994700	0.395300
O261	O26	0.805700	0.324800	0.513400
O271	O27	0.934700	0.448000	0.489300
O281	O28	0.739800	0.494000	0.549000
O291	O29	0.603400	0.470800	0.450200
O301	O30	0.687300	0.413100	0.339600
O311	O31	0.421100	0.324100	0.900100
O321	O32	0.446500	0.448900	0.974400
O331	O33	0.447300	0.490000	0.846300
O341	O34	0.222800	0.495300	0.824100
O351	O35	0.125100	0.391300	0.900000
O361	O36	0.591400	0.632200	0.775800
O371	O37	0.698000	0.652500	0.638200
O381	O38	0.543500	0.554800	0.680100
O391	O39	0.346200	0.828700	0.778300
O401	O40	0.338600	0.675700	0.781300
O411	O41	0.654800	0.694700	0.899100
O421	O42	0.727400	0.846600	0.841400
O431	O43	0.655500	0.822400	0.982500
O441	O44	0.422100	0.002600	0.949900
O451	O45	0.558100	0.004100	0.845500
O461	O46	0.698100	0.201700	0.649700
O471	O47	0.572300	0.202700	0.780100
O481	O48	0.586400	0.070700	0.701200
O491	O49	0.538400	0.377400	0.604600
O501	O50	0.406200	0.389400	0.714800
O511	O51	0.925400	0.696900	0.621800
O521	O52	0.876000	0.847600	0.687500
O531	O53	0.051900	0.821800	0.581000
O541	O54	0.881700	0.007200	0.486300
O551	O55	0.788500	0.005300	0.604700
O561	O56	0.194300	0.675200	0.486600
O571	O57	0.065300	0.552000	0.510700
O581	O58	0.260200	0.506000	0.451000
O591	O59	0.396600	0.529200	0.549800
O601	O60	0.312700	0.586900	0.660400
