data_AWASAU_clean_PM
_symmetry_space_group_name_H-M	'P1'
_cell_length_a	15.289000
_cell_length_b	8.168000
_cell_length_c	28.995000
_cell_angle_alpha	90.000000
_cell_angle_beta	100.646000
_cell_angle_gamma	90.000000
_symmetry_Int_Tables_number 1

loop_
_symmetry_equiv_pos_as_xyz
'x,y,z'

loop_
_atom_site_label
_atom_site_type_symbol
_atom_site_fract_x
_atom_site_fract_y
_atom_site_fract_z
Pr11	Pr1	0.550170	0.250710	0.011810
Cu11	Cu1	0.998430	0.569980	0.170160
Cu21	Cu2	0.145090	0.701790	0.214150
Cu31	Cu3	0.425030	0.920630	0.250490
Cu41	Cu4	0.352470	0.896530	0.324330
I11	I1	0.123660	0.679540	0.122440
I21	I2	0.005160	0.719750	0.254320
I31	I3	0.247260	0.960870	0.240980
I41	I4	0.509120	0.749410	0.328530
O11	O1	0.358900	0.957900	0.942460
O21	O2	0.421100	0.206800	0.950600
O31	O3	0.566600	0.374700	0.093080
O41	O4	0.464600	0.505900	0.043320
O51	O5	0.641300	0.125900	0.960500
O61	O6	0.552200	0.912300	0.954700
N11	N1	0.115500	0.328300	0.864100
N21	N2	0.448900	0.771600	0.198200
N31	N3	0.778100	0.740800	0.860300
C11	C1	0.120500	0.169900	0.874400
H11	H1	0.068700	0.104800	0.865200
C21	C2	0.196800	0.094300	0.897600
H21	H2	0.196300	0.980800	0.904800
C31	C3	0.273400	0.184000	0.910300
C41	C4	0.269500	0.348100	0.898300
H31	H3	0.321100	0.414800	0.905700
C51	C5	0.190100	0.414300	0.875400
H41	H4	0.188800	0.527100	0.867300
C61	C6	0.357700	0.109200	0.936200
C71	C7	0.527500	0.698300	0.200700
H51	H5	0.571400	0.712800	0.228100
C81	C8	0.547800	0.601800	0.164600
H61	H6	0.604200	0.549900	0.167800
C91	C9	0.485000	0.582100	0.124300
C101	C10	0.404600	0.654100	0.122300
H71	H7	0.359500	0.640300	0.095300
C111	C11	0.387800	0.748200	0.159700
H81	H8	0.330800	0.797300	0.157600
C121	C12	0.507300	0.480400	0.084600
C131	C13	0.812400	0.858000	0.890800
H91	H9	0.873600	0.884800	0.893500
C141	C14	0.762800	0.940900	0.918300
H101	H10	0.789300	0.023600	0.939300
C151	C15	0.674200	0.902500	0.914800
C161	C16	0.636800	0.788000	0.882100
H111	H11	0.575100	0.763200	0.877600
C171	C17	0.691500	0.710300	0.855900
H121	H12	0.665800	0.630800	0.833500
C181	C18	0.618700	0.986200	0.945700
Pr21	Pr2	0.949830	0.750710	0.488190
Cu51	Cu5	0.501570	0.069980	0.329840
Cu61	Cu6	0.354910	0.201790	0.285850
Cu71	Cu7	0.074970	0.420630	0.249510
Cu81	Cu8	0.147530	0.396530	0.175670
I51	I5	0.376340	0.179540	0.377560
I61	I6	0.494840	0.219750	0.245680
I71	I7	0.252740	0.460870	0.259020
I81	I8	0.990880	0.249410	0.171470
O71	O7	0.141100	0.457900	0.557540
O81	O8	0.078900	0.706800	0.549400
O91	O9	0.933400	0.874700	0.406920
O101	O10	0.035400	0.005900	0.456680
O111	O11	0.858700	0.625900	0.539500
O121	O12	0.947800	0.412300	0.545300
N41	N4	0.384500	0.828300	0.635900
N51	N5	0.051100	0.271600	0.301800
N61	N6	0.721900	0.240800	0.639700
C191	C19	0.379500	0.669900	0.625600
H131	H13	0.431300	0.604800	0.634800
C201	C20	0.303200	0.594300	0.602400
H141	H14	0.303700	0.480800	0.595200
C211	C21	0.226600	0.684000	0.589700
C221	C22	0.230500	0.848100	0.601700
H151	H15	0.178900	0.914800	0.594300
C231	C23	0.309900	0.914300	0.624600
H161	H16	0.311200	0.027100	0.632700
C241	C24	0.142300	0.609200	0.563800
C251	C25	0.972500	0.198300	0.299300
H171	H17	0.928600	0.212800	0.271900
C261	C26	0.952200	0.101800	0.335400
H181	H18	0.895800	0.049900	0.332200
C271	C27	0.015000	0.082100	0.375700
C281	C28	0.095400	0.154100	0.377700
H191	H19	0.140500	0.140300	0.404700
C291	C29	0.112200	0.248200	0.340300
H201	H20	0.169200	0.297300	0.342400
C301	C30	0.992700	0.980400	0.415400
C311	C31	0.687600	0.358000	0.609200
H211	H21	0.626400	0.384800	0.606500
C321	C32	0.737200	0.440900	0.581700
H221	H22	0.710700	0.523600	0.560700
C331	C33	0.825800	0.402500	0.585200
C341	C34	0.863200	0.288000	0.617900
H231	H23	0.924900	0.263200	0.622400
C351	C35	0.808500	0.210300	0.644100
H241	H24	0.834200	0.130800	0.666500
C361	C36	0.881300	0.486200	0.554300
Pr31	Pr3	0.449830	0.749290	0.988190
Cu91	Cu9	0.001570	0.430020	0.829840
Cu101	Cu10	0.854910	0.298210	0.785850
Cu111	Cu11	0.574970	0.079370	0.749510
Cu121	Cu12	0.647530	0.103470	0.675670
I91	I9	0.876340	0.320460	0.877560
I101	I10	0.994840	0.280250	0.745680
I111	I11	0.752740	0.039130	0.759020
I121	I12	0.490880	0.250590	0.671470
O131	O13	0.641100	0.042100	0.057540
O141	O14	0.578900	0.793200	0.049400
O151	O15	0.433400	0.625300	0.906920
O161	O16	0.535400	0.494100	0.956680
O171	O17	0.358700	0.874100	0.039500
O181	O18	0.447800	0.087700	0.045300
N71	N7	0.884500	0.671700	0.135900
N81	N8	0.551100	0.228400	0.801800
N91	N9	0.221900	0.259200	0.139700
C371	C37	0.879500	0.830100	0.125600
H251	H25	0.931300	0.895200	0.134800
C381	C38	0.803200	0.905700	0.102400
H261	H26	0.803700	0.019200	0.095200
C391	C39	0.726600	0.816000	0.089700
C401	C40	0.730500	0.651900	0.101700
H271	H27	0.678900	0.585200	0.094300
C411	C41	0.809900	0.585700	0.124600
H281	H28	0.811200	0.472900	0.132700
C421	C42	0.642300	0.890800	0.063800
C431	C43	0.472500	0.301700	0.799300
H291	H29	0.428600	0.287200	0.771900
C441	C44	0.452200	0.398200	0.835400
H301	H30	0.395800	0.450100	0.832200
C451	C45	0.515000	0.417900	0.875700
C461	C46	0.595400	0.345900	0.877700
H311	H31	0.640500	0.359700	0.904700
C471	C47	0.612200	0.251800	0.840300
H321	H32	0.669200	0.202700	0.842400
C481	C48	0.492700	0.519600	0.915400
C491	C49	0.187600	0.142000	0.109200
H331	H33	0.126400	0.115200	0.106500
C501	C50	0.237200	0.059100	0.081700
H341	H34	0.210700	0.976400	0.060700
C511	C51	0.325800	0.097500	0.085200
C521	C52	0.363200	0.212000	0.117900
H351	H35	0.424900	0.236800	0.122400
C531	C53	0.308500	0.289700	0.144100
H361	H36	0.334200	0.369200	0.166500
C541	C54	0.381300	0.013800	0.054300
Pr41	Pr4	0.050170	0.249290	0.511810
Cu131	Cu13	0.498430	0.930020	0.670160
Cu141	Cu14	0.645090	0.798210	0.714150
Cu151	Cu15	0.925030	0.579370	0.750490
Cu161	Cu16	0.852470	0.603470	0.824330
I131	I13	0.623660	0.820460	0.622440
I141	I14	0.505160	0.780250	0.754320
I151	I15	0.747260	0.539130	0.740980
I161	I16	0.009120	0.750590	0.828530
O191	O19	0.858900	0.542100	0.442460
O201	O20	0.921100	0.293200	0.450600
O211	O21	0.066600	0.125300	0.593080
O221	O22	0.964600	0.994100	0.543320
O231	O23	0.141300	0.374100	0.460500
O241	O24	0.052200	0.587700	0.454700
N101	N10	0.615500	0.171700	0.364100
N111	N11	0.948900	0.728400	0.698200
N121	N12	0.278100	0.759200	0.360300
C551	C55	0.620500	0.330100	0.374400
H371	H37	0.568700	0.395200	0.365200
C561	C56	0.696800	0.405700	0.397600
H381	H38	0.696300	0.519200	0.404800
C571	C57	0.773400	0.316000	0.410300
C581	C58	0.769500	0.151900	0.398300
H391	H39	0.821100	0.085200	0.405700
C591	C59	0.690100	0.085700	0.375400
H401	H40	0.688800	0.972900	0.367300
C601	C60	0.857700	0.390800	0.436200
C611	C61	0.027500	0.801700	0.700700
H411	H41	0.071400	0.787200	0.728100
C621	C62	0.047800	0.898200	0.664600
H421	H42	0.104200	0.950100	0.667800
C631	C63	0.985000	0.917900	0.624300
C641	C64	0.904600	0.845900	0.622300
H431	H43	0.859500	0.859700	0.595300
C651	C65	0.887800	0.751800	0.659700
H441	H44	0.830800	0.702700	0.657600
C661	C66	0.007300	0.019600	0.584600
C671	C67	0.312400	0.642000	0.390800
H451	H45	0.373600	0.615200	0.393500
C681	C68	0.262800	0.559100	0.418300
H461	H46	0.289300	0.476400	0.439300
C691	C69	0.174200	0.597500	0.414800
C701	C70	0.136800	0.712000	0.382100
H471	H47	0.075100	0.736800	0.377600
C711	C71	0.191500	0.789700	0.355900
H481	H48	0.165800	0.869200	0.333500
C721	C72	0.118700	0.513800	0.445700
