data_AWAWUR_clean_PM
_symmetry_space_group_name_H-M	'P1'
_cell_length_a	20.293700
_cell_length_b	20.293700
_cell_length_c	20.293700
_cell_angle_alpha	85.005800
_cell_angle_beta	85.005800
_cell_angle_gamma	85.005800
_symmetry_Int_Tables_number 1

loop_
_symmetry_equiv_pos_as_xyz
'x,y,z'

loop_
_atom_site_label
_atom_site_type_symbol
_atom_site_fract_x
_atom_site_fract_y
_atom_site_fract_z
Co11	Co1	0.722070	0.025390	0.025390
Co21	Co2	0.555720	0.076630	0.076630
Co31	Co3	0.025390	0.722070	0.025390
Co41	Co4	0.076630	0.555720	0.076630
Co51	Co5	0.025390	0.025390	0.722070
Co61	Co6	0.076630	0.076630	0.555720
Co71	Co7	0.974610	0.277930	0.974610
Co81	Co8	0.923370	0.444280	0.923370
Co91	Co9	0.277930	0.974610	0.974610
Co101	Co10	0.444280	0.923370	0.923370
Co111	Co11	0.974610	0.974610	0.277930
Co121	Co12	0.923370	0.923370	0.444280
Co131	Co13	0.562430	0.562430	0.013200
Co141	Co14	0.013200	0.562430	0.562430
Co151	Co15	0.562430	0.013200	0.562430
Co161	Co16	0.437570	0.437570	0.986800
Co171	Co17	0.437570	0.986800	0.437570
Co181	Co18	0.986800	0.437570	0.437570
H11	H1	0.386900	0.121000	0.267400
H21	H2	0.477600	0.069800	0.211700
H31	H3	0.582800	0.282300	0.016400
H41	H4	0.518200	0.664800	0.784600
H51	H5	0.496200	0.638600	0.894900
H61	H6	0.629500	0.776300	0.016100
H71	H7	0.267400	0.386900	0.121000
H81	H8	0.211700	0.477600	0.069800
H91	H9	0.016400	0.582800	0.282300
H101	H10	0.784600	0.518200	0.664800
H111	H11	0.894900	0.496200	0.638600
H121	H12	0.016100	0.629500	0.776300
H131	H13	0.121000	0.267400	0.386900
H141	H14	0.069800	0.211700	0.477600
H151	H15	0.282300	0.016400	0.582800
H161	H16	0.664800	0.784600	0.518200
H171	H17	0.638600	0.894900	0.496200
H181	H18	0.776300	0.016100	0.629500
H191	H19	0.879000	0.613100	0.732600
H201	H20	0.930200	0.522400	0.788300
H211	H21	0.717700	0.417200	0.983600
H221	H22	0.335200	0.481800	0.215400
H231	H23	0.361400	0.503800	0.105100
H241	H24	0.223700	0.370500	0.983900
H251	H25	0.613100	0.732600	0.879000
H261	H26	0.522400	0.788300	0.930200
H271	H27	0.417200	0.983600	0.717700
H281	H28	0.481800	0.215400	0.335200
H291	H29	0.503800	0.105100	0.361400
H301	H30	0.370500	0.983900	0.223700
H311	H31	0.732600	0.879000	0.613100
H321	H32	0.788300	0.930200	0.522400
H331	H33	0.983600	0.717700	0.417200
H341	H34	0.215400	0.335200	0.481800
H351	H35	0.105100	0.361400	0.503800
H361	H36	0.983900	0.223700	0.370500
H371	H37	0.613100	0.879000	0.732600
H381	H38	0.522400	0.930200	0.788300
H391	H39	0.417200	0.717700	0.983600
H401	H40	0.481800	0.335200	0.215400
H411	H41	0.503800	0.361400	0.105100
H421	H42	0.370500	0.223700	0.983900
H431	H43	0.732600	0.613100	0.879000
H441	H44	0.788300	0.522400	0.930200
H451	H45	0.983600	0.417200	0.717700
H461	H46	0.215400	0.481800	0.335200
H471	H47	0.105100	0.503800	0.361400
H481	H48	0.983900	0.370500	0.223700
H491	H49	0.879000	0.732600	0.613100
H501	H50	0.930200	0.788300	0.522400
H511	H51	0.717700	0.983600	0.417200
H521	H52	0.335200	0.215400	0.481800
H531	H53	0.361400	0.105100	0.503800
H541	H54	0.223700	0.983900	0.370500
H551	H55	0.121000	0.386900	0.267400
H561	H56	0.069800	0.477600	0.211700
H571	H57	0.282300	0.582800	0.016400
H581	H58	0.664800	0.518200	0.784600
H591	H59	0.638600	0.496200	0.894900
H601	H60	0.776300	0.629500	0.016100
H611	H61	0.386900	0.267400	0.121000
H621	H62	0.477600	0.211700	0.069800
H631	H63	0.582800	0.016400	0.282300
H641	H64	0.518200	0.784600	0.664800
H651	H65	0.496200	0.894900	0.638600
H661	H66	0.629500	0.016100	0.776300
H671	H67	0.267400	0.121000	0.386900
H681	H68	0.211700	0.069800	0.477600
H691	H69	0.016400	0.282300	0.582800
H701	H70	0.784600	0.664800	0.518200
H711	H71	0.894900	0.638600	0.496200
H721	H72	0.016100	0.776300	0.629500
H731	H73	0.776900	0.223100	0.000000
H741	H74	0.000000	0.776900	0.223100
H751	H75	0.223100	0.000000	0.776900
H761	H76	0.223100	0.776900	0.000000
H771	H77	0.000000	0.223100	0.776900
H781	H78	0.776900	0.000000	0.223100
H791	H79	0.818000	0.818000	0.028000
H801	H80	0.028000	0.818000	0.818000
H811	H81	0.818000	0.028000	0.818000
H821	H82	0.182000	0.182000	0.972000
H831	H83	0.182000	0.972000	0.182000
H841	H84	0.972000	0.182000	0.182000
C11	C1	0.662290	0.170070	0.026430
C21	C2	0.404200	0.140200	0.227030
C31	C3	0.458140	0.109450	0.192920
C41	C4	0.677560	0.241340	0.011560
C51	C5	0.626840	0.292310	0.010320
C61	C6	0.543900	0.630900	0.806300
C71	C7	0.697210	0.879710	0.026810
C81	C8	0.531030	0.614830	0.872230
C91	C9	0.720190	0.808390	0.023790
C101	C10	0.674250	0.762290	0.017970
C111	C11	0.026430	0.662290	0.170070
C121	C12	0.227030	0.404200	0.140200
C131	C13	0.192920	0.458140	0.109450
C141	C14	0.011560	0.677560	0.241340
C151	C15	0.010320	0.626840	0.292310
C161	C16	0.806300	0.543900	0.630900
C171	C17	0.026810	0.697210	0.879710
C181	C18	0.872230	0.531030	0.614830
C191	C19	0.023790	0.720190	0.808390
C201	C20	0.017970	0.674250	0.762290
C211	C21	0.170070	0.026430	0.662290
C221	C22	0.140200	0.227030	0.404200
C231	C23	0.109450	0.192920	0.458140
C241	C24	0.241340	0.011560	0.677560
C251	C25	0.292310	0.010320	0.626840
C261	C26	0.630900	0.806300	0.543900
C271	C27	0.879710	0.026810	0.697210
C281	C28	0.614830	0.872230	0.531030
C291	C29	0.808390	0.023790	0.720190
C301	C30	0.762290	0.017970	0.674250
C311	C31	0.829930	0.337710	0.973570
C321	C32	0.859800	0.595800	0.772970
C331	C33	0.890550	0.541860	0.807080
C341	C34	0.758660	0.322440	0.988440
C351	C35	0.707690	0.373160	0.989680
C361	C36	0.369100	0.456100	0.193700
C371	C37	0.120290	0.302790	0.973190
C381	C38	0.385170	0.468970	0.127770
C391	C39	0.191610	0.279810	0.976210
C401	C40	0.237710	0.325750	0.982030
C411	C41	0.337710	0.973570	0.829930
C421	C42	0.595800	0.772970	0.859800
C431	C43	0.541860	0.807080	0.890550
C441	C44	0.322440	0.988440	0.758660
C451	C45	0.373160	0.989680	0.707690
C461	C46	0.456100	0.193700	0.369100
C471	C47	0.302790	0.973190	0.120290
C481	C48	0.468970	0.127770	0.385170
C491	C49	0.279810	0.976210	0.191610
C501	C50	0.325750	0.982030	0.237710
C511	C51	0.973570	0.829930	0.337710
C521	C52	0.772970	0.859800	0.595800
C531	C53	0.807080	0.890550	0.541860
C541	C54	0.988440	0.758660	0.322440
C551	C55	0.989680	0.707690	0.373160
C561	C56	0.193700	0.369100	0.456100
C571	C57	0.973190	0.120290	0.302790
C581	C58	0.127770	0.385170	0.468970
C591	C59	0.976210	0.191610	0.279810
C601	C60	0.982030	0.237710	0.325750
C611	C61	0.337710	0.829930	0.973570
C621	C62	0.595800	0.859800	0.772970
C631	C63	0.541860	0.890550	0.807080
C641	C64	0.322440	0.758660	0.988440
C651	C65	0.373160	0.707690	0.989680
C661	C66	0.456100	0.369100	0.193700
C671	C67	0.302790	0.120290	0.973190
C681	C68	0.468970	0.385170	0.127770
C691	C69	0.279810	0.191610	0.976210
C701	C70	0.325750	0.237710	0.982030
C711	C71	0.973570	0.337710	0.829930
C721	C72	0.772970	0.595800	0.859800
C731	C73	0.807080	0.541860	0.890550
C741	C74	0.988440	0.322440	0.758660
C751	C75	0.989680	0.373160	0.707690
C761	C76	0.193700	0.456100	0.369100
C771	C77	0.973190	0.302790	0.120290
C781	C78	0.127770	0.468970	0.385170
C791	C79	0.976210	0.279810	0.191610
C801	C80	0.982030	0.325750	0.237710
C811	C81	0.829930	0.973570	0.337710
C821	C82	0.859800	0.772970	0.595800
C831	C83	0.890550	0.807080	0.541860
C841	C84	0.758660	0.988440	0.322440
C851	C85	0.707690	0.989680	0.373160
C861	C86	0.369100	0.193700	0.456100
C871	C87	0.120290	0.973190	0.302790
C881	C88	0.385170	0.127770	0.468970
C891	C89	0.191610	0.976210	0.279810
C901	C90	0.237710	0.982030	0.325750
C911	C91	0.170070	0.662290	0.026430
C921	C92	0.140200	0.404200	0.227030
C931	C93	0.109450	0.458140	0.192920
C941	C94	0.241340	0.677560	0.011560
C951	C95	0.292310	0.626840	0.010320
C961	C96	0.630900	0.543900	0.806300
C971	C97	0.879710	0.697210	0.026810
C981	C98	0.614830	0.531030	0.872230
C991	C99	0.808390	0.720190	0.023790
C1001	C100	0.762290	0.674250	0.017970
C1011	C101	0.662290	0.026430	0.170070
C1021	C102	0.404200	0.227030	0.140200
C1031	C103	0.458140	0.192920	0.109450
C1041	C104	0.677560	0.011560	0.241340
C1051	C105	0.626840	0.010320	0.292310
C1061	C106	0.543900	0.806300	0.630900
C1071	C107	0.697210	0.026810	0.879710
C1081	C108	0.531030	0.872230	0.614830
C1091	C109	0.720190	0.023790	0.808390
C1101	C110	0.674250	0.017970	0.762290
C1111	C111	0.026430	0.170070	0.662290
C1121	C112	0.227030	0.140200	0.404200
C1131	C113	0.192920	0.109450	0.458140
C1141	C114	0.011560	0.241340	0.677560
C1151	C115	0.010320	0.292310	0.626840
C1161	C116	0.806300	0.630900	0.543900
C1171	C117	0.026810	0.879710	0.697210
C1181	C118	0.872230	0.614830	0.531030
C1191	C119	0.023790	0.808390	0.720190
C1201	C120	0.017970	0.762290	0.674250
C1211	C121	0.642000	0.358000	0.000000
C1221	C122	0.743000	0.257000	0.000000
C1231	C123	0.586100	0.413900	0.000000
C1241	C124	0.000000	0.642000	0.358000
C1251	C125	0.000000	0.743000	0.257000
C1261	C126	0.000000	0.586100	0.413900
C1271	C127	0.358000	0.000000	0.642000
C1281	C128	0.257000	0.000000	0.743000
C1291	C129	0.413900	0.000000	0.586100
C1301	C130	0.358000	0.642000	0.000000
C1311	C131	0.257000	0.743000	0.000000
C1321	C132	0.413900	0.586100	0.000000
C1331	C133	0.000000	0.358000	0.642000
C1341	C134	0.000000	0.257000	0.743000
C1351	C135	0.000000	0.413900	0.586100
C1361	C136	0.642000	0.000000	0.358000
C1371	C137	0.743000	0.000000	0.257000
C1381	C138	0.586100	0.000000	0.413900
C1391	C139	0.315570	0.233120	0.233120
C1401	C140	0.375870	0.200420	0.200420
C1411	C141	0.233120	0.315570	0.233120
C1421	C142	0.200420	0.375870	0.200420
C1431	C143	0.233120	0.233120	0.315570
C1441	C144	0.200420	0.200420	0.375870
C1451	C145	0.766880	0.684430	0.766880
C1461	C146	0.799580	0.624130	0.799580
C1471	C147	0.684430	0.766880	0.766880
C1481	C148	0.624130	0.799580	0.799580
C1491	C149	0.766880	0.766880	0.684430
C1501	C150	0.799580	0.799580	0.624130
C1511	C151	0.695320	0.695320	0.014820
C1521	C152	0.647400	0.647400	0.007400
C1531	C153	0.787150	0.787150	0.025500
C1541	C154	0.014820	0.695320	0.695320
C1551	C155	0.007400	0.647400	0.647400
C1561	C156	0.025500	0.787150	0.787150
C1571	C157	0.695320	0.014820	0.695320
C1581	C158	0.647400	0.007400	0.647400
C1591	C159	0.787150	0.025500	0.787150
C1601	C160	0.304680	0.304680	0.985180
C1611	C161	0.352600	0.352600	0.992600
C1621	C162	0.212850	0.212850	0.974500
C1631	C163	0.304680	0.985180	0.304680
C1641	C164	0.352600	0.992600	0.352600
C1651	C165	0.212850	0.974500	0.212850
C1661	C166	0.985180	0.304680	0.304680
C1671	C167	0.992600	0.352600	0.352600
C1681	C168	0.974500	0.212850	0.212850
C1691	C169	0.596080	0.596080	0.771180
C1701	C170	0.621800	0.621800	0.703000
C1711	C171	0.771180	0.596080	0.596080
C1721	C172	0.703000	0.621800	0.621800
C1731	C173	0.596080	0.771180	0.596080
C1741	C174	0.621800	0.703000	0.621800
C1751	C175	0.403920	0.403920	0.228820
C1761	C176	0.378200	0.378200	0.297000
C1771	C177	0.403920	0.228820	0.403920
C1781	C178	0.378200	0.297000	0.378200
C1791	C179	0.228820	0.403920	0.403920
C1801	C180	0.297000	0.378200	0.378200
N11	N1	0.483750	0.134050	0.134050
N21	N2	0.134050	0.483750	0.134050
N31	N3	0.134040	0.134050	0.483750
N41	N4	0.865960	0.516250	0.865960
N51	N5	0.516250	0.865960	0.865960
N61	N6	0.865960	0.865960	0.516250
N71	N7	0.566100	0.566100	0.906200
N81	N8	0.906200	0.566100	0.566100
N91	N9	0.566100	0.906200	0.566100
N101	N10	0.433900	0.433900	0.093800
N111	N11	0.433900	0.093800	0.433900
N121	N12	0.093800	0.433900	0.433900
N131	N13	0.677760	0.590000	0.677760
N141	N14	0.677760	0.677760	0.590000
N151	N15	0.590000	0.677760	0.677760
N161	N16	0.410000	0.322240	0.322240
N171	N17	0.322240	0.322240	0.410000
N181	N18	0.322240	0.410000	0.322240
N191	N19	0.289480	0.203180	0.289480
N201	N20	0.289480	0.289480	0.203180
N211	N21	0.203180	0.289480	0.289480
N221	N22	0.796820	0.710520	0.710520
N231	N23	0.710520	0.710520	0.796820
N241	N24	0.710520	0.796820	0.710520
O11	O1	0.603450	0.159880	0.046980
O21	O2	0.709570	0.127180	0.017660
O31	O3	0.599200	0.467280	0.019920
O41	O4	0.738340	0.921450	0.027220
O51	O5	0.634440	0.898340	0.011040
O61	O6	0.586030	0.666750	0.006430
O71	O7	0.046980	0.603450	0.159880
O81	O8	0.017660	0.709570	0.127180
O91	O9	0.019920	0.599200	0.467280
O101	O10	0.027220	0.738340	0.921450
O111	O11	0.011040	0.634440	0.898340
O121	O12	0.006430	0.586030	0.666750
O131	O13	0.159880	0.046980	0.603450
O141	O14	0.127180	0.017660	0.709570
O151	O15	0.467280	0.019920	0.599200
O161	O16	0.921450	0.027220	0.738340
O171	O17	0.898340	0.011040	0.634440
O181	O18	0.666750	0.006430	0.586030
O191	O19	0.840120	0.396550	0.953020
O201	O20	0.872820	0.290430	0.982340
O211	O21	0.532720	0.400800	0.980080
O221	O22	0.078550	0.261660	0.972780
O231	O23	0.101660	0.365560	0.988960
O241	O24	0.333250	0.413970	0.993570
O251	O25	0.396550	0.953020	0.840120
O261	O26	0.290430	0.982340	0.872820
O271	O27	0.400800	0.980080	0.532720
O281	O28	0.261660	0.972780	0.078550
O291	O29	0.365560	0.988960	0.101660
O301	O30	0.413970	0.993570	0.333250
O311	O31	0.953020	0.840120	0.396550
O321	O32	0.982340	0.872820	0.290430
O331	O33	0.980080	0.532720	0.400800
O341	O34	0.972780	0.078550	0.261660
O351	O35	0.988960	0.101660	0.365560
O361	O36	0.993570	0.333250	0.413970
O371	O37	0.396550	0.840120	0.953020
O381	O38	0.290430	0.872820	0.982340
O391	O39	0.400800	0.532720	0.980080
O401	O40	0.261660	0.078550	0.972780
O411	O41	0.365560	0.101660	0.988960
O421	O42	0.413970	0.333250	0.993570
O431	O43	0.953020	0.396550	0.840120
O441	O44	0.982340	0.290430	0.872820
O451	O45	0.980080	0.400800	0.532720
O461	O46	0.972780	0.261660	0.078550
O471	O47	0.988960	0.365560	0.101660
O481	O48	0.993570	0.413970	0.333250
O491	O49	0.840120	0.953020	0.396550
O501	O50	0.872820	0.982340	0.290430
O511	O51	0.532720	0.980080	0.400800
O521	O52	0.078550	0.972780	0.261660
O531	O53	0.101660	0.988960	0.365560
O541	O54	0.333250	0.993570	0.413970
O551	O55	0.159880	0.603450	0.046980
O561	O56	0.127180	0.709570	0.017660
O571	O57	0.467280	0.599200	0.019920
O581	O58	0.921450	0.738340	0.027220
O591	O59	0.898340	0.634440	0.011040
O601	O60	0.666750	0.586030	0.006430
O611	O61	0.603450	0.046980	0.159880
O621	O62	0.709570	0.017660	0.127180
O631	O63	0.599200	0.019920	0.467280
O641	O64	0.738340	0.027220	0.921450
O651	O65	0.634440	0.011040	0.898340
O661	O66	0.586030	0.006430	0.666750
O671	O67	0.046980	0.159880	0.603450
O681	O68	0.017660	0.127180	0.709570
O691	O69	0.019920	0.467280	0.599200
O701	O70	0.027220	0.921450	0.738340
O711	O71	0.011040	0.898340	0.634440
O721	O72	0.006430	0.666750	0.586030
O731	O73	0.618480	0.017050	0.017050
O741	O74	0.017040	0.618480	0.017050
O751	O75	0.017040	0.017050	0.618480
O761	O76	0.982960	0.381520	0.982960
O771	O77	0.381520	0.982960	0.982960
O781	O78	0.982960	0.982960	0.381520
