data_AWOFOI_clean_PM
_symmetry_space_group_name_H-M	'P1'
_cell_length_a	10.699400
_cell_length_b	12.196100
_cell_length_c	13.677300
_cell_angle_alpha	90.000000
_cell_angle_beta	90.000000
_cell_angle_gamma	101.574000
_symmetry_Int_Tables_number 1

loop_
_symmetry_equiv_pos_as_xyz
'x,y,z'

loop_
_atom_site_label
_atom_site_type_symbol
_atom_site_fract_x
_atom_site_fract_y
_atom_site_fract_z
Ce11	Ce1	0.376940	0.604340	0.963910
Ce21	Ce2	0.123060	0.895660	0.463910
Ce31	Ce3	0.623060	0.395660	0.036090
Ce41	Ce4	0.876940	0.104340	0.536090
H11	H1	0.071500	0.390400	0.069100
H21	H2	0.879000	0.173600	0.262200
H31	H3	0.243300	0.166600	0.198200
H41	H4	0.428500	0.109600	0.569100
H51	H5	0.621000	0.326400	0.762200
H61	H6	0.256700	0.333400	0.698200
H71	H7	0.928500	0.609600	0.930900
H81	H8	0.121000	0.826400	0.737800
H91	H9	0.756700	0.833400	0.801800
H101	H10	0.571500	0.890400	0.430900
H111	H11	0.379000	0.673600	0.237800
H121	H12	0.743300	0.666600	0.301800
C11	C1	0.300700	0.341600	0.076000
C21	C2	0.178200	0.286700	0.127600
C31	C3	0.068700	0.330500	0.111800
C41	C4	0.955200	0.284700	0.159700
C51	C5	0.953100	0.200600	0.227000
C61	C6	0.061200	0.155400	0.242900
C71	C7	0.172000	0.198600	0.190300
C81	C8	0.060700	0.063200	0.315400
C91	C9	0.838600	0.331000	0.134200
C101	C10	0.199300	0.158400	0.576000
C111	C11	0.321800	0.213300	0.627600
C121	C12	0.431300	0.169500	0.611800
C131	C13	0.544800	0.215300	0.659700
C141	C14	0.546900	0.299400	0.727000
C151	C15	0.438800	0.344600	0.742900
C161	C16	0.328000	0.301400	0.690300
C171	C17	0.439300	0.436800	0.815400
C181	C18	0.661400	0.169000	0.634200
C191	C19	0.699300	0.658400	0.924000
C201	C20	0.821800	0.713300	0.872400
C211	C21	0.931300	0.669500	0.888200
C221	C22	0.044800	0.715300	0.840300
C231	C23	0.046900	0.799400	0.773000
C241	C24	0.938800	0.844600	0.757100
C251	C25	0.828000	0.801400	0.809700
C261	C26	0.939300	0.936800	0.684600
C271	C27	0.161400	0.669000	0.865800
C281	C28	0.800700	0.841600	0.424000
C291	C29	0.678200	0.786700	0.372400
C301	C30	0.568700	0.830500	0.388200
C311	C31	0.455200	0.784700	0.340300
C321	C32	0.453100	0.700600	0.273000
C331	C33	0.561200	0.655400	0.257100
C341	C34	0.672000	0.698600	0.309700
C351	C35	0.560700	0.563200	0.184600
C361	C36	0.338600	0.831000	0.365800
O11	O1	0.289600	0.411700	0.011000
O21	O2	0.402200	0.313300	0.099900
O31	O3	0.852200	0.427700	0.100900
O41	O4	0.728900	0.267100	0.142800
O51	O5	0.988400	0.058500	0.390000
O61	O6	0.133500	0.997600	0.302700
O71	O7	0.210400	0.088300	0.511000
O81	O8	0.097800	0.186700	0.599900
O91	O9	0.647800	0.072300	0.600900
O101	O10	0.771100	0.232900	0.642800
O111	O11	0.511600	0.441500	0.890000
O121	O12	0.366500	0.502400	0.802700
O131	O13	0.710400	0.588300	0.989000
O141	O14	0.597800	0.686700	0.900100
O151	O15	0.147800	0.572300	0.899100
O161	O16	0.271100	0.732900	0.857200
O171	O17	0.011600	0.941500	0.610000
O181	O18	0.866500	0.002400	0.697300
O191	O19	0.789600	0.911700	0.489000
O201	O20	0.902200	0.813300	0.400100
O211	O21	0.352200	0.927700	0.399100
O221	O22	0.228900	0.767100	0.357200
O231	O23	0.488400	0.558500	0.110000
O241	O24	0.633500	0.497600	0.197300
