data_AXAQAT_clean_PM
_symmetry_space_group_name_H-M	'P1'
_cell_length_a	6.734000
_cell_length_b	12.536000
_cell_length_c	9.120000
_cell_angle_alpha	90.000000
_cell_angle_beta	118.622000
_cell_angle_gamma	90.000000
_symmetry_Int_Tables_number 1

loop_
_symmetry_equiv_pos_as_xyz
'x,y,z'

loop_
_atom_site_label
_atom_site_type_symbol
_atom_site_fract_x
_atom_site_fract_y
_atom_site_fract_z
Ag11	Ag1	0.646300	0.233020	0.601500
C11	C1	0.550000	0.160100	0.376300
N11	N1	0.488300	0.107000	0.258600
C21	C2	0.725000	0.326500	0.809100
N21	N2	0.773200	0.389100	0.909800
C31	C3	0.981400	0.091400	0.077100
H11	H1	0.049100	0.157500	0.075100
C41	C4	0.773900	0.090800	0.078400
H21	H2	0.700900	0.156500	0.073800
Ag21	Ag2	0.146300	0.733020	0.601500
C51	C5	0.050000	0.660100	0.376300
N31	N3	0.988300	0.607000	0.258600
C61	C6	0.225000	0.826500	0.809100
N41	N4	0.273200	0.889100	0.909800
C71	C7	0.481400	0.591400	0.077100
H31	H3	0.549100	0.657500	0.075100
C81	C8	0.273900	0.590800	0.078400
H41	H4	0.200900	0.656500	0.073800
Ag31	Ag3	0.646300	0.766980	0.601500
C91	C9	0.550000	0.839900	0.376300
N51	N5	0.488300	0.893000	0.258600
C101	C10	0.725000	0.673500	0.809100
N61	N6	0.773200	0.610900	0.909800
C111	C11	0.981400	0.908600	0.077100
H51	H5	0.049100	0.842500	0.075100
C121	C12	0.773900	0.909200	0.078400
H61	H6	0.700900	0.843500	0.073800
Ag41	Ag4	0.146300	0.266980	0.601500
C131	C13	0.050000	0.339900	0.376300
N71	N7	0.988300	0.393000	0.258600
C141	C14	0.225000	0.173500	0.809100
N81	N8	0.273200	0.110900	0.909800
C151	C15	0.481400	0.408600	0.077100
H71	H7	0.549100	0.342500	0.075100
C161	C16	0.273900	0.409200	0.078400
H81	H8	0.200900	0.343500	0.073800
Fe11	Fe1	0.380700	0.000000	0.082000
N91	N9	0.085000	0.000000	0.078700
N101	N10	0.678000	0.000000	0.085900
Fe21	Fe2	0.880700	0.500000	0.082000
N111	N11	0.585000	0.500000	0.078700
N121	N12	0.178000	0.500000	0.085900
