data_AXIMUP_clean_PM
_symmetry_space_group_name_H-M	'P1'
_cell_length_a	10.830400
_cell_length_b	16.713300
_cell_length_c	28.085000
_cell_angle_alpha	90.000000
_cell_angle_beta	94.967000
_cell_angle_gamma	90.000000
_symmetry_Int_Tables_number 1

loop_
_symmetry_equiv_pos_as_xyz
'x,y,z'

loop_
_atom_site_label
_atom_site_type_symbol
_atom_site_fract_x
_atom_site_fract_y
_atom_site_fract_z
La11	La1	0.540310	0.877350	0.531690
O11	O1	0.587160	0.796370	0.467760
O21	O2	0.008200	0.608280	0.113310
N11	N1	0.653000	0.764450	0.434710
N21	N2	0.956900	0.618710	0.153850
C11	C1	0.763400	0.794920	0.426500
H11	H1	0.796300	0.837000	0.445200
C21	C2	0.828400	0.764970	0.391020
H21	H2	0.905800	0.785800	0.385900
C31	C3	0.778300	0.703300	0.362610
C41	C4	0.669100	0.672700	0.372940
H31	H3	0.636400	0.629200	0.355500
C51	C5	0.604400	0.704010	0.408610
H41	H4	0.527500	0.683100	0.414400
C61	C6	0.849800	0.673200	0.321660
H51	H5	0.907200	0.714800	0.314000
H61	H6	0.898700	0.627400	0.333100
C71	C7	0.786700	0.653100	0.283250
H71	H7	0.725400	0.694700	0.276100
H81	H8	0.741500	0.605000	0.290200
C81	C8	0.848700	0.637000	0.236900
C91	C9	0.970900	0.620400	0.236880
H91	H9	0.018600	0.613100	0.265700
C101	C10	0.025100	0.614000	0.194290
H101	H10	0.110200	0.606400	0.194500
C111	C11	0.837700	0.628900	0.153700
H111	H11	0.789000	0.629900	0.124800
C121	C12	0.784200	0.637900	0.194740
H121	H12	0.698800	0.645000	0.193500
O31	O3	0.723110	0.807710	0.570510
O41	O4	0.006090	0.527130	0.955800
N31	N3	0.748000	0.770950	0.612330
N41	N4	0.992260	0.560320	0.912000
C131	C13	0.837000	0.794800	0.641400
H131	H13	0.881400	0.840000	0.633800
C141	C14	0.869300	0.756100	0.683380
H141	H14	0.935000	0.776000	0.703500
C151	C15	0.809300	0.689560	0.696980
C161	C16	0.717100	0.668600	0.666070
H151	H15	0.669700	0.624500	0.673300
C171	C17	0.686400	0.707800	0.623710
H161	H16	0.621100	0.689100	0.603000
C181	C18	0.840600	0.643500	0.743670
H171	H17	0.769600	0.646800	0.762400
H181	H18	0.851200	0.587600	0.735700
C191	C19	0.948700	0.668640	0.773540
H191	H19	0.943900	0.726000	0.778300
H201	H20	0.021600	0.658200	0.756700
C201	C20	0.965400	0.628130	0.822250
C211	C21	0.075200	0.595230	0.839690
H211	H21	0.141700	0.595000	0.820800
C221	C22	0.089500	0.562110	0.885110
H221	H22	0.165600	0.541300	0.896900
C231	C23	0.882100	0.588860	0.895010
H231	H23	0.814500	0.584400	0.913100
C241	C24	0.868400	0.624710	0.850930
H241	H24	0.792400	0.647100	0.840200
La21	La2	0.959690	0.377350	0.968310
O51	O5	0.912840	0.296370	0.032240
O61	O6	0.491800	0.108280	0.386690
N51	N5	0.847000	0.264450	0.065290
N61	N6	0.543100	0.118710	0.346150
C251	C25	0.736600	0.294920	0.073500
H251	H25	0.703700	0.337000	0.054800
C261	C26	0.671600	0.264970	0.108980
H261	H26	0.594200	0.285800	0.114100
C271	C27	0.721700	0.203300	0.137390
C281	C28	0.830900	0.172700	0.127060
H271	H27	0.863600	0.129200	0.144500
C291	C29	0.895600	0.204010	0.091390
H281	H28	0.972500	0.183100	0.085600
C301	C30	0.650200	0.173200	0.178340
H291	H29	0.592800	0.214800	0.186000
H301	H30	0.601300	0.127400	0.166900
C311	C31	0.713300	0.153100	0.216750
H311	H31	0.774600	0.194700	0.223900
H321	H32	0.758500	0.105000	0.209800
C321	C32	0.651300	0.137000	0.263100
C331	C33	0.529100	0.120400	0.263120
H331	H33	0.481400	0.113100	0.234300
C341	C34	0.474900	0.114000	0.305710
H341	H34	0.389800	0.106400	0.305500
C351	C35	0.662300	0.128900	0.346300
H351	H35	0.711000	0.129900	0.375200
C361	C36	0.715800	0.137900	0.305260
H361	H36	0.801200	0.145000	0.306500
O71	O7	0.776890	0.307710	0.929490
O81	O8	0.493910	0.027130	0.544200
N71	N7	0.752000	0.270950	0.887670
N81	N8	0.507740	0.060320	0.588000
C371	C37	0.663000	0.294800	0.858600
H371	H37	0.618600	0.340000	0.866200
C381	C38	0.630700	0.256100	0.816620
H381	H38	0.565000	0.276000	0.796500
C391	C39	0.690700	0.189560	0.803020
C401	C40	0.782900	0.168600	0.833930
H391	H39	0.830300	0.124500	0.826700
C411	C41	0.813600	0.207800	0.876290
H401	H40	0.878900	0.189100	0.897000
C421	C42	0.659400	0.143500	0.756330
H411	H41	0.730400	0.146800	0.737600
H421	H42	0.648800	0.087600	0.764300
C431	C43	0.551300	0.168640	0.726460
H431	H43	0.556100	0.226000	0.721700
H441	H44	0.478400	0.158200	0.743300
C441	C44	0.534600	0.128130	0.677750
C451	C45	0.424800	0.095230	0.660310
H451	H45	0.358300	0.095000	0.679200
C461	C46	0.410500	0.062110	0.614890
H461	H46	0.334400	0.041300	0.603100
C471	C47	0.617900	0.088860	0.604990
H471	H47	0.685500	0.084400	0.586900
C481	C48	0.631600	0.124710	0.649070
H481	H48	0.707600	0.147100	0.659800
La31	La3	0.459690	0.122650	0.468310
O91	O9	0.412840	0.203630	0.532240
O101	O10	0.991800	0.391720	0.886690
N91	N9	0.347000	0.235550	0.565290
N101	N10	0.043100	0.381290	0.846150
C491	C49	0.236600	0.205080	0.573500
H491	H49	0.203700	0.163000	0.554800
C501	C50	0.171600	0.235030	0.608980
H501	H50	0.094200	0.214200	0.614100
C511	C51	0.221700	0.296700	0.637390
C521	C52	0.330900	0.327300	0.627060
H511	H51	0.363600	0.370800	0.644500
C531	C53	0.395600	0.295990	0.591390
H521	H52	0.472500	0.316900	0.585600
C541	C54	0.150200	0.326800	0.678340
H531	H53	0.092800	0.285200	0.686000
H541	H54	0.101300	0.372600	0.666900
C551	C55	0.213300	0.346900	0.716750
H551	H55	0.274600	0.305300	0.723900
H561	H56	0.258500	0.395000	0.709800
C561	C56	0.151300	0.363000	0.763100
C571	C57	0.029100	0.379600	0.763120
H571	H57	0.981400	0.386900	0.734300
C581	C58	0.974900	0.386000	0.805710
H581	H58	0.889800	0.393600	0.805500
C591	C59	0.162300	0.371100	0.846300
H591	H59	0.211000	0.370100	0.875200
C601	C60	0.215800	0.362100	0.805260
H601	H60	0.301200	0.355000	0.806500
O111	O11	0.276890	0.192290	0.429490
O121	O12	0.993910	0.472870	0.044200
N111	N11	0.252000	0.229050	0.387670
N121	N12	0.007740	0.439680	0.088000
C611	C61	0.163000	0.205200	0.358600
H611	H61	0.118600	0.160000	0.366200
C621	C62	0.130700	0.243900	0.316620
H621	H62	0.065000	0.224000	0.296500
C631	C63	0.190700	0.310440	0.303020
C641	C64	0.282900	0.331400	0.333930
H631	H63	0.330300	0.375500	0.326700
C651	C65	0.313600	0.292200	0.376290
H641	H64	0.378900	0.310900	0.397000
C661	C66	0.159400	0.356500	0.256330
H651	H65	0.230400	0.353200	0.237600
H661	H66	0.148800	0.412400	0.264300
C671	C67	0.051300	0.331360	0.226460
H671	H67	0.056100	0.274000	0.221700
H681	H68	0.978400	0.341800	0.243300
C681	C68	0.034600	0.371870	0.177750
C691	C69	0.924800	0.404770	0.160310
H691	H69	0.858300	0.405000	0.179200
C701	C70	0.910500	0.437890	0.114890
H701	H70	0.834400	0.458700	0.103100
C711	C71	0.117900	0.411140	0.104990
H711	H71	0.185500	0.415600	0.086900
C721	C72	0.131600	0.375290	0.149070
H721	H72	0.207600	0.352900	0.159800
La41	La4	0.040310	0.622650	0.031690
O131	O13	0.087160	0.703630	0.967760
O141	O14	0.508200	0.891720	0.613310
N131	N13	0.153000	0.735550	0.934710
N141	N14	0.456900	0.881290	0.653850
C731	C73	0.263400	0.705080	0.926500
H731	H73	0.296300	0.663000	0.945200
C741	C74	0.328400	0.735030	0.891020
H741	H74	0.405800	0.714200	0.885900
C751	C75	0.278300	0.796700	0.862610
C761	C76	0.169100	0.827300	0.872940
H751	H75	0.136400	0.870800	0.855500
C771	C77	0.104400	0.795990	0.908610
H761	H76	0.027500	0.816900	0.914400
C781	C78	0.349800	0.826800	0.821660
H771	H77	0.407200	0.785200	0.814000
H781	H78	0.398700	0.872600	0.833100
C791	C79	0.286700	0.846900	0.783250
H791	H79	0.225400	0.805300	0.776100
H801	H80	0.241500	0.895000	0.790200
C801	C80	0.348700	0.863000	0.736900
C811	C81	0.470900	0.879600	0.736880
H811	H81	0.518600	0.886900	0.765700
C821	C82	0.525100	0.886000	0.694290
H821	H82	0.610200	0.893600	0.694500
C831	C83	0.337700	0.871100	0.653700
H831	H83	0.289000	0.870100	0.624800
C841	C84	0.284200	0.862100	0.694740
H841	H84	0.198800	0.855000	0.693500
O151	O15	0.223110	0.692290	0.070510
O161	O16	0.506090	0.972870	0.455800
N151	N15	0.248000	0.729050	0.112330
N161	N16	0.492260	0.939680	0.412000
C851	C85	0.337000	0.705200	0.141400
H851	H85	0.381400	0.660000	0.133800
C861	C86	0.369300	0.743900	0.183380
H861	H86	0.435000	0.724000	0.203500
C871	C87	0.309300	0.810440	0.196980
C881	C88	0.217100	0.831400	0.166070
H871	H87	0.169700	0.875500	0.173300
C891	C89	0.186400	0.792200	0.123710
H881	H88	0.121100	0.810900	0.103000
C901	C90	0.340600	0.856500	0.243670
H891	H89	0.269600	0.853200	0.262400
H901	H90	0.351200	0.912400	0.235700
C911	C91	0.448700	0.831360	0.273540
H911	H91	0.443900	0.774000	0.278300
H921	H92	0.521600	0.841800	0.256700
C921	C92	0.465400	0.871870	0.322250
C931	C93	0.575200	0.904770	0.339690
H931	H93	0.641700	0.905000	0.320800
C941	C94	0.589500	0.937890	0.385110
H941	H94	0.665600	0.958700	0.396900
C951	C95	0.382100	0.911140	0.395010
H951	H95	0.314500	0.915600	0.413100
C961	C96	0.368400	0.875290	0.350930
H961	H96	0.292400	0.852900	0.340200
