data_AXINIF_clean_PM
_symmetry_space_group_name_H-M	'P1'
_cell_length_a	17.551000
_cell_length_b	21.148000
_cell_length_c	25.356000
_cell_angle_alpha	90.000000
_cell_angle_beta	90.000000
_cell_angle_gamma	90.000000
_symmetry_Int_Tables_number 1

loop_
_symmetry_equiv_pos_as_xyz
'x,y,z'

loop_
_atom_site_label
_atom_site_type_symbol
_atom_site_fract_x
_atom_site_fract_y
_atom_site_fract_z
Co11	Co1	0.003250	0.936210	0.680790
Co21	Co2	0.496750	0.436210	0.319210
Co31	Co3	0.003250	0.936210	0.819210
Co41	Co4	0.496750	0.436210	0.180790
Co51	Co5	0.387230	0.336760	0.250000
Co61	Co6	0.112770	0.836760	0.750000
H11	H1	0.403000	0.189200	0.362100
H21	H2	0.617400	0.108400	0.517700
H31	H3	0.301000	0.080500	0.576000
H41	H4	0.516500	0.988900	0.618400
H51	H5	0.576000	0.216400	0.497800
H61	H6	0.564900	0.292000	0.432600
H71	H7	0.190400	0.039000	0.612000
H81	H8	0.412000	0.114000	0.427000
H91	H9	0.415400	0.925300	0.620300
H101	H10	0.306300	0.886000	0.659100
H111	H11	0.740900	0.963500	0.689600
H121	H12	0.389900	0.088600	0.516400
H131	H13	0.626600	0.998600	0.662700
H141	H14	0.710900	0.033300	0.519600
H151	H15	0.830100	0.012600	0.551400
H161	H16	0.097000	0.689200	0.637900
H171	H17	0.882600	0.608400	0.482300
H181	H18	0.199000	0.580500	0.424000
H191	H19	0.983500	0.488900	0.381600
H201	H20	0.924000	0.716400	0.502200
H211	H21	0.935100	0.792000	0.567400
H221	H22	0.309600	0.539000	0.388000
H231	H23	0.088000	0.614000	0.573000
H241	H24	0.084600	0.425300	0.379700
H251	H25	0.193700	0.386000	0.340900
H261	H26	0.759100	0.463500	0.310400
H271	H27	0.110100	0.588600	0.483600
H281	H28	0.873400	0.498600	0.337300
H291	H29	0.789100	0.533300	0.480400
H301	H30	0.669900	0.512600	0.448600
H311	H31	0.403000	0.189200	0.137900
H321	H32	0.617400	0.108400	0.982300
H331	H33	0.301000	0.080500	0.924000
H341	H34	0.516500	0.988900	0.881600
H351	H35	0.576000	0.216400	0.002200
H361	H36	0.564900	0.292000	0.067400
H371	H37	0.190400	0.039000	0.888000
H381	H38	0.412000	0.114000	0.073000
H391	H39	0.415400	0.925300	0.879700
H401	H40	0.306300	0.886000	0.840900
H411	H41	0.740900	0.963500	0.810400
H421	H42	0.389900	0.088600	0.983600
H431	H43	0.626600	0.998600	0.837300
H441	H44	0.710900	0.033300	0.980400
H451	H45	0.830100	0.012600	0.948600
H461	H46	0.097000	0.689200	0.862100
H471	H47	0.882600	0.608400	0.017700
H481	H48	0.199000	0.580500	0.076000
H491	H49	0.983500	0.488900	0.118400
H501	H50	0.924000	0.716400	0.997800
H511	H51	0.935100	0.792000	0.932600
H521	H52	0.309600	0.539000	0.112000
H531	H53	0.088000	0.614000	0.927000
H541	H54	0.084600	0.425300	0.120300
H551	H55	0.193700	0.386000	0.159100
H561	H56	0.759100	0.463500	0.189600
H571	H57	0.110100	0.588600	0.016400
H581	H58	0.873400	0.498600	0.162700
H591	H59	0.789100	0.533300	0.019600
H601	H60	0.669900	0.512600	0.051400
C11	C1	0.579300	0.044600	0.570670
C21	C2	0.877800	0.969480	0.648800
C31	C3	0.437500	0.194840	0.389490
C41	C4	0.502980	0.107300	0.510480
C51	C5	0.573400	0.089680	0.530870
C61	C6	0.482000	0.249200	0.390930
C71	C7	0.302200	0.041100	0.592290
C81	C8	0.655700	0.025300	0.590050
C91	C9	0.799900	0.988970	0.626560
C101	C10	0.496400	0.154900	0.468150
C111	C11	0.513000	0.018100	0.591070
C121	C12	0.237000	0.959060	0.639820
C131	C13	0.541500	0.210550	0.470310
C141	C14	0.370700	0.007300	0.594230
C151	C15	0.472700	0.299570	0.349900
C161	C16	0.534200	0.256110	0.431470
C171	C17	0.235800	0.016490	0.614420
C181	C18	0.443700	0.149150	0.428040
C191	C19	0.165800	0.933750	0.666090
C201	C20	0.441300	0.034440	0.571360
C211	C21	0.370700	0.948810	0.619050
C221	C22	0.305000	0.924930	0.642090
C231	C23	0.736700	0.982100	0.656510
C241	C24	0.437100	0.078280	0.530580
C251	C25	0.667700	0.001500	0.639730
C261	C26	0.717800	0.024100	0.555200
C271	C27	0.788300	0.009300	0.573900
C281	C28	0.920700	0.544600	0.429330
C291	C29	0.622200	0.469480	0.351200
C301	C30	0.062500	0.694840	0.610510
C311	C31	0.997020	0.607300	0.489520
C321	C32	0.926600	0.589680	0.469130
C331	C33	0.018000	0.749200	0.609070
C341	C34	0.197800	0.541100	0.407710
C351	C35	0.844300	0.525300	0.409950
C361	C36	0.700100	0.488970	0.373440
C371	C37	0.003600	0.654900	0.531850
C381	C38	0.987000	0.518100	0.408930
C391	C39	0.263000	0.459060	0.360180
C401	C40	0.958500	0.710550	0.529690
C411	C41	0.129300	0.507300	0.405770
C421	C42	0.027300	0.799570	0.650100
C431	C43	0.965800	0.756110	0.568530
C441	C44	0.264200	0.516490	0.385580
C451	C45	0.056300	0.649150	0.571960
C461	C46	0.334200	0.433750	0.333910
C471	C47	0.058700	0.534440	0.428640
C481	C48	0.129300	0.448810	0.380950
C491	C49	0.195000	0.424930	0.357910
C501	C50	0.763300	0.482100	0.343490
C511	C51	0.062900	0.578280	0.469420
C521	C52	0.832300	0.501500	0.360270
C531	C53	0.782200	0.524100	0.444800
C541	C54	0.711700	0.509300	0.426100
C551	C55	0.579300	0.044600	0.929330
C561	C56	0.877800	0.969480	0.851200
C571	C57	0.437500	0.194840	0.110510
C581	C58	0.502980	0.107300	0.989520
C591	C59	0.573400	0.089680	0.969130
C601	C60	0.482000	0.249200	0.109070
C611	C61	0.302200	0.041100	0.907710
C621	C62	0.655700	0.025300	0.909950
C631	C63	0.799900	0.988970	0.873440
C641	C64	0.496400	0.154900	0.031850
C651	C65	0.513000	0.018100	0.908930
C661	C66	0.237000	0.959060	0.860180
C671	C67	0.541500	0.210550	0.029690
C681	C68	0.370700	0.007300	0.905770
C691	C69	0.472700	0.299570	0.150100
C701	C70	0.534200	0.256110	0.068530
C711	C71	0.235800	0.016490	0.885580
C721	C72	0.443700	0.149150	0.071960
C731	C73	0.165800	0.933750	0.833910
C741	C74	0.441300	0.034440	0.928640
C751	C75	0.370700	0.948810	0.880950
C761	C76	0.305000	0.924930	0.857910
C771	C77	0.736700	0.982100	0.843490
C781	C78	0.437100	0.078280	0.969420
C791	C79	0.667700	0.001500	0.860270
C801	C80	0.717800	0.024100	0.944800
C811	C81	0.788300	0.009300	0.926100
C821	C82	0.920700	0.544600	0.070670
C831	C83	0.622200	0.469480	0.148800
C841	C84	0.062500	0.694840	0.889490
C851	C85	0.997020	0.607300	0.010480
C861	C86	0.926600	0.589680	0.030870
C871	C87	0.018000	0.749200	0.890930
C881	C88	0.197800	0.541100	0.092290
C891	C89	0.844300	0.525300	0.090050
C901	C90	0.700100	0.488970	0.126560
C911	C91	0.003600	0.654900	0.968150
C921	C92	0.987000	0.518100	0.091070
C931	C93	0.263000	0.459060	0.139820
C941	C94	0.958500	0.710550	0.970310
C951	C95	0.129300	0.507300	0.094230
C961	C96	0.027300	0.799570	0.849900
C971	C97	0.965800	0.756110	0.931470
C981	C98	0.264200	0.516490	0.114420
C991	C99	0.056300	0.649150	0.928040
C1001	C100	0.334200	0.433750	0.166090
C1011	C101	0.058700	0.534440	0.071360
C1021	C102	0.129300	0.448810	0.119050
C1031	C103	0.195000	0.424930	0.142090
C1041	C104	0.763300	0.482100	0.156510
C1051	C105	0.062900	0.578280	0.030580
C1061	C106	0.832300	0.501500	0.139730
C1071	C107	0.782200	0.524100	0.055200
C1081	C108	0.711700	0.509300	0.073900
O11	O1	0.106430	0.965790	0.660420
O21	O2	0.438780	0.283450	0.308520
O31	O3	0.499700	0.352840	0.360760
O41	O4	0.172890	0.884670	0.692650
O51	O5	0.879200	0.934870	0.685980
O61	O6	0.935100	0.988310	0.624900
O71	O7	0.393570	0.465790	0.339580
O81	O8	0.061220	0.783450	0.691480
O91	O9	0.000300	0.852840	0.639240
O101	O10	0.327110	0.384670	0.307350
O111	O11	0.620800	0.434870	0.314020
O121	O12	0.564900	0.488310	0.375100
O131	O13	0.106430	0.965790	0.839580
O141	O14	0.438780	0.283450	0.191480
O151	O15	0.499700	0.352840	0.139240
O161	O16	0.172890	0.884670	0.807350
O171	O17	0.879200	0.934870	0.814020
O181	O18	0.935100	0.988310	0.875100
O191	O19	0.393570	0.465790	0.160420
O201	O20	0.061220	0.783450	0.808520
O211	O21	0.000300	0.852840	0.860760
O221	O22	0.327110	0.384670	0.192650
O231	O23	0.620800	0.434870	0.185980
O241	O24	0.564900	0.488310	0.124900
O251	O25	0.484230	0.393010	0.250000
O261	O26	0.015770	0.893010	0.750000
Co71	Co7	0.996750	0.063790	0.180790
Co81	Co8	0.503250	0.563790	0.819210
Co91	Co9	0.996750	0.063790	0.319210
Co101	Co10	0.503250	0.563790	0.680790
Co111	Co11	0.612770	0.663240	0.750000
Co121	Co12	0.887230	0.163240	0.250000
H611	H61	0.597000	0.810800	0.862100
H621	H62	0.382600	0.891600	0.017700
H631	H63	0.699000	0.919500	0.076000
H641	H64	0.483500	0.011100	0.118400
H651	H65	0.424000	0.783600	0.997800
H661	H66	0.435100	0.708000	0.932600
H671	H67	0.809600	0.961000	0.112000
H681	H68	0.588000	0.886000	0.927000
H691	H69	0.584600	0.074700	0.120300
H701	H70	0.693700	0.114000	0.159100
H711	H71	0.259100	0.036500	0.189600
H721	H72	0.610100	0.911400	0.016400
H731	H73	0.373400	0.001400	0.162700
H741	H74	0.289100	0.966700	0.019600
H751	H75	0.169900	0.987400	0.051400
H761	H76	0.903000	0.310800	0.137900
H771	H77	0.117400	0.391600	0.982300
H781	H78	0.801000	0.419500	0.924000
H791	H79	0.016500	0.511100	0.881600
H801	H80	0.076000	0.283600	0.002200
H811	H81	0.064900	0.208000	0.067400
H821	H82	0.690400	0.461000	0.888000
H831	H83	0.912000	0.386000	0.073000
H841	H84	0.915400	0.574700	0.879700
H851	H85	0.806300	0.614000	0.840900
H861	H86	0.240900	0.536500	0.810400
H871	H87	0.889900	0.411400	0.983600
H881	H88	0.126600	0.501400	0.837300
H891	H89	0.210900	0.466700	0.980400
H901	H90	0.330100	0.487400	0.948600
H911	H91	0.597000	0.810800	0.637900
H921	H92	0.382600	0.891600	0.482300
H931	H93	0.699000	0.919500	0.424000
H941	H94	0.483500	0.011100	0.381600
H951	H95	0.424000	0.783600	0.502200
H961	H96	0.435100	0.708000	0.567400
H971	H97	0.809600	0.961000	0.388000
H981	H98	0.588000	0.886000	0.573000
H991	H99	0.584600	0.074700	0.379700
H1001	H100	0.693700	0.114000	0.340900
H1011	H101	0.259100	0.036500	0.310400
H1021	H102	0.610100	0.911400	0.483600
H1031	H103	0.373400	0.001400	0.337300
H1041	H104	0.289100	0.966700	0.480400
H1051	H105	0.169900	0.987400	0.448600
H1061	H106	0.903000	0.310800	0.362100
H1071	H107	0.117400	0.391600	0.517700
H1081	H108	0.801000	0.419500	0.576000
H1091	H109	0.016500	0.511100	0.618400
H1101	H110	0.076000	0.283600	0.497800
H1111	H111	0.064900	0.208000	0.432600
H1121	H112	0.690400	0.461000	0.612000
H1131	H113	0.912000	0.386000	0.427000
H1141	H114	0.915400	0.574700	0.620300
H1151	H115	0.806300	0.614000	0.659100
H1161	H116	0.240900	0.536500	0.689600
H1171	H117	0.889900	0.411400	0.516400
H1181	H118	0.126600	0.501400	0.662700
H1191	H119	0.210900	0.466700	0.519600
H1201	H120	0.330100	0.487400	0.551400
C1091	C109	0.420700	0.955400	0.070670
C1101	C110	0.122200	0.030520	0.148800
C1111	C111	0.562500	0.805160	0.889490
C1121	C112	0.497020	0.892700	0.010480
C1131	C113	0.426600	0.910320	0.030870
C1141	C114	0.518000	0.750800	0.890930
C1151	C115	0.697800	0.958900	0.092290
C1161	C116	0.344300	0.974700	0.090050
C1171	C117	0.200100	0.011030	0.126560
C1181	C118	0.503600	0.845100	0.968150
C1191	C119	0.487000	0.981900	0.091070
C1201	C120	0.763000	0.040940	0.139820
C1211	C121	0.458500	0.789450	0.970310
C1221	C122	0.629300	0.992700	0.094230
C1231	C123	0.527300	0.700430	0.849900
C1241	C124	0.465800	0.743890	0.931470
C1251	C125	0.764200	0.983510	0.114420
C1261	C126	0.556300	0.850850	0.928040
C1271	C127	0.834200	0.066250	0.166090
C1281	C128	0.558700	0.965560	0.071360
C1291	C129	0.629300	0.051190	0.119050
C1301	C130	0.695000	0.075070	0.142090
C1311	C131	0.263300	0.017900	0.156510
C1321	C132	0.562900	0.921720	0.030580
C1331	C133	0.332300	0.998500	0.139730
C1341	C134	0.282200	0.975900	0.055200
C1351	C135	0.211700	0.990700	0.073900
C1361	C136	0.079300	0.455400	0.929330
C1371	C137	0.377800	0.530520	0.851200
C1381	C138	0.937500	0.305160	0.110510
C1391	C139	0.002980	0.392700	0.989520
C1401	C140	0.073400	0.410320	0.969130
C1411	C141	0.982000	0.250800	0.109070
C1421	C142	0.802200	0.458900	0.907710
C1431	C143	0.155700	0.474700	0.909950
C1441	C144	0.299900	0.511030	0.873440
C1451	C145	0.996400	0.345100	0.031850
C1461	C146	0.013000	0.481900	0.908930
C1471	C147	0.737000	0.540940	0.860180
C1481	C148	0.041500	0.289450	0.029690
C1491	C149	0.870700	0.492700	0.905770
C1501	C150	0.972700	0.200430	0.150100
C1511	C151	0.034200	0.243890	0.068530
C1521	C152	0.735800	0.483510	0.885580
C1531	C153	0.943700	0.350850	0.071960
C1541	C154	0.665800	0.566250	0.833910
C1551	C155	0.941300	0.465560	0.928640
C1561	C156	0.870700	0.551190	0.880950
C1571	C157	0.805000	0.575070	0.857910
C1581	C158	0.236700	0.517900	0.843490
C1591	C159	0.937100	0.421720	0.969420
C1601	C160	0.167700	0.498500	0.860270
C1611	C161	0.217800	0.475900	0.944800
C1621	C162	0.288300	0.490700	0.926100
C1631	C163	0.420700	0.955400	0.429330
C1641	C164	0.122200	0.030520	0.351200
C1651	C165	0.562500	0.805160	0.610510
C1661	C166	0.497020	0.892700	0.489520
C1671	C167	0.426600	0.910320	0.469130
C1681	C168	0.518000	0.750800	0.609070
C1691	C169	0.697800	0.958900	0.407710
C1701	C170	0.344300	0.974700	0.409950
C1711	C171	0.200100	0.011030	0.373440
C1721	C172	0.503600	0.845100	0.531850
C1731	C173	0.487000	0.981900	0.408930
C1741	C174	0.763000	0.040940	0.360180
C1751	C175	0.458500	0.789450	0.529690
C1761	C176	0.629300	0.992700	0.405770
C1771	C177	0.527300	0.700430	0.650100
C1781	C178	0.465800	0.743890	0.568530
C1791	C179	0.764200	0.983510	0.385580
C1801	C180	0.556300	0.850850	0.571960
C1811	C181	0.834200	0.066250	0.333910
C1821	C182	0.558700	0.965560	0.428640
C1831	C183	0.629300	0.051190	0.380950
C1841	C184	0.695000	0.075070	0.357910
C1851	C185	0.263300	0.017900	0.343490
C1861	C186	0.562900	0.921720	0.469420
C1871	C187	0.332300	0.998500	0.360270
C1881	C188	0.282200	0.975900	0.444800
C1891	C189	0.211700	0.990700	0.426100
C1901	C190	0.079300	0.455400	0.570670
C1911	C191	0.377800	0.530520	0.648800
C1921	C192	0.937500	0.305160	0.389490
C1931	C193	0.002980	0.392700	0.510480
C1941	C194	0.073400	0.410320	0.530870
C1951	C195	0.982000	0.250800	0.390930
C1961	C196	0.802200	0.458900	0.592290
C1971	C197	0.155700	0.474700	0.590050
C1981	C198	0.299900	0.511030	0.626560
C1991	C199	0.996400	0.345100	0.468150
C2001	C200	0.013000	0.481900	0.591070
C2011	C201	0.737000	0.540940	0.639820
C2021	C202	0.041500	0.289450	0.470310
C2031	C203	0.870700	0.492700	0.594230
C2041	C204	0.972700	0.200430	0.349900
C2051	C205	0.034200	0.243890	0.431470
C2061	C206	0.735800	0.483510	0.614420
C2071	C207	0.943700	0.350850	0.428040
C2081	C208	0.665800	0.566250	0.666090
C2091	C209	0.941300	0.465560	0.571360
C2101	C210	0.870700	0.551190	0.619050
C2111	C211	0.805000	0.575070	0.642090
C2121	C212	0.236700	0.517900	0.656510
C2131	C213	0.937100	0.421720	0.530580
C2141	C214	0.167700	0.498500	0.639730
C2151	C215	0.217800	0.475900	0.555200
C2161	C216	0.288300	0.490700	0.573900
O271	O27	0.893570	0.034210	0.160420
O281	O28	0.561220	0.716550	0.808520
O291	O29	0.500300	0.647160	0.860760
O301	O30	0.827110	0.115330	0.192650
O311	O31	0.120800	0.065130	0.185980
O321	O32	0.064900	0.011690	0.124900
O331	O33	0.606430	0.534210	0.839580
O341	O34	0.938780	0.216550	0.191480
O351	O35	0.999700	0.147160	0.139240
O361	O36	0.672890	0.615330	0.807350
O371	O37	0.379200	0.565130	0.814020
O381	O38	0.435100	0.511690	0.875100
O391	O39	0.893570	0.034210	0.339580
O401	O40	0.561220	0.716550	0.691480
O411	O41	0.500300	0.647160	0.639240
O421	O42	0.827110	0.115330	0.307350
O431	O43	0.120800	0.065130	0.314020
O441	O44	0.064900	0.011690	0.375100
O451	O45	0.606430	0.534210	0.660420
O461	O46	0.938780	0.216550	0.308520
O471	O47	0.999700	0.147160	0.360760
O481	O48	0.672890	0.615330	0.692650
O491	O49	0.379200	0.565130	0.685980
O501	O50	0.435100	0.511690	0.624900
O511	O51	0.515770	0.606990	0.750000
O521	O52	0.984230	0.106990	0.250000
