data_AXIPEE03_clean_PM
_symmetry_space_group_name_H-M	'P1'
_cell_length_a	14.444400
_cell_length_b	14.711600
_cell_length_c	30.772000
_cell_angle_alpha	90.000000
_cell_angle_beta	96.966000
_cell_angle_gamma	90.000000
_symmetry_Int_Tables_number 1

loop_
_symmetry_equiv_pos_as_xyz
'x,y,z'

loop_
_atom_site_label
_atom_site_type_symbol
_atom_site_fract_x
_atom_site_fract_y
_atom_site_fract_z
C11	C1	0.134300	0.329400	0.549200
C21	C2	0.459700	0.316900	0.552000
C31	C3	0.458900	0.641600	0.556700
C41	C4	0.950400	0.132900	0.556200
C51	C5	0.273100	0.401200	0.455400
H11	H1	0.248700	0.351500	0.470100
C61	C6	0.345000	0.538000	0.457200
H21	H2	0.371300	0.588600	0.473400
C71	C7	0.271800	0.396800	0.410700
H31	H3	0.244500	0.345600	0.395200
C81	C8	0.348600	0.537900	0.412900
H41	H4	0.377500	0.586500	0.399300
C91	C9	0.309100	0.465100	0.388200
C101	C10	0.303800	0.466400	0.340100
C111	C11	0.229000	0.429500	0.313200
H51	H5	0.180300	0.398700	0.325300
C121	C12	0.227100	0.438400	0.269400
H61	H6	0.176300	0.415400	0.250000
C131	C13	0.300500	0.481600	0.253400
C141	C14	0.303300	0.494800	0.205700
C151	C15	0.220600	0.500100	0.177300
H71	H7	0.162200	0.497300	0.188500
C161	C16	0.386100	0.502400	0.187400
H81	H8	0.444100	0.501400	0.205600
C171	C17	0.223900	0.509400	0.133200
H91	H9	0.166700	0.513000	0.114400
C181	C18	0.383700	0.511400	0.142700
H101	H10	0.441100	0.516300	0.130700
N11	N1	0.193000	0.382000	0.547200
N21	N2	0.403700	0.372200	0.556200
N31	N3	0.408500	0.581900	0.556500
N41	N4	0.899000	0.073700	0.554400
N51	N5	0.307800	0.473200	0.479100
N61	N6	0.374100	0.508500	0.323500
N71	N7	0.372800	0.515300	0.280000
N81	N8	0.303700	0.513500	0.115400
Fe11	Fe1	0.302640	0.480660	0.549860
Au11	Au1	0.040990	0.233340	0.552680
Au21	Au2	0.554080	0.225980	0.543510
Au31	Au3	0.549890	0.741450	0.552680
C191	C19	0.152500	0.367500	0.040100
C201	C20	0.147000	0.661600	0.049300
C211	C21	0.451000	0.669700	0.052500
C221	C22	0.645200	0.856700	0.041000
C231	C23	0.328300	0.454000	0.961300
H111	H11	0.346800	0.400000	0.976900
C241	C24	0.278600	0.600000	0.961000
H121	H12	0.263000	0.652800	0.976400
C251	C25	0.330600	0.454200	0.917100
H131	H13	0.351000	0.401900	0.902900
C261	C26	0.275900	0.605400	0.915700
H141	H14	0.255800	0.659500	0.900600
C271	C27	0.303000	0.530900	0.893100
C281	C28	0.299900	0.532000	0.844700
C291	C29	0.226900	0.574800	0.818100
H151	H15	0.180100	0.608300	0.830300
C301	C30	0.225900	0.566200	0.774100
H161	H16	0.177800	0.593400	0.754600
C311	C31	0.296300	0.516900	0.758100
C321	C32	0.300500	0.504600	0.710300
C331	C33	0.383300	0.499400	0.692600
H171	H17	0.441100	0.502400	0.711000
C341	C34	0.381600	0.490000	0.648200
H181	H18	0.439400	0.486500	0.636500
C351	C35	0.222700	0.489600	0.637800
H191	H19	0.165800	0.485500	0.618800
C361	C36	0.218200	0.499200	0.681800
H201	H20	0.159500	0.502100	0.692800
N91	N9	0.208000	0.423200	0.042600
N101	N10	0.203700	0.610300	0.047550
N111	N11	0.396000	0.615600	0.054500
N121	N12	0.701200	0.912900	0.040900
N131	N13	0.301800	0.524600	0.984160
N141	N14	0.367400	0.486600	0.828500
N151	N15	0.367000	0.480300	0.784700
N161	N16	0.302500	0.485600	0.620300
Fe21	Fe2	0.302260	0.519160	0.049780
Au41	Au4	0.547220	0.764140	0.044790
C371	C37	0.652500	0.132500	0.540100
C381	C38	0.647000	0.838400	0.549300
C391	C39	0.951000	0.830300	0.552500
C401	C40	0.145200	0.643300	0.541000
C411	C41	0.828300	0.046000	0.461300
H211	H21	0.846800	0.100000	0.476900
C421	C42	0.778600	0.900000	0.461000
H221	H22	0.763000	0.847200	0.476400
C431	C43	0.830600	0.045800	0.417100
H231	H23	0.851000	0.098100	0.402900
C441	C44	0.775900	0.894600	0.415700
H241	H24	0.755800	0.840500	0.400600
C451	C45	0.803000	0.969100	0.393100
C461	C46	0.799900	0.968000	0.344700
C471	C47	0.726900	0.925200	0.318100
H251	H25	0.680100	0.891700	0.330300
C481	C48	0.725900	0.933800	0.274100
H261	H26	0.677800	0.906600	0.254600
C491	C49	0.796300	0.983100	0.258100
C501	C50	0.800500	0.995400	0.210300
C511	C51	0.883300	0.000600	0.192600
H271	H27	0.941100	0.997600	0.211000
C521	C52	0.881600	0.010000	0.148200
H281	H28	0.939400	0.013500	0.136500
C531	C53	0.722700	0.010400	0.137800
H291	H29	0.665800	0.014500	0.118800
C541	C54	0.718200	0.000800	0.181800
H301	H30	0.659500	0.997900	0.192800
N171	N17	0.708000	0.076800	0.542600
N181	N18	0.703700	0.889700	0.547550
N191	N19	0.896000	0.884400	0.554500
N201	N20	0.201200	0.587100	0.540900
N211	N21	0.801800	0.975400	0.484160
N221	N22	0.867400	0.013400	0.328500
N231	N23	0.867000	0.019700	0.284700
N241	N24	0.802500	0.014400	0.120300
Fe31	Fe3	0.802260	0.980840	0.549780
Au51	Au5	0.047220	0.735860	0.544790
C551	C55	0.634300	0.170600	0.049200
C561	C56	0.959700	0.183100	0.052000
C571	C57	0.958900	0.858400	0.056700
C581	C58	0.450400	0.367100	0.056200
C591	C59	0.773100	0.098800	0.955400
H311	H31	0.748700	0.148500	0.970100
C601	C60	0.845000	0.962000	0.957200
H321	H32	0.871300	0.911400	0.973400
C611	C61	0.771800	0.103200	0.910700
H331	H33	0.744500	0.154400	0.895200
C621	C62	0.848600	0.962100	0.912900
H341	H34	0.877500	0.913500	0.899300
C631	C63	0.809100	0.034900	0.888200
C641	C64	0.803800	0.033600	0.840100
C651	C65	0.729000	0.070500	0.813200
H351	H35	0.680300	0.101300	0.825300
C661	C66	0.727100	0.061600	0.769400
H361	H36	0.676300	0.084600	0.750000
C671	C67	0.800500	0.018400	0.753400
C681	C68	0.803300	0.005200	0.705700
C691	C69	0.720600	0.999900	0.677300
H371	H37	0.662200	0.002700	0.688500
C701	C70	0.886100	0.997600	0.687400
H381	H38	0.944100	0.998600	0.705600
C711	C71	0.723900	0.990600	0.633200
H391	H39	0.666700	0.987000	0.614400
C721	C72	0.883700	0.988600	0.642700
H401	H40	0.941100	0.983700	0.630700
N251	N25	0.693000	0.118000	0.047200
N261	N26	0.903700	0.127800	0.056200
N271	N27	0.908500	0.918100	0.056500
N281	N28	0.399000	0.426300	0.054400
N291	N29	0.807800	0.026800	0.979100
N301	N30	0.874100	0.991500	0.823500
N311	N31	0.872800	0.984700	0.780000
N321	N32	0.803700	0.986500	0.615400
Fe41	Fe4	0.802640	0.019340	0.049860
Au61	Au6	0.540990	0.266660	0.052680
Au71	Au7	0.054080	0.274020	0.043510
Au81	Au8	0.049890	0.758550	0.052680
C731	C73	0.347500	0.867500	0.459900
C741	C74	0.353000	0.161600	0.450700
C751	C75	0.049000	0.169700	0.447500
C761	C76	0.854800	0.356700	0.459000
C771	C77	0.171700	0.954000	0.538700
H411	H41	0.153200	0.900000	0.523100
C781	C78	0.221400	0.100000	0.539000
H421	H42	0.237000	0.152800	0.523600
C791	C79	0.169400	0.954200	0.582900
H431	H43	0.149000	0.901900	0.597100
C801	C80	0.224100	0.105400	0.584300
H441	H44	0.244200	0.159500	0.599400
C811	C81	0.197000	0.030900	0.606900
C821	C82	0.200100	0.032000	0.655300
C831	C83	0.273100	0.074800	0.681900
H451	H45	0.319900	0.108300	0.669700
C841	C84	0.274100	0.066200	0.725900
H461	H46	0.322200	0.093400	0.745400
C851	C85	0.203700	0.016900	0.741900
C861	C86	0.199500	0.004600	0.789700
C871	C87	0.116700	0.999400	0.807400
H471	H47	0.058900	0.002400	0.789000
C881	C88	0.118400	0.990000	0.851800
H481	H48	0.060600	0.986500	0.863500
C891	C89	0.277300	0.989600	0.862200
H491	H49	0.334200	0.985500	0.881200
C901	C90	0.281800	0.999200	0.818200
H501	H50	0.340500	0.002100	0.807200
N331	N33	0.292000	0.923200	0.457400
N341	N34	0.296300	0.110300	0.452450
N351	N35	0.104000	0.115600	0.445500
N361	N36	0.798800	0.412900	0.459100
N371	N37	0.198200	0.024600	0.515840
N381	N38	0.132600	0.986600	0.671500
N391	N39	0.133000	0.980300	0.715300
N401	N40	0.197500	0.985600	0.879700
Fe51	Fe5	0.197740	0.019160	0.450220
Au91	Au9	0.952780	0.264140	0.455210
C911	C91	0.365700	0.829400	0.950800
C921	C92	0.040300	0.816900	0.948000
C931	C93	0.041100	0.141600	0.943300
C941	C94	0.549600	0.632900	0.943800
C951	C95	0.226900	0.901200	0.044600
H511	H51	0.251300	0.851500	0.029900
C961	C96	0.155000	0.038000	0.042800
H521	H52	0.128700	0.088600	0.026600
C971	C97	0.228200	0.896800	0.089300
H531	H53	0.255500	0.845600	0.104800
C981	C98	0.151400	0.037900	0.087100
H541	H54	0.122500	0.086500	0.100700
C991	C99	0.190900	0.965100	0.111800
C1001	C100	0.196200	0.966400	0.159900
C1011	C101	0.271000	0.929500	0.186800
H551	H55	0.319700	0.898700	0.174700
C1021	C102	0.272900	0.938400	0.230600
H561	H56	0.323700	0.915400	0.250000
C1031	C103	0.199500	0.981600	0.246600
C1041	C104	0.196700	0.994800	0.294300
C1051	C105	0.279400	0.000100	0.322700
H571	H57	0.337800	0.997300	0.311500
C1061	C106	0.113900	0.002400	0.312600
H581	H58	0.055900	0.001400	0.294400
C1071	C107	0.276100	0.009400	0.366800
H591	H59	0.333300	0.013000	0.385600
C1081	C108	0.116300	0.011400	0.357300
H601	H60	0.058900	0.016300	0.369300
N411	N41	0.307000	0.882000	0.952800
N421	N42	0.096300	0.872200	0.943800
N431	N43	0.091500	0.081900	0.943500
N441	N44	0.601000	0.573700	0.945600
N451	N45	0.192200	0.973200	0.020900
N461	N46	0.125900	0.008500	0.176500
N471	N47	0.127200	0.015300	0.220000
N481	N48	0.196300	0.013500	0.384600
Fe61	Fe6	0.197360	0.980660	0.950140
Au101	Au10	0.459010	0.733340	0.947320
Au111	Au11	0.945920	0.725980	0.956490
Au121	Au12	0.950110	0.241450	0.947320
C1091	C109	0.865700	0.670600	0.450800
C1101	C110	0.540300	0.683100	0.448000
C1111	C111	0.541100	0.358400	0.443300
C1121	C112	0.049600	0.867100	0.443800
C1131	C113	0.726900	0.598800	0.544600
H611	H61	0.751300	0.648500	0.529900
C1141	C114	0.655000	0.462000	0.542800
H621	H62	0.628700	0.411400	0.526600
C1151	C115	0.728200	0.603200	0.589300
H631	H63	0.755500	0.654400	0.604800
C1161	C116	0.651400	0.462100	0.587100
H641	H64	0.622500	0.413500	0.600700
C1171	C117	0.690900	0.534900	0.611800
C1181	C118	0.696200	0.533600	0.659900
C1191	C119	0.771000	0.570500	0.686800
H651	H65	0.819700	0.601300	0.674700
C1201	C120	0.772900	0.561600	0.730600
H661	H66	0.823700	0.584600	0.750000
C1211	C121	0.699500	0.518400	0.746600
C1221	C122	0.696700	0.505200	0.794300
C1231	C123	0.779400	0.499900	0.822700
H671	H67	0.837800	0.502700	0.811500
C1241	C124	0.613900	0.497600	0.812600
H681	H68	0.555900	0.498600	0.794400
C1251	C125	0.776100	0.490600	0.866800
H691	H69	0.833300	0.487000	0.885600
C1261	C126	0.616300	0.488600	0.857300
H701	H70	0.558900	0.483700	0.869300
N491	N49	0.807000	0.618000	0.452800
N501	N50	0.596300	0.627800	0.443800
N511	N51	0.591500	0.418100	0.443500
N521	N52	0.101000	0.926300	0.445600
N531	N53	0.692200	0.526800	0.520900
N541	N54	0.625900	0.491500	0.676500
N551	N55	0.627200	0.484700	0.720000
N561	N56	0.696300	0.486500	0.884600
Fe71	Fe7	0.697360	0.519340	0.450140
Au131	Au13	0.959010	0.766660	0.447320
Au141	Au14	0.445920	0.774020	0.456490
Au151	Au15	0.450110	0.258550	0.447320
C1271	C127	0.847500	0.632500	0.959900
C1281	C128	0.853000	0.338400	0.950700
C1291	C129	0.549000	0.330300	0.947500
C1301	C130	0.354800	0.143300	0.959000
C1311	C131	0.671700	0.546000	0.038700
H711	H71	0.653200	0.600000	0.023100
C1321	C132	0.721400	0.400000	0.039000
H721	H72	0.737000	0.347200	0.023600
C1331	C133	0.669400	0.545800	0.082900
H731	H73	0.649000	0.598100	0.097100
C1341	C134	0.724100	0.394600	0.084300
H741	H74	0.744200	0.340500	0.099400
C1351	C135	0.697000	0.469100	0.106900
C1361	C136	0.700100	0.468000	0.155300
C1371	C137	0.773100	0.425200	0.181900
H751	H75	0.819900	0.391700	0.169700
C1381	C138	0.774100	0.433800	0.225900
H761	H76	0.822200	0.406600	0.245400
C1391	C139	0.703700	0.483100	0.241900
C1401	C140	0.699500	0.495400	0.289700
C1411	C141	0.616700	0.500600	0.307400
H771	H77	0.558900	0.497600	0.289000
C1421	C142	0.618400	0.510000	0.351800
H781	H78	0.560600	0.513500	0.363500
C1431	C143	0.777300	0.510400	0.362200
H791	H79	0.834200	0.514500	0.381200
C1441	C144	0.781800	0.500800	0.318200
H801	H80	0.840500	0.497900	0.307200
N571	N57	0.792000	0.576800	0.957400
N581	N58	0.796300	0.389700	0.952450
N591	N59	0.604000	0.384400	0.945500
N601	N60	0.298800	0.087100	0.959100
N611	N61	0.698200	0.475400	0.015840
N621	N62	0.632600	0.513400	0.171500
N631	N63	0.633000	0.519700	0.215300
N641	N64	0.697500	0.514400	0.379700
Fe81	Fe8	0.697740	0.480840	0.950220
Au161	Au16	0.452780	0.235860	0.955210
