data_AXIPEE_clean_PM
_symmetry_space_group_name_H-M	'P1'
_cell_length_a	14.225600
_cell_length_b	14.464500
_cell_length_c	30.442900
_cell_angle_alpha	90.000000
_cell_angle_beta	96.104000
_cell_angle_gamma	90.000000
_symmetry_Int_Tables_number 1

loop_
_symmetry_equiv_pos_as_xyz
'x,y,z'

loop_
_atom_site_label
_atom_site_type_symbol
_atom_site_fract_x
_atom_site_fract_y
_atom_site_fract_z
Fe11	Fe1	0.699450	0.519990	0.450310
Au11	Au1	0.450180	0.768860	0.455990
Au21	Au2	0.956040	0.763540	0.447350
C11	C1	0.858900	0.665700	0.450400
C21	C2	0.549000	0.674700	0.448800
C31	C3	0.547700	0.365500	0.444100
C41	C4	0.850300	0.364100	0.458700
N11	N1	0.799800	0.611600	0.452030
N21	N2	0.605300	0.618000	0.446230
N31	N3	0.601200	0.426100	0.445760
N41	N4	0.793600	0.421000	0.456640
N51	N5	0.698000	0.515600	0.384510
C51	C5	0.778900	0.511700	0.365900
H11	H1	0.836800	0.515200	0.384500
C61	C6	0.782400	0.502700	0.321000
H21	H2	0.841600	0.499300	0.309300
C71	C7	0.698600	0.498600	0.293000
C81	C8	0.614700	0.505700	0.311900
H31	H3	0.556000	0.504700	0.293900
C91	C9	0.616700	0.514400	0.357300
H41	H4	0.558500	0.519700	0.369800
C101	C10	0.701300	0.485300	0.244700
C111	C11	0.773900	0.434700	0.228400
H51	H5	0.823100	0.407700	0.247700
N61	N6	0.630200	0.516100	0.174200
N71	N7	0.630700	0.522200	0.218300
C121	C12	0.771500	0.425500	0.183800
H61	H6	0.818300	0.390600	0.171200
C131	C13	0.698800	0.468500	0.157400
C141	C14	0.696200	0.468800	0.108500
C151	C15	0.667100	0.546800	0.084400
H71	H7	0.644500	0.599300	0.098800
C161	C16	0.671100	0.547900	0.039300
H81	H8	0.653400	0.603000	0.023600
C171	C17	0.723300	0.398900	0.039800
H91	H9	0.740800	0.345500	0.024400
C181	C18	0.724700	0.393700	0.085400
H101	H10	0.745100	0.338700	0.100600
N81	N8	0.698600	0.475100	0.016360
Fe21	Fe2	0.199450	0.019990	0.450310
Au31	Au3	0.950180	0.268860	0.455990
Au41	Au4	0.456040	0.263540	0.447350
C191	C19	0.358900	0.165700	0.450400
C201	C20	0.049000	0.174700	0.448800
C211	C21	0.047700	0.865500	0.444100
C221	C22	0.350300	0.864100	0.458700
N91	N9	0.299800	0.111600	0.452030
N101	N10	0.105300	0.118000	0.446230
N111	N11	0.101200	0.926100	0.445760
N121	N12	0.293600	0.921000	0.456640
N131	N13	0.198000	0.015600	0.384510
C231	C23	0.278900	0.011700	0.365900
H111	H11	0.336800	0.015200	0.384500
C241	C24	0.282400	0.002700	0.321000
H121	H12	0.341600	0.999300	0.309300
C251	C25	0.198600	0.998600	0.293000
C261	C26	0.114700	0.005700	0.311900
H131	H13	0.056000	0.004700	0.293900
C271	C27	0.116700	0.014400	0.357300
H141	H14	0.058500	0.019700	0.369800
C281	C28	0.201300	0.985300	0.244700
C291	C29	0.273900	0.934700	0.228400
H151	H15	0.323100	0.907700	0.247700
N141	N14	0.130200	0.016100	0.174200
N151	N15	0.130700	0.022200	0.218300
C301	C30	0.271500	0.925500	0.183800
H161	H16	0.318300	0.890600	0.171200
C311	C31	0.198800	0.968500	0.157400
C321	C32	0.196200	0.968800	0.108500
C331	C33	0.167100	0.046800	0.084400
H171	H17	0.144500	0.099300	0.098800
C341	C34	0.171100	0.047900	0.039300
H181	H18	0.153400	0.103000	0.023600
C351	C35	0.223300	0.898900	0.039800
H191	H19	0.240800	0.845500	0.024400
C361	C36	0.224700	0.893700	0.085400
H201	H20	0.245100	0.838700	0.100600
N161	N16	0.198600	0.975100	0.016360
Fe31	Fe3	0.699450	0.480010	0.950310
Au51	Au5	0.450180	0.231140	0.955990
Au61	Au6	0.956040	0.236460	0.947350
C371	C37	0.858900	0.334300	0.950400
C381	C38	0.549000	0.325300	0.948800
C391	C39	0.547700	0.634500	0.944100
C401	C40	0.850300	0.635900	0.958700
N171	N17	0.799800	0.388400	0.952030
N181	N18	0.605300	0.382000	0.946230
N191	N19	0.601200	0.573900	0.945760
N201	N20	0.793600	0.579000	0.956640
N211	N21	0.698000	0.484400	0.884510
C411	C41	0.778900	0.488300	0.865900
H211	H21	0.836800	0.484800	0.884500
C421	C42	0.782400	0.497300	0.821000
H221	H22	0.841600	0.500700	0.809300
C431	C43	0.698600	0.501400	0.793000
C441	C44	0.614700	0.494300	0.811900
H231	H23	0.556000	0.495300	0.793900
C451	C45	0.616700	0.485600	0.857300
H241	H24	0.558500	0.480300	0.869800
C461	C46	0.701300	0.514700	0.744700
C471	C47	0.773900	0.565300	0.728400
H251	H25	0.823100	0.592300	0.747700
N221	N22	0.630200	0.483900	0.674200
N231	N23	0.630700	0.477800	0.718300
C481	C48	0.771500	0.574500	0.683800
H261	H26	0.818300	0.609400	0.671200
C491	C49	0.698800	0.531500	0.657400
C501	C50	0.696200	0.531200	0.608500
C511	C51	0.667100	0.453200	0.584400
H271	H27	0.644500	0.400700	0.598800
C521	C52	0.671100	0.452100	0.539300
H281	H28	0.653400	0.397000	0.523600
C531	C53	0.723300	0.601100	0.539800
H291	H29	0.740800	0.654500	0.524400
C541	C54	0.724700	0.606300	0.585400
H301	H30	0.745100	0.661300	0.600600
N241	N24	0.698600	0.524900	0.516360
Fe41	Fe4	0.199450	0.980010	0.950310
Au71	Au7	0.950180	0.731140	0.955990
Au81	Au8	0.456040	0.736460	0.947350
C551	C55	0.358900	0.834300	0.950400
C561	C56	0.049000	0.825300	0.948800
C571	C57	0.047700	0.134500	0.944100
C581	C58	0.350300	0.135900	0.958700
N251	N25	0.299800	0.888400	0.952030
N261	N26	0.105300	0.882000	0.946230
N271	N27	0.101200	0.073900	0.945760
N281	N28	0.293600	0.079000	0.956640
N291	N29	0.198000	0.984400	0.884510
C591	C59	0.278900	0.988300	0.865900
H311	H31	0.336800	0.984800	0.884500
C601	C60	0.282400	0.997300	0.821000
H321	H32	0.341600	0.000700	0.809300
C611	C61	0.198600	0.001400	0.793000
C621	C62	0.114700	0.994300	0.811900
H331	H33	0.056000	0.995300	0.793900
C631	C63	0.116700	0.985600	0.857300
H341	H34	0.058500	0.980300	0.869800
C641	C64	0.201300	0.014700	0.744700
C651	C65	0.273900	0.065300	0.728400
H351	H35	0.323100	0.092300	0.747700
N301	N30	0.130200	0.983900	0.674200
N311	N31	0.130700	0.977800	0.718300
C661	C66	0.271500	0.074500	0.683800
H361	H36	0.318300	0.109400	0.671200
C671	C67	0.198800	0.031500	0.657400
C681	C68	0.196200	0.031200	0.608500
C691	C69	0.167100	0.953200	0.584400
H371	H37	0.144500	0.900700	0.598800
C701	C70	0.171100	0.952100	0.539300
H381	H38	0.153400	0.897000	0.523600
C711	C71	0.223300	0.101100	0.539800
H391	H39	0.240800	0.154500	0.524400
C721	C72	0.224700	0.106300	0.585400
H401	H40	0.245100	0.161300	0.600600
N321	N32	0.198600	0.024900	0.516360
Fe51	Fe5	0.300550	0.519990	0.049690
Au91	Au9	0.549820	0.768860	0.044010
Au101	Au10	0.043960	0.763540	0.052650
C731	C73	0.141100	0.665700	0.049600
C741	C74	0.451000	0.674700	0.051200
C751	C75	0.452300	0.365500	0.055900
C761	C76	0.149700	0.364100	0.041300
N331	N33	0.200200	0.611600	0.047970
N341	N34	0.394700	0.618000	0.053770
N351	N35	0.398800	0.426100	0.054240
N361	N36	0.206400	0.421000	0.043360
N371	N37	0.302000	0.515600	0.115490
C771	C77	0.221100	0.511700	0.134100
H411	H41	0.163200	0.515200	0.115500
C781	C78	0.217600	0.502700	0.179000
H421	H42	0.158400	0.499300	0.190700
C791	C79	0.301400	0.498600	0.207000
C801	C80	0.385300	0.505700	0.188100
H431	H43	0.444000	0.504700	0.206100
C811	C81	0.383300	0.514400	0.142700
H441	H44	0.441500	0.519700	0.130200
C821	C82	0.298700	0.485300	0.255300
C831	C83	0.226100	0.434700	0.271600
H451	H45	0.176900	0.407700	0.252300
N381	N38	0.369800	0.516100	0.325800
N391	N39	0.369300	0.522200	0.281700
C841	C84	0.228500	0.425500	0.316200
H461	H46	0.181700	0.390600	0.328800
C851	C85	0.301200	0.468500	0.342600
C861	C86	0.303800	0.468800	0.391500
C871	C87	0.332900	0.546800	0.415600
H471	H47	0.355500	0.599300	0.401200
C881	C88	0.328900	0.547900	0.460700
H481	H48	0.346600	0.603000	0.476400
C891	C89	0.276700	0.398900	0.460200
H491	H49	0.259200	0.345500	0.475600
C901	C90	0.275300	0.393700	0.414600
H501	H50	0.254900	0.338700	0.399400
N401	N40	0.301400	0.475100	0.483640
Fe61	Fe6	0.800550	0.019990	0.049690
Au111	Au11	0.049820	0.268860	0.044010
Au121	Au12	0.543960	0.263540	0.052650
C911	C91	0.641100	0.165700	0.049600
C921	C92	0.951000	0.174700	0.051200
C931	C93	0.952300	0.865500	0.055900
C941	C94	0.649700	0.864100	0.041300
N411	N41	0.700200	0.111600	0.047970
N421	N42	0.894700	0.118000	0.053770
N431	N43	0.898800	0.926100	0.054240
N441	N44	0.706400	0.921000	0.043360
N451	N45	0.802000	0.015600	0.115490
C951	C95	0.721100	0.011700	0.134100
H511	H51	0.663200	0.015200	0.115500
C961	C96	0.717600	0.002700	0.179000
H521	H52	0.658400	0.999300	0.190700
C971	C97	0.801400	0.998600	0.207000
C981	C98	0.885300	0.005700	0.188100
H531	H53	0.944000	0.004700	0.206100
C991	C99	0.883300	0.014400	0.142700
H541	H54	0.941500	0.019700	0.130200
C1001	C100	0.798700	0.985300	0.255300
C1011	C101	0.726100	0.934700	0.271600
H551	H55	0.676900	0.907700	0.252300
N461	N46	0.869800	0.016100	0.325800
N471	N47	0.869300	0.022200	0.281700
C1021	C102	0.728500	0.925500	0.316200
H561	H56	0.681700	0.890600	0.328800
C1031	C103	0.801200	0.968500	0.342600
C1041	C104	0.803800	0.968800	0.391500
C1051	C105	0.832900	0.046800	0.415600
H571	H57	0.855500	0.099300	0.401200
C1061	C106	0.828900	0.047900	0.460700
H581	H58	0.846600	0.103000	0.476400
C1071	C107	0.776700	0.898900	0.460200
H591	H59	0.759200	0.845500	0.475600
C1081	C108	0.775300	0.893700	0.414600
H601	H60	0.754900	0.838700	0.399400
N481	N48	0.801400	0.975100	0.483640
Fe71	Fe7	0.300550	0.480010	0.549690
Au131	Au13	0.549820	0.231140	0.544010
Au141	Au14	0.043960	0.236460	0.552650
C1091	C109	0.141100	0.334300	0.549600
C1101	C110	0.451000	0.325300	0.551200
C1111	C111	0.452300	0.634500	0.555900
C1121	C112	0.149700	0.635900	0.541300
N491	N49	0.200200	0.388400	0.547970
N501	N50	0.394700	0.382000	0.553770
N511	N51	0.398800	0.573900	0.554240
N521	N52	0.206400	0.579000	0.543360
N531	N53	0.302000	0.484400	0.615490
C1131	C113	0.221100	0.488300	0.634100
H611	H61	0.163200	0.484800	0.615500
C1141	C114	0.217600	0.497300	0.679000
H621	H62	0.158400	0.500700	0.690700
C1151	C115	0.301400	0.501400	0.707000
C1161	C116	0.385300	0.494300	0.688100
H631	H63	0.444000	0.495300	0.706100
C1171	C117	0.383300	0.485600	0.642700
H641	H64	0.441500	0.480300	0.630200
C1181	C118	0.298700	0.514700	0.755300
C1191	C119	0.226100	0.565300	0.771600
H651	H65	0.176900	0.592300	0.752300
N541	N54	0.369800	0.483900	0.825800
N551	N55	0.369300	0.477800	0.781700
C1201	C120	0.228500	0.574500	0.816200
H661	H66	0.181700	0.609400	0.828800
C1211	C121	0.301200	0.531500	0.842600
C1221	C122	0.303800	0.531200	0.891500
C1231	C123	0.332900	0.453200	0.915600
H671	H67	0.355500	0.400700	0.901200
C1241	C124	0.328900	0.452100	0.960700
H681	H68	0.346600	0.397000	0.976400
C1251	C125	0.276700	0.601100	0.960200
H691	H69	0.259200	0.654500	0.975600
C1261	C126	0.275300	0.606300	0.914600
H701	H70	0.254900	0.661300	0.899400
N561	N56	0.301400	0.524900	0.983640
Fe81	Fe8	0.800550	0.980010	0.549690
Au151	Au15	0.049820	0.731140	0.544010
Au161	Au16	0.543960	0.736460	0.552650
C1271	C127	0.641100	0.834300	0.549600
C1281	C128	0.951000	0.825300	0.551200
C1291	C129	0.952300	0.134500	0.555900
C1301	C130	0.649700	0.135900	0.541300
N571	N57	0.700200	0.888400	0.547970
N581	N58	0.894700	0.882000	0.553770
N591	N59	0.898800	0.073900	0.554240
N601	N60	0.706400	0.079000	0.543360
N611	N61	0.802000	0.984400	0.615490
C1311	C131	0.721100	0.988300	0.634100
H711	H71	0.663200	0.984800	0.615500
C1321	C132	0.717600	0.997300	0.679000
H721	H72	0.658400	0.000700	0.690700
C1331	C133	0.801400	0.001400	0.707000
C1341	C134	0.885300	0.994300	0.688100
H731	H73	0.944000	0.995300	0.706100
C1351	C135	0.883300	0.985600	0.642700
H741	H74	0.941500	0.980300	0.630200
C1361	C136	0.798700	0.014700	0.755300
C1371	C137	0.726100	0.065300	0.771600
H751	H75	0.676900	0.092300	0.752300
N621	N62	0.869800	0.983900	0.825800
N631	N63	0.869300	0.977800	0.781700
C1381	C138	0.728500	0.074500	0.816200
H761	H76	0.681700	0.109400	0.828800
C1391	C139	0.801200	0.031500	0.842600
C1401	C140	0.803800	0.031200	0.891500
C1411	C141	0.832900	0.953200	0.915600
H771	H77	0.855500	0.900700	0.901200
C1421	C142	0.828900	0.952100	0.960700
H781	H78	0.846600	0.897000	0.976400
C1431	C143	0.776700	0.101100	0.960200
H791	H79	0.759200	0.154500	0.975600
C1441	C144	0.775300	0.106300	0.914600
H801	H80	0.754900	0.161300	0.899400
N641	N64	0.801400	0.024900	0.983640
