data_AXUPEO_clean_PM
_symmetry_space_group_name_H-M	'P1'
_cell_length_a	9.512100
_cell_length_b	9.881900
_cell_length_c	12.117200
_cell_angle_alpha	70.533000
_cell_angle_beta	73.473000
_cell_angle_gamma	82.328000
_symmetry_Int_Tables_number 1

loop_
_symmetry_equiv_pos_as_xyz
'x,y,z'

loop_
_atom_site_label
_atom_site_type_symbol
_atom_site_fract_x
_atom_site_fract_y
_atom_site_fract_z
Mn11	Mn1	0.146710	0.306050	0.641210
Al11	Al1	0.230500	0.974740	0.430510
Al21	Al2	0.483600	0.524280	0.680640
Al31	Al3	0.933390	0.671640	0.850390
P11	P1	0.188230	0.422390	0.867570
P21	P2	0.032410	0.979950	0.684370
P31	P3	0.245600	0.306830	0.340840
P41	P4	0.533750	0.283180	0.567890
O11	O1	0.085500	0.556400	0.852600
O21	O2	0.294500	0.148200	0.365300
O31	O3	0.622900	0.141900	0.599800
O41	O4	0.345800	0.476300	0.813400
O51	O5	0.996800	0.844900	0.795000
O61	O6	0.158000	0.320500	0.811000
O71	O7	0.888500	0.044300	0.650400
O81	O8	0.131500	0.929300	0.580700
O91	O9	0.176100	0.350300	0.003100
O101	O10	0.374400	0.262700	0.593300
O111	O11	0.171700	0.350600	0.236700
O121	O12	0.565200	0.373600	0.639500
O131	O13	0.599300	0.361900	0.431300
O141	O14	0.142600	0.335800	0.450700
O151	O15	0.386600	0.391300	0.293100
O161	O16	0.101400	0.085100	0.714800
Mn21	Mn2	0.853290	0.693950	0.358790
Al41	Al4	0.769500	0.025260	0.569490
Al51	Al5	0.516400	0.475720	0.319360
Al61	Al6	0.066610	0.328360	0.149610
P51	P5	0.811770	0.577610	0.132430
P61	P6	0.967590	0.020050	0.315630
P71	P7	0.754400	0.693170	0.659160
P81	P8	0.466250	0.716820	0.432110
O171	O17	0.914500	0.443600	0.147400
O181	O18	0.705500	0.851800	0.634700
O191	O19	0.377100	0.858100	0.400200
O201	O20	0.654200	0.523700	0.186600
O211	O21	0.003200	0.155100	0.205000
O221	O22	0.842000	0.679500	0.189000
O231	O23	0.111500	0.955700	0.349600
O241	O24	0.868500	0.070700	0.419300
O251	O25	0.823900	0.649700	0.996900
O261	O26	0.625600	0.737300	0.406700
O271	O27	0.828300	0.649400	0.763300
O281	O28	0.434800	0.626400	0.360500
O291	O29	0.400700	0.638100	0.568700
O301	O30	0.857400	0.664200	0.549300
O311	O31	0.613400	0.608700	0.706900
O321	O32	0.898600	0.914900	0.285200
