data_AYAWEE_clean_PM
_symmetry_space_group_name_H-M	'P1'
_cell_length_a	8.854700
_cell_length_b	9.968900
_cell_length_c	12.972100
_cell_angle_alpha	97.005000
_cell_angle_beta	97.885000
_cell_angle_gamma	90.929000
_symmetry_Int_Tables_number 1

loop_
_symmetry_equiv_pos_as_xyz
'x,y,z'

loop_
_atom_site_label
_atom_site_type_symbol
_atom_site_fract_x
_atom_site_fract_y
_atom_site_fract_z
S11	S1	0.932290	0.101380	0.746670
O11	O1	0.011760	0.046050	0.839030
O21	O2	0.030520	0.085030	0.662670
O31	O3	0.788260	0.021690	0.709400
O41	O4	0.901870	0.243210	0.773190
N11	N1	0.099870	0.205920	0.070830
N21	N2	0.218680	0.380170	0.172160
N31	N3	0.238860	0.919070	0.000460
N41	N4	0.466790	0.853780	0.061800
N51	N5	0.921600	0.195780	0.454100
N61	N6	0.879360	0.364930	0.360950
C11	C1	0.451700	0.520980	0.242360
C21	C2	0.454300	0.642300	0.199620
H11	H1	0.363900	0.686700	0.184200
C31	C3	0.590900	0.697700	0.179730
C41	C4	0.725200	0.631670	0.205230
H21	H2	0.817200	0.668800	0.193100
C51	C5	0.724400	0.511110	0.248580
C61	C6	0.587400	0.455350	0.266090
H31	H3	0.585900	0.373700	0.293800
C71	C7	0.302700	0.462300	0.263970
H41	H4	0.323100	0.406900	0.320500
H51	H5	0.239600	0.535500	0.287100
C81	C8	0.599000	0.832700	0.137800
H61	H6	0.606700	0.904700	0.195900
H71	H7	0.690500	0.837700	0.104800
C91	C9	0.875700	0.445600	0.273950
H81	H8	0.955700	0.515600	0.291300
H91	H9	0.897000	0.388000	0.212100
C101	C10	0.155300	0.426300	0.081070
H101	H10	0.160600	0.514500	0.064900
C111	C11	0.083500	0.318300	0.019380
H111	H11	0.031100	0.319900	0.952300
C121	C12	0.181900	0.246670	0.162080
H121	H12	0.210900	0.190700	0.213200
C131	C13	0.439600	0.801700	0.958800
H131	H13	0.504000	0.748400	0.921400
C141	C14	0.300300	0.843000	0.921680
H141	H14	0.252800	0.822900	0.852800
C151	C15	0.343500	0.923100	0.082850
H151	H15	0.333500	0.968700	0.148400
C161	C16	0.846400	0.408000	0.459790
H161	H16	0.812400	0.492500	0.483400
C171	C17	0.873200	0.303200	0.516040
H171	H17	0.860800	0.303900	0.586100
C181	C18	0.923000	0.237100	0.361240
H181	H18	0.950800	0.183900	0.303300
S21	S2	0.067710	0.898620	0.253330
O51	O5	0.988240	0.953950	0.160970
O61	O6	0.969480	0.914970	0.337330
O71	O7	0.211740	0.978310	0.290600
O81	O8	0.098130	0.756790	0.226810
N71	N7	0.900130	0.794080	0.929170
N81	N8	0.781320	0.619830	0.827840
N91	N9	0.761140	0.080930	0.999540
N101	N10	0.533210	0.146220	0.938200
N111	N11	0.078400	0.804220	0.545900
N121	N12	0.120640	0.635070	0.639050
C191	C19	0.548300	0.479020	0.757640
C201	C20	0.545700	0.357700	0.800380
H191	H19	0.636100	0.313300	0.815800
C211	C21	0.409100	0.302300	0.820270
C221	C22	0.274800	0.368330	0.794770
H201	H20	0.182800	0.331200	0.806900
C231	C23	0.275600	0.488890	0.751420
C241	C24	0.412600	0.544650	0.733910
H211	H21	0.414100	0.626300	0.706200
C251	C25	0.697300	0.537700	0.736030
H221	H22	0.676900	0.593100	0.679500
H231	H23	0.760400	0.464500	0.712900
C261	C26	0.401000	0.167300	0.862200
H241	H24	0.393300	0.095300	0.804100
H251	H25	0.309500	0.162300	0.895200
C271	C27	0.124300	0.554400	0.726050
H261	H26	0.044300	0.484400	0.708700
H271	H27	0.103000	0.612000	0.787900
C281	C28	0.844700	0.573700	0.918930
H281	H28	0.839400	0.485500	0.935100
C291	C29	0.916500	0.681700	0.980620
H291	H29	0.968900	0.680100	0.047700
C301	C30	0.818100	0.753330	0.837920
H301	H30	0.789100	0.809300	0.786800
C311	C31	0.560400	0.198300	0.041200
H311	H31	0.496000	0.251600	0.078600
C321	C32	0.699700	0.157000	0.078320
H321	H32	0.747200	0.177100	0.147200
C331	C33	0.656500	0.076900	0.917150
H331	H33	0.666500	0.031300	0.851600
C341	C34	0.153600	0.592000	0.540210
H341	H34	0.187600	0.507500	0.516600
C351	C35	0.126800	0.696800	0.483960
H351	H35	0.139200	0.696100	0.413900
C361	C36	0.077000	0.762900	0.638760
H361	H36	0.049200	0.816100	0.696700
Mn11	Mn1	0.000000	0.000000	0.000000
Mn21	Mn2	0.000000	0.000000	0.500000
