data_AYOXUJ_clean_PM
_symmetry_space_group_name_H-M	'P1'
_cell_length_a	35.522000
_cell_length_b	13.846000
_cell_length_c	9.548000
_cell_angle_alpha	90.000000
_cell_angle_beta	103.200000
_cell_angle_gamma	90.000000
_symmetry_Int_Tables_number 1

loop_
_symmetry_equiv_pos_as_xyz
'x,y,z'

loop_
_atom_site_label
_atom_site_type_symbol
_atom_site_fract_x
_atom_site_fract_y
_atom_site_fract_z
Co11	Co1	0.364500	0.206810	0.172260
O11	O1	0.146110	0.558410	0.066700
N11	N1	0.332280	0.216000	0.955100
O21	O2	0.335460	0.326910	0.219200
O31	O3	0.178770	0.622030	0.274000
O41	O4	0.366670	0.363200	0.442400
N21	N2	0.408210	0.296000	0.115800
C11	C1	0.273830	0.255700	0.788000
H11	H1	0.248200	0.275400	0.772300
C21	C2	0.276550	0.452300	0.244100
H21	H2	0.275500	0.419100	0.158600
C31	C3	0.210470	0.511000	0.154500
H31	H3	0.209100	0.474500	0.071700
C41	C4	0.242870	0.509100	0.253300
H41	H4	0.244400	0.546800	0.335100
C51	C5	0.295760	0.244200	0.925500
H51	H5	0.284300	0.256900	0.001900
C61	C6	0.290700	0.237300	0.672700
C71	C7	0.176050	0.567200	0.166200
C81	C8	0.339430	0.373400	0.334800
C91	C9	0.328570	0.207700	0.703700
H61	H6	0.340800	0.193900	0.629600
C101	C10	0.348340	0.198600	0.844000
H71	H7	0.374100	0.179400	0.862900
C111	C11	0.308410	0.443400	0.345300
H81	H8	0.311700	0.482400	0.426600
C121	C12	0.268730	0.245800	0.519600
H91	H9	0.279400	0.301300	0.479900
H101	H10	0.275500	0.189600	0.470000
C131	C13	0.443300	0.264400	0.116000
H111	H11	0.450100	0.202100	0.148800
C141	C14	0.399980	0.386000	0.072000
H121	H12	0.375900	0.411000	0.074500
C151	C15	0.425850	0.443900	0.022800
H131	H13	0.419300	0.507400	0.996100
C161	C16	0.470320	0.319700	0.069800
H141	H14	0.495200	0.296000	0.077600
C171	C17	0.460920	0.408600	0.013200
C181	C18	0.489800	0.467600	0.942600
H151	H15	0.507900	0.424800	0.911400
H161	H16	0.475900	0.504400	0.860500
Co21	Co2	0.864500	0.706810	0.172260
O51	O5	0.646110	0.058410	0.066700
N31	N3	0.832280	0.716000	0.955100
O61	O6	0.835460	0.826910	0.219200
O71	O7	0.678770	0.122030	0.274000
O81	O8	0.866670	0.863200	0.442400
N41	N4	0.908210	0.796000	0.115800
C191	C19	0.773830	0.755700	0.788000
H171	H17	0.748200	0.775400	0.772300
C201	C20	0.776550	0.952300	0.244100
H181	H18	0.775500	0.919100	0.158600
C211	C21	0.710470	0.011000	0.154500
H191	H19	0.709100	0.974500	0.071700
C221	C22	0.742870	0.009100	0.253300
H201	H20	0.744400	0.046800	0.335100
C231	C23	0.795760	0.744200	0.925500
H211	H21	0.784300	0.756900	0.001900
C241	C24	0.790700	0.737300	0.672700
C251	C25	0.676050	0.067200	0.166200
C261	C26	0.839430	0.873400	0.334800
C271	C27	0.828570	0.707700	0.703700
H221	H22	0.840800	0.693900	0.629600
C281	C28	0.848340	0.698600	0.844000
H231	H23	0.874100	0.679400	0.862900
C291	C29	0.808410	0.943400	0.345300
H241	H24	0.811700	0.982400	0.426600
C301	C30	0.768730	0.745800	0.519600
H251	H25	0.779400	0.801300	0.479900
H261	H26	0.775500	0.689600	0.470000
C311	C31	0.943300	0.764400	0.116000
H271	H27	0.950100	0.702100	0.148800
C321	C32	0.899980	0.886000	0.072000
H281	H28	0.875900	0.911000	0.074500
C331	C33	0.925850	0.943900	0.022800
H291	H29	0.919300	0.007400	0.996100
C341	C34	0.970320	0.819700	0.069800
H301	H30	0.995200	0.796000	0.077600
C351	C35	0.960920	0.908600	0.013200
C361	C36	0.989800	0.967600	0.942600
H311	H31	0.007900	0.924800	0.911400
H321	H32	0.975900	0.004400	0.860500
Co31	Co3	0.635500	0.206810	0.327740
O91	O9	0.853890	0.558410	0.433300
N51	N5	0.667720	0.216000	0.544900
O101	O10	0.664540	0.326910	0.280800
O111	O11	0.821230	0.622030	0.226000
O121	O12	0.633330	0.363200	0.057600
N61	N6	0.591790	0.296000	0.384200
C371	C37	0.726170	0.255700	0.712000
H331	H33	0.751800	0.275400	0.727700
C381	C38	0.723450	0.452300	0.255900
H341	H34	0.724500	0.419100	0.341400
C391	C39	0.789530	0.511000	0.345500
H351	H35	0.790900	0.474500	0.428300
C401	C40	0.757130	0.509100	0.246700
H361	H36	0.755600	0.546800	0.164900
C411	C41	0.704240	0.244200	0.574500
H371	H37	0.715700	0.256900	0.498100
C421	C42	0.709300	0.237300	0.827300
C431	C43	0.823950	0.567200	0.333800
C441	C44	0.660570	0.373400	0.165200
C451	C45	0.671430	0.207700	0.796300
H381	H38	0.659200	0.193900	0.870400
C461	C46	0.651660	0.198600	0.656000
H391	H39	0.625900	0.179400	0.637100
C471	C47	0.691590	0.443400	0.154700
H401	H40	0.688300	0.482400	0.073400
C481	C48	0.731270	0.245800	0.980400
H411	H41	0.720600	0.301300	0.020100
H421	H42	0.724500	0.189600	0.030000
C491	C49	0.556700	0.264400	0.384000
H431	H43	0.549900	0.202100	0.351200
C501	C50	0.600020	0.386000	0.428000
H441	H44	0.624100	0.411000	0.425500
C511	C51	0.574150	0.443900	0.477200
H451	H45	0.580700	0.507400	0.503900
C521	C52	0.529680	0.319700	0.430200
H461	H46	0.504800	0.296000	0.422400
C531	C53	0.539080	0.408600	0.486800
C541	C54	0.510200	0.467600	0.557400
H471	H47	0.492100	0.424800	0.588600
H481	H48	0.524100	0.504400	0.639500
Co41	Co4	0.135500	0.706810	0.327740
O131	O13	0.353890	0.058410	0.433300
N71	N7	0.167720	0.716000	0.544900
O141	O14	0.164540	0.826910	0.280800
O151	O15	0.321230	0.122030	0.226000
O161	O16	0.133330	0.863200	0.057600
N81	N8	0.091790	0.796000	0.384200
C551	C55	0.226170	0.755700	0.712000
H491	H49	0.251800	0.775400	0.727700
C561	C56	0.223450	0.952300	0.255900
H501	H50	0.224500	0.919100	0.341400
C571	C57	0.289530	0.011000	0.345500
H511	H51	0.290900	0.974500	0.428300
C581	C58	0.257130	0.009100	0.246700
H521	H52	0.255600	0.046800	0.164900
C591	C59	0.204240	0.744200	0.574500
H531	H53	0.215700	0.756900	0.498100
C601	C60	0.209300	0.737300	0.827300
C611	C61	0.323950	0.067200	0.333800
C621	C62	0.160570	0.873400	0.165200
C631	C63	0.171430	0.707700	0.796300
H541	H54	0.159200	0.693900	0.870400
C641	C64	0.151660	0.698600	0.656000
H551	H55	0.125900	0.679400	0.637100
C651	C65	0.191590	0.943400	0.154700
H561	H56	0.188300	0.982400	0.073400
C661	C66	0.231270	0.745800	0.980400
H571	H57	0.220600	0.801300	0.020100
H581	H58	0.224500	0.689600	0.030000
C671	C67	0.056700	0.764400	0.384000
H591	H59	0.049900	0.702100	0.351200
C681	C68	0.100020	0.886000	0.428000
H601	H60	0.124100	0.911000	0.425500
C691	C69	0.074150	0.943900	0.477200
H611	H61	0.080700	0.007400	0.503900
C701	C70	0.029680	0.819700	0.430200
H621	H62	0.004800	0.796000	0.422400
C711	C71	0.039080	0.908600	0.486800
C721	C72	0.010200	0.967600	0.557400
H631	H63	0.992100	0.924800	0.588600
H641	H64	0.024100	0.004400	0.639500
Co51	Co5	0.635500	0.793190	0.827740
O171	O17	0.853890	0.441590	0.933300
N91	N9	0.667720	0.784000	0.044900
O181	O18	0.664540	0.673090	0.780800
O191	O19	0.821230	0.377970	0.726000
O201	O20	0.633330	0.636800	0.557600
N101	N10	0.591790	0.704000	0.884200
C731	C73	0.726170	0.744300	0.212000
H651	H65	0.751800	0.724600	0.227700
C741	C74	0.723450	0.547700	0.755900
H661	H66	0.724500	0.580900	0.841400
C751	C75	0.789530	0.489000	0.845500
H671	H67	0.790900	0.525500	0.928300
C761	C76	0.757130	0.490900	0.746700
H681	H68	0.755600	0.453200	0.664900
C771	C77	0.704240	0.755800	0.074500
H691	H69	0.715700	0.743100	0.998100
C781	C78	0.709300	0.762700	0.327300
C791	C79	0.823950	0.432800	0.833800
C801	C80	0.660570	0.626600	0.665200
C811	C81	0.671430	0.792300	0.296300
H701	H70	0.659200	0.806100	0.370400
C821	C82	0.651660	0.801400	0.156000
H711	H71	0.625900	0.820600	0.137100
C831	C83	0.691590	0.556600	0.654700
H721	H72	0.688300	0.517600	0.573400
C841	C84	0.731270	0.754200	0.480400
H731	H73	0.720600	0.698700	0.520100
H741	H74	0.724500	0.810400	0.530000
C851	C85	0.556700	0.735600	0.884000
H751	H75	0.549900	0.797900	0.851200
C861	C86	0.600020	0.614000	0.928000
H761	H76	0.624100	0.589000	0.925500
C871	C87	0.574150	0.556100	0.977200
H771	H77	0.580700	0.492600	0.003900
C881	C88	0.529680	0.680300	0.930200
H781	H78	0.504800	0.704000	0.922400
C891	C89	0.539080	0.591400	0.986800
C901	C90	0.510200	0.532400	0.057400
H791	H79	0.492100	0.575200	0.088600
H801	H80	0.524100	0.495600	0.139500
Co61	Co6	0.135500	0.293190	0.827740
O211	O21	0.353890	0.941590	0.933300
N111	N11	0.167720	0.284000	0.044900
O221	O22	0.164540	0.173090	0.780800
O231	O23	0.321230	0.877970	0.726000
O241	O24	0.133330	0.136800	0.557600
N121	N12	0.091790	0.204000	0.884200
C911	C91	0.226170	0.244300	0.212000
H811	H81	0.251800	0.224600	0.227700
C921	C92	0.223450	0.047700	0.755900
H821	H82	0.224500	0.080900	0.841400
C931	C93	0.289530	0.989000	0.845500
H831	H83	0.290900	0.025500	0.928300
C941	C94	0.257130	0.990900	0.746700
H841	H84	0.255600	0.953200	0.664900
C951	C95	0.204240	0.255800	0.074500
H851	H85	0.215700	0.243100	0.998100
C961	C96	0.209300	0.262700	0.327300
C971	C97	0.323950	0.932800	0.833800
C981	C98	0.160570	0.126600	0.665200
C991	C99	0.171430	0.292300	0.296300
H861	H86	0.159200	0.306100	0.370400
C1001	C100	0.151660	0.301400	0.156000
H871	H87	0.125900	0.320600	0.137100
C1011	C101	0.191590	0.056600	0.654700
H881	H88	0.188300	0.017600	0.573400
C1021	C102	0.231270	0.254200	0.480400
H891	H89	0.220600	0.198700	0.520100
H901	H90	0.224500	0.310400	0.530000
C1031	C103	0.056700	0.235600	0.884000
H911	H91	0.049900	0.297900	0.851200
C1041	C104	0.100020	0.114000	0.928000
H921	H92	0.124100	0.089000	0.925500
C1051	C105	0.074150	0.056100	0.977200
H931	H93	0.080700	0.992600	0.003900
C1061	C106	0.029680	0.180300	0.930200
H941	H94	0.004800	0.204000	0.922400
C1071	C107	0.039080	0.091400	0.986800
C1081	C108	0.010200	0.032400	0.057400
H951	H95	0.992100	0.075200	0.088600
H961	H96	0.024100	0.995600	0.139500
Co71	Co7	0.364500	0.793190	0.672260
O251	O25	0.146110	0.441590	0.566700
N131	N13	0.332280	0.784000	0.455100
O261	O26	0.335460	0.673090	0.719200
O271	O27	0.178770	0.377970	0.774000
O281	O28	0.366670	0.636800	0.942400
N141	N14	0.408210	0.704000	0.615800
C1091	C109	0.273830	0.744300	0.288000
H971	H97	0.248200	0.724600	0.272300
C1101	C110	0.276550	0.547700	0.744100
H981	H98	0.275500	0.580900	0.658600
C1111	C111	0.210470	0.489000	0.654500
H991	H99	0.209100	0.525500	0.571700
C1121	C112	0.242870	0.490900	0.753300
H1001	H100	0.244400	0.453200	0.835100
C1131	C113	0.295760	0.755800	0.425500
H1011	H101	0.284300	0.743100	0.501900
C1141	C114	0.290700	0.762700	0.172700
C1151	C115	0.176050	0.432800	0.666200
C1161	C116	0.339430	0.626600	0.834800
C1171	C117	0.328570	0.792300	0.203700
H1021	H102	0.340800	0.806100	0.129600
C1181	C118	0.348340	0.801400	0.344000
H1031	H103	0.374100	0.820600	0.362900
C1191	C119	0.308410	0.556600	0.845300
H1041	H104	0.311700	0.517600	0.926600
C1201	C120	0.268730	0.754200	0.019600
H1051	H105	0.279400	0.698700	0.979900
H1061	H106	0.275500	0.810400	0.970000
C1211	C121	0.443300	0.735600	0.616000
H1071	H107	0.450100	0.797900	0.648800
C1221	C122	0.399980	0.614000	0.572000
H1081	H108	0.375900	0.589000	0.574500
C1231	C123	0.425850	0.556100	0.522800
H1091	H109	0.419300	0.492600	0.496100
C1241	C124	0.470320	0.680300	0.569800
H1101	H110	0.495200	0.704000	0.577600
C1251	C125	0.460920	0.591400	0.513200
C1261	C126	0.489800	0.532400	0.442600
H1111	H111	0.507900	0.575200	0.411400
H1121	H112	0.475900	0.495600	0.360500
Co81	Co8	0.864500	0.293190	0.672260
O291	O29	0.646110	0.941590	0.566700
N151	N15	0.832280	0.284000	0.455100
O301	O30	0.835460	0.173090	0.719200
O311	O31	0.678770	0.877970	0.774000
O321	O32	0.866670	0.136800	0.942400
N161	N16	0.908210	0.204000	0.615800
C1271	C127	0.773830	0.244300	0.288000
H1131	H113	0.748200	0.224600	0.272300
C1281	C128	0.776550	0.047700	0.744100
H1141	H114	0.775500	0.080900	0.658600
C1291	C129	0.710470	0.989000	0.654500
H1151	H115	0.709100	0.025500	0.571700
C1301	C130	0.742870	0.990900	0.753300
H1161	H116	0.744400	0.953200	0.835100
C1311	C131	0.795760	0.255800	0.425500
H1171	H117	0.784300	0.243100	0.501900
C1321	C132	0.790700	0.262700	0.172700
C1331	C133	0.676050	0.932800	0.666200
C1341	C134	0.839430	0.126600	0.834800
C1351	C135	0.828570	0.292300	0.203700
H1181	H118	0.840800	0.306100	0.129600
C1361	C136	0.848340	0.301400	0.344000
H1191	H119	0.874100	0.320600	0.362900
C1371	C137	0.808410	0.056600	0.845300
H1201	H120	0.811700	0.017600	0.926600
C1381	C138	0.768730	0.254200	0.019600
H1211	H121	0.779400	0.198700	0.979900
H1221	H122	0.775500	0.310400	0.970000
C1391	C139	0.943300	0.235600	0.616000
H1231	H123	0.950100	0.297900	0.648800
C1401	C140	0.899980	0.114000	0.572000
H1241	H124	0.875900	0.089000	0.574500
C1411	C141	0.925850	0.056100	0.522800
H1251	H125	0.919300	0.992600	0.496100
C1421	C142	0.970320	0.180300	0.569800
H1261	H126	0.995200	0.204000	0.577600
C1431	C143	0.960920	0.091400	0.513200
C1441	C144	0.989800	0.032400	0.442600
H1271	H127	0.007900	0.075200	0.411400
H1281	H128	0.975900	0.995600	0.360500
