data_AZAVUU_clean_PM
_symmetry_space_group_name_H-M	'P1'
_cell_length_a	11.540000
_cell_length_b	16.778000
_cell_length_c	28.468000
_cell_angle_alpha	90.000000
_cell_angle_beta	90.000000
_cell_angle_gamma	90.000000
_symmetry_Int_Tables_number 1

loop_
_symmetry_equiv_pos_as_xyz
'x,y,z'

loop_
_atom_site_label
_atom_site_type_symbol
_atom_site_fract_x
_atom_site_fract_y
_atom_site_fract_z
Cu11	Cu1	0.170100	0.735000	0.373300
Cu21	Cu2	0.416100	0.256500	0.195660
Cu31	Cu3	0.134800	0.268200	0.201400
C11	C1	0.264900	0.308600	0.506240
C21	C2	0.264100	0.312100	0.555180
C31	C3	0.263400	0.242000	0.581430
C41	C4	0.263400	0.168300	0.558770
C51	C5	0.264100	0.164800	0.509850
C61	C6	0.264900	0.234900	0.483550
C71	C7	0.266100	0.231500	0.430060
C81	C8	0.366600	0.257200	0.407570
H11	H1	0.431300	0.274400	0.425600
C91	C9	0.372200	0.257900	0.358640
H21	H2	0.440700	0.275300	0.343300
C101	C10	0.276500	0.232900	0.332210
C111	C11	0.176900	0.206600	0.354740
H31	H3	0.112400	0.189000	0.336800
C121	C12	0.171300	0.205900	0.403670
H41	H4	0.102900	0.188100	0.419000
C131	C13	0.258500	0.089400	0.483590
C141	C14	0.357600	0.072500	0.457940
H51	H5	0.423700	0.105900	0.460700
C151	C15	0.360600	0.006600	0.428100
H61	H6	0.428500	0.995400	0.410500
C161	C16	0.264300	0.957300	0.424200
C171	C17	0.163200	0.974800	0.449300
H71	H7	0.096700	0.941900	0.446000
C181	C18	0.160300	0.040800	0.479140
H81	H8	0.092000	0.052700	0.496400
C191	C19	0.256000	0.088500	0.586700
C201	C20	0.357900	0.044800	0.592000
H91	H9	0.428400	0.064100	0.579000
C211	C21	0.356400	0.972700	0.616400
H101	H10	0.425900	0.942900	0.620000
C221	C22	0.253000	0.944300	0.635400
C231	C23	0.151100	0.988000	0.630100
H111	H11	0.080700	0.968700	0.643100
C241	C24	0.152600	0.060100	0.605760
H121	H12	0.083200	0.089900	0.602100
C251	C25	0.283800	0.242100	0.635560
C261	C26	0.394100	0.225400	0.653250
H131	H13	0.455800	0.212800	0.632500
C271	C27	0.413000	0.227500	0.701610
H141	H14	0.487400	0.215600	0.714000
C281	C28	0.318300	0.248100	0.732810
C291	C29	0.212700	0.263700	0.713980
H151	H15	0.150000	0.276400	0.734300
C301	C30	0.193800	0.261600	0.665610
H161	H16	0.119300	0.273600	0.653300
C311	C31	0.275100	0.391300	0.580600
C321	C32	0.380300	0.427000	0.594010
H171	H17	0.451700	0.400200	0.588800
C331	C33	0.379000	0.502100	0.615000
H181	H18	0.449700	0.526600	0.624300
C341	C34	0.273800	0.541500	0.622500
C351	C35	0.170300	0.505400	0.608800
H191	H19	0.098700	0.532000	0.613800
C361	C36	0.171600	0.430300	0.587790
H201	H20	0.101000	0.406100	0.578400
C371	C37	0.267400	0.386100	0.483440
C381	C38	0.369200	0.430800	0.479170
H211	H21	0.437000	0.415100	0.495700
C391	C39	0.371100	0.498500	0.450700
H221	H22	0.440400	0.528500	0.447600
C401	C40	0.271800	0.521900	0.427000
C411	C41	0.169600	0.477700	0.431370
H231	H23	0.101700	0.493800	0.415000
C421	C42	0.167600	0.410100	0.459830
H241	H24	0.098100	0.380400	0.463100
C431	C43	0.267700	0.225800	0.279620
O11	O1	0.363500	0.250300	0.260500
O21	O2	0.177900	0.212100	0.258050
C441	C44	0.261300	0.880900	0.390600
O31	O3	0.360900	0.873700	0.370000
O41	O4	0.173300	0.843100	0.386900
C451	C45	0.242700	0.867300	0.662400
O51	O5	0.336900	0.823800	0.661800
O61	O6	0.149300	0.843200	0.676900
C461	C46	0.344500	0.259000	0.782300
O71	O7	0.449800	0.251700	0.798240
O81	O8	0.262500	0.263100	0.809540
C471	C47	0.272700	0.619100	0.645800
O91	O9	0.371200	0.656900	0.648900
O101	O10	0.182200	0.648400	0.660400
C481	C48	0.258700	0.603600	0.399600
O111	O11	0.346400	0.651100	0.407600
O121	O12	0.174000	0.624000	0.377100
Cu41	Cu4	0.329900	0.265000	0.873300
Cu51	Cu5	0.083900	0.743500	0.695660
Cu61	Cu6	0.365200	0.731800	0.701400
C491	C49	0.235100	0.691400	0.006240
C501	C50	0.235900	0.687900	0.055180
C511	C51	0.236600	0.758000	0.081430
C521	C52	0.236600	0.831700	0.058770
C531	C53	0.235900	0.835200	0.009850
C541	C54	0.235100	0.765100	0.983550
C551	C55	0.233900	0.768500	0.930060
C561	C56	0.133400	0.742800	0.907570
H251	H25	0.068700	0.725600	0.925600
C571	C57	0.127800	0.742100	0.858640
H261	H26	0.059300	0.724700	0.843300
C581	C58	0.223500	0.767100	0.832210
C591	C59	0.323100	0.793400	0.854740
H271	H27	0.387600	0.811000	0.836800
C601	C60	0.328700	0.794100	0.903670
H281	H28	0.397100	0.811900	0.919000
C611	C61	0.241500	0.910600	0.983590
C621	C62	0.142400	0.927500	0.957940
H291	H29	0.076300	0.894100	0.960700
C631	C63	0.139400	0.993400	0.928100
H301	H30	0.071500	0.004600	0.910500
C641	C64	0.235700	0.042700	0.924200
C651	C65	0.336800	0.025200	0.949300
H311	H31	0.403300	0.058100	0.946000
C661	C66	0.339700	0.959200	0.979140
H321	H32	0.408000	0.947300	0.996400
C671	C67	0.244000	0.911500	0.086700
C681	C68	0.142100	0.955200	0.092000
H331	H33	0.071600	0.935900	0.079000
C691	C69	0.143600	0.027300	0.116400
H341	H34	0.074100	0.057100	0.120000
C701	C70	0.247000	0.055700	0.135400
C711	C71	0.348900	0.012000	0.130100
H351	H35	0.419300	0.031300	0.143100
C721	C72	0.347400	0.939900	0.105760
H361	H36	0.416800	0.910100	0.102100
C731	C73	0.216200	0.757900	0.135560
C741	C74	0.105900	0.774600	0.153250
H371	H37	0.044200	0.787200	0.132500
C751	C75	0.087000	0.772500	0.201610
H381	H38	0.012600	0.784400	0.214000
C761	C76	0.181700	0.751900	0.232810
C771	C77	0.287300	0.736300	0.213980
H391	H39	0.350000	0.723600	0.234300
C781	C78	0.306200	0.738400	0.165610
H401	H40	0.380700	0.726400	0.153300
C791	C79	0.224900	0.608700	0.080600
C801	C80	0.119700	0.573000	0.094010
H411	H41	0.048300	0.599800	0.088800
C811	C81	0.121000	0.497900	0.115000
H421	H42	0.050300	0.473400	0.124300
C821	C82	0.226200	0.458500	0.122500
C831	C83	0.329700	0.494600	0.108800
H431	H43	0.401300	0.468000	0.113800
C841	C84	0.328400	0.569700	0.087790
H441	H44	0.399000	0.593900	0.078400
C851	C85	0.232600	0.613900	0.983440
C861	C86	0.130800	0.569200	0.979170
H451	H45	0.063000	0.584900	0.995700
C871	C87	0.128900	0.501500	0.950700
H461	H46	0.059600	0.471500	0.947600
C881	C88	0.228200	0.478100	0.927000
C891	C89	0.330400	0.522300	0.931370
H471	H47	0.398300	0.506200	0.915000
C901	C90	0.332400	0.589900	0.959830
H481	H48	0.401900	0.619600	0.963100
C911	C91	0.232300	0.774200	0.779620
O131	O13	0.136500	0.749700	0.760500
O141	O14	0.322100	0.787900	0.758050
C921	C92	0.238700	0.119100	0.890600
O151	O15	0.139100	0.126300	0.870000
O161	O16	0.326700	0.156900	0.886900
C931	C93	0.257300	0.132700	0.162400
O171	O17	0.163100	0.176200	0.161800
O181	O18	0.350700	0.156800	0.176900
C941	C94	0.155500	0.741000	0.282300
O191	O19	0.050200	0.748300	0.298240
O201	O20	0.237500	0.736900	0.309540
C951	C95	0.227300	0.380900	0.145800
O211	O21	0.128800	0.343100	0.148900
O221	O22	0.317800	0.351600	0.160400
C961	C96	0.241300	0.396400	0.899600
O231	O23	0.153600	0.348900	0.907600
O241	O24	0.326000	0.376000	0.877100
Cu71	Cu7	0.829900	0.235000	0.126700
Cu81	Cu8	0.583900	0.756500	0.304340
Cu91	Cu9	0.865200	0.768200	0.298600
C971	C97	0.735100	0.808600	0.993760
C981	C98	0.735900	0.812100	0.944820
C991	C99	0.736600	0.742000	0.918570
C1001	C100	0.736600	0.668300	0.941230
C1011	C101	0.735900	0.664800	0.990150
C1021	C102	0.735100	0.734900	0.016450
C1031	C103	0.733900	0.731500	0.069940
C1041	C104	0.633400	0.757200	0.092430
H491	H49	0.568700	0.774400	0.074400
C1051	C105	0.627800	0.757900	0.141360
H501	H50	0.559300	0.775300	0.156700
C1061	C106	0.723500	0.732900	0.167790
C1071	C107	0.823100	0.706600	0.145260
H511	H51	0.887600	0.689000	0.163200
C1081	C108	0.828700	0.705900	0.096330
H521	H52	0.897100	0.688100	0.081000
C1091	C109	0.741500	0.589400	0.016410
C1101	C110	0.642400	0.572500	0.042060
H531	H53	0.576300	0.605900	0.039300
C1111	C111	0.639400	0.506600	0.071900
H541	H54	0.571500	0.495400	0.089500
C1121	C112	0.735700	0.457300	0.075800
C1131	C113	0.836800	0.474800	0.050700
H551	H55	0.903300	0.441900	0.054000
C1141	C114	0.839700	0.540800	0.020860
H561	H56	0.908000	0.552700	0.003600
C1151	C115	0.744000	0.588500	0.913300
C1161	C116	0.642100	0.544800	0.908000
H571	H57	0.571600	0.564100	0.921000
C1171	C117	0.643600	0.472700	0.883600
H581	H58	0.574100	0.442900	0.880000
C1181	C118	0.747000	0.444300	0.864600
C1191	C119	0.848900	0.488000	0.869900
H591	H59	0.919300	0.468700	0.856900
C1201	C120	0.847400	0.560100	0.894240
H601	H60	0.916800	0.589900	0.897900
C1211	C121	0.716200	0.742100	0.864440
C1221	C122	0.605900	0.725400	0.846750
H611	H61	0.544200	0.712800	0.867500
C1231	C123	0.587000	0.727500	0.798390
H621	H62	0.512600	0.715600	0.786000
C1241	C124	0.681700	0.748100	0.767190
C1251	C125	0.787300	0.763700	0.786020
H631	H63	0.850000	0.776400	0.765700
C1261	C126	0.806200	0.761600	0.834390
H641	H64	0.880700	0.773600	0.846700
C1271	C127	0.724900	0.891300	0.919400
C1281	C128	0.619700	0.927000	0.905990
H651	H65	0.548300	0.900200	0.911200
C1291	C129	0.621000	0.002100	0.885000
H661	H66	0.550300	0.026600	0.875700
C1301	C130	0.726200	0.041500	0.877500
C1311	C131	0.829700	0.005400	0.891200
H671	H67	0.901300	0.032000	0.886200
C1321	C132	0.828400	0.930300	0.912210
H681	H68	0.899000	0.906100	0.921600
C1331	C133	0.732600	0.886100	0.016560
C1341	C134	0.630800	0.930800	0.020830
H691	H69	0.563000	0.915100	0.004300
C1351	C135	0.628900	0.998500	0.049300
H701	H70	0.559600	0.028500	0.052400
C1361	C136	0.728200	0.021900	0.073000
C1371	C137	0.830400	0.977700	0.068630
H711	H71	0.898300	0.993800	0.085000
C1381	C138	0.832400	0.910100	0.040170
H721	H72	0.901900	0.880400	0.036900
C1391	C139	0.732300	0.725800	0.220380
O251	O25	0.636500	0.750300	0.239500
O261	O26	0.822100	0.712100	0.241950
C1401	C140	0.738700	0.380900	0.109400
O271	O27	0.639100	0.373700	0.130000
O281	O28	0.826700	0.343100	0.113100
C1411	C141	0.757300	0.367300	0.837600
O291	O29	0.663100	0.323800	0.838200
O301	O30	0.850700	0.343200	0.823100
C1421	C142	0.655500	0.759000	0.717700
O311	O31	0.550200	0.751700	0.701760
O321	O32	0.737500	0.763100	0.690460
C1431	C143	0.727300	0.119100	0.854200
O331	O33	0.628800	0.156900	0.851100
O341	O34	0.817800	0.148400	0.839600
C1441	C144	0.741300	0.103600	0.100400
O351	O35	0.653600	0.151100	0.092400
O361	O36	0.826000	0.124000	0.122900
Cu101	Cu10	0.670100	0.765000	0.626700
Cu111	Cu11	0.916100	0.243500	0.804340
Cu121	Cu12	0.634800	0.231800	0.798600
C1451	C145	0.764900	0.191400	0.493760
C1461	C146	0.764100	0.187900	0.444820
C1471	C147	0.763400	0.258000	0.418570
C1481	C148	0.763400	0.331700	0.441230
C1491	C149	0.764100	0.335200	0.490150
C1501	C150	0.764900	0.265100	0.516450
C1511	C151	0.766100	0.268500	0.569940
C1521	C152	0.866600	0.242800	0.592430
H731	H73	0.931300	0.225600	0.574400
C1531	C153	0.872200	0.242100	0.641360
H741	H74	0.940700	0.224700	0.656700
C1541	C154	0.776500	0.267100	0.667790
C1551	C155	0.676900	0.293400	0.645260
H751	H75	0.612400	0.311000	0.663200
C1561	C156	0.671300	0.294100	0.596330
H761	H76	0.602900	0.311900	0.581000
C1571	C157	0.758500	0.410600	0.516410
C1581	C158	0.857600	0.427500	0.542060
H771	H77	0.923700	0.394100	0.539300
C1591	C159	0.860600	0.493400	0.571900
H781	H78	0.928500	0.504600	0.589500
C1601	C160	0.764300	0.542700	0.575800
C1611	C161	0.663200	0.525200	0.550700
H791	H79	0.596700	0.558100	0.554000
C1621	C162	0.660300	0.459200	0.520860
H801	H80	0.592000	0.447300	0.503600
C1631	C163	0.756000	0.411500	0.413300
C1641	C164	0.857900	0.455200	0.408000
H811	H81	0.928400	0.435900	0.421000
C1651	C165	0.856400	0.527300	0.383600
H821	H82	0.925900	0.557100	0.380000
C1661	C166	0.753000	0.555700	0.364600
C1671	C167	0.651100	0.512000	0.369900
H831	H83	0.580700	0.531300	0.356900
C1681	C168	0.652600	0.439900	0.394240
H841	H84	0.583200	0.410100	0.397900
C1691	C169	0.783800	0.257900	0.364440
C1701	C170	0.894100	0.274600	0.346750
H851	H85	0.955800	0.287200	0.367500
C1711	C171	0.913000	0.272500	0.298390
H861	H86	0.987400	0.284400	0.286000
C1721	C172	0.818300	0.251900	0.267190
C1731	C173	0.712700	0.236300	0.286020
H871	H87	0.650000	0.223600	0.265700
C1741	C174	0.693800	0.238400	0.334390
H881	H88	0.619300	0.226400	0.346700
C1751	C175	0.775100	0.108700	0.419400
C1761	C176	0.880300	0.073000	0.405990
H891	H89	0.951700	0.099800	0.411200
C1771	C177	0.879000	0.997900	0.385000
H901	H90	0.949700	0.973400	0.375700
C1781	C178	0.773800	0.958500	0.377500
C1791	C179	0.670300	0.994600	0.391200
H911	H91	0.598700	0.968000	0.386200
C1801	C180	0.671600	0.069700	0.412210
H921	H92	0.601000	0.093900	0.421600
C1811	C181	0.767400	0.113900	0.516560
C1821	C182	0.869200	0.069200	0.520830
H931	H93	0.937000	0.084900	0.504300
C1831	C183	0.871100	0.001500	0.549300
H941	H94	0.940400	0.971500	0.552400
C1841	C184	0.771800	0.978100	0.573000
C1851	C185	0.669600	0.022300	0.568630
H951	H95	0.601700	0.006200	0.585000
C1861	C186	0.667600	0.089900	0.540170
H961	H96	0.598100	0.119600	0.536900
C1871	C187	0.767700	0.274200	0.720380
O371	O37	0.863500	0.249700	0.739500
O381	O38	0.677900	0.287900	0.741950
C1881	C188	0.761300	0.619100	0.609400
O391	O39	0.860900	0.626300	0.630000
O401	O40	0.673300	0.656900	0.613100
C1891	C189	0.742700	0.632700	0.337600
O411	O41	0.836900	0.676200	0.338200
O421	O42	0.649300	0.656800	0.323100
C1901	C190	0.844500	0.241000	0.217700
O431	O43	0.949800	0.248300	0.201760
O441	O44	0.762500	0.236900	0.190460
C1911	C191	0.772700	0.880900	0.354200
O451	O45	0.871200	0.843100	0.351100
O461	O46	0.682200	0.851600	0.339600
C1921	C192	0.758700	0.896400	0.600400
O471	O47	0.846400	0.848900	0.592400
O481	O48	0.674000	0.876000	0.622900
