data_AZAVOO_clean_PM
_symmetry_space_group_name_H-M	'P1'
_cell_length_a	11.858200
_cell_length_b	28.064000
_cell_length_c	16.733100
_cell_angle_alpha	90.000000
_cell_angle_beta	96.876000
_cell_angle_gamma	90.000000
_symmetry_Int_Tables_number 1

loop_
_symmetry_equiv_pos_as_xyz
'x,y,z'

loop_
_atom_site_label
_atom_site_type_symbol
_atom_site_fract_x
_atom_site_fract_y
_atom_site_fract_z
Mg11	Mg1	0.423800	0.312740	0.012400
Mg21	Mg2	0.374100	0.816890	0.490700
O11	O1	0.362600	0.329400	0.900200
O21	O2	0.176400	0.336500	0.902200
O31	O3	0.279600	0.623800	0.883500
H11	H1	0.257000	0.639000	0.923000
O41	O4	0.114200	0.589500	0.894400
O51	O5	0.318400	0.748500	0.487000
O61	O6	0.132300	0.744400	0.492800
O71	O7	0.371000	0.586300	0.085400
O81	O8	0.207400	0.620100	0.100500
H21	H2	0.225000	0.637500	0.062000
O91	O9	0.441400	0.317900	0.139300
O101	O10	0.277200	0.339300	0.074000
O111	O11	0.268900	0.187300	0.511300
O121	O12	0.084600	0.201100	0.493000
C11	C1	0.246600	0.444200	0.567600
C21	C2	0.245300	0.494200	0.564700
C31	C3	0.251800	0.518600	0.492700
C41	C4	0.260700	0.493300	0.421800
C51	C5	0.263800	0.443000	0.423700
C61	C6	0.254400	0.419700	0.495800
C71	C7	0.247300	0.418500	0.645700
C81	C8	0.343900	0.417500	0.698800
H31	H3	0.407300	0.434200	0.686500
C91	C9	0.350500	0.392500	0.769700
H41	H4	0.418700	0.391700	0.803500
C101	C10	0.257000	0.368500	0.791500
C111	C11	0.157600	0.370100	0.737800
H51	H5	0.092800	0.354800	0.751000
C121	C12	0.153600	0.393700	0.666400
H61	H6	0.087000	0.393200	0.630900
C131	C13	0.234900	0.520700	0.640800
C141	C14	0.318400	0.550700	0.676000
H71	H7	0.383200	0.555400	0.650600
C151	C15	0.309500	0.574000	0.747300
H81	H8	0.368800	0.593000	0.770500
C161	C16	0.212300	0.569100	0.784000
C171	C17	0.126000	0.539900	0.750300
H91	H9	0.060700	0.536000	0.775300
C181	C18	0.137200	0.516500	0.679400
H101	H10	0.078000	0.497400	0.656500
C191	C19	0.246300	0.572300	0.490900
C201	C20	0.342000	0.600000	0.484100
H111	H11	0.411300	0.585300	0.479900
C211	C21	0.335400	0.648900	0.483600
H121	H12	0.400600	0.666600	0.479100
C221	C22	0.235000	0.672400	0.489700
C231	C23	0.140500	0.645700	0.495600
H131	H13	0.071300	0.660900	0.498000
C241	C24	0.145300	0.595900	0.498100
H141	H14	0.080300	0.578600	0.504700
C251	C25	0.267000	0.518900	0.344800
C261	C26	0.363200	0.515100	0.304800
H151	H15	0.425000	0.497200	0.327500
C271	C27	0.367600	0.537400	0.232300
H161	H16	0.431600	0.533600	0.205800
C281	C28	0.278200	0.565800	0.197500
C291	C29	0.183400	0.569500	0.238600
H171	H17	0.122200	0.588200	0.217600
C301	C30	0.179500	0.545800	0.309500
H181	H18	0.114000	0.548300	0.334900
C311	C31	0.280300	0.415100	0.350200
C321	C32	0.378200	0.388900	0.347100
H191	H19	0.432800	0.388500	0.391900
C331	C33	0.397600	0.363200	0.279700
H201	H20	0.464600	0.346000	0.279900
C341	C34	0.319300	0.362900	0.212400
C351	C35	0.220500	0.388600	0.214400
H211	H21	0.166000	0.388700	0.169500
C361	C36	0.201000	0.414200	0.282300
H221	H22	0.133500	0.431100	0.282200
C371	C37	0.243000	0.365800	0.495700
C381	C38	0.325300	0.336000	0.533000
H231	H23	0.392700	0.348500	0.558600
C391	C39	0.307200	0.287200	0.532400
H241	H24	0.364500	0.267200	0.555900
C401	C40	0.207800	0.267600	0.498200
C411	C41	0.125000	0.297600	0.460700
H251	H25	0.056000	0.285200	0.437500
C421	C42	0.145600	0.346500	0.457900
H261	H26	0.091900	0.366200	0.429600
C431	C43	0.266400	0.342700	0.870500
C441	C44	0.197100	0.594700	0.859700
C451	C45	0.228000	0.726200	0.490100
C461	C46	0.289400	0.590300	0.120800
C471	C47	0.346500	0.337600	0.138200
C481	C48	0.185100	0.215400	0.501600
Mg31	Mg3	0.076200	0.812740	0.487600
Mg41	Mg4	0.125900	0.316890	0.009300
O131	O13	0.137400	0.829400	0.599800
O141	O14	0.323600	0.836500	0.597800
O151	O15	0.220400	0.123800	0.616500
H271	H27	0.243000	0.139000	0.577000
O161	O16	0.385800	0.089500	0.605600
O171	O17	0.181600	0.248500	0.013000
O181	O18	0.367700	0.244400	0.007200
O191	O19	0.129000	0.086300	0.414600
O201	O20	0.292600	0.120100	0.399500
H281	H28	0.275000	0.137500	0.438000
O211	O21	0.058600	0.817900	0.360700
O221	O22	0.222800	0.839300	0.426000
O231	O23	0.231100	0.687300	0.988700
O241	O24	0.415400	0.701100	0.007000
C491	C49	0.253400	0.944200	0.932400
C501	C50	0.254700	0.994200	0.935300
C511	C51	0.248200	0.018600	0.007300
C521	C52	0.239300	0.993300	0.078200
C531	C53	0.236200	0.943000	0.076300
C541	C54	0.245600	0.919700	0.004200
C551	C55	0.252700	0.918500	0.854300
C561	C56	0.156100	0.917500	0.801200
H291	H29	0.092700	0.934200	0.813500
C571	C57	0.149500	0.892500	0.730300
H301	H30	0.081300	0.891700	0.696500
C581	C58	0.243000	0.868500	0.708500
C591	C59	0.342400	0.870100	0.762200
H311	H31	0.407200	0.854800	0.749000
C601	C60	0.346400	0.893700	0.833600
H321	H32	0.413000	0.893200	0.869100
C611	C61	0.265100	0.020700	0.859200
C621	C62	0.181600	0.050700	0.824000
H331	H33	0.116800	0.055400	0.849400
C631	C63	0.190500	0.074000	0.752700
H341	H34	0.131200	0.093000	0.729500
C641	C64	0.287700	0.069100	0.716000
C651	C65	0.374000	0.039900	0.749700
H351	H35	0.439300	0.036000	0.724700
C661	C66	0.362800	0.016500	0.820600
H361	H36	0.422000	0.997400	0.843500
C671	C67	0.253700	0.072300	0.009100
C681	C68	0.158000	0.100000	0.015900
H371	H37	0.088700	0.085300	0.020100
C691	C69	0.164600	0.148900	0.016400
H381	H38	0.099400	0.166600	0.020900
C701	C70	0.265000	0.172400	0.010300
C711	C71	0.359500	0.145700	0.004400
H391	H39	0.428700	0.160900	0.002000
C721	C72	0.354700	0.095900	0.001900
H401	H40	0.419700	0.078600	0.995300
C731	C73	0.233000	0.018900	0.155200
C741	C74	0.136800	0.015100	0.195200
H411	H41	0.075000	0.997200	0.172500
C751	C75	0.132400	0.037400	0.267700
H421	H42	0.068400	0.033600	0.294200
C761	C76	0.221800	0.065800	0.302500
C771	C77	0.316600	0.069500	0.261400
H431	H43	0.377800	0.088200	0.282400
C781	C78	0.320500	0.045800	0.190500
H441	H44	0.386000	0.048300	0.165100
C791	C79	0.219700	0.915100	0.149800
C801	C80	0.121800	0.888900	0.152900
H451	H45	0.067200	0.888500	0.108100
C811	C81	0.102400	0.863200	0.220300
H461	H46	0.035400	0.846000	0.220100
C821	C82	0.180700	0.862900	0.287600
C831	C83	0.279500	0.888600	0.285600
H471	H47	0.334000	0.888700	0.330500
C841	C84	0.299000	0.914200	0.217700
H481	H48	0.366500	0.931100	0.217800
C851	C85	0.257000	0.865800	0.004300
C861	C86	0.174700	0.836000	0.967000
H491	H49	0.107300	0.848500	0.941400
C871	C87	0.192800	0.787200	0.967600
H501	H50	0.135500	0.767200	0.944100
C881	C88	0.292200	0.767600	0.001800
C891	C89	0.375000	0.797600	0.039300
H511	H51	0.444000	0.785200	0.062500
C901	C90	0.354400	0.846500	0.042100
H521	H52	0.408100	0.866200	0.070400
C911	C91	0.233600	0.842700	0.629500
C921	C92	0.302900	0.094700	0.640300
C931	C93	0.272000	0.226200	0.009900
C941	C94	0.210600	0.090300	0.379200
C951	C95	0.153500	0.837600	0.361800
C961	C96	0.314900	0.715400	0.998400
Mg51	Mg5	0.576200	0.687260	0.987600
Mg61	Mg6	0.625900	0.183110	0.509300
O251	O25	0.637400	0.670600	0.099800
O261	O26	0.823600	0.663500	0.097800
O271	O27	0.720400	0.376200	0.116500
H531	H53	0.743000	0.361000	0.077000
O281	O28	0.885800	0.410500	0.105600
O291	O29	0.681600	0.251500	0.513000
O301	O30	0.867700	0.255600	0.507200
O311	O31	0.629000	0.413700	0.914600
O321	O32	0.792600	0.379900	0.899500
H541	H54	0.775000	0.362500	0.938000
O331	O33	0.558600	0.682100	0.860700
O341	O34	0.722800	0.660700	0.926000
O351	O35	0.731100	0.812700	0.488700
O361	O36	0.915400	0.798900	0.507000
C971	C97	0.753400	0.555800	0.432400
C981	C98	0.754700	0.505800	0.435300
C991	C99	0.748200	0.481400	0.507300
C1001	C100	0.739300	0.506700	0.578200
C1011	C101	0.736200	0.557000	0.576300
C1021	C102	0.745600	0.580300	0.504200
C1031	C103	0.752700	0.581500	0.354300
C1041	C104	0.656100	0.582500	0.301200
H551	H55	0.592700	0.565800	0.313500
C1051	C105	0.649500	0.607500	0.230300
H561	H56	0.581300	0.608300	0.196500
C1061	C106	0.743000	0.631500	0.208500
C1071	C107	0.842400	0.629900	0.262200
H571	H57	0.907200	0.645200	0.249000
C1081	C108	0.846400	0.606300	0.333600
H581	H58	0.913000	0.606800	0.369100
C1091	C109	0.765100	0.479300	0.359200
C1101	C110	0.681600	0.449300	0.324000
H591	H59	0.616800	0.444600	0.349400
C1111	C111	0.690500	0.426000	0.252700
H601	H60	0.631200	0.407000	0.229500
C1121	C112	0.787700	0.430900	0.216000
C1131	C113	0.874000	0.460100	0.249700
H611	H61	0.939300	0.464000	0.224700
C1141	C114	0.862800	0.483500	0.320600
H621	H62	0.922000	0.502600	0.343500
C1151	C115	0.753700	0.427700	0.509100
C1161	C116	0.658000	0.400000	0.515900
H631	H63	0.588700	0.414700	0.520100
C1171	C117	0.664600	0.351100	0.516400
H641	H64	0.599400	0.333400	0.520900
C1181	C118	0.765000	0.327600	0.510300
C1191	C119	0.859500	0.354300	0.504400
H651	H65	0.928700	0.339100	0.502000
C1201	C120	0.854700	0.404100	0.501900
H661	H66	0.919700	0.421400	0.495300
C1211	C121	0.733000	0.481100	0.655200
C1221	C122	0.636800	0.484900	0.695200
H671	H67	0.575000	0.502800	0.672500
C1231	C123	0.632400	0.462600	0.767700
H681	H68	0.568400	0.466400	0.794200
C1241	C124	0.721800	0.434200	0.802500
C1251	C125	0.816600	0.430500	0.761400
H691	H69	0.877800	0.411800	0.782400
C1261	C126	0.820500	0.454200	0.690500
H701	H70	0.886000	0.451700	0.665100
C1271	C127	0.719700	0.584900	0.649800
C1281	C128	0.621800	0.611100	0.652900
H711	H71	0.567200	0.611500	0.608100
C1291	C129	0.602400	0.636800	0.720300
H721	H72	0.535400	0.654000	0.720100
C1301	C130	0.680700	0.637100	0.787600
C1311	C131	0.779500	0.611400	0.785600
H731	H73	0.834000	0.611300	0.830500
C1321	C132	0.799000	0.585800	0.717700
H741	H74	0.866500	0.568900	0.717800
C1331	C133	0.757000	0.634200	0.504300
C1341	C134	0.674700	0.664000	0.467000
H751	H75	0.607300	0.651500	0.441400
C1351	C135	0.692800	0.712800	0.467600
H761	H76	0.635500	0.732800	0.444100
C1361	C136	0.792200	0.732400	0.501800
C1371	C137	0.875000	0.702400	0.539300
H771	H77	0.944000	0.714800	0.562500
C1381	C138	0.854400	0.653500	0.542100
H781	H78	0.908100	0.633800	0.570400
C1391	C139	0.733600	0.657300	0.129500
C1401	C140	0.802900	0.405300	0.140300
C1411	C141	0.772000	0.273800	0.509900
C1421	C142	0.710600	0.409700	0.879200
C1431	C143	0.653500	0.662400	0.861800
C1441	C144	0.814900	0.784600	0.498400
Mg71	Mg7	0.923800	0.187260	0.512400
Mg81	Mg8	0.874100	0.683110	0.990700
O371	O37	0.862600	0.170600	0.400200
O381	O38	0.676400	0.163500	0.402200
O391	O39	0.779600	0.876200	0.383500
H791	H79	0.757000	0.861000	0.423000
O401	O40	0.614200	0.910500	0.394400
O411	O41	0.818400	0.751500	0.987000
O421	O42	0.632300	0.755600	0.992800
O431	O43	0.871000	0.913700	0.585400
O441	O44	0.707400	0.879900	0.600500
H801	H80	0.725000	0.862500	0.562000
O451	O45	0.941400	0.182100	0.639300
O461	O46	0.777200	0.160700	0.574000
O471	O47	0.768900	0.312700	0.011300
O481	O48	0.584600	0.298900	0.993000
C1451	C145	0.746600	0.055800	0.067600
C1461	C146	0.745300	0.005800	0.064700
C1471	C147	0.751800	0.981400	0.992700
C1481	C148	0.760700	0.006700	0.921800
C1491	C149	0.763800	0.057000	0.923700
C1501	C150	0.754400	0.080300	0.995800
C1511	C151	0.747300	0.081500	0.145700
C1521	C152	0.843900	0.082500	0.198800
H811	H81	0.907300	0.065800	0.186500
C1531	C153	0.850500	0.107500	0.269700
H821	H82	0.918700	0.108300	0.303500
C1541	C154	0.757000	0.131500	0.291500
C1551	C155	0.657600	0.129900	0.237800
H831	H83	0.592800	0.145200	0.251000
C1561	C156	0.653600	0.106300	0.166400
H841	H84	0.587000	0.106800	0.130900
C1571	C157	0.734900	0.979300	0.140800
C1581	C158	0.818400	0.949300	0.176000
H851	H85	0.883200	0.944600	0.150600
C1591	C159	0.809500	0.926000	0.247300
H861	H86	0.868800	0.907000	0.270500
C1601	C160	0.712300	0.930900	0.284000
C1611	C161	0.626000	0.960100	0.250300
H871	H87	0.560700	0.964000	0.275300
C1621	C162	0.637200	0.983500	0.179400
H881	H88	0.578000	0.002600	0.156500
C1631	C163	0.746300	0.927700	0.990900
C1641	C164	0.842000	0.900000	0.984100
H891	H89	0.911300	0.914700	0.979900
C1651	C165	0.835400	0.851100	0.983600
H901	H90	0.900600	0.833400	0.979100
C1661	C166	0.735000	0.827600	0.989700
C1671	C167	0.640500	0.854300	0.995600
H911	H91	0.571300	0.839100	0.998000
C1681	C168	0.645300	0.904100	0.998100
H921	H92	0.580300	0.921400	0.004700
C1691	C169	0.767000	0.981100	0.844800
C1701	C170	0.863200	0.984900	0.804800
H931	H93	0.925000	0.002800	0.827500
C1711	C171	0.867600	0.962600	0.732300
H941	H94	0.931600	0.966400	0.705800
C1721	C172	0.778200	0.934200	0.697500
C1731	C173	0.683400	0.930500	0.738600
H951	H95	0.622200	0.911800	0.717600
C1741	C174	0.679500	0.954200	0.809500
H961	H96	0.614000	0.951700	0.834900
C1751	C175	0.780300	0.084900	0.850200
C1761	C176	0.878200	0.111100	0.847100
H971	H97	0.932800	0.111500	0.891900
C1771	C177	0.897600	0.136800	0.779700
H981	H98	0.964600	0.154000	0.779900
C1781	C178	0.819300	0.137100	0.712400
C1791	C179	0.720500	0.111400	0.714400
H991	H99	0.666000	0.111300	0.669500
C1801	C180	0.701000	0.085800	0.782300
H1001	H100	0.633500	0.068900	0.782200
C1811	C181	0.743000	0.134200	0.995700
C1821	C182	0.825300	0.164000	0.033000
H1011	H101	0.892700	0.151500	0.058600
C1831	C183	0.807200	0.212800	0.032400
H1021	H102	0.864500	0.232800	0.055900
C1841	C184	0.707800	0.232400	0.998200
C1851	C185	0.625000	0.202400	0.960700
H1031	H103	0.556000	0.214800	0.937500
C1861	C186	0.645600	0.153500	0.957900
H1041	H104	0.591900	0.133800	0.929600
C1871	C187	0.766400	0.157300	0.370500
C1881	C188	0.697100	0.905300	0.359700
C1891	C189	0.728000	0.773800	0.990100
C1901	C190	0.789400	0.909700	0.620800
C1911	C191	0.846500	0.162400	0.638200
C1921	C192	0.685100	0.284600	0.001600
