data_AZEBUE_clean_PM
_symmetry_space_group_name_H-M	'P1'
_cell_length_a	17.293100
_cell_length_b	10.052100
_cell_length_c	17.658300
_cell_angle_alpha	90.000000
_cell_angle_beta	90.000000
_cell_angle_gamma	90.000000
_symmetry_Int_Tables_number 1

loop_
_symmetry_equiv_pos_as_xyz
'x,y,z'

loop_
_atom_site_label
_atom_site_type_symbol
_atom_site_fract_x
_atom_site_fract_y
_atom_site_fract_z
Ho11	Ho1	0.479150	0.159310	0.883110
Ho21	Ho2	0.678150	0.387080	0.898440
S11	S1	0.538700	0.540650	0.133490
S21	S2	0.701450	0.091770	0.146250
S31	S3	0.610680	0.021480	0.647530
C11	C1	0.512700	0.408700	0.998200
O11	O1	0.582200	0.433000	0.986500
O21	O2	0.422800	0.605000	0.320100
O31	O3	0.749000	0.962500	0.293700
O41	O4	0.698300	0.230500	0.995400
O51	O5	0.577200	0.117700	0.796900
O61	O6	0.466300	0.348800	0.953800
C21	C2	0.675500	0.095800	0.707900
C31	C3	0.480000	0.453400	0.072200
O71	O7	0.695000	0.194600	0.827200
C41	C4	0.573400	0.997400	0.095500
H11	H1	0.531300	0.979700	0.064300
C51	C5	0.680000	0.007300	0.578600
C61	C6	0.408600	0.431700	0.101500
H21	H2	0.369700	0.385900	0.076100
C71	C7	0.465900	0.547700	0.199100
C81	C8	0.750100	0.055900	0.602100
H31	H3	0.794400	0.055200	0.572400
O81	O8	0.714900	0.950900	0.456300
O91	O9	0.584300	0.152500	0.958700
C91	C9	0.584100	0.940000	0.167700
H41	H4	0.549700	0.879900	0.189500
O101	O10	0.537200	0.679400	0.284800
C101	C10	0.650800	0.982700	0.202100
C111	C11	0.632400	0.082400	0.076800
C121	C12	0.639300	0.159800	0.005800
C131	C13	0.646800	0.138700	0.782900
C141	C14	0.747600	0.107100	0.676500
H51	H5	0.789900	0.144200	0.701200
C151	C15	0.399700	0.486100	0.174600
H61	H6	0.354400	0.480800	0.202800
C161	C16	0.679500	0.939700	0.277800
C171	C17	0.477500	0.614300	0.273000
O111	O11	0.592000	0.918200	0.489300
O121	O12	0.632000	0.882300	0.320600
C181	C18	0.660600	0.952000	0.503100
Ho31	Ho3	0.520850	0.840690	0.383110
Ho41	Ho4	0.321850	0.612920	0.398440
S41	S4	0.461300	0.459350	0.633490
S51	S5	0.298550	0.908230	0.646250
S61	S6	0.389320	0.978520	0.147530
C191	C19	0.487300	0.591300	0.498200
O131	O13	0.417800	0.567000	0.486500
O141	O14	0.577200	0.395000	0.820100
O151	O15	0.251000	0.037500	0.793700
O161	O16	0.301700	0.769500	0.495400
O171	O17	0.422800	0.882300	0.296900
O181	O18	0.533700	0.651200	0.453800
C201	C20	0.324500	0.904200	0.207900
C211	C21	0.520000	0.546600	0.572200
O191	O19	0.305000	0.805400	0.327200
C221	C22	0.426600	0.002600	0.595500
H71	H7	0.468700	0.020300	0.564300
C231	C23	0.320000	0.992700	0.078600
C241	C24	0.591400	0.568300	0.601500
H81	H8	0.630300	0.614100	0.576100
C251	C25	0.534100	0.452300	0.699100
C261	C26	0.249900	0.944100	0.102100
H91	H9	0.205600	0.944800	0.072400
O201	O20	0.285100	0.049100	0.956300
O211	O21	0.415700	0.847500	0.458700
C271	C27	0.415900	0.060000	0.667700
H101	H10	0.450300	0.120100	0.689500
O221	O22	0.462800	0.320600	0.784800
C281	C28	0.349200	0.017300	0.702100
C291	C29	0.367600	0.917600	0.576800
C301	C30	0.360700	0.840200	0.505800
C311	C31	0.353200	0.861300	0.282900
C321	C32	0.252400	0.892900	0.176500
H111	H11	0.210100	0.855800	0.201200
C331	C33	0.600300	0.513900	0.674600
H121	H12	0.645600	0.519200	0.702800
C341	C34	0.320500	0.060300	0.777800
C351	C35	0.522500	0.385700	0.773000
O231	O23	0.408000	0.081800	0.989300
O241	O24	0.368000	0.117700	0.820600
C361	C36	0.339400	0.048000	0.003100
Ho51	Ho5	0.979150	0.340690	0.883110
Ho61	Ho6	0.178150	0.112920	0.898440
S71	S7	0.038700	0.959350	0.133490
S81	S8	0.201450	0.408230	0.146250
S91	S9	0.110680	0.478520	0.647530
C371	C37	0.012700	0.091300	0.998200
O251	O25	0.082200	0.067000	0.986500
O261	O26	0.922800	0.895000	0.320100
O271	O27	0.249000	0.537500	0.293700
O281	O28	0.198300	0.269500	0.995400
O291	O29	0.077200	0.382300	0.796900
O301	O30	0.966300	0.151200	0.953800
C381	C38	0.175500	0.404200	0.707900
C391	C39	0.980000	0.046600	0.072200
O311	O31	0.195000	0.305400	0.827200
C401	C40	0.073400	0.502600	0.095500
H131	H13	0.031300	0.520300	0.064300
C411	C41	0.180000	0.492700	0.578600
C421	C42	0.908600	0.068300	0.101500
H141	H14	0.869700	0.114100	0.076100
C431	C43	0.965900	0.952300	0.199100
C441	C44	0.250100	0.444100	0.602100
H151	H15	0.294400	0.444800	0.572400
O321	O32	0.214900	0.549100	0.456300
O331	O33	0.084300	0.347500	0.958700
C451	C45	0.084100	0.560000	0.167700
H161	H16	0.049700	0.620100	0.189500
O341	O34	0.037200	0.820600	0.284800
C461	C46	0.150800	0.517300	0.202100
C471	C47	0.132400	0.417600	0.076800
C481	C48	0.139300	0.340200	0.005800
C491	C49	0.146800	0.361300	0.782900
C501	C50	0.247600	0.392900	0.676500
H171	H17	0.289900	0.355800	0.701200
C511	C51	0.899700	0.013900	0.174600
H181	H18	0.854400	0.019200	0.202800
C521	C52	0.179500	0.560300	0.277800
C531	C53	0.977500	0.885700	0.273000
O351	O35	0.092000	0.581800	0.489300
O361	O36	0.132000	0.617700	0.320600
C541	C54	0.160600	0.548000	0.503100
Ho71	Ho7	0.020850	0.659310	0.383110
Ho81	Ho8	0.821850	0.887080	0.398440
S101	S10	0.961300	0.040650	0.633490
S111	S11	0.798550	0.591770	0.646250
S121	S12	0.889320	0.521480	0.147530
C551	C55	0.987300	0.908700	0.498200
O371	O37	0.917800	0.933000	0.486500
O381	O38	0.077200	0.105000	0.820100
O391	O39	0.751000	0.462500	0.793700
O401	O40	0.801700	0.730500	0.495400
O411	O41	0.922800	0.617700	0.296900
O421	O42	0.033700	0.848800	0.453800
C561	C56	0.824500	0.595800	0.207900
C571	C57	0.020000	0.953400	0.572200
O431	O43	0.805000	0.694600	0.327200
C581	C58	0.926600	0.497400	0.595500
H191	H19	0.968700	0.479700	0.564300
C591	C59	0.820000	0.507300	0.078600
C601	C60	0.091400	0.931700	0.601500
H201	H20	0.130300	0.885900	0.576100
C611	C61	0.034100	0.047700	0.699100
C621	C62	0.749900	0.555900	0.102100
H211	H21	0.705600	0.555200	0.072400
O441	O44	0.785100	0.450900	0.956300
O451	O45	0.915700	0.652500	0.458700
C631	C63	0.915900	0.440000	0.667700
H221	H22	0.950300	0.379900	0.689500
O461	O46	0.962800	0.179400	0.784800
C641	C64	0.849200	0.482700	0.702100
C651	C65	0.867600	0.582400	0.576800
C661	C66	0.860700	0.659800	0.505800
C671	C67	0.853200	0.638700	0.282900
C681	C68	0.752400	0.607100	0.176500
H231	H23	0.710100	0.644200	0.201200
C691	C69	0.100300	0.986100	0.674600
H241	H24	0.145600	0.980800	0.702800
C701	C70	0.820500	0.439700	0.777800
C711	C71	0.022500	0.114300	0.773000
O471	O47	0.908000	0.418200	0.989300
O481	O48	0.868000	0.382300	0.820600
C721	C72	0.839400	0.452000	0.003100
