data_BADHOG_clean_PM
_symmetry_space_group_name_H-M	'P1'
_cell_length_a	8.863900
_cell_length_b	20.659000
_cell_length_c	34.061000
_cell_angle_alpha	90.000000
_cell_angle_beta	90.000000
_cell_angle_gamma	90.000000
_symmetry_Int_Tables_number 1

loop_
_symmetry_equiv_pos_as_xyz
'x,y,z'

loop_
_atom_site_label
_atom_site_type_symbol
_atom_site_fract_x
_atom_site_fract_y
_atom_site_fract_z
O11	O1	0.739200	0.333320	0.679370
O21	O2	0.506500	0.457950	0.615000
O31	O3	0.505200	0.335000	0.657110
C11	C1	0.603300	0.320300	0.682370
C21	C2	0.547100	0.284400	0.717530
C31	C3	0.599700	0.232300	0.778780
H11	H1	0.668300	0.220000	0.798000
C41	C4	0.649700	0.267800	0.746410
H21	H2	0.750300	0.280100	0.744300
C51	C5	0.759500	0.591000	0.625230
H31	H3	0.850100	0.568300	0.625700
O41	O4	0.739200	0.833320	0.179370
O51	O5	0.506500	0.957950	0.115000
O61	O6	0.505200	0.835000	0.157110
C61	C6	0.603300	0.820300	0.182370
C71	C7	0.547100	0.784400	0.217530
C81	C8	0.599700	0.732300	0.278780
H41	H4	0.668300	0.720000	0.298000
C91	C9	0.649700	0.767800	0.246410
H51	H5	0.750300	0.780100	0.244300
C101	C10	0.759500	0.091000	0.125230
H61	H6	0.850100	0.068300	0.125700
O71	O7	0.239200	0.333320	0.179370
O81	O8	0.006500	0.457950	0.115000
O91	O9	0.005200	0.335000	0.157110
C111	C11	0.103300	0.320300	0.182370
C121	C12	0.047100	0.284400	0.217530
C131	C13	0.099700	0.232300	0.278780
H71	H7	0.168300	0.220000	0.298000
C141	C14	0.149700	0.267800	0.246410
H81	H8	0.250300	0.280100	0.244300
C151	C15	0.259500	0.591000	0.125230
H91	H9	0.350100	0.568300	0.125700
O101	O10	0.239200	0.833320	0.679370
O111	O11	0.006500	0.957950	0.615000
O121	O12	0.005200	0.835000	0.657110
C161	C16	0.103300	0.820300	0.682370
C171	C17	0.047100	0.784400	0.717530
C181	C18	0.099700	0.732300	0.778780
H101	H10	0.168300	0.720000	0.798000
C191	C19	0.149700	0.767800	0.746410
H111	H11	0.250300	0.780100	0.744300
C201	C20	0.259500	0.091000	0.625230
H121	H12	0.350100	0.068300	0.625700
O131	O13	0.010800	0.416680	0.679370
O141	O14	0.243500	0.292050	0.615000
O151	O15	0.244800	0.415000	0.657110
C211	C21	0.146700	0.429700	0.682370
C221	C22	0.202900	0.465600	0.717530
C231	C23	0.150300	0.517700	0.778780
H131	H13	0.081700	0.530000	0.798000
C241	C24	0.100300	0.482200	0.746410
H141	H14	0.999700	0.469900	0.744300
C251	C25	0.990500	0.159000	0.625230
H151	H15	0.899900	0.181700	0.625700
O161	O16	0.010800	0.916680	0.179370
O171	O17	0.243500	0.792050	0.115000
O181	O18	0.244800	0.915000	0.157110
C261	C26	0.146700	0.929700	0.182370
C271	C27	0.202900	0.965600	0.217530
C281	C28	0.150300	0.017700	0.278780
H161	H16	0.081700	0.030000	0.298000
C291	C29	0.100300	0.982200	0.246410
H171	H17	0.999700	0.969900	0.244300
C301	C30	0.990500	0.659000	0.125230
H181	H18	0.899900	0.681700	0.125700
O191	O19	0.510800	0.416680	0.179370
O201	O20	0.743500	0.292050	0.115000
O211	O21	0.744800	0.415000	0.157110
C311	C31	0.646700	0.429700	0.182370
C321	C32	0.702900	0.465600	0.217530
C331	C33	0.650300	0.517700	0.278780
H191	H19	0.581700	0.530000	0.298000
C341	C34	0.600300	0.482200	0.246410
H201	H20	0.499700	0.469900	0.244300
C351	C35	0.490500	0.159000	0.125230
H211	H21	0.399900	0.181700	0.125700
O221	O22	0.510800	0.916680	0.679370
O231	O23	0.743500	0.792050	0.615000
O241	O24	0.744800	0.915000	0.657110
C361	C36	0.646700	0.929700	0.682370
C371	C37	0.702900	0.965600	0.717530
C381	C38	0.650300	0.017700	0.778780
H221	H22	0.581700	0.030000	0.798000
C391	C39	0.600300	0.982200	0.746410
H231	H23	0.499700	0.969900	0.744300
C401	C40	0.490500	0.659000	0.625230
H241	H24	0.399900	0.681700	0.625700
O251	O25	0.010800	0.333320	0.070630
O261	O26	0.243500	0.457950	0.135000
O271	O27	0.244800	0.335000	0.092890
C411	C41	0.146700	0.320300	0.067630
C421	C42	0.202900	0.284400	0.032470
C431	C43	0.150300	0.232300	0.971220
H251	H25	0.081700	0.220000	0.952000
C441	C44	0.100300	0.267800	0.003590
H261	H26	0.999700	0.280100	0.005700
C451	C45	0.990500	0.591000	0.124770
H271	H27	0.899900	0.568300	0.124300
O281	O28	0.010800	0.833320	0.570630
O291	O29	0.243500	0.957950	0.635000
O301	O30	0.244800	0.835000	0.592890
C461	C46	0.146700	0.820300	0.567630
C471	C47	0.202900	0.784400	0.532470
C481	C48	0.150300	0.732300	0.471220
H281	H28	0.081700	0.720000	0.452000
C491	C49	0.100300	0.767800	0.503590
H291	H29	0.999700	0.780100	0.505700
C501	C50	0.990500	0.091000	0.624770
H301	H30	0.899900	0.068300	0.624300
O311	O31	0.510800	0.333320	0.570630
O321	O32	0.743500	0.457950	0.635000
O331	O33	0.744800	0.335000	0.592890
C511	C51	0.646700	0.320300	0.567630
C521	C52	0.702900	0.284400	0.532470
C531	C53	0.650300	0.232300	0.471220
H311	H31	0.581700	0.220000	0.452000
C541	C54	0.600300	0.267800	0.503590
H321	H32	0.499700	0.280100	0.505700
C551	C55	0.490500	0.591000	0.624770
H331	H33	0.399900	0.568300	0.624300
O341	O34	0.510800	0.833320	0.070630
O351	O35	0.743500	0.957950	0.135000
O361	O36	0.744800	0.835000	0.092890
C561	C56	0.646700	0.820300	0.067630
C571	C57	0.702900	0.784400	0.032470
C581	C58	0.650300	0.732300	0.971220
H341	H34	0.581700	0.720000	0.952000
C591	C59	0.600300	0.767800	0.003590
H351	H35	0.499700	0.780100	0.005700
C601	C60	0.490500	0.091000	0.124770
H361	H36	0.399900	0.068300	0.124300
O371	O37	0.739200	0.416680	0.070630
O381	O38	0.506500	0.292050	0.135000
O391	O39	0.505200	0.415000	0.092890
C611	C61	0.603300	0.429700	0.067630
C621	C62	0.547100	0.465600	0.032470
C631	C63	0.599700	0.517700	0.971220
H371	H37	0.668300	0.530000	0.952000
C641	C64	0.649700	0.482200	0.003590
H381	H38	0.750300	0.469900	0.005700
C651	C65	0.759500	0.159000	0.124770
H391	H39	0.850100	0.181700	0.124300
O401	O40	0.739200	0.916680	0.570630
O411	O41	0.506500	0.792050	0.635000
O421	O42	0.505200	0.915000	0.592890
C661	C66	0.603300	0.929700	0.567630
C671	C67	0.547100	0.965600	0.532470
C681	C68	0.599700	0.017700	0.471220
H401	H40	0.668300	0.030000	0.452000
C691	C69	0.649700	0.982200	0.503590
H411	H41	0.750300	0.969900	0.505700
C701	C70	0.759500	0.659000	0.624770
H421	H42	0.850100	0.681700	0.624300
O431	O43	0.239200	0.416680	0.570630
O441	O44	0.006500	0.292050	0.635000
O451	O45	0.005200	0.415000	0.592890
C711	C71	0.103300	0.429700	0.567630
C721	C72	0.047100	0.465600	0.532470
C731	C73	0.099700	0.517700	0.471220
H431	H43	0.168300	0.530000	0.452000
C741	C74	0.149700	0.482200	0.503590
H441	H44	0.250300	0.469900	0.505700
C751	C75	0.259500	0.159000	0.624770
H451	H45	0.350100	0.181700	0.624300
O461	O46	0.239200	0.916680	0.070630
O471	O47	0.006500	0.792050	0.135000
O481	O48	0.005200	0.915000	0.092890
C761	C76	0.103300	0.929700	0.067630
C771	C77	0.047100	0.965600	0.032470
C781	C78	0.099700	0.017700	0.971220
H461	H46	0.168300	0.030000	0.952000
C791	C79	0.149700	0.982200	0.003590
H471	H47	0.250300	0.969900	0.005700
C801	C80	0.259500	0.659000	0.124770
H481	H48	0.350100	0.681700	0.124300
O491	O49	0.260800	0.666680	0.320630
O501	O50	0.493500	0.542050	0.385000
O511	O51	0.494800	0.665000	0.342890
C811	C81	0.396700	0.679700	0.317630
C821	C82	0.452900	0.715600	0.282470
C831	C83	0.400300	0.767700	0.221220
H491	H49	0.331700	0.780000	0.202000
C841	C84	0.350300	0.732200	0.253590
H501	H50	0.249700	0.719900	0.255700
C851	C85	0.240500	0.409000	0.374770
H511	H51	0.149900	0.431700	0.374300
O521	O52	0.260800	0.166680	0.820630
O531	O53	0.493500	0.042050	0.885000
O541	O54	0.494800	0.165000	0.842890
C861	C86	0.396700	0.179700	0.817630
C871	C87	0.452900	0.215600	0.782470
C881	C88	0.400300	0.267700	0.721220
H521	H52	0.331700	0.280000	0.702000
C891	C89	0.350300	0.232200	0.753590
H531	H53	0.249700	0.219900	0.755700
C901	C90	0.240500	0.909000	0.874770
H541	H54	0.149900	0.931700	0.874300
O551	O55	0.760800	0.666680	0.820630
O561	O56	0.993500	0.542050	0.885000
O571	O57	0.994800	0.665000	0.842890
C911	C91	0.896700	0.679700	0.817630
C921	C92	0.952900	0.715600	0.782470
C931	C93	0.900300	0.767700	0.721220
H551	H55	0.831700	0.780000	0.702000
C941	C94	0.850300	0.732200	0.753590
H561	H56	0.749700	0.719900	0.755700
C951	C95	0.740500	0.409000	0.874770
H571	H57	0.649900	0.431700	0.874300
O581	O58	0.760800	0.166680	0.320630
O591	O59	0.993500	0.042050	0.385000
O601	O60	0.994800	0.165000	0.342890
C961	C96	0.896700	0.179700	0.317630
C971	C97	0.952900	0.215600	0.282470
C981	C98	0.900300	0.267700	0.221220
H581	H58	0.831700	0.280000	0.202000
C991	C99	0.850300	0.232200	0.253590
H591	H59	0.749700	0.219900	0.255700
C1001	C100	0.740500	0.909000	0.374770
H601	H60	0.649900	0.931700	0.374300
O611	O61	0.989200	0.583320	0.320630
O621	O62	0.756500	0.707950	0.385000
O631	O63	0.755200	0.585000	0.342890
C1011	C101	0.853300	0.570300	0.317630
C1021	C102	0.797100	0.534400	0.282470
C1031	C103	0.849700	0.482300	0.221220
H611	H61	0.918300	0.470000	0.202000
C1041	C104	0.899700	0.517800	0.253590
H621	H62	0.000300	0.530100	0.255700
C1051	C105	0.009500	0.841000	0.374770
H631	H63	0.100100	0.818300	0.374300
O641	O64	0.989200	0.083320	0.820630
O651	O65	0.756500	0.207950	0.885000
O661	O66	0.755200	0.085000	0.842890
C1061	C106	0.853300	0.070300	0.817630
C1071	C107	0.797100	0.034400	0.782470
C1081	C108	0.849700	0.982300	0.721220
H641	H64	0.918300	0.970000	0.702000
C1091	C109	0.899700	0.017800	0.753590
H651	H65	0.000300	0.030100	0.755700
C1101	C110	0.009500	0.341000	0.874770
H661	H66	0.100100	0.318300	0.874300
O671	O67	0.489200	0.583320	0.820630
O681	O68	0.256500	0.707950	0.885000
O691	O69	0.255200	0.585000	0.842890
C1111	C111	0.353300	0.570300	0.817630
C1121	C112	0.297100	0.534400	0.782470
C1131	C113	0.349700	0.482300	0.721220
H671	H67	0.418300	0.470000	0.702000
C1141	C114	0.399700	0.517800	0.753590
H681	H68	0.500300	0.530100	0.755700
C1151	C115	0.509500	0.841000	0.874770
H691	H69	0.600100	0.818300	0.874300
O701	O70	0.489200	0.083320	0.320630
O711	O71	0.256500	0.207950	0.385000
O721	O72	0.255200	0.085000	0.342890
C1161	C116	0.353300	0.070300	0.317630
C1171	C117	0.297100	0.034400	0.282470
C1181	C118	0.349700	0.982300	0.221220
H701	H70	0.418300	0.970000	0.202000
C1191	C119	0.399700	0.017800	0.253590
H711	H71	0.500300	0.030100	0.255700
C1201	C120	0.509500	0.341000	0.374770
H721	H72	0.600100	0.318300	0.374300
O731	O73	0.989200	0.666680	0.929370
O741	O74	0.756500	0.542050	0.865000
O751	O75	0.755200	0.665000	0.907110
C1211	C121	0.853300	0.679700	0.932370
C1221	C122	0.797100	0.715600	0.967530
C1231	C123	0.849700	0.767700	0.028780
H731	H73	0.918300	0.780000	0.048000
C1241	C124	0.899700	0.732200	0.996410
H741	H74	0.000300	0.719900	0.994300
C1251	C125	0.009500	0.409000	0.875230
H751	H75	0.100100	0.431700	0.875700
O761	O76	0.989200	0.166680	0.429370
O771	O77	0.756500	0.042050	0.365000
O781	O78	0.755200	0.165000	0.407110
C1261	C126	0.853300	0.179700	0.432370
C1271	C127	0.797100	0.215600	0.467530
C1281	C128	0.849700	0.267700	0.528780
H761	H76	0.918300	0.280000	0.548000
C1291	C129	0.899700	0.232200	0.496410
H771	H77	0.000300	0.219900	0.494300
C1301	C130	0.009500	0.909000	0.375230
H781	H78	0.100100	0.931700	0.375700
O791	O79	0.489200	0.666680	0.429370
O801	O80	0.256500	0.542050	0.365000
O811	O81	0.255200	0.665000	0.407110
C1311	C131	0.353300	0.679700	0.432370
C1321	C132	0.297100	0.715600	0.467530
C1331	C133	0.349700	0.767700	0.528780
H791	H79	0.418300	0.780000	0.548000
C1341	C134	0.399700	0.732200	0.496410
H801	H80	0.500300	0.719900	0.494300
C1351	C135	0.509500	0.409000	0.375230
H811	H81	0.600100	0.431700	0.375700
O821	O82	0.489200	0.166680	0.929370
O831	O83	0.256500	0.042050	0.865000
O841	O84	0.255200	0.165000	0.907110
C1361	C136	0.353300	0.179700	0.932370
C1371	C137	0.297100	0.215600	0.967530
C1381	C138	0.349700	0.267700	0.028780
H821	H82	0.418300	0.280000	0.048000
C1391	C139	0.399700	0.232200	0.996410
H831	H83	0.500300	0.219900	0.994300
C1401	C140	0.509500	0.909000	0.875230
H841	H84	0.600100	0.931700	0.875700
O851	O85	0.260800	0.583320	0.929370
O861	O86	0.493500	0.707950	0.865000
O871	O87	0.494800	0.585000	0.907110
C1411	C141	0.396700	0.570300	0.932370
C1421	C142	0.452900	0.534400	0.967530
C1431	C143	0.400300	0.482300	0.028780
H851	H85	0.331700	0.470000	0.048000
C1441	C144	0.350300	0.517800	0.996410
H861	H86	0.249700	0.530100	0.994300
C1451	C145	0.240500	0.841000	0.875230
H871	H87	0.149900	0.818300	0.875700
O881	O88	0.260800	0.083320	0.429370
O891	O89	0.493500	0.207950	0.365000
O901	O90	0.494800	0.085000	0.407110
C1461	C146	0.396700	0.070300	0.432370
C1471	C147	0.452900	0.034400	0.467530
C1481	C148	0.400300	0.982300	0.528780
H881	H88	0.331700	0.970000	0.548000
C1491	C149	0.350300	0.017800	0.496410
H891	H89	0.249700	0.030100	0.494300
C1501	C150	0.240500	0.341000	0.375230
H901	H90	0.149900	0.318300	0.375700
O911	O91	0.760800	0.583320	0.429370
O921	O92	0.993500	0.707950	0.365000
O931	O93	0.994800	0.585000	0.407110
C1511	C151	0.896700	0.570300	0.432370
C1521	C152	0.952900	0.534400	0.467530
C1531	C153	0.900300	0.482300	0.528780
H911	H91	0.831700	0.470000	0.548000
C1541	C154	0.850300	0.517800	0.496410
H921	H92	0.749700	0.530100	0.494300
C1551	C155	0.740500	0.841000	0.375230
H931	H93	0.649900	0.818300	0.375700
O941	O94	0.760800	0.083320	0.929370
O951	O95	0.993500	0.207950	0.865000
O961	O96	0.994800	0.085000	0.907110
C1561	C156	0.896700	0.070300	0.932370
C1571	C157	0.952900	0.034400	0.967530
C1581	C158	0.900300	0.982300	0.028780
H941	H94	0.831700	0.970000	0.048000
C1591	C159	0.850300	0.017800	0.996410
H951	H95	0.749700	0.030100	0.994300
C1601	C160	0.740500	0.341000	0.875230
H961	H96	0.649900	0.318300	0.875700
Sc11	Sc1	0.375000	0.375000	0.614120
Sc21	Sc2	0.375000	0.875000	0.114120
Sc31	Sc3	0.875000	0.375000	0.114120
Sc41	Sc4	0.875000	0.875000	0.614120
Sc51	Sc5	0.375000	0.375000	0.135880
Sc61	Sc6	0.375000	0.875000	0.635880
Sc71	Sc7	0.875000	0.375000	0.635880
Sc81	Sc8	0.875000	0.875000	0.135880
Sc91	Sc9	0.625000	0.625000	0.385880
Sc101	Sc10	0.625000	0.125000	0.885880
Sc111	Sc11	0.125000	0.625000	0.885880
Sc121	Sc12	0.125000	0.125000	0.385880
Sc131	Sc13	0.625000	0.625000	0.864120
Sc141	Sc14	0.625000	0.125000	0.364120
Sc151	Sc15	0.125000	0.625000	0.364120
Sc161	Sc16	0.125000	0.125000	0.864120
C1611	C161	0.625000	0.558300	0.625000
C1621	C162	0.625000	0.485400	0.625000
C1631	C163	0.625000	0.058300	0.125000
C1641	C164	0.625000	0.985400	0.125000
C1651	C165	0.125000	0.191700	0.625000
C1661	C166	0.125000	0.264600	0.625000
C1671	C167	0.125000	0.691700	0.125000
C1681	C168	0.125000	0.764600	0.125000
C1691	C169	0.625000	0.691700	0.625000
C1701	C170	0.625000	0.764600	0.625000
C1711	C171	0.125000	0.558300	0.125000
C1721	C172	0.125000	0.485400	0.125000
C1731	C173	0.125000	0.058300	0.625000
C1741	C174	0.125000	0.985400	0.625000
C1751	C175	0.625000	0.191700	0.125000
C1761	C176	0.625000	0.264600	0.125000
C1771	C177	0.375000	0.441700	0.375000
C1781	C178	0.375000	0.514600	0.375000
C1791	C179	0.375000	0.941700	0.875000
C1801	C180	0.375000	0.014600	0.875000
C1811	C181	0.875000	0.808300	0.375000
C1821	C182	0.875000	0.735400	0.375000
C1831	C183	0.875000	0.308300	0.875000
C1841	C184	0.875000	0.235400	0.875000
C1851	C185	0.875000	0.441700	0.875000
C1861	C186	0.875000	0.514600	0.875000
C1871	C187	0.875000	0.941700	0.375000
C1881	C188	0.875000	0.014600	0.375000
C1891	C189	0.375000	0.808300	0.875000
C1901	C190	0.375000	0.735400	0.875000
C1911	C191	0.375000	0.308300	0.375000
C1921	C192	0.375000	0.235400	0.375000
