data_BADHUM_clean_PM
_symmetry_space_group_name_H-M	'P1'
_cell_length_a	8.882200
_cell_length_b	20.586100
_cell_length_c	33.922000
_cell_angle_alpha	90.000000
_cell_angle_beta	90.000000
_cell_angle_gamma	90.000000
_symmetry_Int_Tables_number 1

loop_
_symmetry_equiv_pos_as_xyz
'x,y,z'

loop_
_atom_site_label
_atom_site_type_symbol
_atom_site_fract_x
_atom_site_fract_y
_atom_site_fract_z
O11	O1	0.740300	0.333700	0.679510
O21	O2	0.505400	0.457500	0.614930
O31	O3	0.505900	0.335000	0.656660
C11	C1	0.606300	0.320800	0.682230
C21	C2	0.547300	0.285300	0.717600
C31	C3	0.599500	0.232900	0.779100
H11	H1	0.667500	0.221200	0.798700
C41	C4	0.649800	0.268700	0.746800
H21	H2	0.750100	0.281200	0.744900
C51	C5	0.759900	0.590500	0.625400
H31	H3	0.849900	0.567500	0.626300
O41	O4	0.740300	0.833700	0.179510
O51	O5	0.505400	0.957500	0.114930
O61	O6	0.505900	0.835000	0.156660
C61	C6	0.606300	0.820800	0.182230
C71	C7	0.547300	0.785300	0.217600
C81	C8	0.599500	0.732900	0.279100
H41	H4	0.667500	0.721200	0.298700
C91	C9	0.649800	0.768700	0.246800
H51	H5	0.750100	0.781200	0.244900
C101	C10	0.759900	0.090500	0.125400
H61	H6	0.849900	0.067500	0.126300
O71	O7	0.240300	0.333700	0.179510
O81	O8	0.005400	0.457500	0.114930
O91	O9	0.005900	0.335000	0.156660
C111	C11	0.106300	0.320800	0.182230
C121	C12	0.047300	0.285300	0.217600
C131	C13	0.099500	0.232900	0.279100
H71	H7	0.167500	0.221200	0.298700
C141	C14	0.149800	0.268700	0.246800
H81	H8	0.250100	0.281200	0.244900
C151	C15	0.259900	0.590500	0.125400
H91	H9	0.349900	0.567500	0.126300
O101	O10	0.240300	0.833700	0.679510
O111	O11	0.005400	0.957500	0.614930
O121	O12	0.005900	0.835000	0.656660
C161	C16	0.106300	0.820800	0.682230
C171	C17	0.047300	0.785300	0.717600
C181	C18	0.099500	0.732900	0.779100
H101	H10	0.167500	0.721200	0.798700
C191	C19	0.149800	0.768700	0.746800
H111	H11	0.250100	0.781200	0.744900
C201	C20	0.259900	0.090500	0.625400
H121	H12	0.349900	0.067500	0.626300
O131	O13	0.009700	0.416300	0.679510
O141	O14	0.244600	0.292500	0.614930
O151	O15	0.244100	0.415000	0.656660
C211	C21	0.143700	0.429200	0.682230
C221	C22	0.202700	0.464700	0.717600
C231	C23	0.150500	0.517100	0.779100
H131	H13	0.082500	0.528800	0.798700
C241	C24	0.100200	0.481300	0.746800
H141	H14	0.999900	0.468800	0.744900
C251	C25	0.990100	0.159500	0.625400
H151	H15	0.900100	0.182500	0.626300
O161	O16	0.009700	0.916300	0.179510
O171	O17	0.244600	0.792500	0.114930
O181	O18	0.244100	0.915000	0.156660
C261	C26	0.143700	0.929200	0.182230
C271	C27	0.202700	0.964700	0.217600
C281	C28	0.150500	0.017100	0.279100
H161	H16	0.082500	0.028800	0.298700
C291	C29	0.100200	0.981300	0.246800
H171	H17	0.999900	0.968800	0.244900
C301	C30	0.990100	0.659500	0.125400
H181	H18	0.900100	0.682500	0.126300
O191	O19	0.509700	0.416300	0.179510
O201	O20	0.744600	0.292500	0.114930
O211	O21	0.744100	0.415000	0.156660
C311	C31	0.643700	0.429200	0.182230
C321	C32	0.702700	0.464700	0.217600
C331	C33	0.650500	0.517100	0.279100
H191	H19	0.582500	0.528800	0.298700
C341	C34	0.600200	0.481300	0.246800
H201	H20	0.499900	0.468800	0.244900
C351	C35	0.490100	0.159500	0.125400
H211	H21	0.400100	0.182500	0.126300
O221	O22	0.509700	0.916300	0.679510
O231	O23	0.744600	0.792500	0.614930
O241	O24	0.744100	0.915000	0.656660
C361	C36	0.643700	0.929200	0.682230
C371	C37	0.702700	0.964700	0.717600
C381	C38	0.650500	0.017100	0.779100
H221	H22	0.582500	0.028800	0.798700
C391	C39	0.600200	0.981300	0.746800
H231	H23	0.499900	0.968800	0.744900
C401	C40	0.490100	0.659500	0.625400
H241	H24	0.400100	0.682500	0.626300
O251	O25	0.009700	0.333700	0.070490
O261	O26	0.244600	0.457500	0.135070
O271	O27	0.244100	0.335000	0.093340
C411	C41	0.143700	0.320800	0.067770
C421	C42	0.202700	0.285300	0.032400
C431	C43	0.150500	0.232900	0.970900
H251	H25	0.082500	0.221200	0.951300
C441	C44	0.100200	0.268700	0.003200
H261	H26	0.999900	0.281200	0.005100
C451	C45	0.990100	0.590500	0.124600
H271	H27	0.900100	0.567500	0.123700
O281	O28	0.009700	0.833700	0.570490
O291	O29	0.244600	0.957500	0.635070
O301	O30	0.244100	0.835000	0.593340
C461	C46	0.143700	0.820800	0.567770
C471	C47	0.202700	0.785300	0.532400
C481	C48	0.150500	0.732900	0.470900
H281	H28	0.082500	0.721200	0.451300
C491	C49	0.100200	0.768700	0.503200
H291	H29	0.999900	0.781200	0.505100
C501	C50	0.990100	0.090500	0.624600
H301	H30	0.900100	0.067500	0.623700
O311	O31	0.509700	0.333700	0.570490
O321	O32	0.744600	0.457500	0.635070
O331	O33	0.744100	0.335000	0.593340
C511	C51	0.643700	0.320800	0.567770
C521	C52	0.702700	0.285300	0.532400
C531	C53	0.650500	0.232900	0.470900
H311	H31	0.582500	0.221200	0.451300
C541	C54	0.600200	0.268700	0.503200
H321	H32	0.499900	0.281200	0.505100
C551	C55	0.490100	0.590500	0.624600
H331	H33	0.400100	0.567500	0.623700
O341	O34	0.509700	0.833700	0.070490
O351	O35	0.744600	0.957500	0.135070
O361	O36	0.744100	0.835000	0.093340
C561	C56	0.643700	0.820800	0.067770
C571	C57	0.702700	0.785300	0.032400
C581	C58	0.650500	0.732900	0.970900
H341	H34	0.582500	0.721200	0.951300
C591	C59	0.600200	0.768700	0.003200
H351	H35	0.499900	0.781200	0.005100
C601	C60	0.490100	0.090500	0.124600
H361	H36	0.400100	0.067500	0.123700
O371	O37	0.740300	0.416300	0.070490
O381	O38	0.505400	0.292500	0.135070
O391	O39	0.505900	0.415000	0.093340
C611	C61	0.606300	0.429200	0.067770
C621	C62	0.547300	0.464700	0.032400
C631	C63	0.599500	0.517100	0.970900
H371	H37	0.667500	0.528800	0.951300
C641	C64	0.649800	0.481300	0.003200
H381	H38	0.750100	0.468800	0.005100
C651	C65	0.759900	0.159500	0.124600
H391	H39	0.849900	0.182500	0.123700
O401	O40	0.740300	0.916300	0.570490
O411	O41	0.505400	0.792500	0.635070
O421	O42	0.505900	0.915000	0.593340
C661	C66	0.606300	0.929200	0.567770
C671	C67	0.547300	0.964700	0.532400
C681	C68	0.599500	0.017100	0.470900
H401	H40	0.667500	0.028800	0.451300
C691	C69	0.649800	0.981300	0.503200
H411	H41	0.750100	0.968800	0.505100
C701	C70	0.759900	0.659500	0.624600
H421	H42	0.849900	0.682500	0.623700
O431	O43	0.240300	0.416300	0.570490
O441	O44	0.005400	0.292500	0.635070
O451	O45	0.005900	0.415000	0.593340
C711	C71	0.106300	0.429200	0.567770
C721	C72	0.047300	0.464700	0.532400
C731	C73	0.099500	0.517100	0.470900
H431	H43	0.167500	0.528800	0.451300
C741	C74	0.149800	0.481300	0.503200
H441	H44	0.250100	0.468800	0.505100
C751	C75	0.259900	0.159500	0.624600
H451	H45	0.349900	0.182500	0.623700
O461	O46	0.240300	0.916300	0.070490
O471	O47	0.005400	0.792500	0.135070
O481	O48	0.005900	0.915000	0.093340
C761	C76	0.106300	0.929200	0.067770
C771	C77	0.047300	0.964700	0.032400
C781	C78	0.099500	0.017100	0.970900
H461	H46	0.167500	0.028800	0.951300
C791	C79	0.149800	0.981300	0.003200
H471	H47	0.250100	0.968800	0.005100
C801	C80	0.259900	0.659500	0.124600
H481	H48	0.349900	0.682500	0.123700
O491	O49	0.259700	0.666300	0.320490
O501	O50	0.494600	0.542500	0.385070
O511	O51	0.494100	0.665000	0.343340
C811	C81	0.393700	0.679200	0.317770
C821	C82	0.452700	0.714700	0.282400
C831	C83	0.400500	0.767100	0.220900
H491	H49	0.332500	0.778800	0.201300
C841	C84	0.350200	0.731300	0.253200
H501	H50	0.249900	0.718800	0.255100
C851	C85	0.240100	0.409500	0.374600
H511	H51	0.150100	0.432500	0.373700
O521	O52	0.259700	0.166300	0.820490
O531	O53	0.494600	0.042500	0.885070
O541	O54	0.494100	0.165000	0.843340
C861	C86	0.393700	0.179200	0.817770
C871	C87	0.452700	0.214700	0.782400
C881	C88	0.400500	0.267100	0.720900
H521	H52	0.332500	0.278800	0.701300
C891	C89	0.350200	0.231300	0.753200
H531	H53	0.249900	0.218800	0.755100
C901	C90	0.240100	0.909500	0.874600
H541	H54	0.150100	0.932500	0.873700
O551	O55	0.759700	0.666300	0.820490
O561	O56	0.994600	0.542500	0.885070
O571	O57	0.994100	0.665000	0.843340
C911	C91	0.893700	0.679200	0.817770
C921	C92	0.952700	0.714700	0.782400
C931	C93	0.900500	0.767100	0.720900
H551	H55	0.832500	0.778800	0.701300
C941	C94	0.850200	0.731300	0.753200
H561	H56	0.749900	0.718800	0.755100
C951	C95	0.740100	0.409500	0.874600
H571	H57	0.650100	0.432500	0.873700
O581	O58	0.759700	0.166300	0.320490
O591	O59	0.994600	0.042500	0.385070
O601	O60	0.994100	0.165000	0.343340
C961	C96	0.893700	0.179200	0.317770
C971	C97	0.952700	0.214700	0.282400
C981	C98	0.900500	0.267100	0.220900
H581	H58	0.832500	0.278800	0.201300
C991	C99	0.850200	0.231300	0.253200
H591	H59	0.749900	0.218800	0.255100
C1001	C100	0.740100	0.909500	0.374600
H601	H60	0.650100	0.932500	0.373700
O611	O61	0.990300	0.583700	0.320490
O621	O62	0.755400	0.707500	0.385070
O631	O63	0.755900	0.585000	0.343340
C1011	C101	0.856300	0.570800	0.317770
C1021	C102	0.797300	0.535300	0.282400
C1031	C103	0.849500	0.482900	0.220900
H611	H61	0.917500	0.471200	0.201300
C1041	C104	0.899800	0.518700	0.253200
H621	H62	0.000100	0.531200	0.255100
C1051	C105	0.009900	0.840500	0.374600
H631	H63	0.099900	0.817500	0.373700
O641	O64	0.990300	0.083700	0.820490
O651	O65	0.755400	0.207500	0.885070
O661	O66	0.755900	0.085000	0.843340
C1061	C106	0.856300	0.070800	0.817770
C1071	C107	0.797300	0.035300	0.782400
C1081	C108	0.849500	0.982900	0.720900
H641	H64	0.917500	0.971200	0.701300
C1091	C109	0.899800	0.018700	0.753200
H651	H65	0.000100	0.031200	0.755100
C1101	C110	0.009900	0.340500	0.874600
H661	H66	0.099900	0.317500	0.873700
O671	O67	0.490300	0.583700	0.820490
O681	O68	0.255400	0.707500	0.885070
O691	O69	0.255900	0.585000	0.843340
C1111	C111	0.356300	0.570800	0.817770
C1121	C112	0.297300	0.535300	0.782400
C1131	C113	0.349500	0.482900	0.720900
H671	H67	0.417500	0.471200	0.701300
C1141	C114	0.399800	0.518700	0.753200
H681	H68	0.500100	0.531200	0.755100
C1151	C115	0.509900	0.840500	0.874600
H691	H69	0.599900	0.817500	0.873700
O701	O70	0.490300	0.083700	0.320490
O711	O71	0.255400	0.207500	0.385070
O721	O72	0.255900	0.085000	0.343340
C1161	C116	0.356300	0.070800	0.317770
C1171	C117	0.297300	0.035300	0.282400
C1181	C118	0.349500	0.982900	0.220900
H701	H70	0.417500	0.971200	0.201300
C1191	C119	0.399800	0.018700	0.253200
H711	H71	0.500100	0.031200	0.255100
C1201	C120	0.509900	0.340500	0.374600
H721	H72	0.599900	0.317500	0.373700
O731	O73	0.990300	0.666300	0.929510
O741	O74	0.755400	0.542500	0.864930
O751	O75	0.755900	0.665000	0.906660
C1211	C121	0.856300	0.679200	0.932230
C1221	C122	0.797300	0.714700	0.967600
C1231	C123	0.849500	0.767100	0.029100
H731	H73	0.917500	0.778800	0.048700
C1241	C124	0.899800	0.731300	0.996800
H741	H74	0.000100	0.718800	0.994900
C1251	C125	0.009900	0.409500	0.875400
H751	H75	0.099900	0.432500	0.876300
O761	O76	0.990300	0.166300	0.429510
O771	O77	0.755400	0.042500	0.364930
O781	O78	0.755900	0.165000	0.406660
C1261	C126	0.856300	0.179200	0.432230
C1271	C127	0.797300	0.214700	0.467600
C1281	C128	0.849500	0.267100	0.529100
H761	H76	0.917500	0.278800	0.548700
C1291	C129	0.899800	0.231300	0.496800
H771	H77	0.000100	0.218800	0.494900
C1301	C130	0.009900	0.909500	0.375400
H781	H78	0.099900	0.932500	0.376300
O791	O79	0.490300	0.666300	0.429510
O801	O80	0.255400	0.542500	0.364930
O811	O81	0.255900	0.665000	0.406660
C1311	C131	0.356300	0.679200	0.432230
C1321	C132	0.297300	0.714700	0.467600
C1331	C133	0.349500	0.767100	0.529100
H791	H79	0.417500	0.778800	0.548700
C1341	C134	0.399800	0.731300	0.496800
H801	H80	0.500100	0.718800	0.494900
C1351	C135	0.509900	0.409500	0.375400
H811	H81	0.599900	0.432500	0.376300
O821	O82	0.490300	0.166300	0.929510
O831	O83	0.255400	0.042500	0.864930
O841	O84	0.255900	0.165000	0.906660
C1361	C136	0.356300	0.179200	0.932230
C1371	C137	0.297300	0.214700	0.967600
C1381	C138	0.349500	0.267100	0.029100
H821	H82	0.417500	0.278800	0.048700
C1391	C139	0.399800	0.231300	0.996800
H831	H83	0.500100	0.218800	0.994900
C1401	C140	0.509900	0.909500	0.875400
H841	H84	0.599900	0.932500	0.876300
O851	O85	0.259700	0.583700	0.929510
O861	O86	0.494600	0.707500	0.864930
O871	O87	0.494100	0.585000	0.906660
C1411	C141	0.393700	0.570800	0.932230
C1421	C142	0.452700	0.535300	0.967600
C1431	C143	0.400500	0.482900	0.029100
H851	H85	0.332500	0.471200	0.048700
C1441	C144	0.350200	0.518700	0.996800
H861	H86	0.249900	0.531200	0.994900
C1451	C145	0.240100	0.840500	0.875400
H871	H87	0.150100	0.817500	0.876300
O881	O88	0.259700	0.083700	0.429510
O891	O89	0.494600	0.207500	0.364930
O901	O90	0.494100	0.085000	0.406660
C1461	C146	0.393700	0.070800	0.432230
C1471	C147	0.452700	0.035300	0.467600
C1481	C148	0.400500	0.982900	0.529100
H881	H88	0.332500	0.971200	0.548700
C1491	C149	0.350200	0.018700	0.496800
H891	H89	0.249900	0.031200	0.494900
C1501	C150	0.240100	0.340500	0.375400
H901	H90	0.150100	0.317500	0.376300
O911	O91	0.759700	0.583700	0.429510
O921	O92	0.994600	0.707500	0.364930
O931	O93	0.994100	0.585000	0.406660
C1511	C151	0.893700	0.570800	0.432230
C1521	C152	0.952700	0.535300	0.467600
C1531	C153	0.900500	0.482900	0.529100
H911	H91	0.832500	0.471200	0.548700
C1541	C154	0.850200	0.518700	0.496800
H921	H92	0.749900	0.531200	0.494900
C1551	C155	0.740100	0.840500	0.375400
H931	H93	0.650100	0.817500	0.376300
O941	O94	0.759700	0.083700	0.929510
O951	O95	0.994600	0.207500	0.864930
O961	O96	0.994100	0.085000	0.906660
C1561	C156	0.893700	0.070800	0.932230
C1571	C157	0.952700	0.035300	0.967600
C1581	C158	0.900500	0.982900	0.029100
H941	H94	0.832500	0.971200	0.048700
C1591	C159	0.850200	0.018700	0.996800
H951	H95	0.749900	0.031200	0.994900
C1601	C160	0.740100	0.340500	0.875400
H961	H96	0.650100	0.317500	0.876300
Sc11	Sc1	0.375000	0.375000	0.614080
Sc21	Sc2	0.375000	0.875000	0.114080
Sc31	Sc3	0.875000	0.375000	0.114080
Sc41	Sc4	0.875000	0.875000	0.614080
Sc51	Sc5	0.375000	0.375000	0.135920
Sc61	Sc6	0.375000	0.875000	0.635920
Sc71	Sc7	0.875000	0.375000	0.635920
Sc81	Sc8	0.875000	0.875000	0.135920
Sc91	Sc9	0.625000	0.625000	0.385920
Sc101	Sc10	0.625000	0.125000	0.885920
Sc111	Sc11	0.125000	0.625000	0.885920
Sc121	Sc12	0.125000	0.125000	0.385920
Sc131	Sc13	0.625000	0.625000	0.864080
Sc141	Sc14	0.625000	0.125000	0.364080
Sc151	Sc15	0.125000	0.625000	0.364080
Sc161	Sc16	0.125000	0.125000	0.864080
C1611	C161	0.625000	0.558700	0.625000
C1621	C162	0.625000	0.485100	0.625000
C1631	C163	0.625000	0.058700	0.125000
C1641	C164	0.625000	0.985100	0.125000
C1651	C165	0.125000	0.191300	0.625000
C1661	C166	0.125000	0.264900	0.625000
C1671	C167	0.125000	0.691300	0.125000
C1681	C168	0.125000	0.764900	0.125000
C1691	C169	0.625000	0.691300	0.625000
C1701	C170	0.625000	0.764900	0.625000
C1711	C171	0.125000	0.558700	0.125000
C1721	C172	0.125000	0.485100	0.125000
C1731	C173	0.125000	0.058700	0.625000
C1741	C174	0.125000	0.985100	0.625000
C1751	C175	0.625000	0.191300	0.125000
C1761	C176	0.625000	0.264900	0.125000
C1771	C177	0.375000	0.441300	0.375000
C1781	C178	0.375000	0.514900	0.375000
C1791	C179	0.375000	0.941300	0.875000
C1801	C180	0.375000	0.014900	0.875000
C1811	C181	0.875000	0.808700	0.375000
C1821	C182	0.875000	0.735100	0.375000
C1831	C183	0.875000	0.308700	0.875000
C1841	C184	0.875000	0.235100	0.875000
C1851	C185	0.875000	0.441300	0.875000
C1861	C186	0.875000	0.514900	0.875000
C1871	C187	0.875000	0.941300	0.375000
C1881	C188	0.875000	0.014900	0.375000
C1891	C189	0.375000	0.808700	0.875000
C1901	C190	0.375000	0.735100	0.875000
C1911	C191	0.375000	0.308700	0.375000
C1921	C192	0.375000	0.235100	0.375000
