data_BAFCAP_clean_PM
_symmetry_space_group_name_H-M	'P1'
_cell_length_a	12.043200
_cell_length_b	15.932200
_cell_length_c	16.642000
_cell_angle_alpha	76.770000
_cell_angle_beta	70.172000
_cell_angle_gamma	85.481000
_symmetry_Int_Tables_number 1

loop_
_symmetry_equiv_pos_as_xyz
'x,y,z'

loop_
_atom_site_label
_atom_site_type_symbol
_atom_site_fract_x
_atom_site_fract_y
_atom_site_fract_z
Zn11	Zn1	0.678070	0.840750	0.362240
C11	C1	0.749800	0.135700	0.137000
H11	H1	0.764300	0.095900	0.182700
C21	C2	0.636700	0.143100	0.126700
C31	C3	0.616900	0.195000	0.058900
C41	C4	0.710100	0.248300	0.999200
H21	H2	0.697200	0.286500	0.951900
C51	C5	0.819000	0.246000	0.008200
C61	C6	0.835400	0.189100	0.077300
C71	C7	0.919800	0.304800	0.943600
H31	H3	0.993200	0.271300	0.934900
C81	C8	0.929600	0.380700	0.988800
C91	C9	0.928200	0.359800	0.082200
C101	C10	0.906400	0.339300	0.855900
C111	C11	0.879100	0.425000	0.824200
H41	H4	0.862200	0.462500	0.862200
C121	C12	0.875500	0.456900	0.743100
C131	C13	0.900600	0.399700	0.685100
C141	C14	0.926100	0.314900	0.713900
H51	H5	0.941800	0.277200	0.676200
C151	C15	0.928800	0.284800	0.797300
C161	C16	0.848000	0.550700	0.711400
H61	H6	0.896600	0.566000	0.649600
C171	C17	0.879700	0.614600	0.754600
H71	H7	0.853700	0.671400	0.731800
H81	H8	0.836600	0.599700	0.816800
C181	C18	0.010800	0.619000	0.741600
H91	H9	0.023100	0.660100	0.771900
H101	H10	0.054200	0.636300	0.680400
H111	H11	0.037600	0.563200	0.764500
C191	C19	0.721200	0.567200	0.713600
C201	C20	0.683800	0.643900	0.670100
C211	C21	0.566000	0.661300	0.672600
H121	H12	0.544700	0.712500	0.641400
C221	C22	0.483900	0.597800	0.724300
C231	C23	0.513300	0.521300	0.770000
C241	C24	0.632700	0.506900	0.765700
H131	H13	0.652800	0.456100	0.798200
C251	C25	0.419900	0.455900	0.830100
H141	H14	0.366900	0.452800	0.797300
C261	C26	0.343900	0.491100	0.910100
C271	C27	0.466700	0.365500	0.849500
C281	C28	0.463400	0.320400	0.933300
H151	H15	0.433500	0.350300	0.978100
C291	C29	0.498800	0.238600	0.956000
C301	C30	0.539600	0.196200	0.888700
C311	C31	0.546300	0.235200	0.803900
H161	H16	0.575600	0.204000	0.760200
C321	C32	0.510700	0.318800	0.782700
C331	C33	0.494500	0.200400	0.046200
H171	H17	0.472400	0.140100	0.055500
C341	C34	0.403300	0.233200	0.119100
H181	H18	0.411300	0.295100	0.109100
H191	H19	0.416300	0.207400	0.174000
C351	C35	0.278600	0.212000	0.125800
H201	H20	0.222200	0.234300	0.172500
H211	H21	0.269700	0.150600	0.137400
H221	H22	0.265400	0.237700	0.071700
C361	C36	0.537100	0.066000	0.272000
H231	H23	0.453800	0.064600	0.306200
H241	H24	0.572600	0.112200	0.284000
C371	C37	0.588900	0.986400	0.302100
C381	C38	0.970700	0.135700	0.153200
H251	H25	0.052700	0.138900	0.146600
H261	H26	0.950000	0.076800	0.160200
H271	H27	0.923500	0.156800	0.203800
C391	C39	0.965000	0.137700	0.779500
H281	H28	0.910000	0.151700	0.747300
H291	H29	0.942200	0.081900	0.818600
C401	C40	0.082000	0.128700	0.717000
C411	C41	0.936100	0.373800	0.543500
H301	H30	0.933700	0.401900	0.486500
H311	H31	0.883200	0.325500	0.566700
H321	H32	0.014900	0.354100	0.539000
C421	C42	0.740600	0.788200	0.602300
H331	H33	0.811900	0.819700	0.591200
H341	H34	0.688100	0.796200	0.658900
C431	C43	0.684300	0.840400	0.537400
C441	C44	0.343400	0.686700	0.683100
H351	H35	0.260700	0.689200	0.690400
H361	H36	0.388400	0.691400	0.622400
H371	H37	0.363500	0.733300	0.703300
C451	C45	0.582300	0.325600	0.634200
H381	H38	0.654100	0.303100	0.645400
H391	H39	0.604600	0.371300	0.582000
C461	C46	0.522700	0.253300	0.616500
C471	C47	0.612400	0.060900	0.845500
H401	H40	0.633800	0.004000	0.870000
H411	H41	0.679400	0.088200	0.798600
H421	H42	0.549300	0.057400	0.823500
O11	O1	0.547300	0.086800	0.182700
O21	O2	0.640500	0.941100	0.249600
O31	O3	0.580900	0.963600	0.379400
O41	O4	0.950500	0.184600	0.080600
O51	O5	0.950300	0.200100	0.832000
O61	O6	0.095600	0.080000	0.670100
O71	O7	0.161700	0.178300	0.713800
O81	O8	0.899200	0.436000	0.602800
O91	O9	0.774200	0.701000	0.617500
O101	O10	0.686700	0.801900	0.483700
O111	O11	0.645300	0.922800	0.539800
O121	O12	0.368800	0.609000	0.731000
O131	O13	0.514300	0.360000	0.702700
O141	O14	0.587000	0.208200	0.569600
H431	H43	0.547400	0.172100	0.563600
O151	O15	0.413300	0.249700	0.647500
O161	O16	0.575400	0.109900	0.910800
Zn21	Zn2	0.321930	0.159250	0.637760
C481	C48	0.250200	0.864300	0.863000
H441	H44	0.235700	0.904100	0.817300
C491	C49	0.363300	0.856900	0.873300
C501	C50	0.383100	0.805000	0.941100
C511	C51	0.289900	0.751700	0.000800
H451	H45	0.302800	0.713500	0.048100
C521	C52	0.181000	0.754000	0.991800
C531	C53	0.164600	0.810900	0.922700
C541	C54	0.080200	0.695200	0.056400
H461	H46	0.006800	0.728700	0.065100
C551	C55	0.070400	0.619300	0.011200
C561	C56	0.071800	0.640200	0.917800
C571	C57	0.093600	0.660700	0.144100
C581	C58	0.120900	0.575000	0.175800
H471	H47	0.137800	0.537500	0.137800
C591	C59	0.124500	0.543100	0.256900
C601	C60	0.099400	0.600300	0.314900
C611	C61	0.073900	0.685100	0.286100
H481	H48	0.058200	0.722800	0.323800
C621	C62	0.071200	0.715200	0.202700
C631	C63	0.152000	0.449300	0.288600
H491	H49	0.103400	0.434000	0.350400
C641	C64	0.120300	0.385400	0.245400
H501	H50	0.146300	0.328600	0.268200
H511	H51	0.163400	0.400300	0.183200
C651	C65	0.989200	0.381000	0.258400
H521	H52	0.976900	0.339900	0.228100
H531	H53	0.945800	0.363700	0.319600
H541	H54	0.962400	0.436800	0.235500
C661	C66	0.278800	0.432800	0.286400
C671	C67	0.316200	0.356100	0.329900
C681	C68	0.434000	0.338700	0.327400
H551	H55	0.455300	0.287500	0.358600
C691	C69	0.516100	0.402200	0.275700
C701	C70	0.486700	0.478700	0.230000
C711	C71	0.367300	0.493100	0.234300
H561	H56	0.347200	0.543900	0.201800
C721	C72	0.580100	0.544100	0.169900
H571	H57	0.633100	0.547200	0.202700
C731	C73	0.656100	0.508900	0.089900
C741	C74	0.533300	0.634500	0.150500
C751	C75	0.536600	0.679600	0.066700
H581	H58	0.566500	0.649700	0.021900
C761	C76	0.501200	0.761400	0.044000
C771	C77	0.460400	0.803800	0.111300
C781	C78	0.453700	0.764800	0.196100
H591	H59	0.424400	0.796000	0.239800
C791	C79	0.489300	0.681200	0.217300
C801	C80	0.505500	0.799600	0.953800
H601	H60	0.527600	0.859900	0.944500
C811	C81	0.596700	0.766800	0.880900
H611	H61	0.588700	0.704900	0.890900
H621	H62	0.583700	0.792600	0.826000
C821	C82	0.721400	0.788000	0.874200
H631	H63	0.777800	0.765700	0.827500
H641	H64	0.730300	0.849400	0.862600
H651	H65	0.734600	0.762300	0.928300
C831	C83	0.462900	0.934000	0.728000
H661	H66	0.546200	0.935400	0.693800
H671	H67	0.427400	0.887800	0.716000
C841	C84	0.411100	0.013600	0.697900
C851	C85	0.029300	0.864300	0.846800
H681	H68	0.947300	0.861100	0.853400
H691	H69	0.050000	0.923200	0.839800
H701	H70	0.076500	0.843200	0.796200
C861	C86	0.035000	0.862300	0.220500
H711	H71	0.090000	0.848300	0.252700
H721	H72	0.057800	0.918100	0.181400
C871	C87	0.918000	0.871300	0.283000
C881	C88	0.063900	0.626200	0.456500
H731	H73	0.066300	0.598100	0.513500
H741	H74	0.116800	0.674500	0.433300
H751	H75	0.985100	0.645900	0.461000
C891	C89	0.259400	0.211800	0.397700
H761	H76	0.188100	0.180300	0.408800
H771	H77	0.311900	0.203800	0.341100
C901	C90	0.315700	0.159600	0.462600
C911	C91	0.656600	0.313300	0.316900
H781	H78	0.739300	0.310800	0.309600
H791	H79	0.611600	0.308600	0.377600
H801	H80	0.636500	0.266700	0.296700
C921	C92	0.417700	0.674400	0.365800
H811	H81	0.345900	0.696900	0.354600
H821	H82	0.395400	0.628700	0.418000
C931	C93	0.477300	0.746700	0.383500
C941	C94	0.387600	0.939100	0.154500
H831	H83	0.366200	0.996000	0.130000
H841	H84	0.320600	0.911800	0.201400
H851	H85	0.450700	0.942600	0.176500
O171	O17	0.452700	0.913200	0.817300
O181	O18	0.359500	0.058900	0.750400
O191	O19	0.419100	0.036400	0.620600
O201	O20	0.049500	0.815400	0.919400
O211	O21	0.049700	0.799900	0.168000
O221	O22	0.904400	0.920000	0.329900
O231	O23	0.838300	0.821700	0.286200
O241	O24	0.100800	0.564000	0.397200
O251	O25	0.225800	0.299000	0.382500
O261	O26	0.313300	0.198100	0.516300
O271	O27	0.354700	0.077200	0.460200
O281	O28	0.631200	0.391000	0.269000
O291	O29	0.485700	0.640000	0.297300
O301	O30	0.413000	0.791800	0.430400
H861	H86	0.452600	0.827900	0.436400
O311	O31	0.586700	0.750300	0.352500
O321	O32	0.424600	0.890100	0.089200
Zn31	Zn3	0.500000	0.000000	0.500000
