data_BAFHAU_clean_PM
_symmetry_space_group_name_H-M	'P1'
_cell_length_a	16.160000
_cell_length_b	16.160000
_cell_length_c	13.460000
_cell_angle_alpha	90.000000
_cell_angle_beta	90.000000
_cell_angle_gamma	90.000000
_symmetry_Int_Tables_number 1

loop_
_symmetry_equiv_pos_as_xyz
'x,y,z'

loop_
_atom_site_label
_atom_site_type_symbol
_atom_site_fract_x
_atom_site_fract_y
_atom_site_fract_z
C11	C1	0.331400	0.032800	0.236300
N11	N1	0.467200	0.168600	0.236300
C21	C2	0.831400	0.532800	0.736300
N21	N2	0.967200	0.668600	0.736300
C31	C3	0.668600	0.967200	0.236300
N31	N3	0.532800	0.831400	0.236300
C41	C4	0.168600	0.467200	0.736300
N41	N4	0.032800	0.331400	0.736300
C51	C5	0.967200	0.331400	0.236300
N51	N5	0.831400	0.467200	0.236300
C61	C6	0.467200	0.831400	0.736300
N61	N6	0.331400	0.967200	0.736300
C71	C7	0.032800	0.668600	0.236300
N71	N7	0.168600	0.532800	0.236300
C81	C8	0.532800	0.168600	0.736300
N81	N8	0.668600	0.032800	0.736300
C91	C9	0.668600	0.032800	0.263700
N91	N9	0.532800	0.168600	0.263700
C101	C10	0.168600	0.532800	0.763700
N101	N10	0.032800	0.668600	0.763700
C111	C11	0.331400	0.967200	0.263700
N111	N11	0.467200	0.831400	0.263700
C121	C12	0.831400	0.467200	0.763700
N121	N12	0.967200	0.331400	0.763700
C131	C13	0.032800	0.331400	0.263700
N131	N13	0.168600	0.467200	0.263700
C141	C14	0.532800	0.831400	0.763700
N141	N14	0.668600	0.967200	0.763700
C151	C15	0.967200	0.668600	0.263700
N151	N15	0.831400	0.532800	0.263700
C161	C16	0.467200	0.168600	0.763700
N161	N16	0.331400	0.032800	0.763700
Cu11	Cu1	0.354240	0.145760	0.188180
C171	C17	0.352900	0.147100	0.042300
C181	C18	0.273500	0.226500	0.238000
Cu21	Cu2	0.645760	0.854240	0.188180
C191	C19	0.647100	0.852900	0.042300
C201	C20	0.726500	0.773500	0.238000
Cu31	Cu3	0.145760	0.354240	0.688180
C211	C21	0.147100	0.352900	0.542300
C221	C22	0.226500	0.273500	0.738000
Cu41	Cu4	0.854240	0.354240	0.188180
C231	C23	0.852900	0.352900	0.042300
C241	C24	0.773500	0.273500	0.238000
Cu51	Cu5	0.145760	0.645760	0.188180
C251	C25	0.147100	0.647100	0.042300
C261	C26	0.226500	0.726500	0.238000
Cu61	Cu6	0.645760	0.145760	0.311820
C271	C27	0.647100	0.147100	0.457700
C281	C28	0.726500	0.226500	0.262000
Cu71	Cu7	0.354240	0.854240	0.311820
C291	C29	0.352900	0.852900	0.457700
C301	C30	0.273500	0.773500	0.262000
Cu81	Cu8	0.145760	0.354240	0.311820
C311	C31	0.147100	0.352900	0.457700
C321	C32	0.226500	0.273500	0.262000
Cu91	Cu9	0.854240	0.645760	0.311820
C331	C33	0.852900	0.647100	0.457700
C341	C34	0.773500	0.726500	0.262000
Cu101	Cu10	0.645760	0.854240	0.811820
C351	C35	0.647100	0.852900	0.957700
C361	C36	0.726500	0.773500	0.762000
Cu111	Cu11	0.354240	0.145760	0.811820
C371	C37	0.352900	0.147100	0.957700
C381	C38	0.273500	0.226500	0.762000
Cu121	Cu12	0.145760	0.645760	0.811820
C391	C39	0.147100	0.647100	0.957700
C401	C40	0.226500	0.726500	0.762000
Cu131	Cu13	0.854240	0.354240	0.811820
C411	C41	0.852900	0.352900	0.957700
C421	C42	0.773500	0.273500	0.762000
Cu141	Cu14	0.354240	0.854240	0.688180
C431	C43	0.352900	0.852900	0.542300
C441	C44	0.273500	0.773500	0.738000
Cu151	Cu15	0.645760	0.145760	0.688180
C451	C45	0.647100	0.147100	0.542300
C461	C46	0.726500	0.226500	0.738000
Cu161	Cu16	0.854240	0.645760	0.688180
C471	C47	0.852900	0.647100	0.542300
C481	C48	0.773500	0.726500	0.738000
