data_BAHGUN04_clean_PM
_symmetry_space_group_name_H-M	'P1'
_cell_length_a	5.006000
_cell_length_b	11.052000
_cell_length_c	12.825100
_cell_angle_alpha	91.683900
_cell_angle_beta	101.254000
_cell_angle_gamma	81.340200
_symmetry_Int_Tables_number 1

loop_
_symmetry_equiv_pos_as_xyz
'x,y,z'

loop_
_atom_site_label
_atom_site_type_symbol
_atom_site_fract_x
_atom_site_fract_y
_atom_site_fract_z
Cu11	Cu1	0.826000	0.304530	0.226750
Cu21	Cu2	0.599250	0.804530	0.773250
H11	H1	0.594600	0.510400	0.872200
H21	H2	0.830500	0.374600	0.001200
H31	H3	0.334000	0.494500	0.193600
H41	H4	0.074100	0.629100	0.068000
H51	H5	0.014300	0.960100	0.487400
H61	H6	0.796500	0.069400	0.338000
H71	H7	0.325300	0.302400	0.389800
H81	H8	0.554700	0.201400	0.543800
H91	H9	0.722400	0.010400	0.127800
H101	H10	0.829300	0.874600	0.998800
H111	H11	0.140400	0.994500	0.806400
H121	H12	0.006100	0.129100	0.932000
H131	H13	0.526900	0.460100	0.512600
H141	H14	0.458500	0.569400	0.662000
H151	H15	0.935500	0.802400	0.610200
H161	H16	0.010900	0.701400	0.456200
C11	C1	0.138180	0.672800	0.868560
C21	C2	0.304080	0.587000	0.954360
C31	C3	0.536480	0.508400	0.936560
C41	C4	0.679150	0.427900	0.015100
C51	C5	0.385850	0.497800	0.128100
C61	C6	0.229100	0.579400	0.053000
C71	C7	0.462530	0.998800	0.634260
C81	C8	0.309020	0.068100	0.534240
C91	C9	0.079920	0.029700	0.469840
C101	C10	0.950970	0.095700	0.379740
C111	C11	0.261890	0.233600	0.410380
C121	C12	0.401800	0.173000	0.503000
C131	C13	0.269620	0.172800	0.131440
C141	C14	0.349720	0.087000	0.045640
C151	C15	0.599920	0.008400	0.063440
C161	C16	0.664050	0.927900	0.984900
C171	C17	0.257750	0.997800	0.871900
C181	C18	0.176100	0.079400	0.947000
C191	C19	0.828270	0.498800	0.365740
C201	C20	0.774780	0.568100	0.465760
C211	C21	0.610080	0.529700	0.530160
C221	C22	0.571230	0.595700	0.620260
C231	C23	0.851510	0.733600	0.589620
C241	C24	0.898800	0.673000	0.497000
N11	N1	0.610030	0.422700	0.110860
N21	N2	0.036950	0.196400	0.348900
N31	N3	0.499170	0.922700	0.889140
N41	N4	0.688050	0.696400	0.651100
O11	O1	0.889730	0.709900	0.878060
O21	O2	0.248270	0.701200	0.794940
O31	O3	0.355080	0.909500	0.658360
O41	O4	0.682560	0.030500	0.682320
O51	O5	0.011670	0.209900	0.121940
O61	O6	0.453330	0.201200	0.205060
O71	O7	0.696720	0.409500	0.341640
O81	O8	0.000240	0.530500	0.317680
