data_BAHGUN03_clean_PM
_symmetry_space_group_name_H-M	'P1'
_cell_length_a	4.981000
_cell_length_b	11.019000
_cell_length_c	12.778500
_cell_angle_alpha	91.664300
_cell_angle_beta	101.239000
_cell_angle_gamma	81.429900
_symmetry_Int_Tables_number 1

loop_
_symmetry_equiv_pos_as_xyz
'x,y,z'

loop_
_atom_site_label
_atom_site_type_symbol
_atom_site_fract_x
_atom_site_fract_y
_atom_site_fract_z
Cu11	Cu1	0.826070	0.304500	0.226780
Cu21	Cu2	0.599290	0.804500	0.773220
H11	H1	0.593800	0.511100	0.872000
H21	H2	0.830900	0.374300	0.000800
H31	H3	0.333900	0.494500	0.194200
H41	H4	0.069800	0.627500	0.067000
H51	H5	0.016000	0.960100	0.487400
H61	H6	0.797900	0.069600	0.338800
H71	H7	0.326700	0.303000	0.390400
H81	H8	0.555400	0.202000	0.544800
H91	H9	0.721800	0.011100	0.128000
H101	H10	0.830100	0.874300	0.999200
H111	H11	0.139700	0.994500	0.805800
H121	H12	0.002800	0.127500	0.933000
H131	H13	0.528600	0.460100	0.512600
H141	H14	0.459100	0.569600	0.661200
H151	H15	0.936300	0.803000	0.609600
H161	H16	0.010600	0.702000	0.455200
C11	C1	0.137070	0.673300	0.867940
C21	C2	0.303720	0.586600	0.954240
C31	C3	0.535320	0.508700	0.936640
C41	C4	0.678960	0.427500	0.014920
C51	C5	0.385410	0.497100	0.128220
C61	C6	0.227050	0.578400	0.052500
C71	C7	0.462310	0.000200	0.634220
C81	C8	0.308180	0.069000	0.534360
C91	C9	0.081270	0.030200	0.470140
C101	C10	0.953150	0.096200	0.380500
C111	C11	0.262780	0.234000	0.410960
C121	C12	0.401900	0.173600	0.503600
C131	C13	0.269130	0.173300	0.132060
C141	C14	0.349480	0.086600	0.045760
C151	C15	0.598680	0.008700	0.063360
C161	C16	0.664040	0.927500	0.985080
C171	C17	0.257190	0.997100	0.871780
C181	C18	0.174550	0.078400	0.947500
C191	C19	0.828090	0.500200	0.365780
C201	C20	0.773820	0.569000	0.465640
C211	C21	0.611130	0.530200	0.529860
C221	C22	0.572650	0.596200	0.619500
C231	C23	0.851820	0.734000	0.589040
C241	C24	0.898300	0.673600	0.496400
N11	N1	0.609300	0.421900	0.111200
N21	N2	0.037610	0.196600	0.349220
N31	N3	0.498100	0.921900	0.888800
N41	N4	0.688390	0.696600	0.650780
O11	O1	0.889290	0.710100	0.878380
O21	O2	0.247540	0.701200	0.795080
O31	O3	0.356010	0.909700	0.658220
O41	O4	0.682160	0.030900	0.682520
O51	O5	0.010910	0.210100	0.121620
O61	O6	0.452460	0.201200	0.204920
O71	O7	0.697790	0.409700	0.341780
O81	O8	0.999640	0.530900	0.317480
