data_BAKGIF_manual_PM
_symmetry_space_group_name_H-M	'P1'
_cell_length_a	7.542300
_cell_length_b	12.538700
_cell_length_c	13.688700
_cell_angle_alpha	90.000000
_cell_angle_beta	105.991000
_cell_angle_gamma	90.000000
_symmetry_Int_Tables_number 1

loop_
_symmetry_equiv_pos_as_xyz
'x,y,z'

loop_
_atom_site_label
_atom_site_type_symbol
_atom_site_fract_x
_atom_site_fract_y
_atom_site_fract_z
Ni11	Ni1	0.500000	0.500000	0.500000
Ni21	Ni2	0.000000	0.500000	0.500000
H11	H1	0.542900	0.735000	0.606600
H21	H2	0.570000	0.912000	0.638000
H31	H3	0.457100	0.735000	0.393400
H41	H4	0.781500	0.580700	0.091200
H51	H5	0.430000	0.912000	0.362000
H61	H6	0.063700	0.265000	0.606600
H71	H7	0.068000	0.088000	0.638000
H81	H8	0.936300	0.265000	0.393400
H91	H9	0.309700	0.419300	0.091200
H101	H10	0.932000	0.088000	0.362000
H111	H11	0.457100	0.265000	0.393400
H121	H12	0.430000	0.088000	0.362000
H131	H13	0.542900	0.265000	0.606600
H141	H14	0.218500	0.419300	0.908800
H151	H15	0.570000	0.088000	0.638000
H161	H16	0.936300	0.735000	0.393400
H171	H17	0.932000	0.912000	0.362000
H181	H18	0.063700	0.735000	0.606600
H191	H19	0.690300	0.580700	0.908800
H201	H20	0.068000	0.912000	0.638000
C11	C1	0.660130	0.945100	0.637460
C21	C2	0.668200	0.541200	0.053600
C31	C3	0.339870	0.945100	0.362540
C41	C4	0.977330	0.054900	0.637460
C51	C5	0.385400	0.458800	0.053600
C61	C6	0.022670	0.054900	0.362540
C71	C7	0.339870	0.054900	0.362540
C81	C8	0.331800	0.458800	0.946400
C91	C9	0.660130	0.054900	0.637460
C101	C10	0.022670	0.945100	0.362540
C111	C11	0.614600	0.541200	0.946400
C121	C12	0.977330	0.945100	0.637460
C131	C13	0.391280	0.500000	0.782560
C141	C14	0.447300	0.500000	0.894600
C151	C15	0.608720	0.500000	0.217440
C161	C16	0.552700	0.500000	0.105400
C171	C17	0.807710	0.773300	0.615420
C181	C18	0.817040	0.887900	0.634080
C191	C19	0.192290	0.773300	0.384580
C201	C20	0.182960	0.887900	0.365920
C211	C21	0.807710	0.226700	0.615420
C221	C22	0.817040	0.112100	0.634080
C231	C23	0.192290	0.226700	0.384580
C241	C24	0.182960	0.112100	0.365920
N11	N1	0.696080	0.619460	0.567960
N21	N2	0.652460	0.714530	0.598720
N31	N3	0.303920	0.619460	0.432040
N41	N4	0.347540	0.714530	0.401280
N51	N5	0.871880	0.380540	0.567960
N61	N6	0.946260	0.285470	0.598720
N71	N7	0.128120	0.380540	0.432040
N81	N8	0.053740	0.285470	0.401280
N91	N9	0.303920	0.380540	0.432040
N101	N10	0.347540	0.285470	0.401280
N111	N11	0.696080	0.380540	0.567960
N121	N12	0.652460	0.285470	0.598720
N131	N13	0.128120	0.619460	0.432040
N141	N14	0.053740	0.714530	0.401280
N151	N15	0.871880	0.619460	0.567960
N161	N16	0.946260	0.714530	0.598720
N171	N17	0.402940	0.500000	0.629480
N181	N18	0.509840	0.500000	0.725080
N191	N19	0.597060	0.500000	0.370520
N201	N20	0.490160	0.500000	0.274920
N211	N21	0.226540	0.500000	0.629480
N221	N22	0.215240	0.500000	0.725080
N231	N23	0.773460	0.500000	0.370520
N241	N24	0.784760	0.500000	0.274920
