data_BAKJEE_clean_PM
_symmetry_space_group_name_H-M	'P1'
_cell_length_a	9.287000
_cell_length_b	16.667000
_cell_length_c	28.242000
_cell_angle_alpha	90.000000
_cell_angle_beta	90.000000
_cell_angle_gamma	97.030000
_symmetry_Int_Tables_number 1

loop_
_symmetry_equiv_pos_as_xyz
'x,y,z'

loop_
_atom_site_label
_atom_site_type_symbol
_atom_site_fract_x
_atom_site_fract_y
_atom_site_fract_z
Co11	Co1	0.807220	0.719790	0.695220
Co21	Co2	0.755450	0.730610	0.575430
Co31	Co3	0.192780	0.780210	0.195220
Co41	Co4	0.244550	0.769390	0.075430
Co51	Co5	0.192780	0.280210	0.304780
Co61	Co6	0.244550	0.269390	0.424570
Co71	Co7	0.807220	0.219790	0.804780
Co81	Co8	0.755450	0.230610	0.924570
H11	H1	0.049300	0.300000	0.510100
H21	H2	0.939000	0.236700	0.575800
H31	H3	0.134000	0.040800	0.542800
H41	H4	0.234700	0.109400	0.477300
H51	H5	0.951800	0.188500	0.650600
H61	H6	0.808400	0.980900	0.718600
H71	H7	0.935500	0.975300	0.581500
H81	H8	0.417900	0.325100	0.514500
H91	H9	0.430200	0.425200	0.571500
H101	H10	0.190500	0.550800	0.485400
H111	H11	0.190000	0.448700	0.430400
H121	H12	0.511500	0.562700	0.595700
H131	H13	0.284300	0.710800	0.671200
H141	H14	0.095700	0.584300	0.560400
H151	H15	0.950700	0.200000	0.010100
H161	H16	0.061000	0.263300	0.075800
H171	H17	0.866000	0.459200	0.042800
H181	H18	0.765300	0.390600	0.977300
H191	H19	0.048200	0.311500	0.150600
H201	H20	0.191600	0.519100	0.218600
H211	H21	0.064500	0.524700	0.081500
H221	H22	0.582100	0.174900	0.014500
H231	H23	0.569800	0.074800	0.071500
H241	H24	0.809500	0.949200	0.985400
H251	H25	0.810000	0.051300	0.930400
H261	H26	0.488500	0.937300	0.095700
H271	H27	0.715700	0.789200	0.171200
H281	H28	0.904300	0.915700	0.060400
H291	H29	0.950700	0.700000	0.489900
H301	H30	0.061000	0.763300	0.424200
H311	H31	0.866000	0.959200	0.457200
H321	H32	0.765300	0.890600	0.522700
H331	H33	0.048200	0.811500	0.349400
H341	H34	0.191600	0.019100	0.281400
H351	H35	0.064500	0.024700	0.418500
H361	H36	0.582100	0.674900	0.485500
H371	H37	0.569800	0.574800	0.428500
H381	H38	0.809500	0.449200	0.514600
H391	H39	0.810000	0.551300	0.569600
H401	H40	0.488500	0.437300	0.404300
H411	H41	0.715700	0.289200	0.328800
H421	H42	0.904300	0.415700	0.439600
H431	H43	0.049300	0.800000	0.989900
H441	H44	0.939000	0.736700	0.924200
H451	H45	0.134000	0.540800	0.957200
H461	H46	0.234700	0.609400	0.022700
H471	H47	0.951800	0.688500	0.849400
H481	H48	0.808400	0.480900	0.781400
H491	H49	0.935500	0.475300	0.918500
H501	H50	0.417900	0.825100	0.985500
H511	H51	0.430200	0.925200	0.928500
H521	H52	0.190500	0.050800	0.014600
H531	H53	0.190000	0.948700	0.069600
H541	H54	0.511500	0.062700	0.904300
H551	H55	0.284300	0.210800	0.828800
H561	H56	0.095700	0.084300	0.939600
C11	C1	0.066300	0.246100	0.516720
C21	C2	0.000300	0.209000	0.556440
C31	C3	0.025300	0.131000	0.567370
C41	C4	0.114200	0.094500	0.536860
C51	C5	0.174400	0.136100	0.497690
C61	C6	0.959300	0.088500	0.609770
C71	C7	0.932400	0.131200	0.650530
C81	C8	0.877400	0.091200	0.691300
C91	C9	0.844700	0.008200	0.690770
C101	C10	0.864300	0.963500	0.649630
C111	C11	0.921700	0.004900	0.609600
C121	C12	0.848900	0.138000	0.734720
C131	C13	0.825100	0.874100	0.648560
C141	C14	0.369900	0.371300	0.508830
C151	C15	0.377200	0.430700	0.543100
C161	C16	0.306600	0.498400	0.535900
C171	C17	0.237100	0.504500	0.492450
C181	C18	0.236600	0.443000	0.459960
C191	C19	0.302400	0.561000	0.572990
C201	C20	0.424000	0.585600	0.600940
C211	C21	0.418300	0.643000	0.636220
C221	C22	0.290100	0.674500	0.645510
C231	C23	0.170000	0.652600	0.616900
C241	C24	0.177200	0.597400	0.580480
C251	C25	0.555000	0.673700	0.662350
C261	C26	0.028500	0.687300	0.625010
C271	C27	0.933700	0.253900	0.016720
C281	C28	0.999700	0.291000	0.056440
C291	C29	0.974700	0.369000	0.067370
C301	C30	0.885800	0.405500	0.036860
C311	C31	0.825600	0.363900	0.997690
C321	C32	0.040700	0.411500	0.109770
C331	C33	0.067600	0.368800	0.150530
C341	C34	0.122600	0.408800	0.191300
C351	C35	0.155300	0.491800	0.190770
C361	C36	0.135700	0.536500	0.149630
C371	C37	0.078300	0.495100	0.109600
C381	C38	0.151100	0.362000	0.234720
C391	C39	0.174900	0.625900	0.148560
C401	C40	0.630100	0.128700	0.008830
C411	C41	0.622800	0.069300	0.043100
C421	C42	0.693400	0.001600	0.035900
C431	C43	0.762900	0.995500	0.992450
C441	C44	0.763400	0.057000	0.959960
C451	C45	0.697600	0.939000	0.072990
C461	C46	0.576000	0.914400	0.100940
C471	C47	0.581700	0.857000	0.136220
C481	C48	0.709900	0.825500	0.145510
C491	C49	0.830000	0.847400	0.116900
C501	C50	0.822800	0.902600	0.080480
C511	C51	0.445000	0.826300	0.162350
C521	C52	0.971500	0.812700	0.125010
C531	C53	0.933700	0.753900	0.483280
C541	C54	0.999700	0.791000	0.443560
C551	C55	0.974700	0.869000	0.432630
C561	C56	0.885800	0.905500	0.463140
C571	C57	0.825600	0.863900	0.502310
C581	C58	0.040700	0.911500	0.390230
C591	C59	0.067600	0.868800	0.349470
C601	C60	0.122600	0.908800	0.308700
C611	C61	0.155300	0.991800	0.309230
C621	C62	0.135700	0.036500	0.350370
C631	C63	0.078300	0.995100	0.390400
C641	C64	0.151100	0.862000	0.265280
C651	C65	0.174900	0.125900	0.351440
C661	C66	0.630100	0.628700	0.491170
C671	C67	0.622800	0.569300	0.456900
C681	C68	0.693400	0.501600	0.464100
C691	C69	0.762900	0.495500	0.507550
C701	C70	0.763400	0.557000	0.540040
C711	C71	0.697600	0.439000	0.427010
C721	C72	0.576000	0.414400	0.399060
C731	C73	0.581700	0.357000	0.363780
C741	C74	0.709900	0.325500	0.354490
C751	C75	0.830000	0.347400	0.383100
C761	C76	0.822800	0.402600	0.419520
C771	C77	0.445000	0.326300	0.337650
C781	C78	0.971500	0.312700	0.374990
C791	C79	0.066300	0.746100	0.983280
C801	C80	0.000300	0.709000	0.943560
C811	C81	0.025300	0.631000	0.932630
C821	C82	0.114200	0.594500	0.963140
C831	C83	0.174400	0.636100	0.002310
C841	C84	0.959300	0.588500	0.890230
C851	C85	0.932400	0.631200	0.849470
C861	C86	0.877400	0.591200	0.808700
C871	C87	0.844700	0.508200	0.809230
C881	C88	0.864300	0.463500	0.850370
C891	C89	0.921700	0.504900	0.890400
C901	C90	0.848900	0.638000	0.765280
C911	C91	0.825100	0.374100	0.851440
C921	C92	0.369900	0.871300	0.991170
C931	C93	0.377200	0.930700	0.956900
C941	C94	0.306600	0.998400	0.964100
C951	C95	0.237100	0.004500	0.007550
C961	C96	0.236600	0.943000	0.040040
C971	C97	0.302400	0.061000	0.927010
C981	C98	0.424000	0.085600	0.899060
C991	C99	0.418300	0.143000	0.863780
C1001	C100	0.290100	0.174500	0.854490
C1011	C101	0.170000	0.152600	0.883100
C1021	C102	0.177200	0.097400	0.919520
C1031	C103	0.555000	0.173700	0.837650
C1041	C104	0.028500	0.187300	0.874990
N11	N1	0.152200	0.211070	0.487170
N21	N2	0.298100	0.375730	0.467630
N31	N3	0.847800	0.288930	0.987170
N41	N4	0.701900	0.124270	0.967630
N51	N5	0.847800	0.788930	0.512830
N61	N6	0.701900	0.624270	0.532370
N71	N7	0.152200	0.711070	0.012830
N81	N8	0.298100	0.875730	0.032370
O11	O1	0.805400	0.838740	0.687940
O21	O2	0.815000	0.841060	0.608770
O31	O3	0.811400	0.101050	0.772090
O41	O4	0.864500	0.214390	0.733310
O51	O5	0.675500	0.673920	0.640010
O61	O6	0.552600	0.699160	0.703520
O71	O7	0.005800	0.712840	0.666490
O81	O8	0.947100	0.687760	0.589820
O91	O9	0.194600	0.661260	0.187940
O101	O10	0.185000	0.658940	0.108770
O111	O11	0.188600	0.398950	0.272090
O121	O12	0.135500	0.285610	0.233310
O131	O13	0.324500	0.826080	0.140010
O141	O14	0.447400	0.800840	0.203520
O151	O15	0.994200	0.787160	0.166490
O161	O16	0.052900	0.812240	0.089820
O171	O17	0.194600	0.161260	0.312060
O181	O18	0.185000	0.158940	0.391230
O191	O19	0.188600	0.898950	0.227910
O201	O20	0.135500	0.785610	0.266690
O211	O21	0.324500	0.326080	0.359990
O221	O22	0.447400	0.300840	0.296480
O231	O23	0.994200	0.287160	0.333510
O241	O24	0.052900	0.312240	0.410180
O251	O25	0.805400	0.338740	0.812060
O261	O26	0.815000	0.341060	0.891230
O271	O27	0.811400	0.601050	0.727910
O281	O28	0.864500	0.714390	0.766690
O291	O29	0.675500	0.173920	0.859990
O301	O30	0.552600	0.199160	0.796480
O311	O31	0.005800	0.212840	0.833510
O321	O32	0.947100	0.187760	0.910180
