data_BAKLIK_clean_PM
_symmetry_space_group_name_H-M	'P1'
_cell_length_a	11.994000
_cell_length_b	16.350900
_cell_length_c	16.350900
_cell_angle_alpha	65.775000
_cell_angle_beta	75.847000
_cell_angle_gamma	104.153000
_symmetry_Int_Tables_number 1

loop_
_symmetry_equiv_pos_as_xyz
'x,y,z'

loop_
_atom_site_label
_atom_site_type_symbol
_atom_site_fract_x
_atom_site_fract_y
_atom_site_fract_z
Mn11	Mn1	0.500000	0.500000	0.000000
Mn21	Mn2	0.500000	0.000000	0.500000
Mn31	Mn3	0.000000	0.500000	0.500000
H11	H1	0.919600	0.625200	0.747200
H21	H2	0.675600	0.371000	0.721300
H31	H3	0.416800	0.331600	0.951600
H41	H4	0.430500	0.183800	0.923500
H51	H5	0.354500	0.239200	0.874200
H61	H6	0.476100	0.265000	0.723000
H71	H7	0.415800	0.153100	0.798300
H81	H8	0.556200	0.213200	0.770200
H91	H9	0.991900	0.830700	0.678200
H101	H10	0.949300	0.855900	0.760400
H111	H11	0.850600	0.809200	0.728100
H121	H12	0.046000	0.755000	0.856900
H131	H13	0.993100	0.564200	0.886000
H141	H14	0.931800	0.585500	0.967300
H151	H15	0.076100	0.611600	0.928000
H161	H16	0.207400	0.733400	0.760600
H171	H17	0.164200	0.810900	0.697100
H181	H18	0.118900	0.705800	0.711400
H191	H19	0.666800	0.747200	0.627600
H201	H20	0.396900	0.721300	0.907700
H211	H21	0.368400	0.951600	0.716800
H221	H22	0.354000	0.923500	0.892700
H231	H23	0.228700	0.874200	0.886600
H241	H24	0.199100	0.723000	0.012000
H251	H25	0.214100	0.798300	0.048600
H261	H26	0.326400	0.770200	0.016600
H271	H27	0.670100	0.678200	0.491100
H281	H28	0.709700	0.760400	0.383700
H291	H29	0.578700	0.728100	0.462700
H301	H30	0.902900	0.856900	0.388100
H311	H31	0.879100	0.886000	0.549800
H321	H32	0.899100	0.967300	0.447200
H331	H33	0.004100	0.928000	0.460400
H341	H34	0.968000	0.760600	0.506000
H351	H35	0.861300	0.697100	0.492000
H361	H36	0.830300	0.711400	0.582800
H371	H37	0.294400	0.627600	0.625200
H381	H38	0.304600	0.907700	0.371000
H391	H39	0.085200	0.716800	0.331600
H401	H40	0.246700	0.892700	0.183800
H411	H41	0.115300	0.886600	0.239200
H421	H42	0.211100	0.012000	0.265000
H431	H43	0.262700	0.048600	0.153100
H441	H44	0.343000	0.016600	0.213200
H451	H45	0.161200	0.491100	0.830700
H461	H46	0.093400	0.383700	0.855900
H471	H47	0.041400	0.462700	0.809200
H481	H48	0.291000	0.388100	0.755000
H491	H49	0.428900	0.549800	0.564200
H501	H50	0.346300	0.447200	0.585500
H511	H51	0.464500	0.460400	0.611600
H521	H52	0.474000	0.506000	0.733400
H531	H53	0.353300	0.492000	0.810900
H541	H54	0.413100	0.582800	0.705800
H551	H55	0.080400	0.374800	0.252800
H561	H56	0.324400	0.629000	0.278700
H571	H57	0.583200	0.668400	0.048400
H581	H58	0.569500	0.816200	0.076500
H591	H59	0.645500	0.760800	0.125800
H601	H60	0.523900	0.735000	0.277000
H611	H61	0.584200	0.846900	0.201700
H621	H62	0.443800	0.786800	0.229800
H631	H63	0.008100	0.169300	0.321800
H641	H64	0.050700	0.144100	0.239600
H651	H65	0.149400	0.190800	0.271900
H661	H66	0.954000	0.245000	0.143100
H671	H67	0.006900	0.435800	0.114000
H681	H68	0.068200	0.414500	0.032700
H691	H69	0.923900	0.388400	0.072000
H701	H70	0.792600	0.266600	0.239400
H711	H71	0.835800	0.189100	0.302900
H721	H72	0.881100	0.294200	0.288600
H731	H73	0.333200	0.252800	0.372400
H741	H74	0.603100	0.278700	0.092300
H751	H75	0.631600	0.048400	0.283200
H761	H76	0.646000	0.076500	0.107300
H771	H77	0.771300	0.125800	0.113400
H781	H78	0.800900	0.277000	0.988000
H791	H79	0.785900	0.201700	0.951400
H801	H80	0.673600	0.229800	0.983400
H811	H81	0.329900	0.321800	0.508900
H821	H82	0.290300	0.239600	0.616300
H831	H83	0.421300	0.271900	0.537300
H841	H84	0.097100	0.143100	0.611900
H851	H85	0.120900	0.114000	0.450200
H861	H86	0.100900	0.032700	0.552800
H871	H87	0.995900	0.072000	0.539600
H881	H88	0.032000	0.239400	0.494000
H891	H89	0.138700	0.302900	0.508000
H901	H90	0.169700	0.288600	0.417200
H911	H91	0.705600	0.372400	0.374800
H921	H92	0.695400	0.092300	0.629000
H931	H93	0.914800	0.283200	0.668400
H941	H94	0.753300	0.107300	0.816200
H951	H95	0.884700	0.113400	0.760800
H961	H96	0.788900	0.988000	0.735000
H971	H97	0.737300	0.951400	0.846900
H981	H98	0.657000	0.983400	0.786800
H991	H99	0.838800	0.508900	0.169300
H1001	H100	0.906600	0.616300	0.144100
H1011	H101	0.958600	0.537300	0.190800
H1021	H102	0.709000	0.611900	0.245000
H1031	H103	0.571100	0.450200	0.435800
H1041	H104	0.653700	0.552800	0.414500
H1051	H105	0.535500	0.539600	0.388400
H1061	H106	0.526000	0.494000	0.266600
H1071	H107	0.646700	0.508000	0.189100
H1081	H108	0.586900	0.417200	0.294200
C11	C1	0.856000	0.520200	0.673400
C21	C2	0.687900	0.492800	0.832300
C31	C3	0.731800	0.469200	0.761000
C41	C4	0.649700	0.388600	0.767700
C51	C5	0.531400	0.332500	0.839700
C61	C6	0.497300	0.365300	0.903700
C71	C7	0.437000	0.237000	0.863000
C81	C8	0.474600	0.214900	0.781200
C91	C9	0.756400	0.570400	0.846600
C101	C10	0.906000	0.708400	0.815400
C111	C11	0.795400	0.657700	0.913500
C121	C12	0.926700	0.810500	0.738400
C131	C13	0.026300	0.710200	0.832200
C141	C14	0.004000	0.607000	0.912000
C151	C15	0.139800	0.743200	0.741900
C161	C16	0.529400	0.673400	0.806400
C171	C17	0.520200	0.832300	0.674900
C181	C18	0.492800	0.761000	0.769800
C191	C19	0.417400	0.767700	0.843700
C201	C20	0.371100	0.839700	0.827800
C211	C21	0.401000	0.903700	0.731000
C221	C22	0.300000	0.863000	0.900000
C231	C23	0.255800	0.781200	0.003900
C241	C24	0.603000	0.846600	0.583000
C251	C25	0.721400	0.815400	0.476200
C261	C26	0.708900	0.913500	0.428800
C271	C27	0.665100	0.738400	0.451100
C281	C28	0.858500	0.832200	0.457600
C291	C29	0.916000	0.912000	0.481000
C301	C30	0.881700	0.741900	0.514900
C311	C31	0.335800	0.806400	0.520200
C321	C32	0.195100	0.674900	0.492800
C331	C33	0.262600	0.769800	0.469200
C341	C34	0.261100	0.843700	0.388600
C351	C35	0.198900	0.827800	0.332500
C361	C36	0.132000	0.731000	0.365300
C371	C37	0.200000	0.900000	0.237000
C381	C38	0.259700	0.003900	0.214900
C391	C39	0.186000	0.583000	0.570400
C401	C40	0.197600	0.476200	0.708400
C411	C41	0.137700	0.428800	0.657700
C421	C42	0.116200	0.451100	0.810500
C431	C43	0.316100	0.457600	0.710200
C441	C44	0.397000	0.481000	0.607000
C451	C45	0.396600	0.514900	0.743200
C461	C46	0.144000	0.479800	0.326600
C471	C47	0.312100	0.507200	0.167700
C481	C48	0.268200	0.530800	0.239000
C491	C49	0.350300	0.611400	0.232300
C501	C50	0.468600	0.667500	0.160300
C511	C51	0.502700	0.634700	0.096300
C521	C52	0.563000	0.763000	0.137000
C531	C53	0.525400	0.785100	0.218800
C541	C54	0.243600	0.429600	0.153400
C551	C55	0.094000	0.291600	0.184600
C561	C56	0.204600	0.342300	0.086500
C571	C57	0.073300	0.189500	0.261600
C581	C58	0.973700	0.289800	0.167800
C591	C59	0.996000	0.393000	0.088000
C601	C60	0.860200	0.256800	0.258100
C611	C61	0.470600	0.326600	0.193600
C621	C62	0.479800	0.167700	0.325100
C631	C63	0.507200	0.239000	0.230200
C641	C64	0.582600	0.232300	0.156300
C651	C65	0.628900	0.160300	0.172200
C661	C66	0.599000	0.096300	0.269000
C671	C67	0.700000	0.137000	0.100000
C681	C68	0.744200	0.218800	0.996100
C691	C69	0.397000	0.153400	0.417000
C701	C70	0.278600	0.184600	0.523800
C711	C71	0.291100	0.086500	0.571200
C721	C72	0.334900	0.261600	0.548900
C731	C73	0.141500	0.167800	0.542400
C741	C74	0.084000	0.088000	0.519000
C751	C75	0.118300	0.258100	0.485100
C761	C76	0.664200	0.193600	0.479800
C771	C77	0.804900	0.325100	0.507200
C781	C78	0.737400	0.230200	0.530800
C791	C79	0.738900	0.156300	0.611400
C801	C80	0.801100	0.172200	0.667500
C811	C81	0.868000	0.269000	0.634700
C821	C82	0.800000	0.100000	0.763000
C831	C83	0.740300	0.996100	0.785100
C841	C84	0.814000	0.417000	0.429600
C851	C85	0.802400	0.523800	0.291600
C861	C86	0.862300	0.571200	0.342300
C871	C87	0.883800	0.548900	0.189500
C881	C88	0.683900	0.542400	0.289800
C891	C89	0.603000	0.519000	0.393000
C901	C90	0.603400	0.485100	0.256800
N11	N1	0.571840	0.441680	0.901060
N21	N2	0.702820	0.582220	0.921060
N31	N3	0.870700	0.630100	0.791700
N41	N4	0.472900	0.901060	0.657260
N51	N5	0.623880	0.921060	0.496720
N61	N6	0.662400	0.791700	0.578200
N71	N7	0.130160	0.657260	0.441680
N81	N8	0.120600	0.496720	0.582220
N91	N9	0.240600	0.578200	0.630100
N101	N10	0.428160	0.558320	0.098940
N111	N11	0.297180	0.417780	0.078940
N121	N12	0.129300	0.369900	0.208300
N131	N13	0.527100	0.098940	0.342740
N141	N14	0.376120	0.078940	0.503280
N151	N15	0.337600	0.208300	0.421800
N161	N16	0.869840	0.342740	0.558320
N171	N17	0.879400	0.503280	0.417780
N181	N18	0.759400	0.421800	0.369900
O11	O1	0.858100	0.495360	0.612260
O21	O2	0.947080	0.580900	0.668760
O31	O3	0.782300	0.689200	0.969600
O41	O4	0.470360	0.612260	0.892380
O51	O5	0.615840	0.668760	0.750340
O61	O6	0.751900	0.969600	0.341200
O71	O7	0.362740	0.892380	0.495360
O81	O8	0.366180	0.750340	0.580900
O91	O9	0.093100	0.341200	0.689200
O101	O10	0.141900	0.504640	0.387740
O111	O11	0.052920	0.419100	0.331240
O121	O12	0.217700	0.310800	0.030400
O131	O13	0.529640	0.387740	0.107620
O141	O14	0.384160	0.331240	0.249660
O151	O15	0.248100	0.030400	0.658800
O161	O16	0.637260	0.107620	0.504640
O171	O17	0.633820	0.249660	0.419100
O181	O18	0.906900	0.658800	0.310800
