data_BALMUW01_clean_PM
_symmetry_space_group_name_H-M	'P1'
_cell_length_a	6.146000
_cell_length_b	8.692000
_cell_length_c	9.216000
_cell_angle_alpha	115.500000
_cell_angle_beta	95.094000
_cell_angle_gamma	84.508000
_symmetry_Int_Tables_number 1

loop_
_symmetry_equiv_pos_as_xyz
'x,y,z'

loop_
_atom_site_label
_atom_site_type_symbol
_atom_site_fract_x
_atom_site_fract_y
_atom_site_fract_z
Ba11	Ba1	0.721800	0.955800	0.790700
Ba21	Ba2	0.786700	0.363500	0.581500
Ba31	Ba3	0.278200	0.044200	0.209300
Ba41	Ba4	0.213300	0.636500	0.418500
C11	C1	0.176000	0.076000	0.677000
C21	C2	0.325000	0.180000	0.627000
C31	C3	0.136000	0.724000	0.820000
C41	C4	0.385000	0.713000	0.817000
C51	C5	0.824000	0.924000	0.323000
C61	C6	0.675000	0.820000	0.373000
C71	C7	0.864000	0.276000	0.180000
C81	C8	0.615000	0.287000	0.183000
O11	O1	0.981000	0.125000	0.686000
O21	O2	0.267000	0.953000	0.696000
O31	O3	0.238000	0.253000	0.540000
O41	O4	0.524000	0.181000	0.673000
O51	O5	0.029000	0.644000	0.689000
O61	O6	0.050000	0.815000	0.950000
O71	O7	0.475000	0.630000	0.685000
O81	O8	0.486000	0.801000	0.947000
O91	O9	0.019000	0.875000	0.314000
O101	O10	0.733000	0.047000	0.304000
O111	O11	0.762000	0.747000	0.460000
O121	O12	0.476000	0.819000	0.327000
O131	O13	0.971000	0.356000	0.311000
O141	O14	0.950000	0.185000	0.050000
O151	O15	0.525000	0.370000	0.315000
O161	O16	0.514000	0.199000	0.053000
