data_BANMAG_clean_PM
_symmetry_space_group_name_H-M	'P1'
_cell_length_a	15.084100
_cell_length_b	15.084100
_cell_length_c	15.427600
_cell_angle_alpha	90.000000
_cell_angle_beta	90.000000
_cell_angle_gamma	120.000000
_symmetry_Int_Tables_number 1

loop_
_symmetry_equiv_pos_as_xyz
'x,y,z'

loop_
_atom_site_label
_atom_site_type_symbol
_atom_site_fract_x
_atom_site_fract_y
_atom_site_fract_z
Nd11	Nd1	0.333330	0.666660	0.750000
Nd21	Nd2	0.666670	0.333340	0.750000
Nd31	Nd3	0.666670	0.333340	0.250000
Nd41	Nd4	0.333330	0.666660	0.250000
Co11	Co1	0.500000	0.500000	0.000000
Co21	Co2	0.000000	0.500000	0.000000
Co31	Co3	0.500000	0.000000	0.000000
Co41	Co4	0.000000	0.500000	0.500000
Co51	Co5	0.500000	0.500000	0.500000
Co61	Co6	0.500000	0.000000	0.500000
H11	H1	0.285200	0.375800	0.764400
H21	H2	0.207700	0.367200	0.836400
H31	H3	0.090600	0.714800	0.764400
H41	H4	0.159500	0.792300	0.836400
H51	H5	0.624200	0.909400	0.764400
H61	H6	0.632800	0.840500	0.836400
H71	H7	0.714800	0.624200	0.764400
H81	H8	0.792300	0.632800	0.836400
H91	H9	0.909400	0.285200	0.764400
H101	H10	0.840500	0.207700	0.836400
H111	H11	0.375800	0.090600	0.764400
H121	H12	0.367200	0.159500	0.836400
H131	H13	0.909400	0.624200	0.735600
H141	H14	0.840500	0.632800	0.663600
H151	H15	0.375800	0.285200	0.735600
H161	H16	0.367200	0.207700	0.663600
H171	H17	0.714800	0.090600	0.735600
H181	H18	0.792300	0.159500	0.663600
H191	H19	0.090600	0.375800	0.735600
H201	H20	0.159500	0.367200	0.663600
H211	H21	0.624200	0.714800	0.735600
H221	H22	0.632800	0.792300	0.663600
H231	H23	0.285200	0.909400	0.735600
H241	H24	0.207700	0.840500	0.663600
H251	H25	0.714800	0.624200	0.235600
H261	H26	0.792300	0.632800	0.163600
H271	H27	0.909400	0.285200	0.235600
H281	H28	0.840500	0.207700	0.163600
H291	H29	0.375800	0.090600	0.235600
H301	H30	0.367200	0.159500	0.163600
H311	H31	0.285200	0.375800	0.235600
H321	H32	0.207700	0.367200	0.163600
H331	H33	0.090600	0.714800	0.235600
H341	H34	0.159500	0.792300	0.163600
H351	H35	0.624200	0.909400	0.235600
H361	H36	0.632800	0.840500	0.163600
H371	H37	0.090600	0.375800	0.264400
H381	H38	0.159500	0.367200	0.336400
H391	H39	0.624200	0.714800	0.264400
H401	H40	0.632800	0.792300	0.336400
H411	H41	0.285200	0.909400	0.264400
H421	H42	0.207700	0.840500	0.336400
H431	H43	0.909400	0.624200	0.264400
H441	H44	0.840500	0.632800	0.336400
H451	H45	0.375800	0.285200	0.264400
H461	H46	0.367200	0.207700	0.336400
H471	H47	0.714800	0.090600	0.264400
H481	H48	0.792300	0.159500	0.336400
C11	C1	0.353000	0.484000	0.858900
C21	C2	0.265200	0.414900	0.801300
C31	C3	0.131000	0.647000	0.858900
C41	C4	0.149700	0.734800	0.801300
C51	C5	0.516000	0.869000	0.858900
C61	C6	0.585100	0.850300	0.801300
C71	C7	0.647000	0.516000	0.858900
C81	C8	0.734800	0.585100	0.801300
C91	C9	0.869000	0.353000	0.858900
C101	C10	0.850300	0.265200	0.801300
C111	C11	0.484000	0.131000	0.858900
C121	C12	0.414900	0.149700	0.801300
C131	C13	0.869000	0.516000	0.641100
C141	C14	0.850300	0.585100	0.698700
C151	C15	0.484000	0.353000	0.641100
C161	C16	0.414900	0.265200	0.698700
C171	C17	0.647000	0.131000	0.641100
C181	C18	0.734800	0.149700	0.698700
C191	C19	0.131000	0.484000	0.641100
C201	C20	0.149700	0.414900	0.698700
C211	C21	0.516000	0.647000	0.641100
C221	C22	0.585100	0.734800	0.698700
C231	C23	0.353000	0.869000	0.641100
C241	C24	0.265200	0.850300	0.698700
C251	C25	0.647000	0.516000	0.141100
C261	C26	0.734800	0.585100	0.198700
C271	C27	0.869000	0.353000	0.141100
C281	C28	0.850300	0.265200	0.198700
C291	C29	0.484000	0.131000	0.141100
C301	C30	0.414900	0.149700	0.198700
C311	C31	0.353000	0.484000	0.141100
C321	C32	0.265200	0.414900	0.198700
C331	C33	0.131000	0.647000	0.141100
C341	C34	0.149700	0.734800	0.198700
C351	C35	0.516000	0.869000	0.141100
C361	C36	0.585100	0.850300	0.198700
C371	C37	0.131000	0.484000	0.358900
C381	C38	0.149700	0.414900	0.301300
C391	C39	0.516000	0.647000	0.358900
C401	C40	0.585100	0.734800	0.301300
C411	C41	0.353000	0.869000	0.358900
C421	C42	0.265200	0.850300	0.301300
C431	C43	0.869000	0.516000	0.358900
C441	C44	0.850300	0.585100	0.301300
C451	C45	0.484000	0.353000	0.358900
C461	C46	0.414900	0.265200	0.301300
C471	C47	0.647000	0.131000	0.358900
C481	C48	0.734800	0.149700	0.301300
O11	O1	0.383600	0.578300	0.856500
O21	O2	0.388200	0.441500	0.905800
O31	O3	0.194700	0.616400	0.856500
O41	O4	0.053300	0.611800	0.905800
O51	O5	0.421700	0.805300	0.856500
O61	O6	0.558500	0.946700	0.905800
O71	O7	0.616400	0.421700	0.856500
O81	O8	0.611800	0.558500	0.905800
O91	O9	0.805300	0.383600	0.856500
O101	O10	0.946700	0.388200	0.905800
O111	O11	0.578300	0.194700	0.856500
O121	O12	0.441500	0.053300	0.905800
O131	O13	0.805300	0.421700	0.643500
O141	O14	0.946700	0.558500	0.594200
O151	O15	0.578300	0.383600	0.643500
O161	O16	0.441500	0.388200	0.594200
O171	O17	0.616400	0.194700	0.643500
O181	O18	0.611800	0.053300	0.594200
O191	O19	0.194700	0.578300	0.643500
O201	O20	0.053300	0.441500	0.594200
O211	O21	0.421700	0.616400	0.643500
O221	O22	0.558500	0.611800	0.594200
O231	O23	0.383600	0.805300	0.643500
O241	O24	0.388200	0.946700	0.594200
O251	O25	0.616400	0.421700	0.143500
O261	O26	0.611800	0.558500	0.094200
O271	O27	0.805300	0.383600	0.143500
O281	O28	0.946700	0.388200	0.094200
O291	O29	0.578300	0.194700	0.143500
O301	O30	0.441500	0.053300	0.094200
O311	O31	0.383600	0.578300	0.143500
O321	O32	0.388200	0.441500	0.094200
O331	O33	0.194700	0.616400	0.143500
O341	O34	0.053300	0.611800	0.094200
O351	O35	0.421700	0.805300	0.143500
O361	O36	0.558500	0.946700	0.094200
O371	O37	0.194700	0.578300	0.356500
O381	O38	0.053300	0.441500	0.405800
O391	O39	0.421700	0.616400	0.356500
O401	O40	0.558500	0.611800	0.405800
O411	O41	0.383600	0.805300	0.356500
O421	O42	0.388200	0.946700	0.405800
O431	O43	0.805300	0.421700	0.356500
O441	O44	0.946700	0.558500	0.405800
O451	O45	0.578300	0.383600	0.356500
O461	O46	0.441500	0.388200	0.405800
O471	O47	0.616400	0.194700	0.356500
O481	O48	0.611800	0.053300	0.405800
O491	O49	0.236050	0.472100	0.750000
O501	O50	0.236050	0.763950	0.750000
O511	O51	0.527900	0.763950	0.750000
O521	O52	0.763950	0.527900	0.750000
O531	O53	0.763950	0.236050	0.750000
O541	O54	0.472100	0.236050	0.750000
O551	O55	0.763950	0.527900	0.250000
O561	O56	0.763950	0.236050	0.250000
O571	O57	0.472100	0.236050	0.250000
O581	O58	0.236050	0.472100	0.250000
O591	O59	0.236050	0.763950	0.250000
O601	O60	0.527900	0.763950	0.250000
