data_BAQWEY_clean_PM
_symmetry_space_group_name_H-M	'P1'
_cell_length_a	14.344900
_cell_length_b	14.699400
_cell_length_c	20.032200
_cell_angle_alpha	108.675000
_cell_angle_beta	90.123000
_cell_angle_gamma	107.786000
_symmetry_Int_Tables_number 1

loop_
_symmetry_equiv_pos_as_xyz
'x,y,z'

loop_
_atom_site_label
_atom_site_type_symbol
_atom_site_fract_x
_atom_site_fract_y
_atom_site_fract_z
Ag11	Ag1	0.484250	0.401400	0.540640
C11	C1	0.391800	0.296800	0.657700
N11	N1	0.467700	0.341100	0.632000
Ag21	Ag2	0.397840	0.594250	0.148370
C21	C2	0.293100	0.250500	0.620500
N21	N2	0.543700	0.376100	0.683400
Ag31	Ag3	0.237500	0.977690	0.256040
C31	C3	0.257800	0.292300	0.576300
H11	H1	0.297100	0.352600	0.571300
N31	N3	0.513800	0.357600	0.737800
Ag41	Ag4	0.058440	0.139440	0.028940
C41	C4	0.160400	0.241500	0.538400
H21	H2	0.138500	0.268100	0.507400
N41	N4	0.415000	0.307200	0.726300
Ag51	Ag5	0.216920	0.220320	0.230940
C51	C5	0.102000	0.158000	0.546900
H31	H3	0.037700	0.128600	0.524400
N51	N5	0.319100	0.295000	0.330000
N61	N6	0.368800	0.394800	0.344600
Ag61	Ag6	0.307240	0.494650	0.298780
C61	C6	0.138000	0.111000	0.592500
H41	H4	0.099600	0.049200	0.595900
Ag71	Ag7	0.493900	0.788800	0.044150
C71	C7	0.228000	0.158400	0.628400
H51	H5	0.249100	0.131600	0.659400
N71	N7	0.422000	0.427800	0.403800
N81	N8	0.407000	0.352400	0.432400
Ag81	Ag8	0.367500	0.326700	0.834350
C81	C8	0.345600	0.271400	0.386900
N91	N9	0.044100	0.937500	0.069800
Ag91	Ag9	0.329000	0.961800	0.077800
C91	C9	0.302700	0.172500	0.393600
C101	C10	0.208000	0.106800	0.361500
H61	H6	0.172400	0.125600	0.332400
N101	N10	0.073800	0.039000	0.098900
N111	N11	0.134300	0.069000	0.155400
C111	C11	0.167200	0.015400	0.372300
H71	H7	0.103600	0.973800	0.352600
C121	C12	0.224400	0.987200	0.413800
H81	H8	0.200600	0.922500	0.417000
N121	N12	0.138300	0.981600	0.167700
N131	N13	0.272400	0.442000	0.124400
C131	C13	0.310700	0.048600	0.448500
H91	H9	0.342600	0.030900	0.480500
N141	N14	0.257200	0.407400	0.178800
C141	C14	0.354600	0.141900	0.436700
H101	H10	0.417900	0.182700	0.457600
N151	N15	0.199000	0.311700	0.154500
C151	C15	0.083500	0.904600	0.112500
N161	N16	0.180500	0.283700	0.085100
C161	C16	0.075800	0.799600	0.103100
N171	N17	0.300200	0.857900	0.198600
C171	C17	0.096000	0.741200	0.038500
H111	H11	0.111600	0.766900	0.001700
N181	N18	0.334600	0.861400	0.136700
C181	C18	0.092000	0.640000	0.031400
H121	H12	0.108000	0.600800	0.989500
C191	C19	0.066000	0.599700	0.081000
H131	H13	0.062800	0.533100	0.073700
N191	N19	0.368800	0.783400	0.109100
N201	N20	0.353600	0.728800	0.153300
C201	C20	0.041900	0.659600	0.146900
H141	H14	0.023400	0.631800	0.182400
C211	C21	0.046800	0.760300	0.157400
H151	H15	0.031000	0.799700	0.199400
C221	C22	0.223700	0.361100	0.066500
C231	C23	0.219200	0.369000	0.994600
C241	C24	0.240900	0.460000	0.982900
H161	H16	0.258400	0.521000	0.020500
C251	C25	0.236000	0.458000	0.913000
H171	H17	0.246700	0.520200	0.905800
C261	C26	0.216100	0.374000	0.854700
H181	H18	0.211800	0.377100	0.809200
C271	C27	0.202600	0.282000	0.866600
H191	H19	0.195200	0.223100	0.828300
C281	C28	0.200200	0.277600	0.936000
H201	H20	0.186400	0.215700	0.943200
C291	C29	0.312900	0.777600	0.208200
C301	C30	0.284700	0.739000	0.266100
C311	C31	0.217600	0.639400	0.249100
H211	H21	0.198300	0.598400	0.201900
C321	C32	0.180000	0.602000	0.304000
H221	H22	0.127700	0.541400	0.293500
C331	C33	0.216000	0.650000	0.365300
H231	H23	0.194500	0.620400	0.399400
C341	C34	0.291000	0.751000	0.389900
H241	H24	0.318900	0.784400	0.436700
C351	C35	0.317000	0.791000	0.334100
H251	H25	0.358700	0.857300	0.345900
Ag101	Ag10	0.408900	0.952600	0.059800
Ag111	Ag11	0.515750	0.598600	0.459360
C361	C36	0.608200	0.703200	0.342300
N211	N21	0.532300	0.658900	0.368000
Ag121	Ag12	0.602160	0.405750	0.851630
C371	C37	0.706900	0.749500	0.379500
N221	N22	0.456300	0.623900	0.316600
Ag131	Ag13	0.762500	0.022310	0.743960
C381	C38	0.742200	0.707700	0.423700
H261	H26	0.702900	0.647400	0.428700
N231	N23	0.486200	0.642400	0.262200
Ag141	Ag14	0.941560	0.860560	0.971060
C391	C39	0.839600	0.758500	0.461600
H271	H27	0.861500	0.731900	0.492600
N241	N24	0.585000	0.692800	0.273700
Ag151	Ag15	0.783080	0.779680	0.769060
C401	C40	0.898000	0.842000	0.453100
H281	H28	0.962300	0.871400	0.475600
N251	N25	0.680900	0.705000	0.670000
N261	N26	0.631200	0.605200	0.655400
Ag161	Ag16	0.692760	0.505350	0.701220
C411	C41	0.862000	0.889000	0.407500
H291	H29	0.900400	0.950800	0.404100
Ag171	Ag17	0.506100	0.211200	0.955850
C421	C42	0.772000	0.841600	0.371600
H301	H30	0.750900	0.868400	0.340600
N271	N27	0.578000	0.572200	0.596200
N281	N28	0.593000	0.647600	0.567600
Ag181	Ag18	0.632500	0.673300	0.165650
C431	C43	0.654400	0.728600	0.613100
N291	N29	0.955900	0.062500	0.930200
Ag191	Ag19	0.671000	0.038200	0.922200
C441	C44	0.697300	0.827500	0.606400
C451	C45	0.792000	0.893200	0.638500
H311	H31	0.827600	0.874400	0.667600
N301	N30	0.926200	0.961000	0.901100
N311	N31	0.865700	0.931000	0.844600
C461	C46	0.832800	0.984600	0.627700
H321	H32	0.896400	0.026200	0.647400
C471	C47	0.775600	0.012800	0.586200
H331	H33	0.799400	0.077500	0.583000
N321	N32	0.861700	0.018400	0.832300
N331	N33	0.727600	0.558000	0.875600
C481	C48	0.689300	0.951400	0.551500
H341	H34	0.657400	0.969100	0.519500
N341	N34	0.742800	0.592600	0.821200
C491	C49	0.645400	0.858100	0.563300
H351	H35	0.582100	0.817300	0.542400
N351	N35	0.801000	0.688300	0.845500
C501	C50	0.916500	0.095400	0.887500
N361	N36	0.819500	0.716300	0.914900
C511	C51	0.924200	0.200400	0.896900
N371	N37	0.699800	0.142100	0.801400
C521	C52	0.904000	0.258800	0.961500
H361	H36	0.888400	0.233100	0.998300
N381	N38	0.665400	0.138600	0.863300
C531	C53	0.908000	0.360000	0.968600
H371	H37	0.892000	0.399200	0.010500
C541	C54	0.934000	0.400300	0.919000
H381	H38	0.937200	0.466900	0.926300
N391	N39	0.631200	0.216600	0.890900
N401	N40	0.646400	0.271200	0.846700
C551	C55	0.958100	0.340400	0.853100
H391	H39	0.976600	0.368200	0.817600
C561	C56	0.953200	0.239700	0.842600
H401	H40	0.969000	0.200300	0.800600
C571	C57	0.776300	0.638900	0.933500
C581	C58	0.780800	0.631000	0.005400
C591	C59	0.759100	0.540000	0.017100
H411	H41	0.741600	0.479000	0.979500
C601	C60	0.764000	0.542000	0.087000
H421	H42	0.753300	0.479800	0.094200
C611	C61	0.783900	0.626000	0.145300
H431	H43	0.788200	0.622900	0.190800
C621	C62	0.797400	0.718000	0.133400
H441	H44	0.804800	0.776900	0.171700
C631	C63	0.799800	0.722400	0.064000
H451	H45	0.813600	0.784300	0.056800
C641	C64	0.687100	0.222400	0.791800
C651	C65	0.715300	0.261000	0.733900
C661	C66	0.782400	0.360600	0.750900
H461	H46	0.801700	0.401600	0.798100
C671	C67	0.820000	0.398000	0.696000
H471	H47	0.872300	0.458600	0.706500
C681	C68	0.784000	0.350000	0.634700
H481	H48	0.805500	0.379600	0.600600
C691	C69	0.709000	0.249000	0.610100
H491	H49	0.681100	0.215600	0.563300
C701	C70	0.683000	0.209000	0.665900
H501	H50	0.641300	0.142700	0.654100
Ag201	Ag20	0.591100	0.047400	0.940200
