data_BARZIE_clean_PM
_symmetry_space_group_name_H-M	'P1'
_cell_length_a	18.336400
_cell_length_b	18.535500
_cell_length_c	18.535500
_cell_angle_alpha	70.312200
_cell_angle_beta	70.746200
_cell_angle_gamma	109.254000
_symmetry_Int_Tables_number 1

loop_
_symmetry_equiv_pos_as_xyz
'x,y,z'

loop_
_atom_site_label
_atom_site_type_symbol
_atom_site_fract_x
_atom_site_fract_y
_atom_site_fract_z
Co11	Co1	0.984030	0.928760	0.576290
Co21	Co2	0.560320	0.576290	0.494950
Co31	Co3	0.055270	0.494950	0.928760
Co41	Co4	0.939680	0.494950	0.576290
Co51	Co5	0.444730	0.928760	0.494950
Co61	Co6	0.515970	0.576290	0.928760
Co71	Co7	0.015970	0.071240	0.423710
Co81	Co8	0.439680	0.423710	0.505050
Co91	Co9	0.944730	0.505050	0.071240
Co101	Co10	0.060320	0.505050	0.423710
Co111	Co11	0.555270	0.071240	0.505050
Co121	Co12	0.484030	0.423710	0.071240
H11	H1	0.840800	0.828900	0.753000
H21	H2	0.284600	0.279900	0.347800
H31	H3	0.066400	0.756000	0.839400
H41	H4	0.162700	0.826500	0.689400
H51	H5	0.120400	0.890300	0.590600
H61	H6	0.917700	0.706400	0.962600
H71	H7	0.742000	0.757300	0.902800
H81	H8	0.131300	0.991900	0.233800
H91	H9	0.780800	0.697700	0.007300
H101	H10	0.593800	0.753000	0.418100
H111	H11	0.632400	0.347800	0.372300
H121	H12	0.905800	0.839400	0.404600
H131	H13	0.852100	0.689400	0.484100
H141	H14	0.711000	0.590600	0.519100
H151	H15	0.880300	0.962600	0.331000
H161	H16	0.644800	0.902800	0.339900
H171	H17	0.365100	0.233800	0.774300
H181	H18	0.788100	0.007300	0.295000
H191	H19	0.011900	0.418100	0.828900
H201	H20	0.004700	0.372300	0.279900
H211	H21	0.310400	0.404600	0.756000
H221	H22	0.336200	0.484100	0.826500
H231	H23	0.230100	0.519100	0.890300
H241	H24	0.211300	0.331000	0.706400
H251	H25	0.984700	0.339900	0.757300
H261	H26	0.139400	0.774300	0.991900
H271	H27	0.083100	0.295000	0.697700
H281	H28	0.906200	0.418100	0.753000
H291	H29	0.867600	0.372300	0.347800
H301	H30	0.594200	0.404600	0.839400
H311	H31	0.647900	0.484100	0.689400
H321	H32	0.789000	0.519100	0.590600
H331	H33	0.619700	0.331000	0.962600
H341	H34	0.855200	0.339900	0.902800
H351	H35	0.134900	0.774300	0.233800
H361	H36	0.711900	0.295000	0.007300
H371	H37	0.488100	0.828900	0.418100
H381	H38	0.495300	0.279900	0.372300
H391	H39	0.189600	0.756000	0.404600
H401	H40	0.163800	0.826500	0.484100
H411	H41	0.269900	0.890300	0.519100
H421	H42	0.288700	0.706400	0.331000
H431	H43	0.515300	0.757300	0.339900
H441	H44	0.360600	0.991900	0.774300
H451	H45	0.416900	0.697700	0.295000
H461	H46	0.659200	0.753000	0.828900
H471	H47	0.215400	0.347800	0.279900
H481	H48	0.433600	0.839400	0.756000
H491	H49	0.337300	0.689400	0.826500
H501	H50	0.379600	0.590600	0.890300
H511	H51	0.582300	0.962600	0.706400
H521	H52	0.758000	0.902800	0.757300
H531	H53	0.368700	0.233800	0.991900
H541	H54	0.719200	0.007300	0.697700
H551	H55	0.159200	0.171100	0.247000
H561	H56	0.715400	0.720100	0.652200
H571	H57	0.933600	0.244000	0.160600
H581	H58	0.837300	0.173500	0.310600
H591	H59	0.879600	0.109700	0.409400
H601	H60	0.082300	0.293600	0.037400
H611	H61	0.258000	0.242700	0.097200
H621	H62	0.868700	0.008100	0.766200
H631	H63	0.219200	0.302300	0.992700
H641	H64	0.406200	0.247000	0.581900
H651	H65	0.367600	0.652200	0.627700
H661	H66	0.094200	0.160600	0.595400
H671	H67	0.147900	0.310600	0.515900
H681	H68	0.289000	0.409400	0.480900
H691	H69	0.119700	0.037400	0.669000
H701	H70	0.355200	0.097200	0.660100
H711	H71	0.634900	0.766200	0.225700
H721	H72	0.211900	0.992700	0.705000
H731	H73	0.988100	0.581900	0.171100
H741	H74	0.995300	0.627700	0.720100
H751	H75	0.689600	0.595400	0.244000
H761	H76	0.663800	0.515900	0.173500
H771	H77	0.769900	0.480900	0.109700
H781	H78	0.788700	0.669000	0.293600
H791	H79	0.015300	0.660100	0.242700
H801	H80	0.860600	0.225700	0.008100
H811	H81	0.916900	0.705000	0.302300
H821	H82	0.093800	0.581900	0.247000
H831	H83	0.132400	0.627700	0.652200
H841	H84	0.405800	0.595400	0.160600
H851	H85	0.352100	0.515900	0.310600
H861	H86	0.211000	0.480900	0.409400
H871	H87	0.380300	0.669000	0.037400
H881	H88	0.144800	0.660100	0.097200
H891	H89	0.865100	0.225700	0.766200
H901	H90	0.288100	0.705000	0.992700
H911	H91	0.511900	0.171100	0.581900
H921	H92	0.504700	0.720100	0.627700
H931	H93	0.810400	0.244000	0.595400
H941	H94	0.836200	0.173500	0.515900
H951	H95	0.730100	0.109700	0.480900
H961	H96	0.711300	0.293600	0.669000
H971	H97	0.484700	0.242700	0.660100
H981	H98	0.639400	0.008100	0.225700
H991	H99	0.583100	0.302300	0.705000
H1001	H100	0.340800	0.247000	0.171100
H1011	H101	0.784600	0.652200	0.720100
H1021	H102	0.566400	0.160600	0.244000
H1031	H103	0.662700	0.310600	0.173500
H1041	H104	0.620400	0.409400	0.109700
H1051	H105	0.417700	0.037400	0.293600
H1061	H106	0.242000	0.097200	0.242700
H1071	H107	0.631300	0.766200	0.008100
H1081	H108	0.280800	0.992700	0.302300
H1091	H109	0.017950	0.767950	0.464100
H1101	H110	0.171650	0.921650	0.156700
H1111	H111	0.482050	0.464100	0.767950
H1121	H112	0.328350	0.156700	0.921650
H1131	H113	0.250000	0.767950	0.767950
H1141	H114	0.250000	0.921650	0.921650
H1151	H115	0.982050	0.232050	0.535900
H1161	H116	0.828350	0.078350	0.843300
H1171	H117	0.517950	0.535900	0.232050
H1181	H118	0.671650	0.843300	0.078350
H1191	H119	0.750000	0.232050	0.232050
H1201	H120	0.750000	0.078350	0.078350
H1211	H121	0.274200	0.048400	0.475800
H1221	H122	0.428000	0.356000	0.322000
H1231	H123	0.750000	0.475800	0.475800
H1241	H124	0.750000	0.322000	0.322000
H1251	H125	0.225800	0.475800	0.048400
H1261	H126	0.072000	0.322000	0.356000
H1271	H127	0.725800	0.951600	0.524200
H1281	H128	0.572000	0.644000	0.678000
H1291	H129	0.250000	0.524200	0.524200
H1301	H130	0.250000	0.678000	0.678000
H1311	H131	0.774200	0.524200	0.951600
H1321	H132	0.928000	0.678000	0.644000
C11	C1	0.857550	0.805030	0.794710
C21	C2	0.050400	0.930410	0.409130
C31	C3	0.263400	0.155890	0.418010
C41	C4	0.942580	0.813140	0.765950
C51	C5	0.311210	0.248290	0.369560
C61	C6	0.168200	0.106690	0.441740
C71	C7	0.073840	0.886980	0.356850
C81	C8	0.965890	0.775610	0.829040
C91	C9	0.049500	0.781360	0.798460
C101	C10	0.106190	0.822880	0.710710
C111	C11	0.079590	0.860360	0.652010
C121	C12	0.902930	0.732000	0.919710
C131	C13	0.799220	0.762380	0.883520
C141	C14	0.117320	0.932330	0.265130
C151	C15	0.822010	0.726290	0.946160
C161	C16	0.652260	0.794710	0.400260
C171	C17	0.459530	0.409130	0.660460
C181	C18	0.681410	0.418010	0.426100
C191	C19	0.708530	0.765950	0.420910
C201	C20	0.680770	0.369560	0.382150
C211	C21	0.609940	0.441740	0.451570
C221	C22	0.430690	0.356850	0.756170
C231	C23	0.794930	0.829040	0.395350
C241	C24	0.847960	0.798460	0.420180
C251	C25	0.816900	0.710710	0.466410
C261	C26	0.731600	0.652010	0.487630
C271	C27	0.822640	0.919710	0.348290
C281	C28	0.682740	0.883520	0.354100
C291	C29	0.382450	0.265130	0.802540
C301	C30	0.768170	0.946160	0.327550
C311	C31	0.052520	0.400260	0.805030
C321	C32	0.119990	0.660460	0.930410
C331	C33	0.107510	0.426100	0.155890
C341	C34	0.129440	0.420910	0.813140
C351	C35	0.062920	0.382150	0.248290
C361	C36	0.061510	0.451570	0.106690
C371	C37	0.186860	0.756170	0.886980
C381	C38	0.190280	0.395350	0.775610
C391	C39	0.268140	0.420180	0.781360
C401	C40	0.283310	0.466410	0.822880
C411	C41	0.219230	0.487630	0.860360
C421	C42	0.170930	0.348290	0.732000
C431	C43	0.036840	0.354100	0.762380
C441	C44	0.184990	0.802540	0.932330
C451	C45	0.095720	0.327550	0.726290
C461	C46	0.847740	0.400260	0.794710
C471	C47	0.040470	0.660460	0.409130
C481	C48	0.818590	0.426100	0.418010
C491	C49	0.791470	0.420910	0.765950
C501	C50	0.819230	0.382150	0.369560
C511	C51	0.890060	0.451570	0.441740
C521	C52	0.069310	0.756170	0.356850
C531	C53	0.705070	0.395350	0.829040
C541	C54	0.652040	0.420180	0.798460
C551	C55	0.683100	0.466410	0.710710
C561	C56	0.768400	0.487630	0.652010
C571	C57	0.677360	0.348290	0.919710
C581	C58	0.817260	0.354100	0.883520
C591	C59	0.117550	0.802540	0.265130
C601	C60	0.731830	0.327550	0.946160
C611	C61	0.447480	0.805030	0.400260
C621	C62	0.380010	0.930410	0.660460
C631	C63	0.392490	0.155890	0.426100
C641	C64	0.370560	0.813140	0.420910
C651	C65	0.437080	0.248290	0.382150
C661	C66	0.438490	0.106690	0.451570
C671	C67	0.313140	0.886980	0.756170
C681	C68	0.309720	0.775610	0.395350
C691	C69	0.231860	0.781360	0.420180
C701	C70	0.216690	0.822880	0.466410
C711	C71	0.280770	0.860360	0.487630
C721	C72	0.329070	0.732000	0.348290
C731	C73	0.463160	0.762380	0.354100
C741	C74	0.315010	0.932330	0.802540
C751	C75	0.404280	0.726290	0.327550
C761	C76	0.642450	0.794710	0.805030
C771	C77	0.449600	0.409130	0.930410
C781	C78	0.236600	0.418010	0.155890
C791	C79	0.557420	0.765950	0.813140
C801	C80	0.188790	0.369560	0.248290
C811	C81	0.331800	0.441740	0.106690
C821	C82	0.426160	0.356850	0.886980
C831	C83	0.534110	0.829040	0.775610
C841	C84	0.450500	0.798460	0.781360
C851	C85	0.393810	0.710710	0.822880
C861	C86	0.420410	0.652010	0.860360
C871	C87	0.597070	0.919710	0.732000
C881	C88	0.700780	0.883520	0.762380
C891	C89	0.382680	0.265130	0.932330
C901	C90	0.677990	0.946160	0.726290
C911	C91	0.142450	0.194970	0.205290
C921	C92	0.949600	0.069590	0.590870
C931	C93	0.736600	0.844110	0.581990
C941	C94	0.057420	0.186860	0.234050
C951	C95	0.688790	0.751710	0.630440
C961	C96	0.831800	0.893310	0.558260
C971	C97	0.926160	0.113020	0.643150
C981	C98	0.034110	0.224390	0.170960
C991	C99	0.950500	0.218640	0.201540
C1001	C100	0.893810	0.177120	0.289290
C1011	C101	0.920410	0.139640	0.347990
C1021	C102	0.097070	0.268000	0.080290
C1031	C103	0.200780	0.237620	0.116480
C1041	C104	0.882680	0.067670	0.734870
C1051	C105	0.177990	0.273710	0.053840
C1061	C106	0.347740	0.205290	0.599740
C1071	C107	0.540470	0.590870	0.339540
C1081	C108	0.318590	0.581990	0.573900
C1091	C109	0.291470	0.234050	0.579090
C1101	C110	0.319230	0.630440	0.617850
C1111	C111	0.390060	0.558260	0.548430
C1121	C112	0.569310	0.643150	0.243830
C1131	C113	0.205070	0.170960	0.604650
C1141	C114	0.152040	0.201540	0.579820
C1151	C115	0.183100	0.289290	0.533590
C1161	C116	0.268400	0.347990	0.512370
C1171	C117	0.177360	0.080290	0.651710
C1181	C118	0.317260	0.116480	0.645900
C1191	C119	0.617550	0.734870	0.197460
C1201	C120	0.231830	0.053840	0.672450
C1211	C121	0.947480	0.599740	0.194970
C1221	C122	0.880010	0.339540	0.069590
C1231	C123	0.892490	0.573900	0.844110
C1241	C124	0.870560	0.579090	0.186860
C1251	C125	0.937080	0.617850	0.751710
C1261	C126	0.938490	0.548430	0.893310
C1271	C127	0.813140	0.243830	0.113020
C1281	C128	0.809720	0.604650	0.224390
C1291	C129	0.731860	0.579820	0.218640
C1301	C130	0.716690	0.533590	0.177120
C1311	C131	0.780770	0.512370	0.139640
C1321	C132	0.829070	0.651710	0.268000
C1331	C133	0.963160	0.645900	0.237620
C1341	C134	0.815010	0.197460	0.067670
C1351	C135	0.904280	0.672450	0.273710
C1361	C136	0.152260	0.599740	0.205290
C1371	C137	0.959530	0.339540	0.590870
C1381	C138	0.181410	0.573900	0.581990
C1391	C139	0.208530	0.579090	0.234050
C1401	C140	0.180770	0.617850	0.630440
C1411	C141	0.109940	0.548430	0.558260
C1421	C142	0.930690	0.243830	0.643150
C1431	C143	0.294930	0.604650	0.170960
C1441	C144	0.347960	0.579820	0.201540
C1451	C145	0.316900	0.533590	0.289290
C1461	C146	0.231600	0.512370	0.347990
C1471	C147	0.322640	0.651710	0.080290
C1481	C148	0.182740	0.645900	0.116480
C1491	C149	0.882450	0.197460	0.734870
C1501	C150	0.268170	0.672450	0.053840
C1511	C151	0.552520	0.194970	0.599740
C1521	C152	0.619990	0.069590	0.339540
C1531	C153	0.607510	0.844110	0.573900
C1541	C154	0.629440	0.186860	0.579090
C1551	C155	0.562920	0.751710	0.617850
C1561	C156	0.561510	0.893310	0.548430
C1571	C157	0.686860	0.113020	0.243830
C1581	C158	0.690280	0.224390	0.604650
C1591	C159	0.768140	0.218640	0.579820
C1601	C160	0.783310	0.177120	0.533590
C1611	C161	0.719230	0.139640	0.512370
C1621	C162	0.670930	0.268000	0.651710
C1631	C163	0.536840	0.237620	0.645900
C1641	C164	0.684990	0.067670	0.197460
C1651	C165	0.595720	0.273710	0.672450
C1661	C166	0.357550	0.205290	0.194970
C1671	C167	0.550400	0.590870	0.069590
C1681	C168	0.763400	0.581990	0.844110
C1691	C169	0.442580	0.234050	0.186860
C1701	C170	0.811210	0.630440	0.751710
C1711	C171	0.668200	0.558260	0.893310
C1721	C172	0.573840	0.643150	0.113020
C1731	C173	0.465890	0.170960	0.224390
C1741	C174	0.549500	0.201540	0.218640
C1751	C175	0.606190	0.289290	0.177120
C1761	C176	0.579590	0.347990	0.139640
C1771	C177	0.402930	0.080290	0.268000
C1781	C178	0.299220	0.116480	0.237620
C1791	C179	0.617320	0.734870	0.067670
C1801	C180	0.322010	0.053840	0.273710
C1811	C181	0.049300	0.799300	0.401400
C1821	C182	0.140290	0.890290	0.219420
C1831	C183	0.450700	0.401400	0.799300
C1841	C184	0.359710	0.219420	0.890290
C1851	C185	0.250000	0.799300	0.799300
C1861	C186	0.250000	0.890290	0.890290
C1871	C187	0.950700	0.200700	0.598600
C1881	C188	0.859710	0.109710	0.780580
C1891	C189	0.549300	0.598600	0.200700
C1901	C190	0.640290	0.780580	0.109710
C1911	C191	0.750000	0.200700	0.200700
C1921	C192	0.750000	0.109710	0.109710
C1931	C193	0.305540	0.111080	0.444460
C1941	C194	0.396690	0.293380	0.353310
C1951	C195	0.750000	0.444460	0.444460
C1961	C196	0.750000	0.353310	0.353310
C1971	C197	0.194460	0.444460	0.111080
C1981	C198	0.103310	0.353310	0.293380
C1991	C199	0.694460	0.888920	0.555540
C2001	C200	0.603310	0.706620	0.646690
C2011	C201	0.250000	0.555540	0.555540
C2021	C202	0.250000	0.646690	0.646690
C2031	C203	0.805540	0.555540	0.888920
C2041	C204	0.896690	0.646690	0.706620
N11	N1	0.001810	0.856840	0.676390
N21	N2	0.678200	0.676390	0.466770
N31	N3	0.144970	0.466770	0.856840
N41	N4	0.821800	0.466770	0.676390
N51	N5	0.355030	0.856840	0.466770
N61	N6	0.498190	0.676390	0.856840
N71	N7	0.998190	0.143160	0.323610
N81	N8	0.321800	0.323610	0.533230
N91	N9	0.855030	0.533230	0.143160
N101	N10	0.178200	0.533230	0.323610
N111	N11	0.644970	0.143160	0.533230
N121	N12	0.501810	0.323610	0.143160
O11	O1	0.119160	0.030480	0.508690
O21	O2	0.030580	0.891670	0.488710
O31	O3	0.141990	0.144820	0.393590
O41	O4	0.050530	0.000840	0.370360
O51	O5	0.627850	0.508690	0.460830
O61	O6	0.519290	0.488710	0.619620
O71	O7	0.535580	0.393590	0.461590
O81	O8	0.420890	0.370360	0.628800
O91	O9	0.088680	0.460830	0.030480
O101	O10	0.138910	0.619620	0.891670
O111	O11	0.997170	0.461590	0.144820
O121	O12	0.049690	0.628800	0.000840
O131	O13	0.872150	0.460830	0.508690
O141	O14	0.980710	0.619620	0.488710
O151	O15	0.964420	0.461590	0.393590
O161	O16	0.079110	0.628800	0.370360
O171	O17	0.411320	0.030480	0.460830
O181	O18	0.361090	0.891670	0.619620
O191	O19	0.502830	0.144820	0.461590
O201	O20	0.450310	0.000840	0.628800
O211	O21	0.380840	0.508690	0.030480
O221	O22	0.469420	0.488710	0.891670
O231	O23	0.358010	0.393590	0.144820
O241	O24	0.449470	0.370360	0.000840
O251	O25	0.880840	0.969520	0.491310
O261	O26	0.969420	0.108330	0.511290
O271	O27	0.858010	0.855180	0.606410
O281	O28	0.949470	0.999160	0.629640
O291	O29	0.372150	0.491310	0.539170
O301	O30	0.480710	0.511290	0.380380
O311	O31	0.464420	0.606410	0.538410
O321	O32	0.579110	0.629640	0.371200
O331	O33	0.911320	0.539170	0.969520
O341	O34	0.861090	0.380380	0.108330
O351	O35	0.002830	0.538410	0.855180
O361	O36	0.950310	0.371200	0.999160
O371	O37	0.127850	0.539170	0.491310
O381	O38	0.019290	0.380380	0.511290
O391	O39	0.035580	0.538410	0.606410
O401	O40	0.920890	0.371200	0.629640
O411	O41	0.588680	0.969520	0.539170
O421	O42	0.638910	0.108330	0.380380
O431	O43	0.497170	0.855180	0.538410
O441	O44	0.549690	0.999160	0.371200
O451	O45	0.619160	0.491310	0.969520
O461	O46	0.530580	0.511290	0.108330
O471	O47	0.641990	0.606410	0.855180
O481	O48	0.550530	0.629640	0.999160
