data_BAXFIR02_clean_PM
_symmetry_space_group_name_H-M	'P1'
_cell_length_a	8.030600
_cell_length_b	19.408000
_cell_length_c	8.886200
_cell_angle_alpha	90.000000
_cell_angle_beta	92.816000
_cell_angle_gamma	90.000000
_symmetry_Int_Tables_number 1

loop_
_symmetry_equiv_pos_as_xyz
'x,y,z'

loop_
_atom_site_label
_atom_site_type_symbol
_atom_site_fract_x
_atom_site_fract_y
_atom_site_fract_z
N11	N1	0.863800	0.080100	0.084000
N21	N2	0.694400	0.086300	0.069800
N31	N3	0.796200	0.178300	0.163300
N41	N4	0.825400	0.243400	0.223900
N51	N5	0.693300	0.274500	0.222400
N61	N6	0.720500	0.338100	0.282300
N71	N7	0.646000	0.429100	0.395600
N81	N8	0.816500	0.425200	0.404500
N91	N9	0.154500	0.003600	0.192800
N101	N10	0.079200	0.004900	0.331700
N111	N11	0.344400	0.002500	0.368200
N121	N12	0.501800	0.999900	0.430600
C11	C1	0.921700	0.134600	0.141200
H11	H1	0.033900	0.143300	0.164600
C21	C2	0.656800	0.145000	0.118700
H21	H2	0.549100	0.162300	0.123000
C31	C3	0.592700	0.376800	0.321400
H31	H3	0.481000	0.367200	0.297900
C41	C4	0.856500	0.369800	0.339700
H41	H4	0.964900	0.353700	0.333100
C51	C5	0.313800	0.002700	0.219400
H51	H5	0.393700	0.002200	0.147100
C61	C6	0.194800	0.003700	0.433700
H61	H6	0.179900	0.003600	0.536900
N131	N13	0.636200	0.580100	0.416000
N141	N14	0.805600	0.586300	0.430200
N151	N15	0.703800	0.678300	0.336700
N161	N16	0.674600	0.743400	0.276100
N171	N17	0.806700	0.774500	0.277600
N181	N18	0.779500	0.838100	0.217700
N191	N19	0.854000	0.929100	0.104400
N201	N20	0.683500	0.925200	0.095500
N211	N21	0.345500	0.503600	0.307200
N221	N22	0.420800	0.504900	0.168300
N231	N23	0.155600	0.502500	0.131800
N241	N24	0.998200	0.499900	0.069400
C71	C7	0.578300	0.634600	0.358800
H71	H7	0.466100	0.643300	0.335400
C81	C8	0.843200	0.645000	0.381300
H81	H8	0.950900	0.662300	0.377000
C91	C9	0.907300	0.876800	0.178600
H91	H9	0.019000	0.867200	0.202100
C101	C10	0.643500	0.869800	0.160300
H101	H10	0.535100	0.853700	0.166900
C111	C11	0.186200	0.502700	0.280600
H111	H11	0.106300	0.502200	0.352900
C121	C12	0.305200	0.503700	0.066300
H121	H12	0.320100	0.503600	0.963100
N251	N25	0.136200	0.919900	0.916000
N261	N26	0.305600	0.913700	0.930200
N271	N27	0.203800	0.821700	0.836700
N281	N28	0.174600	0.756600	0.776100
N291	N29	0.306700	0.725500	0.777600
N301	N30	0.279500	0.661900	0.717700
N311	N31	0.354000	0.570900	0.604400
N321	N32	0.183500	0.574800	0.595500
N331	N33	0.845500	0.996400	0.807200
N341	N34	0.920800	0.995100	0.668300
N351	N35	0.655600	0.997500	0.631800
N361	N36	0.498200	0.000100	0.569400
C131	C13	0.078300	0.865400	0.858800
H131	H13	0.966100	0.856700	0.835400
C141	C14	0.343200	0.855000	0.881300
H141	H14	0.450900	0.837700	0.877000
C151	C15	0.407300	0.623200	0.678600
H151	H15	0.519000	0.632800	0.702100
C161	C16	0.143500	0.630200	0.660300
H161	H16	0.035100	0.646300	0.666900
C171	C17	0.686200	0.997300	0.780600
H171	H17	0.606300	0.997800	0.852900
C181	C18	0.805200	0.996300	0.566300
H181	H18	0.820100	0.996400	0.463100
N371	N37	0.363800	0.419900	0.584000
N381	N38	0.194400	0.413700	0.569800
N391	N39	0.296200	0.321700	0.663300
N401	N40	0.325400	0.256600	0.723900
N411	N41	0.193300	0.225500	0.722400
N421	N42	0.220500	0.161900	0.782300
N431	N43	0.146000	0.070900	0.895600
N441	N44	0.316500	0.074800	0.904500
N451	N45	0.654500	0.496400	0.692800
N461	N46	0.579200	0.495100	0.831700
N471	N47	0.844400	0.497500	0.868200
N481	N48	0.001800	0.500100	0.930600
C191	C19	0.421700	0.365400	0.641200
H191	H19	0.533900	0.356700	0.664600
C201	C20	0.156800	0.355000	0.618700
H201	H20	0.049100	0.337700	0.623000
C211	C21	0.092700	0.123200	0.821400
H211	H21	0.981000	0.132800	0.797900
C221	C22	0.356500	0.130200	0.839700
H221	H22	0.464900	0.146300	0.833100
C231	C23	0.813800	0.497300	0.719400
H231	H23	0.893700	0.497800	0.647100
C241	C24	0.694800	0.496300	0.933700
H241	H24	0.679900	0.496400	0.036900
Fe11	Fe1	0.000000	0.000000	0.000000
Fe21	Fe2	0.500000	0.500000	0.500000
