data_BAXFUD_clean_PM
_symmetry_space_group_name_H-M	'P1'
_cell_length_a	8.144600
_cell_length_b	20.260300
_cell_length_c	8.851500
_cell_angle_alpha	90.000000
_cell_angle_beta	90.061000
_cell_angle_gamma	90.000000
_symmetry_Int_Tables_number 1

loop_
_symmetry_equiv_pos_as_xyz
'x,y,z'

loop_
_atom_site_label
_atom_site_type_symbol
_atom_site_fract_x
_atom_site_fract_y
_atom_site_fract_z
N11	N1	0.857000	0.918700	0.904500
N21	N2	0.688000	0.914000	0.912300
N31	N3	0.791000	0.821400	0.831000
N41	N4	0.821700	0.756610	0.774500
N51	N5	0.692000	0.729240	0.776100
N61	N6	0.723200	0.664460	0.716400
N71	N7	0.649000	0.573450	0.614300
N81	N8	0.819100	0.578410	0.601900
N91	N9	0.162500	0.996350	0.804200
N101	N10	0.085300	0.995840	0.664000
N111	N11	0.349000	0.998800	0.631000
N121	N12	0.503700	0.001170	0.569800
C11	C1	0.913400	0.863100	0.854300
C21	C2	0.652600	0.854200	0.867600
C31	C3	0.858300	0.634300	0.662700
C41	C4	0.596700	0.625200	0.683600
C51	C5	0.319500	0.998510	0.781500
C61	C6	0.199600	0.998000	0.563200
H11	H1	0.026000	0.852000	0.834000
H21	H2	0.561000	0.839600	0.850000
H31	H3	0.969000	0.646800	0.673000
H41	H4	0.497000	0.632000	0.705000
H51	H5	0.397000	0.999300	0.855000
H61	H6	0.182000	0.997000	0.467000
N131	N13	0.643000	0.418700	0.595500
N141	N14	0.812000	0.414000	0.587700
N151	N15	0.709000	0.321400	0.669000
N161	N16	0.678300	0.256610	0.725500
N171	N17	0.808000	0.229240	0.723900
N181	N18	0.776800	0.164460	0.783600
N191	N19	0.851000	0.073450	0.885700
N201	N20	0.680900	0.078410	0.898100
N211	N21	0.337500	0.496350	0.695800
N221	N22	0.414700	0.495840	0.836000
N231	N23	0.151000	0.498800	0.869000
N241	N24	0.996300	0.501170	0.930200
C71	C7	0.586600	0.363100	0.645700
C81	C8	0.847400	0.354200	0.632400
C91	C9	0.641700	0.134300	0.837300
C101	C10	0.903300	0.125200	0.816400
C111	C11	0.180500	0.498510	0.718500
C121	C12	0.300400	0.498000	0.936800
H71	H7	0.474000	0.352000	0.666000
H81	H8	0.939000	0.339600	0.650000
H91	H9	0.531000	0.146800	0.827000
H101	H10	0.003000	0.132000	0.795000
H111	H11	0.103000	0.499300	0.645000
H121	H12	0.318000	0.497000	0.033000
N251	N25	0.143000	0.081300	0.095500
N261	N26	0.312000	0.086000	0.087700
N271	N27	0.209000	0.178600	0.169000
N281	N28	0.178300	0.243390	0.225500
N291	N29	0.308000	0.270760	0.223900
N301	N30	0.276800	0.335540	0.283600
N311	N31	0.351000	0.426550	0.385700
N321	N32	0.180900	0.421590	0.398100
N331	N33	0.837500	0.003650	0.195800
N341	N34	0.914700	0.004160	0.336000
N351	N35	0.651000	0.001200	0.369000
N361	N36	0.496300	0.998830	0.430200
C131	C13	0.086600	0.136900	0.145700
C141	C14	0.347400	0.145800	0.132400
C151	C15	0.141700	0.365700	0.337300
C161	C16	0.403300	0.374800	0.316400
C171	C17	0.680500	0.001490	0.218500
C181	C18	0.800400	0.002000	0.436800
H131	H13	0.974000	0.148000	0.166000
H141	H14	0.439000	0.160400	0.150000
H151	H15	0.031000	0.353200	0.327000
H161	H16	0.503000	0.368000	0.295000
H171	H17	0.603000	0.000700	0.145000
H181	H18	0.818000	0.003000	0.533000
N371	N37	0.357000	0.581300	0.404500
N381	N38	0.188000	0.586000	0.412300
N391	N39	0.291000	0.678600	0.331000
N401	N40	0.321700	0.743390	0.274500
N411	N41	0.192000	0.770760	0.276100
N421	N42	0.223200	0.835540	0.216400
N431	N43	0.149000	0.926550	0.114300
N441	N44	0.319100	0.921590	0.101900
N451	N45	0.662500	0.503650	0.304200
N461	N46	0.585300	0.504160	0.164000
N471	N47	0.849000	0.501200	0.131000
N481	N48	0.003700	0.498830	0.069800
C191	C19	0.413400	0.636900	0.354300
C201	C20	0.152600	0.645800	0.367600
C211	C21	0.358300	0.865700	0.162700
C221	C22	0.096700	0.874800	0.183600
C231	C23	0.819500	0.501490	0.281500
C241	C24	0.699600	0.502000	0.063200
H191	H19	0.526000	0.648000	0.334000
H201	H20	0.061000	0.660400	0.350000
H211	H21	0.469000	0.853200	0.173000
H221	H22	0.997000	0.868000	0.205000
H231	H23	0.897000	0.500700	0.355000
H241	H24	0.682000	0.503000	0.967000
Fe11	Fe1	0.000000	0.000000	0.000000
Fe21	Fe2	0.500000	0.500000	0.500000
