data_BAZGAM_clean_PM
_symmetry_space_group_name_H-M	'P1'
_cell_length_a	48.303300
_cell_length_b	48.303300
_cell_length_c	48.303300
_cell_angle_alpha	60.000000
_cell_angle_beta	60.000000
_cell_angle_gamma	60.000000
_symmetry_Int_Tables_number 1

loop_
_symmetry_equiv_pos_as_xyz
'x,y,z'

loop_
_atom_site_label
_atom_site_type_symbol
_atom_site_fract_x
_atom_site_fract_y
_atom_site_fract_z
Cu11	Cu1	0.500000	0.027280	0.972720
Cu21	Cu2	0.027280	0.500000	0.500000
Cu31	Cu3	0.972720	0.500000	0.500000
Cu41	Cu4	0.500000	0.972720	0.027280
Cu51	Cu5	0.500000	0.972720	0.500000
Cu61	Cu6	0.027280	0.500000	0.972720
Cu71	Cu7	0.972720	0.500000	0.027280
Cu81	Cu8	0.500000	0.027280	0.500000
Cu91	Cu9	0.500000	0.500000	0.027280
Cu101	Cu10	0.027280	0.972720	0.500000
Cu111	Cu11	0.972720	0.027280	0.500000
Cu121	Cu12	0.500000	0.500000	0.972720
H11	H1	0.524500	0.162700	0.078100
H21	H2	0.520400	0.135800	0.051200
H31	H3	0.523100	0.112300	0.027300
H41	H4	0.514900	0.086900	0.001900
H51	H5	0.162700	0.524500	0.234700
H61	H6	0.135800	0.520400	0.292600
H71	H7	0.112300	0.523100	0.337300
H81	H8	0.086900	0.514900	0.396300
H91	H9	0.078100	0.234700	0.524500
H101	H10	0.051200	0.292600	0.520400
H111	H11	0.027300	0.337300	0.523100
H121	H12	0.001900	0.396300	0.514900
H131	H13	0.234700	0.078100	0.162700
H141	H14	0.292600	0.051200	0.135800
H151	H15	0.337300	0.027300	0.112300
H161	H16	0.396300	0.001900	0.086900
H171	H17	0.524500	0.078100	0.234700
H181	H18	0.520400	0.051200	0.292600
H191	H19	0.523100	0.027300	0.337300
H201	H20	0.514900	0.001900	0.396300
H211	H21	0.162700	0.234700	0.078100
H221	H22	0.135800	0.292600	0.051200
H231	H23	0.112300	0.337300	0.027300
H241	H24	0.086900	0.396300	0.001900
H251	H25	0.078100	0.524500	0.162700
H261	H26	0.051200	0.520400	0.135800
H271	H27	0.027300	0.523100	0.112300
H281	H28	0.001900	0.514900	0.086900
H291	H29	0.234700	0.162700	0.524500
H301	H30	0.292600	0.135800	0.520400
H311	H31	0.337300	0.112300	0.523100
H321	H32	0.396300	0.086900	0.514900
H331	H33	0.524500	0.234700	0.162700
H341	H34	0.520400	0.292600	0.135800
H351	H35	0.523100	0.337300	0.112300
H361	H36	0.514900	0.396300	0.086900
H371	H37	0.162700	0.078100	0.524500
H381	H38	0.135800	0.051200	0.520400
H391	H39	0.112300	0.027300	0.523100
H401	H40	0.086900	0.001900	0.514900
H411	H41	0.078100	0.162700	0.234700
H421	H42	0.051200	0.135800	0.292600
H431	H43	0.027300	0.112300	0.337300
H441	H44	0.001900	0.086900	0.396300
H451	H45	0.234700	0.524500	0.078100
H461	H46	0.292600	0.520400	0.051200
H471	H47	0.337300	0.523100	0.027300
H481	H48	0.396300	0.514900	0.001900
H491	H49	0.837300	0.475500	0.921900
H501	H50	0.864200	0.479600	0.948800
H511	H51	0.887700	0.476900	0.972700
H521	H52	0.913100	0.485100	0.998100
H531	H53	0.475500	0.837300	0.765300
H541	H54	0.479600	0.864200	0.707400
H551	H55	0.476900	0.887700	0.662700
H561	H56	0.485100	0.913100	0.603700
H571	H57	0.765300	0.921900	0.475500
H581	H58	0.707400	0.948800	0.479600
H591	H59	0.662700	0.972700	0.476900
H601	H60	0.603700	0.998100	0.485100
H611	H61	0.921900	0.765300	0.837300
H621	H62	0.948800	0.707400	0.864200
H631	H63	0.972700	0.662700	0.887700
H641	H64	0.998100	0.603700	0.913100
H651	H65	0.921900	0.475500	0.765300
H661	H66	0.948800	0.479600	0.707400
H671	H67	0.972700	0.476900	0.662700
H681	H68	0.998100	0.485100	0.603700
H691	H69	0.765300	0.837300	0.921900
H701	H70	0.707400	0.864200	0.948800
H711	H71	0.662700	0.887700	0.972700
H721	H72	0.603700	0.913100	0.998100
H731	H73	0.475500	0.921900	0.837300
H741	H74	0.479600	0.948800	0.864200
H751	H75	0.476900	0.972700	0.887700
H761	H76	0.485100	0.998100	0.913100
H771	H77	0.837300	0.765300	0.475500
H781	H78	0.864200	0.707400	0.479600
H791	H79	0.887700	0.662700	0.476900
H801	H80	0.913100	0.603700	0.485100
H811	H81	0.765300	0.475500	0.837300
H821	H82	0.707400	0.479600	0.864200
H831	H83	0.662700	0.476900	0.887700
H841	H84	0.603700	0.485100	0.913100
H851	H85	0.921900	0.837300	0.475500
H861	H86	0.948800	0.864200	0.479600
H871	H87	0.972700	0.887700	0.476900
H881	H88	0.998100	0.913100	0.485100
H891	H89	0.837300	0.921900	0.765300
H901	H90	0.864200	0.948800	0.707400
H911	H91	0.887700	0.972700	0.662700
H921	H92	0.913100	0.998100	0.603700
H931	H93	0.475500	0.765300	0.921900
H941	H94	0.479600	0.707400	0.948800
H951	H95	0.476900	0.662700	0.972700
H961	H96	0.485100	0.603700	0.998100
H971	H97	0.475500	0.837300	0.921900
H981	H98	0.479600	0.864200	0.948800
H991	H99	0.476900	0.887700	0.972700
H1001	H100	0.485100	0.913100	0.998100
H1011	H101	0.837300	0.475500	0.765300
H1021	H102	0.864200	0.479600	0.707400
H1031	H103	0.887700	0.476900	0.662700
H1041	H104	0.913100	0.485100	0.603700
H1051	H105	0.921900	0.765300	0.475500
H1061	H106	0.948800	0.707400	0.479600
H1071	H107	0.972700	0.662700	0.476900
H1081	H108	0.998100	0.603700	0.485100
H1091	H109	0.765300	0.921900	0.837300
H1101	H110	0.707400	0.948800	0.864200
H1111	H111	0.662700	0.972700	0.887700
H1121	H112	0.603700	0.998100	0.913100
H1131	H113	0.475500	0.921900	0.765300
H1141	H114	0.479600	0.948800	0.707400
H1151	H115	0.476900	0.972700	0.662700
H1161	H116	0.485100	0.998100	0.603700
H1171	H117	0.837300	0.765300	0.921900
H1181	H118	0.864200	0.707400	0.948800
H1191	H119	0.887700	0.662700	0.972700
H1201	H120	0.913100	0.603700	0.998100
H1211	H121	0.921900	0.475500	0.837300
H1221	H122	0.948800	0.479600	0.864200
H1231	H123	0.972700	0.476900	0.887700
H1241	H124	0.998100	0.485100	0.913100
H1251	H125	0.765300	0.837300	0.475500
H1261	H126	0.707400	0.864200	0.479600
H1271	H127	0.662700	0.887700	0.476900
H1281	H128	0.603700	0.913100	0.485100
H1291	H129	0.475500	0.765300	0.837300
H1301	H130	0.479600	0.707400	0.864200
H1311	H131	0.476900	0.662700	0.887700
H1321	H132	0.485100	0.603700	0.913100
H1331	H133	0.837300	0.921900	0.475500
H1341	H134	0.864200	0.948800	0.479600
H1351	H135	0.887700	0.972700	0.476900
H1361	H136	0.913100	0.998100	0.485100
H1371	H137	0.921900	0.837300	0.765300
H1381	H138	0.948800	0.864200	0.707400
H1391	H139	0.972700	0.887700	0.662700
H1401	H140	0.998100	0.913100	0.603700
H1411	H141	0.765300	0.475500	0.921900
H1421	H142	0.707400	0.479600	0.948800
H1431	H143	0.662700	0.476900	0.972700
H1441	H144	0.603700	0.485100	0.998100
H1451	H145	0.162700	0.524500	0.078100
H1461	H146	0.135800	0.520400	0.051200
H1471	H147	0.112300	0.523100	0.027300
H1481	H148	0.086900	0.514900	0.001900
H1491	H149	0.524500	0.162700	0.234700
H1501	H150	0.520400	0.135800	0.292600
H1511	H151	0.523100	0.112300	0.337300
H1521	H152	0.514900	0.086900	0.396300
H1531	H153	0.234700	0.078100	0.524500
H1541	H154	0.292600	0.051200	0.520400
H1551	H155	0.337300	0.027300	0.523100
H1561	H156	0.396300	0.001900	0.514900
H1571	H157	0.078100	0.234700	0.162700
H1581	H158	0.051200	0.292600	0.135800
H1591	H159	0.027300	0.337300	0.112300
H1601	H160	0.001900	0.396300	0.086900
H1611	H161	0.078100	0.524500	0.234700
H1621	H162	0.051200	0.520400	0.292600
H1631	H163	0.027300	0.523100	0.337300
H1641	H164	0.001900	0.514900	0.396300
H1651	H165	0.234700	0.162700	0.078100
H1661	H166	0.292600	0.135800	0.051200
H1671	H167	0.337300	0.112300	0.027300
H1681	H168	0.396300	0.086900	0.001900
H1691	H169	0.524500	0.078100	0.162700
H1701	H170	0.520400	0.051200	0.135800
H1711	H171	0.523100	0.027300	0.112300
H1721	H172	0.514900	0.001900	0.086900
H1731	H173	0.162700	0.234700	0.524500
H1741	H174	0.135800	0.292600	0.520400
H1751	H175	0.112300	0.337300	0.523100
H1761	H176	0.086900	0.396300	0.514900
H1771	H177	0.234700	0.524500	0.162700
H1781	H178	0.292600	0.520400	0.135800
H1791	H179	0.337300	0.523100	0.112300
H1801	H180	0.396300	0.514900	0.086900
H1811	H181	0.078100	0.162700	0.524500
H1821	H182	0.051200	0.135800	0.520400
H1831	H183	0.027300	0.112300	0.523100
H1841	H184	0.001900	0.086900	0.514900
H1851	H185	0.162700	0.078100	0.234700
H1861	H186	0.135800	0.051200	0.292600
H1871	H187	0.112300	0.027300	0.337300
H1881	H188	0.086900	0.001900	0.396300
H1891	H189	0.524500	0.234700	0.078100
H1901	H190	0.520400	0.292600	0.051200
H1911	H191	0.523100	0.337300	0.027300
H1921	H192	0.514900	0.396300	0.001900
H1931	H193	0.531600	0.184400	0.099600
H1941	H194	0.184400	0.531600	0.184400
H1951	H195	0.099600	0.184400	0.531600
H1961	H196	0.184400	0.099600	0.184400
H1971	H197	0.531600	0.099600	0.184400
H1981	H198	0.184400	0.184400	0.099600
H1991	H199	0.099600	0.531600	0.184400
H2001	H200	0.184400	0.184400	0.531600
H2011	H201	0.531600	0.184400	0.184400
H2021	H202	0.184400	0.099600	0.531600
H2031	H203	0.099600	0.184400	0.184400
H2041	H204	0.184400	0.531600	0.099600
H2051	H205	0.815600	0.468400	0.900400
H2061	H206	0.468400	0.815600	0.815600
H2071	H207	0.815600	0.900400	0.468400
H2081	H208	0.900400	0.815600	0.815600
H2091	H209	0.900400	0.468400	0.815600
H2101	H210	0.815600	0.815600	0.900400
H2111	H211	0.468400	0.900400	0.815600
H2121	H212	0.815600	0.815600	0.468400
H2131	H213	0.815600	0.468400	0.815600
H2141	H214	0.900400	0.815600	0.468400
H2151	H215	0.815600	0.900400	0.815600
H2161	H216	0.468400	0.815600	0.900400
C11	C1	0.524450	0.140550	0.088970
C21	C2	0.522660	0.124280	0.072520
C31	C3	0.521880	0.090440	0.038560
C41	C4	0.517450	0.074970	0.023090
C51	C5	0.140550	0.524450	0.246030
C61	C6	0.124280	0.522660	0.280540
C71	C7	0.090440	0.521880	0.349120
C81	C8	0.074970	0.517450	0.384490
C91	C9	0.088970	0.246030	0.524450
C101	C10	0.072520	0.280540	0.522660
C111	C11	0.038560	0.349120	0.521880
C121	C12	0.023090	0.384490	0.517450
C131	C13	0.246030	0.088970	0.140550
C141	C14	0.280540	0.072520	0.124280
C151	C15	0.349120	0.038560	0.090440
C161	C16	0.384490	0.023090	0.074970
C171	C17	0.524450	0.088970	0.246030
C181	C18	0.522660	0.072520	0.280540
C191	C19	0.521880	0.038560	0.349120
C201	C20	0.517450	0.023090	0.384490
C211	C21	0.140550	0.246030	0.088970
C221	C22	0.124280	0.280540	0.072520
C231	C23	0.090440	0.349120	0.038560
C241	C24	0.074970	0.384490	0.023090
C251	C25	0.088970	0.524450	0.140550
C261	C26	0.072520	0.522660	0.124280
C271	C27	0.038560	0.521880	0.090440
C281	C28	0.023090	0.517450	0.074970
C291	C29	0.246030	0.140550	0.524450
C301	C30	0.280540	0.124280	0.522660
C311	C31	0.349120	0.090440	0.521880
C321	C32	0.384490	0.074970	0.517450
C331	C33	0.524450	0.246030	0.140550
C341	C34	0.522660	0.280540	0.124280
C351	C35	0.521880	0.349120	0.090440
C361	C36	0.517450	0.384490	0.074970
C371	C37	0.140550	0.088970	0.524450
C381	C38	0.124280	0.072520	0.522660
C391	C39	0.090440	0.038560	0.521880
C401	C40	0.074970	0.023090	0.517450
C411	C41	0.088970	0.140550	0.246030
C421	C42	0.072520	0.124280	0.280540
C431	C43	0.038560	0.090440	0.349120
C441	C44	0.023090	0.074970	0.384490
C451	C45	0.246030	0.524450	0.088970
C461	C46	0.280540	0.522660	0.072520
C471	C47	0.349120	0.521880	0.038560
C481	C48	0.384490	0.517450	0.023090
C491	C49	0.859450	0.475550	0.911030
C501	C50	0.875720	0.477340	0.927480
C511	C51	0.909560	0.478120	0.961440
C521	C52	0.925030	0.482550	0.976910
C531	C53	0.475550	0.859450	0.753970
C541	C54	0.477340	0.875720	0.719460
C551	C55	0.478120	0.909560	0.650880
C561	C56	0.482550	0.925030	0.615510
C571	C57	0.753970	0.911030	0.475550
C581	C58	0.719460	0.927480	0.477340
C591	C59	0.650880	0.961440	0.478120
C601	C60	0.615510	0.976910	0.482550
C611	C61	0.911030	0.753970	0.859450
C621	C62	0.927480	0.719460	0.875720
C631	C63	0.961440	0.650880	0.909560
C641	C64	0.976910	0.615510	0.925030
C651	C65	0.911030	0.475550	0.753970
C661	C66	0.927480	0.477340	0.719460
C671	C67	0.961440	0.478120	0.650880
C681	C68	0.976910	0.482550	0.615510
C691	C69	0.753970	0.859450	0.911030
C701	C70	0.719460	0.875720	0.927480
C711	C71	0.650880	0.909560	0.961440
C721	C72	0.615510	0.925030	0.976910
C731	C73	0.475550	0.911030	0.859450
C741	C74	0.477340	0.927480	0.875720
C751	C75	0.478120	0.961440	0.909560
C761	C76	0.482550	0.976910	0.925030
C771	C77	0.859450	0.753970	0.475550
C781	C78	0.875720	0.719460	0.477340
C791	C79	0.909560	0.650880	0.478120
C801	C80	0.925030	0.615510	0.482550
C811	C81	0.753970	0.475550	0.859450
C821	C82	0.719460	0.477340	0.875720
C831	C83	0.650880	0.478120	0.909560
C841	C84	0.615510	0.482550	0.925030
C851	C85	0.911030	0.859450	0.475550
C861	C86	0.927480	0.875720	0.477340
C871	C87	0.961440	0.909560	0.478120
C881	C88	0.976910	0.925030	0.482550
C891	C89	0.859450	0.911030	0.753970
C901	C90	0.875720	0.927480	0.719460
C911	C91	0.909560	0.961440	0.650880
C921	C92	0.925030	0.976910	0.615510
C931	C93	0.475550	0.753970	0.911030
C941	C94	0.477340	0.719460	0.927480
C951	C95	0.478120	0.650880	0.961440
C961	C96	0.482550	0.615510	0.976910
C971	C97	0.475550	0.859450	0.911030
C981	C98	0.477340	0.875720	0.927480
C991	C99	0.478120	0.909560	0.961440
C1001	C100	0.482550	0.925030	0.976910
C1011	C101	0.859450	0.475550	0.753970
C1021	C102	0.875720	0.477340	0.719460
C1031	C103	0.909560	0.478120	0.650880
C1041	C104	0.925030	0.482550	0.615510
C1051	C105	0.911030	0.753970	0.475550
C1061	C106	0.927480	0.719460	0.477340
C1071	C107	0.961440	0.650880	0.478120
C1081	C108	0.976910	0.615510	0.482550
C1091	C109	0.753970	0.911030	0.859450
C1101	C110	0.719460	0.927480	0.875720
C1111	C111	0.650880	0.961440	0.909560
C1121	C112	0.615510	0.976910	0.925030
C1131	C113	0.475550	0.911030	0.753970
C1141	C114	0.477340	0.927480	0.719460
C1151	C115	0.478120	0.961440	0.650880
C1161	C116	0.482550	0.976910	0.615510
C1171	C117	0.859450	0.753970	0.911030
C1181	C118	0.875720	0.719460	0.927480
C1191	C119	0.909560	0.650880	0.961440
C1201	C120	0.925030	0.615510	0.976910
C1211	C121	0.911030	0.475550	0.859450
C1221	C122	0.927480	0.477340	0.875720
C1231	C123	0.961440	0.478120	0.909560
C1241	C124	0.976910	0.482550	0.925030
C1251	C125	0.753970	0.859450	0.475550
C1261	C126	0.719460	0.875720	0.477340
C1271	C127	0.650880	0.909560	0.478120
C1281	C128	0.615510	0.925030	0.482550
C1291	C129	0.475550	0.753970	0.859450
C1301	C130	0.477340	0.719460	0.875720
C1311	C131	0.478120	0.650880	0.909560
C1321	C132	0.482550	0.615510	0.925030
C1331	C133	0.859450	0.911030	0.475550
C1341	C134	0.875720	0.927480	0.477340
C1351	C135	0.909560	0.961440	0.478120
C1361	C136	0.925030	0.976910	0.482550
C1371	C137	0.911030	0.859450	0.753970
C1381	C138	0.927480	0.875720	0.719460
C1391	C139	0.961440	0.909560	0.650880
C1401	C140	0.976910	0.925030	0.615510
C1411	C141	0.753970	0.475550	0.911030
C1421	C142	0.719460	0.477340	0.927480
C1431	C143	0.650880	0.478120	0.961440
C1441	C144	0.615510	0.482550	0.976910
C1451	C145	0.140550	0.524450	0.088970
C1461	C146	0.124280	0.522660	0.072520
C1471	C147	0.090440	0.521880	0.038560
C1481	C148	0.074970	0.517450	0.023090
C1491	C149	0.524450	0.140550	0.246030
C1501	C150	0.522660	0.124280	0.280540
C1511	C151	0.521880	0.090440	0.349120
C1521	C152	0.517450	0.074970	0.384490
C1531	C153	0.246030	0.088970	0.524450
C1541	C154	0.280540	0.072520	0.522660
C1551	C155	0.349120	0.038560	0.521880
C1561	C156	0.384490	0.023090	0.517450
C1571	C157	0.088970	0.246030	0.140550
C1581	C158	0.072520	0.280540	0.124280
C1591	C159	0.038560	0.349120	0.090440
C1601	C160	0.023090	0.384490	0.074970
C1611	C161	0.088970	0.524450	0.246030
C1621	C162	0.072520	0.522660	0.280540
C1631	C163	0.038560	0.521880	0.349120
C1641	C164	0.023090	0.517450	0.384490
C1651	C165	0.246030	0.140550	0.088970
C1661	C166	0.280540	0.124280	0.072520
C1671	C167	0.349120	0.090440	0.038560
C1681	C168	0.384490	0.074970	0.023090
C1691	C169	0.524450	0.088970	0.140550
C1701	C170	0.522660	0.072520	0.124280
C1711	C171	0.521880	0.038560	0.090440
C1721	C172	0.517450	0.023090	0.074970
C1731	C173	0.140550	0.246030	0.524450
C1741	C174	0.124280	0.280540	0.522660
C1751	C175	0.090440	0.349120	0.521880
C1761	C176	0.074970	0.384490	0.517450
C1771	C177	0.246030	0.524450	0.140550
C1781	C178	0.280540	0.522660	0.124280
C1791	C179	0.349120	0.521880	0.090440
C1801	C180	0.384490	0.517450	0.074970
C1811	C181	0.088970	0.140550	0.524450
C1821	C182	0.072520	0.124280	0.522660
C1831	C183	0.038560	0.090440	0.521880
C1841	C184	0.023090	0.074970	0.517450
C1851	C185	0.140550	0.088970	0.246030
C1861	C186	0.124280	0.072520	0.280540
C1871	C187	0.090440	0.038560	0.349120
C1881	C188	0.074970	0.023090	0.384490
C1891	C189	0.524450	0.246030	0.088970
C1901	C190	0.522660	0.280540	0.072520
C1911	C191	0.521880	0.349120	0.038560
C1921	C192	0.517450	0.384490	0.023090
C1931	C193	0.531790	0.173230	0.121750
C1941	C194	0.173230	0.531790	0.173230
C1951	C195	0.121750	0.173230	0.531790
C1961	C196	0.173230	0.121750	0.173230
C1971	C197	0.531790	0.121750	0.173230
C1981	C198	0.173230	0.173230	0.121750
C1991	C199	0.121750	0.531790	0.173230
C2001	C200	0.173230	0.173230	0.531790
C2011	C201	0.531790	0.173230	0.173230
C2021	C202	0.173230	0.121750	0.531790
C2031	C203	0.121750	0.173230	0.173230
C2041	C204	0.173230	0.531790	0.121750
C2051	C205	0.826770	0.468210	0.878250
C2061	C206	0.468210	0.826770	0.826770
C2071	C207	0.826770	0.878250	0.468210
C2081	C208	0.878250	0.826770	0.826770
C2091	C209	0.878250	0.468210	0.826770
C2101	C210	0.826770	0.826770	0.878250
C2111	C211	0.468210	0.878250	0.826770
C2121	C212	0.826770	0.826770	0.468210
C2131	C213	0.826770	0.468210	0.826770
C2141	C214	0.878250	0.826770	0.468210
C2151	C215	0.826770	0.878250	0.826770
C2161	C216	0.468210	0.826770	0.878250
C2171	C217	0.532000	0.138800	0.138800
C2181	C218	0.526100	0.122500	0.122500
C2191	C219	0.524400	0.089700	0.089700
C2201	C220	0.524310	0.071590	0.071590
C2211	C221	0.517020	0.040800	0.040800
C2221	C222	0.509720	0.025200	0.025200
C2231	C223	0.138800	0.532000	0.190400
C2241	C224	0.122500	0.526100	0.228900
C2251	C225	0.089700	0.524400	0.296200
C2261	C226	0.071590	0.524310	0.332510
C2271	C227	0.040800	0.517020	0.401380
C2281	C228	0.025200	0.509720	0.439880
C2291	C229	0.138800	0.190400	0.532000
C2301	C230	0.122500	0.228900	0.526100
C2311	C231	0.089700	0.296200	0.524400
C2321	C232	0.071590	0.332510	0.524310
C2331	C233	0.040800	0.401380	0.517020
C2341	C234	0.025200	0.439880	0.509720
C2351	C235	0.190400	0.138800	0.138800
C2361	C236	0.228900	0.122500	0.122500
C2371	C237	0.296200	0.089700	0.089700
C2381	C238	0.332510	0.071590	0.071590
C2391	C239	0.401380	0.040800	0.040800
C2401	C240	0.439880	0.025200	0.025200
C2411	C241	0.532000	0.138800	0.190400
C2421	C242	0.526100	0.122500	0.228900
C2431	C243	0.524400	0.089700	0.296200
C2441	C244	0.524310	0.071590	0.332510
C2451	C245	0.517020	0.040800	0.401380
C2461	C246	0.509720	0.025200	0.439880
C2471	C247	0.138800	0.190400	0.138800
C2481	C248	0.122500	0.228900	0.122500
C2491	C249	0.089700	0.296200	0.089700
C2501	C250	0.071590	0.332510	0.071590
C2511	C251	0.040800	0.401380	0.040800
C2521	C252	0.025200	0.439880	0.025200
C2531	C253	0.138800	0.532000	0.138800
C2541	C254	0.122500	0.526100	0.122500
C2551	C255	0.089700	0.524400	0.089700
C2561	C256	0.071590	0.524310	0.071590
C2571	C257	0.040800	0.517020	0.040800
C2581	C258	0.025200	0.509720	0.025200
C2591	C259	0.190400	0.138800	0.532000
C2601	C260	0.228900	0.122500	0.526100
C2611	C261	0.296200	0.089700	0.524400
C2621	C262	0.332510	0.071590	0.524310
C2631	C263	0.401380	0.040800	0.517020
C2641	C264	0.439880	0.025200	0.509720
C2651	C265	0.532000	0.190400	0.138800
C2661	C266	0.526100	0.228900	0.122500
C2671	C267	0.524400	0.296200	0.089700
C2681	C268	0.524310	0.332510	0.071590
C2691	C269	0.517020	0.401380	0.040800
C2701	C270	0.509720	0.439880	0.025200
C2711	C271	0.138800	0.138800	0.532000
C2721	C272	0.122500	0.122500	0.526100
C2731	C273	0.089700	0.089700	0.524400
C2741	C274	0.071590	0.071590	0.524310
C2751	C275	0.040800	0.040800	0.517020
C2761	C276	0.025200	0.025200	0.509720
C2771	C277	0.138800	0.138800	0.190400
C2781	C278	0.122500	0.122500	0.228900
C2791	C279	0.089700	0.089700	0.296200
C2801	C280	0.071590	0.071590	0.332510
C2811	C281	0.040800	0.040800	0.401380
C2821	C282	0.025200	0.025200	0.439880
C2831	C283	0.190400	0.532000	0.138800
C2841	C284	0.228900	0.526100	0.122500
C2851	C285	0.296200	0.524400	0.089700
C2861	C286	0.332510	0.524310	0.071590
C2871	C287	0.401380	0.517020	0.040800
C2881	C288	0.439880	0.509720	0.025200
C2891	C289	0.861200	0.468000	0.861200
C2901	C290	0.877500	0.473900	0.877500
C2911	C291	0.910300	0.475600	0.910300
C2921	C292	0.928410	0.475690	0.928410
C2931	C293	0.959200	0.482980	0.959200
C2941	C294	0.974800	0.490280	0.974800
C2951	C295	0.468000	0.861200	0.809600
C2961	C296	0.473900	0.877500	0.771100
C2971	C297	0.475600	0.910300	0.703800
C2981	C298	0.475690	0.928410	0.667490
C2991	C299	0.482980	0.959200	0.598620
C3001	C300	0.490280	0.974800	0.560120
C3011	C301	0.809600	0.861200	0.468000
C3021	C302	0.771100	0.877500	0.473900
C3031	C303	0.703800	0.910300	0.475600
C3041	C304	0.667490	0.928410	0.475690
C3051	C305	0.598620	0.959200	0.482980
C3061	C306	0.560120	0.974800	0.490280
C3071	C307	0.861200	0.809600	0.861200
C3081	C308	0.877500	0.771100	0.877500
C3091	C309	0.910300	0.703800	0.910300
C3101	C310	0.928410	0.667490	0.928410
C3111	C311	0.959200	0.598620	0.959200
C3121	C312	0.974800	0.560120	0.974800
C3131	C313	0.861200	0.468000	0.809600
C3141	C314	0.877500	0.473900	0.771100
C3151	C315	0.910300	0.475600	0.703800
C3161	C316	0.928410	0.475690	0.667490
C3171	C317	0.959200	0.482980	0.598620
C3181	C318	0.974800	0.490280	0.560120
C3191	C319	0.809600	0.861200	0.861200
C3201	C320	0.771100	0.877500	0.877500
C3211	C321	0.703800	0.910300	0.910300
C3221	C322	0.667490	0.928410	0.928410
C3231	C323	0.598620	0.959200	0.959200
C3241	C324	0.560120	0.974800	0.974800
C3251	C325	0.468000	0.861200	0.861200
C3261	C326	0.473900	0.877500	0.877500
C3271	C327	0.475600	0.910300	0.910300
C3281	C328	0.475690	0.928410	0.928410
C3291	C329	0.482980	0.959200	0.959200
C3301	C330	0.490280	0.974800	0.974800
C3311	C331	0.861200	0.809600	0.468000
C3321	C332	0.877500	0.771100	0.473900
C3331	C333	0.910300	0.703800	0.475600
C3341	C334	0.928410	0.667490	0.475690
C3351	C335	0.959200	0.598620	0.482980
C3361	C336	0.974800	0.560120	0.490280
C3371	C337	0.809600	0.468000	0.861200
C3381	C338	0.771100	0.473900	0.877500
C3391	C339	0.703800	0.475600	0.910300
C3401	C340	0.667490	0.475690	0.928410
C3411	C341	0.598620	0.482980	0.959200
C3421	C342	0.560120	0.490280	0.974800
C3431	C343	0.861200	0.861200	0.468000
C3441	C344	0.877500	0.877500	0.473900
C3451	C345	0.910300	0.910300	0.475600
C3461	C346	0.928410	0.928410	0.475690
C3471	C347	0.959200	0.959200	0.482980
C3481	C348	0.974800	0.974800	0.490280
C3491	C349	0.861200	0.861200	0.809600
C3501	C350	0.877500	0.877500	0.771100
C3511	C351	0.910300	0.910300	0.703800
C3521	C352	0.928410	0.928410	0.667490
C3531	C353	0.959200	0.959200	0.598620
C3541	C354	0.974800	0.974800	0.560120
C3551	C355	0.468000	0.809600	0.861200
C3561	C356	0.473900	0.771100	0.877500
C3571	C357	0.475600	0.703800	0.910300
C3581	C358	0.475690	0.667490	0.928410
C3591	C359	0.482980	0.598620	0.959200
C3601	C360	0.490280	0.560120	0.974800
O11	O1	0.508610	0.042850	0.996030
O21	O2	0.042850	0.508610	0.452510
O31	O3	0.996030	0.452510	0.508610
O41	O4	0.452510	0.996030	0.042850
O51	O5	0.508610	0.996030	0.452510
O61	O6	0.042850	0.452510	0.996030
O71	O7	0.996030	0.508610	0.042850
O81	O8	0.452510	0.042850	0.508610
O91	O9	0.508610	0.452510	0.042850
O101	O10	0.042850	0.996030	0.508610
O111	O11	0.996030	0.042850	0.452510
O121	O12	0.452510	0.508610	0.996030
O131	O13	0.957150	0.491390	0.003970
O141	O14	0.491390	0.957150	0.547490
O151	O15	0.547490	0.003970	0.491390
O161	O16	0.003970	0.547490	0.957150
O171	O17	0.003970	0.491390	0.547490
O181	O18	0.547490	0.957150	0.003970
O191	O19	0.491390	0.003970	0.957150
O201	O20	0.957150	0.547490	0.491390
O211	O21	0.547490	0.491390	0.957150
O221	O22	0.003970	0.957150	0.491390
O231	O23	0.957150	0.003970	0.547490
O241	O24	0.491390	0.547490	0.003970
O251	O25	0.491390	0.957150	0.003970
O261	O26	0.957150	0.491390	0.547490
O271	O27	0.003970	0.547490	0.491390
O281	O28	0.547490	0.003970	0.957150
O291	O29	0.491390	0.003970	0.547490
O301	O30	0.957150	0.547490	0.003970
O311	O31	0.003970	0.491390	0.957150
O321	O32	0.547490	0.957150	0.491390
O331	O33	0.491390	0.547490	0.957150
O341	O34	0.957150	0.003970	0.491390
O351	O35	0.003970	0.957150	0.547490
O361	O36	0.547490	0.491390	0.003970
O371	O37	0.042850	0.508610	0.996030
O381	O38	0.508610	0.042850	0.452510
O391	O39	0.452510	0.996030	0.508610
O401	O40	0.996030	0.452510	0.042850
O411	O41	0.996030	0.508610	0.452510
O421	O42	0.452510	0.042850	0.996030
O431	O43	0.508610	0.996030	0.042850
O441	O44	0.042850	0.452510	0.508610
O451	O45	0.452510	0.508610	0.042850
O461	O46	0.996030	0.042850	0.508610
O471	O47	0.042850	0.996030	0.452510
O481	O48	0.508610	0.452510	0.996030
