data_BAZJET_clean_PM
_symmetry_space_group_name_H-M	'P1'
_cell_length_a	13.814000
_cell_length_b	20.792000
_cell_length_c	20.792000
_cell_angle_alpha	120.000000
_cell_angle_beta	90.000000
_cell_angle_gamma	90.000000
_symmetry_Int_Tables_number 1

loop_
_symmetry_equiv_pos_as_xyz
'x,y,z'

loop_
_atom_site_label
_atom_site_type_symbol
_atom_site_fract_x
_atom_site_fract_y
_atom_site_fract_z
Mn11	Mn1	0.250000	0.379480	0.780510
Mn21	Mn2	0.250000	0.401030	0.620520
Mn31	Mn3	0.250000	0.219490	0.598970
Mn41	Mn4	0.750000	0.620520	0.219490
Mn51	Mn5	0.750000	0.598970	0.379480
Mn61	Mn6	0.750000	0.780510	0.401030
H11	H1	0.452400	0.410300	0.858800
H21	H2	0.472700	0.634000	0.949200
H31	H3	0.483200	0.353500	0.937900
H41	H4	0.452400	0.448500	0.589700
H51	H5	0.472700	0.315200	0.366000
H61	H6	0.483200	0.584400	0.646500
H71	H7	0.452400	0.141200	0.551500
H81	H8	0.472700	0.050800	0.684800
H91	H9	0.483200	0.062100	0.415600
H101	H10	0.952400	0.589700	0.141200
H111	H11	0.972700	0.366000	0.050800
H121	H12	0.983200	0.646500	0.062100
H131	H13	0.952400	0.551500	0.410300
H141	H14	0.972700	0.684800	0.634000
H151	H15	0.983200	0.415600	0.353500
H161	H16	0.952400	0.858800	0.448500
H171	H17	0.972700	0.949200	0.315200
H181	H18	0.983200	0.937900	0.584400
H191	H19	0.547600	0.589700	0.141200
H201	H20	0.527300	0.366000	0.050800
H211	H21	0.516800	0.646500	0.062100
H221	H22	0.547600	0.551500	0.410300
H231	H23	0.527300	0.684800	0.634000
H241	H24	0.516800	0.415600	0.353500
H251	H25	0.547600	0.858800	0.448500
H261	H26	0.527300	0.949200	0.315200
H271	H27	0.516800	0.937900	0.584400
H281	H28	0.047600	0.410300	0.858800
H291	H29	0.027300	0.634000	0.949200
H301	H30	0.016800	0.353500	0.937900
H311	H31	0.047600	0.448500	0.589700
H321	H32	0.027300	0.315200	0.366000
H331	H33	0.016800	0.584400	0.646500
H341	H34	0.047600	0.141200	0.551500
H351	H35	0.027300	0.050800	0.684800
H361	H36	0.016800	0.062100	0.415600
C11	C1	0.490700	0.463990	0.969050
C21	C2	0.464400	0.457950	0.900550
C31	C3	0.455940	0.519830	0.893290
C41	C4	0.476800	0.591290	0.954630
C51	C5	0.497200	0.401450	0.978610
C61	C6	0.424240	0.511940	0.822260
C71	C7	0.490700	0.505060	0.536010
C81	C8	0.464400	0.442600	0.542050
C91	C9	0.455940	0.373460	0.480170
C101	C10	0.476800	0.363340	0.408710
C111	C11	0.497200	0.577160	0.598550
C121	C12	0.424240	0.310320	0.488060
C131	C13	0.490700	0.030950	0.494940
C141	C14	0.464400	0.099450	0.557400
C151	C15	0.455940	0.106710	0.626540
C161	C16	0.476800	0.045370	0.636660
C171	C17	0.497200	0.021390	0.422840
C181	C18	0.424240	0.177740	0.689680
C191	C19	0.990700	0.536010	0.030950
C201	C20	0.964400	0.542050	0.099450
C211	C21	0.955940	0.480170	0.106710
C221	C22	0.976800	0.408710	0.045370
C231	C23	0.997200	0.598550	0.021390
C241	C24	0.924240	0.488060	0.177740
C251	C25	0.990700	0.494940	0.463990
C261	C26	0.964400	0.557400	0.457950
C271	C27	0.955940	0.626540	0.519830
C281	C28	0.976800	0.636660	0.591290
C291	C29	0.997200	0.422840	0.401450
C301	C30	0.924240	0.689680	0.511940
C311	C31	0.990700	0.969050	0.505060
C321	C32	0.964400	0.900550	0.442600
C331	C33	0.955940	0.893290	0.373460
C341	C34	0.976800	0.954630	0.363340
C351	C35	0.997200	0.978610	0.577160
C361	C36	0.924240	0.822260	0.310320
C371	C37	0.509300	0.536010	0.030950
C381	C38	0.535600	0.542050	0.099450
C391	C39	0.544060	0.480170	0.106710
C401	C40	0.523200	0.408710	0.045370
C411	C41	0.502800	0.598550	0.021390
C421	C42	0.575760	0.488060	0.177740
C431	C43	0.509300	0.494940	0.463990
C441	C44	0.535600	0.557400	0.457950
C451	C45	0.544060	0.626540	0.519830
C461	C46	0.523200	0.636660	0.591290
C471	C47	0.502800	0.422840	0.401450
C481	C48	0.575760	0.689680	0.511940
C491	C49	0.509300	0.969050	0.505060
C501	C50	0.535600	0.900550	0.442600
C511	C51	0.544060	0.893290	0.373460
C521	C52	0.523200	0.954630	0.363340
C531	C53	0.502800	0.978610	0.577160
C541	C54	0.575760	0.822260	0.310320
C551	C55	0.009300	0.463990	0.969050
C561	C56	0.035600	0.457950	0.900550
C571	C57	0.044060	0.519830	0.893290
C581	C58	0.023200	0.591290	0.954630
C591	C59	0.002800	0.401450	0.978610
C601	C60	0.075760	0.511940	0.822260
C611	C61	0.009300	0.505060	0.536010
C621	C62	0.035600	0.442600	0.542050
C631	C63	0.044060	0.373460	0.480170
C641	C64	0.023200	0.363340	0.408710
C651	C65	0.002800	0.577160	0.598550
C661	C66	0.075760	0.310320	0.488060
C671	C67	0.009300	0.030950	0.494940
C681	C68	0.035600	0.099450	0.557400
C691	C69	0.044060	0.106710	0.626540
C701	C70	0.023200	0.045370	0.636660
C711	C71	0.002800	0.021390	0.422840
C721	C72	0.075760	0.177740	0.689680
N11	N1	0.363200	0.459370	0.775880
N21	N2	0.355990	0.471180	0.717390
N31	N3	0.409210	0.528430	0.729230
N41	N4	0.453550	0.555760	0.795820
N51	N5	0.363200	0.316510	0.540630
N61	N6	0.355990	0.246210	0.528820
N71	N7	0.409210	0.200800	0.471570
N81	N8	0.453550	0.240060	0.444240
N91	N9	0.363200	0.224120	0.683490
N101	N10	0.355990	0.282610	0.753790
N111	N11	0.409210	0.270770	0.799200
N121	N12	0.453550	0.204180	0.759940
N131	N13	0.863200	0.540630	0.224120
N141	N14	0.855990	0.528820	0.282610
N151	N15	0.909210	0.471570	0.270770
N161	N16	0.953550	0.444240	0.204180
N171	N17	0.863200	0.683490	0.459370
N181	N18	0.855990	0.753790	0.471180
N191	N19	0.909210	0.799200	0.528430
N201	N20	0.953550	0.759940	0.555760
N211	N21	0.863200	0.775880	0.316510
N221	N22	0.855990	0.717390	0.246210
N231	N23	0.909210	0.729230	0.200800
N241	N24	0.953550	0.795820	0.240060
N251	N25	0.636800	0.540630	0.224120
N261	N26	0.644010	0.528820	0.282610
N271	N27	0.590790	0.471570	0.270770
N281	N28	0.546450	0.444240	0.204180
N291	N29	0.636800	0.683490	0.459370
N301	N30	0.644010	0.753790	0.471180
N311	N31	0.590790	0.799200	0.528430
N321	N32	0.546450	0.759940	0.555760
N331	N33	0.636800	0.775880	0.316510
N341	N34	0.644010	0.717390	0.246210
N351	N35	0.590790	0.729230	0.200800
N361	N36	0.546450	0.795820	0.240060
N371	N37	0.136800	0.459370	0.775880
N381	N38	0.144010	0.471180	0.717390
N391	N39	0.090790	0.528430	0.729230
N401	N40	0.046450	0.555760	0.795820
N411	N41	0.136800	0.316510	0.540630
N421	N42	0.144010	0.246210	0.528820
N431	N43	0.090790	0.200800	0.471570
N441	N44	0.046450	0.240060	0.444240
N451	N45	0.136800	0.224120	0.683490
N461	N46	0.144010	0.282610	0.753790
N471	N47	0.090790	0.270770	0.799200
N481	N48	0.046450	0.204180	0.759940
O11	O1	0.250000	0.333330	0.666660
O21	O2	0.750000	0.666670	0.333340
