data_BAZJIX_clean_PM
_symmetry_space_group_name_H-M	'P1'
_cell_length_a	15.904000
_cell_length_b	20.042500
_cell_length_c	21.504300
_cell_angle_alpha	80.114600
_cell_angle_beta	68.297600
_cell_angle_gamma	66.624400
_symmetry_Int_Tables_number 1

loop_
_symmetry_equiv_pos_as_xyz
'x,y,z'

loop_
_atom_site_label
_atom_site_type_symbol
_atom_site_fract_x
_atom_site_fract_y
_atom_site_fract_z
Mn11	Mn1	0.850380	0.153650	0.872150
Mn21	Mn2	0.888230	0.309920	0.912900
Mn31	Mn3	0.876180	0.346350	0.627850
Mn41	Mn4	0.111050	0.190080	0.587100
Mn51	Mn5	0.149620	0.846350	0.127850
Mn61	Mn6	0.111770	0.690080	0.087100
Mn71	Mn7	0.123820	0.653650	0.372150
Mn81	Mn8	0.888950	0.809920	0.412900
Mn91	Mn9	0.000700	0.250000	0.750000
Mn101	Mn10	0.999300	0.750000	0.250000
H11	H1	0.015900	0.373800	0.963200
H21	H2	0.034200	0.543200	0.832600
H31	H3	0.986000	0.387600	0.083800
H41	H4	0.025300	0.109400	0.535600
H51	H5	0.912400	0.973500	0.671500
H61	H6	0.924900	0.909900	0.586500
H71	H7	0.577500	0.145500	0.126700
H81	H8	0.611000	0.320200	0.171000
H91	H9	0.508100	0.378800	0.281800
H101	H10	0.391200	0.380800	0.385600
H111	H11	0.363700	0.202200	0.342600
H121	H12	0.464200	0.145300	0.231300
H131	H13	0.352900	0.126200	0.536800
H141	H14	0.410000	0.956800	0.667400
H151	H15	0.457400	0.112400	0.416200
H161	H16	0.670300	0.390600	0.964400
H171	H17	0.557400	0.526500	0.828500
H181	H18	0.421300	0.590100	0.913500
H191	H19	0.849700	0.354500	0.373300
H201	H20	0.102200	0.179800	0.329000
H211	H21	0.168700	0.121200	0.218200
H221	H22	0.157600	0.119200	0.114400
H231	H23	0.908500	0.297800	0.157400
H241	H24	0.840800	0.354700	0.268700
H251	H25	0.984100	0.626200	0.036800
H261	H26	0.965800	0.456800	0.167400
H271	H27	0.014000	0.612400	0.916200
H281	H28	0.974700	0.890600	0.464400
H291	H29	0.087600	0.026500	0.328500
H301	H30	0.075100	0.090100	0.413500
H311	H31	0.422500	0.854500	0.873300
H321	H32	0.389000	0.679800	0.829000
H331	H33	0.491900	0.621200	0.718200
H341	H34	0.608800	0.619200	0.614400
H351	H35	0.636300	0.797800	0.657400
H361	H36	0.535800	0.854700	0.768700
H371	H37	0.647100	0.873800	0.463200
H381	H38	0.590000	0.043200	0.332600
H391	H39	0.542600	0.887600	0.583800
H401	H40	0.329700	0.609400	0.035600
H411	H41	0.442600	0.473500	0.171500
H421	H42	0.578700	0.409900	0.086500
H431	H43	0.150300	0.645500	0.626700
H441	H44	0.897800	0.820200	0.671000
H451	H45	0.831300	0.878800	0.781800
H461	H46	0.842400	0.880800	0.885600
H471	H47	0.091500	0.702200	0.842600
H481	H48	0.159200	0.645300	0.731300
C11	C1	0.038280	0.409800	0.835440
C21	C2	0.001260	0.463770	0.006510
C31	C3	0.014250	0.422440	0.954260
C41	C4	0.024510	0.452550	0.890430
C51	C5	0.025090	0.523470	0.876950
C61	C6	0.987110	0.435340	0.073440
C71	C7	0.960590	0.087560	0.665780
C81	C8	0.006180	0.068540	0.545440
C91	C9	0.970240	0.047030	0.610810
C101	C10	0.938730	0.987400	0.626140
C111	C11	0.946070	0.949890	0.575770
C121	C12	0.015010	0.030050	0.492570
C131	C13	0.680400	0.230910	0.072690
C141	C14	0.560990	0.180730	0.157890
C151	C15	0.607480	0.232850	0.139390
C161	C16	0.581040	0.285050	0.183470
C171	C17	0.509520	0.287730	0.247630
C181	C18	0.479730	0.342670	0.293870
C191	C19	0.410580	0.343840	0.355400
C201	C20	0.367640	0.290170	0.374550
C211	C21	0.394000	0.237090	0.330310
C221	C22	0.466380	0.234620	0.266620
C231	C23	0.493500	0.180870	0.219530
C241	C24	0.294120	0.290190	0.441170
C251	C25	0.283520	0.090200	0.664560
C261	C26	0.471540	0.036230	0.493490
C271	C27	0.390950	0.077560	0.545740
C281	C28	0.367490	0.047450	0.609570
C291	C29	0.425510	0.976530	0.623050
C301	C30	0.495890	0.064660	0.426560
C311	C31	0.713930	0.412440	0.834220
C321	C32	0.620160	0.431460	0.954560
C331	C33	0.628080	0.452970	0.889190
C341	C34	0.552270	0.512600	0.873860
C351	C35	0.471730	0.550110	0.924230
C361	C36	0.537630	0.469950	0.007430
C371	C37	0.984000	0.269090	0.427310
C381	C38	0.899610	0.319270	0.342110
C391	C39	0.979720	0.267150	0.360610
C401	C40	0.049560	0.214950	0.316530
C411	C41	0.044880	0.212270	0.252370
C421	C42	0.116270	0.157330	0.206130
C431	C43	0.109820	0.156160	0.144600
C441	C44	0.032360	0.209830	0.125450
C451	C45	0.961400	0.262910	0.169690
C461	C46	0.967620	0.265380	0.233380
C471	C47	0.893900	0.319130	0.280470
C481	C48	0.025480	0.209810	0.058830
C491	C49	0.961720	0.590200	0.164560
C501	C50	0.998740	0.536230	0.993490
C511	C51	0.985750	0.577560	0.045740
C521	C52	0.975490	0.547450	0.109570
C531	C53	0.974910	0.476530	0.123050
C541	C54	0.012890	0.564660	0.926560
C551	C55	0.039410	0.912440	0.334220
C561	C56	0.993820	0.931460	0.454560
C571	C57	0.029760	0.952970	0.389190
C581	C58	0.061270	0.012600	0.373860
C591	C59	0.053930	0.050110	0.424230
C601	C60	0.984990	0.969950	0.507430
C611	C61	0.319600	0.769090	0.927310
C621	C62	0.439010	0.819270	0.842110
C631	C63	0.392520	0.767150	0.860610
C641	C64	0.418960	0.714950	0.816530
C651	C65	0.490480	0.712270	0.752370
C661	C66	0.520270	0.657330	0.706130
C671	C67	0.589420	0.656160	0.644600
C681	C68	0.632360	0.709830	0.625450
C691	C69	0.606000	0.762910	0.669690
C701	C70	0.533620	0.765380	0.733380
C711	C71	0.506500	0.819130	0.780470
C721	C72	0.705880	0.709810	0.558830
C731	C73	0.716480	0.909800	0.335440
C741	C74	0.528460	0.963770	0.506510
C751	C75	0.609050	0.922440	0.454260
C761	C76	0.632510	0.952550	0.390430
C771	C77	0.574490	0.023470	0.376950
C781	C78	0.504110	0.935340	0.573440
C791	C79	0.286070	0.587560	0.165780
C801	C80	0.379840	0.568540	0.045440
C811	C81	0.371920	0.547030	0.110810
C821	C82	0.447730	0.487400	0.126140
C831	C83	0.528270	0.449890	0.075770
C841	C84	0.462370	0.530050	0.992570
C851	C85	0.016000	0.730910	0.572690
C861	C86	0.100390	0.680730	0.657890
C871	C87	0.020280	0.732850	0.639390
C881	C88	0.950440	0.785050	0.683470
C891	C89	0.955120	0.787730	0.747630
C901	C90	0.883730	0.842670	0.793870
C911	C91	0.890180	0.843840	0.855400
C921	C92	0.967640	0.790170	0.874550
C931	C93	0.038600	0.737090	0.830310
C941	C94	0.032380	0.734620	0.766620
C951	C95	0.106100	0.680870	0.719530
C961	C96	0.974520	0.790190	0.941170
N11	N1	0.005050	0.356410	0.842050
N21	N2	0.038810	0.332940	0.778700
N31	N3	0.089520	0.371060	0.737140
N41	N4	0.090650	0.419900	0.771600
N51	N5	0.998210	0.138870	0.658610
N61	N6	0.966680	0.162980	0.720760
N71	N7	0.913390	0.127330	0.762810
N81	N8	0.908460	0.079050	0.729410
N91	N9	0.713680	0.179070	0.028170
N101	N10	0.777360	0.198970	0.975250
N111	N11	0.780910	0.259290	0.987650
N121	N12	0.721150	0.280830	0.049130
N131	N13	0.269010	0.233500	0.465940
N141	N14	0.202210	0.255310	0.525910
N151	N15	0.185670	0.322770	0.535550
N161	N16	0.246160	0.345800	0.482680
N171	N17	0.203510	0.143590	0.657950
N181	N18	0.150450	0.167060	0.721300
N191	N19	0.197720	0.128940	0.762860
N201	N20	0.282150	0.080100	0.728400
N211	N21	0.795690	0.361130	0.841390
N221	N22	0.850420	0.337020	0.779240
N231	N23	0.803530	0.372670	0.737190
N241	N24	0.716920	0.420950	0.770590
N251	N25	0.920920	0.320930	0.471830
N261	N26	0.951580	0.301030	0.524750
N271	N27	0.027850	0.240710	0.512350
N281	N28	0.051110	0.219170	0.450870
N291	N29	0.968450	0.266500	0.034060
N301	N30	0.983430	0.244690	0.974090
N311	N31	0.043990	0.177230	0.964450
N321	N32	0.074640	0.154200	0.017320
N331	N33	0.994950	0.643590	0.157950
N341	N34	0.961190	0.667060	0.221300
N351	N35	0.910480	0.628940	0.262860
N361	N36	0.909350	0.580100	0.228400
N371	N37	0.001790	0.861130	0.341390
N381	N38	0.033320	0.837020	0.279240
N391	N39	0.086610	0.872670	0.237190
N401	N40	0.091540	0.920950	0.270590
N411	N41	0.286320	0.820930	0.971830
N421	N42	0.222640	0.801030	0.024750
N431	N43	0.219090	0.740710	0.012350
N441	N44	0.278850	0.719170	0.950870
N451	N45	0.730990	0.766500	0.534060
N461	N46	0.797790	0.744690	0.474090
N471	N47	0.814330	0.677230	0.464450
N481	N48	0.753840	0.654200	0.517320
N491	N49	0.796490	0.856410	0.342050
N501	N50	0.849550	0.832940	0.278700
N511	N51	0.802280	0.871060	0.237140
N521	N52	0.717850	0.919900	0.271600
N531	N53	0.204310	0.638870	0.158610
N541	N54	0.149580	0.662980	0.220760
N551	N55	0.196470	0.627330	0.262810
N561	N56	0.283080	0.579050	0.229410
N571	N57	0.079080	0.679070	0.528170
N581	N58	0.048420	0.698970	0.475250
N591	N59	0.972150	0.759290	0.487650
N601	N60	0.948890	0.780830	0.549130
N611	N61	0.031550	0.733500	0.965940
N621	N62	0.016570	0.755310	0.025910
N631	N63	0.956010	0.822770	0.035550
N641	N64	0.925360	0.845800	0.982680
O11	O1	0.946210	0.215500	0.852720
O21	O2	0.014430	0.284500	0.647280
O31	O3	0.053790	0.784500	0.147280
O41	O4	0.985570	0.715500	0.352720
