data_BEFNUX_clean_PM
_symmetry_space_group_name_H-M	'P1'
_cell_length_a	8.909100
_cell_length_b	14.974800
_cell_length_c	14.789100
_cell_angle_alpha	90.000000
_cell_angle_beta	90.000000
_cell_angle_gamma	90.000000
_symmetry_Int_Tables_number 1

loop_
_symmetry_equiv_pos_as_xyz
'x,y,z'

loop_
_atom_site_label
_atom_site_type_symbol
_atom_site_fract_x
_atom_site_fract_y
_atom_site_fract_z
Co11	Co1	0.155600	0.844700	0.382100
P11	P1	0.826800	0.134000	0.102100
O11	O1	0.756500	0.226400	0.120700
O21	O2	0.045500	0.350900	0.163100
O31	O3	0.730300	0.063800	0.135300
O41	O4	0.851400	0.115200	0.004700
O51	O5	0.976700	0.139200	0.128800
O61	O6	0.317500	0.905100	0.314600
O71	O7	0.193000	0.029600	0.202000
Co21	Co2	0.844400	0.155300	0.882100
P21	P2	0.173200	0.866000	0.602100
O81	O8	0.243500	0.773600	0.620700
O91	O9	0.954500	0.649100	0.663100
O101	O10	0.269700	0.936200	0.635300
O111	O11	0.148600	0.884800	0.504700
O121	O12	0.023300	0.860800	0.628800
O131	O13	0.682500	0.094900	0.814600
O141	O14	0.807000	0.970400	0.702000
Co31	Co3	0.844400	0.344700	0.117900
P31	P3	0.173200	0.634000	0.397900
O151	O15	0.243500	0.726400	0.379300
O161	O16	0.954500	0.850900	0.336900
O171	O17	0.269700	0.563800	0.364700
O181	O18	0.148600	0.615200	0.495300
O191	O19	0.023300	0.639200	0.371200
O201	O20	0.682500	0.405100	0.185400
O211	O21	0.807000	0.529600	0.298000
Co41	Co4	0.155600	0.655300	0.617900
P41	P4	0.826800	0.366000	0.897900
O221	O22	0.756500	0.273600	0.879300
O231	O23	0.045500	0.149100	0.836900
O241	O24	0.730300	0.436200	0.864700
O251	O25	0.851400	0.384800	0.995300
O261	O26	0.976700	0.360800	0.871200
O271	O27	0.317500	0.594900	0.685400
O281	O28	0.193000	0.470400	0.798000
Co51	Co5	0.844400	0.155300	0.617900
P51	P5	0.173200	0.866000	0.897900
O291	O29	0.243500	0.773600	0.879300
O301	O30	0.954500	0.649100	0.836900
O311	O31	0.269700	0.936200	0.864700
O321	O32	0.148600	0.884800	0.995300
O331	O33	0.023300	0.860800	0.871200
O341	O34	0.682500	0.094900	0.685400
O351	O35	0.807000	0.970400	0.798000
Co61	Co6	0.155600	0.844700	0.117900
P61	P6	0.826800	0.134000	0.397900
O361	O36	0.756500	0.226400	0.379300
O371	O37	0.045500	0.350900	0.336900
O381	O38	0.730300	0.063800	0.364700
O391	O39	0.851400	0.115200	0.495300
O401	O40	0.976700	0.139200	0.371200
O411	O41	0.317500	0.905100	0.185400
O421	O42	0.193000	0.029600	0.298000
Co71	Co7	0.155600	0.655300	0.882100
P71	P7	0.826800	0.366000	0.602100
O431	O43	0.756500	0.273600	0.620700
O441	O44	0.045500	0.149100	0.663100
O451	O45	0.730300	0.436200	0.635300
O461	O46	0.851400	0.384800	0.504700
O471	O47	0.976700	0.360800	0.628800
O481	O48	0.317500	0.594900	0.814600
O491	O49	0.193000	0.470400	0.702000
Co81	Co8	0.844400	0.344700	0.382100
P81	P8	0.173200	0.634000	0.102100
O501	O50	0.243500	0.726400	0.120700
O511	O51	0.954500	0.850900	0.163100
O521	O52	0.269700	0.563800	0.135300
O531	O53	0.148600	0.615200	0.004700
O541	O54	0.023300	0.639200	0.128800
O551	O55	0.682500	0.405100	0.314600
O561	O56	0.807000	0.529600	0.202000
Co91	Co9	0.669500	0.006700	0.250000
Ga11	Ga1	0.077500	0.130200	0.250000
P91	P9	0.311300	0.975900	0.250000
P101	P10	0.136300	0.330600	0.250000
O571	O57	0.185200	0.232600	0.250000
O581	O58	0.285100	0.379800	0.250000
O591	O59	0.454300	0.030000	0.250000
Co101	Co10	0.330500	0.993300	0.750000
Ga21	Ga2	0.922500	0.869800	0.750000
P111	P11	0.688700	0.024100	0.750000
P121	P12	0.863700	0.669400	0.750000
O601	O60	0.814800	0.767400	0.750000
O611	O61	0.714900	0.620200	0.750000
O621	O62	0.545700	0.970000	0.750000
Co111	Co11	0.330500	0.506700	0.250000
Ga31	Ga3	0.922500	0.630200	0.250000
P131	P13	0.688700	0.475900	0.250000
P141	P14	0.863700	0.830600	0.250000
O631	O63	0.814800	0.732600	0.250000
O641	O64	0.714900	0.879800	0.250000
O651	O65	0.545700	0.530000	0.250000
Co121	Co12	0.669500	0.493300	0.750000
Ga41	Ga4	0.077500	0.369800	0.750000
P151	P15	0.311300	0.524100	0.750000
P161	P16	0.136300	0.169400	0.750000
O661	O66	0.185200	0.267400	0.750000
O671	O67	0.285100	0.120200	0.750000
O681	O68	0.454300	0.470000	0.750000
