data_BEFPAF_clean_PM
_symmetry_space_group_name_H-M	'P1'
_cell_length_a	13.911000
_cell_length_b	12.772200
_cell_length_c	18.634000
_cell_angle_alpha	90.000000
_cell_angle_beta	90.359000
_cell_angle_gamma	90.000000
_symmetry_Int_Tables_number 1

loop_
_symmetry_equiv_pos_as_xyz
'x,y,z'

loop_
_atom_site_label
_atom_site_type_symbol
_atom_site_fract_x
_atom_site_fract_y
_atom_site_fract_z
Al11	Al1	0.106900	0.038800	0.163400
Al21	Al2	0.769500	0.906700	0.047400
Al31	Al3	0.883400	0.222500	0.060600
Co11	Co1	0.116600	0.777500	0.939400
P11	P1	0.231000	0.900400	0.058900
P21	P2	0.109200	0.233600	0.061100
P31	P3	0.881100	0.029900	0.165500
O11	O1	0.813200	0.949800	0.130800
O21	O2	0.142900	0.175700	0.995200
O31	O3	0.005600	0.259700	0.051300
O41	O4	0.157200	0.833400	0.021700
O51	O5	0.190100	0.944100	0.126500
O61	O6	0.981600	0.994900	0.155200
O71	O7	0.864400	0.136800	0.131800
O81	O8	0.164500	0.335800	0.069100
O91	O9	0.856700	0.037000	0.243100
O101	O10	0.317700	0.835900	0.080200
O111	O11	0.126300	0.170600	0.127600
O121	O12	0.265300	0.986900	0.009900
Al41	Al4	0.606900	0.538800	0.163400
Al51	Al5	0.269500	0.406700	0.047400
Al61	Al6	0.383400	0.722500	0.060600
Co21	Co2	0.616600	0.277500	0.939400
P41	P4	0.731000	0.400400	0.058900
P51	P5	0.609200	0.733600	0.061100
P61	P6	0.381100	0.529900	0.165500
O131	O13	0.313200	0.449800	0.130800
O141	O14	0.642900	0.675700	0.995200
O151	O15	0.505600	0.759700	0.051300
O161	O16	0.657200	0.333400	0.021700
O171	O17	0.690100	0.444100	0.126500
O181	O18	0.481600	0.494900	0.155200
O191	O19	0.364400	0.636800	0.131800
O201	O20	0.664500	0.835800	0.069100
O211	O21	0.356700	0.537000	0.243100
O221	O22	0.817700	0.335900	0.080200
O231	O23	0.626300	0.670600	0.127600
O241	O24	0.765300	0.486900	0.009900
Al71	Al7	0.893100	0.038800	0.336600
Al81	Al8	0.230500	0.906700	0.452600
Al91	Al9	0.116600	0.222500	0.439400
Co31	Co3	0.883400	0.777500	0.560600
P71	P7	0.769000	0.900400	0.441100
P81	P8	0.890800	0.233600	0.438900
P91	P9	0.118900	0.029900	0.334500
O251	O25	0.186800	0.949800	0.369200
O261	O26	0.857100	0.175700	0.504800
O271	O27	0.994400	0.259700	0.448700
O281	O28	0.842800	0.833400	0.478300
O291	O29	0.809900	0.944100	0.373500
O301	O30	0.018400	0.994900	0.344800
O311	O31	0.135600	0.136800	0.368200
O321	O32	0.835500	0.335800	0.430900
O331	O33	0.143300	0.037000	0.256900
O341	O34	0.682300	0.835900	0.419800
O351	O35	0.873700	0.170600	0.372400
O361	O36	0.734700	0.986900	0.490100
Al101	Al10	0.393100	0.538800	0.336600
Al111	Al11	0.730500	0.406700	0.452600
Al121	Al12	0.616600	0.722500	0.439400
Co41	Co4	0.383400	0.277500	0.560600
P101	P10	0.269000	0.400400	0.441100
P111	P11	0.390800	0.733600	0.438900
P121	P12	0.618900	0.529900	0.334500
O371	O37	0.686800	0.449800	0.369200
O381	O38	0.357100	0.675700	0.504800
O391	O39	0.494400	0.759700	0.448700
O401	O40	0.342800	0.333400	0.478300
O411	O41	0.309900	0.444100	0.373500
O421	O42	0.518400	0.494900	0.344800
O431	O43	0.635600	0.636800	0.368200
O441	O44	0.335500	0.835800	0.430900
O451	O45	0.643300	0.537000	0.256900
O461	O46	0.182300	0.335900	0.419800
O471	O47	0.373700	0.670600	0.372400
O481	O48	0.234700	0.486900	0.490100
Al131	Al13	0.893100	0.961200	0.836600
Al141	Al14	0.230500	0.093300	0.952600
P131	P13	0.769000	0.099600	0.941100
P141	P14	0.890800	0.766400	0.938900
P151	P15	0.118900	0.970100	0.834500
O491	O49	0.186800	0.050200	0.869200
O501	O50	0.857100	0.824300	0.004800
O511	O51	0.994400	0.740300	0.948700
O521	O52	0.842800	0.166600	0.978300
O531	O53	0.809900	0.055900	0.873500
O541	O54	0.018400	0.005100	0.844800
O551	O55	0.135600	0.863200	0.868200
O561	O56	0.835500	0.664200	0.930900
O571	O57	0.143300	0.963000	0.756900
O581	O58	0.682300	0.164100	0.919800
O591	O59	0.873700	0.829400	0.872400
O601	O60	0.734700	0.013100	0.990100
Al151	Al15	0.393100	0.461200	0.836600
Al161	Al16	0.730500	0.593300	0.952600
P161	P16	0.269000	0.599600	0.941100
P171	P17	0.390800	0.266400	0.938900
P181	P18	0.618900	0.470100	0.834500
O611	O61	0.686800	0.550200	0.869200
O621	O62	0.357100	0.324300	0.004800
O631	O63	0.494400	0.240300	0.948700
O641	O64	0.342800	0.666600	0.978300
O651	O65	0.309900	0.555900	0.873500
O661	O66	0.518400	0.505100	0.844800
O671	O67	0.635600	0.363200	0.868200
O681	O68	0.335500	0.164200	0.930900
O691	O69	0.643300	0.463000	0.756900
O701	O70	0.182300	0.664100	0.919800
O711	O71	0.373700	0.329400	0.872400
O721	O72	0.234700	0.513100	0.990100
Al171	Al17	0.106900	0.961200	0.663400
Al181	Al18	0.769500	0.093300	0.547400
P191	P19	0.231000	0.099600	0.558900
P201	P20	0.109200	0.766400	0.561100
P211	P21	0.881100	0.970100	0.665500
O731	O73	0.813200	0.050200	0.630800
O741	O74	0.142900	0.824300	0.495200
O751	O75	0.005600	0.740300	0.551300
O761	O76	0.157200	0.166600	0.521700
O771	O77	0.190100	0.055900	0.626500
O781	O78	0.981600	0.005100	0.655200
O791	O79	0.864400	0.863200	0.631800
O801	O80	0.164500	0.664200	0.569100
O811	O81	0.856700	0.963000	0.743100
O821	O82	0.317700	0.164100	0.580200
O831	O83	0.126300	0.829400	0.627600
O841	O84	0.265300	0.013100	0.509900
Al191	Al19	0.606900	0.461200	0.663400
Al201	Al20	0.269500	0.593300	0.547400
P221	P22	0.731000	0.599600	0.558900
P231	P23	0.609200	0.266400	0.561100
P241	P24	0.381100	0.470100	0.665500
O851	O85	0.313200	0.550200	0.630800
O861	O86	0.642900	0.324300	0.495200
O871	O87	0.505600	0.240300	0.551300
O881	O88	0.657200	0.666600	0.521700
O891	O89	0.690100	0.555900	0.626500
O901	O90	0.481600	0.505100	0.655200
O911	O91	0.364400	0.363200	0.631800
O921	O92	0.664500	0.164200	0.569100
O931	O93	0.356700	0.463000	0.743100
O941	O94	0.817700	0.664100	0.580200
O951	O95	0.626300	0.329400	0.627600
O961	O96	0.765300	0.513100	0.509900
