data_BELJIL_clean_PM
_symmetry_space_group_name_H-M	'P1'
_cell_length_a	13.326000
_cell_length_b	15.455400
_cell_length_c	15.455400
_cell_angle_alpha	67.908000
_cell_angle_beta	73.297200
_cell_angle_gamma	106.703000
_symmetry_Int_Tables_number 1

loop_
_symmetry_equiv_pos_as_xyz
'x,y,z'

loop_
_atom_site_label
_atom_site_type_symbol
_atom_site_fract_x
_atom_site_fract_y
_atom_site_fract_z
Cu11	Cu1	0.260500	0.490500	0.903200
Cu21	Cu2	0.163700	0.903200	0.606300
Cu31	Cu3	0.770000	0.606300	0.490500
H11	H1	0.379010	0.795020	0.613990
H21	H2	0.273010	0.701020	0.618990
H31	H3	0.299010	0.824020	0.555990
H41	H4	0.036010	0.818020	0.834990
H51	H5	0.060000	0.715000	0.056000
H61	H6	0.967000	0.744000	0.013000
H71	H7	0.070000	0.520000	0.110000
H81	H8	0.110000	0.423000	0.178000
H91	H9	0.287000	0.462000	0.199000
H101	H10	0.193000	0.604000	0.146000
H111	H11	0.256000	0.587000	0.225000
H121	H12	0.346000	0.639000	0.091000
H131	H13	0.408000	0.622000	0.975000
H141	H14	0.471000	0.604000	0.056000
H151	H15	0.421000	0.512000	0.027000
H161	H16	0.993000	0.613990	0.590990
H171	H17	0.892000	0.618990	0.679990
H181	H18	0.855000	0.555990	0.619990
H191	H19	0.871000	0.834990	0.346990
H201	H20	0.116000	0.056000	0.229000
H211	H21	0.980000	0.013000	0.243000
H221	H22	0.180000	0.110000	0.370000
H231	H23	0.288000	0.178000	0.399000
H241	H24	0.486000	0.199000	0.339000
H251	H25	0.339000	0.146000	0.250000
H261	H26	0.481000	0.225000	0.188000
H271	H27	0.437000	0.091000	0.270000
H281	H28	0.383000	0.975000	0.403000
H291	H29	0.527000	0.056000	0.340000
H301	H30	0.448000	0.027000	0.461000
H311	H31	0.583990	0.590990	0.795020
H321	H32	0.571990	0.679990	0.701020
H331	H33	0.474990	0.619990	0.824020
H341	H34	0.217990	0.346990	0.818020
H351	H35	0.345000	0.229000	0.715000
H361	H36	0.223000	0.243000	0.744000
H371	H37	0.550000	0.370000	0.520000
H381	H38	0.687000	0.399000	0.423000
H391	H39	0.825000	0.339000	0.462000
H401	H40	0.589000	0.250000	0.604000
H411	H41	0.669000	0.188000	0.587000
H421	H42	0.707000	0.270000	0.639000
H431	H43	0.786000	0.403000	0.622000
H441	H44	0.867000	0.340000	0.604000
H451	H45	0.909000	0.461000	0.512000
C11	C1	0.215900	0.666800	0.814300
C21	C2	0.218310	0.741120	0.727490
C31	C3	0.293310	0.766620	0.623090
C41	C4	0.087910	0.775820	0.830290
C51	C5	0.077000	0.705610	0.919110
C61	C6	0.001600	0.689900	0.028500
C71	C7	0.141800	0.644100	0.917900
C81	C8	0.137600	0.576400	0.011600
C91	C9	0.192700	0.452600	0.112500
C101	C10	0.208400	0.357800	0.112200
C111	C11	0.282400	0.513000	0.134800
C121	C12	0.263300	0.599600	0.153000
C131	C13	0.406000	0.565700	0.041400
C141	C14	0.030200	0.814300	0.518900
C151	C15	0.945800	0.727490	0.531390
C161	C16	0.916400	0.623090	0.610290
C171	C17	0.918200	0.830290	0.393890
C181	C18	0.996110	0.919110	0.375280
C191	C19	0.030100	0.028500	0.281600
C201	C20	0.059700	0.917900	0.438000
C211	C21	0.149200	0.011600	0.412000
C221	C22	0.305200	0.112500	0.434900
C231	C23	0.320600	0.112200	0.530000
C241	C24	0.417200	0.134800	0.352200
C251	C25	0.416300	0.153000	0.247400
C261	C26	0.447400	0.041400	0.392900
C271	C27	0.549100	0.518900	0.666800
C281	C28	0.477190	0.531390	0.741120
C291	C29	0.526690	0.610290	0.766620
C301	C30	0.312090	0.393890	0.775820
C311	C31	0.371390	0.375280	0.705610
C321	C32	0.311700	0.281600	0.689900
C331	C33	0.497700	0.438000	0.644100
C341	C34	0.561200	0.412000	0.576400
C351	C35	0.740100	0.434900	0.452600
C361	C36	0.850600	0.530000	0.357800
C371	C37	0.769400	0.352200	0.513000
C381	C38	0.663700	0.247400	0.599600
C391	C39	0.840300	0.392900	0.565700
N11	N1	0.156310	0.794920	0.735390
N21	N2	0.193200	0.516100	0.015200
N31	N3	0.891700	0.735390	0.469690
N41	N4	0.208400	0.015200	0.468700
N51	N5	0.361390	0.469690	0.794920
N61	N6	0.677100	0.468700	0.516100
O11	O1	0.915300	0.587700	0.100000
O21	O2	0.279800	0.617900	0.800800
O31	O3	0.242800	0.365800	0.019400
O41	O4	0.194200	0.286400	0.190500
O51	O5	0.015300	0.100000	0.312300
O61	O6	0.080600	0.800800	0.581300
O71	O7	0.262200	0.019400	0.614800
O81	O8	0.384700	0.190500	0.523100
O91	O9	0.327600	0.312300	0.587700
O101	O10	0.661900	0.581300	0.617900
O111	O11	0.877000	0.614800	0.365800
O121	O12	0.907800	0.523100	0.286400
Cu41	Cu4	0.739500	0.509500	0.096800
Cu51	Cu5	0.836300	0.096800	0.393700
Cu61	Cu6	0.230000	0.393700	0.509500
H461	H46	0.620990	0.204980	0.386010
H471	H47	0.726990	0.298980	0.381010
H481	H48	0.700990	0.175980	0.444010
H491	H49	0.963990	0.181980	0.165010
H501	H50	0.940000	0.285000	0.944000
H511	H51	0.033000	0.256000	0.987000
H521	H52	0.930000	0.480000	0.890000
H531	H53	0.890000	0.577000	0.822000
H541	H54	0.713000	0.538000	0.801000
H551	H55	0.807000	0.396000	0.854000
H561	H56	0.744000	0.413000	0.775000
H571	H57	0.654000	0.361000	0.909000
H581	H58	0.592000	0.378000	0.025000
H591	H59	0.529000	0.396000	0.944000
H601	H60	0.579000	0.488000	0.973000
H611	H61	0.007000	0.386010	0.409010
H621	H62	0.108000	0.381010	0.320010
H631	H63	0.145000	0.444010	0.380010
H641	H64	0.129000	0.165010	0.653010
H651	H65	0.884000	0.944000	0.771000
H661	H66	0.020000	0.987000	0.757000
H671	H67	0.820000	0.890000	0.630000
H681	H68	0.712000	0.822000	0.601000
H691	H69	0.514000	0.801000	0.661000
H701	H70	0.661000	0.854000	0.750000
H711	H71	0.519000	0.775000	0.812000
H721	H72	0.563000	0.909000	0.730000
H731	H73	0.617000	0.025000	0.597000
H741	H74	0.473000	0.944000	0.660000
H751	H75	0.552000	0.973000	0.539000
H761	H76	0.416010	0.409010	0.204980
H771	H77	0.428010	0.320010	0.298980
H781	H78	0.525010	0.380010	0.175980
H791	H79	0.782010	0.653010	0.181980
H801	H80	0.655000	0.771000	0.285000
H811	H81	0.777000	0.757000	0.256000
H821	H82	0.450000	0.630000	0.480000
H831	H83	0.313000	0.601000	0.577000
H841	H84	0.175000	0.661000	0.538000
H851	H85	0.411000	0.750000	0.396000
H861	H86	0.331000	0.812000	0.413000
H871	H87	0.293000	0.730000	0.361000
H881	H88	0.214000	0.597000	0.378000
H891	H89	0.133000	0.660000	0.396000
H901	H90	0.091000	0.539000	0.488000
C401	C40	0.784100	0.333200	0.185700
C411	C41	0.781690	0.258880	0.272510
C421	C42	0.706690	0.233380	0.376910
C431	C43	0.912090	0.224180	0.169710
C441	C44	0.923000	0.294390	0.080890
C451	C45	0.998400	0.310100	0.971500
C461	C46	0.858200	0.355900	0.082100
C471	C47	0.862400	0.423600	0.988400
C481	C48	0.807300	0.547400	0.887500
C491	C49	0.791600	0.642200	0.887800
C501	C50	0.717600	0.487000	0.865200
C511	C51	0.736700	0.400400	0.847000
C521	C52	0.594000	0.434300	0.958600
C531	C53	0.969800	0.185700	0.481100
C541	C54	0.054200	0.272510	0.468610
C551	C55	0.083600	0.376910	0.389710
C561	C56	0.081800	0.169710	0.606110
C571	C57	0.003890	0.080890	0.624720
C581	C58	0.969900	0.971500	0.718400
C591	C59	0.940300	0.082100	0.562000
C601	C60	0.850800	0.988400	0.588000
C611	C61	0.694800	0.887500	0.565100
C621	C62	0.679400	0.887800	0.470000
C631	C63	0.582800	0.865200	0.647800
C641	C64	0.583700	0.847000	0.752600
C651	C65	0.552600	0.958600	0.607100
C661	C66	0.450900	0.481100	0.333200
C671	C67	0.522810	0.468610	0.258880
C681	C68	0.473310	0.389710	0.233380
C691	C69	0.687910	0.606110	0.224180
C701	C70	0.628610	0.624720	0.294390
C711	C71	0.688300	0.718400	0.310100
C721	C72	0.502300	0.562000	0.355900
C731	C73	0.438800	0.588000	0.423600
C741	C74	0.259900	0.565100	0.547400
C751	C75	0.149400	0.470000	0.642200
C761	C76	0.230600	0.647800	0.487000
C771	C77	0.336300	0.752600	0.400400
C781	C78	0.159700	0.607100	0.434300
N71	N7	0.843690	0.205080	0.264610
N81	N8	0.806800	0.483900	0.984800
N91	N9	0.108300	0.264610	0.530310
N101	N10	0.791600	0.984800	0.531300
N111	N11	0.638610	0.530310	0.205080
N121	N12	0.322900	0.531300	0.483900
O131	O13	0.084700	0.412300	0.900000
O141	O14	0.720200	0.382100	0.199200
O151	O15	0.757200	0.634200	0.980600
O161	O16	0.805800	0.713600	0.809500
O171	O17	0.984700	0.900000	0.687700
O181	O18	0.919400	0.199200	0.418700
O191	O19	0.737800	0.980600	0.385200
O201	O20	0.615300	0.809500	0.476900
O211	O21	0.672400	0.687700	0.412300
O221	O22	0.338100	0.418700	0.382100
O231	O23	0.123000	0.385200	0.634200
O241	O24	0.092200	0.476900	0.713600
