data_BELYIC_clean_PM
_symmetry_space_group_name_H-M	'P1'
_cell_length_a	8.587900
_cell_length_b	8.587900
_cell_length_c	20.863700
_cell_angle_alpha	100.897000
_cell_angle_beta	100.897000
_cell_angle_gamma	94.671400
_symmetry_Int_Tables_number 1

loop_
_symmetry_equiv_pos_as_xyz
'x,y,z'

loop_
_atom_site_label
_atom_site_type_symbol
_atom_site_fract_x
_atom_site_fract_y
_atom_site_fract_z
Mg11	Mg1	0.583130	0.710350	0.332660
Mg21	Mg2	0.289650	0.416870	0.667340
Mg31	Mg3	0.372310	0.999530	0.832660
Mg41	Mg4	0.000470	0.627690	0.167340
Mg51	Mg5	0.702730	0.297270	0.500000
Mg61	Mg6	0.952730	0.047270	0.000000
H11	H1	0.033100	0.041300	0.379600
H21	H2	0.970200	0.211400	0.397600
H31	H3	0.031800	0.119000	0.455600
H41	H4	0.989300	0.722100	0.421000
H51	H5	0.060800	0.555000	0.416600
H61	H6	0.950600	0.593400	0.352000
H71	H7	0.551900	0.353300	0.253600
H81	H8	0.639300	0.251100	0.201600
H91	H9	0.724700	0.303300	0.278800
H101	H10	0.958700	0.966900	0.620400
H111	H11	0.788600	0.029800	0.602400
H121	H12	0.881000	0.968200	0.544400
H131	H13	0.277900	0.010700	0.579000
H141	H14	0.445000	0.939200	0.583400
H151	H15	0.406600	0.049400	0.648000
H161	H16	0.646700	0.448100	0.746400
H171	H17	0.748900	0.360700	0.798400
H181	H18	0.696700	0.275300	0.721200
H191	H19	0.088300	0.596500	0.879600
H201	H20	0.936200	0.677400	0.897600
H211	H21	0.086600	0.673800	0.955600
H221	H22	0.448900	0.681700	0.921000
H231	H23	0.611600	0.605800	0.916600
H241	H24	0.508600	0.651400	0.852000
H251	H25	0.650300	0.951700	0.753600
H261	H26	0.700500	0.812300	0.701600
H271	H27	0.725500	0.804100	0.778800
H281	H28	0.403500	0.911700	0.120400
H291	H29	0.322600	0.063800	0.102400
H301	H30	0.326200	0.913400	0.044400
H311	H31	0.318300	0.551100	0.079000
H321	H32	0.394200	0.388400	0.083400
H331	H33	0.348600	0.491400	0.148000
H341	H34	0.048300	0.349700	0.246400
H351	H35	0.187700	0.299500	0.298400
H361	H36	0.195900	0.274500	0.221200
C11	C1	0.807700	0.023640	0.400320
C21	C2	0.975460	0.106080	0.409020
C31	C3	0.821780	0.535060	0.419840
C41	C4	0.968560	0.607820	0.400700
C51	C5	0.732580	0.488820	0.229080
C61	C6	0.655290	0.335610	0.241920
C71	C7	0.976360	0.192300	0.599680
C81	C8	0.893920	0.024540	0.590980
C91	C9	0.464940	0.178220	0.580160
C101	C10	0.392180	0.031440	0.599300
C111	C11	0.511180	0.267420	0.770920
C121	C12	0.664390	0.344710	0.758080
C131	C13	0.126680	0.842620	0.900320
C141	C14	0.052940	0.683560	0.909020
C151	C15	0.634780	0.848060	0.919840
C161	C16	0.542880	0.682140	0.900700
C171	C17	0.490260	0.746500	0.729080
C181	C18	0.656310	0.836630	0.741920
C191	C19	0.157380	0.873320	0.099680
C201	C20	0.316440	0.947060	0.090980
C211	C21	0.151940	0.365220	0.080160
C221	C22	0.317860	0.457120	0.099300
C231	C23	0.253500	0.509740	0.270920
C241	C24	0.163370	0.343690	0.258080
O11	O1	0.768530	0.892970	0.359200
O21	O2	0.716220	0.088700	0.435340
O31	O3	0.686450	0.569030	0.394100
O41	O4	0.841960	0.444780	0.460680
O51	O5	0.830840	0.477940	0.191720
O61	O6	0.695070	0.620370	0.257640
O71	O7	0.107030	0.231470	0.640800
O81	O8	0.911300	0.283780	0.564660
O91	O9	0.430970	0.313550	0.605900
O101	O10	0.555220	0.158040	0.539320
O111	O11	0.522060	0.169160	0.808280
O121	O12	0.379630	0.304930	0.742360
O131	O13	0.216230	0.840670	0.859200
O141	O14	0.096640	0.969120	0.935340
O151	O15	0.575070	0.957650	0.894100
O161	O16	0.765900	0.868720	0.960680
O171	O17	0.463780	0.610880	0.691720
O181	O18	0.387270	0.812570	0.757640
O191	O19	0.159330	0.783770	0.140800
O201	O20	0.030880	0.903360	0.064660
O211	O21	0.042350	0.424930	0.105900
O221	O22	0.131280	0.234100	0.039320
O231	O23	0.389120	0.536220	0.308280
O241	O24	0.187430	0.612730	0.242360
