data_BENZUR_clean_PM
_symmetry_space_group_name_H-M	'P1'
_cell_length_a	9.809000
_cell_length_b	11.058000
_cell_length_c	11.698000
_cell_angle_alpha	81.230000
_cell_angle_beta	81.570000
_cell_angle_gamma	81.250000
_symmetry_Int_Tables_number 1

loop_
_symmetry_equiv_pos_as_xyz
'x,y,z'

loop_
_atom_site_label
_atom_site_type_symbol
_atom_site_fract_x
_atom_site_fract_y
_atom_site_fract_z
Ba11	Ba1	0.941370	0.324670	0.995490
C11	C1	0.978800	0.346100	0.460000
C21	C2	0.985900	0.245200	0.549300
C31	C3	0.980600	0.272000	0.664500
C41	C4	0.995900	0.097000	0.408700
H11	H1	0.993100	0.162000	0.348100
C51	C5	0.992600	0.122000	0.525600
C61	C6	0.997000	0.020400	0.615100
H21	H2	0.994900	0.034200	0.691800
N11	N1	0.974800	0.293400	0.757500
N21	N2	0.970800	0.425900	0.385200
O11	O1	0.935510	0.554220	0.855950
H31	H3	0.983700	0.551400	0.789600
H41	H4	0.855300	0.591200	0.844000
C71	C7	0.574500	0.393900	0.854800
C81	C8	0.457800	0.397500	0.794200
C91	C9	0.324700	0.418900	0.858500
C101	C10	0.472300	0.373300	0.676800
C111	C11	0.355300	0.368600	0.620600
H51	H5	0.266800	0.382200	0.661300
C121	C12	0.368900	0.344700	0.507900
H61	H6	0.289700	0.342900	0.473400
C131	C13	0.502100	0.322700	0.442800
C141	C14	0.618100	0.326900	0.499800
H71	H7	0.706800	0.313200	0.459300
C151	C15	0.604600	0.350400	0.611800
H81	H8	0.684000	0.351400	0.646300
C161	C16	0.518500	0.298500	0.325900
C171	C17	0.404100	0.290200	0.268600
C181	C18	0.650500	0.280500	0.259700
N31	N3	0.668000	0.390300	0.902400
N41	N4	0.216000	0.435300	0.908800
N51	N5	0.310300	0.285200	0.222500
N61	N6	0.757000	0.268100	0.205700
Ba21	Ba2	0.058630	0.675330	0.004510
C191	C19	0.021200	0.653900	0.540000
C201	C20	0.014100	0.754800	0.450700
C211	C21	0.019400	0.728000	0.335500
C221	C22	0.004100	0.903000	0.591300
H91	H9	0.006900	0.838000	0.651900
C231	C23	0.007400	0.878000	0.474400
C241	C24	0.003000	0.979600	0.384900
H101	H10	0.005100	0.965800	0.308200
N71	N7	0.025200	0.706600	0.242500
N81	N8	0.029200	0.574100	0.614800
O21	O2	0.064490	0.445780	0.144050
H111	H11	0.016300	0.448600	0.210400
H121	H12	0.144700	0.408800	0.156000
C251	C25	0.425500	0.606100	0.145200
C261	C26	0.542200	0.602500	0.205800
C271	C27	0.675300	0.581100	0.141500
C281	C28	0.527700	0.626700	0.323200
C291	C29	0.644700	0.631400	0.379400
H131	H13	0.733200	0.617800	0.338700
C301	C30	0.631100	0.655300	0.492100
H141	H14	0.710300	0.657100	0.526600
C311	C31	0.497900	0.677300	0.557200
C321	C32	0.381900	0.673100	0.500200
H151	H15	0.293200	0.686800	0.540700
C331	C33	0.395400	0.649600	0.388200
H161	H16	0.316000	0.648600	0.353700
C341	C34	0.481500	0.701500	0.674100
C351	C35	0.595900	0.709800	0.731400
C361	C36	0.349500	0.719500	0.740300
N91	N9	0.332000	0.609700	0.097600
N101	N10	0.784000	0.564700	0.091200
N111	N11	0.689700	0.714800	0.777500
N121	N12	0.243000	0.731900	0.794300
