data_BEPBAB_clean_PM
_symmetry_space_group_name_H-M	'P1'
_cell_length_a	9.493000
_cell_length_b	11.242000
_cell_length_c	11.270000
_cell_angle_alpha	82.890000
_cell_angle_beta	83.800000
_cell_angle_gamma	77.680000
_symmetry_Int_Tables_number 1

loop_
_symmetry_equiv_pos_as_xyz
'x,y,z'

loop_
_atom_site_label
_atom_site_type_symbol
_atom_site_fract_x
_atom_site_fract_y
_atom_site_fract_z
Ca11	Ca1	0.974590	0.330060	0.977790
C11	C1	0.599700	0.394200	0.848500
C21	C2	0.481300	0.383500	0.785600
C31	C3	0.347400	0.377100	0.850700
C41	C4	0.501200	0.368000	0.660400
C51	C5	0.388500	0.340800	0.600700
H11	H1	0.301100	0.333400	0.644000
C61	C6	0.406300	0.325400	0.482100
H21	H2	0.331300	0.306700	0.445900
C71	C7	0.537900	0.337400	0.412000
C81	C8	0.649900	0.363700	0.471500
H31	H3	0.737400	0.371100	0.428400
C91	C9	0.631900	0.378500	0.591100
H41	H4	0.707400	0.395800	0.627700
C101	C10	0.557300	0.323000	0.287900
C111	C11	0.443600	0.300800	0.226500
C121	C12	0.689800	0.326600	0.218600
C131	C13	0.022400	0.332900	0.450300
C141	C14	0.016200	0.239500	0.544300
C151	C15	0.013300	0.271000	0.662600
C161	C16	0.006900	0.089400	0.403900
H51	H5	0.011300	0.149600	0.339900
C171	C17	0.008100	0.118800	0.522900
C181	C18	0.000600	0.024800	0.617600
H61	H6	0.000800	0.041800	0.696200
N11	N1	0.699700	0.399200	0.896900
N21	N2	0.235900	0.370700	0.898200
N31	N3	0.349900	0.283900	0.179700
N41	N4	0.798500	0.327300	0.161100
N51	N5	0.010000	0.295600	0.759200
N61	N6	0.025800	0.405700	0.369800
O11	O1	0.933600	0.545100	0.885560
H71	H7	0.982800	0.542200	0.817900
H81	H8	0.848600	0.584200	0.872900
Ca21	Ca2	0.025410	0.669940	0.022210
C191	C19	0.400300	0.605800	0.151500
C201	C20	0.518700	0.616500	0.214400
C211	C21	0.652600	0.622900	0.149300
C221	C22	0.498800	0.632000	0.339600
C231	C23	0.611500	0.659200	0.399300
H91	H9	0.698900	0.666600	0.356000
C241	C24	0.593700	0.674600	0.517900
H101	H10	0.668700	0.693300	0.554100
C251	C25	0.462100	0.662600	0.588000
C261	C26	0.350100	0.636300	0.528500
H111	H11	0.262600	0.628900	0.571600
C271	C27	0.368100	0.621500	0.408900
H121	H12	0.292600	0.604200	0.372300
C281	C28	0.442700	0.677000	0.712100
C291	C29	0.556400	0.699200	0.773500
C301	C30	0.310200	0.673400	0.781400
C311	C31	0.977600	0.667100	0.549700
C321	C32	0.983800	0.760500	0.455700
C331	C33	0.986700	0.729000	0.337400
C341	C34	0.993100	0.910600	0.596100
H131	H13	0.988700	0.850400	0.660100
C351	C35	0.991900	0.881200	0.477100
C361	C36	0.999400	0.975200	0.382400
H141	H14	0.999200	0.958200	0.303800
N71	N7	0.300300	0.600800	0.103100
N81	N8	0.764100	0.629300	0.101800
N91	N9	0.650100	0.716100	0.820300
N101	N10	0.201500	0.672700	0.838900
N111	N11	0.990000	0.704400	0.240800
N121	N12	0.974200	0.594300	0.630200
O21	O2	0.066400	0.454900	0.114440
H151	H15	0.017200	0.457800	0.182100
H161	H16	0.151400	0.415800	0.127100
