data_BEPNIV_clean_PM
_symmetry_space_group_name_H-M	'P1'
_cell_length_a	10.148600
_cell_length_b	17.580600
_cell_length_c	17.580600
_cell_angle_alpha	120.000000
_cell_angle_beta	90.000000
_cell_angle_gamma	90.000000
_symmetry_Int_Tables_number 1

loop_
_symmetry_equiv_pos_as_xyz
'x,y,z'

loop_
_atom_site_label
_atom_site_type_symbol
_atom_site_fract_x
_atom_site_fract_y
_atom_site_fract_z
Zn11	Zn1	0.960180	0.466850	0.926330
Zn21	Zn2	0.626850	0.459480	0.533150
Zn31	Zn3	0.293510	0.073670	0.540520
Zn41	Zn4	0.460180	0.533150	0.073670
Zn51	Zn5	0.126850	0.540520	0.466850
Zn61	Zn6	0.793510	0.926330	0.459480
H11	H1	0.016700	0.891900	0.326500
H21	H2	0.673000	0.780000	0.304500
H31	H3	0.066700	0.796600	0.186200
H41	H4	0.722800	0.675800	0.160700
H51	H5	0.952000	0.537400	0.206100
H61	H6	0.060600	0.468200	0.150800
H71	H7	0.920900	0.462300	0.110200
H81	H8	0.870900	0.655500	0.021000
H91	H9	0.021100	0.666900	0.046300
H101	H10	0.054700	0.619700	0.161100
H111	H11	0.683370	0.434600	0.108100
H121	H12	0.339670	0.524500	0.220000
H131	H13	0.733370	0.389600	0.203400
H141	H14	0.389470	0.484900	0.324200
H151	H15	0.618670	0.668700	0.462600
H161	H16	0.727270	0.682600	0.531800
H171	H17	0.587570	0.647900	0.537700
H181	H18	0.537570	0.365500	0.344500
H191	H19	0.687770	0.379400	0.333100
H201	H20	0.721370	0.541400	0.380300
H211	H21	0.350030	0.673500	0.565400
H221	H22	0.006330	0.695500	0.475500
H231	H23	0.400030	0.813800	0.610400
H241	H24	0.056130	0.839300	0.515100
H251	H25	0.285330	0.793900	0.331300
H261	H26	0.393930	0.849200	0.317400
H271	H27	0.254230	0.889800	0.352100
H281	H28	0.204230	0.979000	0.634500
H291	H29	0.354430	0.953700	0.620600
H301	H30	0.388030	0.838900	0.458600
H311	H31	0.516700	0.108100	0.673500
H321	H32	0.173000	0.220000	0.695500
H331	H33	0.566700	0.203400	0.813800
H341	H34	0.222800	0.324200	0.839300
H351	H35	0.452000	0.462600	0.793900
H361	H36	0.560600	0.531800	0.849200
H371	H37	0.420900	0.537700	0.889800
H381	H38	0.370900	0.344500	0.979000
H391	H39	0.521100	0.333100	0.953700
H401	H40	0.554700	0.380300	0.838900
H411	H41	0.183370	0.565400	0.891900
H421	H42	0.839670	0.475500	0.780000
H431	H43	0.233370	0.610400	0.796600
H441	H44	0.889470	0.515100	0.675800
H451	H45	0.118670	0.331300	0.537400
H461	H46	0.227270	0.317400	0.468200
H471	H47	0.087570	0.352100	0.462300
H481	H48	0.037570	0.634500	0.655500
H491	H49	0.187770	0.620600	0.666900
H501	H50	0.221370	0.458600	0.619700
H511	H51	0.850030	0.326500	0.434600
H521	H52	0.506330	0.304500	0.524500
H531	H53	0.900030	0.186200	0.389600
H541	H54	0.556130	0.160700	0.484900
H551	H55	0.785330	0.206100	0.668700
H561	H56	0.893930	0.150800	0.682600
H571	H57	0.754230	0.110200	0.647900
H581	H58	0.704230	0.021000	0.365500
H591	H59	0.854430	0.046300	0.379400
H601	H60	0.888030	0.161100	0.541400
C11	C1	0.956300	0.848100	0.292800
C21	C2	0.754000	0.782500	0.281200
C31	C3	0.986500	0.791300	0.208700
C41	C4	0.900300	0.724900	0.154800
C51	C5	0.782800	0.720400	0.193400
C61	C6	0.987700	0.501600	0.148200
C71	C7	0.159800	0.520900	0.058600
C81	C8	0.934900	0.655000	0.061800
C91	C9	0.035300	0.560900	0.112200
C101	C10	0.622970	0.444700	0.151900
C111	C11	0.420670	0.498700	0.217500
C121	C12	0.653170	0.417400	0.208700
C131	C13	0.566970	0.429900	0.275100
C141	C14	0.449470	0.473000	0.279600
C151	C15	0.654370	0.646600	0.498400
C161	C16	0.826470	0.537700	0.479100
C171	C17	0.601570	0.406800	0.345000
C181	C18	0.701970	0.551300	0.439100
C191	C19	0.289630	0.707200	0.555300
C201	C20	0.087330	0.718800	0.501300
C211	C21	0.319830	0.791300	0.582600
C221	C22	0.233630	0.845200	0.570100
C231	C23	0.116130	0.806600	0.527000
C241	C24	0.321030	0.851800	0.353400
C251	C25	0.493130	0.941400	0.462300
C261	C26	0.268230	0.938200	0.593200
C271	C27	0.368630	0.887800	0.448700
C281	C28	0.456300	0.151900	0.707200
C291	C29	0.254000	0.217500	0.718800
C301	C30	0.486500	0.208700	0.791300
C311	C31	0.400300	0.275100	0.845200
C321	C32	0.282800	0.279600	0.806600
C331	C33	0.487700	0.498400	0.851800
C341	C34	0.659800	0.479100	0.941400
C351	C35	0.434900	0.345000	0.938200
C361	C36	0.535300	0.439100	0.887800
C371	C37	0.122970	0.555300	0.848100
C381	C38	0.920670	0.501300	0.782500
C391	C39	0.153170	0.582600	0.791300
C401	C40	0.066970	0.570100	0.724900
C411	C41	0.949470	0.527000	0.720400
C421	C42	0.154370	0.353400	0.501600
C431	C43	0.326470	0.462300	0.520900
C441	C44	0.101570	0.593200	0.655000
C451	C45	0.201970	0.448700	0.560900
C461	C46	0.789630	0.292800	0.444700
C471	C47	0.587330	0.281200	0.498700
C481	C48	0.819830	0.208700	0.417400
C491	C49	0.733630	0.154800	0.429900
C501	C50	0.616130	0.193400	0.473000
C511	C51	0.821030	0.148200	0.646600
C521	C52	0.993130	0.058600	0.537700
C531	C53	0.768230	0.061800	0.406800
C541	C54	0.868630	0.112200	0.551300
N11	N1	0.935000	0.566800	0.055800
N21	N2	0.840000	0.844800	0.331900
N31	N3	0.601670	0.489000	0.433200
N41	N4	0.506670	0.487100	0.155200
N51	N5	0.268330	0.944200	0.511000
N61	N6	0.173330	0.668100	0.512900
N71	N7	0.435000	0.433200	0.944200
N81	N8	0.340000	0.155200	0.668100
N91	N9	0.101670	0.511000	0.566800
N101	N10	0.006670	0.512900	0.844800
N111	N11	0.768330	0.055800	0.489000
N121	N12	0.673330	0.331900	0.487100
O11	O1	0.154600	0.479900	0.976700
O21	O2	0.263600	0.531800	0.104300
O31	O3	0.821270	0.496800	0.520100
O41	O4	0.930270	0.572500	0.468200
O51	O5	0.487930	0.023300	0.503200
O61	O6	0.596930	0.895700	0.427500
O71	O7	0.654600	0.520100	0.023300
O81	O8	0.763600	0.468200	0.895700
O91	O9	0.321270	0.503200	0.479900
O101	O10	0.430270	0.427500	0.531800
O111	O11	0.987930	0.976700	0.496800
O121	O12	0.096930	0.104300	0.572500
