data_BEPPAP_clean_PM
_symmetry_space_group_name_H-M	'P1'
_cell_length_a	10.244800
_cell_length_b	17.458700
_cell_length_c	17.458700
_cell_angle_alpha	120.000000
_cell_angle_beta	90.000000
_cell_angle_gamma	90.000000
_symmetry_Int_Tables_number 1

loop_
_symmetry_equiv_pos_as_xyz
'x,y,z'

loop_
_atom_site_label
_atom_site_type_symbol
_atom_site_fract_x
_atom_site_fract_y
_atom_site_fract_z
Zn11	Zn1	0.845690	0.458100	0.533130
Zn21	Zn2	0.512360	0.075030	0.541900
Zn31	Zn3	0.179020	0.466870	0.924970
Zn41	Zn4	0.345690	0.541900	0.466870
Zn51	Zn5	0.012360	0.924970	0.458100
Zn61	Zn6	0.679020	0.533130	0.075030
H11	H1	0.954200	0.535500	0.461400
H21	H2	0.879700	0.478600	0.315200
H31	H3	0.730100	0.457800	0.298800
H41	H4	0.815300	0.411300	0.338400
H51	H5	0.766000	0.595900	0.429300
H61	H6	0.776100	0.795700	0.619000
H71	H7	0.819200	0.896900	0.575300
H81	H8	0.068000	0.645200	0.460600
H91	H9	0.106500	0.752900	0.424900
H101	H10	0.957100	0.637600	0.607000
H111	H11	0.806900	0.652000	0.602300
H121	H12	0.620870	0.925900	0.464500
H131	H13	0.546370	0.836600	0.521400
H141	H14	0.396770	0.841000	0.542200
H151	H15	0.481970	0.927100	0.588700
H161	H16	0.432670	0.833400	0.404100
H171	H17	0.442770	0.823300	0.204300
H181	H18	0.485870	0.678400	0.103100
H191	H19	0.734670	0.815400	0.354800
H201	H20	0.773170	0.672000	0.247100
H211	H21	0.623770	0.969400	0.362400
H221	H22	0.473570	0.950300	0.348000
H231	H23	0.287530	0.538600	0.074100
H241	H24	0.213030	0.684800	0.163400
H251	H25	0.063430	0.701200	0.159000
H261	H26	0.148630	0.661600	0.072900
H271	H27	0.099330	0.570700	0.166600
H281	H28	0.109430	0.381000	0.176700
H291	H29	0.152530	0.424700	0.321600
H301	H30	0.401330	0.539400	0.184600
H311	H31	0.439830	0.575100	0.328000
H321	H32	0.290430	0.393000	0.030600
H331	H33	0.140230	0.397700	0.049700
H341	H34	0.454200	0.464500	0.538600
H351	H35	0.379700	0.521400	0.684800
H361	H36	0.230100	0.542200	0.701200
H371	H37	0.315300	0.588700	0.661600
H381	H38	0.266000	0.404100	0.570700
H391	H39	0.276100	0.204300	0.381000
H401	H40	0.319200	0.103100	0.424700
H411	H41	0.568000	0.354800	0.539400
H421	H42	0.606500	0.247100	0.575100
H431	H43	0.457100	0.362400	0.393000
H441	H44	0.306900	0.348000	0.397700
H451	H45	0.120870	0.074100	0.535500
H461	H46	0.046370	0.163400	0.478600
H471	H47	0.896770	0.159000	0.457800
H481	H48	0.981970	0.072900	0.411300
H491	H49	0.932670	0.166600	0.595900
H501	H50	0.942770	0.176700	0.795700
H511	H51	0.985870	0.321600	0.896900
H521	H52	0.234670	0.184600	0.645200
H531	H53	0.273170	0.328000	0.752900
H541	H54	0.123770	0.030600	0.637600
H551	H55	0.973570	0.049700	0.652000
H561	H56	0.787530	0.461400	0.925900
H571	H57	0.713030	0.315200	0.836600
H581	H58	0.563430	0.298800	0.841000
H591	H59	0.648630	0.338400	0.927100
H601	H60	0.599330	0.429300	0.833400
H611	H61	0.609430	0.619000	0.823300
H621	H62	0.652530	0.575300	0.678400
H631	H63	0.901330	0.460600	0.815400
H641	H64	0.939830	0.424900	0.672000
H651	H65	0.790430	0.607000	0.969400
H661	H66	0.640230	0.602300	0.950300
C11	C1	0.802200	0.465100	0.337100
C21	C2	0.773000	0.540500	0.430400
C31	C3	0.843000	0.785300	0.579000
C41	C4	0.870200	0.846200	0.553100
C51	C5	0.644200	0.523000	0.462900
C61	C6	0.916300	0.708000	0.544800
C71	C7	0.017100	0.696100	0.485200
C81	C8	0.039100	0.760900	0.463900
C91	C9	0.887800	0.637600	0.569100
C101	C10	0.468870	0.872000	0.534900
C111	C11	0.439670	0.889900	0.459500
C121	C12	0.509670	0.793700	0.214700
C131	C13	0.536870	0.706900	0.153800
C141	C14	0.310870	0.939900	0.477000
C151	C15	0.582970	0.836800	0.292000
C161	C16	0.683770	0.789100	0.303900
C171	C17	0.705770	0.703000	0.239100
C181	C18	0.554470	0.931500	0.362400
C191	C19	0.135530	0.662900	0.128000
C201	C20	0.106330	0.569600	0.110100
C211	C21	0.176330	0.421000	0.206300
C221	C22	0.203530	0.446900	0.293100
C231	C23	0.977530	0.537100	0.060100
C241	C24	0.249630	0.455200	0.163200
C251	C25	0.350430	0.514800	0.210900
C261	C26	0.372430	0.536100	0.297000
C271	C27	0.221130	0.430900	0.068500
C281	C28	0.302200	0.534900	0.662900
C291	C29	0.273000	0.459500	0.569600
C301	C30	0.343000	0.214700	0.421000
C311	C31	0.370200	0.153800	0.446900
C321	C32	0.144200	0.477000	0.537100
C331	C33	0.416300	0.292000	0.455200
C341	C34	0.517100	0.303900	0.514800
C351	C35	0.539100	0.239100	0.536100
C361	C36	0.387800	0.362400	0.430900
C371	C37	0.968870	0.128000	0.465100
C381	C38	0.939670	0.110100	0.540500
C391	C39	0.009670	0.206300	0.785300
C401	C40	0.036870	0.293100	0.846200
C411	C41	0.810870	0.060100	0.523000
C421	C42	0.082970	0.163200	0.708000
C431	C43	0.183770	0.210900	0.696100
C441	C44	0.205770	0.297000	0.760900
C451	C45	0.054470	0.068500	0.637600
C461	C46	0.635530	0.337100	0.872000
C471	C47	0.606330	0.430400	0.889900
C481	C48	0.676330	0.579000	0.793700
C491	C49	0.703530	0.553100	0.706900
C501	C50	0.477530	0.462900	0.939900
C511	C51	0.749630	0.544800	0.836800
C521	C52	0.850430	0.485200	0.789100
C531	C53	0.872430	0.463900	0.703000
C541	C54	0.721130	0.569100	0.931500
N11	N1	0.877100	0.548800	0.491170
N21	N2	0.967800	0.835310	0.496900
N31	N3	0.543770	0.942370	0.451200
N41	N4	0.634470	0.661590	0.164690
N51	N5	0.210430	0.508830	0.057630
N61	N6	0.301130	0.503100	0.338410
N71	N7	0.377100	0.451200	0.508830
N81	N8	0.467800	0.164690	0.503100
N91	N9	0.043770	0.057630	0.548800
N101	N10	0.134470	0.338410	0.835310
N111	N11	0.710430	0.491170	0.942370
N121	N12	0.801130	0.496900	0.661590
Cl11	Cl1	0.829730	0.312490	0.438380
Cl21	Cl2	0.496400	0.125890	0.687510
Cl31	Cl3	0.163060	0.561620	0.874110
Cl41	Cl4	0.329730	0.687510	0.561620
Cl51	Cl5	0.996400	0.874110	0.312490
Cl61	Cl6	0.663060	0.438380	0.125890
O11	O1	0.648800	0.491140	0.513540
O21	O2	0.542000	0.539200	0.433710
O31	O3	0.315470	0.022400	0.508860
O41	O4	0.208670	0.894510	0.460800
O51	O5	0.982130	0.486460	0.977600
O61	O6	0.875330	0.566290	0.105490
O71	O7	0.148800	0.508860	0.486460
O81	O8	0.042000	0.460800	0.566290
O91	O9	0.815470	0.977600	0.491140
O101	O10	0.708670	0.105490	0.539200
O111	O11	0.482130	0.513540	0.022400
O121	O12	0.375330	0.433710	0.894510
