data_BEPPOD_clean_PM
_symmetry_space_group_name_H-M	'P1'
_cell_length_a	10.343300
_cell_length_b	17.733600
_cell_length_c	17.733600
_cell_angle_alpha	120.000000
_cell_angle_beta	90.000000
_cell_angle_gamma	90.000000
_symmetry_Int_Tables_number 1

loop_
_symmetry_equiv_pos_as_xyz
'x,y,z'

loop_
_atom_site_label
_atom_site_type_symbol
_atom_site_fract_x
_atom_site_fract_y
_atom_site_fract_z
Zn11	Zn1	0.844200	0.455530	0.928740
Zn21	Zn2	0.510870	0.473210	0.544470
Zn31	Zn3	0.177530	0.071260	0.526790
Zn41	Zn4	0.344200	0.544470	0.071260
Zn51	Zn5	0.010870	0.526790	0.455530
Zn61	Zn6	0.677530	0.928740	0.473210
H11	H1	0.303500	0.571400	0.676600
H21	H2	0.631800	0.476000	0.696600
H31	H3	0.251600	0.618000	0.819300
H41	H4	0.234300	0.473300	0.845800
H51	H5	0.210800	0.326300	0.806100
H61	H6	0.446200	0.627400	0.979900
H71	H7	0.298800	0.623600	0.957100
H81	H8	0.593400	0.521200	0.841100
H91	H9	0.400800	0.359900	0.931200
H101	H10	0.369500	0.264900	0.856900
H111	H11	0.263200	0.320300	0.925400
H121	H12	0.352700	0.350900	0.721500
H131	H13	0.410000	0.276000	0.734000
H141	H14	0.465600	0.370700	0.787900
H151	H15	0.970170	0.105200	0.428600
H161	H16	0.298470	0.220600	0.524000
H171	H17	0.918270	0.201300	0.382000
H181	H18	0.900970	0.372500	0.526700
H191	H19	0.877470	0.479800	0.673700
H201	H20	0.112870	0.352500	0.372600
H211	H21	0.965470	0.333500	0.376400
H221	H22	0.260070	0.319900	0.478800
H231	H23	0.067470	0.571300	0.640100
H241	H24	0.036170	0.592000	0.735100
H251	H25	0.929870	0.605100	0.679700
H261	H26	0.019370	0.370600	0.649100
H271	H27	0.076670	0.458000	0.724000
H281	H28	0.132270	0.417200	0.629300
H291	H29	0.636830	0.323400	0.894800
H301	H30	0.965130	0.303400	0.779400
H311	H31	0.584930	0.180700	0.798700
H321	H32	0.567630	0.154200	0.627500
H331	H33	0.544130	0.193900	0.520200
H341	H34	0.779530	0.020100	0.647500
H351	H35	0.632130	0.042900	0.666500
H361	H36	0.926730	0.158900	0.680100
H371	H37	0.734130	0.068800	0.428700
H381	H38	0.702830	0.143100	0.408000
H391	H39	0.596530	0.074600	0.394900
H401	H40	0.686030	0.278500	0.629400
H411	H41	0.743330	0.266000	0.542000
H421	H42	0.798930	0.212100	0.582800
H431	H43	0.803500	0.428600	0.323400
H441	H44	0.131800	0.524000	0.303400
H451	H45	0.751600	0.382000	0.180700
H461	H46	0.734300	0.526700	0.154200
H471	H47	0.710800	0.673700	0.193900
H481	H48	0.946200	0.372600	0.020100
H491	H49	0.798800	0.376400	0.042900
H501	H50	0.093400	0.478800	0.158900
H511	H51	0.900800	0.640100	0.068800
H521	H52	0.869500	0.735100	0.143100
H531	H53	0.763200	0.679700	0.074600
H541	H54	0.852700	0.649100	0.278500
H551	H55	0.910000	0.724000	0.266000
H561	H56	0.965600	0.629300	0.212100
H571	H57	0.470170	0.894800	0.571400
H581	H58	0.798470	0.779400	0.476000
H591	H59	0.418270	0.798700	0.618000
H601	H60	0.400970	0.627500	0.473300
H611	H61	0.377470	0.520200	0.326300
H621	H62	0.612870	0.647500	0.627400
H631	H63	0.465470	0.666500	0.623600
H641	H64	0.760070	0.680100	0.521200
H651	H65	0.567470	0.428700	0.359900
H661	H66	0.536170	0.408000	0.264900
H671	H67	0.429870	0.394900	0.320300
H681	H68	0.519370	0.629400	0.350900
H691	H69	0.576670	0.542000	0.276000
H701	H70	0.632270	0.582800	0.370700
H711	H71	0.136830	0.676600	0.105200
H721	H72	0.465130	0.696600	0.220600
H731	H73	0.084930	0.819300	0.201300
H741	H74	0.067630	0.845800	0.372500
H751	H75	0.044130	0.806100	0.479800
H761	H76	0.279530	0.979900	0.352500
H771	H77	0.132130	0.957100	0.333500
H781	H78	0.426730	0.841100	0.319900
H791	H79	0.234130	0.931200	0.571300
H801	H80	0.202830	0.856900	0.592000
H811	H81	0.096530	0.925400	0.605100
H821	H82	0.186030	0.721500	0.370600
H831	H83	0.243330	0.734000	0.458000
H841	H84	0.298930	0.787900	0.417200
C11	C1	0.138900	0.467300	0.944700
C21	C2	0.362300	0.561700	0.710500
C31	C3	0.555900	0.505800	0.722500
C41	C4	0.329400	0.589300	0.796500
C51	C5	0.257100	0.453700	0.886900
C61	C6	0.290500	0.357300	0.834600
C71	C7	0.379500	0.591500	0.939100
C81	C8	0.414500	0.573500	0.848300
C91	C9	0.532100	0.531500	0.809000
C101	C10	0.335000	0.322400	0.892200
C111	C11	0.388800	0.336800	0.762800
C121	C12	0.805570	0.477400	0.532700
C131	C13	0.028970	0.148800	0.438300
C141	C14	0.222570	0.216700	0.494200
C151	C15	0.996070	0.207200	0.410700
C161	C16	0.923770	0.433200	0.546300
C171	C17	0.957170	0.477300	0.642700
C181	C18	0.046170	0.347600	0.408500
C191	C19	0.081170	0.274800	0.426500
C201	C20	0.198770	0.277500	0.468500
C211	C21	0.001670	0.569800	0.677600
C221	C22	0.055470	0.426000	0.663200
C231	C23	0.472230	0.055300	0.522600
C241	C24	0.695630	0.289500	0.851200
C251	C25	0.889230	0.277500	0.783300
C261	C26	0.662730	0.203500	0.792800
C271	C27	0.590430	0.113100	0.566800
C281	C28	0.623830	0.165400	0.522700
C291	C29	0.712830	0.060900	0.652400
C301	C30	0.747830	0.151700	0.725200
C311	C31	0.865430	0.191000	0.722500
C321	C32	0.668330	0.107800	0.430200
C331	C33	0.722130	0.237200	0.574000
C341	C34	0.638900	0.532700	0.055300
C351	C35	0.862300	0.438300	0.289500
C361	C36	0.055900	0.494200	0.277500
C371	C37	0.829400	0.410700	0.203500
C381	C38	0.757100	0.546300	0.113100
C391	C39	0.790500	0.642700	0.165400
C401	C40	0.879500	0.408500	0.060900
C411	C41	0.914500	0.426500	0.151700
C421	C42	0.032100	0.468500	0.191000
C431	C43	0.835000	0.677600	0.107800
C441	C44	0.888800	0.663200	0.237200
C451	C45	0.305570	0.522600	0.467300
C461	C46	0.528970	0.851200	0.561700
C471	C47	0.722570	0.783300	0.505800
C481	C48	0.496070	0.792800	0.589300
C491	C49	0.423770	0.566800	0.453700
C501	C50	0.457170	0.522700	0.357300
C511	C51	0.546170	0.652400	0.591500
C521	C52	0.581170	0.725200	0.573500
C531	C53	0.698770	0.722500	0.531500
C541	C54	0.501670	0.430200	0.322400
C551	C55	0.555470	0.574000	0.336800
C561	C56	0.972230	0.944700	0.477400
C571	C57	0.195630	0.710500	0.148800
C581	C58	0.389230	0.722500	0.216700
C591	C59	0.162730	0.796500	0.207200
C601	C60	0.090430	0.886900	0.433200
C611	C61	0.123830	0.834600	0.477300
C621	C62	0.212830	0.939100	0.347600
C631	C63	0.247830	0.848300	0.274800
C641	C64	0.365430	0.809000	0.277500
C651	C65	0.168330	0.892200	0.569800
C661	C66	0.222130	0.762800	0.426000
N11	N1	0.470700	0.523000	0.674600
N21	N2	0.365900	0.508600	0.942000
N31	N3	0.137370	0.151600	0.477000
N41	N4	0.032570	0.433400	0.491400
N51	N5	0.804030	0.325400	0.848400
N61	N6	0.699230	0.058000	0.566600
N71	N7	0.970700	0.477000	0.325400
N81	N8	0.865900	0.491400	0.058000
N91	N9	0.637370	0.848400	0.523000
N101	N10	0.532570	0.566600	0.508600
N111	N11	0.304030	0.674600	0.151600
N121	N12	0.199230	0.942000	0.433400
O11	O1	0.038100	0.428800	0.902600
O21	O2	0.147900	0.514700	0.025300
O31	O3	0.704770	0.473800	0.571200
O41	O4	0.814570	0.510600	0.485300
O51	O5	0.371430	0.097400	0.526200
O61	O6	0.481230	0.974700	0.489400
O71	O7	0.538100	0.571200	0.097400
O81	O8	0.647900	0.485300	0.974700
O91	O9	0.204770	0.526200	0.428800
O101	O10	0.314570	0.489400	0.514700
O111	O11	0.871430	0.902600	0.473800
O121	O12	0.981230	0.025300	0.510600
