data_BEPPIX_clean_PM
_symmetry_space_group_name_H-M	'P1'
_cell_length_a	10.395300
_cell_length_b	17.454200
_cell_length_c	17.454200
_cell_angle_alpha	120.000000
_cell_angle_beta	90.000000
_cell_angle_gamma	90.000000
_symmetry_Int_Tables_number 1

loop_
_symmetry_equiv_pos_as_xyz
'x,y,z'

loop_
_atom_site_label
_atom_site_type_symbol
_atom_site_fract_x
_atom_site_fract_y
_atom_site_fract_z
Zn11	Zn1	0.884590	0.466620	0.928660
Zn21	Zn2	0.551260	0.462040	0.533380
Zn31	Zn3	0.217920	0.071340	0.537960
Zn41	Zn4	0.384590	0.533380	0.071340
Zn51	Zn5	0.051260	0.537960	0.466620
Zn61	Zn6	0.717920	0.928660	0.462040
H11	H1	0.789000	0.553400	0.081000
H21	H2	0.970700	0.798800	0.179300
H31	H3	0.992500	0.628600	0.157700
H41	H4	0.923200	0.896400	0.326200
H51	H5	0.778900	0.644500	0.021400
H61	H6	0.925600	0.665000	0.043500
H71	H7	0.635500	0.677800	0.159500
H81	H8	0.597300	0.776800	0.306300
H91	H9	0.836300	0.423400	0.070700
H101	H10	0.866500	0.404300	0.147600
H111	H11	0.974000	0.391900	0.079400
H121	H12	0.022300	0.520700	0.198400
H131	H13	0.877400	0.633300	0.281500
H141	H14	0.835200	0.545800	0.278900
H151	H15	0.764500	0.576500	0.219600
H161	H16	0.455670	0.527600	0.446600
H171	H17	0.637370	0.380500	0.201200
H181	H18	0.659170	0.529100	0.371400
H191	H19	0.589870	0.429800	0.103600
H201	H20	0.445570	0.376900	0.355500
H211	H21	0.592270	0.378500	0.335000
H221	H22	0.302170	0.481700	0.322200
H231	H23	0.263970	0.529500	0.223200
H241	H24	0.502970	0.647300	0.576600
H251	H25	0.533170	0.743300	0.595700
H261	H26	0.640670	0.687500	0.608100
H271	H27	0.688970	0.677700	0.479300
H281	H28	0.544070	0.648200	0.366700
H291	H29	0.501870	0.733100	0.454200
H301	H30	0.431170	0.643100	0.423500
H311	H31	0.122330	0.919000	0.472400
H321	H32	0.304030	0.820700	0.619500
H331	H33	0.325830	0.842300	0.470900
H341	H34	0.256530	0.673800	0.570200
H351	H35	0.112230	0.978600	0.623100
H361	H36	0.258930	0.956500	0.621500
H371	H37	0.968830	0.840500	0.518300
H381	H38	0.930630	0.693700	0.470500
H391	H39	0.169630	0.929300	0.352700
H401	H40	0.199830	0.852400	0.256700
H411	H41	0.307330	0.920600	0.312500
H421	H42	0.355630	0.801600	0.322300
H431	H43	0.210730	0.718500	0.351800
H441	H44	0.168530	0.721100	0.266900
H451	H45	0.097830	0.780400	0.356900
H461	H46	0.289000	0.446600	0.919000
H471	H47	0.470700	0.201200	0.820700
H481	H48	0.492500	0.371400	0.842300
H491	H49	0.423200	0.103600	0.673800
H501	H50	0.278900	0.355500	0.978600
H511	H51	0.425600	0.335000	0.956500
H521	H52	0.135500	0.322200	0.840500
H531	H53	0.097300	0.223200	0.693700
H541	H54	0.336300	0.576600	0.929300
H551	H55	0.366500	0.595700	0.852400
H561	H56	0.474000	0.608100	0.920600
H571	H57	0.522300	0.479300	0.801600
H581	H58	0.377400	0.366700	0.718500
H591	H59	0.335200	0.454200	0.721100
H601	H60	0.264500	0.423500	0.780400
H611	H61	0.955670	0.472400	0.553400
H621	H62	0.137370	0.619500	0.798800
H631	H63	0.159170	0.470900	0.628600
H641	H64	0.089870	0.570200	0.896400
H651	H65	0.945570	0.623100	0.644500
H661	H66	0.092270	0.621500	0.665000
H671	H67	0.802170	0.518300	0.677800
H681	H68	0.763970	0.470500	0.776800
H691	H69	0.002970	0.352700	0.423400
H701	H70	0.033170	0.256700	0.404300
H711	H71	0.140670	0.312500	0.391900
H721	H72	0.188970	0.322300	0.520700
H731	H73	0.044070	0.351800	0.633300
H741	H74	0.001870	0.266900	0.545800
H751	H75	0.931170	0.356900	0.576500
H761	H76	0.622330	0.081000	0.527600
H771	H77	0.804030	0.179300	0.380500
H781	H78	0.825830	0.157700	0.529100
H791	H79	0.756530	0.326200	0.429800
H801	H80	0.612230	0.021400	0.376900
H811	H81	0.758930	0.043500	0.378500
H821	H82	0.468830	0.159500	0.481700
H831	H83	0.430630	0.306300	0.529500
H841	H84	0.669630	0.070700	0.647300
H851	H85	0.699830	0.147600	0.743300
H861	H86	0.807330	0.079400	0.687500
H871	H87	0.855630	0.198400	0.677700
H881	H88	0.710730	0.281500	0.648200
H891	H89	0.668530	0.278900	0.733100
H901	H90	0.597830	0.219600	0.643100
C11	C1	0.090700	0.524900	0.057600
C21	C2	0.895600	0.792000	0.204200
C31	C3	0.972300	0.566500	0.116100
C41	C4	0.865800	0.851100	0.292400
C51	C5	0.812000	0.723200	0.154300
C61	C6	0.846300	0.650000	0.062300
C71	C7	0.696900	0.720300	0.192800
C81	C8	0.673600	0.780700	0.280600
C91	C9	0.900900	0.426700	0.111600
C101	C10	0.941700	0.522100	0.170000
C111	C11	0.845800	0.574200	0.244300
C121	C12	0.757370	0.532700	0.475100
C131	C13	0.562270	0.412200	0.208000
C141	C14	0.638970	0.549600	0.433500
C151	C15	0.532470	0.441300	0.148900
C161	C16	0.478670	0.431100	0.276800
C171	C17	0.512970	0.412300	0.350000
C181	C18	0.363570	0.472500	0.279700
C191	C19	0.340270	0.499900	0.219300
C201	C20	0.567570	0.684900	0.573300
C211	C21	0.608370	0.647900	0.477900
C221	C22	0.512470	0.670100	0.425800
C231	C23	0.424030	0.942400	0.467300
C241	C24	0.228930	0.795800	0.587800
C251	C25	0.305630	0.883900	0.450400
C261	C26	0.199130	0.707600	0.558700
C271	C27	0.145330	0.845700	0.568900
C281	C28	0.179630	0.937700	0.587700
C291	C29	0.030230	0.807200	0.527500
C301	C30	0.006930	0.719400	0.500100
C311	C31	0.234230	0.888400	0.315100
C321	C32	0.275030	0.830000	0.352100
C331	C33	0.179130	0.755700	0.329900
C341	C34	0.590700	0.475100	0.942400
C351	C35	0.395600	0.208000	0.795800
C361	C36	0.472300	0.433500	0.883900
C371	C37	0.365800	0.148900	0.707600
C381	C38	0.312000	0.276800	0.845700
C391	C39	0.346300	0.350000	0.937700
C401	C40	0.196900	0.279700	0.807200
C411	C41	0.173600	0.219300	0.719400
C421	C42	0.400900	0.573300	0.888400
C431	C43	0.441700	0.477900	0.830000
C441	C44	0.345800	0.425800	0.755700
C451	C45	0.257370	0.467300	0.524900
C461	C46	0.062270	0.587800	0.792000
C471	C47	0.138970	0.450400	0.566500
C481	C48	0.032470	0.558700	0.851100
C491	C49	0.978670	0.568900	0.723200
C501	C50	0.012970	0.587700	0.650000
C511	C51	0.863570	0.527500	0.720300
C521	C52	0.840270	0.500100	0.780700
C531	C53	0.067570	0.315100	0.426700
C541	C54	0.108370	0.352100	0.522100
C551	C55	0.012470	0.329900	0.574200
C561	C56	0.924030	0.057600	0.532700
C571	C57	0.728930	0.204200	0.412200
C581	C58	0.805630	0.116100	0.549600
C591	C59	0.699130	0.292400	0.441300
C601	C60	0.645330	0.154300	0.431100
C611	C61	0.679630	0.062300	0.412300
C621	C62	0.530230	0.192800	0.472500
C631	C63	0.506930	0.280600	0.499900
C641	C64	0.734230	0.111600	0.684900
C651	C65	0.775030	0.170000	0.647900
C661	C66	0.679130	0.244300	0.670100
N11	N1	0.757800	0.844400	0.329700
N21	N2	0.862300	0.564700	0.060000
N31	N3	0.424470	0.485300	0.155600
N41	N4	0.528970	0.495300	0.435300
N51	N5	0.091130	0.670300	0.514700
N61	N6	0.195630	0.940000	0.504700
N71	N7	0.257800	0.155600	0.670300
N81	N8	0.362300	0.435300	0.940000
N91	N9	0.924470	0.514700	0.844400
N101	N10	0.028970	0.504700	0.564700
N111	N11	0.591130	0.329700	0.485300
N121	N12	0.695630	0.060000	0.495300
O11	O1	0.192700	0.533900	0.099300
O21	O2	0.081000	0.486000	0.974500
O31	O3	0.859370	0.565400	0.466100
O41	O4	0.747670	0.488500	0.514000
O51	O5	0.526030	0.900700	0.434600
O61	O6	0.414330	0.025500	0.511500
O71	O7	0.692700	0.466100	0.900700
O81	O8	0.581000	0.514000	0.025500
O91	O9	0.359370	0.434600	0.533900
O101	O10	0.247670	0.511500	0.486000
O111	O11	0.026030	0.099300	0.565400
O121	O12	0.914330	0.974500	0.488500
