data_BEPROF_clean_PM
_symmetry_space_group_name_H-M	'P1'
_cell_length_a	18.714500
_cell_length_b	18.714500
_cell_length_c	18.714500
_cell_angle_alpha	99.409700
_cell_angle_beta	99.409700
_cell_angle_gamma	99.409700
_symmetry_Int_Tables_number 1

loop_
_symmetry_equiv_pos_as_xyz
'x,y,z'

loop_
_atom_site_label
_atom_site_type_symbol
_atom_site_fract_x
_atom_site_fract_y
_atom_site_fract_z
Ni11	Ni1	0.250000	0.180190	0.319810
Ni21	Ni2	0.319810	0.250000	0.180190
Ni31	Ni3	0.180190	0.319810	0.250000
Ni41	Ni4	0.750000	0.819810	0.680190
Ni51	Ni5	0.680190	0.750000	0.819810
Ni61	Ni6	0.819810	0.680190	0.750000
H11	H1	0.447200	0.723300	0.696900
H21	H2	0.334700	0.760200	0.663000
H31	H3	0.450100	0.951500	0.634700
H41	H4	0.559400	0.911200	0.660800
H51	H5	0.356400	0.945700	0.549400
H61	H6	0.184500	0.074300	0.534500
H71	H7	0.185000	0.150600	0.452600
H81	H8	0.696900	0.447200	0.723300
H91	H9	0.663000	0.334700	0.760200
H101	H10	0.634700	0.450100	0.951500
H111	H11	0.660800	0.559400	0.911200
H121	H12	0.549400	0.356400	0.945700
H131	H13	0.534500	0.184500	0.074300
H141	H14	0.452600	0.185000	0.150600
H151	H15	0.723300	0.696900	0.447200
H161	H16	0.760200	0.663000	0.334700
H171	H17	0.951500	0.634700	0.450100
H181	H18	0.911200	0.660800	0.559400
H191	H19	0.945700	0.549400	0.356400
H201	H20	0.074300	0.534500	0.184500
H211	H21	0.150600	0.452600	0.185000
H221	H22	0.776700	0.052800	0.803100
H231	H23	0.739800	0.165300	0.837000
H241	H24	0.548500	0.049900	0.865300
H251	H25	0.588800	0.940600	0.839200
H261	H26	0.554300	0.143600	0.950600
H271	H27	0.425700	0.315500	0.965500
H281	H28	0.349400	0.315000	0.047400
H291	H29	0.052800	0.803100	0.776700
H301	H30	0.165300	0.837000	0.739800
H311	H31	0.049900	0.865300	0.548500
H321	H32	0.940600	0.839200	0.588800
H331	H33	0.143600	0.950600	0.554300
H341	H34	0.315500	0.965500	0.425700
H351	H35	0.315000	0.047400	0.349400
H361	H36	0.803100	0.776700	0.052800
H371	H37	0.837000	0.739800	0.165300
H381	H38	0.865300	0.548500	0.049900
H391	H39	0.839200	0.588800	0.940600
H401	H40	0.950600	0.554300	0.143600
H411	H41	0.965500	0.425700	0.315500
H421	H42	0.047400	0.349400	0.315000
H431	H43	0.552800	0.276700	0.303100
H441	H44	0.665300	0.239800	0.337000
H451	H45	0.549900	0.048500	0.365300
H461	H46	0.440600	0.088800	0.339200
H471	H47	0.643600	0.054300	0.450600
H481	H48	0.815500	0.925700	0.465500
H491	H49	0.815000	0.849400	0.547400
H501	H50	0.303100	0.552800	0.276700
H511	H51	0.337000	0.665300	0.239800
H521	H52	0.365300	0.549900	0.048500
H531	H53	0.339200	0.440600	0.088800
H541	H54	0.450600	0.643600	0.054300
H551	H55	0.465500	0.815500	0.925700
H561	H56	0.547400	0.815000	0.849400
H571	H57	0.276700	0.303100	0.552800
H581	H58	0.239800	0.337000	0.665300
H591	H59	0.048500	0.365300	0.549900
H601	H60	0.088800	0.339200	0.440600
H611	H61	0.054300	0.450600	0.643600
H621	H62	0.925700	0.465500	0.815500
H631	H63	0.849400	0.547400	0.815000
H641	H64	0.223300	0.947200	0.196900
H651	H65	0.260200	0.834700	0.163000
H661	H66	0.451500	0.950100	0.134700
H671	H67	0.411200	0.059400	0.160800
H681	H68	0.445700	0.856400	0.049400
H691	H69	0.574300	0.684500	0.034500
H701	H70	0.650600	0.685000	0.952600
H711	H71	0.947200	0.196900	0.223300
H721	H72	0.834700	0.163000	0.260200
H731	H73	0.950100	0.134700	0.451500
H741	H74	0.059400	0.160800	0.411200
H751	H75	0.856400	0.049400	0.445700
H761	H76	0.684500	0.034500	0.574300
H771	H77	0.685000	0.952600	0.650600
H781	H78	0.196900	0.223300	0.947200
H791	H79	0.163000	0.260200	0.834700
H801	H80	0.134700	0.451500	0.950100
H811	H81	0.160800	0.411200	0.059400
H821	H82	0.049400	0.445700	0.856400
H831	H83	0.034500	0.574300	0.684500
H841	H84	0.952600	0.650600	0.685000
C11	C1	0.585600	0.784900	0.693400
C21	C2	0.514500	0.810900	0.677900
C31	C3	0.447600	0.769000	0.681100
C41	C4	0.379900	0.791300	0.662000
C51	C5	0.380200	0.859000	0.642000
C61	C6	0.448600	0.903200	0.644600
C71	C7	0.514100	0.879800	0.661000
C81	C8	0.310900	0.883900	0.615600
C91	C9	0.312100	0.931200	0.566500
C101	C10	0.211600	0.067000	0.496100
C111	C11	0.212700	0.112300	0.447600
C121	C12	0.693400	0.585600	0.784900
C131	C13	0.677900	0.514500	0.810900
C141	C14	0.681100	0.447600	0.769000
C151	C15	0.662000	0.379900	0.791300
C161	C16	0.642000	0.380200	0.859000
C171	C17	0.644600	0.448600	0.903200
C181	C18	0.661000	0.514100	0.879800
C191	C19	0.615600	0.310900	0.883900
C201	C20	0.566500	0.312100	0.931200
C211	C21	0.496100	0.211600	0.067000
C221	C22	0.447600	0.212700	0.112300
C231	C23	0.784900	0.693400	0.585600
C241	C24	0.810900	0.677900	0.514500
C251	C25	0.769000	0.681100	0.447600
C261	C26	0.791300	0.662000	0.379900
C271	C27	0.859000	0.642000	0.380200
C281	C28	0.903200	0.644600	0.448600
C291	C29	0.879800	0.661000	0.514100
C301	C30	0.883900	0.615600	0.310900
C311	C31	0.931200	0.566500	0.312100
C321	C32	0.067000	0.496100	0.211600
C331	C33	0.112300	0.447600	0.212700
C341	C34	0.715100	0.914400	0.806600
C351	C35	0.689100	0.985500	0.822100
C361	C36	0.731000	0.052400	0.818900
C371	C37	0.708700	0.120100	0.838000
C381	C38	0.641000	0.119800	0.858000
C391	C39	0.596800	0.051400	0.855400
C401	C40	0.620200	0.985900	0.839000
C411	C41	0.616100	0.189100	0.884400
C421	C42	0.568800	0.187900	0.933500
C431	C43	0.433000	0.288400	0.003900
C441	C44	0.387700	0.287300	0.052400
C451	C45	0.914400	0.806600	0.715100
C461	C46	0.985500	0.822100	0.689100
C471	C47	0.052400	0.818900	0.731000
C481	C48	0.120100	0.838000	0.708700
C491	C49	0.119800	0.858000	0.641000
C501	C50	0.051400	0.855400	0.596800
C511	C51	0.985900	0.839000	0.620200
C521	C52	0.189100	0.884400	0.616100
C531	C53	0.187900	0.933500	0.568800
C541	C54	0.288400	0.003900	0.433000
C551	C55	0.287300	0.052400	0.387700
C561	C56	0.806600	0.715100	0.914400
C571	C57	0.822100	0.689100	0.985500
C581	C58	0.818900	0.731000	0.052400
C591	C59	0.838000	0.708700	0.120100
C601	C60	0.858000	0.641000	0.119800
C611	C61	0.855400	0.596800	0.051400
C621	C62	0.839000	0.620200	0.985900
C631	C63	0.884400	0.616100	0.189100
C641	C64	0.933500	0.568800	0.187900
C651	C65	0.003900	0.433000	0.288400
C661	C66	0.052400	0.387700	0.287300
C671	C67	0.414400	0.215100	0.306600
C681	C68	0.485500	0.189100	0.322100
C691	C69	0.552400	0.231000	0.318900
C701	C70	0.620100	0.208700	0.338000
C711	C71	0.619800	0.141000	0.358000
C721	C72	0.551400	0.096800	0.355400
C731	C73	0.485900	0.120200	0.339000
C741	C74	0.689100	0.116100	0.384400
C751	C75	0.687900	0.068800	0.433500
C761	C76	0.788400	0.933000	0.503900
C771	C77	0.787300	0.887700	0.552400
C781	C78	0.306600	0.414400	0.215100
C791	C79	0.322100	0.485500	0.189100
C801	C80	0.318900	0.552400	0.231000
C811	C81	0.338000	0.620100	0.208700
C821	C82	0.358000	0.619800	0.141000
C831	C83	0.355400	0.551400	0.096800
C841	C84	0.339000	0.485900	0.120200
C851	C85	0.384400	0.689100	0.116100
C861	C86	0.433500	0.687900	0.068800
C871	C87	0.503900	0.788400	0.933000
C881	C88	0.552400	0.787300	0.887700
C891	C89	0.215100	0.306600	0.414400
C901	C90	0.189100	0.322100	0.485500
C911	C91	0.231000	0.318900	0.552400
C921	C92	0.208700	0.338000	0.620100
C931	C93	0.141000	0.358000	0.619800
C941	C94	0.096800	0.355400	0.551400
C951	C95	0.120200	0.339000	0.485900
C961	C96	0.116100	0.384400	0.689100
C971	C97	0.068800	0.433500	0.687900
C981	C98	0.933000	0.503900	0.788400
C991	C99	0.887700	0.552400	0.787300
C1001	C100	0.284900	0.085600	0.193400
C1011	C101	0.310900	0.014500	0.177900
C1021	C102	0.269000	0.947600	0.181100
C1031	C103	0.291300	0.879900	0.162000
C1041	C104	0.359000	0.880200	0.142000
C1051	C105	0.403200	0.948600	0.144600
C1061	C106	0.379800	0.014100	0.161000
C1071	C107	0.383900	0.810900	0.115600
C1081	C108	0.431200	0.812100	0.066500
C1091	C109	0.567000	0.711600	0.996100
C1101	C110	0.612300	0.712700	0.947600
C1111	C111	0.085600	0.193400	0.284900
C1121	C112	0.014500	0.177900	0.310900
C1131	C113	0.947600	0.181100	0.269000
C1141	C114	0.879900	0.162000	0.291300
C1151	C115	0.880200	0.142000	0.359000
C1161	C116	0.948600	0.144600	0.403200
C1171	C117	0.014100	0.161000	0.379800
C1181	C118	0.810900	0.115600	0.383900
C1191	C119	0.812100	0.066500	0.431200
C1201	C120	0.711600	0.996100	0.567000
C1211	C121	0.712700	0.947600	0.612300
C1221	C122	0.193400	0.284900	0.085600
C1231	C123	0.177900	0.310900	0.014500
C1241	C124	0.181100	0.269000	0.947600
C1251	C125	0.162000	0.291300	0.879900
C1261	C126	0.142000	0.359000	0.880200
C1271	C127	0.144600	0.403200	0.948600
C1281	C128	0.161000	0.379800	0.014100
C1291	C129	0.115600	0.383900	0.810900
C1301	C130	0.066500	0.431200	0.812100
C1311	C131	0.996100	0.567000	0.711600
C1321	C132	0.947600	0.612300	0.712700
C1331	C133	0.250000	0.958050	0.541950
C1341	C134	0.250000	0.009350	0.490650
C1351	C135	0.541950	0.250000	0.958050
C1361	C136	0.490650	0.250000	0.009350
C1371	C137	0.958050	0.541950	0.250000
C1381	C138	0.009350	0.490650	0.250000
C1391	C139	0.750000	0.041950	0.458050
C1401	C140	0.750000	0.990650	0.509350
C1411	C141	0.458050	0.750000	0.041950
C1421	C142	0.509350	0.750000	0.990650
C1431	C143	0.041950	0.458050	0.750000
C1441	C144	0.990650	0.509350	0.750000
N11	N1	0.250000	0.107150	0.392850
N21	N2	0.250000	0.859950	0.640050
N31	N3	0.392850	0.250000	0.107150
N41	N4	0.640050	0.250000	0.859950
N51	N5	0.107150	0.392850	0.250000
N61	N6	0.859950	0.640050	0.250000
N71	N7	0.750000	0.892850	0.607150
N81	N8	0.750000	0.140050	0.359950
N91	N9	0.607150	0.750000	0.892850
N101	N10	0.359950	0.750000	0.140050
N111	N11	0.892850	0.607150	0.750000
N121	N12	0.140050	0.359950	0.750000
O11	O1	0.590400	0.737070	0.733250
O21	O2	0.636830	0.815060	0.666040
O31	O3	0.733250	0.590400	0.737070
O41	O4	0.666040	0.636830	0.815060
O51	O5	0.737070	0.733250	0.590400
O61	O6	0.815060	0.666040	0.636830
O71	O7	0.762930	0.909600	0.766750
O81	O8	0.684940	0.863170	0.833960
O91	O9	0.909600	0.766750	0.762930
O101	O10	0.863170	0.833960	0.684940
O111	O11	0.766750	0.762930	0.909600
O121	O12	0.833960	0.684940	0.863170
O131	O13	0.409600	0.262930	0.266750
O141	O14	0.363170	0.184940	0.333960
O151	O15	0.266750	0.409600	0.262930
O161	O16	0.333960	0.363170	0.184940
O171	O17	0.262930	0.266750	0.409600
O181	O18	0.184940	0.333960	0.363170
O191	O19	0.237070	0.090400	0.233250
O201	O20	0.315060	0.136830	0.166040
O211	O21	0.090400	0.233250	0.237070
O221	O22	0.136830	0.166040	0.315060
O231	O23	0.233250	0.237070	0.090400
O241	O24	0.166040	0.315060	0.136830
O251	O25	0.250000	0.250000	0.250000
O261	O26	0.750000	0.750000	0.750000
