data_BEPVOJ_clean_PM
_symmetry_space_group_name_H-M	'P1'
_cell_length_a	11.312000
_cell_length_b	11.515200
_cell_length_c	12.695300
_cell_angle_alpha	88.503000
_cell_angle_beta	65.829000
_cell_angle_gamma	68.347000
_symmetry_Int_Tables_number 1

loop_
_symmetry_equiv_pos_as_xyz
'x,y,z'

loop_
_atom_site_label
_atom_site_type_symbol
_atom_site_fract_x
_atom_site_fract_y
_atom_site_fract_z
Cu11	Cu1	0.171400	0.880510	0.593970
Cu21	Cu2	0.865360	0.058190	0.008690
Cu31	Cu3	0.639760	0.818060	0.289210
Cu41	Cu4	0.828600	0.119490	0.406030
Cu51	Cu5	0.134640	0.941810	0.991310
Cu61	Cu6	0.360240	0.181940	0.710790
H11	H1	0.476100	0.346500	0.431100
H21	H2	0.453300	0.489700	0.412200
H31	H3	0.384000	0.418600	0.363700
H41	H4	0.600300	0.196500	0.222900
H51	H5	0.867200	0.892200	0.704500
H61	H6	0.962500	0.264400	0.946400
H71	H7	0.884000	0.415100	0.968900
H81	H8	0.977900	0.346700	0.036000
H91	H9	0.701800	0.588000	0.166000
H101	H10	0.586400	0.596100	0.294500
H111	H11	0.873700	0.354100	0.289900
H121	H12	0.017100	0.370800	0.373200
H131	H13	0.019800	0.569900	0.405900
H141	H14	0.766400	0.858500	0.390100
H151	H15	0.925400	0.815400	0.293800
H161	H16	0.618000	0.947200	0.704600
H171	H17	0.627100	0.869100	0.597200
H181	H18	0.669200	0.796800	0.693900
H191	H19	0.207900	0.700000	0.305100
H201	H20	0.146600	0.841200	0.279100
H211	H21	0.238000	0.808600	0.352400
H221	H22	0.523900	0.653500	0.568900
H231	H23	0.546700	0.510300	0.587800
H241	H24	0.616000	0.581400	0.636300
H251	H25	0.399700	0.803500	0.777100
H261	H26	0.132800	0.107800	0.295500
H271	H27	0.037500	0.735600	0.053600
H281	H28	0.116000	0.584900	0.031100
H291	H29	0.022100	0.653300	0.964000
H301	H30	0.298200	0.412000	0.834000
H311	H31	0.413600	0.403900	0.705500
H321	H32	0.126300	0.645900	0.710100
H331	H33	0.982900	0.629200	0.626800
H341	H34	0.980200	0.430100	0.594100
H351	H35	0.233600	0.141500	0.609900
H361	H36	0.074600	0.184600	0.706200
H371	H37	0.382000	0.052800	0.295400
H381	H38	0.372900	0.130900	0.402800
H391	H39	0.330800	0.203200	0.306100
H401	H40	0.792100	0.300000	0.694900
H411	H41	0.853400	0.158800	0.720900
H421	H42	0.762000	0.191400	0.647600
C11	C1	0.466100	0.408400	0.377600
C21	C2	0.594500	0.363700	0.265500
C31	C3	0.688000	0.418180	0.202200
C41	C4	0.788400	0.331200	0.101600
C51	C5	0.913900	0.340100	0.005000
C61	C6	0.683200	0.544700	0.235800
C71	C7	0.785200	0.541870	0.284900
C81	C8	0.872900	0.434200	0.307300
C91	C9	0.958800	0.443600	0.354600
C101	C10	0.959200	0.561500	0.375100
C111	C11	0.871300	0.665300	0.350300
C121	C12	0.864200	0.797800	0.368700
C131	C13	0.670600	0.868000	0.650100
C141	C14	0.822100	0.853810	0.579700
C151	C15	0.907600	0.821500	0.460800
C161	C16	0.037700	0.819080	0.446750
C171	C17	0.168800	0.789700	0.336400
C181	C18	0.993000	0.988980	0.853760
C191	C19	0.697900	0.913480	0.172540
C201	C20	0.356400	0.850180	0.488430
C211	C21	0.533900	0.591600	0.622400
C221	C22	0.405500	0.636300	0.734500
C231	C23	0.312000	0.581820	0.797800
C241	C24	0.211600	0.668800	0.898400
C251	C25	0.086100	0.659900	0.995000
C261	C26	0.316800	0.455300	0.764200
C271	C27	0.214800	0.458130	0.715100
C281	C28	0.127100	0.565800	0.692700
C291	C29	0.041200	0.556400	0.645400
C301	C30	0.040800	0.438500	0.624900
C311	C31	0.128700	0.334700	0.649700
C321	C32	0.135800	0.202200	0.631300
C331	C33	0.329400	0.132000	0.349900
C341	C34	0.177900	0.146190	0.420300
C351	C35	0.092400	0.178500	0.539200
C361	C36	0.962300	0.180920	0.553250
C371	C37	0.831200	0.210300	0.663600
C381	C38	0.007000	0.011020	0.146240
C391	C39	0.302100	0.086520	0.827460
C401	C40	0.643600	0.149820	0.511570
N11	N1	0.760220	0.228510	0.102130
N21	N2	0.641670	0.250160	0.201960
N31	N3	0.784690	0.655720	0.307000
N41	N4	0.898990	0.870360	0.629060
N51	N5	0.033120	0.849610	0.549470
N61	N6	0.059600	0.945870	0.756920
N71	N7	0.740630	0.973980	0.105630
N81	N8	0.466100	0.836110	0.418130
N91	N9	0.239780	0.771490	0.897870
N101	N10	0.358330	0.749840	0.798040
N111	N11	0.215310	0.344280	0.693000
N121	N12	0.101010	0.129640	0.370940
N131	N13	0.966880	0.150390	0.450530
N141	N14	0.940400	0.054130	0.243080
N151	N15	0.259370	0.026020	0.894370
N161	N16	0.533900	0.163890	0.581870
