data_BERFIP_clean_PM
_symmetry_space_group_name_H-M	'P1'
_cell_length_a	7.977000
_cell_length_b	9.282100
_cell_length_c	15.851900
_cell_angle_alpha	85.386800
_cell_angle_beta	79.212000
_cell_angle_gamma	64.551600
_symmetry_Int_Tables_number 1

loop_
_symmetry_equiv_pos_as_xyz
'x,y,z'

loop_
_atom_site_label
_atom_site_type_symbol
_atom_site_fract_x
_atom_site_fract_y
_atom_site_fract_z
Zn11	Zn1	0.250560	0.351240	0.504310
Zn21	Zn2	0.398200	0.351240	0.995690
Zn31	Zn3	0.749440	0.648760	0.495690
Zn41	Zn4	0.601800	0.648760	0.004310
Zn51	Zn5	0.935530	0.128940	0.250000
Zn61	Zn6	0.064470	0.871060	0.750000
H11	H1	0.830200	0.208800	0.594500
H21	H2	0.394000	0.096400	0.365200
H31	H3	0.316900	0.045000	0.300600
H41	H4	0.718700	0.440800	0.358000
H51	H5	0.961000	0.208800	0.905500
H61	H6	0.509600	0.096400	0.134800
H71	H7	0.638100	0.045000	0.199400
H81	H8	0.840500	0.440800	0.142000
H91	H9	0.169800	0.791200	0.405500
H101	H10	0.606000	0.903600	0.634800
H111	H11	0.683100	0.955000	0.699400
H121	H12	0.281300	0.559200	0.642000
H131	H13	0.039000	0.791200	0.094500
H141	H14	0.490400	0.903600	0.865200
H151	H15	0.361900	0.955000	0.800600
H161	H16	0.159500	0.559200	0.858000
C11	C1	0.600800	0.190000	0.501400
C21	C2	0.899300	0.124400	0.556200
C31	C3	0.911400	0.963200	0.441900
C41	C4	0.807600	0.090800	0.498800
C51	C5	0.130900	0.233800	0.363300
C61	C6	0.841600	0.392800	0.368800
C71	C7	0.831300	0.915400	0.375800
C81	C8	0.209200	0.190000	0.998600
C91	C9	0.976300	0.124400	0.943800
C101	C10	0.125400	0.963200	0.058100
C111	C11	0.101600	0.090800	0.001200
C121	C12	0.635300	0.233800	0.136700
C131	C13	0.765600	0.392800	0.131200
C141	C14	0.253300	0.915400	0.124200
C151	C15	0.399200	0.810000	0.498600
C161	C16	0.100700	0.875600	0.443800
C171	C17	0.088600	0.036800	0.558100
C181	C18	0.192400	0.909200	0.501200
C191	C19	0.869100	0.766200	0.636700
C201	C20	0.158400	0.607200	0.631200
C211	C21	0.168700	0.084600	0.624200
C221	C22	0.790800	0.810000	0.001400
C231	C23	0.023700	0.875600	0.056200
C241	C24	0.874600	0.036800	0.941900
C251	C25	0.898400	0.909200	0.998800
C261	C26	0.364700	0.766200	0.863300
C271	C27	0.234400	0.607200	0.868800
C281	C28	0.746700	0.084600	0.875800
N11	N1	0.090400	0.341800	0.423700
N21	N2	0.301400	0.110000	0.340200
N31	N3	0.977200	0.261600	0.327700
N41	N4	0.902000	0.445400	0.425900
N51	N5	0.567800	0.341800	0.076300
N61	N6	0.588600	0.110000	0.159800
N71	N7	0.761200	0.261600	0.172300
N81	N8	0.652600	0.445400	0.074100
N91	N9	0.909600	0.658200	0.576300
N101	N10	0.698600	0.890000	0.659800
N111	N11	0.022800	0.738400	0.672300
N121	N12	0.098000	0.554600	0.574100
N131	N13	0.432200	0.658200	0.923700
N141	N14	0.411400	0.890000	0.840200
N151	N15	0.238800	0.738400	0.827700
N161	N16	0.347400	0.554600	0.925900
O11	O1	0.515900	0.155800	0.452800
O21	O2	0.514700	0.305600	0.551800
O31	O3	0.790000	0.798600	0.390800
O41	O4	0.825300	0.983600	0.303300
O51	O5	0.328300	0.155800	0.047200
O61	O6	0.179700	0.305600	0.948200
O71	O7	0.411400	0.798600	0.109200
O81	O8	0.191100	0.983600	0.196700
O91	O9	0.484100	0.844200	0.547200
O101	O10	0.485300	0.694400	0.448200
O111	O11	0.210000	0.201400	0.609200
O121	O12	0.174700	0.016400	0.696700
O131	O13	0.671700	0.844200	0.952800
O141	O14	0.820300	0.694400	0.051800
O151	O15	0.588600	0.201400	0.890800
O161	O16	0.808900	0.016400	0.803300
