data_BETHIT_clean_PM
_symmetry_space_group_name_H-M	'P1'
_cell_length_a	19.362000
_cell_length_b	19.362000
_cell_length_c	19.362000
_cell_angle_alpha	90.000000
_cell_angle_beta	90.000000
_cell_angle_gamma	90.000000
_symmetry_Int_Tables_number 1

loop_
_symmetry_equiv_pos_as_xyz
'x,y,z'

loop_
_atom_site_label
_atom_site_type_symbol
_atom_site_fract_x
_atom_site_fract_y
_atom_site_fract_z
N11	N1	0.365850	0.413880	0.082660
N21	N2	0.323750	0.404710	0.136150
N31	N3	0.634150	0.586120	0.082660
N41	N4	0.676250	0.595290	0.136150
N51	N5	0.634150	0.413880	0.917340
N61	N6	0.676250	0.404710	0.863850
N71	N7	0.365850	0.586120	0.917340
N81	N8	0.323750	0.595290	0.863850
N91	N9	0.082660	0.365850	0.413880
N101	N10	0.136150	0.323750	0.404710
N111	N11	0.082660	0.634150	0.586120
N121	N12	0.136150	0.676250	0.595290
N131	N13	0.917340	0.634150	0.413880
N141	N14	0.863850	0.676250	0.404710
N151	N15	0.917340	0.365850	0.586120
N161	N16	0.863850	0.323750	0.595290
N171	N17	0.413880	0.082660	0.365850
N181	N18	0.404710	0.136150	0.323750
N191	N19	0.586120	0.082660	0.634150
N201	N20	0.595290	0.136150	0.676250
N211	N21	0.413880	0.917340	0.634150
N221	N22	0.404710	0.863850	0.676250
N231	N23	0.586120	0.917340	0.365850
N241	N24	0.595290	0.863850	0.323750
N251	N25	0.413880	0.365850	0.917340
N261	N26	0.404710	0.323750	0.863850
N271	N27	0.586120	0.634150	0.917340
N281	N28	0.595290	0.676250	0.863850
N291	N29	0.413880	0.634150	0.082660
N301	N30	0.404710	0.676250	0.136150
N311	N31	0.586120	0.365850	0.082660
N321	N32	0.595290	0.323750	0.136150
N331	N33	0.365850	0.082660	0.586120
N341	N34	0.323750	0.136150	0.595290
N351	N35	0.634150	0.082660	0.413880
N361	N36	0.676250	0.136150	0.404710
N371	N37	0.634150	0.917340	0.586120
N381	N38	0.676250	0.863850	0.595290
N391	N39	0.365850	0.917340	0.413880
N401	N40	0.323750	0.863850	0.404710
N411	N41	0.082660	0.413880	0.634150
N421	N42	0.136150	0.404710	0.676250
N431	N43	0.082660	0.586120	0.365850
N441	N44	0.136150	0.595290	0.323750
N451	N45	0.917340	0.413880	0.365850
N461	N46	0.863850	0.404710	0.323750
N471	N47	0.917340	0.586120	0.634150
N481	N48	0.863850	0.595290	0.676250
N491	N49	0.634150	0.586120	0.917340
N501	N50	0.676250	0.595290	0.863850
N511	N51	0.365850	0.413880	0.917340
N521	N52	0.323750	0.404710	0.863850
N531	N53	0.365850	0.586120	0.082660
N541	N54	0.323750	0.595290	0.136150
N551	N55	0.634150	0.413880	0.082660
N561	N56	0.676250	0.404710	0.136150
N571	N57	0.917340	0.634150	0.586120
N581	N58	0.863850	0.676250	0.595290
N591	N59	0.917340	0.365850	0.413880
N601	N60	0.863850	0.323750	0.404710
N611	N61	0.082660	0.365850	0.586120
N621	N62	0.136150	0.323750	0.595290
N631	N63	0.082660	0.634150	0.413880
N641	N64	0.136150	0.676250	0.404710
N651	N65	0.586120	0.917340	0.634150
N661	N66	0.595290	0.863850	0.676250
N671	N67	0.413880	0.917340	0.365850
N681	N68	0.404710	0.863850	0.323750
N691	N69	0.586120	0.082660	0.365850
N701	N70	0.595290	0.136150	0.323750
N711	N71	0.413880	0.082660	0.634150
N721	N72	0.404710	0.136150	0.676250
N731	N73	0.586120	0.634150	0.082660
N741	N74	0.595290	0.676250	0.136150
N751	N75	0.413880	0.365850	0.082660
N761	N76	0.404710	0.323750	0.136150
N771	N77	0.586120	0.365850	0.917340
N781	N78	0.595290	0.323750	0.863850
N791	N79	0.413880	0.634150	0.917340
N801	N80	0.404710	0.676250	0.863850
N811	N81	0.634150	0.917340	0.413880
N821	N82	0.676250	0.863850	0.404710
N831	N83	0.365850	0.917340	0.586120
N841	N84	0.323750	0.863850	0.595290
N851	N85	0.365850	0.082660	0.413880
N861	N86	0.323750	0.136150	0.404710
N871	N87	0.634150	0.082660	0.586120
N881	N88	0.676250	0.136150	0.595290
N891	N89	0.917340	0.586120	0.365850
N901	N90	0.863850	0.595290	0.323750
N911	N91	0.917340	0.413880	0.634150
N921	N92	0.863850	0.404710	0.676250
N931	N93	0.082660	0.586120	0.634150
N941	N94	0.136150	0.595290	0.676250
N951	N95	0.082660	0.413880	0.365850
N961	N96	0.136150	0.404710	0.323750
Cd11	Cd1	0.355420	0.500000	0.000000
Cd21	Cd2	0.644580	0.500000	0.000000
Cd31	Cd3	0.000000	0.355420	0.500000
Cd41	Cd4	0.000000	0.644580	0.500000
Cd51	Cd5	0.500000	0.000000	0.355420
Cd61	Cd6	0.500000	0.000000	0.644580
Cd71	Cd7	0.500000	0.355420	0.000000
Cd81	Cd8	0.500000	0.644580	0.000000
Cd91	Cd9	0.355420	0.000000	0.500000
Cd101	Cd10	0.644580	0.000000	0.500000
Cd111	Cd11	0.000000	0.500000	0.644580
Cd121	Cd12	0.000000	0.500000	0.355420
C11	C1	0.348950	0.348950	0.167730
C21	C2	0.318490	0.318490	0.230340
C31	C3	0.651050	0.651050	0.167730
C41	C4	0.681510	0.681510	0.230340
C51	C5	0.651050	0.348950	0.832270
C61	C6	0.681510	0.318490	0.769660
C71	C7	0.348950	0.651050	0.832270
C81	C8	0.318490	0.681510	0.769660
C91	C9	0.167730	0.348950	0.348950
C101	C10	0.230340	0.318490	0.318490
C111	C11	0.167730	0.651050	0.651050
C121	C12	0.230340	0.681510	0.681510
C131	C13	0.832270	0.651050	0.348950
C141	C14	0.769660	0.681510	0.318490
C151	C15	0.832270	0.348950	0.651050
C161	C16	0.769660	0.318490	0.681510
C171	C17	0.348950	0.167730	0.348950
C181	C18	0.318490	0.230340	0.318490
C191	C19	0.651050	0.167730	0.651050
C201	C20	0.681510	0.230340	0.681510
C211	C21	0.348950	0.832270	0.651050
C221	C22	0.318490	0.769660	0.681510
C231	C23	0.651050	0.832270	0.348950
C241	C24	0.681510	0.769660	0.318490
C251	C25	0.348950	0.348950	0.832270
C261	C26	0.318490	0.318490	0.769660
C271	C27	0.651050	0.651050	0.832270
C281	C28	0.681510	0.681510	0.769660
C291	C29	0.348950	0.651050	0.167730
C301	C30	0.318490	0.681510	0.230340
C311	C31	0.651050	0.348950	0.167730
C321	C32	0.681510	0.318490	0.230340
C331	C33	0.348950	0.167730	0.651050
C341	C34	0.318490	0.230340	0.681510
C351	C35	0.651050	0.167730	0.348950
C361	C36	0.681510	0.230340	0.318490
C371	C37	0.651050	0.832270	0.651050
C381	C38	0.681510	0.769660	0.681510
C391	C39	0.348950	0.832270	0.348950
C401	C40	0.318490	0.769660	0.318490
C411	C41	0.167730	0.348950	0.651050
C421	C42	0.230340	0.318490	0.681510
C431	C43	0.167730	0.651050	0.348950
C441	C44	0.230340	0.681510	0.318490
C451	C45	0.832270	0.348950	0.348950
C461	C46	0.769660	0.318490	0.318490
C471	C47	0.832270	0.651050	0.651050
C481	C48	0.769660	0.681510	0.681510
C491	C49	0.259840	0.347820	0.259840
H11	H1	0.240300	0.387100	0.240300
C501	C50	0.740160	0.652180	0.259840
H21	H2	0.759700	0.612900	0.240300
C511	C51	0.740160	0.347820	0.740160
H31	H3	0.759700	0.387100	0.759700
C521	C52	0.259840	0.652180	0.740160
H41	H4	0.240300	0.612900	0.759700
C531	C53	0.259840	0.259840	0.347820
H51	H5	0.240300	0.240300	0.387100
C541	C54	0.259840	0.740160	0.652180
H61	H6	0.240300	0.759700	0.612900
C551	C55	0.740160	0.740160	0.347820
H71	H7	0.759700	0.759700	0.387100
C561	C56	0.740160	0.259840	0.652180
H81	H8	0.759700	0.240300	0.612900
C571	C57	0.347820	0.259840	0.259840
H91	H9	0.387100	0.240300	0.240300
C581	C58	0.652180	0.259840	0.740160
H101	H10	0.612900	0.240300	0.759700
C591	C59	0.347820	0.740160	0.740160
H111	H11	0.387100	0.759700	0.759700
C601	C60	0.652180	0.740160	0.259840
H121	H12	0.612900	0.759700	0.240300
C611	C61	0.347820	0.259840	0.740160
H131	H13	0.387100	0.240300	0.759700
C621	C62	0.652180	0.740160	0.740160
H141	H14	0.612900	0.759700	0.759700
C631	C63	0.347820	0.740160	0.259840
H151	H15	0.387100	0.759700	0.240300
C641	C64	0.652180	0.259840	0.259840
H161	H16	0.612900	0.240300	0.240300
C651	C65	0.259840	0.259840	0.652180
H171	H17	0.240300	0.240300	0.612900
C661	C66	0.740160	0.259840	0.347820
H181	H18	0.759700	0.240300	0.387100
C671	C67	0.740160	0.740160	0.652180
H191	H19	0.759700	0.759700	0.612900
C681	C68	0.259840	0.740160	0.347820
H201	H20	0.240300	0.759700	0.387100
C691	C69	0.259840	0.347820	0.740160
H211	H21	0.240300	0.387100	0.759700
C701	C70	0.259840	0.652180	0.259840
H221	H22	0.240300	0.612900	0.240300
C711	C71	0.740160	0.347820	0.259840
H231	H23	0.759700	0.387100	0.240300
C721	C72	0.740160	0.652180	0.740160
H241	H24	0.759700	0.612900	0.759700
