data_BETZOR_clean_PM
_symmetry_space_group_name_H-M	'P1'
_cell_length_a	15.251000
_cell_length_b	21.504100
_cell_length_c	22.807900
_cell_angle_alpha	118.126000
_cell_angle_beta	107.651000
_cell_angle_gamma	90.000000
_symmetry_Int_Tables_number 1

loop_
_symmetry_equiv_pos_as_xyz
'x,y,z'

loop_
_atom_site_label
_atom_site_type_symbol
_atom_site_fract_x
_atom_site_fract_y
_atom_site_fract_z
Mn11	Mn1	0.360090	0.224040	0.532220
Mn21	Mn2	0.112020	0.171080	0.436420
Mn31	Mn3	0.018450	0.603640	0.066280
Mn41	Mn4	0.139910	0.691820	0.467780
Mn51	Mn5	0.387980	0.734660	0.563580
Mn61	Mn6	0.481550	0.537360	0.933720
Mn71	Mn7	0.639910	0.775960	0.467780
Mn81	Mn8	0.887980	0.828920	0.563580
Mn91	Mn9	0.981550	0.396360	0.933720
Mn101	Mn10	0.860090	0.308180	0.532220
Mn111	Mn11	0.612020	0.265340	0.436420
Mn121	Mn12	0.518450	0.462640	0.066280
P11	P1	0.990630	0.996390	0.315940
P21	P2	0.478930	0.177500	0.660880
P31	P3	0.509370	0.680450	0.684060
P41	P4	0.021070	0.516620	0.339120
P51	P5	0.009370	0.003610	0.684060
P61	P6	0.521070	0.822500	0.339120
P71	P7	0.490630	0.319550	0.315940
P81	P8	0.978930	0.483380	0.660880
H11	H1	0.567800	0.200200	0.580800
H21	H2	0.840400	0.276200	0.704200
H31	H3	0.811400	0.257700	0.790400
H41	H4	0.625700	0.041500	0.283000
H51	H5	0.654600	0.931800	0.206400
H61	H6	0.589800	0.067000	0.614600
H71	H7	0.414300	0.883000	0.536000
H81	H8	0.295300	0.948800	0.560000
H91	H9	0.321600	0.072900	0.610800
H101	H10	0.104800	0.871200	0.483400
H111	H11	0.900800	0.945100	0.384200
H121	H12	0.156900	0.952700	0.367200
H131	H13	0.207300	0.900000	0.437800
H141	H14	0.903900	0.107900	0.390400
H151	H15	0.807800	0.910300	0.217800
H161	H16	0.999500	0.843200	0.237400
H171	H17	0.992100	0.812200	0.046000
H181	H18	0.986500	0.933800	0.084800
H191	H19	0.987000	0.009200	0.198600
H201	H20	0.456100	0.310000	0.760000
H211	H21	0.486100	0.120700	0.756200
H221	H22	0.483100	0.172700	0.872000
H231	H23	0.474300	0.293400	0.933400
H241	H24	0.659100	0.220200	0.775800
H251	H25	0.932200	0.619400	0.419200
H261	H26	0.659600	0.572000	0.295800
H271	H27	0.688600	0.467300	0.209600
H281	H28	0.874300	0.758500	0.717000
H291	H29	0.845400	0.725400	0.793600
H301	H30	0.910200	0.452400	0.385400
H311	H31	0.085700	0.347000	0.464000
H321	H32	0.204700	0.388800	0.440000
H331	H33	0.178400	0.462100	0.389200
H341	H34	0.395200	0.387800	0.516600
H351	H35	0.599200	0.560900	0.615800
H361	H36	0.343100	0.585500	0.632800
H371	H37	0.292700	0.462200	0.562200
H381	H38	0.596100	0.717500	0.609600
H391	H39	0.692200	0.692500	0.782200
H401	H40	0.500500	0.605800	0.762600
H411	H41	0.507900	0.766200	0.954000
H421	H42	0.513500	0.849000	0.915200
H431	H43	0.513000	0.810600	0.801400
H441	H44	0.043900	0.550000	0.240000
H451	H45	0.013900	0.364500	0.243800
H461	H46	0.016900	0.300700	0.128000
H471	H47	0.025700	0.360000	0.066600
H481	H48	0.840900	0.444400	0.224200
H491	H49	0.432200	0.799800	0.419200
H501	H50	0.159600	0.723800	0.295800
H511	H51	0.188600	0.742300	0.209600
H521	H52	0.374300	0.958500	0.717000
H531	H53	0.345400	0.068200	0.793600
H541	H54	0.410200	0.933000	0.385400
H551	H55	0.585700	0.117000	0.464000
H561	H56	0.704700	0.051200	0.440000
H571	H57	0.678400	0.927100	0.389200
H581	H58	0.895200	0.128800	0.516600
H591	H59	0.099200	0.054900	0.615800
H601	H60	0.843100	0.047300	0.632800
H611	H61	0.792700	0.100000	0.562200
H621	H62	0.096100	0.892100	0.609600
H631	H63	0.192200	0.089700	0.782200
H641	H64	0.000500	0.156800	0.762600
H651	H65	0.007900	0.187800	0.954000
H661	H66	0.013500	0.066200	0.915200
H671	H67	0.013000	0.990800	0.801400
H681	H68	0.543900	0.690000	0.240000
H691	H69	0.513900	0.879300	0.243800
H701	H70	0.516900	0.827300	0.128000
H711	H71	0.525700	0.706600	0.066600
H721	H72	0.340900	0.779800	0.224200
H731	H73	0.067800	0.380600	0.580800
H741	H74	0.340400	0.428000	0.704200
H751	H75	0.311400	0.532700	0.790400
H761	H76	0.125700	0.241500	0.283000
H771	H77	0.154600	0.274600	0.206400
H781	H78	0.089800	0.547600	0.614600
H791	H79	0.914300	0.653000	0.536000
H801	H80	0.795300	0.611200	0.560000
H811	H81	0.821600	0.537900	0.610800
H821	H82	0.604800	0.612200	0.483400
H831	H83	0.400800	0.439100	0.384200
H841	H84	0.656900	0.414500	0.367200
H851	H85	0.707300	0.537800	0.437800
H861	H86	0.403900	0.282500	0.390400
H871	H87	0.307800	0.307500	0.217800
H881	H88	0.499500	0.394200	0.237400
H891	H89	0.492100	0.233800	0.046000
H901	H90	0.486500	0.151000	0.084800
H911	H91	0.487000	0.189400	0.198600
H921	H92	0.956100	0.450000	0.760000
H931	H93	0.986100	0.635500	0.756200
H941	H94	0.983100	0.699300	0.872000
H951	H95	0.974300	0.640000	0.933400
H961	H96	0.159100	0.555600	0.775800
C11	C1	0.616830	0.213920	0.624280
C21	C2	0.706800	0.241680	0.634700
C31	C3	0.778900	0.258090	0.696900
C41	C4	0.761500	0.248180	0.748740
C51	C5	0.723000	0.258010	0.581060
C61	C6	0.746800	0.158300	0.392780
C71	C7	0.762000	0.086170	0.343620
C81	C8	0.688100	0.033110	0.288940
C91	C9	0.705500	0.968040	0.243080
C101	C10	0.591670	0.928190	0.557600
C111	C11	0.529900	0.043120	0.603680
C121	C12	0.513270	0.969300	0.573020
C131	C13	0.425700	0.933650	0.556760
C141	C14	0.355200	0.973040	0.571240
C151	C15	0.370500	0.046670	0.601600
C161	C16	0.925100	0.886510	0.466360
C171	C17	0.992500	0.905140	0.437920
C181	C18	0.084100	0.892010	0.454060
C191	C19	0.963000	0.936240	0.395500
C201	C20	0.024400	0.954460	0.369600
C211	C21	0.115300	0.940620	0.385320
C221	C22	0.145300	0.909480	0.427220
C231	C23	0.853200	0.072590	0.352000
C241	C24	0.870400	0.007980	0.304780
C251	C25	0.796400	0.954830	0.249940
C261	C26	0.992600	0.933560	0.229540
C271	C27	0.997400	0.861680	0.206640
C281	C28	0.999000	0.816110	0.138340
C291	C29	0.993300	0.843100	0.092860
C301	C30	0.989200	0.915390	0.115800
C311	C31	0.989300	0.959970	0.183220
C321	C32	0.006600	0.738770	0.113960
C331	C33	0.458400	0.391020	0.891260
C341	C34	0.463300	0.313300	0.852000
C351	C35	0.462300	0.282240	0.782880
C361	C36	0.470300	0.210110	0.746900
C371	C37	0.479500	0.169410	0.780200
C381	C38	0.479000	0.200840	0.849600
C391	C39	0.472600	0.272190	0.885860
C401	C40	0.459800	0.082330	0.618620
C411	C41	0.598800	0.206330	0.676780
C421	C42	0.671400	0.224340	0.739340
C431	C43	0.883170	0.589640	0.375720
C441	C44	0.793200	0.606980	0.365300
C451	C45	0.721100	0.561190	0.303100
C461	C46	0.738500	0.499440	0.251260
C471	C47	0.777000	0.676950	0.418940
C481	C48	0.753200	0.765520	0.607220
C491	C49	0.738000	0.742550	0.656380
C501	C50	0.811900	0.744170	0.711060
C511	C51	0.794500	0.724960	0.756920
C521	C52	0.908330	0.370590	0.442400
C531	C53	0.970100	0.439440	0.396320
C541	C54	0.986730	0.396280	0.426980
C551	C55	0.074300	0.376890	0.443240
C561	C56	0.144800	0.401800	0.428760
C571	C57	0.129500	0.445070	0.398400
C581	C58	0.574900	0.420150	0.533640
C591	C59	0.507500	0.467220	0.562080
C601	C60	0.415900	0.437950	0.545940
C611	C61	0.537000	0.540740	0.604500
C621	C62	0.475600	0.584860	0.630400
C631	C63	0.384700	0.555300	0.614680
C641	C64	0.354700	0.482260	0.572780
C651	C65	0.646800	0.720590	0.648000
C661	C66	0.629600	0.703200	0.695220
C671	C67	0.703600	0.704890	0.750060
C681	C68	0.507400	0.704020	0.770460
C691	C69	0.502600	0.655040	0.793360
C701	C70	0.501000	0.677770	0.861660
C711	C71	0.506700	0.750240	0.907140
C721	C72	0.510800	0.799590	0.884200
C731	C73	0.510700	0.776750	0.816780
C741	C74	0.493400	0.624810	0.886040
C751	C75	0.041600	0.499760	0.108740
C761	C76	0.036700	0.461300	0.148000
C771	C77	0.037700	0.499360	0.217120
C781	C78	0.029700	0.463210	0.253100
C791	C79	0.020500	0.389210	0.219800
C801	C80	0.021000	0.351240	0.150400
C811	C81	0.027400	0.386330	0.114140
C821	C82	0.040200	0.463710	0.381380
C831	C83	0.901200	0.529550	0.323220
C841	C84	0.828600	0.485000	0.260660
C851	C85	0.383170	0.786080	0.375720
C861	C86	0.293200	0.758320	0.365300
C871	C87	0.221100	0.741910	0.303100
C881	C88	0.238500	0.751820	0.251260
C891	C89	0.277000	0.741990	0.418940
C901	C90	0.253200	0.841700	0.607220
C911	C91	0.238000	0.913830	0.656380
C921	C92	0.311900	0.966890	0.711060
C931	C93	0.294500	0.031960	0.756920
C941	C94	0.408330	0.071810	0.442400
C951	C95	0.470100	0.956880	0.396320
C961	C96	0.486730	0.030700	0.426980
C971	C97	0.574300	0.066350	0.443240
C981	C98	0.644800	0.026960	0.428760
C991	C99	0.629500	0.953330	0.398400
C1001	C100	0.074900	0.113490	0.533640
C1011	C101	0.007500	0.094860	0.562080
C1021	C102	0.915900	0.107990	0.545940
C1031	C103	0.037000	0.063760	0.604500
C1041	C104	0.975600	0.045540	0.630400
C1051	C105	0.884700	0.059380	0.614680
C1061	C106	0.854700	0.090520	0.572780
C1071	C107	0.146800	0.927410	0.648000
C1081	C108	0.129600	0.992020	0.695220
C1091	C109	0.203600	0.045170	0.750060
C1101	C110	0.007400	0.066440	0.770460
C1111	C111	0.002600	0.138320	0.793360
C1121	C112	0.001000	0.183890	0.861660
C1131	C113	0.006700	0.156900	0.907140
C1141	C114	0.010800	0.084610	0.884200
C1151	C115	0.010700	0.040030	0.816780
C1161	C116	0.993400	0.261230	0.886040
C1171	C117	0.541600	0.608980	0.108740
C1181	C118	0.536700	0.686700	0.148000
C1191	C119	0.537700	0.717760	0.217120
C1201	C120	0.529700	0.789890	0.253100
C1211	C121	0.520500	0.830590	0.219800
C1221	C122	0.521000	0.799160	0.150400
C1231	C123	0.527400	0.727810	0.114140
C1241	C124	0.540200	0.917670	0.381380
C1251	C125	0.401200	0.793670	0.323220
C1261	C126	0.328600	0.775660	0.260660
C1271	C127	0.116830	0.410360	0.624280
C1281	C128	0.206800	0.393020	0.634700
C1291	C129	0.278900	0.438810	0.696900
C1301	C130	0.261500	0.500560	0.748740
C1311	C131	0.223000	0.323050	0.581060
C1321	C132	0.246800	0.234480	0.392780
C1331	C133	0.262000	0.257450	0.343620
C1341	C134	0.188100	0.255830	0.288940
C1351	C135	0.205500	0.275040	0.243080
C1361	C136	0.091670	0.629410	0.557600
C1371	C137	0.029900	0.560560	0.603680
C1381	C138	0.013270	0.603720	0.573020
C1391	C139	0.925700	0.623110	0.556760
C1401	C140	0.855200	0.598200	0.571240
C1411	C141	0.870500	0.554930	0.601600
C1421	C142	0.425100	0.579850	0.466360
C1431	C143	0.492500	0.532780	0.437920
C1441	C144	0.584100	0.562050	0.454060
C1451	C145	0.463000	0.459260	0.395500
C1461	C146	0.524400	0.415140	0.369600
C1471	C147	0.615300	0.444700	0.385320
C1481	C148	0.645300	0.517740	0.427220
C1491	C149	0.353200	0.279410	0.352000
C1501	C150	0.370400	0.296800	0.304780
C1511	C151	0.296400	0.295110	0.249940
C1521	C152	0.492600	0.295980	0.229540
C1531	C153	0.497400	0.344960	0.206640
C1541	C154	0.499000	0.322230	0.138340
C1551	C155	0.493300	0.249760	0.092860
C1561	C156	0.489200	0.200410	0.115800
C1571	C157	0.489300	0.223250	0.183220
C1581	C158	0.506600	0.375190	0.113960
C1591	C159	0.958400	0.500240	0.891260
C1601	C160	0.963300	0.538700	0.852000
C1611	C161	0.962300	0.500640	0.782880
C1621	C162	0.970300	0.536790	0.746900
C1631	C163	0.979500	0.610790	0.780200
C1641	C164	0.979000	0.648760	0.849600
C1651	C165	0.972600	0.613670	0.885860
C1661	C166	0.959800	0.536290	0.618620
C1671	C167	0.098800	0.470450	0.676780
C1681	C168	0.171400	0.515000	0.739340
O11	O1	0.652620	0.248230	0.528980
O21	O2	0.804560	0.282710	0.594000
O31	O3	0.237320	0.137080	0.484440
O41	O4	0.813470	0.197690	0.448140
O51	O5	0.667500	0.175230	0.373580
O61	O6	0.413290	0.206310	0.620520
O71	O7	0.572470	0.860410	0.528480
O81	O8	0.955660	0.858940	0.505440
O91	O9	0.843260	0.897660	0.448180
O101	O10	0.053710	0.065400	0.345700
O111	O11	0.669120	0.961990	0.573600
O121	O12	0.011800	0.700680	0.054060
O131	O13	0.010360	0.714610	0.154540
O141	O14	0.470400	0.420160	0.954760
O151	O15	0.445490	0.424970	0.857240
O161	O16	0.847380	0.719250	0.471020
O171	O17	0.695440	0.688710	0.406000
O181	O18	0.262680	0.652640	0.515560
O191	O19	0.686530	0.749550	0.551860
O201	O20	0.832500	0.801650	0.626420
O211	O21	0.086710	0.585790	0.379480
O221	O22	0.927530	0.331930	0.471520
O231	O23	0.544340	0.353500	0.494560
O241	O24	0.656740	0.449480	0.551820
O251	O25	0.446290	0.719700	0.654300
O261	O26	0.830880	0.388390	0.426400
O271	O27	0.488200	0.646620	0.945940
O281	O28	0.489640	0.560070	0.845460
O291	O29	0.029600	0.465400	0.045240
O301	O30	0.054510	0.567730	0.142760
O311	O31	0.347380	0.751770	0.471020
O321	O32	0.195440	0.717290	0.406000
O331	O33	0.762680	0.862920	0.515560
O341	O34	0.186530	0.802310	0.551860
O351	O35	0.332500	0.824770	0.626420
O361	O36	0.586710	0.793690	0.379480
O371	O37	0.427530	0.139590	0.471520
O381	O38	0.044340	0.141060	0.494560
O391	O39	0.156740	0.102340	0.551820
O401	O40	0.946290	0.934600	0.654300
O411	O41	0.330880	0.038010	0.426400
O421	O42	0.988200	0.299320	0.945940
O431	O43	0.989640	0.285390	0.845460
O441	O44	0.529600	0.579840	0.045240
O451	O45	0.554510	0.575030	0.142760
O461	O46	0.152620	0.280750	0.528980
O471	O47	0.304560	0.311290	0.594000
O481	O48	0.737320	0.347360	0.484440
O491	O49	0.313470	0.250450	0.448140
O501	O50	0.167500	0.198350	0.373580
O511	O51	0.913290	0.414210	0.620520
O521	O52	0.072470	0.668070	0.528480
O531	O53	0.455660	0.646500	0.505440
O541	O54	0.343260	0.550520	0.448180
O551	O55	0.553710	0.280300	0.345700
O561	O56	0.169120	0.611610	0.573600
O571	O57	0.511800	0.353380	0.054060
O581	O58	0.510360	0.439930	0.154540
O591	O59	0.970400	0.534600	0.954760
O601	O60	0.945490	0.432270	0.857240
