data_BEWVOQ_clean_PM
_symmetry_space_group_name_H-M	'P1'
_cell_length_a	15.293300
_cell_length_b	15.598500
_cell_length_c	18.194200
_cell_angle_alpha	64.685000
_cell_angle_beta	77.986000
_cell_angle_gamma	61.077000
_symmetry_Int_Tables_number 1

loop_
_symmetry_equiv_pos_as_xyz
'x,y,z'

loop_
_atom_site_label
_atom_site_type_symbol
_atom_site_fract_x
_atom_site_fract_y
_atom_site_fract_z
C11	C1	0.180400	0.765600	0.948800
C21	C2	0.273000	0.690400	0.004600
C31	C3	0.449700	0.837500	0.839300
C41	C4	0.533400	0.726200	0.844300
C51	C5	0.692500	0.711600	0.010100
C61	C6	0.790000	0.691000	0.953600
C71	C7	0.946300	0.696700	0.119700
C81	C8	0.033200	0.596400	0.109800
C91	C9	0.638700	0.985600	0.711900
C101	C10	0.627300	0.023600	0.779700
C111	C11	0.447500	0.382600	0.620800
C121	C12	0.533900	0.403600	0.629100
C131	C13	0.201300	0.712800	0.509400
C141	C14	0.295700	0.697700	0.454000
C151	C15	0.354000	0.702600	0.689700
C161	C16	0.346400	0.605000	0.754800
C171	C17	0.700900	0.242100	0.461800
C181	C18	0.793100	0.172500	0.518100
C191	C19	0.853400	0.367200	0.214400
C201	C20	0.863500	0.403000	0.276000
C211	C21	0.949500	0.014700	0.355300
C221	C22	0.034400	0.040500	0.349400
C231	C23	0.127400	0.719900	0.252400
C241	C24	0.117900	0.827400	0.189800
O11	O1	0.098200	0.794000	0.984700
O21	O2	0.256400	0.670100	0.079800
O31	O3	0.192100	0.791900	0.873800
O41	O4	0.355900	0.655000	0.972300
O51	O5	0.363400	0.859100	0.831400
O61	O6	0.509000	0.662400	0.841800
O71	O7	0.481600	0.898300	0.841400
O81	O8	0.621000	0.711000	0.850000
O91	O9	0.612600	0.776400	0.974100
O101	O10	0.771700	0.747600	0.880100
O111	O11	0.705100	0.663300	0.085000
O121	O12	0.870600	0.624300	0.986700
O131	O13	0.859300	0.702900	0.127300
O141	O14	0.018900	0.524800	0.112400
O151	O15	0.967400	0.764900	0.117600
O161	O16	0.118300	0.595800	0.101300
O171	O17	0.647600	0.891600	0.737000
O181	O18	0.624100	0.961600	0.851300
O191	O19	0.636200	0.044900	0.639900
O201	O20	0.629400	0.109200	0.759300
O211	O21	0.468000	0.294300	0.622500
O221	O22	0.619700	0.327600	0.642600
O231	O23	0.363600	0.457500	0.612400
O241	O24	0.509100	0.494100	0.626400
O251	O25	0.219100	0.668500	0.585400
O261	O26	0.378200	0.640300	0.491400
O271	O27	0.119700	0.762200	0.477500
O281	O28	0.284800	0.741700	0.379400
O291	O29	0.364400	0.706100	0.617700
O301	O30	0.342800	0.542700	0.728700
O311	O31	0.346100	0.772400	0.709500
O321	O32	0.341400	0.593100	0.827200
O331	O33	0.618400	0.262500	0.495000
O341	O34	0.780900	0.144500	0.592800
O351	O35	0.720200	0.270200	0.387000
O361	O36	0.876800	0.150700	0.482500
O371	O37	0.845700	0.279700	0.244200
O381	O38	0.872300	0.337900	0.350300
O391	O39	0.853400	0.422000	0.141200
O401	O40	0.863800	0.489200	0.251600
O411	O41	0.864300	0.082300	0.364700
O421	O42	0.009200	0.129700	0.351100
O431	O43	0.967700	0.930900	0.351500
O441	O44	0.120100	0.975000	0.343700
O451	O45	0.129100	0.700300	0.325200
O461	O46	0.122400	0.888700	0.214900
O471	O47	0.128500	0.657900	0.223800
O481	O48	0.106700	0.844600	0.116300
Cr11	Cr1	0.111590	0.724150	0.104100
Cr21	Cr2	0.627040	0.831300	0.855020
Cr31	Cr3	0.362620	0.586330	0.610370
Cr41	Cr4	0.863400	0.210170	0.362590
Mn11	Mn1	0.348000	0.722710	0.840590
Mn21	Mn2	0.861620	0.564160	0.119390
Mn31	Mn3	0.626200	0.191900	0.627640
Mn41	Mn4	0.128320	0.831430	0.343960
