data_BEXQIF_clean_PM
_symmetry_space_group_name_H-M	'P1'
_cell_length_a	13.910400
_cell_length_b	17.036500
_cell_length_c	20.815000
_cell_angle_alpha	90.000000
_cell_angle_beta	90.000000
_cell_angle_gamma	90.000000
_symmetry_Int_Tables_number 1

loop_
_symmetry_equiv_pos_as_xyz
'x,y,z'

loop_
_atom_site_label
_atom_site_type_symbol
_atom_site_fract_x
_atom_site_fract_y
_atom_site_fract_z
Fe11	Fe1	0.876480	0.199740	0.075630
Fe21	Fe2	0.035370	0.199410	0.416920
N11	N1	0.826890	0.206760	0.173150
C11	C1	0.807280	0.210200	0.226310
N21	N2	0.894420	0.214240	0.374010
C21	C2	0.842710	0.213080	0.331180
N31	N3	0.776470	0.212070	0.286110
N41	N4	0.019730	0.187910	0.117740
C31	C3	0.071020	0.183470	0.160690
N51	N5	0.091990	0.191660	0.320480
C41	C4	0.108620	0.186410	0.266480
N61	N6	0.136170	0.179150	0.206350
N71	N7	0.933020	0.200530	0.977540
C51	C5	0.993380	0.233920	0.951780
N81	N8	0.225370	0.285990	0.947430
C61	C6	0.144900	0.278720	0.935740
N91	N9	0.054940	0.273850	0.918170
N101	N10	0.900930	0.323900	0.071840
C71	C7	0.943150	0.380310	0.061100
N111	N11	0.983590	0.576250	0.076700
C81	C8	0.985220	0.510700	0.064150
N121	N12	0.998780	0.438800	0.045000
N131	N13	0.177230	0.184700	0.458000
C91	C9	0.260300	0.185770	0.458570
N141	N14	0.465810	0.284960	0.488260
C101	C10	0.408820	0.238310	0.474780
N151	N15	0.353950	0.179860	0.457370
N161	N16	0.939030	0.822700	0.085890
C111	C11	0.895110	0.879240	0.089950
N171	N17	0.864480	0.076150	0.070640
C121	C12	0.857260	0.010170	0.081630
N181	N18	0.835780	0.938050	0.096840
Fe31	Fe3	0.623520	0.800250	0.575630
Fe41	Fe4	0.464630	0.800590	0.916920
N191	N19	0.673110	0.793240	0.673150
C131	C13	0.692720	0.789800	0.726310
N201	N20	0.605580	0.785760	0.874010
C141	C14	0.657290	0.786920	0.831180
N211	N21	0.723530	0.787930	0.786110
N221	N22	0.480270	0.812090	0.617740
C151	C15	0.428980	0.816530	0.660690
N231	N23	0.408010	0.808340	0.820480
C161	C16	0.391380	0.813590	0.766480
N241	N24	0.363830	0.820850	0.706350
N251	N25	0.566980	0.799470	0.477540
C171	C17	0.506620	0.766080	0.451780
N261	N26	0.274630	0.714010	0.447430
C181	C18	0.355100	0.721280	0.435740
N271	N27	0.445060	0.726150	0.418170
N281	N28	0.599070	0.676100	0.571840
C191	C19	0.556850	0.619690	0.561100
N291	N29	0.516410	0.423750	0.576700
C201	C20	0.514780	0.489300	0.564150
N301	N30	0.501220	0.561200	0.545000
N311	N31	0.322770	0.815300	0.958000
C211	C21	0.239700	0.814230	0.958570
N321	N32	0.034190	0.715040	0.988260
C221	C22	0.091180	0.761690	0.974780
N331	N33	0.146050	0.820140	0.957370
N341	N34	0.560970	0.177300	0.585890
C231	C23	0.604890	0.120760	0.589950
N351	N35	0.635520	0.923850	0.570640
C241	C24	0.642740	0.989830	0.581630
N361	N36	0.664220	0.061950	0.596840
Fe51	Fe5	0.123520	0.699740	0.424370
Fe61	Fe6	0.964630	0.699410	0.083080
N371	N37	0.173110	0.706760	0.326850
C251	C25	0.192720	0.710200	0.273690
N381	N38	0.105580	0.714240	0.125990
C261	C26	0.157290	0.713080	0.168820
N391	N39	0.223530	0.712070	0.213890
N401	N40	0.980270	0.687910	0.382260
C271	C27	0.928980	0.683470	0.339310
N411	N41	0.908010	0.691660	0.179520
C281	C28	0.891380	0.686410	0.233520
N421	N42	0.863830	0.679150	0.293650
N431	N43	0.066980	0.700530	0.522460
C291	C29	0.006620	0.733920	0.548220
N441	N44	0.774630	0.785990	0.552570
C301	C30	0.855100	0.778720	0.564260
N451	N45	0.945060	0.773850	0.581830
N461	N46	0.099070	0.823900	0.428160
C311	C31	0.056850	0.880310	0.438900
N471	N47	0.016410	0.076250	0.423300
C321	C32	0.014780	0.010700	0.435850
N481	N48	0.001220	0.938800	0.455000
N491	N49	0.822770	0.684700	0.042000
C331	C33	0.739700	0.685770	0.041430
N501	N50	0.534190	0.784960	0.011740
C341	C34	0.591180	0.738310	0.025220
N511	N51	0.646050	0.679860	0.042630
N521	N52	0.060970	0.322700	0.414110
C351	C35	0.104890	0.379240	0.410050
N531	N53	0.135520	0.576150	0.429360
C361	C36	0.142740	0.510170	0.418370
N541	N54	0.164220	0.438050	0.403160
Fe71	Fe7	0.376480	0.300250	0.924370
Fe81	Fe8	0.535370	0.300590	0.583080
N551	N55	0.326890	0.293240	0.826850
C371	C37	0.307280	0.289800	0.773690
N561	N56	0.394420	0.285760	0.625990
C381	C38	0.342710	0.286920	0.668820
N571	N57	0.276470	0.287930	0.713890
N581	N58	0.519730	0.312090	0.882260
C391	C39	0.571020	0.316530	0.839310
N591	N59	0.591990	0.308340	0.679520
C401	C40	0.608620	0.313590	0.733520
N601	N60	0.636170	0.320850	0.793650
N611	N61	0.433020	0.299470	0.022460
C411	C41	0.493380	0.266080	0.048220
N621	N62	0.725370	0.214010	0.052570
C421	C42	0.644900	0.221280	0.064260
N631	N63	0.554940	0.226150	0.081830
N641	N64	0.400930	0.176100	0.928160
C431	C43	0.443150	0.119690	0.938900
N651	N65	0.483590	0.923750	0.923300
C441	C44	0.485220	0.989300	0.935850
N661	N66	0.498780	0.061200	0.955000
N671	N67	0.677230	0.315300	0.542000
C451	C45	0.760300	0.314230	0.541430
N681	N68	0.965810	0.215040	0.511740
C461	C46	0.908820	0.261690	0.525220
N691	N69	0.853950	0.320140	0.542630
N701	N70	0.439030	0.677300	0.914110
C471	C47	0.395110	0.620760	0.910050
N711	N71	0.364480	0.423850	0.929360
C481	C48	0.357260	0.489830	0.918370
N721	N72	0.335780	0.561950	0.903160
