data_BEXQUR_clean_PM
_symmetry_space_group_name_H-M	'P1'
_cell_length_a	13.803900
_cell_length_b	16.867900
_cell_length_c	20.763900
_cell_angle_alpha	90.000000
_cell_angle_beta	90.000000
_cell_angle_gamma	90.000000
_symmetry_Int_Tables_number 1

loop_
_symmetry_equiv_pos_as_xyz
'x,y,z'

loop_
_atom_site_label
_atom_site_type_symbol
_atom_site_fract_x
_atom_site_fract_y
_atom_site_fract_z
Ni11	Ni1	0.880000	0.203660	0.077070
Ni21	Ni2	0.036690	0.202870	0.413620
N11	N1	0.829750	0.209020	0.170560
C11	C1	0.810100	0.212490	0.224060
N21	N2	0.901300	0.215130	0.370650
C21	C2	0.847200	0.214750	0.328990
N31	N3	0.779800	0.214900	0.284130
N41	N4	0.019370	0.192520	0.117800
C31	C3	0.070500	0.186310	0.160830
N51	N5	0.094320	0.195010	0.320620
C41	C4	0.110200	0.189100	0.266660
N61	N6	0.136900	0.180000	0.206230
N71	N7	0.935950	0.204190	0.982760
C51	C5	0.997500	0.237230	0.957000
N81	N8	0.233840	0.284600	0.947910
C61	C6	0.151900	0.279140	0.938530
N91	N9	0.060110	0.277300	0.922730
N101	N10	0.901030	0.325390	0.074370
C71	C7	0.940700	0.383420	0.063270
N111	N11	0.979550	0.582290	0.080920
C81	C8	0.980700	0.516360	0.067230
N121	N12	0.993800	0.444290	0.046060
N131	N13	0.173800	0.191250	0.454290
C91	C9	0.257000	0.190640	0.456970
N141	N14	0.466930	0.284150	0.494910
C101	C10	0.408800	0.239850	0.478900
N151	N15	0.352100	0.182950	0.457750
N161	N16	0.941200	0.823750	0.089130
C111	C11	0.898200	0.881910	0.091510
N171	N17	0.869160	0.082240	0.073110
C121	C12	0.862300	0.015410	0.083000
N181	N18	0.839010	0.941880	0.096440
Ni31	Ni3	0.620000	0.796340	0.577070
Ni41	Ni4	0.463310	0.797130	0.913620
N191	N19	0.670250	0.790980	0.670560
C131	C13	0.689900	0.787510	0.724060
N201	N20	0.598700	0.784870	0.870650
C141	C14	0.652800	0.785250	0.828990
N211	N21	0.720200	0.785100	0.784130
N221	N22	0.480630	0.807480	0.617800
C151	C15	0.429500	0.813690	0.660830
N231	N23	0.405680	0.804990	0.820620
C161	C16	0.389800	0.810900	0.766660
N241	N24	0.363100	0.820000	0.706230
N251	N25	0.564050	0.795810	0.482760
C171	C17	0.502500	0.762770	0.457000
N261	N26	0.266160	0.715400	0.447910
C181	C18	0.348100	0.720860	0.438530
N271	N27	0.439890	0.722700	0.422730
N281	N28	0.598970	0.674610	0.574370
C191	C19	0.559300	0.616580	0.563270
N291	N29	0.520450	0.417710	0.580920
C201	C20	0.519300	0.483640	0.567230
N301	N30	0.506200	0.555710	0.546060
N311	N31	0.326200	0.808750	0.954290
C211	C21	0.243000	0.809360	0.956970
N321	N32	0.033070	0.715850	0.994910
C221	C22	0.091200	0.760150	0.978900
N331	N33	0.147900	0.817050	0.957750
N341	N34	0.558800	0.176250	0.589130
C231	C23	0.601800	0.118090	0.591510
N351	N35	0.630840	0.917760	0.573110
C241	C24	0.637700	0.984590	0.583000
N361	N36	0.660990	0.058120	0.596440
Ni51	Ni5	0.120000	0.703660	0.422930
Ni61	Ni6	0.963310	0.702870	0.086380
N371	N37	0.170250	0.709020	0.329440
C251	C25	0.189900	0.712490	0.275940
N381	N38	0.098700	0.715130	0.129350
C261	C26	0.152800	0.714750	0.171010
N391	N39	0.220200	0.714900	0.215870
N401	N40	0.980630	0.692520	0.382200
C271	C27	0.929500	0.686310	0.339170
N411	N41	0.905680	0.695010	0.179380
C281	C28	0.889800	0.689100	0.233340
N421	N42	0.863100	0.680000	0.293770
N431	N43	0.064050	0.704190	0.517240
C291	C29	0.002500	0.737230	0.543000
N441	N44	0.766160	0.784600	0.552090
C301	C30	0.848100	0.779140	0.561470
N451	N45	0.939890	0.777300	0.577270
N461	N46	0.098970	0.825390	0.425630
C311	C31	0.059300	0.883420	0.436730
N471	N47	0.020450	0.082290	0.419080
C321	C32	0.019300	0.016360	0.432770
N481	N48	0.006200	0.944290	0.453940
N491	N49	0.826200	0.691250	0.045710
C331	C33	0.743000	0.690640	0.043030
N501	N50	0.533070	0.784150	0.005090
C341	C34	0.591200	0.739850	0.021100
N511	N51	0.647900	0.682950	0.042250
N521	N52	0.058800	0.323750	0.410870
C351	C35	0.101800	0.381910	0.408490
N531	N53	0.130840	0.582240	0.426890
C361	C36	0.137700	0.515410	0.417000
N541	N54	0.160990	0.441880	0.403560
Ni71	Ni7	0.380000	0.296340	0.922930
Ni81	Ni8	0.536690	0.297130	0.586380
N551	N55	0.329750	0.290980	0.829440
C371	C37	0.310100	0.287510	0.775940
N561	N56	0.401300	0.284870	0.629350
C381	C38	0.347200	0.285250	0.671010
N571	N57	0.279800	0.285100	0.715870
N581	N58	0.519370	0.307480	0.882200
C391	C39	0.570500	0.313690	0.839170
N591	N59	0.594320	0.304990	0.679380
C401	C40	0.610200	0.310900	0.733340
N601	N60	0.636900	0.320000	0.793770
N611	N61	0.435950	0.295810	0.017240
C411	C41	0.497500	0.262770	0.043000
N621	N62	0.733840	0.215400	0.052090
C421	C42	0.651900	0.220860	0.061470
N631	N63	0.560110	0.222700	0.077270
N641	N64	0.401030	0.174610	0.925630
C431	C43	0.440700	0.116580	0.936730
N651	N65	0.479550	0.917710	0.919080
C441	C44	0.480700	0.983640	0.932770
N661	N66	0.493800	0.055710	0.953940
N671	N67	0.673800	0.308750	0.545710
C451	C45	0.757000	0.309360	0.543030
N681	N68	0.966930	0.215850	0.505090
C461	C46	0.908800	0.260150	0.521100
N691	N69	0.852100	0.317050	0.542250
N701	N70	0.441200	0.676250	0.910870
C471	C47	0.398200	0.618090	0.908490
N711	N71	0.369160	0.417760	0.926890
C481	C48	0.362300	0.484590	0.917000
N721	N72	0.339010	0.558120	0.903560
