data_BEXRAY_clean_PM
_symmetry_space_group_name_H-M	'P1'
_cell_length_a	14.375900
_cell_length_b	16.905500
_cell_length_c	21.634500
_cell_angle_alpha	90.000000
_cell_angle_beta	90.000000
_cell_angle_gamma	90.000000
_symmetry_Int_Tables_number 1

loop_
_symmetry_equiv_pos_as_xyz
'x,y,z'

loop_
_atom_site_label
_atom_site_type_symbol
_atom_site_fract_x
_atom_site_fract_y
_atom_site_fract_z
Mn11	Mn1	0.865640	0.266980	0.929760
Mn21	Mn2	0.029260	0.268130	0.597130
N11	N1	0.824600	0.245250	0.832910
C11	C1	0.807380	0.247390	0.781370
N21	N2	0.889570	0.252750	0.638930
C21	C2	0.841010	0.252290	0.680330
N31	N3	0.778250	0.252310	0.724310
N41	N4	0.009370	0.285710	0.890300
C31	C3	0.056780	0.293460	0.847290
N51	N5	0.082250	0.282500	0.693290
C41	C4	0.094360	0.290500	0.745610
N61	N6	0.117920	0.302350	0.803560
N71	N7	0.911820	0.281220	0.027940
C51	C5	0.982630	0.281410	0.052490
N81	N8	0.213230	0.248930	0.051060
C61	C6	0.138270	0.264130	0.064990
N91	N9	0.056780	0.284720	0.086380
N101	N10	0.842720	0.394570	0.923320
C71	C7	0.836110	0.461660	0.914660
N111	N11	0.933470	0.641420	0.899210
C81	C8	0.882830	0.589030	0.902230
N121	N12	0.817250	0.535440	0.903980
N131	N13	0.168880	0.287220	0.555740
C91	C9	0.247240	0.298190	0.550700
N141	N14	0.457690	0.250930	0.492480
C101	C10	0.396210	0.278850	0.517650
N151	N15	0.335290	0.317500	0.550190
N161	N16	0.992300	0.897730	0.915530
C111	C11	0.962420	0.950970	0.942990
N171	N17	0.892190	0.140490	0.944610
C121	C12	0.910870	0.076620	0.958010
N181	N18	0.930480	0.005890	0.979570
Mn31	Mn3	0.634360	0.733020	0.429760
Mn41	Mn4	0.470740	0.731870	0.097130
N191	N19	0.675400	0.754750	0.332910
C131	C13	0.692620	0.752610	0.281370
N201	N20	0.610430	0.747250	0.138930
C141	C14	0.658990	0.747710	0.180330
N211	N21	0.721750	0.747690	0.224310
N221	N22	0.490630	0.714290	0.390300
C151	C15	0.443220	0.706540	0.347290
N231	N23	0.417750	0.717500	0.193290
C161	C16	0.405640	0.709500	0.245610
N241	N24	0.382080	0.697650	0.303560
N251	N25	0.588180	0.718780	0.527940
C171	C17	0.517370	0.718590	0.552490
N261	N26	0.286770	0.751070	0.551060
C181	C18	0.361730	0.735870	0.564990
N271	N27	0.443220	0.715280	0.586380
N281	N28	0.657280	0.605430	0.423320
C191	C19	0.663890	0.538340	0.414660
N291	N29	0.566530	0.358580	0.399210
C201	C20	0.617170	0.410970	0.402230
N301	N30	0.682750	0.464560	0.403980
N311	N31	0.331120	0.712780	0.055740
C211	C21	0.252760	0.701810	0.050700
N321	N32	0.042310	0.749070	0.992480
C221	C22	0.103790	0.721150	0.017650
N331	N33	0.164710	0.682500	0.050190
N341	N34	0.507700	0.102270	0.415530
C231	C23	0.537580	0.049030	0.442990
N351	N35	0.607810	0.859510	0.444610
C241	C24	0.589130	0.923380	0.458010
N361	N36	0.569520	0.994110	0.479570
Mn51	Mn5	0.134360	0.766980	0.570240
Mn61	Mn6	0.970740	0.768130	0.902870
N371	N37	0.175400	0.745250	0.667090
C251	C25	0.192620	0.747390	0.718630
N381	N38	0.110430	0.752750	0.861070
C261	C26	0.158990	0.752290	0.819670
N391	N39	0.221750	0.752310	0.775690
N401	N40	0.990630	0.785710	0.609700
C271	C27	0.943220	0.793460	0.652710
N411	N41	0.917750	0.782500	0.806710
C281	C28	0.905640	0.790500	0.754390
N421	N42	0.882080	0.802350	0.696440
N431	N43	0.088180	0.781220	0.472060
C291	C29	0.017370	0.781410	0.447510
N441	N44	0.786770	0.748930	0.448940
C301	C30	0.861730	0.764130	0.435010
N451	N45	0.943220	0.784720	0.413620
N461	N46	0.157280	0.894570	0.576680
C311	C31	0.163890	0.961660	0.585340
N471	N47	0.066530	0.141420	0.600790
C321	C32	0.117170	0.089030	0.597770
N481	N48	0.182750	0.035440	0.596020
N491	N49	0.831120	0.787220	0.944260
C331	C33	0.752760	0.798190	0.949300
N501	N50	0.542310	0.750930	0.007520
C341	C34	0.603790	0.778850	0.982350
N511	N51	0.664710	0.817500	0.949810
N521	N52	0.007700	0.397730	0.584470
C351	C35	0.037580	0.450970	0.557010
N531	N53	0.107810	0.640490	0.555390
C361	C36	0.089130	0.576620	0.541990
N541	N54	0.069520	0.505890	0.520430
Mn71	Mn7	0.365640	0.233020	0.070240
Mn81	Mn8	0.529260	0.231870	0.402870
N551	N55	0.324600	0.254750	0.167090
C371	C37	0.307380	0.252610	0.218630
N561	N56	0.389570	0.247250	0.361070
C381	C38	0.341010	0.247710	0.319670
N571	N57	0.278250	0.247690	0.275690
N581	N58	0.509370	0.214290	0.109700
C391	C39	0.556780	0.206540	0.152710
N591	N59	0.582250	0.217500	0.306710
C401	C40	0.594360	0.209500	0.254390
N601	N60	0.617920	0.197650	0.196440
N611	N61	0.411820	0.218780	0.972060
C411	C41	0.482630	0.218590	0.947510
N621	N62	0.713230	0.251070	0.948940
C421	C42	0.638270	0.235870	0.935010
N631	N63	0.556780	0.215280	0.913620
N641	N64	0.342720	0.105430	0.076680
C431	C43	0.336110	0.038340	0.085340
N651	N65	0.433470	0.858580	0.100790
C441	C44	0.382830	0.910970	0.097770
N661	N66	0.317250	0.964560	0.096020
N671	N67	0.668880	0.212780	0.444260
C451	C45	0.747240	0.201810	0.449300
N681	N68	0.957690	0.249070	0.507520
C461	C46	0.896210	0.221150	0.482350
N691	N69	0.835290	0.182500	0.449810
N701	N70	0.492300	0.602270	0.084470
C471	C47	0.462420	0.549030	0.057010
N711	N71	0.392190	0.359510	0.055390
C481	C48	0.410870	0.423380	0.041990
N721	N72	0.430480	0.494110	0.020430
