data_BEXSEE_clean_PM
_symmetry_space_group_name_H-M	'P1'
_cell_length_a	12.517500
_cell_length_b	17.860000
_cell_length_c	12.343500
_cell_angle_alpha	90.000000
_cell_angle_beta	112.601000
_cell_angle_gamma	90.000000
_symmetry_Int_Tables_number 1

loop_
_symmetry_equiv_pos_as_xyz
'x,y,z'

loop_
_atom_site_label
_atom_site_type_symbol
_atom_site_fract_x
_atom_site_fract_y
_atom_site_fract_z
O11	O1	0.998220	0.077500	0.371950
O21	O2	0.141580	0.042590	0.315900
C11	C1	0.055500	0.083290	0.307900
C21	C2	0.016100	0.142140	0.212800
C31	C3	0.918400	0.185210	0.197300
H11	H1	0.878800	0.178700	0.248700
C41	C4	0.878200	0.237900	0.106800
C51	C5	0.938600	0.248590	0.033200
H21	H2	0.912200	0.284500	0.971900
C61	C6	0.037700	0.206400	0.050200
C71	C7	0.076000	0.153660	0.139700
H31	H3	0.143600	0.125200	0.151200
C81	C8	0.771600	0.282650	0.090700
O31	O3	0.733830	0.328230	0.004390
O41	O4	0.725820	0.271720	0.163840
C91	C9	0.100600	0.216370	0.969200
H41	H4	0.088800	0.267500	0.935800
H51	H5	0.184600	0.207700	0.011400
O51	O5	0.051100	0.161100	0.877730
C101	C10	0.101800	0.152740	0.798200
C111	C11	0.050600	0.099240	0.712100
H61	H6	0.984300	0.073500	0.712500
N11	N1	0.090350	0.082350	0.628860
C121	C12	0.184400	0.118840	0.629300
H71	H7	0.214100	0.106600	0.571300
C131	C13	0.239700	0.173800	0.711500
C141	C14	0.196600	0.192600	0.797300
H81	H8	0.230900	0.231200	0.852700
C151	C15	0.346700	0.212870	0.710800
O61	O6	0.397370	0.181940	0.652090
O71	O7	0.376130	0.272500	0.768810
Co11	Co1	0.562490	0.295530	0.157400
O81	O8	0.001780	0.577500	0.128050
O91	O9	0.858420	0.542590	0.184100
C161	C16	0.944500	0.583290	0.192100
C171	C17	0.983900	0.642140	0.287200
C181	C18	0.081600	0.685210	0.302700
H91	H9	0.121200	0.678700	0.251300
C191	C19	0.121800	0.737900	0.393200
C201	C20	0.061400	0.748590	0.466800
H101	H10	0.087800	0.784500	0.528100
C211	C21	0.962300	0.706400	0.449800
C221	C22	0.924000	0.653660	0.360300
H111	H11	0.856400	0.625200	0.348800
C231	C23	0.228400	0.782650	0.409300
O101	O10	0.266170	0.828230	0.495610
O111	O11	0.274180	0.771720	0.336160
C241	C24	0.899400	0.716370	0.530800
H121	H12	0.911200	0.767500	0.564200
H131	H13	0.815400	0.707700	0.488600
O121	O12	0.948900	0.661100	0.622270
C251	C25	0.898200	0.652740	0.701800
C261	C26	0.949400	0.599240	0.787900
H141	H14	0.015700	0.573500	0.787500
N21	N2	0.909650	0.582350	0.871140
C271	C27	0.815600	0.618840	0.870700
H151	H15	0.785900	0.606600	0.928700
C281	C28	0.760300	0.673800	0.788500
C291	C29	0.803400	0.692600	0.702700
H161	H16	0.769100	0.731200	0.647300
C301	C30	0.653300	0.712870	0.789200
O131	O13	0.602630	0.681940	0.847910
O141	O14	0.623870	0.772500	0.731190
Co21	Co2	0.437510	0.795530	0.342600
O151	O15	0.001780	0.922500	0.628050
O161	O16	0.858420	0.957410	0.684100
C311	C31	0.944500	0.916710	0.692100
C321	C32	0.983900	0.857860	0.787200
C331	C33	0.081600	0.814790	0.802700
H171	H17	0.121200	0.821300	0.751300
C341	C34	0.121800	0.762100	0.893200
C351	C35	0.061400	0.751410	0.966800
H181	H18	0.087800	0.715500	0.028100
C361	C36	0.962300	0.793600	0.949800
C371	C37	0.924000	0.846340	0.860300
H191	H19	0.856400	0.874800	0.848800
C381	C38	0.228400	0.717350	0.909300
O171	O17	0.266170	0.671770	0.995610
O181	O18	0.274180	0.728280	0.836160
C391	C39	0.899400	0.783630	0.030800
H201	H20	0.911200	0.732500	0.064200
H211	H21	0.815400	0.792300	0.988600
O191	O19	0.948900	0.838900	0.122270
C401	C40	0.898200	0.847260	0.201800
C411	C41	0.949400	0.900760	0.287900
H221	H22	0.015700	0.926500	0.287500
N31	N3	0.909650	0.917650	0.371140
C421	C42	0.815600	0.881160	0.370700
H231	H23	0.785900	0.893400	0.428700
C431	C43	0.760300	0.826200	0.288500
C441	C44	0.803400	0.807400	0.202700
H241	H24	0.769100	0.768800	0.147300
C451	C45	0.653300	0.787130	0.289200
O201	O20	0.602630	0.818060	0.347910
O211	O21	0.623870	0.727500	0.231190
Co31	Co3	0.437510	0.704470	0.842600
O221	O22	0.998220	0.422500	0.871950
O231	O23	0.141580	0.457410	0.815900
C461	C46	0.055500	0.416710	0.807900
C471	C47	0.016100	0.357860	0.712800
C481	C48	0.918400	0.314790	0.697300
H251	H25	0.878800	0.321300	0.748700
C491	C49	0.878200	0.262100	0.606800
C501	C50	0.938600	0.251410	0.533200
H261	H26	0.912200	0.215500	0.471900
C511	C51	0.037700	0.293600	0.550200
C521	C52	0.076000	0.346340	0.639700
H271	H27	0.143600	0.374800	0.651200
C531	C53	0.771600	0.217350	0.590700
O241	O24	0.733830	0.171770	0.504390
O251	O25	0.725820	0.228280	0.663840
C541	C54	0.100600	0.283630	0.469200
H281	H28	0.088800	0.232500	0.435800
H291	H29	0.184600	0.292300	0.511400
O261	O26	0.051100	0.338900	0.377730
C551	C55	0.101800	0.347260	0.298200
C561	C56	0.050600	0.400760	0.212100
H301	H30	0.984300	0.426500	0.212500
N41	N4	0.090350	0.417650	0.128860
C571	C57	0.184400	0.381160	0.129300
H311	H31	0.214100	0.393400	0.071300
C581	C58	0.239700	0.326200	0.211500
C591	C59	0.196600	0.307400	0.297300
H321	H32	0.230900	0.268800	0.352700
C601	C60	0.346700	0.287130	0.210800
O271	O27	0.397370	0.318060	0.152090
O281	O28	0.376130	0.227500	0.268810
Co41	Co4	0.562490	0.204470	0.657400
Co51	Co5	0.000000	0.000000	0.500000
Co61	Co6	0.000000	0.500000	0.000000
