data_BEXSAA_clean_PM
_symmetry_space_group_name_H-M	'P1'
_cell_length_a	12.552800
_cell_length_b	12.663000
_cell_length_c	18.189000
_cell_angle_alpha	90.000000
_cell_angle_beta	90.000000
_cell_angle_gamma	113.388000
_symmetry_Int_Tables_number 1

loop_
_symmetry_equiv_pos_as_xyz
'x,y,z'

loop_
_atom_site_label
_atom_site_type_symbol
_atom_site_fract_x
_atom_site_fract_y
_atom_site_fract_z
Mn11	Mn1	0.677340	0.072900	0.209090
Mn21	Mn2	0.822660	0.927100	0.709090
Mn31	Mn3	0.322660	0.927100	0.790910
Mn41	Mn4	0.177340	0.072900	0.290910
Mn51	Mn5	0.500000	0.500000	0.000000
Mn61	Mn6	0.000000	0.500000	0.500000
H11	H1	0.259100	0.391400	0.182500
H21	H2	0.166800	0.653600	0.127800
H31	H3	0.984100	0.421100	0.282300
H41	H4	0.025100	0.691600	0.203000
H51	H5	0.949900	0.599000	0.263300
H61	H6	0.874500	0.741200	0.223400
H71	H7	0.595700	0.723000	0.103900
H81	H8	0.725800	0.489800	0.072600
H91	H9	0.240900	0.608600	0.682500
H101	H10	0.333200	0.346400	0.627800
H111	H11	0.515900	0.578900	0.782300
H121	H12	0.474900	0.308400	0.703000
H131	H13	0.550100	0.401000	0.763300
H141	H14	0.625500	0.258800	0.723400
H151	H15	0.904300	0.277000	0.603900
H161	H16	0.774200	0.510200	0.572600
H171	H17	0.740900	0.608600	0.817500
H181	H18	0.833200	0.346400	0.872200
H191	H19	0.015900	0.578900	0.717700
H201	H20	0.974900	0.308400	0.797000
H211	H21	0.050100	0.401000	0.736700
H221	H22	0.125500	0.258800	0.776600
H231	H23	0.404300	0.277000	0.896100
H241	H24	0.274200	0.510200	0.927400
H251	H25	0.759100	0.391400	0.317500
H261	H26	0.666800	0.653600	0.372200
H271	H27	0.484100	0.421100	0.217700
H281	H28	0.525100	0.691600	0.297000
H291	H29	0.449900	0.599000	0.236700
H301	H30	0.374500	0.741200	0.276600
H311	H31	0.095700	0.723000	0.396100
H321	H32	0.225800	0.489800	0.427400
C11	C1	0.102500	0.283400	0.282730
C21	C2	0.118800	0.390300	0.238790
C31	C3	0.209000	0.430700	0.188320
C41	C4	0.226900	0.528000	0.146100
C51	C5	0.321700	0.566300	0.088840
C61	C6	0.153900	0.586100	0.155650
C71	C7	0.062400	0.546200	0.205560
C81	C8	0.045700	0.448200	0.247580
C91	C9	0.982700	0.608500	0.213030
C101	C10	0.815300	0.608500	0.149710
C111	C11	0.817800	0.705600	0.186630
C121	C12	0.735500	0.749800	0.168690
C131	C13	0.738600	0.857500	0.205670
C141	C14	0.651900	0.693000	0.115900
C151	C15	0.728000	0.556600	0.097490
C161	C16	0.397500	0.716600	0.782730
C171	C17	0.381200	0.609700	0.738790
C181	C18	0.291000	0.569300	0.688320
C191	C19	0.273100	0.472000	0.646100
C201	C20	0.178300	0.433700	0.588840
C211	C21	0.346100	0.413900	0.655650
C221	C22	0.437600	0.453800	0.705560
C231	C23	0.454300	0.551800	0.747580
C241	C24	0.517300	0.391500	0.713030
C251	C25	0.684700	0.391500	0.649710
C261	C26	0.682200	0.294400	0.686630
C271	C27	0.764500	0.250200	0.668690
C281	C28	0.761400	0.142500	0.705670
C291	C29	0.848100	0.307000	0.615900
C301	C30	0.772000	0.443400	0.597490
C311	C31	0.897500	0.716600	0.717270
C321	C32	0.881200	0.609700	0.761210
C331	C33	0.791000	0.569300	0.811680
C341	C34	0.773100	0.472000	0.853900
C351	C35	0.678300	0.433700	0.911160
C361	C36	0.846100	0.413900	0.844350
C371	C37	0.937600	0.453800	0.794440
C381	C38	0.954300	0.551800	0.752420
C391	C39	0.017300	0.391500	0.786970
C401	C40	0.184700	0.391500	0.850290
C411	C41	0.182200	0.294400	0.813370
C421	C42	0.264500	0.250200	0.831310
C431	C43	0.261400	0.142500	0.794330
C441	C44	0.348100	0.307000	0.884100
C451	C45	0.272000	0.443400	0.902510
C461	C46	0.602500	0.283400	0.217270
C471	C47	0.618800	0.390300	0.261210
C481	C48	0.709000	0.430700	0.311680
C491	C49	0.726900	0.528000	0.353900
C501	C50	0.821700	0.566300	0.411160
C511	C51	0.653900	0.586100	0.344350
C521	C52	0.562400	0.546200	0.294440
C531	C53	0.545700	0.448200	0.252420
C541	C54	0.482700	0.608500	0.286970
C551	C55	0.315300	0.608500	0.350290
C561	C56	0.317800	0.705600	0.313370
C571	C57	0.235500	0.749800	0.331310
C581	C58	0.238600	0.857500	0.294330
C591	C59	0.151900	0.693000	0.384100
C601	C60	0.228000	0.556600	0.402510
N11	N1	0.647520	0.597700	0.081270
N21	N2	0.852480	0.402300	0.581270
N31	N3	0.352480	0.402300	0.918730
N41	N4	0.147520	0.597700	0.418730
O11	O1	0.173400	0.238630	0.270770
O21	O2	0.019970	0.245920	0.328490
O31	O3	0.334600	0.654580	0.050750
O41	O4	0.379000	0.505650	0.081640
O51	O5	0.891060	0.556700	0.159150
O61	O6	0.671500	0.901500	0.183590
O71	O7	0.809000	0.896100	0.258360
O81	O8	0.326600	0.761370	0.770770
O91	O9	0.480030	0.754080	0.828490
O101	O10	0.165400	0.345420	0.550750
O111	O11	0.121000	0.494350	0.581640
O121	O12	0.608940	0.443300	0.659150
O131	O13	0.828500	0.098500	0.683590
O141	O14	0.691000	0.103900	0.758360
O151	O15	0.826600	0.761370	0.729230
O161	O16	0.980030	0.754080	0.671510
O171	O17	0.665400	0.345420	0.949250
O181	O18	0.621000	0.494350	0.918360
O191	O19	0.108940	0.443300	0.840850
O201	O20	0.328500	0.098500	0.816410
O211	O21	0.191000	0.103900	0.741640
O221	O22	0.673400	0.238630	0.229230
O231	O23	0.519970	0.245920	0.171510
O241	O24	0.834600	0.654580	0.449250
O251	O25	0.879000	0.505650	0.418360
O261	O26	0.391060	0.556700	0.340850
O271	O27	0.171500	0.901500	0.316410
O281	O28	0.309000	0.896100	0.241640
