data_BEYKEX_clean_PM
_symmetry_space_group_name_H-M	'P1'
_cell_length_a	11.480100
_cell_length_b	21.056600
_cell_length_c	14.722700
_cell_angle_alpha	90.000000
_cell_angle_beta	110.471000
_cell_angle_gamma	90.000000
_symmetry_Int_Tables_number 1

loop_
_symmetry_equiv_pos_as_xyz
'x,y,z'

loop_
_atom_site_label
_atom_site_type_symbol
_atom_site_fract_x
_atom_site_fract_y
_atom_site_fract_z
U11	U1	0.106490	0.471200	0.874690
U21	U2	0.390990	0.245480	0.955950
S11	S1	0.156390	0.178250	0.055700
S21	S2	0.613080	0.327390	0.677920
O11	O1	0.074200	0.423300	0.008200
O21	O2	0.886300	0.442500	0.018200
O31	O3	0.593900	0.257600	0.960400
O41	O4	0.657000	0.165000	0.918900
O51	O5	0.255900	0.216800	0.043700
O61	O6	0.122700	0.124800	0.991200
O71	O7	0.185600	0.160900	0.156900
O81	O8	0.104000	0.360200	0.839600
O91	O9	0.187700	0.264200	0.849800
O101	O10	0.926900	0.073400	0.711900
O111	O11	0.721900	0.087000	0.658000
O121	O12	0.513700	0.287200	0.615200
O131	O13	0.590800	0.341900	0.766800
O141	O14	0.634500	0.383100	0.629500
C11	C1	0.969600	0.405400	0.012100
C21	C2	0.676300	0.219300	0.947300
C31	C3	0.945800	0.336100	0.007600
C41	C4	0.826500	0.311700	0.984600
H11	H1	0.759400	0.339200	0.972900
C51	C5	0.806500	0.246100	0.978700
C61	C6	0.906400	0.204900	0.997700
H21	H2	0.893300	0.161200	0.992400
C71	C7	0.027500	0.229600	0.025100
C81	C8	0.046500	0.294900	0.028600
H31	H3	0.126700	0.311000	0.045000
C91	C9	0.096400	0.301700	0.825000
C101	C10	0.829800	0.108100	0.696400
C111	C11	0.970100	0.271900	0.777700
C121	C12	0.961400	0.206100	0.760100
H41	H4	0.033100	0.181500	0.776100
C131	C13	0.847100	0.178400	0.719300
C141	C14	0.739700	0.215600	0.694100
H51	H5	0.662200	0.196500	0.666700
C151	C15	0.747500	0.280600	0.709300
C161	C16	0.865000	0.309400	0.751400
H61	H6	0.871500	0.353000	0.761400
U31	U3	0.893510	0.971200	0.625310
U41	U4	0.609010	0.745480	0.544050
S31	S3	0.843610	0.678250	0.444300
S41	S4	0.386920	0.827390	0.822080
O151	O15	0.925800	0.923300	0.491800
O161	O16	0.113700	0.942500	0.481800
O171	O17	0.406100	0.757600	0.539600
O181	O18	0.343000	0.665000	0.581100
O191	O19	0.744100	0.716800	0.456300
O201	O20	0.877300	0.624800	0.508800
O211	O21	0.814400	0.660900	0.343100
O221	O22	0.896000	0.860200	0.660400
O231	O23	0.812300	0.764200	0.650200
O241	O24	0.073100	0.573400	0.788100
O251	O25	0.278100	0.587000	0.842000
O261	O26	0.486300	0.787200	0.884800
O271	O27	0.409200	0.841900	0.733200
O281	O28	0.365500	0.883100	0.870500
C171	C17	0.030400	0.905400	0.487900
C181	C18	0.323700	0.719300	0.552700
C191	C19	0.054200	0.836100	0.492400
C201	C20	0.173500	0.811700	0.515400
H71	H7	0.240600	0.839200	0.527100
C211	C21	0.193500	0.746100	0.521300
C221	C22	0.093600	0.704900	0.502300
H81	H8	0.106700	0.661200	0.507600
C231	C23	0.972500	0.729600	0.474900
C241	C24	0.953500	0.794900	0.471400
H91	H9	0.873300	0.811000	0.455000
C251	C25	0.903600	0.801700	0.675000
C261	C26	0.170200	0.608100	0.803600
C271	C27	0.029900	0.771900	0.722300
C281	C28	0.038600	0.706100	0.739900
H101	H10	0.966900	0.681500	0.723900
C291	C29	0.152900	0.678400	0.780700
C301	C30	0.260300	0.715600	0.805900
H111	H11	0.337800	0.696500	0.833300
C311	C31	0.252500	0.780600	0.790700
C321	C32	0.135000	0.809400	0.748600
H121	H12	0.128500	0.853000	0.738600
U51	U5	0.893510	0.528800	0.125310
U61	U6	0.609010	0.754520	0.044050
S51	S5	0.843610	0.821750	0.944300
S61	S6	0.386920	0.672610	0.322080
O291	O29	0.925800	0.576700	0.991800
O301	O30	0.113700	0.557500	0.981800
O311	O31	0.406100	0.742400	0.039600
O321	O32	0.343000	0.835000	0.081100
O331	O33	0.744100	0.783200	0.956300
O341	O34	0.877300	0.875200	0.008800
O351	O35	0.814400	0.839100	0.843100
O361	O36	0.896000	0.639800	0.160400
O371	O37	0.812300	0.735800	0.150200
O381	O38	0.073100	0.926600	0.288100
O391	O39	0.278100	0.913000	0.342000
O401	O40	0.486300	0.712800	0.384800
O411	O41	0.409200	0.658100	0.233200
O421	O42	0.365500	0.616900	0.370500
C331	C33	0.030400	0.594600	0.987900
C341	C34	0.323700	0.780700	0.052700
C351	C35	0.054200	0.663900	0.992400
C361	C36	0.173500	0.688300	0.015400
H131	H13	0.240600	0.660800	0.027100
C371	C37	0.193500	0.753900	0.021300
C381	C38	0.093600	0.795100	0.002300
H141	H14	0.106700	0.838800	0.007600
C391	C39	0.972500	0.770400	0.974900
C401	C40	0.953500	0.705100	0.971400
H151	H15	0.873300	0.689000	0.955000
C411	C41	0.903600	0.698300	0.175000
C421	C42	0.170200	0.891900	0.303600
C431	C43	0.029900	0.728100	0.222300
C441	C44	0.038600	0.793900	0.239900
H161	H16	0.966900	0.818500	0.223900
C451	C45	0.152900	0.821600	0.280700
C461	C46	0.260300	0.784400	0.305900
H171	H17	0.337800	0.803500	0.333300
C471	C47	0.252500	0.719400	0.290700
C481	C48	0.135000	0.690600	0.248600
H181	H18	0.128500	0.647000	0.238600
U71	U7	0.106490	0.028800	0.374690
U81	U8	0.390990	0.254520	0.455950
S71	S7	0.156390	0.321750	0.555700
S81	S8	0.613080	0.172610	0.177920
O431	O43	0.074200	0.076700	0.508200
O441	O44	0.886300	0.057500	0.518200
O451	O45	0.593900	0.242400	0.460400
O461	O46	0.657000	0.335000	0.418900
O471	O47	0.255900	0.283200	0.543700
O481	O48	0.122700	0.375200	0.491200
O491	O49	0.185600	0.339100	0.656900
O501	O50	0.104000	0.139800	0.339600
O511	O51	0.187700	0.235800	0.349800
O521	O52	0.926900	0.426600	0.211900
O531	O53	0.721900	0.413000	0.158000
O541	O54	0.513700	0.212800	0.115200
O551	O55	0.590800	0.158100	0.266800
O561	O56	0.634500	0.116900	0.129500
C491	C49	0.969600	0.094600	0.512100
C501	C50	0.676300	0.280700	0.447300
C511	C51	0.945800	0.163900	0.507600
C521	C52	0.826500	0.188300	0.484600
H191	H19	0.759400	0.160800	0.472900
C531	C53	0.806500	0.253900	0.478700
C541	C54	0.906400	0.295100	0.497700
H201	H20	0.893300	0.338800	0.492400
C551	C55	0.027500	0.270400	0.525100
C561	C56	0.046500	0.205100	0.528600
H211	H21	0.126700	0.189000	0.545000
C571	C57	0.096400	0.198300	0.325000
C581	C58	0.829800	0.391900	0.196400
C591	C59	0.970100	0.228100	0.277700
C601	C60	0.961400	0.293900	0.260100
H221	H22	0.033100	0.318500	0.276100
C611	C61	0.847100	0.321600	0.219300
C621	C62	0.739700	0.284400	0.194100
H231	H23	0.662200	0.303500	0.166700
C631	C63	0.747500	0.219400	0.209300
C641	C64	0.865000	0.190600	0.251400
H241	H24	0.871500	0.147000	0.261400
