data_BEZDUH_clean_PM
_symmetry_space_group_name_H-M	'P1'
_cell_length_a	7.573900
_cell_length_b	8.502800
_cell_length_c	15.494500
_cell_angle_alpha	99.568000
_cell_angle_beta	103.009000
_cell_angle_gamma	90.671000
_symmetry_Int_Tables_number 1

loop_
_symmetry_equiv_pos_as_xyz
'x,y,z'

loop_
_atom_site_label
_atom_site_type_symbol
_atom_site_fract_x
_atom_site_fract_y
_atom_site_fract_z
Ag11	Ag1	0.348300	0.515980	0.214250
Ag21	Ag2	0.562460	0.637450	0.093160
Ag31	Ag3	0.070200	0.352450	0.289770
N11	N1	0.196200	0.202800	0.071700
N21	N2	0.220600	0.835800	0.027780
N31	N3	0.080500	0.026500	0.866750
N41	N4	0.179400	0.040900	0.705610
N51	N5	0.451400	0.932300	0.759900
N61	N6	0.442800	0.802700	0.381280
N71	N7	0.359300	0.167600	0.412710
C11	C1	0.238500	0.978200	0.853050
H11	H1	0.318300	0.938900	0.898500
C21	C2	0.289800	0.984300	0.772080
C31	C3	0.021700	0.091000	0.720830
H21	H2	0.942200	0.131800	0.675900
C41	C4	0.971000	0.085100	0.799870
H31	H3	0.859400	0.122200	0.807300
C51	C5	0.342800	0.761300	0.045670
C61	C6	0.769200	0.524100	0.163800
C71	C7	0.412500	0.702800	0.320880
C81	C8	0.259600	0.316100	0.117870
C91	C9	0.258300	0.236800	0.370170
N81	N8	0.872600	0.462700	0.208800
H41	H4	0.480000	0.933000	0.710000
H51	H5	0.527000	0.904000	0.801000
Ag41	Ag4	0.651700	0.484020	0.785750
Ag51	Ag5	0.437540	0.362550	0.906840
Ag61	Ag6	0.929800	0.647550	0.710230
N91	N9	0.803800	0.797200	0.928300
N101	N10	0.779400	0.164200	0.972220
N111	N11	0.919500	0.973500	0.133250
N121	N12	0.820600	0.959100	0.294390
N131	N13	0.548600	0.067700	0.240100
N141	N14	0.557200	0.197300	0.618720
N151	N15	0.640700	0.832400	0.587290
C101	C10	0.761500	0.021800	0.146950
H61	H6	0.681700	0.061100	0.101500
C111	C11	0.710200	0.015700	0.227920
C121	C12	0.978300	0.909000	0.279170
H71	H7	0.057800	0.868200	0.324100
C131	C13	0.029000	0.914900	0.200130
H81	H8	0.140600	0.877800	0.192700
C141	C14	0.657200	0.238700	0.954330
C151	C15	0.230800	0.475900	0.836200
C161	C16	0.587500	0.297200	0.679120
C171	C17	0.740400	0.683900	0.882130
C181	C18	0.741700	0.763200	0.629830
N161	N16	0.127400	0.537300	0.791200
H91	H9	0.520000	0.067000	0.290000
H101	H10	0.473000	0.096000	0.199000
Mn11	Mn1	0.000000	0.000000	0.000000
Mn21	Mn2	0.500000	0.000000	0.500000
