data_BICPOT_clean_PM
_symmetry_space_group_name_H-M	'P1'
_cell_length_a	21.759000
_cell_length_b	13.821400
_cell_length_c	14.223700
_cell_angle_alpha	90.000000
_cell_angle_beta	98.849000
_cell_angle_gamma	90.000000
_symmetry_Int_Tables_number 1

loop_
_symmetry_equiv_pos_as_xyz
'x,y,z'

loop_
_atom_site_label
_atom_site_type_symbol
_atom_site_fract_x
_atom_site_fract_y
_atom_site_fract_z
P11	P1	0.059590	0.120510	0.014650
P21	P2	0.171640	0.784640	0.894090
P31	P3	0.262410	0.110920	0.062190
P41	P4	0.157970	0.114350	0.704930
Al11	Al1	0.161670	0.203480	0.908920
Al21	Al2	0.083740	0.899730	0.007920
Al31	Al3	0.246080	0.891400	0.059530
Al41	Al4	0.160150	0.108720	0.196670
F11	F1	0.167880	0.955300	0.026800
O11	O1	0.228970	0.837400	0.945000
O21	O2	0.061860	0.018000	0.975200
O31	O3	0.223390	0.135500	0.966300
O41	O4	0.113180	0.812900	0.935200
O51	O5	0.225350	0.131700	0.142400
O61	O6	0.098760	0.127200	0.632600
O71	O7	0.992820	0.154100	0.010400
O81	O8	0.284470	0.005700	0.063600
O91	O9	0.151950	0.178800	0.789300
O101	O10	0.321180	0.173380	0.076400
O111	O11	0.180420	0.674700	0.905500
O121	O12	0.093180	0.188600	0.955100
O131	O13	0.161960	0.808500	0.788100
O141	O14	0.215510	0.144900	0.663400
O151	O15	0.092220	0.125200	0.117200
O161	O16	0.164780	0.009000	0.740000
P51	P5	0.559590	0.620510	0.014650
P61	P6	0.671640	0.284640	0.894090
P71	P7	0.762410	0.610920	0.062190
P81	P8	0.657970	0.614350	0.704930
Al51	Al5	0.661670	0.703480	0.908920
Al61	Al6	0.583740	0.399730	0.007920
Al71	Al7	0.746080	0.391400	0.059530
Al81	Al8	0.660150	0.608720	0.196670
F21	F2	0.667880	0.455300	0.026800
O171	O17	0.728970	0.337400	0.945000
O181	O18	0.561860	0.518000	0.975200
O191	O19	0.723390	0.635500	0.966300
O201	O20	0.613180	0.312900	0.935200
O211	O21	0.725350	0.631700	0.142400
O221	O22	0.598760	0.627200	0.632600
O231	O23	0.492820	0.654100	0.010400
O241	O24	0.784470	0.505700	0.063600
O251	O25	0.651950	0.678800	0.789300
O261	O26	0.821180	0.673380	0.076400
O271	O27	0.680420	0.174700	0.905500
O281	O28	0.593180	0.688600	0.955100
O291	O29	0.661960	0.308500	0.788100
O301	O30	0.715510	0.644900	0.663400
O311	O31	0.592220	0.625200	0.117200
O321	O32	0.664780	0.509000	0.740000
P91	P9	0.940410	0.120510	0.485350
P101	P10	0.828360	0.784640	0.605910
P111	P11	0.737590	0.110920	0.437810
P121	P12	0.842030	0.114350	0.795070
Al91	Al9	0.838330	0.203480	0.591080
Al101	Al10	0.916260	0.899730	0.492080
Al111	Al11	0.753920	0.891400	0.440470
Al121	Al12	0.839850	0.108720	0.303330
F31	F3	0.832120	0.955300	0.473200
O331	O33	0.771030	0.837400	0.555000
O341	O34	0.938140	0.018000	0.524800
O351	O35	0.776610	0.135500	0.533700
O361	O36	0.886820	0.812900	0.564800
O371	O37	0.774650	0.131700	0.357600
O381	O38	0.901240	0.127200	0.867400
O391	O39	0.007180	0.154100	0.489600
O401	O40	0.715530	0.005700	0.436400
O411	O41	0.848050	0.178800	0.710700
O421	O42	0.678820	0.173380	0.423600
O431	O43	0.819580	0.674700	0.594500
O441	O44	0.906820	0.188600	0.544900
O451	O45	0.838040	0.808500	0.711900
O461	O46	0.784490	0.144900	0.836600
O471	O47	0.907780	0.125200	0.382800
O481	O48	0.835220	0.009000	0.760000
P131	P13	0.440410	0.620510	0.485350
P141	P14	0.328360	0.284640	0.605910
P151	P15	0.237590	0.610920	0.437810
P161	P16	0.342030	0.614350	0.795070
Al131	Al13	0.338330	0.703480	0.591080
Al141	Al14	0.416260	0.399730	0.492080
Al151	Al15	0.253920	0.391400	0.440470
Al161	Al16	0.339850	0.608720	0.303330
F41	F4	0.332120	0.455300	0.473200
O491	O49	0.271030	0.337400	0.555000
O501	O50	0.438140	0.518000	0.524800
O511	O51	0.276610	0.635500	0.533700
O521	O52	0.386820	0.312900	0.564800
O531	O53	0.274650	0.631700	0.357600
O541	O54	0.401240	0.627200	0.867400
O551	O55	0.507180	0.654100	0.489600
O561	O56	0.215530	0.505700	0.436400
O571	O57	0.348050	0.678800	0.710700
O581	O58	0.178820	0.673380	0.423600
O591	O59	0.319580	0.174700	0.594500
O601	O60	0.406820	0.688600	0.544900
O611	O61	0.338040	0.308500	0.711900
O621	O62	0.284490	0.644900	0.836600
O631	O63	0.407780	0.625200	0.382800
O641	O64	0.335220	0.509000	0.760000
P171	P17	0.940410	0.879490	0.985350
P181	P18	0.828360	0.215360	0.105910
P191	P19	0.737590	0.889080	0.937810
P201	P20	0.842030	0.885650	0.295070
Al171	Al17	0.838330	0.796520	0.091080
Al181	Al18	0.916260	0.100270	0.992080
Al191	Al19	0.753920	0.108600	0.940470
Al201	Al20	0.839850	0.891280	0.803330
F51	F5	0.832120	0.044700	0.973200
O651	O65	0.771030	0.162600	0.055000
O661	O66	0.938140	0.982000	0.024800
O671	O67	0.776610	0.864500	0.033700
O681	O68	0.886820	0.187100	0.064800
O691	O69	0.774650	0.868300	0.857600
O701	O70	0.901240	0.872800	0.367400
O711	O71	0.007180	0.845900	0.989600
O721	O72	0.715530	0.994300	0.936400
O731	O73	0.848050	0.821200	0.210700
O741	O74	0.678820	0.826620	0.923600
O751	O75	0.819580	0.325300	0.094500
O761	O76	0.906820	0.811400	0.044900
O771	O77	0.838040	0.191500	0.211900
O781	O78	0.784490	0.855100	0.336600
O791	O79	0.907780	0.874800	0.882800
O801	O80	0.835220	0.991000	0.260000
P211	P21	0.440410	0.379490	0.985350
P221	P22	0.328360	0.715360	0.105910
P231	P23	0.237590	0.389080	0.937810
P241	P24	0.342030	0.385650	0.295070
Al211	Al21	0.338330	0.296520	0.091080
Al221	Al22	0.416260	0.600270	0.992080
Al231	Al23	0.253920	0.608600	0.940470
Al241	Al24	0.339850	0.391280	0.803330
F61	F6	0.332120	0.544700	0.973200
O811	O81	0.271030	0.662600	0.055000
O821	O82	0.438140	0.482000	0.024800
O831	O83	0.276610	0.364500	0.033700
O841	O84	0.386820	0.687100	0.064800
O851	O85	0.274650	0.368300	0.857600
O861	O86	0.401240	0.372800	0.367400
O871	O87	0.507180	0.345900	0.989600
O881	O88	0.215530	0.494300	0.936400
O891	O89	0.348050	0.321200	0.210700
O901	O90	0.178820	0.326620	0.923600
O911	O91	0.319580	0.825300	0.094500
O921	O92	0.406820	0.311400	0.044900
O931	O93	0.338040	0.691500	0.211900
O941	O94	0.284490	0.355100	0.336600
O951	O95	0.407780	0.374800	0.882800
O961	O96	0.335220	0.491000	0.260000
P251	P25	0.059590	0.879490	0.514650
P261	P26	0.171640	0.215360	0.394090
P271	P27	0.262410	0.889080	0.562190
P281	P28	0.157970	0.885650	0.204930
Al251	Al25	0.161670	0.796520	0.408920
Al261	Al26	0.083740	0.100270	0.507920
Al271	Al27	0.246080	0.108600	0.559530
Al281	Al28	0.160150	0.891280	0.696670
F71	F7	0.167880	0.044700	0.526800
O971	O97	0.228970	0.162600	0.445000
O981	O98	0.061860	0.982000	0.475200
O991	O99	0.223390	0.864500	0.466300
O1001	O100	0.113180	0.187100	0.435200
O1011	O101	0.225350	0.868300	0.642400
O1021	O102	0.098760	0.872800	0.132600
O1031	O103	0.992820	0.845900	0.510400
O1041	O104	0.284470	0.994300	0.563600
O1051	O105	0.151950	0.821200	0.289300
O1061	O106	0.321180	0.826620	0.576400
O1071	O107	0.180420	0.325300	0.405500
O1081	O108	0.093180	0.811400	0.455100
O1091	O109	0.161960	0.191500	0.288100
O1101	O110	0.215510	0.855100	0.163400
O1111	O111	0.092220	0.874800	0.617200
O1121	O112	0.164780	0.991000	0.240000
P291	P29	0.559590	0.379490	0.514650
P301	P30	0.671640	0.715360	0.394090
P311	P31	0.762410	0.389080	0.562190
P321	P32	0.657970	0.385650	0.204930
Al291	Al29	0.661670	0.296520	0.408920
Al301	Al30	0.583740	0.600270	0.507920
Al311	Al31	0.746080	0.608600	0.559530
Al321	Al32	0.660150	0.391280	0.696670
F81	F8	0.667880	0.544700	0.526800
O1131	O113	0.728970	0.662600	0.445000
O1141	O114	0.561860	0.482000	0.475200
O1151	O115	0.723390	0.364500	0.466300
O1161	O116	0.613180	0.687100	0.435200
O1171	O117	0.725350	0.368300	0.642400
O1181	O118	0.598760	0.372800	0.132600
O1191	O119	0.492820	0.345900	0.510400
O1201	O120	0.784470	0.494300	0.563600
O1211	O121	0.651950	0.321200	0.289300
O1221	O122	0.821180	0.326620	0.576400
O1231	O123	0.680420	0.825300	0.405500
O1241	O124	0.593180	0.311400	0.455100
O1251	O125	0.661960	0.691500	0.288100
O1261	O126	0.715510	0.355100	0.163400
O1271	O127	0.592220	0.374800	0.617200
O1281	O128	0.664780	0.491000	0.240000
