data_BIHBAX_clean_PM
_symmetry_space_group_name_H-M	'P1'
_cell_length_a	24.620000
_cell_length_b	24.620000
_cell_length_c	83.680000
_cell_angle_alpha	90.000000
_cell_angle_beta	90.000000
_cell_angle_gamma	90.000000
_symmetry_Int_Tables_number 1

loop_
_symmetry_equiv_pos_as_xyz
'x,y,z'

loop_
_atom_site_label
_atom_site_type_symbol
_atom_site_fract_x
_atom_site_fract_y
_atom_site_fract_z
Cr11	Cr1	0.787350	0.291200	0.018200
Cr21	Cr2	0.844100	0.274630	0.053950
Cr31	Cr3	0.713800	0.296500	0.050300
Ag11	Ag1	0.790510	0.517510	0.130780
Ag21	Ag2	0.069670	0.519080	0.010790
O11	O1	0.774200	0.288600	0.040000
O21	O2	0.744700	0.359200	0.018560
O31	O3	0.690200	0.360400	0.038520
C11	C1	0.705500	0.379500	0.025800
C21	C2	0.679300	0.430200	0.019850
C31	C3	0.640300	0.456900	0.029040
H11	H1	0.629400	0.442400	0.039100
C41	C4	0.617500	0.505000	0.023500
H21	H2	0.590100	0.522100	0.029600
N11	N1	0.632700	0.527900	0.009700
C51	C5	0.671000	0.503000	0.001030
H31	H3	0.682600	0.519300	0.991300
C61	C6	0.694700	0.454200	0.005660
H41	H4	0.721300	0.437500	0.999100
O41	O4	0.741300	0.334300	0.067600
O51	O5	0.829100	0.330100	0.070750
C71	C7	0.782800	0.349500	0.073450
C81	C8	0.783700	0.395200	0.084840
C91	C9	0.738200	0.427100	0.088130
H51	H5	0.706200	0.423400	0.081900
C101	C10	0.740100	0.464400	0.100600
H61	H6	0.709400	0.486800	0.102500
N21	N2	0.783700	0.469900	0.110000
C111	C11	0.826800	0.438500	0.107090
H71	H7	0.857700	0.441600	0.113800
C121	C12	0.828400	0.401300	0.094600
H81	H8	0.860100	0.380100	0.092800
O61	O6	0.889100	0.326100	0.043990
O71	O7	0.848600	0.333100	0.020130
C131	C13	0.885300	0.345200	0.030500
C141	C14	0.926300	0.386600	0.025000
C151	C15	0.970500	0.400100	0.034620
H91	H9	0.975100	0.383200	0.044800
C161	C16	0.007900	0.438300	0.029300
H101	H10	0.037200	0.448000	0.036100
N31	N3	0.004100	0.461700	0.014900
C171	C17	0.962400	0.447900	0.005530
H111	H11	0.959800	0.463900	0.995200
C181	C18	0.922700	0.411000	0.010220
H121	H12	0.893300	0.402800	0.003300
O81	O8	0.718700	0.234100	0.064260
O91	O9	0.802900	0.220800	0.065200
C191	C19	0.756500	0.209700	0.069020
C201	C20	0.750400	0.161300	0.079030
C211	C21	0.699500	0.146100	0.084800
H131	H13	0.668100	0.166300	0.082000
C221	C22	0.695000	0.101200	0.094800
H141	H14	0.660300	0.092000	0.099000
N41	N4	0.737800	0.070600	0.098760
C231	C23	0.786400	0.084400	0.092900
H151	H15	0.816900	0.062400	0.095500
C241	C24	0.794200	0.129500	0.083200
H161	H16	0.829600	0.138300	0.079400
O101	O10	0.724500	0.248000	0.014000
O111	O11	0.681200	0.246300	0.036100
C251	C25	0.686000	0.232000	0.022100
C261	C26	0.644600	0.195500	0.015280
C271	C27	0.650500	0.174800	0.999860
H171	H17	0.681700	0.183800	0.993700
C281	C28	0.610700	0.141000	0.993580
H181	H18	0.614600	0.128200	0.982900
N51	N5	0.567000	0.125900	0.002000
C291	C29	0.561900	0.144700	0.016900
H191	H19	0.531400	0.133600	0.023000
C301	C30	0.599400	0.179700	0.023840
H201	H20	0.594000	0.192600	0.034400
O121	O12	0.827200	0.224100	0.016150
O131	O13	0.866200	0.212900	0.039430
C311	C31	0.859000	0.200200	0.025400
C321	C32	0.890900	0.153500	0.018880
C331	C33	0.932000	0.129900	0.028010
H211	H21	0.939100	0.142600	0.038500
C341	C34	0.962500	0.087700	0.021600
H221	H22	0.991200	0.072700	0.027800
N61	N6	0.952900	0.067300	0.007100
C351	C35	0.912700	0.089000	0.998470
H231	H23	0.905200	0.074300	0.988200
C361	C36	0.881300	0.132200	0.003900
H241	H24	0.853500	0.146900	0.997300
Cr41	Cr4	0.212650	0.708800	0.518200
Cr51	Cr5	0.155900	0.725370	0.553950
Cr61	Cr6	0.286200	0.703500	0.550300
Ag31	Ag3	0.209490	0.482490	0.630780
Ag41	Ag4	0.930330	0.480920	0.510790
O141	O14	0.225800	0.711400	0.540000
O151	O15	0.255300	0.640800	0.518560
O161	O16	0.309800	0.639600	0.538520
C371	C37	0.294500	0.620500	0.525800
C381	C38	0.320700	0.569800	0.519850
C391	C39	0.359700	0.543100	0.529040
H251	H25	0.370600	0.557600	0.539100
C401	C40	0.382500	0.495000	0.523500
H261	H26	0.409900	0.477900	0.529600
N71	N7	0.367300	0.472100	0.509700
C411	C41	0.329000	0.497000	0.501030
H271	H27	0.317400	0.480700	0.491300
C421	C42	0.305300	0.545800	0.505660
H281	H28	0.278700	0.562500	0.499100
O171	O17	0.258700	0.665700	0.567600
O181	O18	0.170900	0.669900	0.570750
C431	C43	0.217200	0.650500	0.573450
C441	C44	0.216300	0.604800	0.584840
C451	C45	0.261800	0.572900	0.588130
H291	H29	0.293800	0.576600	0.581900
C461	C46	0.259900	0.535600	0.600600
H301	H30	0.290600	0.513200	0.602500
N81	N8	0.216300	0.530100	0.610000
C471	C47	0.173200	0.561500	0.607090
H311	H31	0.142300	0.558400	0.613800
C481	C48	0.171600	0.598700	0.594600
H321	H32	0.139900	0.619900	0.592800
O191	O19	0.110900	0.673900	0.543990
O201	O20	0.151400	0.666900	0.520130
C491	C49	0.114700	0.654800	0.530500
C501	C50	0.073700	0.613400	0.525000
C511	C51	0.029500	0.599900	0.534620
H331	H33	0.024900	0.616800	0.544800
C521	C52	0.992100	0.561700	0.529300
H341	H34	0.962800	0.552000	0.536100
N91	N9	0.995900	0.538300	0.514900
C531	C53	0.037600	0.552100	0.505530
H351	H35	0.040200	0.536100	0.495200
C541	C54	0.077300	0.589000	0.510220
H361	H36	0.106700	0.597200	0.503300
O211	O21	0.281300	0.765900	0.564260
O221	O22	0.197100	0.779200	0.565200
C551	C55	0.243500	0.790300	0.569020
C561	C56	0.249600	0.838700	0.579030
C571	C57	0.300500	0.853900	0.584800
H371	H37	0.331900	0.833700	0.582000
C581	C58	0.305000	0.898800	0.594800
H381	H38	0.339700	0.908000	0.599000
N101	N10	0.262200	0.929400	0.598760
C591	C59	0.213600	0.915600	0.592900
H391	H39	0.183100	0.937600	0.595500
C601	C60	0.205800	0.870500	0.583200
H401	H40	0.170400	0.861700	0.579400
O231	O23	0.275500	0.752000	0.514000
O241	O24	0.318800	0.753700	0.536100
C611	C61	0.314000	0.768000	0.522100
C621	C62	0.355400	0.804500	0.515280
C631	C63	0.349500	0.825200	0.499860
H411	H41	0.318300	0.816200	0.493700
C641	C64	0.389300	0.859000	0.493580
H421	H42	0.385400	0.871800	0.482900
N111	N11	0.433000	0.874100	0.502000
C651	C65	0.438100	0.855300	0.516900
H431	H43	0.468600	0.866400	0.523000
C661	C66	0.400600	0.820300	0.523840
H441	H44	0.406000	0.807400	0.534400
O251	O25	0.172800	0.775900	0.516150
O261	O26	0.133800	0.787100	0.539430
C671	C67	0.141000	0.799800	0.525400
C681	C68	0.109100	0.846500	0.518880
C691	C69	0.068000	0.870100	0.528010
H451	H45	0.060900	0.857400	0.538500
C701	C70	0.037500	0.912300	0.521600
H461	H46	0.008800	0.927300	0.527800
N121	N12	0.047100	0.932700	0.507100
C711	C71	0.087300	0.911000	0.498470
H471	H47	0.094800	0.925700	0.488200
C721	C72	0.118700	0.867800	0.503900
H481	H48	0.146500	0.853100	0.497300
Cr71	Cr7	0.208800	0.287350	0.268200
Cr81	Cr8	0.225370	0.344100	0.303950
Cr91	Cr9	0.203500	0.213800	0.300300
Ag51	Ag5	0.982490	0.290510	0.380780
Ag61	Ag6	0.980920	0.569670	0.260790
O271	O27	0.211400	0.274200	0.290000
O281	O28	0.140800	0.244700	0.268560
O291	O29	0.139600	0.190200	0.288520
C731	C73	0.120500	0.205500	0.275800
C741	C74	0.069800	0.179300	0.269850
C751	C75	0.043100	0.140300	0.279040
H491	H49	0.057600	0.129400	0.289100
C761	C76	0.995000	0.117500	0.273500
H501	H50	0.977900	0.090100	0.279600
N131	N13	0.972100	0.132700	0.259700
C771	C77	0.997000	0.171000	0.251030
H511	H51	0.980700	0.182600	0.241300
C781	C78	0.045800	0.194700	0.255660
H521	H52	0.062500	0.221300	0.249100
O301	O30	0.165700	0.241300	0.317600
O311	O31	0.169900	0.329100	0.320750
C791	C79	0.150500	0.282800	0.323450
C801	C80	0.104800	0.283700	0.334840
C811	C81	0.072900	0.238200	0.338130
H531	H53	0.076600	0.206200	0.331900
C821	C82	0.035600	0.240100	0.350600
H541	H54	0.013200	0.209400	0.352500
N141	N14	0.030100	0.283700	0.360000
C831	C83	0.061500	0.326800	0.357090
H551	H55	0.058400	0.357700	0.363800
C841	C84	0.098700	0.328400	0.344600
H561	H56	0.119900	0.360100	0.342800
O321	O32	0.173900	0.389100	0.293990
O331	O33	0.166900	0.348600	0.270130
C851	C85	0.154800	0.385300	0.280500
C861	C86	0.113400	0.426300	0.275000
C871	C87	0.099900	0.470500	0.284620
H571	H57	0.116800	0.475100	0.294800
C881	C88	0.061700	0.507900	0.279300
H581	H58	0.052000	0.537200	0.286100
N151	N15	0.038300	0.504100	0.264900
C891	C89	0.052100	0.462400	0.255530
H591	H59	0.036100	0.459800	0.245200
C901	C90	0.089000	0.422700	0.260220
H601	H60	0.097200	0.393300	0.253300
O341	O34	0.265900	0.218700	0.314260
O351	O35	0.279200	0.302900	0.315200
C911	C91	0.290300	0.256500	0.319020
C921	C92	0.338700	0.250400	0.329030
C931	C93	0.353900	0.199500	0.334800
H611	H61	0.333700	0.168100	0.332000
C941	C94	0.398800	0.195000	0.344800
H621	H62	0.408000	0.160300	0.349000
N161	N16	0.429400	0.237800	0.348760
C951	C95	0.415600	0.286400	0.342900
H631	H63	0.437600	0.316900	0.345500
C961	C96	0.370500	0.294200	0.333200
H641	H64	0.361700	0.329600	0.329400
O361	O36	0.252000	0.224500	0.264000
O371	O37	0.253700	0.181200	0.286100
C971	C97	0.268000	0.186000	0.272100
C981	C98	0.304500	0.144600	0.265280
C991	C99	0.325200	0.150500	0.249860
H651	H65	0.316200	0.181700	0.243700
C1001	C100	0.359000	0.110700	0.243580
H661	H66	0.371800	0.114600	0.232900
N171	N17	0.374100	0.067000	0.252000
C1011	C101	0.355300	0.061900	0.266900
H671	H67	0.366400	0.031400	0.273000
C1021	C102	0.320300	0.099400	0.273840
H681	H68	0.307400	0.094000	0.284400
O381	O38	0.275900	0.327200	0.266150
O391	O39	0.287100	0.366200	0.289430
C1031	C103	0.299800	0.359000	0.275400
C1041	C104	0.346500	0.390900	0.268880
C1051	C105	0.370100	0.432000	0.278010
H691	H69	0.357400	0.439100	0.288500
C1061	C106	0.412300	0.462500	0.271600
H701	H70	0.427300	0.491200	0.277800
N181	N18	0.432700	0.452900	0.257100
C1071	C107	0.411000	0.412700	0.248470
H711	H71	0.425700	0.405200	0.238200
C1081	C108	0.367800	0.381300	0.253900
H721	H72	0.353100	0.353500	0.247300
Cr101	Cr10	0.791200	0.712650	0.768200
Cr111	Cr11	0.774630	0.655900	0.803950
Cr121	Cr12	0.796500	0.786200	0.800300
Ag71	Ag7	0.017510	0.709490	0.880780
Ag81	Ag8	0.019080	0.430330	0.760790
O401	O40	0.788600	0.725800	0.790000
O411	O41	0.859200	0.755300	0.768560
O421	O42	0.860400	0.809800	0.788520
C1091	C109	0.879500	0.794500	0.775800
C1101	C110	0.930200	0.820700	0.769850
C1111	C111	0.956900	0.859700	0.779040
H731	H73	0.942400	0.870600	0.789100
C1121	C112	0.005000	0.882500	0.773500
H741	H74	0.022100	0.909900	0.779600
N191	N19	0.027900	0.867300	0.759700
C1131	C113	0.003000	0.829000	0.751030
H751	H75	0.019300	0.817400	0.741300
C1141	C114	0.954200	0.805300	0.755660
H761	H76	0.937500	0.778700	0.749100
O431	O43	0.834300	0.758700	0.817600
O441	O44	0.830100	0.670900	0.820750
C1151	C115	0.849500	0.717200	0.823450
C1161	C116	0.895200	0.716300	0.834840
C1171	C117	0.927100	0.761800	0.838130
H771	H77	0.923400	0.793800	0.831900
C1181	C118	0.964400	0.759900	0.850600
H781	H78	0.986800	0.790600	0.852500
N201	N20	0.969900	0.716300	0.860000
C1191	C119	0.938500	0.673200	0.857090
H791	H79	0.941600	0.642300	0.863800
C1201	C120	0.901300	0.671600	0.844600
H801	H80	0.880100	0.639900	0.842800
O451	O45	0.826100	0.610900	0.793990
O461	O46	0.833100	0.651400	0.770130
C1211	C121	0.845200	0.614700	0.780500
C1221	C122	0.886600	0.573700	0.775000
C1231	C123	0.900100	0.529500	0.784620
H811	H81	0.883200	0.524900	0.794800
C1241	C124	0.938300	0.492100	0.779300
H821	H82	0.948000	0.462800	0.786100
N211	N21	0.961700	0.495900	0.764900
C1251	C125	0.947900	0.537600	0.755530
H831	H83	0.963900	0.540200	0.745200
C1261	C126	0.911000	0.577300	0.760220
H841	H84	0.902800	0.606700	0.753300
O471	O47	0.734100	0.781300	0.814260
O481	O48	0.720800	0.697100	0.815200
C1271	C127	0.709700	0.743500	0.819020
C1281	C128	0.661300	0.749600	0.829030
C1291	C129	0.646100	0.800500	0.834800
H851	H85	0.666300	0.831900	0.832000
C1301	C130	0.601200	0.805000	0.844800
H861	H86	0.592000	0.839700	0.849000
N221	N22	0.570600	0.762200	0.848760
C1311	C131	0.584400	0.713600	0.842900
H871	H87	0.562400	0.683100	0.845500
C1321	C132	0.629500	0.705800	0.833200
H881	H88	0.638300	0.670400	0.829400
O491	O49	0.748000	0.775500	0.764000
O501	O50	0.746300	0.818800	0.786100
C1331	C133	0.732000	0.814000	0.772100
C1341	C134	0.695500	0.855400	0.765280
C1351	C135	0.674800	0.849500	0.749860
H891	H89	0.683800	0.818300	0.743700
C1361	C136	0.641000	0.889300	0.743580
H901	H90	0.628200	0.885400	0.732900
N231	N23	0.625900	0.933000	0.752000
C1371	C137	0.644700	0.938100	0.766900
H911	H91	0.633600	0.968600	0.773000
C1381	C138	0.679700	0.900600	0.773840
H921	H92	0.692600	0.906000	0.784400
O511	O51	0.724100	0.672800	0.766150
O521	O52	0.712900	0.633800	0.789430
C1391	C139	0.700200	0.641000	0.775400
C1401	C140	0.653500	0.609100	0.768880
C1411	C141	0.629900	0.568000	0.778010
H931	H93	0.642600	0.560900	0.788500
C1421	C142	0.587700	0.537500	0.771600
H941	H94	0.572700	0.508800	0.777800
N241	N24	0.567300	0.547100	0.757100
C1431	C143	0.589000	0.587300	0.748470
H951	H95	0.574300	0.594800	0.738200
C1441	C144	0.632200	0.618700	0.753900
H961	H96	0.646900	0.646500	0.747300
Cr131	Cr13	0.712650	0.791200	0.231800
Cr141	Cr14	0.655900	0.774630	0.196050
Cr151	Cr15	0.786200	0.796500	0.199700
Ag91	Ag9	0.709490	0.017510	0.119220
Ag101	Ag10	0.430330	0.019080	0.239210
O531	O53	0.725800	0.788600	0.210000
O541	O54	0.755300	0.859200	0.231440
O551	O55	0.809800	0.860400	0.211480
C1451	C145	0.794500	0.879500	0.224200
C1461	C146	0.820700	0.930200	0.230150
C1471	C147	0.859700	0.956900	0.220960
H971	H97	0.870600	0.942400	0.210900
C1481	C148	0.882500	0.005000	0.226500
H981	H98	0.909900	0.022100	0.220400
N251	N25	0.867300	0.027900	0.240300
C1491	C149	0.829000	0.003000	0.248970
H991	H99	0.817400	0.019300	0.258700
C1501	C150	0.805300	0.954200	0.244340
H1001	H100	0.778700	0.937500	0.250900
O561	O56	0.758700	0.834300	0.182400
O571	O57	0.670900	0.830100	0.179250
C1511	C151	0.717200	0.849500	0.176550
C1521	C152	0.716300	0.895200	0.165160
C1531	C153	0.761800	0.927100	0.161870
H1011	H101	0.793800	0.923400	0.168100
C1541	C154	0.759900	0.964400	0.149400
H1021	H102	0.790600	0.986800	0.147500
N261	N26	0.716300	0.969900	0.140000
C1551	C155	0.673200	0.938500	0.142910
H1031	H103	0.642300	0.941600	0.136200
C1561	C156	0.671600	0.901300	0.155400
H1041	H104	0.639900	0.880100	0.157200
O581	O58	0.610900	0.826100	0.206010
O591	O59	0.651400	0.833100	0.229870
C1571	C157	0.614700	0.845200	0.219500
C1581	C158	0.573700	0.886600	0.225000
C1591	C159	0.529500	0.900100	0.215380
H1051	H105	0.524900	0.883200	0.205200
C1601	C160	0.492100	0.938300	0.220700
H1061	H106	0.462800	0.948000	0.213900
N271	N27	0.495900	0.961700	0.235100
C1611	C161	0.537600	0.947900	0.244470
H1071	H107	0.540200	0.963900	0.254800
C1621	C162	0.577300	0.911000	0.239780
H1081	H108	0.606700	0.902800	0.246700
O601	O60	0.781300	0.734100	0.185740
O611	O61	0.697100	0.720800	0.184800
C1631	C163	0.743500	0.709700	0.180980
C1641	C164	0.749600	0.661300	0.170970
C1651	C165	0.800500	0.646100	0.165200
H1091	H109	0.831900	0.666300	0.168000
C1661	C166	0.805000	0.601200	0.155200
H1101	H110	0.839700	0.592000	0.151000
N281	N28	0.762200	0.570600	0.151240
C1671	C167	0.713600	0.584400	0.157100
H1111	H111	0.683100	0.562400	0.154500
C1681	C168	0.705800	0.629500	0.166800
H1121	H112	0.670400	0.638300	0.170600
O621	O62	0.775500	0.748000	0.236000
O631	O63	0.818800	0.746300	0.213900
C1691	C169	0.814000	0.732000	0.227900
C1701	C170	0.855400	0.695500	0.234720
C1711	C171	0.849500	0.674800	0.250140
H1131	H113	0.818300	0.683800	0.256300
C1721	C172	0.889300	0.641000	0.256420
H1141	H114	0.885400	0.628200	0.267100
N291	N29	0.933000	0.625900	0.248000
C1731	C173	0.938100	0.644700	0.233100
H1151	H115	0.968600	0.633600	0.227000
C1741	C174	0.900600	0.679700	0.226160
H1161	H116	0.906000	0.692600	0.215600
O641	O64	0.672800	0.724100	0.233850
O651	O65	0.633800	0.712900	0.210570
C1751	C175	0.641000	0.700200	0.224600
C1761	C176	0.609100	0.653500	0.231120
C1771	C177	0.568000	0.629900	0.221990
H1171	H117	0.560900	0.642600	0.211500
C1781	C178	0.537500	0.587700	0.228400
H1181	H118	0.508800	0.572700	0.222200
N301	N30	0.547100	0.567300	0.242900
C1791	C179	0.587300	0.589000	0.251530
H1191	H119	0.594800	0.574300	0.261800
C1801	C180	0.618700	0.632200	0.246100
H1201	H120	0.646500	0.646900	0.252700
Cr161	Cr16	0.287350	0.208800	0.731800
Cr171	Cr17	0.344100	0.225370	0.696050
Cr181	Cr18	0.213800	0.203500	0.699700
Ag111	Ag11	0.290510	0.982490	0.619220
Ag121	Ag12	0.569670	0.980920	0.739210
O661	O66	0.274200	0.211400	0.710000
O671	O67	0.244700	0.140800	0.731440
O681	O68	0.190200	0.139600	0.711480
C1811	C181	0.205500	0.120500	0.724200
C1821	C182	0.179300	0.069800	0.730150
C1831	C183	0.140300	0.043100	0.720960
H1211	H121	0.129400	0.057600	0.710900
C1841	C184	0.117500	0.995000	0.726500
H1221	H122	0.090100	0.977900	0.720400
N311	N31	0.132700	0.972100	0.740300
C1851	C185	0.171000	0.997000	0.748970
H1231	H123	0.182600	0.980700	0.758700
C1861	C186	0.194700	0.045800	0.744340
H1241	H124	0.221300	0.062500	0.750900
O691	O69	0.241300	0.165700	0.682400
O701	O70	0.329100	0.169900	0.679250
C1871	C187	0.282800	0.150500	0.676550
C1881	C188	0.283700	0.104800	0.665160
C1891	C189	0.238200	0.072900	0.661870
H1251	H125	0.206200	0.076600	0.668100
C1901	C190	0.240100	0.035600	0.649400
H1261	H126	0.209400	0.013200	0.647500
N321	N32	0.283700	0.030100	0.640000
C1911	C191	0.326800	0.061500	0.642910
H1271	H127	0.357700	0.058400	0.636200
C1921	C192	0.328400	0.098700	0.655400
H1281	H128	0.360100	0.119900	0.657200
O711	O71	0.389100	0.173900	0.706010
O721	O72	0.348600	0.166900	0.729870
C1931	C193	0.385300	0.154800	0.719500
C1941	C194	0.426300	0.113400	0.725000
C1951	C195	0.470500	0.099900	0.715380
H1291	H129	0.475100	0.116800	0.705200
C1961	C196	0.507900	0.061700	0.720700
H1301	H130	0.537200	0.052000	0.713900
N331	N33	0.504100	0.038300	0.735100
C1971	C197	0.462400	0.052100	0.744470
H1311	H131	0.459800	0.036100	0.754800
C1981	C198	0.422700	0.089000	0.739780
H1321	H132	0.393300	0.097200	0.746700
O731	O73	0.218700	0.265900	0.685740
O741	O74	0.302900	0.279200	0.684800
C1991	C199	0.256500	0.290300	0.680980
C2001	C200	0.250400	0.338700	0.670970
C2011	C201	0.199500	0.353900	0.665200
H1331	H133	0.168100	0.333700	0.668000
C2021	C202	0.195000	0.398800	0.655200
H1341	H134	0.160300	0.408000	0.651000
N341	N34	0.237800	0.429400	0.651240
C2031	C203	0.286400	0.415600	0.657100
H1351	H135	0.316900	0.437600	0.654500
C2041	C204	0.294200	0.370500	0.666800
H1361	H136	0.329600	0.361700	0.670600
O751	O75	0.224500	0.252000	0.736000
O761	O76	0.181200	0.253700	0.713900
C2051	C205	0.186000	0.268000	0.727900
C2061	C206	0.144600	0.304500	0.734720
C2071	C207	0.150500	0.325200	0.750140
H1371	H137	0.181700	0.316200	0.756300
C2081	C208	0.110700	0.359000	0.756420
H1381	H138	0.114600	0.371800	0.767100
N351	N35	0.067000	0.374100	0.748000
C2091	C209	0.061900	0.355300	0.733100
H1391	H139	0.031400	0.366400	0.727000
C2101	C210	0.099400	0.320300	0.726160
H1401	H140	0.094000	0.307400	0.715600
O771	O77	0.327200	0.275900	0.733850
O781	O78	0.366200	0.287100	0.710570
C2111	C211	0.359000	0.299800	0.724600
C2121	C212	0.390900	0.346500	0.731120
C2131	C213	0.432000	0.370100	0.721990
H1411	H141	0.439100	0.357400	0.711500
C2141	C214	0.462500	0.412300	0.728400
H1421	H142	0.491200	0.427300	0.722200
N361	N36	0.452900	0.432700	0.742900
C2151	C215	0.412700	0.411000	0.751530
H1431	H143	0.405200	0.425700	0.761800
C2161	C216	0.381300	0.367800	0.746100
H1441	H144	0.353500	0.353100	0.752700
Cr191	Cr19	0.291200	0.787350	0.981800
Cr201	Cr20	0.274630	0.844100	0.946050
Cr211	Cr21	0.296500	0.713800	0.949700
Ag131	Ag13	0.517510	0.790510	0.869220
Ag141	Ag14	0.519080	0.069670	0.989210
O791	O79	0.288600	0.774200	0.960000
O801	O80	0.359200	0.744700	0.981440
O811	O81	0.360400	0.690200	0.961480
C2171	C217	0.379500	0.705500	0.974200
C2181	C218	0.430200	0.679300	0.980150
C2191	C219	0.456900	0.640300	0.970960
H1451	H145	0.442400	0.629400	0.960900
C2201	C220	0.505000	0.617500	0.976500
H1461	H146	0.522100	0.590100	0.970400
N371	N37	0.527900	0.632700	0.990300
C2211	C221	0.503000	0.671000	0.998970
H1471	H147	0.519300	0.682600	0.008700
C2221	C222	0.454200	0.694700	0.994340
H1481	H148	0.437500	0.721300	0.000900
O821	O82	0.334300	0.741300	0.932400
O831	O83	0.330100	0.829100	0.929250
C2231	C223	0.349500	0.782800	0.926550
C2241	C224	0.395200	0.783700	0.915160
C2251	C225	0.427100	0.738200	0.911870
H1491	H149	0.423400	0.706200	0.918100
C2261	C226	0.464400	0.740100	0.899400
H1501	H150	0.486800	0.709400	0.897500
N381	N38	0.469900	0.783700	0.890000
C2271	C227	0.438500	0.826800	0.892910
H1511	H151	0.441600	0.857700	0.886200
C2281	C228	0.401300	0.828400	0.905400
H1521	H152	0.380100	0.860100	0.907200
O841	O84	0.326100	0.889100	0.956010
O851	O85	0.333100	0.848600	0.979870
C2291	C229	0.345200	0.885300	0.969500
C2301	C230	0.386600	0.926300	0.975000
C2311	C231	0.400100	0.970500	0.965380
H1531	H153	0.383200	0.975100	0.955200
C2321	C232	0.438300	0.007900	0.970700
H1541	H154	0.448000	0.037200	0.963900
N391	N39	0.461700	0.004100	0.985100
C2331	C233	0.447900	0.962400	0.994470
H1551	H155	0.463900	0.959800	0.004800
C2341	C234	0.411000	0.922700	0.989780
H1561	H156	0.402800	0.893300	0.996700
O861	O86	0.234100	0.718700	0.935740
O871	O87	0.220800	0.802900	0.934800
C2351	C235	0.209700	0.756500	0.930980
C2361	C236	0.161300	0.750400	0.920970
C2371	C237	0.146100	0.699500	0.915200
H1571	H157	0.166300	0.668100	0.918000
C2381	C238	0.101200	0.695000	0.905200
H1581	H158	0.092000	0.660300	0.901000
N401	N40	0.070600	0.737800	0.901240
C2391	C239	0.084400	0.786400	0.907100
H1591	H159	0.062400	0.816900	0.904500
C2401	C240	0.129500	0.794200	0.916800
H1601	H160	0.138300	0.829600	0.920600
O881	O88	0.248000	0.724500	0.986000
O891	O89	0.246300	0.681200	0.963900
C2411	C241	0.232000	0.686000	0.977900
C2421	C242	0.195500	0.644600	0.984720
C2431	C243	0.174800	0.650500	0.000140
H1611	H161	0.183800	0.681700	0.006300
C2441	C244	0.141000	0.610700	0.006420
H1621	H162	0.128200	0.614600	0.017100
N411	N41	0.125900	0.567000	0.998000
C2451	C245	0.144700	0.561900	0.983100
H1631	H163	0.133600	0.531400	0.977000
C2461	C246	0.179700	0.599400	0.976160
H1641	H164	0.192600	0.594000	0.965600
O901	O90	0.224100	0.827200	0.983850
O911	O91	0.212900	0.866200	0.960570
C2471	C247	0.200200	0.859000	0.974600
C2481	C248	0.153500	0.890900	0.981120
C2491	C249	0.129900	0.932000	0.971990
H1651	H165	0.142600	0.939100	0.961500
C2501	C250	0.087700	0.962500	0.978400
H1661	H166	0.072700	0.991200	0.972200
N421	N42	0.067300	0.952900	0.992900
C2511	C251	0.089000	0.912700	0.001530
H1671	H167	0.074300	0.905200	0.011800
C2521	C252	0.132200	0.881300	0.996100
H1681	H168	0.146900	0.853500	0.002700
Cr221	Cr22	0.708800	0.212650	0.481800
Cr231	Cr23	0.725370	0.155900	0.446050
Cr241	Cr24	0.703500	0.286200	0.449700
Ag151	Ag15	0.482490	0.209490	0.369220
Ag161	Ag16	0.480920	0.930330	0.489210
O921	O92	0.711400	0.225800	0.460000
O931	O93	0.640800	0.255300	0.481440
O941	O94	0.639600	0.309800	0.461480
C2531	C253	0.620500	0.294500	0.474200
C2541	C254	0.569800	0.320700	0.480150
C2551	C255	0.543100	0.359700	0.470960
H1691	H169	0.557600	0.370600	0.460900
C2561	C256	0.495000	0.382500	0.476500
H1701	H170	0.477900	0.409900	0.470400
N431	N43	0.472100	0.367300	0.490300
C2571	C257	0.497000	0.329000	0.498970
H1711	H171	0.480700	0.317400	0.508700
C2581	C258	0.545800	0.305300	0.494340
H1721	H172	0.562500	0.278700	0.500900
O951	O95	0.665700	0.258700	0.432400
O961	O96	0.669900	0.170900	0.429250
C2591	C259	0.650500	0.217200	0.426550
C2601	C260	0.604800	0.216300	0.415160
C2611	C261	0.572900	0.261800	0.411870
H1731	H173	0.576600	0.293800	0.418100
C2621	C262	0.535600	0.259900	0.399400
H1741	H174	0.513200	0.290600	0.397500
N441	N44	0.530100	0.216300	0.390000
C2631	C263	0.561500	0.173200	0.392910
H1751	H175	0.558400	0.142300	0.386200
C2641	C264	0.598700	0.171600	0.405400
H1761	H176	0.619900	0.139900	0.407200
O971	O97	0.673900	0.110900	0.456010
O981	O98	0.666900	0.151400	0.479870
C2651	C265	0.654800	0.114700	0.469500
C2661	C266	0.613400	0.073700	0.475000
C2671	C267	0.599900	0.029500	0.465380
H1771	H177	0.616800	0.024900	0.455200
C2681	C268	0.561700	0.992100	0.470700
H1781	H178	0.552000	0.962800	0.463900
N451	N45	0.538300	0.995900	0.485100
C2691	C269	0.552100	0.037600	0.494470
H1791	H179	0.536100	0.040200	0.504800
C2701	C270	0.589000	0.077300	0.489780
H1801	H180	0.597200	0.106700	0.496700
O991	O99	0.765900	0.281300	0.435740
O1001	O100	0.779200	0.197100	0.434800
C2711	C271	0.790300	0.243500	0.430980
C2721	C272	0.838700	0.249600	0.420970
C2731	C273	0.853900	0.300500	0.415200
H1811	H181	0.833700	0.331900	0.418000
C2741	C274	0.898800	0.305000	0.405200
H1821	H182	0.908000	0.339700	0.401000
N461	N46	0.929400	0.262200	0.401240
C2751	C275	0.915600	0.213600	0.407100
H1831	H183	0.937600	0.183100	0.404500
C2761	C276	0.870500	0.205800	0.416800
H1841	H184	0.861700	0.170400	0.420600
O1011	O101	0.752000	0.275500	0.486000
O1021	O102	0.753700	0.318800	0.463900
C2771	C277	0.768000	0.314000	0.477900
C2781	C278	0.804500	0.355400	0.484720
C2791	C279	0.825200	0.349500	0.500140
H1851	H185	0.816200	0.318300	0.506300
C2801	C280	0.859000	0.389300	0.506420
H1861	H186	0.871800	0.385400	0.517100
N471	N47	0.874100	0.433000	0.498000
C2811	C281	0.855300	0.438100	0.483100
H1871	H187	0.866400	0.468600	0.477000
C2821	C282	0.820300	0.400600	0.476160
H1881	H188	0.807400	0.406000	0.465600
O1031	O103	0.775900	0.172800	0.483850
O1041	O104	0.787100	0.133800	0.460570
C2831	C283	0.799800	0.141000	0.474600
C2841	C284	0.846500	0.109100	0.481120
C2851	C285	0.870100	0.068000	0.471990
H1891	H189	0.857400	0.060900	0.461500
C2861	C286	0.912300	0.037500	0.478400
H1901	H190	0.927300	0.008800	0.472200
N481	N48	0.932700	0.047100	0.492900
C2871	C287	0.911000	0.087300	0.501530
H1911	H191	0.925700	0.094800	0.511800
C2881	C288	0.867800	0.118700	0.496100
H1921	H192	0.853100	0.146500	0.502700
Ag171	Ag17	0.004560	0.004560	0.000000
Ag181	Ag18	0.995440	0.995440	0.500000
Ag191	Ag19	0.495440	0.504560	0.250000
Ag201	Ag20	0.504560	0.495440	0.750000
Ag211	Ag21	0.593760	0.593760	0.000000
Ag221	Ag22	0.406240	0.406240	0.500000
Ag231	Ag23	0.906240	0.093760	0.250000
Ag241	Ag24	0.093760	0.906240	0.750000
