data_BIPLIX_clean_PM
_symmetry_space_group_name_H-M	'P1'
_cell_length_a	16.082000
_cell_length_b	17.074000
_cell_length_c	27.878000
_cell_angle_alpha	92.586000
_cell_angle_beta	105.969000
_cell_angle_gamma	117.000000
_symmetry_Int_Tables_number 1

loop_
_symmetry_equiv_pos_as_xyz
'x,y,z'

loop_
_atom_site_label
_atom_site_type_symbol
_atom_site_fract_x
_atom_site_fract_y
_atom_site_fract_z
Zn11	Zn1	0.710090	0.765010	0.192830
Zn21	Zn2	0.472030	0.217380	0.798100
Zn31	Zn3	0.647000	0.224690	0.756520
Zn41	Zn4	0.353000	0.775310	0.243480
Zn51	Zn5	0.425630	0.069220	0.689080
Zn61	Zn6	0.289910	0.234990	0.807170
Zn71	Zn7	0.584490	0.637930	0.263960
Zn81	Zn8	0.415510	0.362070	0.736040
Zn91	Zn9	0.574370	0.930780	0.310920
Zn101	Zn10	0.527970	0.782620	0.201900
Co11	Co1	0.258040	0.254390	0.385690
Co21	Co2	0.741960	0.745610	0.614310
Co31	Co3	0.876490	0.339520	0.121670
Co41	Co4	0.123510	0.660480	0.878330
H11	H1	0.162800	0.006400	0.307900
H21	H2	0.405900	0.444300	0.502800
H31	H3	0.642300	0.998100	0.001900
H41	H4	0.185900	0.374300	0.302600
H51	H5	0.262800	0.783500	0.793500
H61	H6	0.861600	0.168400	0.326900
H71	H7	0.555700	0.414400	0.344800
H81	H8	0.646800	0.476900	0.554700
H91	H9	0.920300	0.733700	0.503900
H101	H10	0.411300	0.443200	0.587600
H111	H11	0.138400	0.831600	0.673100
H121	H12	0.222500	0.928500	0.272600
H131	H13	0.405300	0.206400	0.493900
H141	H14	0.946100	0.388900	0.996800
H151	H15	0.741600	0.354000	0.212100
H161	H16	0.980400	0.746200	0.676000
H171	H17	0.082500	0.468300	0.081500
H181	H18	0.716100	0.581000	0.781600
H191	H19	0.728100	0.448200	0.084500
H201	H20	0.072100	0.557800	0.278000
H211	H21	0.111600	0.054100	0.681300
H221	H22	0.342000	0.936400	0.789200
H231	H23	0.444300	0.585600	0.655200
H241	H24	0.865100	0.323200	0.911000
H251	H25	0.837200	0.993600	0.692100
H261	H26	0.019600	0.253800	0.324000
H271	H27	0.047300	0.027900	0.314800
H281	H28	0.053600	0.129700	0.518800
H291	H29	0.376300	0.652000	0.413400
H301	H30	0.888400	0.945900	0.318700
H311	H31	0.220200	0.506400	0.271000
H321	H32	0.572700	0.075200	0.034400
H331	H33	0.497200	0.885700	0.647100
H341	H34	0.594100	0.555700	0.497200
H351	H35	0.777500	0.071500	0.727400
H361	H36	0.427300	0.924800	0.965600
H371	H37	0.623700	0.348000	0.586600
H381	H38	0.320400	0.455600	0.886200
H391	H39	0.952700	0.972100	0.685200
H401	H40	0.117800	0.959100	0.811200
H411	H41	0.036200	0.808500	0.814300
H421	H42	0.580600	0.788300	0.420900
H431	H43	0.357700	0.001900	0.998100
H441	H44	0.594700	0.793600	0.506100
H451	H45	0.814100	0.625700	0.697400
H461	H46	0.894100	0.957400	0.517000
H471	H47	0.708400	0.457100	0.246200
H481	H48	0.946400	0.870300	0.481200
H491	H49	0.307800	0.278600	0.224100
H501	H50	0.684100	0.323300	0.016600
H511	H51	0.107500	0.679100	0.237300
H521	H52	0.105900	0.042600	0.483000
H531	H53	0.927900	0.442200	0.722000
H541	H54	0.183400	0.929300	0.978600
H551	H55	0.502800	0.114300	0.352900
H561	H56	0.443100	0.187200	0.395100
H571	H57	0.258400	0.646000	0.787900
H581	H58	0.283900	0.419000	0.218400
H591	H59	0.892500	0.320900	0.762700
H601	H60	0.605700	0.255500	0.930600
H611	H61	0.588700	0.556800	0.412400
H621	H62	0.271900	0.551800	0.915500
H631	H63	0.737200	0.216500	0.206500
H641	H64	0.963000	0.339200	0.849700
H651	H65	0.747300	0.429900	0.882800
H661	H66	0.679600	0.544400	0.113800
H671	H67	0.917500	0.531700	0.918500
H681	H68	0.117600	0.318700	0.185000
H691	H69	0.134900	0.676800	0.089000
H701	H70	0.522400	0.633900	0.742800
H711	H71	0.816600	0.070700	0.021400
H721	H72	0.963800	0.191500	0.185700
H731	H73	0.556900	0.812800	0.604900
H741	H74	0.477600	0.366100	0.257200
H751	H75	0.037000	0.660800	0.150300
H761	H76	0.692200	0.721400	0.775900
H771	H77	0.882200	0.040900	0.188800
H781	H78	0.779800	0.493600	0.729000
H791	H79	0.252700	0.570100	0.117200
H801	H80	0.353200	0.523100	0.445300
H811	H81	0.291600	0.542900	0.753800
H821	H82	0.394300	0.744500	0.069400
H831	H83	0.315900	0.676700	0.983400
H841	H84	0.079700	0.266300	0.496100
H851	H85	0.882400	0.681300	0.815000
H861	H86	0.053900	0.611100	0.003200
H871	H87	0.419400	0.211700	0.579100
H881	H88	0.658000	0.063600	0.210800
C11	C1	0.660200	0.704700	0.740100
C21	C2	0.671800	0.242000	0.096000
C31	C3	0.439800	0.348100	0.279500
C41	C4	0.257500	0.433700	0.376900
C51	C5	0.855100	0.629600	0.829100
C61	C6	0.119500	0.099800	0.475000
C71	C7	0.827900	0.321200	0.932600
C81	C8	0.408200	0.255800	0.512900
C91	C9	0.084100	0.991300	0.679900
C101	C10	0.272000	0.607600	0.808500
C111	C11	0.585700	0.742000	0.436900
C121	C12	0.728900	0.384200	0.143300
C131	C13	0.099500	0.859400	0.674900
C141	C14	0.402400	0.956200	0.286400
C151	C15	0.783100	0.908600	0.582000
C161	C16	0.049300	0.757500	0.919500
C171	C17	0.718200	0.446400	0.116500
C181	C18	0.877000	0.541900	0.890400
C191	C19	0.237700	0.961900	0.802000
C201	C20	0.328200	0.758000	0.904000
C211	C21	0.143200	0.783500	0.805200
C221	C22	0.569300	0.654500	0.636800
C231	C23	0.663000	0.576600	0.203600
C241	C24	0.325200	0.676700	0.320200
C251	C25	0.989900	0.943100	0.682300
C261	C26	0.861400	0.049000	0.324600
C271	C27	0.410800	0.395400	0.568500
C281	C28	0.284600	0.266000	0.292000
C291	C29	0.275300	0.723600	0.087100
C301	C30	0.244900	0.509200	0.306500
C311	C31	0.821400	0.654900	0.571200
C321	C32	0.138600	0.951000	0.675400
C331	C33	0.049500	0.148400	0.319400
C341	C34	0.716400	0.492100	0.827700
C351	C35	0.413300	0.326300	0.590400
C361	C36	0.642400	0.101900	0.042600
C371	C37	0.688400	0.511200	0.184100
C381	C38	0.775500	0.481100	0.868400
C391	C39	0.338600	0.595300	0.390800
C401	C40	0.674800	0.323300	0.679800
C411	C41	0.046500	0.623600	0.772600
C421	C42	0.291700	0.546000	0.788000
C431	C43	0.328400	0.762500	0.140400
C441	C44	0.589200	0.604600	0.431500
C451	C45	0.897400	0.768800	0.517800
C461	C46	0.768200	0.973900	0.680900
C471	C47	0.337000	0.423400	0.796400
C481	C48	0.224500	0.518900	0.131600
C491	C49	0.586700	0.673700	0.409600
C501	C50	0.560200	0.651900	0.720500
C511	C51	0.278500	0.676200	0.004600
C521	C52	0.177900	0.210100	0.281100
C531	C53	0.661400	0.404700	0.609200
C541	C54	0.046200	0.549200	0.242000
C551	C55	0.243400	0.004400	0.676000
C561	C56	0.123000	0.458100	0.109600
C571	C57	0.172100	0.678800	0.067400
C581	C58	0.824500	0.366700	0.014300
C591	C59	0.087500	0.150800	0.495100
C601	C60	0.566500	0.909000	0.655100
C611	C61	0.677800	0.480900	0.589700
C621	C62	0.407300	0.395900	0.517800
C631	C63	0.900800	0.165600	0.190100
C641	C64	0.297000	0.814800	0.925700
C651	C65	0.710700	0.939900	0.199100
C661	C66	0.950500	0.851600	0.680600
C671	C67	0.719500	0.089700	0.204700
C681	C68	0.414300	0.258000	0.563100
C691	C69	0.322200	0.519100	0.410300
C701	C70	0.953500	0.376400	0.227400
C711	C71	0.123900	0.637300	0.016700
C721	C72	0.467300	0.360700	0.419900
C731	C73	0.026000	0.610500	0.166200
C741	C74	0.708300	0.454000	0.212000
C751	C75	0.532700	0.639300	0.580100
C761	C76	0.785700	0.099100	0.033900
C771	C77	0.280500	0.910300	0.795300
C781	C78	0.632400	0.986500	0.692100
C791	C79	0.592700	0.604100	0.482200
C801	C80	0.214300	0.900900	0.966100
C811	C81	0.856800	0.216500	0.194800
C821	C82	0.756600	0.995600	0.324000
C831	C83	0.950700	0.242500	0.080500
C841	C84	0.486300	0.375400	0.331100
C851	C85	0.912500	0.849200	0.504900
C861	C86	0.302600	0.592200	0.340200
C871	C87	0.715400	0.734000	0.708000
C881	C88	0.702300	0.898200	0.640300
C891	C89	0.915900	0.008700	0.320100
C901	C90	0.671600	0.237500	0.859600
C911	C91	0.339800	0.295300	0.259900
C921	C92	0.742500	0.566300	0.623100
C931	C93	0.306700	0.493600	0.865300
C941	C94	0.357600	0.898100	0.957400
C951	C95	0.986700	0.463600	0.211100
C961	C96	0.216900	0.091400	0.418000
C971	C97	0.006800	0.808800	0.677000
C981	C98	0.289300	0.060100	0.800900
C991	C99	0.969400	0.523400	0.138400
C1001	C100	0.579700	0.673300	0.354300
C1011	C101	0.593900	0.673500	0.510500
C1021	C102	0.010100	0.056900	0.317700
C1031	C103	0.231800	0.026100	0.319100
C1041	C104	0.223900	0.430700	0.325500
C1051	C105	0.721500	0.323800	0.995400
C1061	C106	0.175500	0.633300	0.985700
C1071	C107	0.728000	0.392400	0.191500
C1081	C108	0.316700	0.943600	0.977400
C1091	C109	0.757100	0.569700	0.808900
C1101	C110	0.766500	0.180300	0.202600
C1111	C111	0.828800	0.866600	0.556600
C1121	C112	0.084500	0.383500	0.130200
C1131	C113	0.171200	0.133400	0.443400
C1141	C114	0.846800	0.740700	0.552200
C1151	C115	0.147900	0.923300	0.808100
C1161	C116	0.880500	0.900200	0.525000
C1171	C117	0.433500	0.091000	0.344900
C1181	C118	0.842200	0.186600	0.064700
C1191	C119	0.102600	0.231200	0.482200
C1201	C120	0.153200	0.259300	0.447800
C1211	C121	0.602400	0.865800	0.629900
C1221	C122	0.762300	0.038100	0.198000
C1231	C123	0.406100	0.326500	0.489500
C1241	C124	0.389700	0.577500	0.195700
C1251	C125	0.420300	0.326700	0.645700
C1261	C126	0.099200	0.834400	0.809900
C1271	C127	0.993200	0.191200	0.323000
C1281	C128	0.065000	0.620100	0.217500
C1291	C129	0.974000	0.389500	0.833800
C1301	C130	0.030600	0.476600	0.861600
C1311	C131	0.267800	0.982600	0.296800
C1321	C132	0.430700	0.345500	0.363200
C1331	C133	0.283600	0.507900	0.172300
C1341	C134	0.822100	0.789900	0.718900
C1351	C135	0.675700	0.281900	0.944300
C1361	C136	0.591800	0.744200	0.487100
C1371	C137	0.876100	0.362700	0.983300
C1381	C138	0.397600	0.134200	0.370100
C1391	C139	0.513700	0.624600	0.668900
C1401	C140	0.324300	0.718100	0.055700
C1411	C141	0.915500	0.616500	0.869800
C1421	C142	0.178600	0.345100	0.428800
C1431	C143	0.755100	0.490800	0.693500
C1441	C144	0.242900	0.430300	0.191100
C1451	C145	0.953800	0.450800	0.758000
C1461	C146	0.081200	0.504900	0.919300
C1471	C147	0.610300	0.422500	0.804300
C1481	C148	0.697400	0.407800	0.659800
C1491	C149	0.144900	0.370400	0.170900
C1501	C150	0.683300	0.056400	0.022600
C1511	C151	0.281800	0.553600	0.883500
C1521	C152	0.776100	0.569300	0.674500
C1531	C153	0.732200	0.017400	0.703200
C1541	C154	0.900500	0.140600	0.325100
C1551	C155	0.935000	0.379900	0.782500
C1561	C156	0.297700	0.101800	0.359700
C1571	C157	0.724700	0.276400	0.912900
C1581	C158	0.918800	0.495100	0.080700
C1591	C159	0.852100	0.076700	0.191900
C1601	C160	0.597600	0.043800	0.713600
C1611	C161	0.703000	0.185200	0.074300
C1621	C162	0.013300	0.536400	0.788900
C1631	C163	0.157800	0.813400	0.935300
C1641	C164	0.367600	0.013500	0.307900
C1651	C165	0.311600	0.488800	0.815900
C1661	C166	0.233500	0.819700	0.797400
C1671	C167	0.271100	0.615800	0.856700
C1681	C168	0.693300	0.506400	0.134700
N11	N1	0.770700	0.646200	0.602900
N21	N2	0.185100	0.210000	0.429800
N31	N3	0.814900	0.790000	0.570200
N41	N4	0.098400	0.691600	0.811600
N51	N5	0.874900	0.407700	0.068000
N61	N6	0.125100	0.592300	0.932000
N71	N7	0.849000	0.798900	0.678000
N81	N8	0.260600	0.140900	0.388200
N91	N9	0.151000	0.201100	0.322000
N101	N10	0.333000	0.294200	0.343300
N111	N11	0.046900	0.545300	0.838500
N121	N12	0.251700	0.678300	0.878400
N131	N13	0.390400	0.320200	0.437600
N141	N14	0.739400	0.859100	0.611800
N151	N15	0.201500	0.775200	0.917600
N161	N16	0.609600	0.679800	0.562400
N171	N17	0.901600	0.308400	0.188400
N181	N18	0.982300	0.321500	0.109100
N191	N19	0.953100	0.454700	0.161500
N201	N20	0.017700	0.678500	0.890900
N211	N21	0.229300	0.353800	0.397100
N221	N22	0.748300	0.321700	0.121600
N231	N23	0.798500	0.224800	0.082400
N241	N24	0.667000	0.705800	0.656700
O11	O1	0.456400	0.285900	0.669600
O21	O2	0.026900	0.629000	0.726500
O31	O3	0.276700	0.086500	0.675400
O41	O4	0.347700	0.426500	0.753100
O51	O5	0.973100	0.371000	0.273500
O61	O6	0.278100	0.744400	0.171100
O71	O7	0.494900	0.993000	0.292600
O81	O8	0.505100	0.007000	0.707400
O91	O9	0.414300	0.653600	0.186200
O101	O10	0.337500	0.876300	0.265800
O111	O11	0.789000	0.982100	0.572900
O121	O12	0.445700	0.599600	0.554100
O131	O13	0.579000	0.189800	0.843600
O141	O14	0.543600	0.714100	0.330400
O151	O15	0.497000	0.813400	0.267400
O161	O16	0.211000	0.017900	0.427100
O171	O17	0.583900	0.217500	0.091400
O181	O18	0.293500	0.967200	0.676700
O191	O19	0.721900	0.255600	0.828900
O201	O20	0.585700	0.346400	0.813800
O211	O21	0.246100	0.103100	0.805500
O221	O22	0.648800	0.627600	0.176200
O231	O23	0.610700	0.628000	0.335800
O241	O24	0.624000	0.907400	0.203800
O251	O25	0.631500	0.251200	0.649800
O261	O26	0.416100	0.782500	0.908600
O271	O27	0.993100	0.782300	0.930700
O281	O28	0.361500	0.244900	0.755000
O291	O29	0.006900	0.217700	0.069300
O301	O30	0.376000	0.092600	0.796200
O311	O31	0.421000	0.810200	0.156400
O321	O32	0.446600	0.552500	0.223800
O331	O33	0.706500	0.032800	0.323300
O341	O34	0.075400	0.447100	0.946100
O351	O35	0.662500	0.123700	0.734200
O361	O36	0.553400	0.447500	0.776200
O371	O37	0.638500	0.755100	0.245000
O381	O38	0.368500	0.748800	0.350200
O391	O39	0.554300	0.400400	0.445900
O401	O40	0.503000	0.186600	0.732600
O411	O41	0.924600	0.552900	0.053900
O421	O42	0.700400	0.331800	0.727700
O431	O43	0.723300	0.913500	0.324600
O441	O44	0.880000	0.824700	0.764900
O451	O45	0.299600	0.668200	0.272300
O461	O46	0.149700	0.397900	0.441200
O471	O47	0.120000	0.175300	0.235100
O481	O48	0.753900	0.896900	0.194500
O491	O49	0.652300	0.573500	0.246900
O501	O50	0.351200	0.372400	0.823800
O511	O51	0.389300	0.372000	0.664200
O521	O52	0.850300	0.602100	0.558800
