data_BIQRIE_clean_PM
_symmetry_space_group_name_H-M	'P1'
_cell_length_a	23.461700
_cell_length_b	8.117000
_cell_length_c	16.897600
_cell_angle_alpha	90.000000
_cell_angle_beta	112.873000
_cell_angle_gamma	90.000000
_symmetry_Int_Tables_number 1

loop_
_symmetry_equiv_pos_as_xyz
'x,y,z'

loop_
_atom_site_label
_atom_site_type_symbol
_atom_site_fract_x
_atom_site_fract_y
_atom_site_fract_z
C11	C1	0.156880	0.414600	0.594990
C21	C2	0.129660	0.333800	0.654940
Ga11	Ga1	0.161190	0.657770	0.711480
Ga21	Ga2	0.103430	0.115890	0.515240
H11	H1	0.036200	0.943000	0.638000
H21	H2	0.264000	0.852000	0.646000
H31	H3	0.207000	0.160000	0.429000
H41	H4	0.165300	0.993000	0.289000
O11	O1	0.134980	0.275700	0.302730
O21	O2	0.104900	0.097700	0.401960
O31	O3	0.258340	0.105300	0.704800
O41	O4	0.182640	0.009000	0.561600
O51	O5	0.972510	0.761600	0.530990
O61	O6	0.078460	0.685400	0.626440
O71	O7	0.108010	0.192800	0.636270
O81	O8	0.188690	0.873500	0.699150
O91	O9	0.061830	0.914700	0.517740
O101	O10	0.151530	0.334000	0.529770
O111	O11	0.181420	0.552700	0.616790
O121	O12	0.131750	0.418300	0.718600
O131	O13	0.161130	0.972700	0.322020
P11	P1	0.037830	0.826320	0.577850
P21	P2	0.224150	0.959070	0.651730
P31	P3	0.152740	0.134550	0.365710
C31	C3	0.656880	0.914600	0.594990
C41	C4	0.629660	0.833800	0.654940
Ga31	Ga3	0.661190	0.157770	0.711480
Ga41	Ga4	0.603430	0.615890	0.515240
H51	H5	0.536200	0.443000	0.638000
H61	H6	0.764000	0.352000	0.646000
H71	H7	0.707000	0.660000	0.429000
H81	H8	0.665300	0.493000	0.289000
O141	O14	0.634980	0.775700	0.302730
O151	O15	0.604900	0.597700	0.401960
O161	O16	0.758340	0.605300	0.704800
O171	O17	0.682640	0.509000	0.561600
O181	O18	0.472510	0.261600	0.530990
O191	O19	0.578460	0.185400	0.626440
O201	O20	0.608010	0.692800	0.636270
O211	O21	0.688690	0.373500	0.699150
O221	O22	0.561830	0.414700	0.517740
O231	O23	0.651530	0.834000	0.529770
O241	O24	0.681420	0.052700	0.616790
O251	O25	0.631750	0.918300	0.718600
O261	O26	0.661130	0.472700	0.322020
P41	P4	0.537830	0.326320	0.577850
P51	P5	0.724150	0.459070	0.651730
P61	P6	0.652740	0.634550	0.365710
C51	C5	0.843120	0.414600	0.905010
C61	C6	0.870340	0.333800	0.845060
Ga51	Ga5	0.838810	0.657770	0.788520
Ga61	Ga6	0.896570	0.115890	0.984760
H91	H9	0.963800	0.943000	0.862000
H101	H10	0.736000	0.852000	0.854000
H111	H11	0.793000	0.160000	0.071000
H121	H12	0.834700	0.993000	0.211000
O271	O27	0.865020	0.275700	0.197270
O281	O28	0.895100	0.097700	0.098040
O291	O29	0.741660	0.105300	0.795200
O301	O30	0.817360	0.009000	0.938400
O311	O31	0.027490	0.761600	0.969010
O321	O32	0.921540	0.685400	0.873560
O331	O33	0.891990	0.192800	0.863730
O341	O34	0.811310	0.873500	0.800850
O351	O35	0.938170	0.914700	0.982260
O361	O36	0.848470	0.334000	0.970230
O371	O37	0.818580	0.552700	0.883210
O381	O38	0.868250	0.418300	0.781400
O391	O39	0.838870	0.972700	0.177980
P71	P7	0.962170	0.826320	0.922150
P81	P8	0.775850	0.959070	0.848270
P91	P9	0.847260	0.134550	0.134290
C71	C7	0.343120	0.914600	0.905010
C81	C8	0.370340	0.833800	0.845060
Ga71	Ga7	0.338810	0.157770	0.788520
Ga81	Ga8	0.396570	0.615890	0.984760
H131	H13	0.463800	0.443000	0.862000
H141	H14	0.236000	0.352000	0.854000
H151	H15	0.293000	0.660000	0.071000
H161	H16	0.334700	0.493000	0.211000
O401	O40	0.365020	0.775700	0.197270
O411	O41	0.395100	0.597700	0.098040
O421	O42	0.241660	0.605300	0.795200
O431	O43	0.317360	0.509000	0.938400
O441	O44	0.527490	0.261600	0.969010
O451	O45	0.421540	0.185400	0.873560
O461	O46	0.391990	0.692800	0.863730
O471	O47	0.311310	0.373500	0.800850
O481	O48	0.438170	0.414700	0.982260
O491	O49	0.348470	0.834000	0.970230
O501	O50	0.318580	0.052700	0.883210
O511	O51	0.368250	0.918300	0.781400
O521	O52	0.338870	0.472700	0.177980
P101	P10	0.462170	0.326320	0.922150
P111	P11	0.275850	0.459070	0.848270
P121	P12	0.347260	0.634550	0.134290
C91	C9	0.843120	0.585400	0.405010
C101	C10	0.870340	0.666200	0.345060
Ga91	Ga9	0.838810	0.342230	0.288520
Ga101	Ga10	0.896570	0.884110	0.484760
H171	H17	0.963800	0.057000	0.362000
H181	H18	0.736000	0.148000	0.354000
H191	H19	0.793000	0.840000	0.571000
H201	H20	0.834700	0.007000	0.711000
O531	O53	0.865020	0.724300	0.697270
O541	O54	0.895100	0.902300	0.598040
O551	O55	0.741660	0.894700	0.295200
O561	O56	0.817360	0.991000	0.438400
O571	O57	0.027490	0.238400	0.469010
O581	O58	0.921540	0.314600	0.373560
O591	O59	0.891990	0.807200	0.363730
O601	O60	0.811310	0.126500	0.300850
O611	O61	0.938170	0.085300	0.482260
O621	O62	0.848470	0.666000	0.470230
O631	O63	0.818580	0.447300	0.383210
O641	O64	0.868250	0.581700	0.281400
O651	O65	0.838870	0.027300	0.677980
P131	P13	0.962170	0.173680	0.422150
P141	P14	0.775850	0.040930	0.348270
P151	P15	0.847260	0.865450	0.634290
C111	C11	0.343120	0.085400	0.405010
C121	C12	0.370340	0.166200	0.345060
Ga111	Ga11	0.338810	0.842230	0.288520
Ga121	Ga12	0.396570	0.384110	0.484760
H211	H21	0.463800	0.557000	0.362000
H221	H22	0.236000	0.648000	0.354000
H231	H23	0.293000	0.340000	0.571000
H241	H24	0.334700	0.507000	0.711000
O661	O66	0.365020	0.224300	0.697270
O671	O67	0.395100	0.402300	0.598040
O681	O68	0.241660	0.394700	0.295200
O691	O69	0.317360	0.491000	0.438400
O701	O70	0.527490	0.738400	0.469010
O711	O71	0.421540	0.814600	0.373560
O721	O72	0.391990	0.307200	0.363730
O731	O73	0.311310	0.626500	0.300850
O741	O74	0.438170	0.585300	0.482260
O751	O75	0.348470	0.166000	0.470230
O761	O76	0.318580	0.947300	0.383210
O771	O77	0.368250	0.081700	0.281400
O781	O78	0.338870	0.527300	0.677980
P161	P16	0.462170	0.673680	0.422150
P171	P17	0.275850	0.540930	0.348270
P181	P18	0.347260	0.365450	0.634290
C131	C13	0.156880	0.585400	0.094990
C141	C14	0.129660	0.666200	0.154940
Ga131	Ga13	0.161190	0.342230	0.211480
Ga141	Ga14	0.103430	0.884110	0.015240
H251	H25	0.036200	0.057000	0.138000
H261	H26	0.264000	0.148000	0.146000
H271	H27	0.207000	0.840000	0.929000
H281	H28	0.165300	0.007000	0.789000
O791	O79	0.134980	0.724300	0.802730
O801	O80	0.104900	0.902300	0.901960
O811	O81	0.258340	0.894700	0.204800
O821	O82	0.182640	0.991000	0.061600
O831	O83	0.972510	0.238400	0.030990
O841	O84	0.078460	0.314600	0.126440
O851	O85	0.108010	0.807200	0.136270
O861	O86	0.188690	0.126500	0.199150
O871	O87	0.061830	0.085300	0.017740
O881	O88	0.151530	0.666000	0.029770
O891	O89	0.181420	0.447300	0.116790
O901	O90	0.131750	0.581700	0.218600
O911	O91	0.161130	0.027300	0.822020
P191	P19	0.037830	0.173680	0.077850
P201	P20	0.224150	0.040930	0.151730
P211	P21	0.152740	0.865450	0.865710
C151	C15	0.656880	0.085400	0.094990
C161	C16	0.629660	0.166200	0.154940
Ga151	Ga15	0.661190	0.842230	0.211480
Ga161	Ga16	0.603430	0.384110	0.015240
H291	H29	0.536200	0.557000	0.138000
H301	H30	0.764000	0.648000	0.146000
H311	H31	0.707000	0.340000	0.929000
H321	H32	0.665300	0.507000	0.789000
O921	O92	0.634980	0.224300	0.802730
O931	O93	0.604900	0.402300	0.901960
O941	O94	0.758340	0.394700	0.204800
O951	O95	0.682640	0.491000	0.061600
O961	O96	0.472510	0.738400	0.030990
O971	O97	0.578460	0.814600	0.126440
O981	O98	0.608010	0.307200	0.136270
O991	O99	0.688690	0.626500	0.199150
O1001	O100	0.561830	0.585300	0.017740
O1011	O101	0.651530	0.166000	0.029770
O1021	O102	0.681420	0.947300	0.116790
O1031	O103	0.631750	0.081700	0.218600
O1041	O104	0.661130	0.527300	0.822020
P221	P22	0.537830	0.673680	0.077850
P231	P23	0.724150	0.540930	0.151730
P241	P24	0.652740	0.365450	0.865710
