data_BIQVII_clean_PM
_symmetry_space_group_name_H-M	'P1'
_cell_length_a	10.144000
_cell_length_b	15.526300
_cell_length_c	18.028000
_cell_angle_alpha	103.422000
_cell_angle_beta	90.000000
_cell_angle_gamma	109.067000
_symmetry_Int_Tables_number 1

loop_
_symmetry_equiv_pos_as_xyz
'x,y,z'

loop_
_atom_site_label
_atom_site_type_symbol
_atom_site_fract_x
_atom_site_fract_y
_atom_site_fract_z
Ce11	Ce1	0.869790	0.993260	0.118860
Ce21	Ce2	0.123470	0.993260	0.618860
Ce31	Ce3	0.130210	0.006740	0.881140
Ce41	Ce4	0.876530	0.006740	0.381140
H11	H1	0.278200	0.306200	0.894300
H21	H2	0.028000	0.306200	0.394300
H31	H3	0.200400	0.278400	0.510600
H41	H4	0.128900	0.708800	0.175200
H51	H5	0.972000	0.693800	0.605700
H61	H6	0.072800	0.268800	0.708600
H71	H7	0.078000	0.278400	0.010600
H81	H8	0.854900	0.243600	0.512600
H91	H9	0.804000	0.731200	0.791400
H101	H10	0.721800	0.693800	0.105700
H111	H11	0.388700	0.243600	0.012600
H121	H12	0.985800	0.046200	0.760300
H131	H13	0.420100	0.291200	0.324800
H141	H14	0.172300	0.718000	0.805900
H151	H15	0.922000	0.721600	0.989400
H161	H16	0.611300	0.756400	0.987400
H171	H17	0.145100	0.756400	0.487400
H181	H18	0.939600	0.953800	0.739700
H191	H19	0.827700	0.282000	0.194100
H201	H20	0.799600	0.721600	0.489400
H211	H21	0.871100	0.291200	0.824800
H221	H22	0.014200	0.953800	0.239700
H231	H23	0.545700	0.718000	0.305900
H241	H24	0.196000	0.268800	0.208600
H251	H25	0.927200	0.731200	0.291400
H261	H26	0.454300	0.282000	0.694100
H271	H27	0.060400	0.046200	0.260300
H281	H28	0.579900	0.708800	0.675200
C11	C1	0.358380	0.278360	0.791860
C21	C2	0.595900	0.680800	0.626100
C31	C3	0.641620	0.721640	0.208140
C41	C4	0.080020	0.721640	0.708140
C51	C5	0.907730	0.416260	0.257540
C61	C6	0.271020	0.311840	0.484930
C71	C7	0.514790	0.528180	0.174190
C81	C8	0.278340	0.241280	0.106420
C91	C9	0.508530	0.416260	0.757540
C101	C10	0.703560	0.826720	0.222000
C111	C11	0.051820	0.403040	0.018880
C121	C12	0.721660	0.758720	0.893580
C131	C13	0.031380	0.827760	0.129200
C141	C14	0.658590	0.610980	0.801400
C151	C15	0.601890	0.464180	0.371500
C161	C16	0.959180	0.688160	0.015070
C171	C17	0.989720	0.429240	0.652130
C181	C18	0.915260	0.375120	0.582800
C191	C19	0.728980	0.688160	0.515070
C201	C20	0.956960	0.139920	0.579900
C211	C21	0.260970	0.295540	0.176940
C221	C22	0.122980	0.680760	0.759750
C231	C23	0.739030	0.704460	0.823060
C241	C24	0.607040	0.462080	0.707680
C251	C25	0.351220	0.403040	0.518880
C261	C26	0.084740	0.624880	0.417200
C271	C27	0.334640	0.333880	0.859750
C281	C28	0.459050	0.452500	0.481940
C291	C29	0.013390	0.528180	0.674190
C301	C30	0.092270	0.583740	0.742460
C311	C31	0.485210	0.471820	0.825810
C321	C32	0.491470	0.583740	0.242460
C331	C33	0.487570	0.410140	0.409660
C341	C34	0.034430	0.430060	0.375040
C351	C35	0.395630	0.430060	0.875040
C361	C36	0.043040	0.860080	0.420100
C371	C37	0.459860	0.375120	0.082800
C381	C38	0.902820	0.280240	0.559250
C391	C39	0.968620	0.172240	0.870800
C401	C40	0.817040	0.860080	0.920100
C411	C41	0.876840	0.173280	0.278000
C421	C42	0.442220	0.319240	0.740250
C431	C43	0.922570	0.410140	0.909660
C441	C44	0.622580	0.719760	0.940750
C451	C45	0.604370	0.569940	0.124960
C461	C46	0.986610	0.471820	0.325810
C471	C47	0.512430	0.589860	0.590340
C481	C48	0.965570	0.569940	0.624960
C491	C49	0.010280	0.570760	0.347870
C501	C50	0.540950	0.547500	0.518060
C511	C51	0.040820	0.311840	0.984930
C521	C52	0.993450	0.452500	0.981940
C531	C53	0.398110	0.535820	0.628500
C541	C54	0.097180	0.719760	0.440750
C551	C55	0.999240	0.333880	0.359750
C561	C56	0.877020	0.319240	0.240250
C571	C57	0.137710	0.535820	0.128500
C581	C58	0.203620	0.172240	0.370800
C591	C59	0.540140	0.624880	0.917200
C601	C60	0.377420	0.280240	0.059250
C611	C61	0.006550	0.547500	0.018060
C621	C62	0.026580	0.730160	0.088470
C631	C63	0.439520	0.429240	0.152130
C641	C64	0.560480	0.570760	0.847870
C651	C65	0.665360	0.666120	0.140250
C661	C66	0.392960	0.537920	0.292320
C671	C67	0.000760	0.666120	0.640250
C681	C68	0.047610	0.389020	0.698600
C691	C69	0.341410	0.389020	0.198600
C701	C70	0.037060	0.758720	0.393580
C711	C71	0.123160	0.826720	0.722000
C721	C72	0.034570	0.295540	0.676940
C731	C73	0.296440	0.173280	0.778000
C741	C74	0.952390	0.610980	0.301400
C751	C75	0.434310	0.580820	0.965030
C761	C76	0.962940	0.241280	0.606420
C771	C77	0.973420	0.269840	0.911530
C781	C78	0.084900	0.680800	0.126100
C791	C79	0.557780	0.680760	0.259750
C801	C80	0.565690	0.419180	0.034970
C811	C81	0.144960	0.537920	0.792320
C821	C82	0.915100	0.319200	0.873900
C831	C83	0.919980	0.278360	0.291860
C841	C84	0.077430	0.589860	0.090340
C851	C85	0.648780	0.596960	0.481120
C861	C86	0.853490	0.419180	0.534970
C871	C87	0.796380	0.827760	0.629200
C881	C88	0.703580	0.730160	0.588470
C891	C89	0.965430	0.704460	0.323060
C901	C90	0.404100	0.319200	0.373900
C911	C91	0.182960	0.139920	0.079900
C921	C92	0.862290	0.464180	0.871500
C931	C93	0.296420	0.269840	0.411530
C941	C94	0.948180	0.596960	0.981120
C951	C95	0.855040	0.462080	0.207680
C961	C96	0.146510	0.580820	0.465030
O11	O1	0.634020	0.435240	0.308560
O21	O2	0.013020	0.000000	0.750000
O31	O3	0.118780	0.858560	0.664570
O41	O4	0.126060	0.120720	0.409840
O51	O5	0.368470	0.576740	0.354440
O61	O6	0.208270	0.576740	0.854440
O71	O7	0.812770	0.902740	0.987350
O81	O8	0.739780	0.858560	0.164570
O91	O9	0.881220	0.141440	0.335430
O101	O10	0.221820	0.620040	0.522830
O111	O11	0.792620	0.851040	0.700190
O121	O12	0.678550	0.555300	0.409200
O131	O13	0.895380	0.894960	0.873770
O141	O14	0.941580	0.148960	0.799810
O151	O15	0.207380	0.148960	0.299810
O161	O16	0.986980	0.000000	0.250000
O171	O17	0.676960	0.557160	0.731510
O181	O18	0.371330	0.483740	0.942880
O191	O19	0.628670	0.516260	0.057120
O201	O20	0.880200	0.557160	0.231510
O211	O21	0.887590	0.516260	0.557120
O221	O22	0.801220	0.435240	0.808560
O231	O23	0.162930	0.875460	0.789220
O241	O24	0.873940	0.879280	0.590160
O251	O25	0.837070	0.124540	0.210780
O261	O26	0.187230	0.097260	0.012650
O271	O27	0.999580	0.894960	0.373770
O281	O28	0.601780	0.379960	0.977170
O291	O29	0.287470	0.124540	0.710780
O301	O30	0.089970	0.902740	0.487350
O311	O31	0.260220	0.141440	0.835430
O321	O32	0.876750	0.555300	0.909200
O331	O33	0.323040	0.442840	0.268490
O341	O34	0.112410	0.483740	0.442880
O351	O35	0.123250	0.444700	0.090800
O361	O36	0.910030	0.097260	0.512650
O371	O37	0.058420	0.851040	0.200190
O381	O38	0.321450	0.444700	0.590800
O391	O39	0.005340	0.879280	0.090160
O401	O40	0.398220	0.620040	0.022830
O411	O41	0.198780	0.564760	0.191440
O421	O42	0.994660	0.120720	0.909840
O431	O43	0.778180	0.379960	0.477170
O441	O44	0.631530	0.423260	0.645560
O451	O45	0.791730	0.423260	0.145560
O461	O46	0.104620	0.105040	0.126230
O471	O47	0.000420	0.105040	0.626230
O481	O48	0.712530	0.875460	0.289220
O491	O49	0.119800	0.442840	0.768490
O501	O50	0.365980	0.564760	0.691440
