data_BIRSIG_clean_PM
_symmetry_space_group_name_H-M	'P1'
_cell_length_a	12.988000
_cell_length_b	13.722000
_cell_length_c	19.730000
_cell_angle_alpha	90.000000
_cell_angle_beta	90.000000
_cell_angle_gamma	90.000000
_symmetry_Int_Tables_number 1

loop_
_symmetry_equiv_pos_as_xyz
'x,y,z'

loop_
_atom_site_label
_atom_site_type_symbol
_atom_site_fract_x
_atom_site_fract_y
_atom_site_fract_z
Ni11	Ni1	0.706990	0.397740	0.025990
Ni21	Ni2	0.963770	0.000000	0.500000
Ni31	Ni3	0.560860	0.024000	0.385130
Ni41	Ni4	0.560860	0.524000	0.114870
Ni51	Ni5	0.885940	0.799060	0.402240
Ni61	Ni6	0.706990	0.602260	0.974010
Ni71	Ni7	0.706990	0.897740	0.474010
Ni81	Ni8	0.706990	0.102260	0.525990
Ni91	Ni9	0.963770	0.500000	0.000000
Ni101	Ni10	0.560860	0.976000	0.614870
Ni111	Ni11	0.885940	0.200940	0.597760
Ni121	Ni12	0.560860	0.476000	0.885130
Ni131	Ni13	0.885940	0.700940	0.902240
Ni141	Ni14	0.885940	0.299060	0.097760
H11	H1	0.180300	0.299000	0.636200
H21	H2	0.656400	0.859000	0.193500
H31	H3	0.920000	0.297400	0.248600
H41	H4	0.882800	0.082400	0.127300
H51	H5	0.350200	0.170300	0.165100
H61	H6	0.903900	0.027800	0.787500
H71	H7	0.180300	0.799000	0.863800
H81	H8	0.903900	0.527800	0.712500
H91	H9	0.180300	0.201000	0.136200
H101	H10	0.871800	0.652900	0.020300
H111	H11	0.589100	0.951500	0.763500
H121	H12	0.871800	0.152900	0.479700
H131	H13	0.871800	0.347100	0.979700
H141	H14	0.350200	0.329700	0.665100
H151	H15	0.546000	0.855100	0.001700
H161	H16	0.612800	0.262400	0.882600
H171	H17	0.612800	0.737600	0.117400
H181	H18	0.612800	0.237600	0.382600
H191	H19	0.933700	0.305000	0.838000
H201	H20	0.656400	0.141000	0.806500
H211	H21	0.647200	0.159600	0.158900
H221	H22	0.752800	0.053000	0.405300
H231	H23	0.546000	0.144900	0.998300
H241	H24	0.871800	0.847100	0.520300
H251	H25	0.752800	0.447000	0.905300
H261	H26	0.275700	0.389000	0.993700
H271	H27	0.752800	0.553000	0.094700
H281	H28	0.275700	0.611000	0.006300
H291	H29	0.546000	0.644900	0.501700
H301	H30	0.752800	0.947000	0.594700
H311	H31	0.656400	0.641000	0.693500
H321	H32	0.813800	0.500000	0.500000
H331	H33	0.647200	0.340400	0.658900
H341	H34	0.933700	0.805000	0.662000
H351	H35	0.455300	0.500000	0.500000
H361	H36	0.455300	0.000000	0.000000
H371	H37	0.589100	0.548500	0.263500
H381	H38	0.546000	0.355100	0.498300
H391	H39	0.903900	0.972200	0.212500
H401	H40	0.275700	0.111000	0.493700
H411	H41	0.350200	0.670300	0.334900
H421	H42	0.882800	0.917600	0.872700
H431	H43	0.920000	0.702600	0.751400
H441	H44	0.920000	0.797400	0.251400
H451	H45	0.275700	0.889000	0.506300
H461	H46	0.647200	0.659600	0.341100
H471	H47	0.612800	0.762400	0.617400
H481	H48	0.903900	0.472200	0.287500
H491	H49	0.350200	0.829700	0.834900
H501	H50	0.647200	0.840400	0.841100
H511	H51	0.933700	0.195000	0.338000
H521	H52	0.933700	0.695000	0.162000
H531	H53	0.656400	0.359000	0.306500
H541	H54	0.589100	0.048500	0.236500
H551	H55	0.481700	0.251700	0.109600
H561	H56	0.481700	0.748300	0.890400
H571	H57	0.882800	0.417600	0.627300
H581	H58	0.481700	0.248300	0.609600
H591	H59	0.481700	0.751700	0.390400
H601	H60	0.589100	0.451500	0.736500
H611	H61	0.813800	0.000000	0.000000
H621	H62	0.180300	0.701000	0.363800
H631	H63	0.882800	0.582400	0.372700
H641	H64	0.920000	0.202600	0.748600
C11	C1	0.644900	0.204300	0.791400
C21	C2	0.605400	0.888900	0.749000
C31	C3	0.921700	0.570500	0.212900
C41	C4	0.335000	0.214400	0.130700
C51	C5	0.476900	0.375400	0.008400
C61	C6	0.742300	0.184200	0.009900
C71	C7	0.413600	0.261700	0.096900
C81	C8	0.581700	0.586200	0.499900
C91	C9	0.637400	0.822100	0.796100
C101	C10	0.099200	0.173200	0.549200
C111	C11	0.233100	0.767300	0.886700
C121	C12	0.742300	0.684200	0.490100
C131	C13	0.605400	0.388900	0.751000
C141	C14	0.389900	0.674900	0.956900
C151	C15	0.688000	0.087900	0.002900
C161	C16	0.637400	0.322100	0.703900
C171	C17	0.906500	0.461400	0.722000
C181	C18	0.209800	0.701900	0.938200
C191	C19	0.933700	0.996600	0.653000
C201	C20	0.476900	0.875400	0.491600
C211	C21	0.617200	0.777400	0.663300
C221	C22	0.933700	0.496600	0.847000
C231	C23	0.933700	0.503400	0.153000
C241	C24	0.671900	0.148700	0.671300
C251	C25	0.637400	0.677900	0.296100
C261	C26	0.605400	0.611100	0.249000
C271	C27	0.389900	0.325100	0.043100
C281	C28	0.644900	0.295700	0.291400
C291	C29	0.921700	0.929500	0.712900
C301	C30	0.915600	0.730700	0.259100
C311	C31	0.655000	0.727200	0.775900
C321	C32	0.290600	0.344200	0.027700
C331	C33	0.389900	0.825100	0.456900
C341	C34	0.906500	0.961400	0.778000
C351	C35	0.933700	0.003400	0.347000
C361	C36	0.655000	0.772800	0.275900
C371	C37	0.895200	0.105800	0.170800
C381	C38	0.906500	0.538600	0.278000
C391	C39	0.924900	0.831000	0.705100
C401	C40	0.644900	0.704300	0.708600
C411	C41	0.209800	0.201900	0.561800
C421	C42	0.637400	0.177900	0.203900
C431	C43	0.099200	0.673200	0.950800
C441	C44	0.413600	0.238300	0.596900
C451	C45	0.209800	0.798100	0.438200
C461	C46	0.290600	0.844200	0.472300
C471	C47	0.742300	0.315800	0.509900
C481	C48	0.413600	0.761700	0.403100
C491	C49	0.389900	0.174900	0.543100
C501	C50	0.233100	0.732700	0.386700
C511	C51	0.581700	0.413800	0.500100
C521	C52	0.655000	0.272800	0.224100
C531	C53	0.671900	0.851300	0.328700
C541	C54	0.290600	0.655800	0.972300
C551	C55	0.644900	0.795700	0.208600
C561	C56	0.099200	0.326800	0.049200
C571	C57	0.617200	0.222600	0.336700
C581	C58	0.915600	0.269300	0.740900
C591	C59	0.895200	0.394200	0.670800
C601	C60	0.688000	0.412100	0.502900
C611	C61	0.895200	0.605800	0.329200
C621	C62	0.921700	0.070500	0.287100
C631	C63	0.915600	0.769300	0.759100
C641	C64	0.671900	0.351300	0.171300
C651	C65	0.617200	0.722600	0.163300
C661	C66	0.476900	0.624600	0.991600
C671	C67	0.233100	0.267300	0.613300
C681	C68	0.655000	0.227200	0.724100
C691	C69	0.671900	0.648700	0.828700
C701	C70	0.413600	0.738300	0.903100
C711	C71	0.526900	0.000000	0.000000
C721	C72	0.915600	0.230700	0.240900
C731	C73	0.233100	0.232700	0.113300
C741	C74	0.335000	0.785600	0.869300
C751	C75	0.742300	0.815800	0.990100
C761	C76	0.688000	0.912100	0.997100
C771	C77	0.526900	0.500000	0.500000
C781	C78	0.924900	0.669000	0.205100
C791	C79	0.924900	0.331000	0.794900
C801	C80	0.605400	0.111100	0.251000
C811	C81	0.476900	0.124600	0.508400
C821	C82	0.742200	0.000000	0.000000
C831	C83	0.895200	0.894200	0.829200
C841	C84	0.099200	0.826800	0.450800
C851	C85	0.906500	0.038600	0.222000
C861	C86	0.335000	0.714400	0.369300
C871	C87	0.688000	0.587900	0.497100
C881	C88	0.742200	0.500000	0.500000
C891	C89	0.335000	0.285600	0.630700
C901	C90	0.617200	0.277400	0.836700
C911	C91	0.924900	0.169000	0.294900
C921	C92	0.209800	0.298100	0.061800
C931	C93	0.921700	0.429500	0.787100
C941	C94	0.581700	0.913800	0.999900
C951	C95	0.581700	0.086200	0.000100
C961	C96	0.290600	0.155800	0.527700
N11	N1	0.596800	0.867900	0.683300
N21	N2	0.596800	0.632100	0.183300
N31	N3	0.900800	0.200400	0.179040
N41	N4	0.596800	0.132100	0.316700
N51	N5	0.900800	0.700400	0.320960
N61	N6	0.900800	0.299600	0.679040
N71	N7	0.900800	0.799600	0.820960
N81	N8	0.596800	0.367900	0.816700
O11	O1	0.550800	0.595100	0.955090
O21	O2	0.623300	0.927200	0.318670
O31	O3	0.920100	0.414700	0.162870
O41	O4	0.692000	0.258100	0.991400
O51	O5	0.032800	0.730600	0.928340
O61	O6	0.861900	0.610000	0.981090
O71	O7	0.471900	0.113800	0.445620
O81	O8	0.725100	0.169400	0.621040
O91	O9	0.623300	0.072800	0.681330
O101	O10	0.471900	0.613800	0.054380
O111	O11	0.471900	0.886200	0.554380
O121	O12	0.623300	0.572800	0.818670
O131	O13	0.829900	0.314900	0.536210
O141	O14	0.550800	0.904900	0.455090
O151	O15	0.695400	0.463370	0.935400
O161	O16	0.623300	0.427200	0.181330
O171	O17	0.920100	0.914700	0.337130
O181	O18	0.725100	0.330600	0.121040
O191	O19	0.725100	0.830600	0.378960
O201	O20	0.725100	0.669400	0.878960
O211	O21	0.954500	0.544600	0.098390
O221	O22	0.954500	0.044600	0.401610
O231	O23	0.550800	0.095100	0.544910
O241	O24	0.692000	0.241900	0.491400
O251	O25	0.695400	0.036630	0.435400
O261	O26	0.829900	0.185100	0.036210
O271	O27	0.084800	0.596500	0.981810
O281	O28	0.550800	0.404900	0.044910
O291	O29	0.084800	0.903500	0.481810
O301	O30	0.861900	0.110000	0.518910
O311	O31	0.471900	0.386200	0.945620
O321	O32	0.861900	0.890000	0.481090
O331	O33	0.954500	0.455400	0.901610
O341	O34	0.954500	0.955400	0.598390
O351	O35	0.861900	0.390000	0.018910
O361	O36	0.084800	0.096500	0.518190
O371	O37	0.032800	0.230600	0.571660
O381	O38	0.829900	0.814900	0.963790
O391	O39	0.084800	0.403500	0.018190
O401	O40	0.829900	0.685100	0.463790
O411	O41	0.032800	0.769400	0.428340
O421	O42	0.695400	0.963370	0.564600
O431	O43	0.920100	0.585300	0.837130
O441	O44	0.032800	0.269400	0.071660
O451	O45	0.920100	0.085300	0.662870
O461	O46	0.692000	0.758100	0.508600
O471	O47	0.695400	0.536630	0.064600
O481	O48	0.692000	0.741900	0.008600
