data_BIYSUZ_clean_PM
_symmetry_space_group_name_H-M	'P1'
_cell_length_a	8.124100
_cell_length_b	30.384300
_cell_length_c	15.661600
_cell_angle_alpha	90.000000
_cell_angle_beta	90.000000
_cell_angle_gamma	90.000000
_symmetry_Int_Tables_number 1

loop_
_symmetry_equiv_pos_as_xyz
'x,y,z'

loop_
_atom_site_label
_atom_site_type_symbol
_atom_site_fract_x
_atom_site_fract_y
_atom_site_fract_z
La11	La1	0.934400	0.591210	0.703630
O11	O1	0.889700	0.461190	0.389500
O21	O2	0.741800	0.406250	0.338700
O31	O3	0.494100	0.524660	0.710200
O41	O4	0.738900	0.538630	0.651300
O51	O5	0.155400	0.632040	0.816000
O61	O6	0.988800	0.670430	0.733900
C11	C1	0.660800	0.439740	0.471900
C21	C2	0.528800	0.412020	0.486600
H11	H1	0.506900	0.389400	0.446300
N11	N1	0.430600	0.415470	0.554700
C31	C3	0.459500	0.448720	0.608800
H21	H2	0.387500	0.452300	0.656100
C41	C4	0.589200	0.478230	0.599500
C51	C5	0.692100	0.473000	0.530500
H31	H3	0.783900	0.492000	0.523000
C61	C6	0.767600	0.435790	0.393800
C71	C7	0.608900	0.516320	0.658600
C81	C8	0.148000	0.710640	0.831500
C91	C9	0.245600	0.712340	0.904400
H41	H4	0.280400	0.685400	0.929300
C101	C10	0.096400	0.668460	0.792000
La21	La2	0.565600	0.408790	0.203630
O71	O7	0.610300	0.538810	0.889500
O81	O8	0.758200	0.593750	0.838700
O91	O9	0.005900	0.475340	0.210200
O101	O10	0.761100	0.461370	0.151300
O111	O11	0.344600	0.367960	0.316000
O121	O12	0.511200	0.329570	0.233900
C111	C11	0.839200	0.560260	0.971900
C121	C12	0.971200	0.587980	0.986600
H51	H5	0.993100	0.610600	0.946300
N21	N2	0.069400	0.584530	0.054700
C131	C13	0.040500	0.551280	0.108800
H61	H6	0.112500	0.547700	0.156100
C141	C14	0.910800	0.521770	0.099500
C151	C15	0.807900	0.527000	0.030500
H71	H7	0.716100	0.508000	0.023000
C161	C16	0.732400	0.564210	0.893800
C171	C17	0.891100	0.483680	0.158600
C181	C18	0.352000	0.289360	0.331500
C191	C19	0.254400	0.287660	0.404400
H81	H8	0.219600	0.314600	0.429300
C201	C20	0.403600	0.331540	0.292000
La31	La3	0.065600	0.091210	0.296370
O131	O13	0.110300	0.961190	0.610500
O141	O14	0.258200	0.906250	0.661300
O151	O15	0.505900	0.024660	0.289800
O161	O16	0.261100	0.038630	0.348700
O171	O17	0.844600	0.132040	0.184000
O181	O18	0.011200	0.170430	0.266100
C211	C21	0.339200	0.939740	0.528100
C221	C22	0.471200	0.912020	0.513400
H91	H9	0.493100	0.889400	0.553700
N31	N3	0.569400	0.915470	0.445300
C231	C23	0.540500	0.948720	0.391200
H101	H10	0.612500	0.952300	0.343900
C241	C24	0.410800	0.978230	0.400500
C251	C25	0.307900	0.973000	0.469500
H111	H11	0.216100	0.992000	0.477000
C261	C26	0.232400	0.935790	0.606200
C271	C27	0.391100	0.016320	0.341400
C281	C28	0.852000	0.210640	0.168500
C291	C29	0.754400	0.212340	0.095600
H121	H12	0.719600	0.185400	0.070700
C301	C30	0.903600	0.168460	0.208000
La41	La4	0.434400	0.908790	0.796370
O191	O19	0.389700	0.038810	0.110500
O201	O20	0.241800	0.093750	0.161300
O211	O21	0.994100	0.975340	0.789800
O221	O22	0.238900	0.961370	0.848700
O231	O23	0.655400	0.867960	0.684000
O241	O24	0.488800	0.829570	0.766100
C311	C31	0.160800	0.060260	0.028100
C321	C32	0.028800	0.087980	0.013400
H131	H13	0.006900	0.110600	0.053700
N41	N4	0.930600	0.084530	0.945300
C331	C33	0.959500	0.051280	0.891200
H141	H14	0.887500	0.047700	0.843900
C341	C34	0.089200	0.021770	0.900500
C351	C35	0.192100	0.027000	0.969500
H151	H15	0.283900	0.008000	0.977000
C361	C36	0.267600	0.064210	0.106200
C371	C37	0.108900	0.983680	0.841400
C381	C38	0.648000	0.789360	0.668500
C391	C39	0.745600	0.787660	0.595600
H161	H16	0.780400	0.814600	0.570700
C401	C40	0.596400	0.831540	0.708000
La51	La5	0.065600	0.408790	0.296370
O251	O25	0.110300	0.538810	0.610500
O261	O26	0.258200	0.593750	0.661300
O271	O27	0.505900	0.475340	0.289800
O281	O28	0.261100	0.461370	0.348700
O291	O29	0.844600	0.367960	0.184000
O301	O30	0.011200	0.329570	0.266100
C411	C41	0.339200	0.560260	0.528100
C421	C42	0.471200	0.587980	0.513400
H171	H17	0.493100	0.610600	0.553700
N51	N5	0.569400	0.584530	0.445300
C431	C43	0.540500	0.551280	0.391200
H181	H18	0.612500	0.547700	0.343900
C441	C44	0.410800	0.521770	0.400500
C451	C45	0.307900	0.527000	0.469500
H191	H19	0.216100	0.508000	0.477000
C461	C46	0.232400	0.564210	0.606200
C471	C47	0.391100	0.483680	0.341400
C481	C48	0.852000	0.289360	0.168500
C491	C49	0.754400	0.287660	0.095600
H201	H20	0.719600	0.314600	0.070700
C501	C50	0.903600	0.331540	0.208000
La61	La6	0.434400	0.591210	0.796370
O311	O31	0.389700	0.461190	0.110500
O321	O32	0.241800	0.406250	0.161300
O331	O33	0.994100	0.524660	0.789800
O341	O34	0.238900	0.538630	0.848700
O351	O35	0.655400	0.632040	0.684000
O361	O36	0.488800	0.670430	0.766100
C511	C51	0.160800	0.439740	0.028100
C521	C52	0.028800	0.412020	0.013400
H211	H21	0.006900	0.389400	0.053700
N61	N6	0.930600	0.415470	0.945300
C531	C53	0.959500	0.448720	0.891200
H221	H22	0.887500	0.452300	0.843900
C541	C54	0.089200	0.478230	0.900500
C551	C55	0.192100	0.473000	0.969500
H231	H23	0.283900	0.492000	0.977000
C561	C56	0.267600	0.435790	0.106200
C571	C57	0.108900	0.516320	0.841400
C581	C58	0.648000	0.710640	0.668500
C591	C59	0.745600	0.712340	0.595600
H241	H24	0.780400	0.685400	0.570700
C601	C60	0.596400	0.668460	0.708000
La71	La7	0.934400	0.908790	0.703630
O371	O37	0.889700	0.038810	0.389500
O381	O38	0.741800	0.093750	0.338700
O391	O39	0.494100	0.975340	0.710200
O401	O40	0.738900	0.961370	0.651300
O411	O41	0.155400	0.867960	0.816000
O421	O42	0.988800	0.829570	0.733900
C611	C61	0.660800	0.060260	0.471900
C621	C62	0.528800	0.087980	0.486600
H251	H25	0.506900	0.110600	0.446300
N71	N7	0.430600	0.084530	0.554700
C631	C63	0.459500	0.051280	0.608800
H261	H26	0.387500	0.047700	0.656100
C641	C64	0.589200	0.021770	0.599500
C651	C65	0.692100	0.027000	0.530500
H271	H27	0.783900	0.008000	0.523000
C661	C66	0.767600	0.064210	0.393800
C671	C67	0.608900	0.983680	0.658600
C681	C68	0.148000	0.789360	0.831500
C691	C69	0.245600	0.787660	0.904400
H281	H28	0.280400	0.814600	0.929300
C701	C70	0.096400	0.831540	0.792000
La81	La8	0.565600	0.091210	0.203630
O431	O43	0.610300	0.961190	0.889500
O441	O44	0.758200	0.906250	0.838700
O451	O45	0.005900	0.024660	0.210200
O461	O46	0.761100	0.038630	0.151300
O471	O47	0.344600	0.132040	0.316000
O481	O48	0.511200	0.170430	0.233900
C711	C71	0.839200	0.939740	0.971900
C721	C72	0.971200	0.912020	0.986600
H291	H29	0.993100	0.889400	0.946300
N81	N8	0.069400	0.915470	0.054700
C731	C73	0.040500	0.948720	0.108800
H301	H30	0.112500	0.952300	0.156100
C741	C74	0.910800	0.978230	0.099500
C751	C75	0.807900	0.973000	0.030500
H311	H31	0.716100	0.992000	0.023000
C761	C76	0.732400	0.935790	0.893800
C771	C77	0.891100	0.016320	0.158600
C781	C78	0.352000	0.210640	0.331500
C791	C79	0.254400	0.212340	0.404400
H321	H32	0.219600	0.185400	0.429300
C801	C80	0.403600	0.168460	0.292000
N91	N9	0.292900	0.750000	0.941300
C811	C81	0.097700	0.750000	0.795300
H331	H33	0.029400	0.750000	0.746100
N101	N10	0.207100	0.250000	0.441300
C821	C82	0.402300	0.250000	0.295300
H341	H34	0.470600	0.250000	0.246100
N111	N11	0.707100	0.250000	0.058700
C831	C83	0.902300	0.250000	0.204700
H351	H35	0.970600	0.250000	0.253900
N121	N12	0.792900	0.750000	0.558700
C841	C84	0.597700	0.750000	0.704700
H361	H36	0.529400	0.750000	0.753900
