data_BIYVEM_clean_PM
_symmetry_space_group_name_H-M	'P1'
_cell_length_a	8.023400
_cell_length_b	30.243900
_cell_length_c	15.328000
_cell_angle_alpha	90.000000
_cell_angle_beta	90.000000
_cell_angle_gamma	90.000000
_symmetry_Int_Tables_number 1

loop_
_symmetry_equiv_pos_as_xyz
'x,y,z'

loop_
_atom_site_label
_atom_site_type_symbol
_atom_site_fract_x
_atom_site_fract_y
_atom_site_fract_z
Sm11	Sm1	0.436080	0.907010	0.704300
O11	O1	0.657300	0.868740	0.817590
O21	O2	0.391300	0.041980	0.385520
O31	O3	0.254300	0.959980	0.650630
O41	O4	0.488200	0.830500	0.732350
O51	O5	0.236400	0.097080	0.337810
O61	O6	0.001300	0.969580	0.708280
N11	N1	0.925400	0.082420	0.560100
C11	C1	0.596300	0.832190	0.791600
C21	C2	0.160200	0.060780	0.472100
C31	C3	0.024200	0.087900	0.490400
H11	H1	0.000200	0.111500	0.451400
C41	C4	0.119100	0.979850	0.658400
C51	C5	0.266100	0.066410	0.392700
C61	C6	0.958500	0.047930	0.612300
H21	H2	0.886100	0.042700	0.660200
C71	C7	0.648200	0.789580	0.832800
C81	C8	0.092500	0.019420	0.600300
C91	C9	0.742400	0.787940	0.908900
H31	H3	0.776500	0.815000	0.934700
C101	C10	0.195900	0.026560	0.529800
H41	H4	0.290600	0.008300	0.520700
Sm21	Sm2	0.063920	0.092990	0.204300
O71	O7	0.842700	0.131260	0.317590
O81	O8	0.108700	0.958020	0.885520
O91	O9	0.245700	0.040020	0.150630
O101	O10	0.011800	0.169500	0.232350
O111	O11	0.263600	0.902920	0.837810
O121	O12	0.498700	0.030420	0.208280
N21	N2	0.574600	0.917580	0.060100
C111	C11	0.903700	0.167810	0.291600
C121	C12	0.339800	0.939220	0.972100
C131	C13	0.475800	0.912100	0.990400
H51	H5	0.499800	0.888500	0.951400
C141	C14	0.380900	0.020150	0.158400
C151	C15	0.233900	0.933590	0.892700
C161	C16	0.541500	0.952070	0.112300
H61	H6	0.613900	0.957300	0.160200
C171	C17	0.851800	0.210420	0.332800
C181	C18	0.407500	0.980580	0.100300
C191	C19	0.757600	0.212060	0.408900
H71	H7	0.723500	0.185000	0.434700
C201	C20	0.304100	0.973440	0.029800
H81	H8	0.209400	0.991700	0.020700
Sm31	Sm3	0.563920	0.407010	0.295700
O131	O13	0.342700	0.368740	0.182410
O141	O14	0.608700	0.541980	0.614480
O151	O15	0.745700	0.459980	0.349370
O161	O16	0.511800	0.330500	0.267650
O171	O17	0.763600	0.597080	0.662190
O181	O18	0.998700	0.469580	0.291720
N31	N3	0.074600	0.582420	0.439900
C211	C21	0.403700	0.332190	0.208400
C221	C22	0.839800	0.560780	0.527900
C231	C23	0.975800	0.587900	0.509600
H91	H9	0.999800	0.611500	0.548600
C241	C24	0.880900	0.479850	0.341600
C251	C25	0.733900	0.566410	0.607300
C261	C26	0.041500	0.547930	0.387700
H101	H10	0.113900	0.542700	0.339800
C271	C27	0.351800	0.289580	0.167200
C281	C28	0.907500	0.519420	0.399700
C291	C29	0.257600	0.287940	0.091100
H111	H11	0.223500	0.315000	0.065300
C301	C30	0.804100	0.526560	0.470200
H121	H12	0.709400	0.508300	0.479300
Sm41	Sm4	0.936080	0.592990	0.795700
O191	O19	0.157300	0.631260	0.682410
O201	O20	0.891300	0.458020	0.114480
O211	O21	0.754300	0.540020	0.849370
O221	O22	0.988200	0.669500	0.767650
O231	O23	0.736400	0.402920	0.162190
O241	O24	0.501300	0.530420	0.791720
N41	N4	0.425400	0.417580	0.939900
C311	C31	0.096300	0.667810	0.708400
C321	C32	0.660200	0.439220	0.027900
C331	C33	0.524200	0.412100	0.009600
H131	H13	0.500200	0.388500	0.048600
C341	C34	0.619100	0.520150	0.841600
C351	C35	0.766100	0.433590	0.107300
C361	C36	0.458500	0.452070	0.887700
H141	H14	0.386100	0.457300	0.839800
C371	C37	0.148200	0.710420	0.667200
C381	C38	0.592500	0.480580	0.899700
C391	C39	0.242400	0.712060	0.591100
H151	H15	0.276500	0.685000	0.565300
C401	C40	0.695900	0.473440	0.970200
H161	H16	0.790600	0.491700	0.979300
Sm51	Sm5	0.563920	0.092990	0.295700
O251	O25	0.342700	0.131260	0.182410
O261	O26	0.608700	0.958020	0.614480
O271	O27	0.745700	0.040020	0.349370
O281	O28	0.511800	0.169500	0.267650
O291	O29	0.763600	0.902920	0.662190
O301	O30	0.998700	0.030420	0.291720
N51	N5	0.074600	0.917580	0.439900
C411	C41	0.403700	0.167810	0.208400
C421	C42	0.839800	0.939220	0.527900
C431	C43	0.975800	0.912100	0.509600
H171	H17	0.999800	0.888500	0.548600
C441	C44	0.880900	0.020150	0.341600
C451	C45	0.733900	0.933590	0.607300
C461	C46	0.041500	0.952070	0.387700
H181	H18	0.113900	0.957300	0.339800
C471	C47	0.351800	0.210420	0.167200
C481	C48	0.907500	0.980580	0.399700
C491	C49	0.257600	0.212060	0.091100
H191	H19	0.223500	0.185000	0.065300
C501	C50	0.804100	0.973440	0.470200
H201	H20	0.709400	0.991700	0.479300
Sm61	Sm6	0.936080	0.907010	0.795700
O311	O31	0.157300	0.868740	0.682410
O321	O32	0.891300	0.041980	0.114480
O331	O33	0.754300	0.959980	0.849370
O341	O34	0.988200	0.830500	0.767650
O351	O35	0.736400	0.097080	0.162190
O361	O36	0.501300	0.969580	0.791720
N61	N6	0.425400	0.082420	0.939900
C511	C51	0.096300	0.832190	0.708400
C521	C52	0.660200	0.060780	0.027900
C531	C53	0.524200	0.087900	0.009600
H211	H21	0.500200	0.111500	0.048600
C541	C54	0.619100	0.979850	0.841600
C551	C55	0.766100	0.066410	0.107300
C561	C56	0.458500	0.047930	0.887700
H221	H22	0.386100	0.042700	0.839800
C571	C57	0.148200	0.789580	0.667200
C581	C58	0.592500	0.019420	0.899700
C591	C59	0.242400	0.787940	0.591100
H231	H23	0.276500	0.815000	0.565300
C601	C60	0.695900	0.026560	0.970200
H241	H24	0.790600	0.008300	0.979300
Sm71	Sm7	0.436080	0.592990	0.704300
O371	O37	0.657300	0.631260	0.817590
O381	O38	0.391300	0.458020	0.385520
O391	O39	0.254300	0.540020	0.650630
O401	O40	0.488200	0.669500	0.732350
O411	O41	0.236400	0.402920	0.337810
O421	O42	0.001300	0.530420	0.708280
N71	N7	0.925400	0.417580	0.560100
C611	C61	0.596300	0.667810	0.791600
C621	C62	0.160200	0.439220	0.472100
C631	C63	0.024200	0.412100	0.490400
H251	H25	0.000200	0.388500	0.451400
C641	C64	0.119100	0.520150	0.658400
C651	C65	0.266100	0.433590	0.392700
C661	C66	0.958500	0.452070	0.612300
H261	H26	0.886100	0.457300	0.660200
C671	C67	0.648200	0.710420	0.832800
C681	C68	0.092500	0.480580	0.600300
C691	C69	0.742400	0.712060	0.908900
H271	H27	0.776500	0.685000	0.934700
C701	C70	0.195900	0.473440	0.529800
H281	H28	0.290600	0.491700	0.520700
Sm81	Sm8	0.063920	0.407010	0.204300
O431	O43	0.842700	0.368740	0.317590
O441	O44	0.108700	0.541980	0.885520
O451	O45	0.245700	0.459980	0.150630
O461	O46	0.011800	0.330500	0.232350
O471	O47	0.263600	0.597080	0.837810
O481	O48	0.498700	0.469580	0.208280
N81	N8	0.574600	0.582420	0.060100
C711	C71	0.903700	0.332190	0.291600
C721	C72	0.339800	0.560780	0.972100
C731	C73	0.475800	0.587900	0.990400
H291	H29	0.499800	0.611500	0.951400
C741	C74	0.380900	0.479850	0.158400
C751	C75	0.233900	0.566410	0.892700
C761	C76	0.541500	0.547930	0.112300
H301	H30	0.613900	0.542700	0.160200
C771	C77	0.851800	0.289580	0.332800
C781	C78	0.407500	0.519420	0.100300
C791	C79	0.757600	0.287940	0.408900
H311	H31	0.723500	0.315000	0.434700
C801	C80	0.304100	0.526560	0.029800
H321	H32	0.209400	0.508300	0.020700
N91	N9	0.787500	0.750000	0.947800
C811	C81	0.598600	0.750000	0.794500
H331	H33	0.532200	0.750000	0.743200
N101	N10	0.712500	0.250000	0.447800
C821	C82	0.901400	0.250000	0.294500
H341	H34	0.967800	0.250000	0.243200
N111	N11	0.212500	0.250000	0.052200
C831	C83	0.401400	0.250000	0.205500
H351	H35	0.467800	0.250000	0.256800
N121	N12	0.287500	0.750000	0.552200
C841	C84	0.098600	0.750000	0.705500
H361	H36	0.032200	0.750000	0.756800
