data_BOCTOE05_clean_PM
_symmetry_space_group_name_H-M	'P1'
_cell_length_a	8.502000
_cell_length_b	9.431000
_cell_length_c	12.930000
_cell_angle_alpha	90.000000
_cell_angle_beta	104.770000
_cell_angle_gamma	90.000000
_symmetry_Int_Tables_number 1

loop_
_symmetry_equiv_pos_as_xyz
'x,y,z'

loop_
_atom_site_label
_atom_site_type_symbol
_atom_site_fract_x
_atom_site_fract_y
_atom_site_fract_z
N11	N1	0.718500	0.129500	0.998100
N21	N2	0.550400	0.046300	0.175000
N31	N3	0.337300	0.189800	0.959700
N41	N4	0.218500	0.629500	0.998100
N51	N5	0.050400	0.546300	0.175000
N61	N6	0.837300	0.689800	0.959700
N71	N7	0.281500	0.129500	0.501900
N81	N8	0.449600	0.046300	0.325000
N91	N9	0.662700	0.189800	0.540300
N101	N10	0.781500	0.629500	0.501900
N111	N11	0.949600	0.546300	0.325000
N121	N12	0.162700	0.689800	0.540300
N131	N13	0.281500	0.870500	0.001900
N141	N14	0.449600	0.953700	0.825000
N151	N15	0.662700	0.810200	0.040300
N161	N16	0.781500	0.370500	0.001900
N171	N17	0.949600	0.453700	0.825000
N181	N18	0.162700	0.310200	0.040300
N191	N19	0.718500	0.870500	0.498100
N201	N20	0.550400	0.953700	0.675000
N211	N21	0.337300	0.810200	0.459700
N221	N22	0.218500	0.370500	0.498100
N231	N23	0.050400	0.453700	0.675000
N241	N24	0.837300	0.310200	0.459700
Mn11	Mn1	0.500000	0.000000	0.000000
Mn21	Mn2	0.000000	0.500000	0.000000
Mn31	Mn3	0.500000	0.000000	0.500000
Mn41	Mn4	0.000000	0.500000	0.500000
N251	N25	0.500000	0.043600	0.250000
N261	N26	0.000000	0.543600	0.250000
N271	N27	0.500000	0.956400	0.750000
N281	N28	0.000000	0.456400	0.750000
N291	N29	0.750000	0.250000	0.000000
N301	N30	0.250000	0.250000	0.500000
N311	N31	0.250000	0.750000	0.000000
N321	N32	0.750000	0.750000	0.500000
N331	N33	0.250000	0.250000	0.000000
N341	N34	0.750000	0.250000	0.500000
N351	N35	0.750000	0.750000	0.000000
N361	N36	0.250000	0.750000	0.500000
