data_BOCTOE04_clean_PM
_symmetry_space_group_name_H-M	'P1'
_cell_length_a	8.452900
_cell_length_b	9.358100
_cell_length_c	12.884000
_cell_angle_alpha	90.000000
_cell_angle_beta	105.265000
_cell_angle_gamma	90.000000
_symmetry_Int_Tables_number 1

loop_
_symmetry_equiv_pos_as_xyz
'x,y,z'

loop_
_atom_site_label
_atom_site_type_symbol
_atom_site_fract_x
_atom_site_fract_y
_atom_site_fract_z
N11	N1	0.718600	0.129200	0.997500
N21	N2	0.551000	0.048300	0.175210
N31	N3	0.337800	0.190600	0.959400
N41	N4	0.218600	0.629200	0.997500
N51	N5	0.051000	0.548300	0.175210
N61	N6	0.837800	0.690600	0.959400
N71	N7	0.281400	0.129200	0.502500
N81	N8	0.449000	0.048300	0.324790
N91	N9	0.662200	0.190600	0.540600
N101	N10	0.781400	0.629200	0.502500
N111	N11	0.949000	0.548300	0.324790
N121	N12	0.162200	0.690600	0.540600
N131	N13	0.281400	0.870800	0.002500
N141	N14	0.449000	0.951700	0.824790
N151	N15	0.662200	0.809400	0.040600
N161	N16	0.781400	0.370800	0.002500
N171	N17	0.949000	0.451700	0.824790
N181	N18	0.162200	0.309400	0.040600
N191	N19	0.718600	0.870800	0.497500
N201	N20	0.551000	0.951700	0.675210
N211	N21	0.337800	0.809400	0.459400
N221	N22	0.218600	0.370800	0.497500
N231	N23	0.051000	0.451700	0.675210
N241	N24	0.837800	0.309400	0.459400
Mn11	Mn1	0.500000	0.000000	0.000000
Mn21	Mn2	0.000000	0.500000	0.000000
Mn31	Mn3	0.500000	0.000000	0.500000
Mn41	Mn4	0.000000	0.500000	0.500000
N251	N25	0.500000	0.045500	0.250000
N261	N26	0.000000	0.545500	0.250000
N271	N27	0.500000	0.954500	0.750000
N281	N28	0.000000	0.454500	0.750000
N291	N29	0.750000	0.250000	0.000000
N301	N30	0.250000	0.250000	0.500000
N311	N31	0.250000	0.750000	0.000000
N321	N32	0.750000	0.750000	0.500000
N331	N33	0.250000	0.250000	0.000000
N341	N34	0.750000	0.250000	0.500000
N351	N35	0.750000	0.750000	0.000000
N361	N36	0.250000	0.750000	0.500000
