data_BOHGOU_clean_PM
_symmetry_space_group_name_H-M	'P1'
_cell_length_a	7.731000
_cell_length_b	7.845500
_cell_length_c	7.845500
_cell_angle_alpha	116.473000
_cell_angle_beta	103.025000
_cell_angle_gamma	103.025000
_symmetry_Int_Tables_number 1

loop_
_symmetry_equiv_pos_as_xyz
'x,y,z'

loop_
_atom_site_label
_atom_site_type_symbol
_atom_site_fract_x
_atom_site_fract_y
_atom_site_fract_z
Mn11	Mn1	0.750000	0.143310	0.856690
Mn21	Mn2	0.250000	0.856690	0.143310
H11	H1	0.947000	0.313000	0.501000
H21	H2	0.025000	0.613000	0.523000
H31	H3	0.447000	0.501000	0.313000
H41	H4	0.525000	0.523000	0.613000
C11	C1	0.981200	0.118600	0.226800
C21	C2	0.983000	0.315800	0.388000
C31	C3	0.027600	0.495800	0.399200
C41	C4	0.080300	0.539900	0.246300
C51	C5	0.481200	0.226800	0.118600
C61	C6	0.483000	0.388000	0.315800
C71	C7	0.527600	0.399200	0.495800
C81	C8	0.580300	0.246300	0.539900
O11	O1	0.091400	0.045100	0.291900
O21	O2	0.868100	0.028900	0.044700
O31	O3	0.009000	0.410900	0.059700
O41	O4	0.200800	0.719200	0.322400
O51	O5	0.591400	0.291900	0.045100
O61	O6	0.368100	0.044700	0.028900
O71	O7	0.509000	0.059700	0.410900
O81	O8	0.700800	0.322400	0.719200
