data_BOMCUB_charged_PM
_symmetry_space_group_name_H-M	'P1'
_cell_length_a	9.025000
_cell_length_b	9.025000
_cell_length_c	11.343000
_cell_angle_alpha	90.000000
_cell_angle_beta	90.000000
_cell_angle_gamma	120.000000
_symmetry_Int_Tables_number 1

loop_
_symmetry_equiv_pos_as_xyz
'x,y,z'

loop_
_atom_site_label
_atom_site_type_symbol
_atom_site_fract_x
_atom_site_fract_y
_atom_site_fract_z
In11	In1	0.500000	0.000000	0.666670
In21	In2	0.500000	0.500000	0.000000
In31	In3	0.000000	0.500000	0.333330
C11	C1	0.789050	0.210950	0.500000
C21	C2	0.690250	0.309750	0.500000
C31	C3	0.421900	0.210950	0.833330
C41	C4	0.619500	0.309750	0.833330
C51	C5	0.789050	0.578100	0.166670
C61	C6	0.690250	0.380500	0.166670
C71	C7	0.210950	0.789050	0.500000
C81	C8	0.309750	0.690250	0.500000
C91	C9	0.578100	0.789050	0.833330
C101	C10	0.380500	0.690250	0.833330
C111	C11	0.210950	0.421900	0.166670
C121	C12	0.309750	0.619500	0.166670
O11	O1	0.731900	0.078700	0.561400
O21	O2	0.553100	0.241400	0.555400
O31	O3	0.346800	0.268100	0.894730
O41	O4	0.688300	0.446900	0.888730
O51	O5	0.921300	0.653200	0.228070
O61	O6	0.758600	0.311700	0.222070
O71	O7	0.268100	0.921300	0.561400
O81	O8	0.446900	0.758600	0.555400
O91	O9	0.653200	0.731900	0.894730
O101	O10	0.311700	0.553100	0.888730
O111	O11	0.078700	0.346800	0.228070
O121	O12	0.241400	0.688300	0.222070
O131	O13	0.653200	0.921300	0.771930
O141	O14	0.311700	0.758600	0.777930
O151	O15	0.078700	0.731900	0.438600
O161	O16	0.241400	0.553100	0.444600
O171	O17	0.268100	0.346800	0.105270
O181	O18	0.446900	0.688300	0.111270
O191	O19	0.346800	0.078700	0.771930
O201	O20	0.688300	0.241400	0.777930
O211	O21	0.921300	0.268100	0.438600
O221	O22	0.758600	0.446900	0.444600
O231	O23	0.731900	0.653200	0.105270
O241	O24	0.553100	0.311700	0.111270
H11	H1	0.895800	0.972100	0.052600
H21	H2	0.104200	0.027900	0.052600
H31	H3	0.972100	0.895800	0.947400
H41	H4	0.027900	0.104200	0.947400
N11	N1	0.000000	0.000000	0.000000
H51	H5	0.076300	0.104200	0.385930
H61	H6	0.923700	0.895800	0.385930
H71	H7	0.923700	0.027900	0.280730
H81	H8	0.076300	0.972100	0.280730
N21	N2	0.000000	0.000000	0.333330
H91	H9	0.027900	0.923700	0.719270
H101	H10	0.972100	0.076300	0.719270
H111	H11	0.104200	0.076300	0.614070
H121	H12	0.895800	0.923700	0.614070
N31	N3	0.000000	0.000000	0.666670
