data_BONNIC_clean_PM
_symmetry_space_group_name_H-M	'P1'
_cell_length_a	10.429700
_cell_length_b	11.219000
_cell_length_c	11.219000
_cell_angle_alpha	98.508600
_cell_angle_beta	109.592000
_cell_angle_gamma	109.592000
_symmetry_Int_Tables_number 1

loop_
_symmetry_equiv_pos_as_xyz
'x,y,z'

loop_
_atom_site_label
_atom_site_type_symbol
_atom_site_fract_x
_atom_site_fract_y
_atom_site_fract_z
Cd11	Cd1	0.250940	0.974830	0.066750
Cd21	Cd2	0.750940	0.066750	0.974830
H11	H1	0.129300	0.209700	0.040100
H21	H2	0.178000	0.406100	0.984300
H31	H3	0.359800	0.474400	0.900800
H41	H4	0.418900	0.783500	0.032500
H51	H5	0.503000	0.637900	0.126500
H61	H6	0.299200	0.668800	0.370600
H71	H7	0.234500	0.822900	0.280500
H81	H8	0.388300	0.488000	0.352000
H91	H9	0.480400	0.484700	0.263100
H101	H10	0.681800	0.685600	0.421400
H111	H11	0.590800	0.679500	0.511700
H121	H12	0.709600	0.491200	0.457600
H131	H13	0.611600	0.478400	0.542600
H141	H14	0.949200	0.724700	0.550100
H151	H15	0.148000	0.874100	0.740900
H161	H16	0.956400	0.716600	0.961600
H171	H17	0.747900	0.567600	0.776800
H181	H18	0.629300	0.040100	0.209700
H191	H19	0.678000	0.984300	0.406100
H201	H20	0.859800	0.900800	0.474400
H211	H21	0.918900	0.032500	0.783500
H221	H22	0.003000	0.126500	0.637900
H231	H23	0.799200	0.370600	0.668800
H241	H24	0.734500	0.280500	0.822900
H251	H25	0.888300	0.352000	0.488000
H261	H26	0.980400	0.263100	0.484700
H271	H27	0.181800	0.421400	0.685600
H281	H28	0.090800	0.511700	0.679500
H291	H29	0.209600	0.457600	0.491200
H301	H30	0.111600	0.542600	0.478400
H311	H31	0.449200	0.550100	0.724700
H321	H32	0.648000	0.740900	0.874100
H331	H33	0.456400	0.961600	0.716600
H341	H34	0.247900	0.776800	0.567600
C11	C1	0.205000	0.238850	0.008650
C21	C2	0.232100	0.354840	0.974560
C31	C3	0.340000	0.394990	0.925730
C41	C4	0.419900	0.319420	0.912860
C51	C5	0.534200	0.368130	0.855070
C61	C6	0.389100	0.205770	0.954390
C71	C7	0.479800	0.123460	0.961400
C81	C8	0.397200	0.762010	0.104390
C91	C9	0.445600	0.672940	0.158460
C101	C10	0.409100	0.635390	0.260290
C111	C11	0.328000	0.692390	0.302610
C121	C12	0.288100	0.783400	0.247400
C131	C13	0.464100	0.543730	0.325870
C141	C14	0.610300	0.624750	0.448050
C151	C15	0.683100	0.542040	0.518160
C161	C16	0.821700	0.630840	0.640760
C171	C17	0.946500	0.723120	0.633680
C181	C18	0.065300	0.811450	0.748150
C191	C19	0.953000	0.720260	0.876540
C201	C20	0.828500	0.630010	0.766590
C211	C21	0.705000	0.008650	0.238850
C221	C22	0.732100	0.974560	0.354840
C231	C23	0.840000	0.925730	0.394990
C241	C24	0.919900	0.912860	0.319420
C251	C25	0.034200	0.855070	0.368130
C261	C26	0.889100	0.954390	0.205770
C271	C27	0.979800	0.961400	0.123460
C281	C28	0.897200	0.104390	0.762010
C291	C29	0.945600	0.158460	0.672940
C301	C30	0.909100	0.260290	0.635390
C311	C31	0.828000	0.302610	0.692390
C321	C32	0.788100	0.247400	0.783400
C331	C33	0.964100	0.325870	0.543730
C341	C34	0.110300	0.448050	0.624750
C351	C35	0.183100	0.518160	0.542040
C361	C36	0.321700	0.640760	0.630840
C371	C37	0.446500	0.633680	0.723120
C381	C38	0.565300	0.748150	0.811450
C391	C39	0.453000	0.876540	0.720260
C401	C40	0.328500	0.766590	0.630010
N11	N1	0.281200	0.165340	0.999220
N21	N2	0.321900	0.818660	0.148700
N31	N3	0.069600	0.813070	0.869330
N41	N4	0.781200	0.999220	0.165340
N51	N5	0.821900	0.148700	0.818660
N61	N6	0.569600	0.869330	0.813070
O11	O1	0.438830	0.018200	0.990680
O21	O2	0.594870	0.170700	0.939900
O31	O3	0.655210	0.463240	0.931520
O41	O4	0.493900	0.316680	0.734840
O51	O5	0.938830	0.990680	0.018200
O61	O6	0.094870	0.939900	0.170700
O71	O7	0.155210	0.931520	0.463240
O81	O8	0.993900	0.734840	0.316680
