data_BOXYEU_clean_PM
_symmetry_space_group_name_H-M	'P1'
_cell_length_a	11.659900
_cell_length_b	10.933600
_cell_length_c	11.766900
_cell_angle_alpha	90.000000
_cell_angle_beta	90.000000
_cell_angle_gamma	90.000000
_symmetry_Int_Tables_number 1

loop_
_symmetry_equiv_pos_as_xyz
'x,y,z'

loop_
_atom_site_label
_atom_site_type_symbol
_atom_site_fract_x
_atom_site_fract_y
_atom_site_fract_z
Mn11	Mn1	0.282340	0.272140	0.313550
Mn21	Mn2	0.317840	0.740350	0.098300
P11	P1	0.213590	0.978980	0.245980
O11	O1	0.228800	0.113200	0.238500
O21	O2	0.280000	0.906800	0.162900
O31	O3	0.245600	0.929500	0.367400
H11	H1	0.222700	0.977600	0.415800
O41	O4	0.081900	0.955000	0.230700
H21	H2	0.071700	0.884100	0.210500
O51	O5	0.281100	0.359500	0.145200
O61	O6	0.310800	0.539800	0.060600
O71	O7	0.302400	0.469200	0.348300
O81	O8	0.311200	0.650500	0.261900
O91	O9	0.375200	0.774800	0.919700
O101	O10	0.530400	0.764300	0.808600
O111	O11	0.506300	0.741800	0.103100
O121	O12	0.661100	0.760100	0.992400
C11	C1	0.299900	0.472800	0.146400
C21	C2	0.305500	0.536600	0.264200
C31	C3	0.480200	0.764800	0.901600
C41	C4	0.556100	0.754600	0.008200
Mn31	Mn3	0.717660	0.727860	0.813550
Mn41	Mn4	0.682160	0.259650	0.598300
P21	P2	0.786410	0.021020	0.745980
O131	O13	0.771200	0.886800	0.738500
O141	O14	0.720000	0.093200	0.662900
O151	O15	0.754400	0.070500	0.867400
H31	H3	0.777300	0.022400	0.915800
O161	O16	0.918100	0.045000	0.730700
H41	H4	0.928300	0.115900	0.710500
O171	O17	0.718900	0.640500	0.645200
O181	O18	0.689200	0.460200	0.560600
O191	O19	0.697600	0.530800	0.848300
O201	O20	0.688800	0.349500	0.761900
O211	O21	0.624800	0.225200	0.419700
O221	O22	0.469600	0.235700	0.308600
O231	O23	0.493700	0.258200	0.603100
O241	O24	0.338900	0.239900	0.492400
C51	C5	0.700100	0.527200	0.646400
C61	C6	0.694500	0.463400	0.764200
C71	C7	0.519800	0.235200	0.401600
C81	C8	0.443900	0.245400	0.508200
Mn51	Mn5	0.782340	0.227860	0.313550
Mn61	Mn6	0.817840	0.759650	0.098300
P31	P3	0.713590	0.521020	0.245980
O251	O25	0.728800	0.386800	0.238500
O261	O26	0.780000	0.593200	0.162900
O271	O27	0.745600	0.570500	0.367400
H51	H5	0.722700	0.522400	0.415800
O281	O28	0.581900	0.545000	0.230700
H61	H6	0.571700	0.615900	0.210500
O291	O29	0.781100	0.140500	0.145200
O301	O30	0.810800	0.960200	0.060600
O311	O31	0.802400	0.030800	0.348300
O321	O32	0.811200	0.849500	0.261900
O331	O33	0.875200	0.725200	0.919700
O341	O34	0.030400	0.735700	0.808600
O351	O35	0.006300	0.758200	0.103100
O361	O36	0.161100	0.739900	0.992400
C91	C9	0.799900	0.027200	0.146400
C101	C10	0.805500	0.963400	0.264200
C111	C11	0.980200	0.735200	0.901600
C121	C12	0.056100	0.745400	0.008200
Mn71	Mn7	0.217660	0.772140	0.813550
Mn81	Mn8	0.182160	0.240350	0.598300
P41	P4	0.286410	0.478980	0.745980
O371	O37	0.271200	0.613200	0.738500
O381	O38	0.220000	0.406800	0.662900
O391	O39	0.254400	0.429500	0.867400
H71	H7	0.277300	0.477600	0.915800
O401	O40	0.418100	0.455000	0.730700
H81	H8	0.428300	0.384100	0.710500
O411	O41	0.218900	0.859500	0.645200
O421	O42	0.189200	0.039800	0.560600
O431	O43	0.197600	0.969200	0.848300
O441	O44	0.188800	0.150500	0.761900
O451	O45	0.124800	0.274800	0.419700
O461	O46	0.969600	0.264300	0.308600
O471	O47	0.993700	0.241800	0.603100
O481	O48	0.838900	0.260100	0.492400
C131	C13	0.200100	0.972800	0.646400
C141	C14	0.194500	0.036600	0.764200
C151	C15	0.019800	0.264800	0.401600
C161	C16	0.943900	0.254600	0.508200
