data_BOYTEQ_clean_PM
_symmetry_space_group_name_H-M	'P1'
_cell_length_a	19.651000
_cell_length_b	14.896300
_cell_length_c	8.522900
_cell_angle_alpha	90.000000
_cell_angle_beta	108.902000
_cell_angle_gamma	90.000000
_symmetry_Int_Tables_number 1

loop_
_symmetry_equiv_pos_as_xyz
'x,y,z'

loop_
_atom_site_label
_atom_site_type_symbol
_atom_site_fract_x
_atom_site_fract_y
_atom_site_fract_z
C11	C1	0.102860	0.565150	0.526050
C21	C2	0.180220	0.581010	0.534970
C31	C3	0.205690	0.545110	0.414700
H11	H1	0.176000	0.509200	0.331100
C41	C4	0.275680	0.562830	0.419100
H21	H2	0.292800	0.538500	0.338700
C51	C5	0.320000	0.616570	0.542700
H31	H3	0.366300	0.629500	0.542800
C61	C6	0.295960	0.651610	0.667140
C71	C7	0.225610	0.633260	0.661210
H41	H4	0.208700	0.656300	0.743000
C81	C8	0.343870	0.707210	0.802400
C91	C9	0.393480	0.766330	0.774080
H51	H5	0.397800	0.770600	0.668800
C101	C10	0.436370	0.818780	0.901860
H61	H6	0.468400	0.858500	0.878900
C111	C11	0.387140	0.757270	0.085740
H71	H7	0.385100	0.753000	0.193000
C121	C12	0.341400	0.703480	0.964130
H81	H8	0.309300	0.665100	0.990100
N11	N1	0.434030	0.815100	0.057540
O11	O1	0.083620	0.599400	0.639450
O21	O2	0.063340	0.522410	0.405570
C131	C13	0.602860	0.065150	0.526050
C141	C14	0.680220	0.081010	0.534970
C151	C15	0.705690	0.045110	0.414700
H91	H9	0.676000	0.009200	0.331100
C161	C16	0.775680	0.062830	0.419100
H101	H10	0.792800	0.038500	0.338700
C171	C17	0.820000	0.116570	0.542700
H111	H11	0.866300	0.129500	0.542800
C181	C18	0.795960	0.151610	0.667140
C191	C19	0.725610	0.133260	0.661210
H121	H12	0.708700	0.156300	0.743000
C201	C20	0.843870	0.207210	0.802400
C211	C21	0.893480	0.266330	0.774080
H131	H13	0.897800	0.270600	0.668800
C221	C22	0.936370	0.318780	0.901860
H141	H14	0.968400	0.358500	0.878900
C231	C23	0.887140	0.257270	0.085740
H151	H15	0.885100	0.253000	0.193000
C241	C24	0.841400	0.203480	0.964130
H161	H16	0.809300	0.165100	0.990100
N21	N2	0.934030	0.315100	0.057540
O31	O3	0.583620	0.099400	0.639450
O41	O4	0.563340	0.022410	0.405570
C251	C25	0.897140	0.565150	0.973950
C261	C26	0.819780	0.581010	0.965030
C271	C27	0.794310	0.545110	0.085300
H171	H17	0.824000	0.509200	0.168900
C281	C28	0.724320	0.562830	0.080900
H181	H18	0.707200	0.538500	0.161300
C291	C29	0.680000	0.616570	0.957300
H191	H19	0.633700	0.629500	0.957200
C301	C30	0.704040	0.651610	0.832860
C311	C31	0.774390	0.633260	0.838790
H201	H20	0.791300	0.656300	0.757000
C321	C32	0.656130	0.707210	0.697600
C331	C33	0.606520	0.766330	0.725920
H211	H21	0.602200	0.770600	0.831200
C341	C34	0.563630	0.818780	0.598140
H221	H22	0.531600	0.858500	0.621100
C351	C35	0.612860	0.757270	0.414260
H231	H23	0.614900	0.753000	0.307000
C361	C36	0.658600	0.703480	0.535870
H241	H24	0.690700	0.665100	0.509900
N31	N3	0.565970	0.815100	0.442460
O51	O5	0.916380	0.599400	0.860550
O61	O6	0.936660	0.522410	0.094430
C371	C37	0.397140	0.065150	0.973950
C381	C38	0.319780	0.081010	0.965030
C391	C39	0.294310	0.045110	0.085300
H251	H25	0.324000	0.009200	0.168900
C401	C40	0.224320	0.062830	0.080900
H261	H26	0.207200	0.038500	0.161300
C411	C41	0.180000	0.116570	0.957300
H271	H27	0.133700	0.129500	0.957200
C421	C42	0.204040	0.151610	0.832860
C431	C43	0.274390	0.133260	0.838790
H281	H28	0.291300	0.156300	0.757000
C441	C44	0.156130	0.207210	0.697600
C451	C45	0.106520	0.266330	0.725920
H291	H29	0.102200	0.270600	0.831200
C461	C46	0.063630	0.318780	0.598140
H301	H30	0.031600	0.358500	0.621100
C471	C47	0.112860	0.257270	0.414260
H311	H31	0.114900	0.253000	0.307000
C481	C48	0.158600	0.203480	0.535870
H321	H32	0.190700	0.165100	0.509900
N41	N4	0.065970	0.315100	0.442460
O71	O7	0.416380	0.099400	0.860550
O81	O8	0.436660	0.022410	0.094430
C491	C49	0.897140	0.434850	0.473950
C501	C50	0.819780	0.418990	0.465030
C511	C51	0.794310	0.454890	0.585300
H331	H33	0.824000	0.490800	0.668900
C521	C52	0.724320	0.437170	0.580900
H341	H34	0.707200	0.461500	0.661300
C531	C53	0.680000	0.383430	0.457300
H351	H35	0.633700	0.370500	0.457200
C541	C54	0.704040	0.348390	0.332860
C551	C55	0.774390	0.366740	0.338790
H361	H36	0.791300	0.343700	0.257000
C561	C56	0.656130	0.292790	0.197600
C571	C57	0.606520	0.233670	0.225920
H371	H37	0.602200	0.229400	0.331200
C581	C58	0.563630	0.181220	0.098140
H381	H38	0.531600	0.141500	0.121100
C591	C59	0.612860	0.242730	0.914260
H391	H39	0.614900	0.247000	0.807000
C601	C60	0.658600	0.296520	0.035870
H401	H40	0.690700	0.334900	0.009900
N51	N5	0.565970	0.184900	0.942460
O91	O9	0.916380	0.400600	0.360550
O101	O10	0.936660	0.477590	0.594430
C611	C61	0.397140	0.934850	0.473950
C621	C62	0.319780	0.918990	0.465030
C631	C63	0.294310	0.954890	0.585300
H411	H41	0.324000	0.990800	0.668900
C641	C64	0.224320	0.937170	0.580900
H421	H42	0.207200	0.961500	0.661300
C651	C65	0.180000	0.883430	0.457300
H431	H43	0.133700	0.870500	0.457200
C661	C66	0.204040	0.848390	0.332860
C671	C67	0.274390	0.866740	0.338790
H441	H44	0.291300	0.843700	0.257000
C681	C68	0.156130	0.792790	0.197600
C691	C69	0.106520	0.733670	0.225920
H451	H45	0.102200	0.729400	0.331200
C701	C70	0.063630	0.681220	0.098140
H461	H46	0.031600	0.641500	0.121100
C711	C71	0.112860	0.742730	0.914260
H471	H47	0.114900	0.747000	0.807000
C721	C72	0.158600	0.796520	0.035870
H481	H48	0.190700	0.834900	0.009900
N61	N6	0.065970	0.684900	0.942460
O111	O11	0.416380	0.900600	0.360550
O121	O12	0.436660	0.977590	0.594430
C731	C73	0.102860	0.434850	0.026050
C741	C74	0.180220	0.418990	0.034970
C751	C75	0.205690	0.454890	0.914700
H491	H49	0.176000	0.490800	0.831100
C761	C76	0.275680	0.437170	0.919100
H501	H50	0.292800	0.461500	0.838700
C771	C77	0.320000	0.383430	0.042700
H511	H51	0.366300	0.370500	0.042800
C781	C78	0.295960	0.348390	0.167140
C791	C79	0.225610	0.366740	0.161210
H521	H52	0.208700	0.343700	0.243000
C801	C80	0.343870	0.292790	0.302400
C811	C81	0.393480	0.233670	0.274080
H531	H53	0.397800	0.229400	0.168800
C821	C82	0.436370	0.181220	0.401860
H541	H54	0.468400	0.141500	0.378900
C831	C83	0.387140	0.242730	0.585740
H551	H55	0.385100	0.247000	0.693000
C841	C84	0.341400	0.296520	0.464130
H561	H56	0.309300	0.334900	0.490100
N71	N7	0.434030	0.184900	0.557540
O131	O13	0.083620	0.400600	0.139450
O141	O14	0.063340	0.477590	0.905570
C851	C85	0.602860	0.934850	0.026050
C861	C86	0.680220	0.918990	0.034970
C871	C87	0.705690	0.954890	0.914700
H571	H57	0.676000	0.990800	0.831100
C881	C88	0.775680	0.937170	0.919100
H581	H58	0.792800	0.961500	0.838700
C891	C89	0.820000	0.883430	0.042700
H591	H59	0.866300	0.870500	0.042800
C901	C90	0.795960	0.848390	0.167140
C911	C91	0.725610	0.866740	0.161210
H601	H60	0.708700	0.843700	0.243000
C921	C92	0.843870	0.792790	0.302400
C931	C93	0.893480	0.733670	0.274080
H611	H61	0.897800	0.729400	0.168800
C941	C94	0.936370	0.681220	0.401860
H621	H62	0.968400	0.641500	0.378900
C951	C95	0.887140	0.742730	0.585740
H631	H63	0.885100	0.747000	0.693000
C961	C96	0.841400	0.796520	0.464130
H641	H64	0.809300	0.834900	0.490100
N81	N8	0.934030	0.684900	0.557540
O151	O15	0.583620	0.900600	0.139450
O161	O16	0.563340	0.977590	0.905570
Mn11	Mn1	0.000000	0.580350	0.750000
Mn21	Mn2	0.500000	0.080350	0.750000
Mn31	Mn3	0.000000	0.419650	0.250000
Mn41	Mn4	0.500000	0.919650	0.250000
