data_BOZFIH_clean_PM
_symmetry_space_group_name_H-M	'P1'
_cell_length_a	10.062700
_cell_length_b	23.060800
_cell_length_c	26.843200
_cell_angle_alpha	90.000000
_cell_angle_beta	95.116000
_cell_angle_gamma	90.000000
_symmetry_Int_Tables_number 1

loop_
_symmetry_equiv_pos_as_xyz
'x,y,z'

loop_
_atom_site_label
_atom_site_type_symbol
_atom_site_fract_x
_atom_site_fract_y
_atom_site_fract_z
Zn11	Zn1	0.348960	0.192710	0.271960
Zn21	Zn2	0.038150	0.244750	0.183010
Zn31	Zn3	0.356730	0.508270	0.008100
N11	N1	0.523600	0.930000	0.830700
N21	N2	0.619400	0.880500	0.772800
N31	N3	0.148400	0.964200	0.099400
N41	N4	0.060800	0.169600	0.142400
N51	N5	0.172700	0.767700	0.180900
O11	O1	0.304500	0.238700	0.207300
O21	O2	0.179100	0.296900	0.158800
O31	O3	0.394400	0.440000	0.054900
O41	O4	0.612100	0.428100	0.043500
O51	O5	0.888900	0.294300	0.157700
O61	O6	0.783400	0.215600	0.177900
O71	O7	0.173300	0.162200	0.291400
O81	O8	0.032200	0.227900	0.253000
O91	O9	0.557200	0.206000	0.278400
O101	O10	0.488500	0.148800	0.337600
O111	O11	0.044900	0.059300	0.439200
O121	O12	0.832900	0.049000	0.450700
C11	C1	0.292100	0.279700	0.175700
C21	C2	0.508300	0.416800	0.063000
C31	C3	0.781300	0.266700	0.161800
C41	C4	0.411300	0.303500	0.155100
C51	C5	0.403600	0.346800	0.121100
H11	H1	0.321500	0.363800	0.111400
C61	C6	0.518200	0.366200	0.100300
C71	C7	0.643600	0.343400	0.112600
H21	H2	0.718700	0.357300	0.098700
C81	C8	0.651100	0.297600	0.147700
C91	C9	0.536700	0.278600	0.168500
H31	H3	0.543700	0.248800	0.191900
C101	C10	0.059300	0.185700	0.282900
C111	C11	0.579000	0.171900	0.315900
C121	C12	0.925800	0.066200	0.428700
C131	C13	0.954200	0.163900	0.315500
C141	C14	0.821800	0.178700	0.301300
H41	H4	0.799200	0.202300	0.273700
C151	C15	0.723900	0.156500	0.330400
C161	C16	0.757500	0.123900	0.371800
H51	H5	0.691500	0.113300	0.392200
C171	C17	0.886500	0.106300	0.384200
C181	C18	0.991300	0.126000	0.356700
H61	H6	0.079400	0.114900	0.364900
C191	C19	0.534200	0.878600	0.807900
H71	H7	0.487400	0.845600	0.815700
C201	C20	0.664700	0.935400	0.772800
H81	H8	0.725400	0.949700	0.751700
C211	C21	0.606200	0.967600	0.809500
H91	H9	0.620800	0.006500	0.817600
C221	C22	0.443200	0.938000	0.872500
C231	C23	0.355900	0.894500	0.883600
H101	H10	0.340000	0.861700	0.863900
C241	C24	0.292100	0.905200	0.928400
H111	H11	0.234100	0.877100	0.938700
C251	C25	0.311300	0.954200	0.957000
C261	C26	0.395000	0.997000	0.942600
H121	H12	0.405900	0.030600	0.961800
C271	C27	0.464900	0.991300	0.899400
H131	H13	0.521000	0.020100	0.889100
C281	C28	0.160200	0.012500	0.072500
C291	C29	0.202600	0.012400	0.023100
H141	H14	0.203200	0.045800	0.003800
C301	C30	0.243500	0.957900	0.005500
C311	C31	0.233200	0.905800	0.033200
H151	H15	0.255000	0.870100	0.020100
C321	C32	0.187000	0.910800	0.083000
C331	C33	0.134000	0.169600	0.104200
H161	H16	0.167400	0.204500	0.093300
C341	C34	0.163900	0.116800	0.079000
H171	H17	0.213400	0.118000	0.051400
C351	C35	0.121300	0.066800	0.094800
C361	C36	0.051400	0.065600	0.134400
H181	H18	0.019500	0.030600	0.145900
C371	C37	0.025800	0.118400	0.159100
H191	H19	0.982500	0.116900	0.188200
C381	C38	0.151700	0.823500	0.194900
H201	H20	0.131600	0.830400	0.227500
C391	C39	0.158800	0.871300	0.162700
H211	H21	0.149100	0.908900	0.174400
C401	C40	0.179800	0.861400	0.114600
C411	C41	0.201600	0.807200	0.098600
H221	H22	0.220100	0.800000	0.065900
C421	C42	0.195300	0.762400	0.133200
H231	H23	0.208200	0.724900	0.121600
Zn41	Zn4	0.151040	0.692710	0.228040
Zn51	Zn5	0.461850	0.744750	0.316990
Zn61	Zn6	0.143270	0.008270	0.491900
N61	N6	0.976400	0.430000	0.669300
N71	N7	0.880600	0.380500	0.727200
N81	N8	0.351600	0.464200	0.400600
N91	N9	0.439200	0.669600	0.357600
N101	N10	0.327300	0.267700	0.319100
O131	O13	0.195500	0.738700	0.292700
O141	O14	0.320900	0.796900	0.341200
O151	O15	0.105600	0.940000	0.445100
O161	O16	0.887900	0.928100	0.456500
O171	O17	0.611100	0.794300	0.342300
O181	O18	0.716600	0.715600	0.322100
O191	O19	0.326700	0.662200	0.208600
O201	O20	0.467800	0.727900	0.247000
O211	O21	0.942800	0.706000	0.221600
O221	O22	0.011500	0.648800	0.162400
O231	O23	0.455100	0.559300	0.060800
O241	O24	0.667100	0.549000	0.049300
C431	C43	0.207900	0.779700	0.324300
C441	C44	0.991700	0.916800	0.437000
C451	C45	0.718700	0.766700	0.338200
C461	C46	0.088700	0.803500	0.344900
C471	C47	0.096400	0.846800	0.378900
H241	H24	0.178500	0.863800	0.388600
C481	C48	0.981800	0.866200	0.399700
C491	C49	0.856400	0.843400	0.387400
H251	H25	0.781300	0.857300	0.401300
C501	C50	0.848900	0.797600	0.352300
C511	C51	0.963300	0.778600	0.331500
H261	H26	0.956300	0.748800	0.308100
C521	C52	0.440700	0.685700	0.217100
C531	C53	0.921000	0.671900	0.184100
C541	C54	0.574200	0.566200	0.071300
C551	C55	0.545800	0.663900	0.184500
C561	C56	0.678200	0.678700	0.198700
H271	H27	0.700800	0.702300	0.226300
C571	C57	0.776100	0.656500	0.169600
C581	C58	0.742500	0.623900	0.128200
H281	H28	0.808500	0.613300	0.107800
C591	C59	0.613500	0.606300	0.115800
C601	C60	0.508700	0.626000	0.143300
H291	H29	0.420600	0.614900	0.135100
C611	C61	0.965800	0.378600	0.692100
H301	H30	0.012600	0.345600	0.684300
C621	C62	0.835300	0.435400	0.727200
H311	H31	0.774600	0.449700	0.748300
C631	C63	0.893800	0.467600	0.690500
H321	H32	0.879200	0.506500	0.682400
C641	C64	0.056800	0.438000	0.627500
C651	C65	0.144100	0.394500	0.616400
H331	H33	0.160000	0.361700	0.636100
C661	C66	0.207900	0.405200	0.571600
H341	H34	0.265900	0.377100	0.561300
C671	C67	0.188700	0.454200	0.543000
C681	C68	0.105000	0.497000	0.557400
H351	H35	0.094100	0.530600	0.538200
C691	C69	0.035100	0.491300	0.600600
H361	H36	0.979000	0.520100	0.610900
C701	C70	0.339800	0.512500	0.427500
C711	C71	0.297400	0.512400	0.476900
H371	H37	0.296800	0.545800	0.496200
C721	C72	0.256500	0.457900	0.494500
C731	C73	0.266800	0.405800	0.466800
H381	H38	0.245000	0.370100	0.479900
C741	C74	0.313000	0.410800	0.417000
C751	C75	0.366000	0.669600	0.395800
H391	H39	0.332600	0.704500	0.406700
C761	C76	0.336100	0.616800	0.421000
H401	H40	0.286600	0.618000	0.448600
C771	C77	0.378700	0.566800	0.405200
C781	C78	0.448600	0.565600	0.365600
H411	H41	0.480500	0.530600	0.354100
C791	C79	0.474200	0.618400	0.340900
H421	H42	0.517500	0.616900	0.311800
C801	C80	0.348300	0.323500	0.305100
H431	H43	0.368400	0.330400	0.272500
C811	C81	0.341200	0.371300	0.337300
H441	H44	0.350900	0.408900	0.325600
C821	C82	0.320200	0.361400	0.385400
C831	C83	0.298400	0.307200	0.401400
H451	H45	0.279900	0.300000	0.434100
C841	C84	0.304700	0.262400	0.366800
H461	H46	0.291800	0.224900	0.378400
Zn71	Zn7	0.651040	0.807290	0.728040
Zn81	Zn8	0.961850	0.755250	0.816990
Zn91	Zn9	0.643270	0.491730	0.991900
N111	N11	0.476400	0.070000	0.169300
N121	N12	0.380600	0.119500	0.227200
N131	N13	0.851600	0.035800	0.900600
N141	N14	0.939200	0.830400	0.857600
N151	N15	0.827300	0.232300	0.819100
O251	O25	0.695500	0.761300	0.792700
O261	O26	0.820900	0.703100	0.841200
O271	O27	0.605600	0.560000	0.945100
O281	O28	0.387900	0.571900	0.956500
O291	O29	0.111100	0.705700	0.842300
O301	O30	0.216600	0.784400	0.822100
O311	O31	0.826700	0.837800	0.708600
O321	O32	0.967800	0.772100	0.747000
O331	O33	0.442800	0.794000	0.721600
O341	O34	0.511500	0.851200	0.662400
O351	O35	0.955100	0.940700	0.560800
O361	O36	0.167100	0.951000	0.549300
C851	C85	0.707900	0.720300	0.824300
C861	C86	0.491700	0.583200	0.937000
C871	C87	0.218700	0.733300	0.838200
C881	C88	0.588700	0.696500	0.844900
C891	C89	0.596400	0.653200	0.878900
H471	H47	0.678500	0.636200	0.888600
C901	C90	0.481800	0.633800	0.899700
C911	C91	0.356400	0.656600	0.887400
H481	H48	0.281300	0.642700	0.901300
C921	C92	0.348900	0.702400	0.852300
C931	C93	0.463300	0.721400	0.831500
H491	H49	0.456300	0.751200	0.808100
C941	C94	0.940700	0.814300	0.717100
C951	C95	0.421000	0.828100	0.684100
C961	C96	0.074200	0.933800	0.571300
C971	C97	0.045800	0.836100	0.684500
C981	C98	0.178200	0.821300	0.698700
H501	H50	0.200800	0.797700	0.726300
C991	C99	0.276100	0.843500	0.669600
C1001	C100	0.242500	0.876100	0.628200
H511	H51	0.308500	0.886700	0.607800
C1011	C101	0.113500	0.893700	0.615800
C1021	C102	0.008700	0.874000	0.643300
H521	H52	0.920600	0.885100	0.635100
C1031	C103	0.465800	0.121400	0.192100
H531	H53	0.512600	0.154400	0.184300
C1041	C104	0.335300	0.064600	0.227200
H541	H54	0.274600	0.050300	0.248300
C1051	C105	0.393800	0.032400	0.190500
H551	H55	0.379200	0.993500	0.182400
C1061	C106	0.556800	0.062000	0.127500
C1071	C107	0.644100	0.105500	0.116400
H561	H56	0.660000	0.138300	0.136100
C1081	C108	0.707900	0.094800	0.071600
H571	H57	0.765900	0.122900	0.061300
C1091	C109	0.688700	0.045800	0.043000
C1101	C110	0.605000	0.003000	0.057400
H581	H58	0.594100	0.969400	0.038200
C1111	C111	0.535100	0.008700	0.100600
H591	H59	0.479000	0.979900	0.110900
C1121	C112	0.839800	0.987500	0.927500
C1131	C113	0.797400	0.987600	0.976900
H601	H60	0.796800	0.954200	0.996200
C1141	C114	0.756500	0.042100	0.994500
C1151	C115	0.766800	0.094200	0.966800
H611	H61	0.745000	0.129900	0.979900
C1161	C116	0.813000	0.089200	0.917000
C1171	C117	0.866000	0.830400	0.895800
H621	H62	0.832600	0.795500	0.906700
C1181	C118	0.836100	0.883200	0.921000
H631	H63	0.786600	0.882000	0.948600
C1191	C119	0.878700	0.933200	0.905200
C1201	C120	0.948600	0.934400	0.865600
H641	H64	0.980500	0.969400	0.854100
C1211	C121	0.974200	0.881600	0.840900
H651	H65	0.017500	0.883100	0.811800
C1221	C122	0.848300	0.176500	0.805100
H661	H66	0.868400	0.169600	0.772500
C1231	C123	0.841200	0.128700	0.837300
H671	H67	0.850900	0.091100	0.825600
C1241	C124	0.820200	0.138600	0.885400
C1251	C125	0.798400	0.192800	0.901400
H681	H68	0.779900	0.200000	0.934100
C1261	C126	0.804700	0.237600	0.866800
H691	H69	0.791800	0.275100	0.878400
Zn101	Zn10	0.848960	0.307290	0.771960
Zn111	Zn11	0.538150	0.255250	0.683010
Zn121	Zn12	0.856730	0.991730	0.508100
N161	N16	0.023600	0.570000	0.330700
N171	N17	0.119400	0.619500	0.272800
N181	N18	0.648400	0.535800	0.599400
N191	N19	0.560800	0.330400	0.642400
N201	N20	0.672700	0.732300	0.680900
O371	O37	0.804500	0.261300	0.707300
O381	O38	0.679100	0.203100	0.658800
O391	O39	0.894400	0.060000	0.554900
O401	O40	0.112100	0.071900	0.543500
O411	O41	0.388900	0.205700	0.657700
O421	O42	0.283400	0.284400	0.677900
O431	O43	0.673300	0.337800	0.791400
O441	O44	0.532200	0.272100	0.753000
O451	O45	0.057200	0.294000	0.778400
O461	O46	0.988500	0.351200	0.837600
O471	O47	0.544900	0.440700	0.939200
O481	O48	0.332900	0.451000	0.950700
C1271	C127	0.792100	0.220300	0.675700
C1281	C128	0.008300	0.083200	0.563000
C1291	C129	0.281300	0.233300	0.661800
C1301	C130	0.911300	0.196500	0.655100
C1311	C131	0.903600	0.153200	0.621100
H701	H70	0.821500	0.136200	0.611400
C1321	C132	0.018200	0.133800	0.600300
C1331	C133	0.143600	0.156600	0.612600
H711	H71	0.218700	0.142700	0.598700
C1341	C134	0.151100	0.202400	0.647700
C1351	C135	0.036700	0.221400	0.668500
H721	H72	0.043700	0.251200	0.691900
C1361	C136	0.559300	0.314300	0.782900
C1371	C137	0.079000	0.328100	0.815900
C1381	C138	0.425800	0.433800	0.928700
C1391	C139	0.454200	0.336100	0.815500
C1401	C140	0.321800	0.321300	0.801300
H731	H73	0.299200	0.297700	0.773700
C1411	C141	0.223900	0.343500	0.830400
C1421	C142	0.257500	0.376100	0.871800
H741	H74	0.191500	0.386700	0.892200
C1431	C143	0.386500	0.393700	0.884200
C1441	C144	0.491300	0.374000	0.856700
H751	H75	0.579400	0.385100	0.864900
C1451	C145	0.034200	0.621400	0.307900
H761	H76	0.987400	0.654400	0.315700
C1461	C146	0.164700	0.564600	0.272800
H771	H77	0.225400	0.550300	0.251700
C1471	C147	0.106200	0.532400	0.309500
H781	H78	0.120800	0.493500	0.317600
C1481	C148	0.943200	0.562000	0.372500
C1491	C149	0.855900	0.605500	0.383600
H791	H79	0.840000	0.638300	0.363900
C1501	C150	0.792100	0.594800	0.428400
H801	H80	0.734100	0.622900	0.438700
C1511	C151	0.811300	0.545800	0.457000
C1521	C152	0.895000	0.503000	0.442600
H811	H81	0.905900	0.469400	0.461800
C1531	C153	0.964900	0.508700	0.399400
H821	H82	0.021000	0.479900	0.389100
C1541	C154	0.660200	0.487500	0.572500
C1551	C155	0.702600	0.487600	0.523100
H831	H83	0.703200	0.454200	0.503800
C1561	C156	0.743500	0.542100	0.505500
C1571	C157	0.733200	0.594200	0.533200
H841	H84	0.755000	0.629900	0.520100
C1581	C158	0.687000	0.589200	0.583000
C1591	C159	0.634000	0.330400	0.604200
H851	H85	0.667400	0.295500	0.593300
C1601	C160	0.663900	0.383200	0.579000
H861	H86	0.713400	0.382000	0.551400
C1611	C161	0.621300	0.433200	0.594800
C1621	C162	0.551400	0.434400	0.634400
H871	H87	0.519500	0.469400	0.645900
C1631	C163	0.525800	0.381600	0.659100
H881	H88	0.482500	0.383100	0.688200
C1641	C164	0.651700	0.676500	0.694900
H891	H89	0.631600	0.669600	0.727500
C1651	C165	0.658800	0.628700	0.662700
H901	H90	0.649100	0.591100	0.674400
C1661	C166	0.679800	0.638600	0.614600
C1671	C167	0.701600	0.692800	0.598600
H911	H91	0.720100	0.700000	0.565900
C1681	C168	0.695300	0.737600	0.633200
H921	H92	0.708200	0.775100	0.621600
