data_BUBQOE_clean_PM
_symmetry_space_group_name_H-M	'P1'
_cell_length_a	13.758000
_cell_length_b	8.180000
_cell_length_c	18.037000
_cell_angle_alpha	90.000000
_cell_angle_beta	106.647000
_cell_angle_gamma	90.000000
_symmetry_Int_Tables_number 1

loop_
_symmetry_equiv_pos_as_xyz
'x,y,z'

loop_
_atom_site_label
_atom_site_type_symbol
_atom_site_fract_x
_atom_site_fract_y
_atom_site_fract_z
U11	U1	0.767460	0.076030	0.459940
U21	U2	0.911950	0.786050	0.734670
P11	P1	0.004900	0.055000	0.609600
H11	H1	0.027200	0.121100	0.656700
P21	P2	0.769300	0.155300	0.657800
H21	H2	0.838100	0.200100	0.675800
O11	O1	0.926100	0.157300	0.550300
O21	O2	0.954600	0.903300	0.630400
O31	O3	0.097500	0.017800	0.585300
O41	O4	0.732800	0.177000	0.570100
O51	O5	0.698500	0.988100	0.327100
O61	O6	0.775500	0.975200	0.679600
O71	O7	0.703800	0.253000	0.694600
O81	O8	0.484400	0.892600	0.345500
O91	O9	0.576500	0.808800	0.230100
O101	O10	0.585200	0.122100	0.426600
P31	P3	0.498300	0.073900	0.358100
H31	H3	0.509600	0.122400	0.311600
P41	P4	0.678400	0.825500	0.289000
H41	H4	0.679500	0.746100	0.330000
O111	O11	0.404000	0.156300	0.372600
H51	H5	0.398400	0.126700	0.414600
O121	O12	0.767900	0.783000	0.257800
H61	H6	0.790500	0.866500	0.244100
U31	U3	0.732540	0.576030	0.040060
U41	U4	0.588050	0.286050	0.765330
P51	P5	0.495100	0.555000	0.890400
H71	H7	0.472800	0.621100	0.843300
P61	P6	0.730700	0.655300	0.842200
H81	H8	0.661900	0.700100	0.824200
O131	O13	0.573900	0.657300	0.949700
O141	O14	0.545400	0.403300	0.869600
O151	O15	0.402500	0.517800	0.914700
O161	O16	0.767200	0.677000	0.929900
O171	O17	0.801500	0.488100	0.172900
O181	O18	0.724500	0.475200	0.820400
O191	O19	0.796200	0.753000	0.805400
O201	O20	0.015600	0.392600	0.154500
O211	O21	0.923500	0.308800	0.269900
O221	O22	0.914800	0.622100	0.073400
P71	P7	0.001700	0.573900	0.141900
H91	H9	0.990400	0.622400	0.188400
P81	P8	0.821600	0.325500	0.211000
H101	H10	0.820500	0.246100	0.170000
O231	O23	0.096000	0.656300	0.127400
H111	H11	0.101600	0.626700	0.085400
O241	O24	0.732100	0.283000	0.242200
H121	H12	0.709500	0.366500	0.255900
U51	U5	0.232540	0.923970	0.540060
U61	U6	0.088050	0.213950	0.265330
P91	P9	0.995100	0.945000	0.390400
H131	H13	0.972800	0.878900	0.343300
P101	P10	0.230700	0.844700	0.342200
H141	H14	0.161900	0.799900	0.324200
O251	O25	0.073900	0.842700	0.449700
O261	O26	0.045400	0.096700	0.369600
O271	O27	0.902500	0.982200	0.414700
O281	O28	0.267200	0.823000	0.429900
O291	O29	0.301500	0.011900	0.672900
O301	O30	0.224500	0.024800	0.320400
O311	O31	0.296200	0.747000	0.305400
O321	O32	0.515600	0.107400	0.654500
O331	O33	0.423500	0.191200	0.769900
O341	O34	0.414800	0.877900	0.573400
P111	P11	0.501700	0.926100	0.641900
H151	H15	0.490400	0.877600	0.688400
P121	P12	0.321600	0.174500	0.711000
H161	H16	0.320500	0.253900	0.670000
O351	O35	0.596000	0.843700	0.627400
H171	H17	0.601600	0.873300	0.585400
O361	O36	0.232100	0.217000	0.742200
H181	H18	0.209500	0.133500	0.755900
U71	U7	0.267460	0.423970	0.959940
U81	U8	0.411950	0.713950	0.234670
P131	P13	0.504900	0.445000	0.109600
H191	H19	0.527200	0.378900	0.156700
P141	P14	0.269300	0.344700	0.157800
H201	H20	0.338100	0.299900	0.175800
O371	O37	0.426100	0.342700	0.050300
O381	O38	0.454600	0.596700	0.130400
O391	O39	0.597500	0.482200	0.085300
O401	O40	0.232800	0.323000	0.070100
O411	O41	0.198500	0.511900	0.827100
O421	O42	0.275500	0.524800	0.179600
O431	O43	0.203800	0.247000	0.194600
O441	O44	0.984400	0.607400	0.845500
O451	O45	0.076500	0.691200	0.730100
O461	O46	0.085200	0.377900	0.926600
P151	P15	0.998300	0.426100	0.858100
H211	H21	0.009600	0.377600	0.811600
P161	P16	0.178400	0.674500	0.789000
H221	H22	0.179500	0.753900	0.830000
O471	O47	0.904000	0.343700	0.872600
H231	H23	0.898400	0.373300	0.914600
O481	O48	0.267900	0.717000	0.757800
H241	H24	0.290500	0.633500	0.744100
