data_BUKRUW02_clean_PM
_symmetry_space_group_name_H-M	'P1'
_cell_length_a	20.161600
_cell_length_b	20.161600
_cell_length_c	20.161600
_cell_angle_alpha	90.000000
_cell_angle_beta	90.000000
_cell_angle_gamma	90.000000
_symmetry_Int_Tables_number 1

loop_
_symmetry_equiv_pos_as_xyz
'x,y,z'

loop_
_atom_site_label
_atom_site_type_symbol
_atom_site_fract_x
_atom_site_fract_y
_atom_site_fract_z
Zn11	Zn1	0.304160	0.808870	0.197460
Zn21	Zn2	0.302810	0.803820	0.807990
C11	C1	0.209800	0.707200	0.964800
H11	H1	0.184100	0.671200	0.981000
C21	C2	0.240300	0.752900	0.002900
C31	C3	0.236100	0.763500	0.074900
C41	C4	0.292300	0.777700	0.967400
H21	H2	0.333900	0.794000	0.982300
C51	C5	0.228900	0.947000	0.709100
H31	H3	0.213300	0.950500	0.664800
C61	C6	0.248000	0.002100	0.736400
C71	C7	0.220800	0.075800	0.731300
N11	N1	0.266700	0.772500	0.901600
N21	N2	0.221700	0.720700	0.897800
N31	N3	0.228200	0.898400	0.729800
N41	N4	0.278400	0.893800	0.780000
O11	O1	0.275500	0.789700	0.107100
O21	O2	0.204200	0.726500	0.107400
O31	O3	0.208200	0.103700	0.701900
O41	O4	0.218700	0.113200	0.790500
Zn31	Zn3	0.195840	0.191130	0.697460
Zn41	Zn4	0.197190	0.196180	0.307990
C81	C8	0.290200	0.292800	0.464800
H41	H4	0.315900	0.328800	0.481000
C91	C9	0.259700	0.247100	0.502900
C101	C10	0.263900	0.236500	0.574900
C111	C11	0.207700	0.222300	0.467400
H51	H5	0.166100	0.206000	0.482300
C121	C12	0.271100	0.053000	0.209100
H61	H6	0.286700	0.049500	0.164800
C131	C13	0.252000	0.997900	0.236400
C141	C14	0.279200	0.924200	0.231300
N51	N5	0.233300	0.227500	0.401600
N61	N6	0.278300	0.279300	0.397800
N71	N7	0.271800	0.101600	0.229800
N81	N8	0.221600	0.106200	0.280000
O51	O5	0.224500	0.210300	0.607100
O61	O6	0.295800	0.273500	0.607400
O71	O7	0.291800	0.896300	0.201900
O81	O8	0.281300	0.886800	0.290500
Zn51	Zn5	0.695840	0.308870	0.302540
Zn61	Zn6	0.697190	0.303820	0.692010
C151	C15	0.790200	0.207200	0.535200
H71	H7	0.815900	0.171200	0.519000
C161	C16	0.759700	0.252900	0.497100
C171	C17	0.763900	0.263500	0.425100
C181	C18	0.707700	0.277700	0.532600
H81	H8	0.666100	0.294000	0.517700
C191	C19	0.771100	0.447000	0.790900
H91	H9	0.786700	0.450500	0.835200
C201	C20	0.752000	0.502100	0.763600
C211	C21	0.779200	0.575800	0.768700
N91	N9	0.733300	0.272500	0.598400
N101	N10	0.778300	0.220700	0.602200
N111	N11	0.771800	0.398400	0.770200
N121	N12	0.721600	0.393800	0.720000
O91	O9	0.724500	0.289700	0.392900
O101	O10	0.795800	0.226500	0.392600
O111	O11	0.791800	0.603700	0.798100
O121	O12	0.781300	0.613200	0.709500
Zn71	Zn7	0.804160	0.691130	0.802540
Zn81	Zn8	0.802810	0.696180	0.192010
C221	C22	0.709800	0.792800	0.035200
H101	H10	0.684100	0.828800	0.019000
C231	C23	0.740300	0.747100	0.997100
C241	C24	0.736100	0.736500	0.925100
C251	C25	0.792300	0.722300	0.032600
H111	H11	0.833900	0.706000	0.017700
C261	C26	0.728900	0.553000	0.290900
H121	H12	0.713300	0.549500	0.335200
C271	C27	0.748000	0.497900	0.263600
C281	C28	0.720800	0.424200	0.268700
N131	N13	0.766700	0.727500	0.098400
N141	N14	0.721700	0.779300	0.102200
N151	N15	0.728200	0.601600	0.270200
N161	N16	0.778400	0.606200	0.220000
O131	O13	0.775500	0.710300	0.892900
O141	O14	0.704200	0.773500	0.892600
O151	O15	0.708200	0.396300	0.298100
O161	O16	0.718700	0.386800	0.209500
Zn91	Zn9	0.197460	0.304160	0.808870
Zn101	Zn10	0.807990	0.302810	0.803820
C291	C29	0.964800	0.209800	0.707200
H131	H13	0.981000	0.184100	0.671200
C301	C30	0.002900	0.240300	0.752900
C311	C31	0.074900	0.236100	0.763500
C321	C32	0.967400	0.292300	0.777700
H141	H14	0.982300	0.333900	0.794000
C331	C33	0.709100	0.228900	0.947000
H151	H15	0.664800	0.213300	0.950500
C341	C34	0.736400	0.248000	0.002100
C351	C35	0.731300	0.220800	0.075800
N171	N17	0.901600	0.266700	0.772500
N181	N18	0.897800	0.221700	0.720700
N191	N19	0.729800	0.228200	0.898400
N201	N20	0.780000	0.278400	0.893800
O171	O17	0.107100	0.275500	0.789700
O181	O18	0.107400	0.204200	0.726500
O191	O19	0.701900	0.208200	0.103700
O201	O20	0.790500	0.218700	0.113200
Zn111	Zn11	0.697460	0.195840	0.191130
Zn121	Zn12	0.307990	0.197190	0.196180
C361	C36	0.464800	0.290200	0.292800
H161	H16	0.481000	0.315900	0.328800
C371	C37	0.502900	0.259700	0.247100
C381	C38	0.574900	0.263900	0.236500
C391	C39	0.467400	0.207700	0.222300
H171	H17	0.482300	0.166100	0.206000
C401	C40	0.209100	0.271100	0.053000
H181	H18	0.164800	0.286700	0.049500
C411	C41	0.236400	0.252000	0.997900
C421	C42	0.231300	0.279200	0.924200
N211	N21	0.401600	0.233300	0.227500
N221	N22	0.397800	0.278300	0.279300
N231	N23	0.229800	0.271800	0.101600
N241	N24	0.280000	0.221600	0.106200
O211	O21	0.607100	0.224500	0.210300
O221	O22	0.607400	0.295800	0.273500
O231	O23	0.201900	0.291800	0.896300
O241	O24	0.290500	0.281300	0.886800
Zn131	Zn13	0.302540	0.695840	0.308870
Zn141	Zn14	0.692010	0.697190	0.303820
C431	C43	0.535200	0.790200	0.207200
H191	H19	0.519000	0.815900	0.171200
C441	C44	0.497100	0.759700	0.252900
C451	C45	0.425100	0.763900	0.263500
C461	C46	0.532600	0.707700	0.277700
H201	H20	0.517700	0.666100	0.294000
C471	C47	0.790900	0.771100	0.447000
H211	H21	0.835200	0.786700	0.450500
C481	C48	0.763600	0.752000	0.502100
C491	C49	0.768700	0.779200	0.575800
N251	N25	0.598400	0.733300	0.272500
N261	N26	0.602200	0.778300	0.220700
N271	N27	0.770200	0.771800	0.398400
N281	N28	0.720000	0.721600	0.393800
O251	O25	0.392900	0.724500	0.289700
O261	O26	0.392600	0.795800	0.226500
O271	O27	0.798100	0.791800	0.603700
O281	O28	0.709500	0.781300	0.613200
Zn151	Zn15	0.802540	0.804160	0.691130
Zn161	Zn16	0.192010	0.802810	0.696180
C501	C50	0.035200	0.709800	0.792800
H221	H22	0.019000	0.684100	0.828800
C511	C51	0.997100	0.740300	0.747100
C521	C52	0.925100	0.736100	0.736500
C531	C53	0.032600	0.792300	0.722300
H231	H23	0.017700	0.833900	0.706000
C541	C54	0.290900	0.728900	0.553000
H241	H24	0.335200	0.713300	0.549500
C551	C55	0.263600	0.748000	0.497900
C561	C56	0.268700	0.720800	0.424200
N291	N29	0.098400	0.766700	0.727500
N301	N30	0.102200	0.721700	0.779300
N311	N31	0.270200	0.728200	0.601600
N321	N32	0.220000	0.778400	0.606200
O291	O29	0.892900	0.775500	0.710300
O301	O30	0.892600	0.704200	0.773500
O311	O31	0.298100	0.708200	0.396300
O321	O32	0.209500	0.718700	0.386800
Zn171	Zn17	0.808870	0.197460	0.304160
Zn181	Zn18	0.803820	0.807990	0.302810
C571	C57	0.707200	0.964800	0.209800
H251	H25	0.671200	0.981000	0.184100
C581	C58	0.752900	0.002900	0.240300
C591	C59	0.763500	0.074900	0.236100
C601	C60	0.777700	0.967400	0.292300
H261	H26	0.794000	0.982300	0.333900
C611	C61	0.947000	0.709100	0.228900
H271	H27	0.950500	0.664800	0.213300
C621	C62	0.002100	0.736400	0.248000
C631	C63	0.075800	0.731300	0.220800
N331	N33	0.772500	0.901600	0.266700
N341	N34	0.720700	0.897800	0.221700
N351	N35	0.898400	0.729800	0.228200
N361	N36	0.893800	0.780000	0.278400
O331	O33	0.789700	0.107100	0.275500
O341	O34	0.726500	0.107400	0.204200
O351	O35	0.103700	0.701900	0.208200
O361	O36	0.113200	0.790500	0.218700
Zn191	Zn19	0.191130	0.697460	0.195840
Zn201	Zn20	0.196180	0.307990	0.197190
C641	C64	0.292800	0.464800	0.290200
H281	H28	0.328800	0.481000	0.315900
C651	C65	0.247100	0.502900	0.259700
C661	C66	0.236500	0.574900	0.263900
C671	C67	0.222300	0.467400	0.207700
H291	H29	0.206000	0.482300	0.166100
C681	C68	0.053000	0.209100	0.271100
H301	H30	0.049500	0.164800	0.286700
C691	C69	0.997900	0.236400	0.252000
C701	C70	0.924200	0.231300	0.279200
N371	N37	0.227500	0.401600	0.233300
N381	N38	0.279300	0.397800	0.278300
N391	N39	0.101600	0.229800	0.271800
N401	N40	0.106200	0.280000	0.221600
O371	O37	0.210300	0.607100	0.224500
O381	O38	0.273500	0.607400	0.295800
O391	O39	0.896300	0.201900	0.291800
O401	O40	0.886800	0.290500	0.281300
Zn211	Zn21	0.308870	0.302540	0.695840
Zn221	Zn22	0.303820	0.692010	0.697190
C711	C71	0.207200	0.535200	0.790200
H311	H31	0.171200	0.519000	0.815900
C721	C72	0.252900	0.497100	0.759700
C731	C73	0.263500	0.425100	0.763900
C741	C74	0.277700	0.532600	0.707700
H321	H32	0.294000	0.517700	0.666100
C751	C75	0.447000	0.790900	0.771100
H331	H33	0.450500	0.835200	0.786700
C761	C76	0.502100	0.763600	0.752000
C771	C77	0.575800	0.768700	0.779200
N411	N41	0.272500	0.598400	0.733300
N421	N42	0.220700	0.602200	0.778300
N431	N43	0.398400	0.770200	0.771800
N441	N44	0.393800	0.720000	0.721600
O411	O41	0.289700	0.392900	0.724500
O421	O42	0.226500	0.392600	0.795800
O431	O43	0.603700	0.798100	0.791800
O441	O44	0.613200	0.709500	0.781300
Zn231	Zn23	0.691130	0.802540	0.804160
Zn241	Zn24	0.696180	0.192010	0.802810
C781	C78	0.792800	0.035200	0.709800
H341	H34	0.828800	0.019000	0.684100
C791	C79	0.747100	0.997100	0.740300
C801	C80	0.736500	0.925100	0.736100
C811	C81	0.722300	0.032600	0.792300
H351	H35	0.706000	0.017700	0.833900
C821	C82	0.553000	0.290900	0.728900
H361	H36	0.549500	0.335200	0.713300
C831	C83	0.497900	0.263600	0.748000
C841	C84	0.424200	0.268700	0.720800
N451	N45	0.727500	0.098400	0.766700
N461	N46	0.779300	0.102200	0.721700
N471	N47	0.601600	0.270200	0.728200
N481	N48	0.606200	0.220000	0.778400
O451	O45	0.710300	0.892900	0.775500
O461	O46	0.773500	0.892600	0.704200
O471	O47	0.396300	0.298100	0.708200
O481	O48	0.386800	0.209500	0.718700
Zn251	Zn25	0.189750	0.689750	0.810250
O491	O49	0.247000	0.747000	0.753000
Zn261	Zn26	0.310250	0.310250	0.310250
O501	O50	0.253000	0.253000	0.253000
Zn271	Zn27	0.810250	0.189750	0.689750
O511	O51	0.753000	0.247000	0.747000
Zn281	Zn28	0.689750	0.810250	0.189750
O521	O52	0.747000	0.753000	0.247000
O531	O53	0.245000	0.755000	0.255000
O541	O54	0.255000	0.245000	0.755000
O551	O55	0.755000	0.255000	0.245000
O561	O56	0.745000	0.745000	0.745000
