data_BUKYAJ_clean_PM
_symmetry_space_group_name_H-M	'P1'
_cell_length_a	7.155500
_cell_length_b	12.423800
_cell_length_c	11.757500
_cell_angle_alpha	90.000000
_cell_angle_beta	91.782000
_cell_angle_gamma	90.000000
_symmetry_Int_Tables_number 1

loop_
_symmetry_equiv_pos_as_xyz
'x,y,z'

loop_
_atom_site_label
_atom_site_type_symbol
_atom_site_fract_x
_atom_site_fract_y
_atom_site_fract_z
O11	O1	0.531300	0.079550	0.578760
C11	C1	0.542100	0.157260	0.652260
N11	N1	0.567500	0.326770	0.814970
C21	C2	0.450800	0.153550	0.756440
H11	H1	0.379000	0.093800	0.774200
C31	C3	0.644800	0.251540	0.634230
H21	H2	0.707000	0.260600	0.566600
C41	C4	0.653800	0.330040	0.715410
H31	H3	0.725400	0.390600	0.700500
C51	C5	0.467100	0.237410	0.831850
H41	H4	0.404000	0.231900	0.899600
Li11	Li1	0.603000	0.052500	0.427200
O21	O2	0.873300	0.011560	0.406590
C61	C6	0.016500	0.088980	0.430400
H51	H5	0.974000	0.159500	0.405600
H61	H6	0.126700	0.070800	0.388500
C71	C7	0.934500	0.907880	0.445400
H71	H7	0.043000	0.885800	0.403700
H81	H8	0.836100	0.855500	0.431000
O31	O3	0.468700	0.579550	0.921240
C81	C8	0.457900	0.657260	0.847740
N21	N2	0.432500	0.826770	0.685030
C91	C9	0.549200	0.653550	0.743560
H91	H9	0.621000	0.593800	0.725800
C101	C10	0.355200	0.751540	0.865770
H101	H10	0.293000	0.760600	0.933400
C111	C11	0.346200	0.830040	0.784590
H111	H11	0.274600	0.890600	0.799500
C121	C12	0.532900	0.737410	0.668150
H121	H12	0.596000	0.731900	0.600400
Li21	Li2	0.397000	0.552500	0.072800
O41	O4	0.126700	0.511560	0.093410
C131	C13	0.983500	0.588980	0.069600
H131	H13	0.026000	0.659500	0.094400
H141	H14	0.873300	0.570800	0.111500
C141	C14	0.065500	0.407880	0.054600
H151	H15	0.957000	0.385800	0.096300
H161	H16	0.163900	0.355500	0.069000
O51	O5	0.468700	0.920450	0.421240
C151	C15	0.457900	0.842740	0.347740
N31	N3	0.432500	0.673230	0.185030
C161	C16	0.549200	0.846450	0.243560
H171	H17	0.621000	0.906200	0.225800
C171	C17	0.355200	0.748460	0.365770
H181	H18	0.293000	0.739400	0.433400
C181	C18	0.346200	0.669960	0.284590
H191	H19	0.274600	0.609400	0.299500
C191	C19	0.532900	0.762590	0.168150
H201	H20	0.596000	0.768100	0.100400
Li31	Li3	0.397000	0.947500	0.572800
O61	O6	0.126700	0.988440	0.593410
C201	C20	0.983500	0.911020	0.569600
H211	H21	0.026000	0.840500	0.594400
H221	H22	0.873300	0.929200	0.611500
C211	C21	0.065500	0.092120	0.554600
H231	H23	0.957000	0.114200	0.596300
H241	H24	0.163900	0.144500	0.569000
O71	O7	0.531300	0.420450	0.078760
C221	C22	0.542100	0.342740	0.152260
N41	N4	0.567500	0.173230	0.314970
C231	C23	0.450800	0.346450	0.256440
H251	H25	0.379000	0.406200	0.274200
C241	C24	0.644800	0.248460	0.134230
H261	H26	0.707000	0.239400	0.066600
C251	C25	0.653800	0.169960	0.215410
H271	H27	0.725400	0.109400	0.200500
C261	C26	0.467100	0.262590	0.331850
H281	H28	0.404000	0.268100	0.399600
Li41	Li4	0.603000	0.447500	0.927200
O81	O8	0.873300	0.488440	0.906590
C271	C27	0.016500	0.411020	0.930400
H291	H29	0.974000	0.340500	0.905600
H301	H30	0.126700	0.429200	0.888500
C281	C28	0.934500	0.592120	0.945400
H311	H31	0.043000	0.614200	0.903700
H321	H32	0.836100	0.644500	0.931000
