data_BUQWER_clean_PM
_symmetry_space_group_name_H-M	'P1'
_cell_length_a	15.764000
_cell_length_b	15.764000
_cell_length_c	16.918000
_cell_angle_alpha	90.000000
_cell_angle_beta	90.000000
_cell_angle_gamma	120.000000
_symmetry_Int_Tables_number 1

loop_
_symmetry_equiv_pos_as_xyz
'x,y,z'

loop_
_atom_site_label
_atom_site_type_symbol
_atom_site_fract_x
_atom_site_fract_y
_atom_site_fract_z
Cu11	Cu1	0.167240	0.806220	0.216130
Cu21	Cu2	0.847220	0.694510	0.550100
Cu31	Cu3	0.527230	0.499640	0.211410
O11	O1	0.293800	0.101500	0.991400
O21	O2	0.457800	0.180900	0.988000
O31	O3	0.814900	0.873700	0.984200
O41	O4	0.653300	0.796700	0.990100
O51	O5	0.882100	0.678000	0.440700
O61	O6	0.800700	0.511800	0.447900
O71	O7	0.486300	0.631700	0.313700
O81	O8	0.565200	0.546700	0.319400
O91	O9	0.483800	0.454900	0.102900
O101	O10	0.402800	0.533200	0.106500
O111	O11	0.240700	0.370500	0.439600
O121	O12	0.158000	0.205200	0.441100
N11	N1	0.291000	0.927100	0.176900
N21	N2	0.309700	0.277200	0.919000
N31	N3	0.728600	0.703600	0.510400
N41	N4	0.649900	0.621600	0.173300
N51	N5	0.408300	0.376700	0.248500
N61	N6	0.043900	0.680300	0.253900
C11	C1	0.377500	0.954700	0.211800
H11	H1	0.377800	0.919600	0.257400
C21	C2	0.462600	0.027700	0.187000
H21	H2	0.522400	0.039500	0.210200
C31	C3	0.462000	0.085100	0.127700
H31	H3	0.521400	0.142000	0.113100
C41	C4	0.379400	0.063300	0.089300
C51	C5	0.291600	0.981000	0.116800
H41	H4	0.231500	0.964200	0.091200
C61	C6	0.017300	0.595900	0.214400
H51	H5	0.054900	0.596200	0.170300
C71	C7	0.935400	0.508600	0.237800
H61	H6	0.915200	0.450500	0.208000
C81	C8	0.884600	0.506600	0.302800
H71	H7	0.830800	0.446400	0.320400
C91	C9	0.910500	0.590600	0.343200
C101	C10	0.990900	0.677200	0.315200
H81	H8	0.008000	0.736800	0.341700
C111	C11	0.858500	0.591400	0.418000
C121	C12	0.674800	0.654200	0.448900
H91	H9	0.687900	0.607700	0.424500
C131	C13	0.600200	0.666600	0.418200
C141	C14	0.582400	0.734600	0.451900
H101	H10	0.531700	0.745000	0.432500
C151	C15	0.639800	0.788300	0.515300
H111	H11	0.627500	0.835000	0.540300
C161	C16	0.713500	0.775100	0.541900
H121	H12	0.755000	0.815700	0.583000
C171	C17	0.542900	0.609400	0.345400
C181	C18	0.652000	0.675800	0.112900
H131	H13	0.592600	0.656400	0.085200
C191	C19	0.736800	0.760300	0.087500
C201	C20	0.822000	0.786600	0.127700
H141	H14	0.881600	0.841900	0.111100
C211	C21	0.821200	0.732100	0.192900
H151	H15	0.879400	0.750800	0.222100
C221	C22	0.734600	0.650800	0.214200
H161	H16	0.733800	0.613800	0.258800
C231	C23	0.421200	0.471200	0.077300
C241	C24	0.362200	0.415600	0.004700
C251	C25	0.307100	0.446300	0.961600
H171	H17	0.307200	0.504700	0.975700
C261	C26	0.251700	0.390100	0.897400
H181	H18	0.213700	0.409200	0.866500
C271	C27	0.254400	0.307000	0.880900
H191	H19	0.214100	0.266900	0.839100
C281	C28	0.360700	0.330000	0.981700
H201	H20	0.397200	0.308200	0.011700
C291	C29	0.384200	0.285500	0.218000
H211	H21	0.422300	0.284600	0.174800
C301	C30	0.314300	0.200800	0.243100
H221	H22	0.303400	0.141800	0.218800
C311	C31	0.255400	0.198200	0.306700
H231	H23	0.202700	0.137500	0.324600
C321	C32	0.274100	0.280900	0.341200
C331	C33	0.352400	0.373300	0.310500
H241	H24	0.364600	0.432800	0.334700
C341	C34	0.219900	0.284500	0.413100
C351	C35	0.737700	0.816100	0.014800
C361	C36	0.378300	0.123000	0.016900
Cu41	Cu4	0.193780	0.361020	0.549460
Cu51	Cu5	0.305490	0.152710	0.883430
Cu61	Cu6	0.500360	0.027590	0.544740
O131	O13	0.898500	0.192300	0.324730
O141	O14	0.819100	0.276900	0.321330
O151	O15	0.126300	0.941200	0.317530
O161	O16	0.203300	0.856600	0.323430
O171	O17	0.322000	0.204100	0.774030
O181	O18	0.488200	0.288900	0.781230
O191	O19	0.368300	0.854600	0.647030
O201	O20	0.453300	0.018500	0.652730
O211	O21	0.545100	0.028900	0.436230
O221	O22	0.466800	0.869600	0.439830
O231	O23	0.629500	0.870200	0.772930
O241	O24	0.794800	0.952800	0.774430
N71	N7	0.072900	0.363900	0.510230
N81	N8	0.722800	0.032500	0.252330
N91	N9	0.296400	0.025000	0.843730
N101	N10	0.378400	0.028300	0.506630
N111	N11	0.623300	0.031600	0.581830
N121	N12	0.319700	0.363600	0.587230
C371	C37	0.045300	0.422800	0.545130
H251	H25	0.080400	0.458200	0.590730
C381	C38	0.972300	0.434900	0.520330
H261	H26	0.960500	0.482900	0.543530
C391	C39	0.914900	0.376900	0.461030
H271	H27	0.858000	0.379400	0.446430
C401	C40	0.936700	0.316100	0.422630
C411	C41	0.019000	0.310600	0.450130
H281	H28	0.035800	0.267300	0.424530
C421	C42	0.404100	0.421400	0.547730
H291	H29	0.403800	0.458700	0.503630
C431	C43	0.491400	0.426800	0.571130
H301	H30	0.549500	0.464700	0.541330
C441	C44	0.493400	0.378000	0.636130
H311	H31	0.553600	0.384400	0.653730
C451	C45	0.409400	0.319900	0.676530
C461	C46	0.322800	0.313700	0.648530
H321	H32	0.263200	0.271200	0.675030
C471	C47	0.408600	0.267100	0.751330
C481	C48	0.345800	0.020600	0.782230
H331	H33	0.392300	0.080200	0.757830
C491	C49	0.333400	0.933600	0.751530
C501	C50	0.265400	0.847800	0.785230
H341	H34	0.255000	0.786700	0.765830
C511	C51	0.211700	0.851500	0.848630
H351	H35	0.165000	0.792500	0.873630
C521	C52	0.224900	0.938400	0.875230
H361	H36	0.184300	0.939300	0.916330
C531	C53	0.390600	0.933500	0.678730
C541	C54	0.324200	0.976200	0.446230
H371	H37	0.343600	0.936200	0.418530
C551	C55	0.239700	0.976500	0.420830
C561	C56	0.213400	0.035400	0.461030
H381	H38	0.158100	0.039700	0.444430
C571	C57	0.267900	0.089100	0.526230
H391	H39	0.249200	0.128600	0.555430
C581	C58	0.349200	0.083800	0.547530
H401	H40	0.386200	0.120000	0.592130
C591	C59	0.528800	0.950000	0.410630
C601	C60	0.584400	0.946600	0.338030
C611	C61	0.553700	0.860800	0.294930
H411	H41	0.495300	0.802500	0.309030
C621	C62	0.609900	0.861600	0.230730
H421	H42	0.590800	0.804500	0.199830
C631	C63	0.693000	0.947400	0.214230
H431	H43	0.733100	0.947200	0.172430
C641	C64	0.670000	0.030700	0.315030
H441	H44	0.691800	0.089000	0.345030
C651	C65	0.714500	0.098700	0.551330
H451	H45	0.715400	0.137700	0.508130
C661	C66	0.799200	0.113500	0.576430
H461	H46	0.858200	0.161600	0.552130
C671	C67	0.801800	0.057200	0.640030
H471	H47	0.862500	0.065200	0.657930
C681	C68	0.719100	0.993200	0.674530
C691	C69	0.626700	0.979100	0.643830
H481	H48	0.567200	0.931800	0.668030
C701	C70	0.715500	0.935400	0.746430
C711	C71	0.183900	0.921600	0.348130
C721	C72	0.877000	0.255300	0.350230
Cu71	Cu7	0.638980	0.832760	0.882800
Cu81	Cu8	0.847290	0.152780	0.216770
Cu91	Cu9	0.972410	0.472770	0.878080
O251	O25	0.807700	0.706200	0.658070
O261	O26	0.723100	0.542200	0.654670
O271	O27	0.058800	0.185100	0.650870
O281	O28	0.143400	0.346700	0.656770
O291	O29	0.795900	0.117900	0.107370
O301	O30	0.711100	0.199300	0.114570
O311	O31	0.145400	0.513700	0.980370
O321	O32	0.981500	0.434800	0.986070
O331	O33	0.971100	0.516200	0.769570
O341	O34	0.130400	0.597200	0.773170
O351	O35	0.129800	0.759300	0.106270
O361	O36	0.047200	0.842000	0.107770
N131	N13	0.636100	0.709000	0.843570
N141	N14	0.967500	0.690300	0.585670
N151	N15	0.975000	0.271400	0.177070
N161	N16	0.971700	0.350100	0.839970
N171	N17	0.968400	0.591700	0.915170
N181	N18	0.636400	0.956100	0.920570
C731	C73	0.577200	0.622500	0.878470
H491	H49	0.541800	0.622200	0.924070
C741	C74	0.565100	0.537400	0.853670
H501	H50	0.517100	0.477600	0.876870
C751	C75	0.623100	0.538000	0.794370
H511	H51	0.620600	0.478600	0.779770
C761	C76	0.683900	0.620600	0.755970
C771	C77	0.689400	0.708400	0.783470
H521	H52	0.732700	0.768500	0.757870
C781	C78	0.578600	0.982700	0.881070
H531	H53	0.541300	0.945100	0.836970
C791	C79	0.573200	0.064600	0.904470
H541	H54	0.535300	0.084800	0.874670
C801	C80	0.622000	0.115400	0.969470
H551	H55	0.615600	0.169200	0.987070
C811	C81	0.680100	0.089500	0.009870
C821	C82	0.686300	0.009100	0.981870
H561	H56	0.728800	0.992000	0.008370
C831	C83	0.732900	0.141500	0.084670
C841	C84	0.979400	0.325200	0.115570
H571	H57	0.919800	0.312100	0.091170
C851	C85	0.066400	0.399800	0.084870
C861	C86	0.152200	0.417600	0.118570
H581	H58	0.213300	0.468300	0.099170
C871	C87	0.148500	0.360200	0.181970
H591	H59	0.207500	0.372500	0.206970
C881	C88	0.061600	0.286500	0.208570
H601	H60	0.060700	0.245000	0.249670
C891	C89	0.066500	0.457100	0.012070
C901	C90	0.023800	0.348000	0.779570
H611	H61	0.063800	0.407400	0.751870
C911	C91	0.023500	0.263200	0.754170
C921	C92	0.964600	0.178000	0.794370
H621	H62	0.960300	0.118400	0.777770
C931	C93	0.910900	0.178800	0.859570
H631	H63	0.871400	0.120600	0.888770
C941	C94	0.916200	0.265400	0.880870
H641	H64	0.880000	0.266200	0.925470
C951	C95	0.050000	0.578800	0.743970
C961	C96	0.053400	0.637800	0.671370
C971	C97	0.139200	0.692900	0.628270
H651	H65	0.197500	0.692800	0.642370
C981	C98	0.138400	0.748300	0.564070
H661	H66	0.195500	0.786300	0.533170
C991	C99	0.052600	0.745600	0.547570
H671	H67	0.052800	0.785900	0.505770
C1001	C100	0.969300	0.639300	0.648370
H681	H68	0.911000	0.602800	0.678370
C1011	C101	0.901300	0.615800	0.884670
H691	H69	0.862300	0.577700	0.841470
C1021	C102	0.886500	0.685700	0.909770
H701	H70	0.838400	0.696600	0.885470
C1031	C103	0.942800	0.744600	0.973370
H711	H71	0.934800	0.797300	0.991270
C1041	C104	0.006800	0.725900	0.007870
C1051	C105	0.020900	0.647600	0.977170
H721	H72	0.068200	0.635400	0.001370
C1061	C106	0.064600	0.780100	0.079770
C1071	C107	0.078400	0.262300	0.681470
C1081	C108	0.744700	0.621700	0.683570
