data_BURJOO_clean_PM
_symmetry_space_group_name_H-M	'P1'
_cell_length_a	11.144000
_cell_length_b	15.239200
_cell_length_c	16.695000
_cell_angle_alpha	114.419000
_cell_angle_beta	90.000000
_cell_angle_gamma	111.447000
_symmetry_Int_Tables_number 1

loop_
_symmetry_equiv_pos_as_xyz
'x,y,z'

loop_
_atom_site_label
_atom_site_type_symbol
_atom_site_fract_x
_atom_site_fract_y
_atom_site_fract_z
Co11	Co1	0.000000	0.500000	0.000000
Co21	Co2	0.500000	0.500000	0.500000
Co31	Co3	0.500000	0.500000	0.000000
Co41	Co4	0.000000	0.500000	0.500000
H11	H1	0.877100	0.668400	0.869000
H21	H2	0.474500	0.431000	0.681100
H31	H3	0.758400	0.695400	0.605900
H41	H4	0.712500	0.326400	0.882400
H51	H5	0.570400	0.156200	0.841700
H61	H6	0.808400	0.148000	0.015800
H71	H7	0.943300	0.315400	0.047600
H81	H8	0.683700	0.868000	0.019500
H91	H9	0.669900	0.733400	0.052700
H101	H10	0.353100	0.542400	0.875100
H111	H11	0.354400	0.671600	0.838600
H121	H12	0.365000	0.824200	0.822800
H131	H13	0.891200	0.747400	0.740000
H141	H14	0.208700	0.331600	0.631000
H151	H15	0.043500	0.569000	0.818900
H161	H16	0.063000	0.304600	0.894100
H171	H17	0.386100	0.673600	0.617600
H181	H18	0.414200	0.843800	0.658300
H191	H19	0.660400	0.852000	0.484200
H201	H20	0.627900	0.684600	0.452400
H211	H21	0.815700	0.132000	0.480500
H221	H22	0.936500	0.266600	0.447300
H231	H23	0.810700	0.457600	0.624900
H241	H24	0.682800	0.328400	0.661400
H251	H25	0.540800	0.175800	0.677200
H261	H26	0.143800	0.252600	0.760000
H271	H27	0.122900	0.331600	0.131000
H281	H28	0.525500	0.569000	0.318900
H291	H29	0.241600	0.304600	0.394100
H301	H30	0.287500	0.673600	0.117600
H311	H31	0.429600	0.843800	0.158300
H321	H32	0.191600	0.852000	0.984200
H331	H33	0.056700	0.684600	0.952400
H341	H34	0.316300	0.132000	0.980500
H351	H35	0.330100	0.266600	0.947300
H361	H36	0.646900	0.457600	0.124900
H371	H37	0.645600	0.328400	0.161400
H381	H38	0.635000	0.175800	0.177200
H391	H39	0.108800	0.252600	0.260000
H401	H40	0.791300	0.668400	0.369000
H411	H41	0.956500	0.431000	0.181100
H421	H42	0.937000	0.695400	0.105900
H431	H43	0.613900	0.326400	0.382400
H441	H44	0.585800	0.156200	0.341700
H451	H45	0.339600	0.148000	0.515800
H461	H46	0.372100	0.315400	0.547600
H471	H47	0.184300	0.868000	0.519500
H481	H48	0.063500	0.733400	0.552700
H491	H49	0.189300	0.542400	0.375100
H501	H50	0.317200	0.671600	0.338600
H511	H51	0.459200	0.824200	0.322800
H521	H52	0.856200	0.747400	0.240000
C11	C1	0.764180	0.529960	0.928500
C21	C2	0.714520	0.540440	0.849500
C31	C3	0.592350	0.468700	0.792800
C41	C4	0.499330	0.375060	0.803800
C51	C5	0.796650	0.620900	0.831800
C61	C6	0.757130	0.629660	0.757500
C71	C7	0.638070	0.557740	0.699600
C81	C8	0.554890	0.477980	0.718200
C91	C9	0.737840	0.663480	0.643800
C101	C10	0.732560	0.289520	0.909300
C111	C11	0.645620	0.186840	0.884400
C121	C12	0.672190	0.130380	0.924000
C131	C13	0.786520	0.182040	0.986800
C141	C14	0.866720	0.283240	0.005900
C151	C15	0.588740	0.020880	0.903000
C161	C16	0.527720	0.873040	0.904900
C171	C17	0.520390	0.785380	0.924300
C181	C18	0.615000	0.802200	0.989300
C191	C19	0.606300	0.721000	0.008600
C201	C20	0.420130	0.609060	0.904700
C211	C21	0.420540	0.686080	0.881900
C221	C22	0.234220	0.470040	0.571500
C231	C23	0.174080	0.459560	0.650500
C241	C24	0.123650	0.531300	0.707200
C251	C25	0.124270	0.624940	0.696200
C261	C26	0.175750	0.379100	0.668200
C271	C27	0.127470	0.370340	0.742500
C281	C28	0.080330	0.442260	0.800400
C291	C29	0.076910	0.522020	0.781800
C301	C30	0.074360	0.336520	0.856200
C311	C31	0.443040	0.710480	0.590700
C321	C32	0.458780	0.813160	0.615600
C331	C33	0.541810	0.869620	0.576000
C341	C34	0.604480	0.817960	0.513200
C351	C35	0.583480	0.716760	0.494100
C361	C36	0.567860	0.979120	0.597000
C371	C37	0.654680	0.126960	0.595100
C381	C38	0.735010	0.214620	0.575700
C391	C39	0.812800	0.197800	0.510700
C401	C40	0.885300	0.279000	0.491400
C411	C41	0.811070	0.390940	0.595300
C421	C42	0.734460	0.313920	0.618100
C431	C43	0.235820	0.470040	0.071500
C441	C44	0.285480	0.459560	0.150500
C451	C45	0.407650	0.531300	0.207200
C461	C46	0.500670	0.624940	0.196200
C471	C47	0.203350	0.379100	0.168200
C481	C48	0.242870	0.370340	0.242500
C491	C49	0.361930	0.442260	0.300400
C501	C50	0.445110	0.522020	0.281800
C511	C51	0.262160	0.336520	0.356200
C521	C52	0.267440	0.710480	0.090700
C531	C53	0.354380	0.813160	0.115600
C541	C54	0.327810	0.869620	0.076000
C551	C55	0.213480	0.817960	0.013200
C561	C56	0.133280	0.716760	0.994100
C571	C57	0.411260	0.979120	0.097000
C581	C58	0.472280	0.126960	0.095100
C591	C59	0.479610	0.214620	0.075700
C601	C60	0.385000	0.197800	0.010700
C611	C61	0.393700	0.279000	0.991400
C621	C62	0.579870	0.390940	0.095300
C631	C63	0.579460	0.313920	0.118100
C641	C64	0.765780	0.529960	0.428500
C651	C65	0.825920	0.540440	0.349500
C661	C66	0.876350	0.468700	0.292800
C671	C67	0.875730	0.375060	0.303800
C681	C68	0.824250	0.620900	0.331800
C691	C69	0.872530	0.629660	0.257500
C701	C70	0.919670	0.557740	0.199600
C711	C71	0.923090	0.477980	0.218200
C721	C72	0.925640	0.663480	0.143800
C731	C73	0.556960	0.289520	0.409300
C741	C74	0.541220	0.186840	0.384400
C751	C75	0.458190	0.130380	0.424000
C761	C76	0.395520	0.182040	0.486800
C771	C77	0.416520	0.283240	0.505900
C781	C78	0.432140	0.020880	0.403000
C791	C79	0.345320	0.873040	0.404900
C801	C80	0.264990	0.785380	0.424300
C811	C81	0.187200	0.802200	0.489300
C821	C82	0.114700	0.721000	0.508600
C831	C83	0.188930	0.609060	0.404700
C841	C84	0.265540	0.686080	0.381900
N11	N1	0.842770	0.339340	0.968600
N21	N2	0.626830	0.966860	0.938600
N31	N3	0.471140	0.965480	0.850800
N41	N4	0.434970	0.871140	0.852700
N51	N5	0.510980	0.625160	0.967300
N61	N6	0.817220	0.697240	0.720400
N71	N7	0.628580	0.581160	0.627300
N81	N8	0.503430	0.660660	0.531400
N91	N9	0.659970	0.033140	0.561400
N101	N10	0.505660	0.034520	0.649200
N111	N11	0.563830	0.128860	0.647300
N121	N12	0.885820	0.374840	0.532700
N131	N13	0.119980	0.302760	0.779600
N141	N14	0.047420	0.418840	0.872700
N151	N15	0.157230	0.660660	0.031400
N161	N16	0.373170	0.033140	0.061400
N171	N17	0.528860	0.034520	0.149200
N181	N18	0.565030	0.128860	0.147300
N191	N19	0.489020	0.374840	0.032700
N201	N20	0.182780	0.302760	0.279600
N211	N21	0.371420	0.418840	0.372700
N221	N22	0.496570	0.339340	0.468600
N231	N23	0.340030	0.966860	0.438600
N241	N24	0.494340	0.965480	0.350800
N251	N25	0.436170	0.871140	0.352700
N261	N26	0.114180	0.625160	0.467300
N271	N27	0.880020	0.697240	0.220400
N281	N28	0.952580	0.581160	0.127300
O11	O1	0.878780	0.534560	0.932700
O21	O2	0.691460	0.518120	0.984100
O31	O3	0.437510	0.387620	0.867500
O41	O4	0.480670	0.285940	0.743100
O51	O5	0.344220	0.465440	0.567300
O61	O6	0.173340	0.481880	0.515900
O71	O7	0.049890	0.612380	0.632500
O81	O8	0.194730	0.714060	0.756900
O91	O9	0.121220	0.465440	0.067300
O101	O10	0.308540	0.481880	0.015900
O111	O11	0.562490	0.612380	0.132500
O121	O12	0.519330	0.714060	0.256900
O131	O13	0.655780	0.534560	0.432700
O141	O14	0.826660	0.518120	0.484100
O151	O15	0.950110	0.387620	0.367500
O161	O16	0.805270	0.285940	0.243100
