data_BURQIQ_clean_PM
_symmetry_space_group_name_H-M	'P1'
_cell_length_a	25.450000
_cell_length_b	11.928000
_cell_length_c	25.835000
_cell_angle_alpha	90.000000
_cell_angle_beta	116.777000
_cell_angle_gamma	90.000000
_symmetry_Int_Tables_number 1

loop_
_symmetry_equiv_pos_as_xyz
'x,y,z'

loop_
_atom_site_label
_atom_site_type_symbol
_atom_site_fract_x
_atom_site_fract_y
_atom_site_fract_z
Cd11	Cd1	0.477500	0.175350	0.090910
Cd21	Cd2	0.070130	0.747280	0.510950
Na11	Na1	0.979390	0.512500	0.926960
C11	C1	0.398100	0.017400	0.028500
C21	C2	0.351800	0.935400	0.988200
C31	C3	0.353500	0.901100	0.936800
H11	H1	0.382700	0.927700	0.927600
C41	C4	0.311000	0.827100	0.900300
H21	H2	0.313000	0.799900	0.867500
C51	C5	0.266500	0.793900	0.912200
C61	C6	0.266400	0.824900	0.962900
H31	H3	0.237700	0.796300	0.972300
C71	C7	0.307400	0.896800	0.000000
H41	H4	0.305500	0.920100	0.033500
C81	C8	0.199900	0.725500	0.811900
C91	C9	0.178100	0.630700	0.778900
H51	H5	0.181800	0.562400	0.797600
C101	C10	0.151700	0.633100	0.721300
H61	H6	0.135600	0.567700	0.700500
C111	C11	0.147900	0.733000	0.691500
C121	C12	0.170000	0.827100	0.725400
H71	H7	0.167800	0.895600	0.707300
C131	C13	0.195000	0.823800	0.784200
H81	H8	0.208700	0.889500	0.805400
C141	C14	0.119500	0.737100	0.627500
C151	C15	0.120000	0.401800	0.967400
C161	C16	0.147400	0.484300	0.941900
C171	C17	0.110600	0.554000	0.897400
H91	H9	0.070000	0.546000	0.881400
C181	C18	0.134600	0.633700	0.877500
H101	H10	0.110200	0.685800	0.850600
C191	C19	0.195600	0.639400	0.896700
C201	C20	0.231500	0.565100	0.939200
H111	H11	0.272000	0.566500	0.952000
C211	C21	0.207200	0.488900	0.962700
H121	H12	0.231300	0.441200	0.992400
C221	C22	0.445100	0.381100	0.134600
C231	C23	0.408600	0.475200	0.139100
C241	C24	0.418200	0.523600	0.189900
H131	H13	0.448400	0.496400	0.224100
C251	C25	0.385000	0.610900	0.192500
H141	H14	0.394000	0.644300	0.228000
C261	C26	0.337700	0.650800	0.142600
C271	C27	0.328100	0.604400	0.091600
H151	H15	0.298400	0.633500	0.057600
C281	C28	0.360900	0.514800	0.088000
H161	H16	0.351600	0.481200	0.052400
C291	C29	0.333600	0.831300	0.186000
C301	C30	0.382200	0.875300	0.184600
H171	H17	0.392800	0.849200	0.156700
C311	C31	0.416100	0.956100	0.222400
H181	H18	0.447900	0.987100	0.218800
C321	C32	0.402400	0.991200	0.266000
C331	C33	0.352000	0.949400	0.265600
H191	H19	0.340100	0.976300	0.292400
C341	C34	0.318400	0.868400	0.226400
H201	H20	0.285300	0.839600	0.228100
C351	C35	0.240400	0.735000	0.118500
C361	C36	0.207900	0.836200	0.100800
H211	H21	0.226400	0.905700	0.109300
C371	C37	0.148700	0.827000	0.071100
H221	H22	0.126600	0.892500	0.058900
C381	C38	0.119600	0.727600	0.058100
C391	C39	0.152000	0.631300	0.073000
H231	H23	0.132800	0.562700	0.062000
C401	C40	0.213300	0.633000	0.104100
H241	H24	0.234900	0.566900	0.114700
C411	C41	0.052600	0.717600	0.027100
C421	C42	0.443700	0.065500	0.311600
N11	N1	0.221800	0.719000	0.874900
N21	N2	0.304400	0.740600	0.146100
O11	O1	0.489500	0.104400	0.310300
O21	O2	0.432600	0.090200	0.353900
O31	O3	0.438100	0.049200	0.015600
O41	O4	0.394500	0.056300	0.071800
O51	O5	0.427400	0.327800	0.088600
O61	O6	0.492600	0.358100	0.180300
O71	O7	0.023100	0.809700	0.021600
O81	O8	0.028600	0.625000	0.009500
O91	O9	0.152500	0.335700	0.005100
O101	O10	0.065300	0.399600	0.947700
O111	O11	0.120500	0.826300	0.602000
O121	O12	0.094000	0.651100	0.599400
Cd31	Cd3	0.522500	0.175350	0.409090
Cd41	Cd4	0.929870	0.747280	0.989050
Na21	Na2	0.020610	0.512500	0.573040
C431	C43	0.601900	0.017400	0.471500
C441	C44	0.648200	0.935400	0.511800
C451	C45	0.646500	0.901100	0.563200
H251	H25	0.617300	0.927700	0.572400
C461	C46	0.689000	0.827100	0.599700
H261	H26	0.687000	0.799900	0.632500
C471	C47	0.733500	0.793900	0.587800
C481	C48	0.733600	0.824900	0.537100
H271	H27	0.762300	0.796300	0.527700
C491	C49	0.692600	0.896800	0.500000
H281	H28	0.694500	0.920100	0.466500
C501	C50	0.800100	0.725500	0.688100
C511	C51	0.821900	0.630700	0.721100
H291	H29	0.818200	0.562400	0.702400
C521	C52	0.848300	0.633100	0.778700
H301	H30	0.864400	0.567700	0.799500
C531	C53	0.852100	0.733000	0.808500
C541	C54	0.830000	0.827100	0.774600
H311	H31	0.832200	0.895600	0.792700
C551	C55	0.805000	0.823800	0.715800
H321	H32	0.791300	0.889500	0.694600
C561	C56	0.880500	0.737100	0.872500
C571	C57	0.880000	0.401800	0.532600
C581	C58	0.852600	0.484300	0.558100
C591	C59	0.889400	0.554000	0.602600
H331	H33	0.930000	0.546000	0.618600
C601	C60	0.865400	0.633700	0.622500
H341	H34	0.889800	0.685800	0.649400
C611	C61	0.804400	0.639400	0.603300
C621	C62	0.768500	0.565100	0.560800
H351	H35	0.728000	0.566500	0.548000
C631	C63	0.792800	0.488900	0.537300
H361	H36	0.768700	0.441200	0.507600
C641	C64	0.554900	0.381100	0.365400
C651	C65	0.591400	0.475200	0.360900
C661	C66	0.581800	0.523600	0.310100
H371	H37	0.551600	0.496400	0.275900
C671	C67	0.615000	0.610900	0.307500
H381	H38	0.606000	0.644300	0.272000
C681	C68	0.662300	0.650800	0.357400
C691	C69	0.671900	0.604400	0.408400
H391	H39	0.701600	0.633500	0.442400
C701	C70	0.639100	0.514800	0.412000
H401	H40	0.648400	0.481200	0.447600
C711	C71	0.666400	0.831300	0.314000
C721	C72	0.617800	0.875300	0.315400
H411	H41	0.607200	0.849200	0.343300
C731	C73	0.583900	0.956100	0.277600
H421	H42	0.552100	0.987100	0.281200
C741	C74	0.597600	0.991200	0.234000
C751	C75	0.648000	0.949400	0.234400
H431	H43	0.659900	0.976300	0.207600
C761	C76	0.681600	0.868400	0.273600
H441	H44	0.714700	0.839600	0.271900
C771	C77	0.759600	0.735000	0.381500
C781	C78	0.792100	0.836200	0.399200
H451	H45	0.773600	0.905700	0.390700
C791	C79	0.851300	0.827000	0.428900
H461	H46	0.873400	0.892500	0.441100
C801	C80	0.880400	0.727600	0.441900
C811	C81	0.848000	0.631300	0.427000
H471	H47	0.867200	0.562700	0.438000
C821	C82	0.786700	0.633000	0.395900
H481	H48	0.765100	0.566900	0.385300
C831	C83	0.947400	0.717600	0.472900
C841	C84	0.556300	0.065500	0.188400
N31	N3	0.778200	0.719000	0.625100
N41	N4	0.695600	0.740600	0.353900
O131	O13	0.510500	0.104400	0.189700
O141	O14	0.567400	0.090200	0.146100
O151	O15	0.561900	0.049200	0.484400
O161	O16	0.605500	0.056300	0.428200
O171	O17	0.572600	0.327800	0.411400
O181	O18	0.507400	0.358100	0.319700
O191	O19	0.976900	0.809700	0.478400
O201	O20	0.971400	0.625000	0.490500
O211	O21	0.847500	0.335700	0.494900
O221	O22	0.934700	0.399600	0.552300
O231	O23	0.879500	0.826300	0.898000
O241	O24	0.906000	0.651100	0.900600
Cd51	Cd5	0.522500	0.824650	0.909090
Cd61	Cd6	0.929870	0.252720	0.489050
Na31	Na3	0.020610	0.487500	0.073040
C851	C85	0.601900	0.982600	0.971500
C861	C86	0.648200	0.064600	0.011800
C871	C87	0.646500	0.098900	0.063200
H491	H49	0.617300	0.072300	0.072400
C881	C88	0.689000	0.172900	0.099700
H501	H50	0.687000	0.200100	0.132500
C891	C89	0.733500	0.206100	0.087800
C901	C90	0.733600	0.175100	0.037100
H511	H51	0.762300	0.203700	0.027700
C911	C91	0.692600	0.103200	0.000000
H521	H52	0.694500	0.079900	0.966500
C921	C92	0.800100	0.274500	0.188100
C931	C93	0.821900	0.369300	0.221100
H531	H53	0.818200	0.437600	0.202400
C941	C94	0.848300	0.366900	0.278700
H541	H54	0.864400	0.432300	0.299500
C951	C95	0.852100	0.267000	0.308500
C961	C96	0.830000	0.172900	0.274600
H551	H55	0.832200	0.104400	0.292700
C971	C97	0.805000	0.176200	0.215800
H561	H56	0.791300	0.110500	0.194600
C981	C98	0.880500	0.262900	0.372500
C991	C99	0.880000	0.598200	0.032600
C1001	C100	0.852600	0.515700	0.058100
C1011	C101	0.889400	0.446000	0.102600
H571	H57	0.930000	0.454000	0.118600
C1021	C102	0.865400	0.366300	0.122500
H581	H58	0.889800	0.314200	0.149400
C1031	C103	0.804400	0.360600	0.103300
C1041	C104	0.768500	0.434900	0.060800
H591	H59	0.728000	0.433500	0.048000
C1051	C105	0.792800	0.511100	0.037300
H601	H60	0.768700	0.558800	0.007600
C1061	C106	0.554900	0.618900	0.865400
C1071	C107	0.591400	0.524800	0.860900
C1081	C108	0.581800	0.476400	0.810100
H611	H61	0.551600	0.503600	0.775900
C1091	C109	0.615000	0.389100	0.807500
H621	H62	0.606000	0.355700	0.772000
C1101	C110	0.662300	0.349200	0.857400
C1111	C111	0.671900	0.395600	0.908400
H631	H63	0.701600	0.366500	0.942400
C1121	C112	0.639100	0.485200	0.912000
H641	H64	0.648400	0.518800	0.947600
C1131	C113	0.666400	0.168700	0.814000
C1141	C114	0.617800	0.124700	0.815400
H651	H65	0.607200	0.150800	0.843300
C1151	C115	0.583900	0.043900	0.777600
H661	H66	0.552100	0.012900	0.781200
C1161	C116	0.597600	0.008800	0.734000
C1171	C117	0.648000	0.050600	0.734400
H671	H67	0.659900	0.023700	0.707600
C1181	C118	0.681600	0.131600	0.773600
H681	H68	0.714700	0.160400	0.771900
C1191	C119	0.759600	0.265000	0.881500
C1201	C120	0.792100	0.163800	0.899200
H691	H69	0.773600	0.094300	0.890700
C1211	C121	0.851300	0.173000	0.928900
H701	H70	0.873400	0.107500	0.941100
C1221	C122	0.880400	0.272400	0.941900
C1231	C123	0.848000	0.368700	0.927000
H711	H71	0.867200	0.437300	0.938000
C1241	C124	0.786700	0.367000	0.895900
H721	H72	0.765100	0.433100	0.885300
C1251	C125	0.947400	0.282400	0.972900
C1261	C126	0.556300	0.934500	0.688400
N51	N5	0.778200	0.281000	0.125100
N61	N6	0.695600	0.259400	0.853900
O251	O25	0.510500	0.895600	0.689700
O261	O26	0.567400	0.909800	0.646100
O271	O27	0.561900	0.950800	0.984400
O281	O28	0.605500	0.943700	0.928200
O291	O29	0.572600	0.672200	0.911400
O301	O30	0.507400	0.641900	0.819700
O311	O31	0.976900	0.190300	0.978400
O321	O32	0.971400	0.375000	0.990500
O331	O33	0.847500	0.664300	0.994900
O341	O34	0.934700	0.600400	0.052300
O351	O35	0.879500	0.173700	0.398000
O361	O36	0.906000	0.348900	0.400600
Cd71	Cd7	0.477500	0.824650	0.590910
Cd81	Cd8	0.070130	0.252720	0.010950
Na41	Na4	0.979390	0.487500	0.426960
C1271	C127	0.398100	0.982600	0.528500
C1281	C128	0.351800	0.064600	0.488200
C1291	C129	0.353500	0.098900	0.436800
H731	H73	0.382700	0.072300	0.427600
C1301	C130	0.311000	0.172900	0.400300
H741	H74	0.313000	0.200100	0.367500
C1311	C131	0.266500	0.206100	0.412200
C1321	C132	0.266400	0.175100	0.462900
H751	H75	0.237700	0.203700	0.472300
C1331	C133	0.307400	0.103200	0.500000
H761	H76	0.305500	0.079900	0.533500
C1341	C134	0.199900	0.274500	0.311900
C1351	C135	0.178100	0.369300	0.278900
H771	H77	0.181800	0.437600	0.297600
C1361	C136	0.151700	0.366900	0.221300
H781	H78	0.135600	0.432300	0.200500
C1371	C137	0.147900	0.267000	0.191500
C1381	C138	0.170000	0.172900	0.225400
H791	H79	0.167800	0.104400	0.207300
C1391	C139	0.195000	0.176200	0.284200
H801	H80	0.208700	0.110500	0.305400
C1401	C140	0.119500	0.262900	0.127500
C1411	C141	0.120000	0.598200	0.467400
C1421	C142	0.147400	0.515700	0.441900
C1431	C143	0.110600	0.446000	0.397400
H811	H81	0.070000	0.454000	0.381400
C1441	C144	0.134600	0.366300	0.377500
H821	H82	0.110200	0.314200	0.350600
C1451	C145	0.195600	0.360600	0.396700
C1461	C146	0.231500	0.434900	0.439200
H831	H83	0.272000	0.433500	0.452000
C1471	C147	0.207200	0.511100	0.462700
H841	H84	0.231300	0.558800	0.492400
C1481	C148	0.445100	0.618900	0.634600
C1491	C149	0.408600	0.524800	0.639100
C1501	C150	0.418200	0.476400	0.689900
H851	H85	0.448400	0.503600	0.724100
C1511	C151	0.385000	0.389100	0.692500
H861	H86	0.394000	0.355700	0.728000
C1521	C152	0.337700	0.349200	0.642600
C1531	C153	0.328100	0.395600	0.591600
H871	H87	0.298400	0.366500	0.557600
C1541	C154	0.360900	0.485200	0.588000
H881	H88	0.351600	0.518800	0.552400
C1551	C155	0.333600	0.168700	0.686000
C1561	C156	0.382200	0.124700	0.684600
H891	H89	0.392800	0.150800	0.656700
C1571	C157	0.416100	0.043900	0.722400
H901	H90	0.447900	0.012900	0.718800
C1581	C158	0.402400	0.008800	0.766000
C1591	C159	0.352000	0.050600	0.765600
H911	H91	0.340100	0.023700	0.792400
C1601	C160	0.318400	0.131600	0.726400
H921	H92	0.285300	0.160400	0.728100
C1611	C161	0.240400	0.265000	0.618500
C1621	C162	0.207900	0.163800	0.600800
H931	H93	0.226400	0.094300	0.609300
C1631	C163	0.148700	0.173000	0.571100
H941	H94	0.126600	0.107500	0.558900
C1641	C164	0.119600	0.272400	0.558100
C1651	C165	0.152000	0.368700	0.573000
H951	H95	0.132800	0.437300	0.562000
C1661	C166	0.213300	0.367000	0.604100
H961	H96	0.234900	0.433100	0.614700
C1671	C167	0.052600	0.282400	0.527100
C1681	C168	0.443700	0.934500	0.811600
N71	N7	0.221800	0.281000	0.374900
N81	N8	0.304400	0.259400	0.646100
O371	O37	0.489500	0.895600	0.810300
O381	O38	0.432600	0.909800	0.853900
O391	O39	0.438100	0.950800	0.515600
O401	O40	0.394500	0.943700	0.571800
O411	O41	0.427400	0.672200	0.588600
O421	O42	0.492600	0.641900	0.680300
O431	O43	0.023100	0.190300	0.521600
O441	O44	0.028600	0.375000	0.509500
O451	O45	0.152500	0.664300	0.505100
O461	O46	0.065300	0.600400	0.447700
O471	O47	0.120500	0.173700	0.102000
O481	O48	0.094000	0.348900	0.099400
Cd91	Cd9	0.500000	0.234100	0.250000
Cd101	Cd10	0.500000	0.765900	0.750000
