data_BUSGIG_clean_PM
_symmetry_space_group_name_H-M	'P1'
_cell_length_a	9.175000
_cell_length_b	9.493000
_cell_length_c	21.510000
_cell_angle_alpha	90.000000
_cell_angle_beta	90.000000
_cell_angle_gamma	116.483000
_symmetry_Int_Tables_number 1

loop_
_symmetry_equiv_pos_as_xyz
'x,y,z'

loop_
_atom_site_label
_atom_site_type_symbol
_atom_site_fract_x
_atom_site_fract_y
_atom_site_fract_z
Dy11	Dy1	0.124840	0.357450	0.991730
Dy21	Dy2	0.375160	0.642550	0.491730
Dy31	Dy3	0.875160	0.642550	0.008270
Dy41	Dy4	0.624840	0.357450	0.508270
Cu11	Cu1	0.461580	0.308230	0.853610
Cu21	Cu2	0.038420	0.691770	0.353610
Cu31	Cu3	0.538420	0.691770	0.146390
Cu41	Cu4	0.961580	0.308230	0.646390
H11	H1	0.707100	0.973200	0.069200
H21	H2	0.445200	0.209000	0.070400
H31	H3	0.004400	0.345000	0.777500
H41	H4	0.854200	0.731700	0.730300
H51	H5	0.892400	0.686800	0.833600
H61	H6	0.244700	0.004900	0.124000
H71	H7	0.294600	0.802400	0.158600
H81	H8	0.875300	0.571700	0.654900
H91	H9	0.792900	0.026800	0.569200
H101	H10	0.054800	0.791000	0.570400
H111	H11	0.495600	0.655000	0.277500
H121	H12	0.645800	0.268300	0.230300
H131	H13	0.607600	0.313200	0.333600
H141	H14	0.255300	0.995100	0.624000
H151	H15	0.205400	0.197600	0.658600
H161	H16	0.624700	0.428300	0.154900
H171	H17	0.292900	0.026800	0.930800
H181	H18	0.554800	0.791000	0.929600
H191	H19	0.995600	0.655000	0.222500
H201	H20	0.145800	0.268300	0.269700
H211	H21	0.107600	0.313200	0.166400
H221	H22	0.755300	0.995100	0.876000
H231	H23	0.705400	0.197600	0.841400
H241	H24	0.124700	0.428300	0.345100
H251	H25	0.207100	0.973200	0.430800
H261	H26	0.945200	0.209000	0.429600
H271	H27	0.504400	0.345000	0.722500
H281	H28	0.354200	0.731700	0.769700
H291	H29	0.392400	0.686800	0.666400
H301	H30	0.744700	0.004900	0.376000
H311	H31	0.794600	0.802400	0.341400
H321	H32	0.375300	0.571700	0.845100
C11	C1	0.011900	0.008100	0.035500
C21	C2	0.732600	0.243200	0.028000
C31	C3	0.986700	0.477500	0.881600
C41	C4	0.597100	0.112000	0.064300
C51	C5	0.614500	0.981700	0.082000
C61	C6	0.459600	0.121300	0.081300
C71	C7	0.970800	0.421600	0.768100
C81	C8	0.881400	0.651400	0.741100
C91	C9	0.906300	0.626300	0.802300
C101	C10	0.342400	0.002400	0.114400
C111	C11	0.371000	0.879400	0.133300
C121	C12	0.952200	0.509600	0.816600
C131	C13	0.897000	0.556400	0.695900
C141	C14	0.502500	0.478100	0.966400
C151	C15	0.488100	0.991900	0.535500
C161	C16	0.767400	0.756800	0.528000
C171	C17	0.513300	0.522500	0.381600
C181	C18	0.902900	0.888000	0.564300
C191	C19	0.885500	0.018300	0.582000
C201	C20	0.040400	0.878700	0.581300
C211	C21	0.529200	0.578400	0.268100
C221	C22	0.618600	0.348600	0.241100
C231	C23	0.593700	0.373700	0.302300
C241	C24	0.157600	0.997600	0.614400
C251	C25	0.129000	0.120600	0.633300
C261	C26	0.547800	0.490400	0.316600
C271	C27	0.603000	0.443600	0.195900
C281	C28	0.997500	0.521900	0.466400
C291	C29	0.988100	0.991900	0.964500
C301	C30	0.267400	0.756800	0.972000
C311	C31	0.013300	0.522500	0.118400
C321	C32	0.402900	0.888000	0.935700
C331	C33	0.385500	0.018300	0.918000
C341	C34	0.540400	0.878700	0.918700
C351	C35	0.029200	0.578400	0.231900
C361	C36	0.118600	0.348600	0.258900
C371	C37	0.093700	0.373700	0.197700
C381	C38	0.657600	0.997600	0.885600
C391	C39	0.629000	0.120600	0.866700
C401	C40	0.047800	0.490400	0.183400
C411	C41	0.103000	0.443600	0.304100
C421	C42	0.497500	0.521900	0.033600
C431	C43	0.511900	0.008100	0.464500
C441	C44	0.232600	0.243200	0.472000
C451	C45	0.486700	0.477500	0.618400
C461	C46	0.097100	0.112000	0.435700
C471	C47	0.114500	0.981700	0.418000
C481	C48	0.959600	0.121300	0.418700
C491	C49	0.470800	0.421600	0.731900
C501	C50	0.381400	0.651400	0.758900
C511	C51	0.406300	0.626300	0.697700
C521	C52	0.842400	0.002400	0.385600
C531	C53	0.871000	0.879400	0.366700
C541	C54	0.452200	0.509600	0.683400
C551	C55	0.397000	0.556400	0.804100
C561	C56	0.002500	0.478100	0.533600
N11	N1	0.504300	0.865300	0.116900
N21	N2	0.942400	0.442100	0.708200
N31	N3	0.995700	0.134700	0.616900
N41	N4	0.557600	0.557900	0.208200
N51	N5	0.495700	0.134700	0.883100
N61	N6	0.057600	0.557900	0.291800
N71	N7	0.004300	0.865300	0.383100
N81	N8	0.442400	0.442100	0.791800
O11	O1	0.839600	0.214800	0.003860
O21	O2	0.369700	0.382400	0.942120
O31	O3	0.089800	0.144000	0.056960
O41	O4	0.053700	0.390000	0.889440
O51	O5	0.945800	0.540300	0.924570
O61	O6	0.724500	0.371300	0.028100
O71	O7	0.948400	0.882700	0.065830
O81	O8	0.636200	0.539100	0.939020
O91	O9	0.660400	0.785200	0.503860
O101	O10	0.130300	0.617600	0.442120
O111	O11	0.410200	0.856000	0.556960
O121	O12	0.446300	0.610000	0.389440
O131	O13	0.554200	0.459700	0.424570
O141	O14	0.775500	0.628700	0.528100
O151	O15	0.551600	0.117300	0.565830
O161	O16	0.863800	0.460900	0.439020
O171	O17	0.160400	0.785200	0.996140
O181	O18	0.630300	0.617600	0.057880
O191	O19	0.910200	0.856000	0.943040
O201	O20	0.946300	0.610000	0.110560
O211	O21	0.054200	0.459700	0.075430
O221	O22	0.275500	0.628700	0.971900
O231	O23	0.051600	0.117300	0.934170
O241	O24	0.363800	0.460900	0.060980
O251	O25	0.339600	0.214800	0.496140
O261	O26	0.869700	0.382400	0.557880
O271	O27	0.589800	0.144000	0.443040
O281	O28	0.553700	0.390000	0.610560
O291	O29	0.445800	0.540300	0.575430
O301	O30	0.224500	0.371300	0.471900
O311	O31	0.448400	0.882700	0.434170
O321	O32	0.136200	0.539100	0.560980
