data_BUSRUE_clean_PM
_symmetry_space_group_name_H-M	'P1'
_cell_length_a	11.779700
_cell_length_b	29.182500
_cell_length_c	14.228500
_cell_angle_alpha	90.000000
_cell_angle_beta	100.679000
_cell_angle_gamma	90.000000
_symmetry_Int_Tables_number 1

loop_
_symmetry_equiv_pos_as_xyz
'x,y,z'

loop_
_atom_site_label
_atom_site_type_symbol
_atom_site_fract_x
_atom_site_fract_y
_atom_site_fract_z
C11	C1	0.333400	0.125900	0.831700
C21	C2	0.305400	0.173100	0.792000
C31	C3	0.361700	0.210100	0.836700
H11	H1	0.419200	0.206000	0.890400
C41	C4	0.222500	0.181700	0.713300
H21	H2	0.180000	0.157300	0.683200
C51	C5	0.333200	0.253800	0.801900
H31	H3	0.368400	0.278900	0.835900
C61	C6	0.199400	0.224700	0.677000
H41	H4	0.144000	0.228600	0.621800
C71	C7	0.254800	0.261500	0.719200
C81	C8	0.231100	0.309600	0.685300
C91	C9	0.296900	0.345500	0.725500
H51	H5	0.359600	0.340000	0.774400
C101	C10	0.135800	0.320300	0.615600
H61	H6	0.089100	0.296800	0.586000
C111	C11	0.271600	0.390500	0.694500
H71	H7	0.321700	0.413900	0.719800
C121	C12	0.108800	0.365700	0.589100
H81	H8	0.043200	0.371900	0.543400
C131	C13	0.176600	0.401200	0.628900
C141	C14	0.148300	0.450000	0.606700
C151	C15	0.171200	0.045800	0.006600
H91	H9	0.139700	0.040800	0.942500
C161	C16	0.328800	0.059200	0.121900
H101	H10	0.408100	0.064000	0.138800
C171	C17	0.097700	0.047400	0.071200
H111	H11	0.018400	0.044000	0.051500
C181	C18	0.264300	0.061100	0.192200
H121	H12	0.298300	0.066800	0.255400
C191	C19	0.145500	0.054300	0.165700
C201	C20	0.077100	0.092400	0.297800
C211	C21	0.014300	0.012700	0.248000
C221	C22	0.947200	0.011300	0.326300
C231	C23	0.012500	0.089300	0.378400
C241	C24	0.949300	0.049100	0.388100
C251	C25	0.884300	0.972900	0.338400
H131	H13	0.883200	0.948200	0.296900
C261	C26	0.011500	0.125200	0.437600
H141	H14	0.056100	0.151000	0.431700
C271	C27	0.822300	0.970600	0.412400
H151	H15	0.780600	0.944200	0.420100
C281	C28	0.942500	0.123400	0.508500
H161	H16	0.939000	0.148900	0.547000
C291	C29	0.821500	0.006500	0.474100
C301	C30	0.881300	0.085600	0.522000
C311	C31	0.884100	0.047400	0.461200
C321	C32	0.759500	0.003300	0.555400
C331	C33	0.807000	0.084900	0.594600
C341	C34	0.677400	0.041700	0.678000
C351	C35	0.566600	0.027700	0.652200
H171	H17	0.538000	0.018800	0.589500
C361	C36	0.715100	0.054500	0.770900
H181	H18	0.791400	0.063500	0.791700
C371	C37	0.497000	0.026700	0.719200
H191	H19	0.421500	0.016400	0.700300
C381	C38	0.639000	0.054100	0.833100
H201	H20	0.664500	0.064500	0.895300
N11	N1	0.284700	0.051060	0.030900
N21	N2	0.075000	0.053340	0.238800
N31	N3	0.753100	0.042980	0.610000
N41	N4	0.530100	0.039600	0.808600
O11	O1	0.278700	0.092500	0.794100
O21	O2	0.413000	0.122850	0.903600
O31	O3	0.061800	0.459490	0.542400
O41	O4	0.209100	0.480540	0.650900
O51	O5	0.018600	0.981090	0.196300
O61	O6	0.128700	0.126100	0.282400
O71	O7	0.792100	0.117830	0.640300
O81	O8	0.717600	0.967730	0.576200
Cd11	Cd1	0.400480	0.043770	0.914260
C391	C39	0.166600	0.625900	0.668300
C401	C40	0.194600	0.673100	0.708000
C411	C41	0.138300	0.710100	0.663300
H211	H21	0.080800	0.706000	0.609600
C421	C42	0.277500	0.681700	0.786700
H221	H22	0.320000	0.657300	0.816800
C431	C43	0.166800	0.753800	0.698100
H231	H23	0.131600	0.778900	0.664100
C441	C44	0.300600	0.724700	0.823000
H241	H24	0.356000	0.728600	0.878200
C451	C45	0.245200	0.761500	0.780800
C461	C46	0.268900	0.809600	0.814700
C471	C47	0.203100	0.845500	0.774500
H251	H25	0.140400	0.840000	0.725600
C481	C48	0.364200	0.820300	0.884400
H261	H26	0.410900	0.796800	0.914000
C491	C49	0.228400	0.890500	0.805500
H271	H27	0.178300	0.913900	0.780200
C501	C50	0.391200	0.865700	0.910900
H281	H28	0.456800	0.871900	0.956600
C511	C51	0.323400	0.901200	0.871100
C521	C52	0.351700	0.950000	0.893300
C531	C53	0.328800	0.545800	0.493400
H291	H29	0.360300	0.540800	0.557500
C541	C54	0.171200	0.559200	0.378100
H301	H30	0.091900	0.564000	0.361200
C551	C55	0.402300	0.547400	0.428800
H311	H31	0.481600	0.544000	0.448500
C561	C56	0.235700	0.561100	0.307800
H321	H32	0.201700	0.566800	0.244600
C571	C57	0.354500	0.554300	0.334300
C581	C58	0.422900	0.592400	0.202200
C591	C59	0.485700	0.512700	0.252000
C601	C60	0.552800	0.511300	0.173700
C611	C61	0.487500	0.589300	0.121600
C621	C62	0.550700	0.549100	0.111900
C631	C63	0.615700	0.472900	0.161600
H331	H33	0.616800	0.448200	0.203100
C641	C64	0.488500	0.625200	0.062400
H341	H34	0.443900	0.651000	0.068300
C651	C65	0.677700	0.470600	0.087600
H351	H35	0.719400	0.444200	0.079900
C661	C66	0.557500	0.623400	0.991500
H361	H36	0.561000	0.648900	0.953000
C671	C67	0.678500	0.506500	0.025900
C681	C68	0.618700	0.585600	0.978000
C691	C69	0.615900	0.547400	0.038800
C701	C70	0.740500	0.503300	0.944600
C711	C71	0.693000	0.584900	0.905400
C721	C72	0.822600	0.541700	0.822000
C731	C73	0.933400	0.527700	0.847800
H371	H37	0.962000	0.518800	0.910500
C741	C74	0.784900	0.554500	0.729100
H381	H38	0.708600	0.563500	0.708300
C751	C75	0.003000	0.526700	0.780800
H391	H39	0.078500	0.516400	0.799700
C761	C76	0.861000	0.554100	0.666900
H401	H40	0.835500	0.564500	0.604700
N51	N5	0.215300	0.551060	0.469100
N61	N6	0.425000	0.553340	0.261200
N71	N7	0.746900	0.542980	0.890000
N81	N8	0.969900	0.539600	0.691400
O91	O9	0.221300	0.592500	0.705900
O101	O10	0.087000	0.622850	0.596400
O111	O11	0.438200	0.959490	0.957600
O121	O12	0.290900	0.980540	0.849100
O131	O13	0.481400	0.481090	0.303700
O141	O14	0.371300	0.626100	0.217600
O151	O15	0.707900	0.617830	0.859700
O161	O16	0.782400	0.467730	0.923800
Cd21	Cd2	0.099520	0.543770	0.585740
C771	C77	0.666600	0.874100	0.168300
C781	C78	0.694600	0.826900	0.208000
C791	C79	0.638300	0.789900	0.163300
H411	H41	0.580800	0.794000	0.109600
C801	C80	0.777500	0.818300	0.286700
H421	H42	0.820000	0.842700	0.316800
C811	C81	0.666800	0.746200	0.198100
H431	H43	0.631600	0.721100	0.164100
C821	C82	0.800600	0.775300	0.323000
H441	H44	0.856000	0.771400	0.378200
C831	C83	0.745200	0.738500	0.280800
C841	C84	0.768900	0.690400	0.314700
C851	C85	0.703100	0.654500	0.274500
H451	H45	0.640400	0.660000	0.225600
C861	C86	0.864200	0.679700	0.384400
H461	H46	0.910900	0.703200	0.414000
C871	C87	0.728400	0.609500	0.305500
H471	H47	0.678300	0.586100	0.280200
C881	C88	0.891200	0.634300	0.410900
H481	H48	0.956800	0.628100	0.456600
C891	C89	0.823400	0.598800	0.371100
C901	C90	0.851700	0.550000	0.393300
C911	C91	0.828800	0.954200	0.993400
H491	H49	0.860300	0.959200	0.057500
C921	C92	0.671200	0.940800	0.878100
H501	H50	0.591900	0.936000	0.861200
C931	C93	0.902300	0.952600	0.928800
H511	H51	0.981600	0.956000	0.948500
C941	C94	0.735700	0.938900	0.807800
H521	H52	0.701700	0.933200	0.744600
C951	C95	0.854500	0.945700	0.834300
C961	C96	0.922900	0.907600	0.702200
C971	C97	0.985700	0.987300	0.752000
C981	C98	0.052800	0.988700	0.673700
C991	C99	0.987500	0.910700	0.621600
C1001	C100	0.050700	0.950900	0.611900
C1011	C101	0.115700	0.027100	0.661600
H531	H53	0.116800	0.051800	0.703100
C1021	C102	0.988500	0.874800	0.562400
H541	H54	0.943900	0.849000	0.568300
C1031	C103	0.177700	0.029400	0.587600
H551	H55	0.219400	0.055800	0.579900
C1041	C104	0.057500	0.876600	0.491500
H561	H56	0.061000	0.851100	0.453000
C1051	C105	0.178500	0.993500	0.525900
C1061	C106	0.118700	0.914400	0.478000
C1071	C107	0.115900	0.952600	0.538800
C1081	C108	0.240500	0.996700	0.444600
C1091	C109	0.193000	0.915100	0.405400
C1101	C110	0.322600	0.958300	0.322000
C1111	C111	0.433400	0.972300	0.347800
H571	H57	0.462000	0.981200	0.410500
C1121	C112	0.284900	0.945500	0.229100
H581	H58	0.208600	0.936500	0.208300
C1131	C113	0.503000	0.973300	0.280800
H591	H59	0.578500	0.983600	0.299700
C1141	C114	0.361000	0.945900	0.166900
H601	H60	0.335500	0.935500	0.104700
N91	N9	0.715300	0.948940	0.969100
N101	N10	0.925000	0.946660	0.761200
N111	N11	0.246900	0.957020	0.390000
N121	N12	0.469900	0.960400	0.191400
O171	O17	0.721300	0.907500	0.205900
O181	O18	0.587000	0.877150	0.096400
O191	O19	0.938200	0.540510	0.457600
O201	O20	0.790900	0.519460	0.349100
O211	O21	0.981400	0.018910	0.803700
O221	O22	0.871300	0.873900	0.717600
O231	O23	0.207900	0.882170	0.359700
O241	O24	0.282400	0.032270	0.423800
Cd31	Cd3	0.599520	0.956240	0.085740
C1151	C115	0.833400	0.374100	0.331700
C1161	C116	0.805400	0.326900	0.292000
C1171	C117	0.861700	0.289900	0.336700
H611	H61	0.919200	0.294000	0.390400
C1181	C118	0.722500	0.318300	0.213300
H621	H62	0.680000	0.342700	0.183200
C1191	C119	0.833200	0.246200	0.301900
H631	H63	0.868400	0.221100	0.335900
C1201	C120	0.699400	0.275300	0.177000
H641	H64	0.644000	0.271400	0.121800
C1211	C121	0.754800	0.238500	0.219200
C1221	C122	0.731100	0.190400	0.185300
C1231	C123	0.796900	0.154500	0.225500
H651	H65	0.859600	0.160000	0.274400
C1241	C124	0.635800	0.179700	0.115600
H661	H66	0.589100	0.203200	0.086000
C1251	C125	0.771600	0.109500	0.194500
H671	H67	0.821700	0.086100	0.219800
C1261	C126	0.608800	0.134300	0.089100
H681	H68	0.543200	0.128100	0.043400
C1271	C127	0.676600	0.098800	0.128900
C1281	C128	0.648300	0.050000	0.106700
C1291	C129	0.671200	0.454200	0.506600
H691	H69	0.639700	0.459200	0.442500
C1301	C130	0.828800	0.440800	0.621900
H701	H70	0.908100	0.436000	0.638800
C1311	C131	0.597700	0.452600	0.571200
H711	H71	0.518400	0.456000	0.551500
C1321	C132	0.764300	0.438900	0.692200
H721	H72	0.798300	0.433200	0.755400
C1331	C133	0.645500	0.445700	0.665700
C1341	C134	0.577100	0.407600	0.797800
C1351	C135	0.514300	0.487300	0.748000
C1361	C136	0.447200	0.488700	0.826300
C1371	C137	0.512500	0.410700	0.878400
C1381	C138	0.449300	0.450900	0.888100
C1391	C139	0.384300	0.527100	0.838400
H731	H73	0.383200	0.551800	0.796900
C1401	C140	0.511500	0.374800	0.937600
H741	H74	0.556100	0.349000	0.931700
C1411	C141	0.322300	0.529400	0.912400
H751	H75	0.280600	0.555800	0.920100
C1421	C142	0.442500	0.376600	0.008500
H761	H76	0.439000	0.351100	0.047000
C1431	C143	0.321500	0.493500	0.974100
C1441	C144	0.381300	0.414400	0.022000
C1451	C145	0.384100	0.452600	0.961200
C1461	C146	0.259500	0.496700	0.055400
C1471	C147	0.307000	0.415100	0.094600
C1481	C148	0.177400	0.458300	0.178000
C1491	C149	0.066600	0.472300	0.152200
H771	H77	0.038000	0.481200	0.089500
C1501	C150	0.215100	0.445500	0.270900
H781	H78	0.291400	0.436500	0.291700
C1511	C151	0.997000	0.473300	0.219200
H791	H79	0.921500	0.483600	0.200300
C1521	C152	0.139000	0.445900	0.333100
H801	H80	0.164500	0.435500	0.395300
N131	N13	0.784700	0.448940	0.530900
N141	N14	0.575000	0.446660	0.738800
N151	N15	0.253100	0.457020	0.110000
N161	N16	0.030100	0.460400	0.308600
O251	O25	0.778700	0.407500	0.294100
O261	O26	0.913000	0.377150	0.403600
O271	O27	0.561800	0.040510	0.042400
O281	O28	0.709100	0.019460	0.150900
O291	O29	0.518600	0.518910	0.696300
O301	O30	0.628700	0.373900	0.782400
O311	O31	0.292100	0.382170	0.140300
O321	O32	0.217600	0.532270	0.076200
Cd41	Cd4	0.900480	0.456240	0.414260
