data_BUVHEH_clean_PM
_symmetry_space_group_name_H-M	'P1'
_cell_length_a	9.285000
_cell_length_b	10.369800
_cell_length_c	11.735000
_cell_angle_alpha	96.809000
_cell_angle_beta	93.262000
_cell_angle_gamma	111.427000
_symmetry_Int_Tables_number 1

loop_
_symmetry_equiv_pos_as_xyz
'x,y,z'

loop_
_atom_site_label
_atom_site_type_symbol
_atom_site_fract_x
_atom_site_fract_y
_atom_site_fract_z
Ce11	Ce1	0.029120	0.549660	0.181680
O11	O1	0.951000	0.632600	0.009400
O21	O2	0.872800	0.649100	0.833300
O31	O3	0.153900	0.791700	0.299100
O41	O4	0.270000	0.649700	0.339700
O51	O5	0.778600	0.352900	0.106600
O61	O6	0.740400	0.330900	0.913000
C11	C1	0.923000	0.703400	0.935800
C21	C2	0.958300	0.855000	0.971800
C31	C3	0.920600	0.932300	0.893700
H11	H1	0.867000	0.886900	0.822000
C41	C4	0.038400	0.924600	0.078700
H21	H2	0.064500	0.874700	0.131800
C51	C5	0.261200	0.768000	0.351600
C61	C6	0.386400	0.889100	0.428300
C71	C7	0.491300	0.865400	0.503200
H31	H3	0.486200	0.774500	0.505300
C81	C8	0.396000	0.023900	0.424800
H41	H4	0.326700	0.040800	0.373900
C91	C9	0.716100	0.285300	0.007500
C101	C10	0.602900	0.139000	0.003800
C111	C11	0.537200	0.091500	0.101900
H51	H5	0.561800	0.152700	0.171100
C121	C12	0.564400	0.046000	0.902400
H61	H6	0.607200	0.076000	0.835900
Ce21	Ce2	0.970880	0.450340	0.818320
O71	O7	0.049000	0.367400	0.990600
O81	O8	0.127200	0.350900	0.166700
O91	O9	0.846100	0.208300	0.700900
O101	O10	0.730000	0.350300	0.660300
O111	O11	0.221400	0.647100	0.893400
O121	O12	0.259600	0.669100	0.087000
C131	C13	0.077000	0.296600	0.064200
C141	C14	0.041700	0.145000	0.028200
C151	C15	0.079400	0.067700	0.106300
H71	H7	0.133000	0.113100	0.178000
C161	C16	0.961600	0.075400	0.921300
H81	H8	0.935500	0.125300	0.868200
C171	C17	0.738800	0.232000	0.648400
C181	C18	0.613600	0.110900	0.571700
C191	C19	0.508700	0.134600	0.496800
H91	H9	0.513800	0.225500	0.494700
C201	C20	0.604000	0.976100	0.575200
H101	H10	0.673300	0.959200	0.626100
C211	C21	0.283900	0.714700	0.992500
C221	C22	0.397100	0.861000	0.996200
C231	C23	0.462800	0.908500	0.898100
H111	H11	0.438200	0.847300	0.828900
C241	C24	0.435600	0.954000	0.097600
H121	H12	0.392800	0.924000	0.164100
