data_BUVXOG_clean_PM
_symmetry_space_group_name_H-M	'P1'
_cell_length_a	8.937100
_cell_length_b	16.215500
_cell_length_c	16.215500
_cell_angle_alpha	63.296500
_cell_angle_beta	79.413800
_cell_angle_gamma	100.586000
_symmetry_Int_Tables_number 1

loop_
_symmetry_equiv_pos_as_xyz
'x,y,z'

loop_
_atom_site_label
_atom_site_type_symbol
_atom_site_fract_x
_atom_site_fract_y
_atom_site_fract_z
Fe11	Fe1	0.500000	0.000000	0.500000
Fe21	Fe2	0.000000	0.500000	0.500000
Fe31	Fe3	0.500000	0.500000	0.000000
H11	H1	0.098700	0.980500	0.336500
H21	H2	0.257800	0.087900	0.175400
H31	H3	0.526000	0.164500	0.145800
H41	H4	0.629700	0.131300	0.274000
H51	H5	0.763700	0.727400	0.648300
H61	H6	0.570800	0.603100	0.782300
H71	H7	0.770500	0.664600	0.952700
H81	H8	0.975000	0.786400	0.823100
H91	H9	0.435200	0.336500	0.683000
H101	H10	0.433200	0.175400	0.736700
H111	H11	0.671800	0.145800	0.689700
H121	H12	0.903700	0.274000	0.594700
H131	H13	0.412000	0.648300	0.624300
H141	H14	0.353100	0.782300	0.614600
H151	H15	0.723200	0.952700	0.382700
H161	H16	0.798100	0.823100	0.390500
H171	H17	0.118200	0.683000	0.980500
H181	H18	0.169900	0.736700	0.087900
H191	H19	0.361500	0.689700	0.164500
H201	H20	0.498400	0.594700	0.131300
H211	H21	0.036300	0.624300	0.727400
H221	H22	0.967700	0.614600	0.603100
H231	H23	0.105900	0.382700	0.664600
H241	H24	0.188600	0.390500	0.786400
H251	H25	0.901300	0.019500	0.663500
H261	H26	0.742200	0.912100	0.824600
H271	H27	0.474000	0.835500	0.854200
H281	H28	0.370300	0.868700	0.726000
H291	H29	0.236300	0.272600	0.351700
H301	H30	0.429200	0.396900	0.217700
H311	H31	0.229500	0.335400	0.047300
H321	H32	0.025000	0.213600	0.176900
H331	H33	0.564800	0.663500	0.317000
H341	H34	0.566800	0.824600	0.263300
H351	H35	0.328200	0.854200	0.310300
H361	H36	0.096300	0.726000	0.405300
H371	H37	0.588000	0.351700	0.375700
H381	H38	0.646900	0.217700	0.385400
H391	H39	0.276800	0.047300	0.617300
H401	H40	0.201900	0.176900	0.609500
H411	H41	0.881800	0.317000	0.019500
H421	H42	0.830100	0.263300	0.912100
H431	H43	0.638500	0.310300	0.835500
H441	H44	0.501600	0.405300	0.868700
H451	H45	0.963700	0.375700	0.272600
H461	H46	0.032300	0.385400	0.396900
H471	H47	0.894100	0.617300	0.335400
H481	H48	0.811400	0.609500	0.213600
C11	C1	0.189900	0.932700	0.497800
C21	C2	0.033100	0.841600	0.636500
C31	C3	0.274300	0.994600	0.396200
C41	C4	0.208400	0.012000	0.322400
C51	C5	0.301600	0.075400	0.227400
C61	C6	0.459300	0.120000	0.210200
C71	C7	0.520600	0.099900	0.287000
C81	C8	0.896800	0.770400	0.719200
C91	C9	0.769900	0.714100	0.710600
C101	C10	0.655000	0.640500	0.790900
C111	C11	0.771600	0.675600	0.889900
C121	C12	0.892800	0.749200	0.812900
C131	C13	0.687700	0.497800	0.569500
C141	C14	0.669600	0.636500	0.521900
C151	C15	0.670500	0.396200	0.609200
C161	C16	0.530800	0.322400	0.665600
C171	C17	0.529000	0.227400	0.697200
C181	C18	0.669500	0.210200	0.669800
C191	C19	0.807600	0.287000	0.613100
C201	C20	0.616000	0.719200	0.510400
C211	C21	0.480500	0.710600	0.575300
C221	C22	0.445900	0.790900	0.568600
C231	C23	0.661500	0.889900	0.434500
C241	C24	0.705700	0.812900	0.437900
C251	C25	0.257200	0.569500	0.932700
C261	C26	0.191500	0.521900	0.841600
C271	C27	0.279700	0.609200	0.994600
C281	C28	0.196400	0.665600	0.012000
C291	C29	0.226200	0.697200	0.075400
C301	C30	0.339300	0.669800	0.120000
C311	C31	0.420700	0.613100	0.099900
C321	C32	0.126400	0.510400	0.770400
C331	C33	0.055800	0.575300	0.714100
C341	C34	0.014500	0.568600	0.640500
C351	C35	0.096000	0.434500	0.675600
C361	C36	0.143600	0.437900	0.749200
C371	C37	0.810100	0.067300	0.502200
C381	C38	0.966900	0.158400	0.363500
C391	C39	0.725700	0.005400	0.603800
C401	C40	0.791600	0.988000	0.677600
C411	C41	0.698400	0.924600	0.772600
C421	C42	0.540700	0.880000	0.789800
C431	C43	0.479400	0.900100	0.713000
C441	C44	0.103200	0.229600	0.280800
C451	C45	0.230100	0.285900	0.289400
C461	C46	0.345000	0.359500	0.209100
C471	C47	0.228400	0.324400	0.110100
C481	C48	0.107200	0.250800	0.187100
C491	C49	0.312300	0.502200	0.430500
C501	C50	0.330400	0.363500	0.478100
C511	C51	0.329500	0.603800	0.390800
C521	C52	0.469200	0.677600	0.334400
C531	C53	0.471000	0.772600	0.302800
C541	C54	0.330500	0.789800	0.330200
C551	C55	0.192400	0.713000	0.386900
C561	C56	0.384000	0.280800	0.489600
C571	C57	0.519500	0.289400	0.424700
C581	C58	0.554100	0.209100	0.431400
C591	C59	0.338500	0.110100	0.565500
C601	C60	0.294300	0.187100	0.562100
C611	C61	0.742800	0.430500	0.067300
C621	C62	0.808500	0.478100	0.158400
C631	C63	0.720300	0.390800	0.005400
C641	C64	0.803600	0.334400	0.988000
C651	C65	0.773800	0.302800	0.924600
C661	C66	0.660700	0.330200	0.880000
C671	C67	0.579300	0.386900	0.900100
C681	C68	0.873600	0.489600	0.229600
C691	C69	0.944200	0.424700	0.285900
C701	C70	0.985500	0.431400	0.359500
C711	C71	0.904000	0.565500	0.324400
C721	C72	0.856400	0.562100	0.250800
N11	N1	0.273100	0.932800	0.558500
N21	N2	0.169700	0.873600	0.649900
N31	N3	0.036900	0.876500	0.543600
N41	N4	0.431600	0.037200	0.380300
N51	N5	0.652600	0.617100	0.882400
N61	N6	0.831600	0.558500	0.508700
N71	N7	0.819600	0.649900	0.476500
N81	N8	0.580500	0.543600	0.579900
N91	N9	0.811900	0.380300	0.582500
N101	N10	0.535000	0.882400	0.500500
N111	N11	0.340300	0.508700	0.932800
N121	N12	0.296100	0.476500	0.873600
N131	N13	0.160400	0.579900	0.876500
N141	N14	0.394400	0.582500	0.037200
N151	N15	0.035500	0.500500	0.617100
N161	N16	0.726900	0.067200	0.441500
N171	N17	0.830300	0.126400	0.350100
N181	N18	0.963100	0.123500	0.456400
N191	N19	0.568400	0.962800	0.619700
N201	N20	0.347400	0.382900	0.117600
N211	N21	0.168400	0.441500	0.491300
N221	N22	0.180400	0.350100	0.523500
N231	N23	0.419500	0.456400	0.420100
N241	N24	0.188100	0.619700	0.417500
N251	N25	0.465000	0.117600	0.499500
N261	N26	0.659700	0.491300	0.067200
N271	N27	0.703900	0.523500	0.126400
N281	N28	0.839600	0.420100	0.123500
N291	N29	0.605600	0.417500	0.962800
N301	N30	0.964500	0.499500	0.382900
