data_BUVYEX_clean_PM
_symmetry_space_group_name_H-M	'P1'
_cell_length_a	16.145000
_cell_length_b	17.977500
_cell_length_c	17.977500
_cell_angle_alpha	68.556800
_cell_angle_beta	72.581100
_cell_angle_gamma	107.419000
_symmetry_Int_Tables_number 1

loop_
_symmetry_equiv_pos_as_xyz
'x,y,z'

loop_
_atom_site_label
_atom_site_type_symbol
_atom_site_fract_x
_atom_site_fract_y
_atom_site_fract_z
Fe11	Fe1	0.000000	0.000000	0.500000
Fe21	Fe2	0.500000	0.500000	0.500000
Fe31	Fe3	0.000000	0.500000	0.000000
H11	H1	0.848900	0.052700	0.742500
H21	H2	0.693900	0.934800	0.814200
H31	H3	0.660100	0.842100	0.751500
H41	H4	0.780100	0.869400	0.624000
H51	H5	0.327600	0.274000	0.434000
H61	H6	0.456200	0.381600	0.422500
H71	H7	0.282700	0.427300	0.578600
H81	H8	0.151200	0.321500	0.593700
H91	H9	0.591400	0.742500	0.204800
H101	H10	0.508100	0.814200	0.251000
H111	H11	0.411600	0.751500	0.406400
H121	H12	0.404100	0.624000	0.506600
H131	H13	0.761600	0.434000	0.292000
H141	H14	0.878700	0.422500	0.195900
H151	H15	0.861300	0.578600	0.994100
H161	H16	0.744900	0.593700	0.084800
H171	H17	0.796200	0.204800	0.052700
H181	H18	0.759100	0.251000	0.934800
H191	H19	0.818000	0.406400	0.842100
H201	H20	0.910700	0.506600	0.869400
H211	H21	0.053600	0.292000	0.274000
H221	H22	0.074600	0.195900	0.381600
H231	H23	0.855400	0.994100	0.427300
H241	H24	0.829700	0.084800	0.321500
H251	H25	0.151100	0.947300	0.257500
H261	H26	0.306100	0.065200	0.185800
H271	H27	0.339900	0.157900	0.248500
H281	H28	0.219900	0.130600	0.376000
H291	H29	0.672400	0.726000	0.566000
H301	H30	0.543800	0.618400	0.577500
H311	H31	0.717300	0.572700	0.421400
H321	H32	0.848800	0.678500	0.406300
H331	H33	0.408600	0.257500	0.795200
H341	H34	0.491900	0.185800	0.749000
H351	H35	0.588400	0.248500	0.593600
H361	H36	0.595900	0.376000	0.493400
H371	H37	0.238400	0.566000	0.708000
H381	H38	0.121300	0.577500	0.804100
H391	H39	0.138700	0.421400	0.005900
H401	H40	0.255100	0.406300	0.915200
H411	H41	0.203800	0.795200	0.947300
H421	H42	0.240900	0.749000	0.065200
H431	H43	0.182000	0.593600	0.157900
H441	H44	0.089300	0.493400	0.130600
H451	H45	0.946400	0.708000	0.726000
H461	H46	0.925400	0.804100	0.618400
H471	H47	0.144600	0.005900	0.572700
H481	H48	0.170300	0.915200	0.678500
C11	C1	0.004000	0.095900	0.592800
C21	C2	0.141200	0.202700	0.536100
C31	C3	0.902800	0.025400	0.643200
C41	C4	0.833100	0.014000	0.720300
C51	C5	0.742100	0.945300	0.762000
C61	C6	0.722200	0.889800	0.724500
C71	C7	0.794700	0.906300	0.648300
C81	C8	0.223300	0.279600	0.520900
C91	C9	0.316200	0.303100	0.466400
C101	C10	0.393400	0.369000	0.459100
C111	C11	0.293200	0.395400	0.549100
C121	C12	0.213300	0.330700	0.559700
C131	C13	0.596800	0.592800	0.311300
C141	C14	0.677300	0.536100	0.261200
C151	C15	0.546000	0.643200	0.331400
C161	C16	0.553400	0.720300	0.265700
C171	C17	0.504100	0.762000	0.292700
C181	C18	0.446700	0.724500	0.385700
C191	C19	0.443000	0.648300	0.445400
C201	C20	0.744200	0.520900	0.199500
C211	C21	0.782600	0.466400	0.230500
C221	C22	0.852500	0.459100	0.171900
C231	C23	0.842300	0.549100	0.055500
C241	C24	0.773000	0.559700	0.109600
C251	C25	0.908100	0.311300	0.095900
C261	C26	0.938500	0.261200	0.202700
C271	C27	0.877400	0.331400	0.025400
C281	C28	0.819100	0.265700	0.014000
C291	C29	0.796800	0.292700	0.945300
C301	C30	0.832400	0.385700	0.889800
C311	C31	0.888400	0.445400	0.906300
C321	C32	0.943700	0.199500	0.279600
C331	C33	0.013100	0.230500	0.303100
C341	C34	0.024400	0.171900	0.369000
C351	C35	0.897800	0.055500	0.395400
C361	C36	0.882600	0.109600	0.330700
C371	C37	0.996000	0.904100	0.407200
C381	C38	0.858800	0.797300	0.463900
C391	C39	0.097200	0.974600	0.356800
C401	C40	0.166900	0.986000	0.279700
C411	C41	0.257900	0.054700	0.238000
C421	C42	0.277800	0.110200	0.275500
C431	C43	0.205300	0.093700	0.351700
C441	C44	0.776700	0.720400	0.479100
C451	C45	0.683800	0.696900	0.533600
C461	C46	0.606600	0.631000	0.540900
C471	C47	0.706800	0.604600	0.450900
C481	C48	0.786700	0.669300	0.440300
C491	C49	0.403200	0.407200	0.688700
C501	C50	0.322700	0.463900	0.738800
C511	C51	0.454000	0.356800	0.668600
C521	C52	0.446600	0.279700	0.734300
C531	C53	0.495900	0.238000	0.707300
C541	C54	0.553300	0.275500	0.614300
C551	C55	0.557000	0.351700	0.554600
C561	C56	0.255800	0.479100	0.800500
C571	C57	0.217400	0.533600	0.769500
C581	C58	0.147500	0.540900	0.828100
C591	C59	0.157700	0.450900	0.944500
C601	C60	0.227000	0.440300	0.890400
C611	C61	0.091900	0.688700	0.904100
C621	C62	0.061500	0.738800	0.797300
C631	C63	0.122600	0.668600	0.974600
C641	C64	0.180900	0.734300	0.986000
C651	C65	0.203200	0.707300	0.054700
C661	C66	0.167600	0.614300	0.110200
C671	C67	0.111600	0.554600	0.093700
C681	C68	0.056300	0.800500	0.720400
C691	C69	0.986900	0.769500	0.696900
C701	C70	0.975600	0.828100	0.631000
C711	C71	0.102200	0.944500	0.604600
C721	C72	0.117400	0.890400	0.669300
N11	N1	0.062400	0.095000	0.522000
N21	N2	0.151100	0.163900	0.487100
N31	N3	0.050700	0.163100	0.603900
N41	N4	0.884900	0.972600	0.607500
N51	N5	0.385000	0.416300	0.500100
N61	N6	0.584400	0.522000	0.383000
N71	N7	0.638200	0.487100	0.349000
N81	N8	0.654600	0.603900	0.233000
N91	N9	0.492400	0.607500	0.419900
N101	N10	0.885100	0.500100	0.083600
N111	N11	0.967400	0.383000	0.095000
N121	N12	0.987200	0.349000	0.163900
N131	N13	0.887600	0.233000	0.163100
N141	N14	0.912300	0.419900	0.972600
N151	N15	0.968700	0.083600	0.416300
N161	N16	0.937600	0.905000	0.478000
N171	N17	0.848900	0.836100	0.512900
N181	N18	0.949300	0.836900	0.396100
N191	N19	0.115100	0.027400	0.392500
N201	N20	0.615000	0.583700	0.499900
N211	N21	0.415600	0.478000	0.617000
N221	N22	0.361800	0.512900	0.651000
N231	N23	0.345400	0.396100	0.767000
N241	N24	0.507600	0.392500	0.580100
N251	N25	0.114900	0.499900	0.916400
N261	N26	0.032600	0.617000	0.905000
N271	N27	0.012800	0.651000	0.836100
N281	N28	0.112400	0.767000	0.836900
N291	N29	0.087700	0.580100	0.027400
N301	N30	0.031300	0.916400	0.583700
Fe41	Fe4	0.000000	0.500000	0.500000
Fe51	Fe5	0.500000	0.000000	0.500000
Fe61	Fe6	0.500000	0.500000	0.000000
H491	H49	0.908600	0.204800	0.742500
H501	H50	0.991900	0.251000	0.814200
H511	H51	0.088400	0.406400	0.751500
H521	H52	0.095900	0.506600	0.624000
H531	H53	0.738400	0.292000	0.434000
H541	H54	0.621300	0.195900	0.422500
H551	H55	0.638700	0.994100	0.578600
H561	H56	0.755100	0.084800	0.593700
H571	H57	0.703800	0.052700	0.204800
H581	H58	0.740900	0.934800	0.251000
H591	H59	0.682000	0.842100	0.406400
H601	H60	0.589300	0.869400	0.506600
H611	H61	0.446400	0.274000	0.292000
H621	H62	0.425400	0.381600	0.195900
H631	H63	0.644600	0.427300	0.994100
H641	H64	0.670300	0.321500	0.084800
H651	H65	0.651100	0.742500	0.052700
H661	H66	0.806100	0.814200	0.934800
H671	H67	0.839900	0.751500	0.842100
H681	H68	0.719900	0.624000	0.869400
H691	H69	0.172400	0.434000	0.274000
H701	H70	0.043800	0.422500	0.381600
H711	H71	0.217300	0.578600	0.427300
H721	H72	0.348800	0.593700	0.321500
H731	H73	0.091400	0.795200	0.257500
H741	H74	0.008100	0.749000	0.185800
H751	H75	0.911600	0.593600	0.248500
H761	H76	0.904100	0.493400	0.376000
H771	H77	0.261600	0.708000	0.566000
H781	H78	0.378700	0.804100	0.577500
H791	H79	0.361300	0.005900	0.421400
H801	H80	0.244900	0.915200	0.406300
H811	H81	0.296200	0.947300	0.795200
H821	H82	0.259100	0.065200	0.749000
H831	H83	0.318000	0.157900	0.593600
H841	H84	0.410700	0.130600	0.493400
H851	H85	0.553600	0.726000	0.708000
H861	H86	0.574600	0.618400	0.804100
H871	H87	0.355400	0.572700	0.005900
H881	H88	0.329700	0.678500	0.915200
H891	H89	0.348900	0.257500	0.947300
H901	H90	0.193900	0.185800	0.065200
H911	H91	0.160100	0.248500	0.157900
H921	H92	0.280100	0.376000	0.130600
H931	H93	0.827600	0.566000	0.726000
H941	H94	0.956200	0.577500	0.618400
H951	H95	0.782700	0.421400	0.572700
H961	H96	0.651200	0.406300	0.678500
C731	C73	0.903200	0.311300	0.592800
C741	C74	0.822700	0.261200	0.536100
C751	C75	0.954000	0.331400	0.643200
C761	C76	0.946600	0.265700	0.720300
C771	C77	0.995900	0.292700	0.762000
C781	C78	0.053300	0.385700	0.724500
C791	C79	0.057000	0.445400	0.648300
C801	C80	0.755800	0.199500	0.520900
C811	C81	0.717400	0.230500	0.466400
C821	C82	0.647500	0.171900	0.459100
C831	C83	0.657700	0.055500	0.549100
C841	C84	0.727000	0.109600	0.559700
C851	C85	0.591900	0.095900	0.311300
C861	C86	0.561500	0.202700	0.261200
C871	C87	0.622600	0.025400	0.331400
C881	C88	0.680900	0.014000	0.265700
C891	C89	0.703200	0.945300	0.292700
C901	C90	0.667600	0.889800	0.385700
C911	C91	0.611600	0.906300	0.445400
C921	C92	0.556300	0.279600	0.199500
C931	C93	0.486900	0.303100	0.230500
C941	C94	0.475600	0.369000	0.171900
C951	C95	0.602200	0.395400	0.055500
C961	C96	0.617400	0.330700	0.109600
C971	C97	0.496000	0.592800	0.095900
C981	C98	0.358800	0.536100	0.202700
C991	C99	0.597200	0.643200	0.025400
C1001	C100	0.666900	0.720300	0.014000
C1011	C101	0.757900	0.762000	0.945300
C1021	C102	0.777800	0.724500	0.889800
C1031	C103	0.705300	0.648300	0.906300
C1041	C104	0.276700	0.520900	0.279600
C1051	C105	0.183800	0.466400	0.303100
C1061	C106	0.106600	0.459100	0.369000
C1071	C107	0.206800	0.549100	0.395400
C1081	C108	0.286700	0.559700	0.330700
C1091	C109	0.096800	0.688700	0.407200
C1101	C110	0.177300	0.738800	0.463900
C1111	C111	0.046000	0.668600	0.356800
C1121	C112	0.053400	0.734300	0.279700
C1131	C113	0.004100	0.707300	0.238000
C1141	C114	0.946700	0.614300	0.275500
C1151	C115	0.943000	0.554600	0.351700
C1161	C116	0.244200	0.800500	0.479100
C1171	C117	0.282600	0.769500	0.533600
C1181	C118	0.352500	0.828100	0.540900
C1191	C119	0.342300	0.944500	0.450900
C1201	C120	0.273000	0.890400	0.440300
C1211	C121	0.408100	0.904100	0.688700
C1221	C122	0.438500	0.797300	0.738800
C1231	C123	0.377400	0.974600	0.668600
C1241	C124	0.319100	0.986000	0.734300
C1251	C125	0.296800	0.054700	0.707300
C1261	C126	0.332400	0.110200	0.614300
C1271	C127	0.388400	0.093700	0.554600
C1281	C128	0.443700	0.720400	0.800500
C1291	C129	0.513100	0.696900	0.769500
C1301	C130	0.524400	0.631000	0.828100
C1311	C131	0.397800	0.604600	0.944500
C1321	C132	0.382600	0.669300	0.890400
C1331	C133	0.504000	0.407200	0.904100
C1341	C134	0.641200	0.463900	0.797300
C1351	C135	0.402800	0.356800	0.974600
C1361	C136	0.333100	0.279700	0.986000
C1371	C137	0.242100	0.238000	0.054700
C1381	C138	0.222200	0.275500	0.110200
C1391	C139	0.294700	0.351700	0.093700
C1401	C140	0.723300	0.479100	0.720400
C1411	C141	0.816200	0.533600	0.696900
C1421	C142	0.893400	0.540900	0.631000
C1431	C143	0.793200	0.450900	0.604600
C1441	C144	0.713300	0.440300	0.669300
N311	N31	0.915600	0.383000	0.522000
N321	N32	0.861800	0.349000	0.487100
N331	N33	0.845400	0.233000	0.603900
N341	N34	0.007600	0.419900	0.607500
N351	N35	0.614900	0.083600	0.500100
N361	N36	0.532600	0.095000	0.383000
N371	N37	0.512800	0.163900	0.349000
N381	N38	0.612400	0.163100	0.233000
N391	N39	0.587700	0.972600	0.419900
N401	N40	0.531300	0.416300	0.083600
N411	N41	0.437600	0.522000	0.095000
N421	N42	0.348900	0.487100	0.163900
N431	N43	0.449300	0.603900	0.163100
N441	N44	0.615100	0.607500	0.972600
N451	N45	0.115000	0.500100	0.416300
N461	N46	0.084400	0.617000	0.478000
N471	N47	0.138200	0.651000	0.512900
N481	N48	0.154600	0.767000	0.396100
N491	N49	0.992400	0.580100	0.392500
N501	N50	0.385100	0.916400	0.499900
N511	N51	0.467400	0.905000	0.617000
N521	N52	0.487200	0.836100	0.651000
N531	N53	0.387600	0.836900	0.767000
N541	N54	0.412300	0.027400	0.580100
N551	N55	0.468700	0.583700	0.916400
N561	N56	0.562400	0.478000	0.905000
N571	N57	0.651100	0.512900	0.836100
N581	N58	0.550700	0.396100	0.836900
N591	N59	0.384900	0.392500	0.027400
N601	N60	0.885000	0.499900	0.583700
