data_BUWMIR_clean_PM
_symmetry_space_group_name_H-M	'P1'
_cell_length_a	17.629000
_cell_length_b	19.797000
_cell_length_c	13.256600
_cell_angle_alpha	90.000000
_cell_angle_beta	131.700000
_cell_angle_gamma	90.000000
_symmetry_Int_Tables_number 1

loop_
_symmetry_equiv_pos_as_xyz
'x,y,z'

loop_
_atom_site_label
_atom_site_type_symbol
_atom_site_fract_x
_atom_site_fract_y
_atom_site_fract_z
Ce11	Ce1	0.392370	0.017380	0.284680
Ce21	Ce2	0.107520	0.767380	0.215200
O11	O1	0.471840	0.115770	0.259300
O21	O2	0.560700	0.212540	0.332400
O31	O3	0.397900	0.004640	0.480800
O41	O4	0.442700	0.041400	0.674500
O51	O5	0.212910	0.865430	0.241000
O61	O6	0.228500	0.962300	0.167400
O71	O7	0.917120	0.754880	0.018700
O81	O8	0.767890	0.791460	0.825100
N11	N1	0.485300	0.111310	0.471200
N21	N2	0.013900	0.860690	0.028200
C11	C1	0.530600	0.162790	0.464900
C21	C2	0.583100	0.212660	0.563800
H11	H1	0.616400	0.247100	0.559000
C31	C3	0.584800	0.209900	0.669700
H21	H2	0.617900	0.243200	0.736000
C41	C4	0.536200	0.156610	0.675500
H31	H3	0.535500	0.153900	0.744900
C51	C5	0.489100	0.107820	0.575700
C61	C6	0.519900	0.163910	0.341800
C71	C7	0.439300	0.046460	0.577300
C81	C8	0.066100	0.912370	0.035200
C91	C9	0.019400	0.962900	0.936100
H41	H4	0.057400	0.997700	0.941200
C101	C10	0.915500	0.959600	0.830500
H51	H5	0.882300	0.992700	0.763800
C111	C11	0.861100	0.906790	0.824500
H61	H6	0.790900	0.904300	0.755300
C121	C12	0.913700	0.857760	0.923900
C131	C13	0.178500	0.913540	0.157800
C141	C14	0.862400	0.796080	0.922800
Ce31	Ce3	0.892370	0.517380	0.284680
Ce41	Ce4	0.607520	0.267380	0.215200
O91	O9	0.971840	0.615770	0.259300
O101	O10	0.060700	0.712540	0.332400
O111	O11	0.897900	0.504640	0.480800
O121	O12	0.942700	0.541400	0.674500
O131	O13	0.712910	0.365430	0.241000
O141	O14	0.728500	0.462300	0.167400
O151	O15	0.417120	0.254880	0.018700
O161	O16	0.267890	0.291460	0.825100
N31	N3	0.985300	0.611310	0.471200
N41	N4	0.513900	0.360690	0.028200
C151	C15	0.030600	0.662790	0.464900
C161	C16	0.083100	0.712660	0.563800
H71	H7	0.116400	0.747100	0.559000
C171	C17	0.084800	0.709900	0.669700
H81	H8	0.117900	0.743200	0.736000
C181	C18	0.036200	0.656610	0.675500
H91	H9	0.035500	0.653900	0.744900
C191	C19	0.989100	0.607820	0.575700
C201	C20	0.019900	0.663910	0.341800
C211	C21	0.939300	0.546460	0.577300
C221	C22	0.566100	0.412370	0.035200
C231	C23	0.519400	0.462900	0.936100
H101	H10	0.557400	0.497700	0.941200
C241	C24	0.415500	0.459600	0.830500
H111	H11	0.382300	0.492700	0.763800
C251	C25	0.361100	0.406790	0.824500
H121	H12	0.290900	0.404300	0.755300
C261	C26	0.413700	0.357760	0.923900
C271	C27	0.678500	0.413540	0.157800
C281	C28	0.362400	0.296080	0.922800
Ce51	Ce5	0.392370	0.982620	0.784680
Ce61	Ce6	0.107520	0.232620	0.715200
O171	O17	0.471840	0.884230	0.759300
O181	O18	0.560700	0.787460	0.832400
O191	O19	0.397900	0.995360	0.980800
O201	O20	0.442700	0.958600	0.174500
O211	O21	0.212910	0.134570	0.741000
O221	O22	0.228500	0.037700	0.667400
O231	O23	0.917120	0.245120	0.518700
O241	O24	0.767890	0.208540	0.325100
N51	N5	0.485300	0.888690	0.971200
N61	N6	0.013900	0.139310	0.528200
C291	C29	0.530600	0.837210	0.964900
C301	C30	0.583100	0.787340	0.063800
H131	H13	0.616400	0.752900	0.059000
C311	C31	0.584800	0.790100	0.169700
H141	H14	0.617900	0.756800	0.236000
C321	C32	0.536200	0.843390	0.175500
H151	H15	0.535500	0.846100	0.244900
C331	C33	0.489100	0.892180	0.075700
C341	C34	0.519900	0.836090	0.841800
C351	C35	0.439300	0.953540	0.077300
C361	C36	0.066100	0.087630	0.535200
C371	C37	0.019400	0.037100	0.436100
H161	H16	0.057400	0.002300	0.441200
C381	C38	0.915500	0.040400	0.330500
H171	H17	0.882300	0.007300	0.263800
C391	C39	0.861100	0.093210	0.324500
H181	H18	0.790900	0.095700	0.255300
C401	C40	0.913700	0.142240	0.423900
C411	C41	0.178500	0.086460	0.657800
C421	C42	0.862400	0.203920	0.422800
Ce71	Ce7	0.892370	0.482620	0.784680
Ce81	Ce8	0.607520	0.732620	0.715200
O251	O25	0.971840	0.384230	0.759300
O261	O26	0.060700	0.287460	0.832400
O271	O27	0.897900	0.495360	0.980800
O281	O28	0.942700	0.458600	0.174500
O291	O29	0.712910	0.634570	0.741000
O301	O30	0.728500	0.537700	0.667400
O311	O31	0.417120	0.745120	0.518700
O321	O32	0.267890	0.708540	0.325100
N71	N7	0.985300	0.388690	0.971200
N81	N8	0.513900	0.639310	0.528200
C431	C43	0.030600	0.337210	0.964900
C441	C44	0.083100	0.287340	0.063800
H191	H19	0.116400	0.252900	0.059000
C451	C45	0.084800	0.290100	0.169700
H201	H20	0.117900	0.256800	0.236000
C461	C46	0.036200	0.343390	0.175500
H211	H21	0.035500	0.346100	0.244900
C471	C47	0.989100	0.392180	0.075700
C481	C48	0.019900	0.336090	0.841800
C491	C49	0.939300	0.453540	0.077300
C501	C50	0.566100	0.587630	0.535200
C511	C51	0.519400	0.537100	0.436100
H221	H22	0.557400	0.502300	0.441200
C521	C52	0.415500	0.540400	0.330500
H231	H23	0.382300	0.507300	0.263800
C531	C53	0.361100	0.593210	0.324500
H241	H24	0.290900	0.595700	0.255300
C541	C54	0.413700	0.642240	0.423900
C551	C55	0.678500	0.586460	0.657800
C561	C56	0.362400	0.703920	0.422800
