data_c5cc09432a_c5cc09432a2_clean_PM
_symmetry_space_group_name_H-M	'P1'
_cell_length_a	15.606900
_cell_length_b	26.432500
_cell_length_c	16.622100
_cell_angle_alpha	90.000000
_cell_angle_beta	90.155000
_cell_angle_gamma	90.000000
_symmetry_Int_Tables_number 1

loop_
_symmetry_equiv_pos_as_xyz
'x,y,z'

loop_
_atom_site_label
_atom_site_type_symbol
_atom_site_fract_x
_atom_site_fract_y
_atom_site_fract_z
Co11	Co1	0.415820	0.363290	0.749520
Co21	Co2	0.545110	0.256550	0.751910
Co31	Co3	0.138830	0.123290	0.250120
O11	O1	0.619900	0.264280	0.649700
O21	O2	0.706400	0.330950	0.672600
C11	C1	0.683100	0.291900	0.635300
O31	O3	0.865600	0.189290	0.329200
C21	C2	0.895800	0.226600	0.366400
O41	O4	0.963600	0.249930	0.351400
C31	C3	0.843600	0.244500	0.436900
C41	C4	0.789800	0.287100	0.427500
C51	C5	0.785400	0.314600	0.353800
H11	H1	0.821100	0.305600	0.310700
C61	C6	0.730600	0.353400	0.345700
H21	H2	0.726400	0.370100	0.295800
C71	C7	0.679200	0.369800	0.410000
H31	H3	0.643100	0.397900	0.403200
C81	C8	0.681300	0.345400	0.481700
H41	H4	0.646400	0.356700	0.524100
C91	C9	0.736000	0.302900	0.493300
C101	C10	0.738700	0.275900	0.565800
C111	C11	0.790900	0.233700	0.574700
C121	C12	0.794300	0.205500	0.648200
H51	H5	0.761400	0.216000	0.692400
C131	C13	0.843800	0.163900	0.654600
H61	H6	0.844700	0.145900	0.703400
C141	C14	0.894400	0.146900	0.590000
H71	H7	0.927500	0.117400	0.595400
C151	C15	0.895200	0.172900	0.520200
H81	H8	0.930500	0.161800	0.478100
C161	C16	0.843500	0.217100	0.508900
O51	O5	0.442300	0.243110	0.674700
O61	O6	0.387100	0.319980	0.651300
C171	C17	0.396900	0.274100	0.637800
O71	O7	0.150600	0.238790	0.328300
O81	O8	0.191700	0.158700	0.349900
C181	C18	0.191300	0.205100	0.364000
C191	C19	0.244600	0.222500	0.435600
C201	C20	0.205800	0.233000	0.508100
C211	C21	0.114300	0.230400	0.519100
H91	H9	0.078900	0.223100	0.474800
C221	C22	0.078400	0.238300	0.592600
H101	H10	0.018600	0.236000	0.598400
C231	C23	0.130200	0.249900	0.660400
H111	H11	0.104600	0.254700	0.711000
C241	C24	0.216300	0.254000	0.652700
H121	H12	0.249900	0.261300	0.698300
C251	C25	0.257100	0.247500	0.576500
C261	C26	0.344900	0.254100	0.566200
C271	C27	0.384100	0.245600	0.492900
C281	C28	0.474200	0.253100	0.480600
H131	H13	0.509000	0.263100	0.524000
C291	C29	0.509300	0.246000	0.408400
H141	H14	0.568300	0.251700	0.401500
C301	C30	0.459300	0.230000	0.341800
H151	H15	0.485000	0.225200	0.291300
C311	C31	0.374500	0.221500	0.351100
H161	H16	0.342200	0.210300	0.306700
C321	C32	0.333100	0.228900	0.425500
O91	O9	0.078500	0.071190	0.324900
O101	O10	0.941100	0.091690	0.348100
C331	C33	0.009400	0.068200	0.362900
C341	C34	0.126600	0.104600	0.588200
H171	H17	0.157300	0.135100	0.593500
C351	C35	0.093100	0.091400	0.515800
H181	H18	0.101500	0.112800	0.471300
C361	C36	0.045800	0.046300	0.505900
C371	C37	0.006400	0.032500	0.434000
C381	C38	0.963500	0.986900	0.426200
C391	C39	0.927600	0.971500	0.350900
H191	H19	0.934000	0.992200	0.305400
C401	C40	0.884400	0.927200	0.344400
H201	H20	0.861500	0.917500	0.294300
O111	O11	0.948400	0.079940	0.170200
O121	O12	0.089000	0.088670	0.147500
C411	C41	0.016100	0.071180	0.132500
C421	C42	0.975900	0.051500	0.989900
C431	C43	0.009000	0.035000	0.063400
C441	C44	0.032700	0.984600	0.076000
C451	C45	0.065300	0.966800	0.150100
H211	H21	0.072300	0.989600	0.192900
C461	C46	0.086500	0.918500	0.160700
H221	H22	0.106200	0.907700	0.211400
C471	C47	0.080100	0.882600	0.097000
H231	H23	0.097500	0.849000	0.105000
C481	C48	0.048600	0.897500	0.024700
H241	H24	0.042800	0.873500	0.983200
N11	N1	0.571000	0.176730	0.752600
C491	C49	0.581700	0.150900	0.685800
H251	H25	0.567600	0.166900	0.637000
C501	C50	0.612100	0.102100	0.682500
H261	H26	0.618000	0.085700	0.632600
C511	C51	0.633600	0.077500	0.752000
C521	C52	0.621700	0.103800	0.821900
H271	H27	0.636000	0.088800	0.871400
C531	C53	0.588800	0.152600	0.820200
H281	H28	0.578700	0.169200	0.869300
C541	C54	0.673000	0.026000	0.750900
C551	C55	0.698200	0.002000	0.679900
H291	H29	0.686500	0.017100	0.629900
C561	C56	0.739700	0.956600	0.683100
H301	H30	0.754000	0.940800	0.634300
N21	N2	0.761000	0.933460	0.751300
C571	C57	0.734600	0.954600	0.818500
H311	H31	0.746800	0.938000	0.867200
C581	C58	0.690100	0.999600	0.821400
H321	H32	0.671300	0.012400	0.871100
O131	O13	0.533180	0.332130	0.756580
Co41	Co4	0.084180	0.863290	0.750480
Co51	Co5	0.954890	0.756550	0.748090
Co61	Co6	0.361170	0.623290	0.249880
O141	O14	0.880100	0.764280	0.850300
O151	O15	0.793600	0.830950	0.827400
C591	C59	0.816900	0.791900	0.864700
O161	O16	0.634400	0.689290	0.170800
C601	C60	0.604200	0.726600	0.133600
O171	O17	0.536400	0.749930	0.148600
C611	C61	0.656400	0.744500	0.063100
C621	C62	0.710200	0.787100	0.072500
C631	C63	0.714600	0.814600	0.146200
H331	H33	0.678900	0.805600	0.189300
C641	C64	0.769400	0.853400	0.154300
H341	H34	0.773600	0.870100	0.204200
C651	C65	0.820800	0.869800	0.090000
H351	H35	0.856900	0.897900	0.096800
C661	C66	0.818700	0.845400	0.018300
H361	H36	0.853600	0.856700	0.975900
C671	C67	0.764000	0.802900	0.006700
C681	C68	0.761300	0.775900	0.934200
C691	C69	0.709100	0.733700	0.925300
C701	C70	0.705700	0.705500	0.851800
H371	H37	0.738600	0.716000	0.807600
C711	C71	0.656200	0.663900	0.845400
H381	H38	0.655300	0.645900	0.796600
C721	C72	0.605600	0.646900	0.910000
H391	H39	0.572500	0.617400	0.904600
C731	C73	0.604800	0.672900	0.979800
H401	H40	0.569500	0.661800	0.021900
C741	C74	0.656500	0.717100	0.991100
O181	O18	0.057700	0.743110	0.825300
O191	O19	0.112900	0.819980	0.848700
C751	C75	0.103100	0.774100	0.862200
O201	O20	0.349400	0.738790	0.171700
O211	O21	0.308300	0.658700	0.150100
C761	C76	0.308700	0.705100	0.136000
C771	C77	0.255400	0.722500	0.064400
C781	C78	0.294200	0.733000	0.991900
C791	C79	0.385700	0.730400	0.980900
H411	H41	0.421100	0.723100	0.025200
C801	C80	0.421600	0.738300	0.907400
H421	H42	0.481400	0.736000	0.901600
C811	C81	0.369800	0.749900	0.839600
H431	H43	0.395400	0.754700	0.789000
C821	C82	0.283700	0.754000	0.847300
H441	H44	0.250100	0.761300	0.801700
C831	C83	0.242900	0.747500	0.923500
C841	C84	0.155100	0.754100	0.933800
C851	C85	0.115900	0.745600	0.007100
C861	C86	0.025800	0.753100	0.019400
H451	H45	0.991000	0.763100	0.976000
C871	C87	0.990700	0.746000	0.091600
H461	H46	0.931700	0.751700	0.098500
C881	C88	0.040700	0.730000	0.158200
H471	H47	0.015000	0.725200	0.208700
C891	C89	0.125500	0.721500	0.148900
H481	H48	0.157800	0.710300	0.193300
C901	C90	0.166900	0.728900	0.074500
O221	O22	0.421500	0.571190	0.175100
O231	O23	0.558900	0.591690	0.151900
C911	C91	0.490600	0.568200	0.137100
C921	C92	0.373400	0.604600	0.911800
H491	H49	0.342700	0.635100	0.906500
C931	C93	0.406900	0.591400	0.984200
H501	H50	0.398500	0.612800	0.028700
C941	C94	0.454200	0.546300	0.994100
C951	C95	0.493600	0.532500	0.066000
C961	C96	0.536500	0.486900	0.073800
C971	C97	0.572400	0.471500	0.149100
H511	H51	0.566000	0.492200	0.194600
C981	C98	0.615600	0.427200	0.155600
H521	H52	0.638500	0.417500	0.205700
O241	O24	0.551600	0.579940	0.329800
O251	O25	0.411000	0.588670	0.352500
C991	C99	0.483900	0.571180	0.367500
C1001	C100	0.524100	0.551500	0.510100
C1011	C101	0.491000	0.535000	0.436600
C1021	C102	0.467300	0.484600	0.424000
C1031	C103	0.434700	0.466800	0.349900
H531	H53	0.427700	0.489600	0.307100
C1041	C104	0.413500	0.418500	0.339300
H541	H54	0.393800	0.407700	0.288600
C1051	C105	0.419900	0.382600	0.403000
H551	H55	0.402500	0.349000	0.395000
C1061	C106	0.451400	0.397500	0.475300
H561	H56	0.457200	0.373500	0.516800
N31	N3	0.929000	0.676730	0.747400
C1071	C107	0.918300	0.650900	0.814200
H571	H57	0.932400	0.666900	0.863000
C1081	C108	0.887900	0.602100	0.817500
H581	H58	0.882000	0.585700	0.867400
C1091	C109	0.866400	0.577500	0.748000
C1101	C110	0.878300	0.603800	0.678100
H591	H59	0.864000	0.588800	0.628600
C1111	C111	0.911200	0.652600	0.679800
H601	H60	0.921300	0.669200	0.630700
C1121	C112	0.827000	0.526000	0.749100
C1131	C113	0.801800	0.502000	0.820100
H611	H61	0.813500	0.517100	0.870100
C1141	C114	0.760300	0.456600	0.816900
H621	H62	0.746000	0.440800	0.865700
N41	N4	0.739000	0.433460	0.748700
C1151	C115	0.765400	0.454600	0.681500
H631	H63	0.753200	0.438000	0.632800
C1161	C116	0.809900	0.499600	0.678600
H641	H64	0.828700	0.512400	0.628900
O261	O26	0.966820	0.832130	0.743420
Co71	Co7	0.584180	0.636710	0.250480
Co81	Co8	0.454890	0.743450	0.248090
Co91	Co9	0.861170	0.876710	0.749880
O271	O27	0.380100	0.735720	0.350300
O281	O28	0.293600	0.669050	0.327400
C1171	C117	0.316900	0.708100	0.364700
O291	O29	0.134400	0.810710	0.670800
C1181	C118	0.104200	0.773400	0.633600
O301	O30	0.036400	0.750070	0.648600
C1191	C119	0.156400	0.755500	0.563100
C1201	C120	0.210200	0.712900	0.572500
C1211	C121	0.214600	0.685400	0.646200
H651	H65	0.178900	0.694400	0.689300
C1221	C122	0.269400	0.646600	0.654300
H661	H66	0.273600	0.629900	0.704200
C1231	C123	0.320800	0.630200	0.590000
H671	H67	0.356900	0.602100	0.596800
C1241	C124	0.318700	0.654600	0.518300
H681	H68	0.353600	0.643300	0.475900
C1251	C125	0.264000	0.697100	0.506700
C1261	C126	0.261300	0.724100	0.434200
C1271	C127	0.209100	0.766300	0.425300
C1281	C128	0.205700	0.794500	0.351800
H691	H69	0.238600	0.784000	0.307600
C1291	C129	0.156200	0.836100	0.345400
H701	H70	0.155300	0.854100	0.296600
C1301	C130	0.105600	0.853100	0.410000
H711	H71	0.072500	0.882600	0.404600
C1311	C131	0.104800	0.827100	0.479800
H721	H72	0.069500	0.838200	0.521900
C1321	C132	0.156500	0.782900	0.491100
O311	O31	0.557700	0.756890	0.325300
O321	O32	0.612900	0.680020	0.348700
C1331	C133	0.603100	0.725900	0.362200
O331	O33	0.849400	0.761210	0.671700
O341	O34	0.808300	0.841300	0.650100
C1341	C134	0.808700	0.794900	0.636000
C1351	C135	0.755400	0.777500	0.564400
C1361	C136	0.794200	0.767000	0.491900
C1371	C137	0.885700	0.769600	0.480900
H731	H73	0.921100	0.776900	0.525200
C1381	C138	0.921600	0.761700	0.407400
H741	H74	0.981400	0.764000	0.401600
C1391	C139	0.869800	0.750100	0.339600
H751	H75	0.895400	0.745300	0.289000
C1401	C140	0.783700	0.746000	0.347300
H761	H76	0.750100	0.738700	0.301700
C1411	C141	0.742900	0.752500	0.423500
C1421	C142	0.655100	0.745900	0.433800
C1431	C143	0.615900	0.754400	0.507100
C1441	C144	0.525800	0.746900	0.519400
H771	H77	0.491000	0.736900	0.476000
C1451	C145	0.490700	0.754000	0.591600
H781	H78	0.431700	0.748300	0.598500
C1461	C146	0.540700	0.770000	0.658200
H791	H79	0.515000	0.774800	0.708700
C1471	C147	0.625500	0.778500	0.648900
H801	H80	0.657800	0.789700	0.693300
C1481	C148	0.666900	0.771100	0.574500
O351	O35	0.921500	0.928810	0.675100
O361	O36	0.058900	0.908310	0.651900
C1491	C149	0.990600	0.931800	0.637100
C1501	C150	0.873400	0.895400	0.411800
H811	H81	0.842700	0.864900	0.406500
C1511	C151	0.906900	0.908600	0.484200
H821	H82	0.898500	0.887200	0.528700
C1521	C152	0.954200	0.953700	0.494100
C1531	C153	0.993600	0.967500	0.566000
C1541	C154	0.036500	0.013100	0.573800
C1551	C155	0.072400	0.028500	0.649100
H831	H83	0.066000	0.007800	0.694600
C1561	C156	0.115600	0.072800	0.655600
H841	H84	0.138500	0.082500	0.705700
O371	O37	0.051600	0.920060	0.829800
O381	O38	0.911000	0.911330	0.852500
C1571	C157	0.983900	0.928820	0.867500
C1581	C158	0.024100	0.948500	0.010100
C1591	C159	0.991000	0.965000	0.936600
C1601	C160	0.967300	0.015400	0.924000
C1611	C161	0.934700	0.033200	0.849900
H851	H85	0.927700	0.010400	0.807100
C1621	C162	0.913500	0.081500	0.839300
H861	H86	0.893800	0.092300	0.788600
C1631	C163	0.919900	0.117400	0.903000
H871	H87	0.902500	0.151000	0.895000
C1641	C164	0.951400	0.102500	0.975300
H881	H88	0.957200	0.126500	0.016800
N51	N5	0.429000	0.823270	0.247400
C1651	C165	0.418300	0.849100	0.314200
H891	H89	0.432400	0.833100	0.363000
C1661	C166	0.387900	0.897900	0.317500
H901	H90	0.382000	0.914300	0.367400
C1671	C167	0.366400	0.922500	0.248000
C1681	C168	0.378300	0.896200	0.178100
H911	H91	0.364000	0.911200	0.128600
C1691	C169	0.411200	0.847400	0.179800
H921	H92	0.421300	0.830800	0.130700
C1701	C170	0.327000	0.974000	0.249100
C1711	C171	0.301800	0.998000	0.320100
H931	H93	0.313500	0.982900	0.370100
C1721	C172	0.260300	0.043400	0.316900
H941	H94	0.246000	0.059200	0.365700
N61	N6	0.239000	0.066540	0.248700
C1731	C173	0.265400	0.045400	0.181500
H951	H95	0.253200	0.062000	0.132800
C1741	C174	0.309900	0.000400	0.178600
H961	H96	0.328700	0.987600	0.128900
O391	O39	0.466820	0.667870	0.243420
Co101	Co10	0.915820	0.136710	0.249520
Co111	Co11	0.045110	0.243450	0.251910
Co121	Co12	0.638830	0.376710	0.750120
O401	O40	0.119900	0.235720	0.149700
O411	O41	0.206400	0.169050	0.172600
C1751	C175	0.183100	0.208100	0.135300
O421	O42	0.365600	0.310710	0.829200
C1761	C176	0.395800	0.273400	0.866400
O431	O43	0.463600	0.250070	0.851400
C1771	C177	0.343600	0.255500	0.936900
C1781	C178	0.289800	0.212900	0.927500
C1791	C179	0.285400	0.185400	0.853800
H971	H97	0.321100	0.194400	0.810700
C1801	C180	0.230600	0.146600	0.845700
H981	H98	0.226400	0.129900	0.795800
C1811	C181	0.179200	0.130200	0.910000
H991	H99	0.143100	0.102100	0.903200
C1821	C182	0.181300	0.154600	0.981700
H1001	H100	0.146400	0.143300	0.024100
C1831	C183	0.236000	0.197100	0.993300
C1841	C184	0.238700	0.224100	0.065800
C1851	C185	0.290900	0.266300	0.074700
C1861	C186	0.294300	0.294500	0.148200
H1011	H101	0.261400	0.284000	0.192400
C1871	C187	0.343800	0.336100	0.154600
H1021	H102	0.344700	0.354100	0.203400
C1881	C188	0.394400	0.353100	0.090000
H1031	H103	0.427500	0.382600	0.095400
C1891	C189	0.395200	0.327100	0.020200
H1041	H104	0.430500	0.338200	0.978100
C1901	C190	0.343500	0.282900	0.008900
O441	O44	0.942300	0.256890	0.174700
O451	O45	0.887100	0.180020	0.151300
C1911	C191	0.896900	0.225900	0.137800
O461	O46	0.650600	0.261210	0.828300
O471	O47	0.691700	0.341300	0.849900
C1921	C192	0.691300	0.294900	0.864000
C1931	C193	0.744600	0.277500	0.935600
C1941	C194	0.705800	0.267000	0.008100
C1951	C195	0.614300	0.269600	0.019100
H1051	H105	0.578900	0.276900	0.974800
C1961	C196	0.578400	0.261700	0.092600
H1061	H106	0.518600	0.264000	0.098400
C1971	C197	0.630200	0.250100	0.160400
H1071	H107	0.604600	0.245300	0.211000
C1981	C198	0.716300	0.246000	0.152700
H1081	H108	0.749900	0.238700	0.198300
C1991	C199	0.757100	0.252500	0.076500
C2001	C200	0.844900	0.245900	0.066200
C2011	C201	0.884100	0.254400	0.992900
C2021	C202	0.974200	0.246900	0.980600
H1091	H109	0.009000	0.236900	0.024000
C2031	C203	0.009300	0.254000	0.908400
H1101	H110	0.068300	0.248300	0.901500
C2041	C204	0.959300	0.270000	0.841800
H1111	H111	0.985000	0.274800	0.791300
C2051	C205	0.874500	0.278500	0.851100
H1121	H112	0.842200	0.289700	0.806700
C2061	C206	0.833100	0.271100	0.925500
O481	O48	0.578500	0.428810	0.824900
O491	O49	0.441100	0.408310	0.848100
C2071	C207	0.509400	0.431800	0.862900
C2081	C208	0.626600	0.395400	0.088200
H1131	H113	0.657300	0.364900	0.093500
C2091	C209	0.593100	0.408600	0.015800
H1141	H114	0.601500	0.387200	0.971300
C2101	C210	0.545800	0.453700	0.005900
C2111	C211	0.506400	0.467500	0.934000
C2121	C212	0.463500	0.513100	0.926200
C2131	C213	0.427600	0.528500	0.850900
H1151	H115	0.434000	0.507800	0.805400
C2141	C214	0.384400	0.572800	0.844400
H1161	H116	0.361500	0.582500	0.794300
O501	O50	0.448400	0.420060	0.670200
O511	O51	0.589000	0.411330	0.647500
C2151	C215	0.516100	0.428820	0.632500
C2161	C216	0.475900	0.448500	0.489900
C2171	C217	0.509000	0.465000	0.563400
C2181	C218	0.532700	0.515400	0.576000
C2191	C219	0.565300	0.533200	0.650100
H1171	H117	0.572300	0.510400	0.692900
C2201	C220	0.586500	0.581500	0.660700
H1181	H118	0.606200	0.592300	0.711400
C2211	C221	0.580100	0.617400	0.597000
H1191	H119	0.597500	0.651000	0.605000
C2221	C222	0.548600	0.602500	0.524700
H1201	H120	0.542800	0.626500	0.483200
N71	N7	0.071000	0.323270	0.252600
C2231	C223	0.081700	0.349100	0.185800
H1211	H121	0.067600	0.333100	0.137000
C2241	C224	0.112100	0.397900	0.182500
H1221	H122	0.118000	0.414300	0.132600
C2251	C225	0.133600	0.422500	0.252000
C2261	C226	0.121700	0.396200	0.321900
H1231	H123	0.136000	0.411200	0.371400
C2271	C227	0.088800	0.347400	0.320200
H1241	H124	0.078700	0.330800	0.369300
C2281	C228	0.173000	0.474000	0.250900
C2291	C229	0.198200	0.498000	0.179900
H1251	H125	0.186500	0.482900	0.129900
C2301	C230	0.239700	0.543400	0.183100
H1261	H126	0.254000	0.559200	0.134300
N81	N8	0.261000	0.566540	0.251300
C2311	C231	0.234600	0.545400	0.318500
H1271	H127	0.246800	0.562000	0.367200
C2321	C232	0.190100	0.500400	0.321400
H1281	H128	0.171300	0.487600	0.371100
O521	O52	0.033180	0.167870	0.256580
