data_c5cc10203k_c5cc10203k2_clean_PM
_symmetry_space_group_name_H-M	'P1'
_cell_length_a	21.211100
_cell_length_b	21.211100
_cell_length_c	21.211100
_cell_angle_alpha	90.000000
_cell_angle_beta	90.000000
_cell_angle_gamma	90.000000
_symmetry_Int_Tables_number 1

loop_
_symmetry_equiv_pos_as_xyz
'x,y,z'

loop_
_atom_site_label
_atom_site_type_symbol
_atom_site_fract_x
_atom_site_fract_y
_atom_site_fract_z
N11	N1	0.566700	0.695300	0.064500
C11	C1	0.583500	0.756200	0.082000
H11	H1	0.565800	0.791300	0.060500
C21	C2	0.626000	0.765700	0.131000
H21	H2	0.637400	0.807300	0.143000
C31	C3	0.651800	0.714300	0.162400
C41	C4	0.635100	0.653400	0.144900
H31	H3	0.652700	0.618300	0.166400
C51	C5	0.592500	0.643900	0.095900
H41	H4	0.581100	0.602300	0.084000
C61	C6	0.693300	0.725000	0.216400
C71	C7	0.744100	0.681600	0.229300
H51	H5	0.748800	0.644600	0.204500
N21	N2	0.433300	0.304700	0.064500
C81	C8	0.416500	0.243800	0.082000
H61	H6	0.434200	0.208700	0.060500
C91	C9	0.374000	0.234300	0.131000
H71	H7	0.362600	0.192700	0.143000
C101	C10	0.348200	0.285700	0.162400
C111	C11	0.364900	0.346600	0.144900
H81	H8	0.347300	0.381700	0.166400
C121	C12	0.407500	0.356100	0.095900
H91	H9	0.418900	0.397700	0.084000
C131	C13	0.306700	0.275000	0.216400
C141	C14	0.255900	0.318400	0.229300
H101	H10	0.251200	0.355400	0.204500
N31	N3	0.433300	0.695300	0.935500
C151	C15	0.416500	0.756200	0.918000
H111	H11	0.434200	0.791300	0.939500
C161	C16	0.374000	0.765700	0.869000
H121	H12	0.362600	0.807300	0.857000
C171	C17	0.348200	0.714300	0.837600
C181	C18	0.364900	0.653400	0.855100
H131	H13	0.347300	0.618300	0.833600
C191	C19	0.407500	0.643900	0.904100
H141	H14	0.418900	0.602300	0.916000
C201	C20	0.306700	0.725000	0.783600
C211	C21	0.255900	0.681600	0.770700
H151	H15	0.251200	0.644600	0.795500
N41	N4	0.566700	0.304700	0.935500
C221	C22	0.583500	0.243800	0.918000
H161	H16	0.565800	0.208700	0.939500
C231	C23	0.626000	0.234300	0.869000
H171	H17	0.637400	0.192700	0.857000
C241	C24	0.651800	0.285700	0.837600
C251	C25	0.635100	0.346600	0.855100
H181	H18	0.652700	0.381700	0.833600
C261	C26	0.592500	0.356100	0.904100
H191	H19	0.581100	0.397700	0.916000
C271	C27	0.693300	0.275000	0.783600
C281	C28	0.744100	0.318400	0.770700
H201	H20	0.748800	0.355400	0.795500
N51	N5	0.064500	0.566700	0.695300
C291	C29	0.082000	0.583500	0.756200
H211	H21	0.060500	0.565800	0.791300
C301	C30	0.131000	0.626000	0.765700
H221	H22	0.143000	0.637400	0.807300
C311	C31	0.162400	0.651800	0.714300
C321	C32	0.144900	0.635100	0.653400
H231	H23	0.166400	0.652700	0.618300
C331	C33	0.095900	0.592500	0.643900
H241	H24	0.084000	0.581100	0.602300
C341	C34	0.216400	0.693300	0.725000
C351	C35	0.229300	0.744100	0.681600
H251	H25	0.204500	0.748800	0.644600
N61	N6	0.064500	0.433300	0.304700
C361	C36	0.082000	0.416500	0.243800
H261	H26	0.060500	0.434200	0.208700
C371	C37	0.131000	0.374000	0.234300
H271	H27	0.143000	0.362600	0.192700
C381	C38	0.162400	0.348200	0.285700
C391	C39	0.144900	0.364900	0.346600
H281	H28	0.166400	0.347300	0.381700
C401	C40	0.095900	0.407500	0.356100
H291	H29	0.084000	0.418900	0.397700
C411	C41	0.216400	0.306700	0.275000
C421	C42	0.229300	0.255900	0.318400
H301	H30	0.204500	0.251200	0.355400
N71	N7	0.935500	0.433300	0.695300
C431	C43	0.918000	0.416500	0.756200
H311	H31	0.939500	0.434200	0.791300
C441	C44	0.869000	0.374000	0.765700
H321	H32	0.857000	0.362600	0.807300
C451	C45	0.837600	0.348200	0.714300
C461	C46	0.855100	0.364900	0.653400
H331	H33	0.833600	0.347300	0.618300
C471	C47	0.904100	0.407500	0.643900
H341	H34	0.916000	0.418900	0.602300
C481	C48	0.783600	0.306700	0.725000
C491	C49	0.770700	0.255900	0.681600
H351	H35	0.795500	0.251200	0.644600
N81	N8	0.935500	0.566700	0.304700
C501	C50	0.918000	0.583500	0.243800
H361	H36	0.939500	0.565800	0.208700
C511	C51	0.869000	0.626000	0.234300
H371	H37	0.857000	0.637400	0.192700
C521	C52	0.837600	0.651800	0.285700
C531	C53	0.855100	0.635100	0.346600
H381	H38	0.833600	0.652700	0.381700
C541	C54	0.904100	0.592500	0.356100
H391	H39	0.916000	0.581100	0.397700
C551	C55	0.783600	0.693300	0.275000
C561	C56	0.770700	0.744100	0.318400
H401	H40	0.795500	0.748800	0.355400
N91	N9	0.695300	0.064500	0.566700
C571	C57	0.756200	0.082000	0.583500
H411	H41	0.791300	0.060500	0.565800
C581	C58	0.765700	0.131000	0.626000
H421	H42	0.807300	0.143000	0.637400
C591	C59	0.714300	0.162400	0.651800
C601	C60	0.653400	0.144900	0.635100
H431	H43	0.618300	0.166400	0.652700
C611	C61	0.643900	0.095900	0.592500
H441	H44	0.602300	0.084000	0.581100
C621	C62	0.725000	0.216400	0.693300
C631	C63	0.681600	0.229300	0.744100
H451	H45	0.644600	0.204500	0.748800
N101	N10	0.304700	0.064500	0.433300
C641	C64	0.243800	0.082000	0.416500
H461	H46	0.208700	0.060500	0.434200
C651	C65	0.234300	0.131000	0.374000
H471	H47	0.192700	0.143000	0.362600
C661	C66	0.285700	0.162400	0.348200
C671	C67	0.346600	0.144900	0.364900
H481	H48	0.381700	0.166400	0.347300
C681	C68	0.356100	0.095900	0.407500
H491	H49	0.397700	0.084000	0.418900
C691	C69	0.275000	0.216400	0.306700
C701	C70	0.318400	0.229300	0.255900
H501	H50	0.355400	0.204500	0.251200
N111	N11	0.695300	0.935500	0.433300
C711	C71	0.756200	0.918000	0.416500
H511	H51	0.791300	0.939500	0.434200
C721	C72	0.765700	0.869000	0.374000
H521	H52	0.807300	0.857000	0.362600
C731	C73	0.714300	0.837600	0.348200
C741	C74	0.653400	0.855100	0.364900
H531	H53	0.618300	0.833600	0.347300
C751	C75	0.643900	0.904100	0.407500
H541	H54	0.602300	0.916000	0.418900
C761	C76	0.725000	0.783600	0.306700
C771	C77	0.681600	0.770700	0.255900
H551	H55	0.644600	0.795500	0.251200
N121	N12	0.304700	0.935500	0.566700
C781	C78	0.243800	0.918000	0.583500
H561	H56	0.208700	0.939500	0.565800
C791	C79	0.234300	0.869000	0.626000
H571	H57	0.192700	0.857000	0.637400
C801	C80	0.285700	0.837600	0.651800
C811	C81	0.346600	0.855100	0.635100
H581	H58	0.381700	0.833600	0.652700
C821	C82	0.356100	0.904100	0.592500
H591	H59	0.397700	0.916000	0.581100
C831	C83	0.275000	0.783600	0.693300
C841	C84	0.318400	0.770700	0.744100
H601	H60	0.355400	0.795500	0.748800
N131	N13	0.433300	0.304700	0.935500
C851	C85	0.416500	0.243800	0.918000
H611	H61	0.434200	0.208700	0.939500
C861	C86	0.374000	0.234300	0.869000
H621	H62	0.362600	0.192700	0.857000
C871	C87	0.348200	0.285700	0.837600
C881	C88	0.364900	0.346600	0.855100
H631	H63	0.347300	0.381700	0.833600
C891	C89	0.407500	0.356100	0.904100
H641	H64	0.418900	0.397700	0.916000
C901	C90	0.306700	0.275000	0.783600
C911	C91	0.255900	0.318400	0.770700
H651	H65	0.251200	0.355400	0.795500
N141	N14	0.566700	0.695300	0.935500
C921	C92	0.583500	0.756200	0.918000
H661	H66	0.565800	0.791300	0.939500
C931	C93	0.626000	0.765700	0.869000
H671	H67	0.637400	0.807300	0.857000
C941	C94	0.651800	0.714300	0.837600
C951	C95	0.635100	0.653400	0.855100
H681	H68	0.652700	0.618300	0.833600
C961	C96	0.592500	0.643900	0.904100
H691	H69	0.581100	0.602300	0.916000
C971	C97	0.693300	0.725000	0.783600
C981	C98	0.744100	0.681600	0.770700
H701	H70	0.748800	0.644600	0.795500
N151	N15	0.566700	0.304700	0.064500
C991	C99	0.583500	0.243800	0.082000
H711	H71	0.565800	0.208700	0.060500
C1001	C100	0.626000	0.234300	0.131000
H721	H72	0.637400	0.192700	0.143000
C1011	C101	0.651800	0.285700	0.162400
C1021	C102	0.635100	0.346600	0.144900
H731	H73	0.652700	0.381700	0.166400
C1031	C103	0.592500	0.356100	0.095900
H741	H74	0.581100	0.397700	0.084000
C1041	C104	0.693300	0.275000	0.216400
C1051	C105	0.744100	0.318400	0.229300
H751	H75	0.748800	0.355400	0.204500
N161	N16	0.433300	0.695300	0.064500
C1061	C106	0.416500	0.756200	0.082000
H761	H76	0.434200	0.791300	0.060500
C1071	C107	0.374000	0.765700	0.131000
H771	H77	0.362600	0.807300	0.143000
C1081	C108	0.348200	0.714300	0.162400
C1091	C109	0.364900	0.653400	0.144900
H781	H78	0.347300	0.618300	0.166400
C1101	C110	0.407500	0.643900	0.095900
H791	H79	0.418900	0.602300	0.084000
C1111	C111	0.306700	0.725000	0.216400
C1121	C112	0.255900	0.681600	0.229300
H801	H80	0.251200	0.644600	0.204500
N171	N17	0.935500	0.433300	0.304700
C1131	C113	0.918000	0.416500	0.243800
H811	H81	0.939500	0.434200	0.208700
C1141	C114	0.869000	0.374000	0.234300
H821	H82	0.857000	0.362600	0.192700
C1151	C115	0.837600	0.348200	0.285700
C1161	C116	0.855100	0.364900	0.346600
H831	H83	0.833600	0.347300	0.381700
C1171	C117	0.904100	0.407500	0.356100
H841	H84	0.916000	0.418900	0.397700
C1181	C118	0.783600	0.306700	0.275000
C1191	C119	0.770700	0.255900	0.318400
H851	H85	0.795500	0.251200	0.355400
N181	N18	0.935500	0.566700	0.695300
C1201	C120	0.918000	0.583500	0.756200
H861	H86	0.939500	0.565800	0.791300
C1211	C121	0.869000	0.626000	0.765700
H871	H87	0.857000	0.637400	0.807300
C1221	C122	0.837600	0.651800	0.714300
C1231	C123	0.855100	0.635100	0.653400
H881	H88	0.833600	0.652700	0.618300
C1241	C124	0.904100	0.592500	0.643900
H891	H89	0.916000	0.581100	0.602300
C1251	C125	0.783600	0.693300	0.725000
C1261	C126	0.770700	0.744100	0.681600
H901	H90	0.795500	0.748800	0.644600
N191	N19	0.064500	0.566700	0.304700
C1271	C127	0.082000	0.583500	0.243800
H911	H91	0.060500	0.565800	0.208700
C1281	C128	0.131000	0.626000	0.234300
H921	H92	0.143000	0.637400	0.192700
C1291	C129	0.162400	0.651800	0.285700
C1301	C130	0.144900	0.635100	0.346600
H931	H93	0.166400	0.652700	0.381700
C1311	C131	0.095900	0.592500	0.356100
H941	H94	0.084000	0.581100	0.397700
C1321	C132	0.216400	0.693300	0.275000
C1331	C133	0.229300	0.744100	0.318400
H951	H95	0.204500	0.748800	0.355400
N201	N20	0.064500	0.433300	0.695300
C1341	C134	0.082000	0.416500	0.756200
H961	H96	0.060500	0.434200	0.791300
C1351	C135	0.131000	0.374000	0.765700
H971	H97	0.143000	0.362600	0.807300
C1361	C136	0.162400	0.348200	0.714300
C1371	C137	0.144900	0.364900	0.653400
H981	H98	0.166400	0.347300	0.618300
C1381	C138	0.095900	0.407500	0.643900
H991	H99	0.084000	0.418900	0.602300
C1391	C139	0.216400	0.306700	0.725000
C1401	C140	0.229300	0.255900	0.681600
H1001	H100	0.204500	0.251200	0.644600
N211	N21	0.304700	0.935500	0.433300
C1411	C141	0.243800	0.918000	0.416500
H1011	H101	0.208700	0.939500	0.434200
C1421	C142	0.234300	0.869000	0.374000
H1021	H102	0.192700	0.857000	0.362600
C1431	C143	0.285700	0.837600	0.348200
C1441	C144	0.346600	0.855100	0.364900
H1031	H103	0.381700	0.833600	0.347300
C1451	C145	0.356100	0.904100	0.407500
H1041	H104	0.397700	0.916000	0.418900
C1461	C146	0.275000	0.783600	0.306700
C1471	C147	0.318400	0.770700	0.255900
H1051	H105	0.355400	0.795500	0.251200
N221	N22	0.695300	0.935500	0.566700
C1481	C148	0.756200	0.918000	0.583500
H1061	H106	0.791300	0.939500	0.565800
C1491	C149	0.765700	0.869000	0.626000
H1071	H107	0.807300	0.857000	0.637400
C1501	C150	0.714300	0.837600	0.651800
C1511	C151	0.653400	0.855100	0.635100
H1081	H108	0.618300	0.833600	0.652700
C1521	C152	0.643900	0.904100	0.592500
H1091	H109	0.602300	0.916000	0.581100
C1531	C153	0.725000	0.783600	0.693300
C1541	C154	0.681600	0.770700	0.744100
H1101	H110	0.644600	0.795500	0.748800
N231	N23	0.304700	0.064500	0.566700
C1551	C155	0.243800	0.082000	0.583500
H1111	H111	0.208700	0.060500	0.565800
C1561	C156	0.234300	0.131000	0.626000
H1121	H112	0.192700	0.143000	0.637400
C1571	C157	0.285700	0.162400	0.651800
C1581	C158	0.346600	0.144900	0.635100
H1131	H113	0.381700	0.166400	0.652700
C1591	C159	0.356100	0.095900	0.592500
H1141	H114	0.397700	0.084000	0.581100
C1601	C160	0.275000	0.216400	0.693300
C1611	C161	0.318400	0.229300	0.744100
H1151	H115	0.355400	0.204500	0.748800
N241	N24	0.695300	0.064500	0.433300
C1621	C162	0.756200	0.082000	0.416500
H1161	H116	0.791300	0.060500	0.434200
C1631	C163	0.765700	0.131000	0.374000
H1171	H117	0.807300	0.143000	0.362600
C1641	C164	0.714300	0.162400	0.348200
C1651	C165	0.653400	0.144900	0.364900
H1181	H118	0.618300	0.166400	0.347300
C1661	C166	0.643900	0.095900	0.407500
H1191	H119	0.602300	0.084000	0.418900
C1671	C167	0.725000	0.216400	0.306700
C1681	C168	0.681600	0.229300	0.255900
H1201	H120	0.644600	0.204500	0.251200
Cu11	Cu1	0.500000	0.687790	0.000000
Cu21	Cu2	0.500000	0.312210	0.000000
Cu31	Cu3	0.000000	0.500000	0.687790
Cu41	Cu4	0.000000	0.500000	0.312210
Cu51	Cu5	0.687790	0.000000	0.500000
Cu61	Cu6	0.312210	0.000000	0.500000
