data_c5dt00281h_c5dt00281h2_clean_PM
_symmetry_space_group_name_H-M	'P1'
_cell_length_a	6.611800
_cell_length_b	12.432500
_cell_length_c	8.807500
_cell_angle_alpha	90.000000
_cell_angle_beta	107.723000
_cell_angle_gamma	90.000000
_symmetry_Int_Tables_number 1

loop_
_symmetry_equiv_pos_as_xyz
'x,y,z'

loop_
_atom_site_label
_atom_site_type_symbol
_atom_site_fract_x
_atom_site_fract_y
_atom_site_fract_z
F11	F1	0.218300	0.380550	0.542500
N11	N1	0.797200	0.125000	0.858900
N21	N2	0.589000	0.121200	0.850100
N31	N3	0.481200	0.192700	0.750600
N41	N4	0.616200	0.247100	0.689200
C11	C1	0.808200	0.205000	0.759300
N51	N5	0.989700	0.236000	0.730600
H11	H1	0.986500	0.286300	0.662900
H21	H2	0.108000	0.205400	0.780200
F21	F2	0.781700	0.380550	0.457500
N61	N6	0.202800	0.125000	0.141100
N71	N7	0.411000	0.121200	0.149900
N81	N8	0.518800	0.192700	0.249400
N91	N9	0.383800	0.247100	0.310800
C21	C2	0.191800	0.205000	0.240700
N101	N10	0.010300	0.236000	0.269400
H31	H3	0.013500	0.286300	0.337100
H41	H4	0.892000	0.205400	0.219800
F31	F3	0.781700	0.619450	0.457500
N111	N11	0.202800	0.875000	0.141100
N121	N12	0.411000	0.878800	0.149900
N131	N13	0.518800	0.807300	0.249400
N141	N14	0.383800	0.752900	0.310800
C31	C3	0.191800	0.795000	0.240700
N151	N15	0.010300	0.764000	0.269400
H51	H5	0.013500	0.713700	0.337100
H61	H6	0.892000	0.794600	0.219800
F41	F4	0.218300	0.619450	0.542500
N161	N16	0.797200	0.875000	0.858900
N171	N17	0.589000	0.878800	0.850100
N181	N18	0.481200	0.807300	0.750600
N191	N19	0.616200	0.752900	0.689200
C41	C4	0.808200	0.795000	0.759300
N201	N20	0.989700	0.764000	0.730600
H71	H7	0.986500	0.713700	0.662900
H81	H8	0.108000	0.794600	0.780200
Fe11	Fe1	0.500000	0.000000	0.000000
Fe21	Fe2	0.000000	0.000000	0.000000
Fe31	Fe3	0.500000	0.366530	0.500000
Fe41	Fe4	0.500000	0.633470	0.500000
Fe51	Fe5	0.000000	0.500000	0.500000
F51	F5	0.804200	0.000000	0.138800
F61	F6	0.195800	0.000000	0.861200
O11	O1	0.606100	0.500000	0.666000
O21	O2	0.996500	0.500000	0.257700
C51	C5	0.176000	0.500000	0.229000
O31	O3	0.393900	0.500000	0.334000
O41	O4	0.003500	0.500000	0.742300
C61	C6	0.824000	0.500000	0.771000
