data_c5gc02393a_c5gc02393a2_clean_PM
_symmetry_space_group_name_H-M	'P1'
_cell_length_a	14.626100
_cell_length_b	23.252600
_cell_length_c	15.735700
_cell_angle_alpha	90.000000
_cell_angle_beta	107.099000
_cell_angle_gamma	90.000000
_symmetry_Int_Tables_number 1

loop_
_symmetry_equiv_pos_as_xyz
'x,y,z'

loop_
_atom_site_label
_atom_site_type_symbol
_atom_site_fract_x
_atom_site_fract_y
_atom_site_fract_z
Cd11	Cd1	0.257270	0.300730	0.696770
Cd21	Cd2	0.235090	0.437740	0.583740
C11	C1	0.840900	0.293100	0.660700
C21	C2	0.929500	0.299600	0.721300
H11	H1	0.940700	0.285800	0.778900
C31	C3	0.002500	0.326800	0.696700
H21	H2	0.062500	0.331000	0.738000
C41	C4	0.986700	0.347700	0.611700
C51	C5	0.896300	0.341000	0.551300
H31	H3	0.884600	0.355200	0.493900
C61	C6	0.823800	0.313700	0.575300
H41	H4	0.763900	0.309200	0.534100
C71	C7	0.062300	0.378100	0.585100
C81	C8	0.782000	0.211400	0.730200
C91	C9	0.851000	0.173600	0.717900
H51	H5	0.888200	0.183800	0.681500
C101	C10	0.863800	0.120400	0.760600
H61	H6	0.912200	0.096100	0.755000
C111	C11	0.806600	0.103600	0.810200
C121	C12	0.738300	0.141100	0.822700
H71	H7	0.699300	0.129800	0.856900
C131	C13	0.727500	0.194800	0.785200
H81	H8	0.683500	0.220300	0.796600
C141	C14	0.184900	0.544200	0.649500
C151	C15	0.675200	0.291300	0.665000
C161	C16	0.667400	0.349400	0.677200
H91	H9	0.722400	0.371600	0.698000
C171	C17	0.579300	0.375100	0.658900
H101	H10	0.575400	0.414500	0.667200
C181	C18	0.495400	0.342800	0.627800
C191	C19	0.503700	0.285300	0.614400
H111	H11	0.448700	0.263100	0.593800
C201	C20	0.592300	0.259300	0.630700
H121	H12	0.596300	0.220400	0.618700
C211	C21	0.399500	0.371400	0.611400
C221	C22	0.167900	0.487900	0.400800
C231	C23	0.165900	0.504400	0.307100
C241	C24	0.086900	0.533100	0.252600
H131	H13	0.036200	0.542700	0.274400
C251	C25	0.082800	0.547500	0.167500
H141	H14	0.028600	0.565800	0.131700
C261	C26	0.158200	0.535400	0.133300
C271	C27	0.238000	0.508100	0.189000
H151	H15	0.290800	0.501100	0.169100
C281	C28	0.239800	0.491400	0.273300
H161	H16	0.292100	0.470900	0.308100
C291	C29	0.186000	0.506800	0.992200
C301	C30	0.172200	0.449200	0.003400
H171	H17	0.143600	0.437300	0.045900
C311	C31	0.200400	0.409000	0.952200
H181	H18	0.192400	0.370200	0.962100
C321	C32	0.239800	0.424800	0.887300
C331	C33	0.253500	0.482200	0.875100
H191	H19	0.280800	0.493500	0.831300
C341	C34	0.227200	0.524200	0.927000
H201	H20	0.237100	0.563000	0.918200
C351	C35	0.265300	0.380000	0.826800
C361	C36	0.908800	0.094000	0.500200
C371	C37	0.971100	0.086100	0.584500
H211	H21	0.968000	0.052500	0.615700
C381	C38	0.038100	0.127700	0.622800
H221	H22	0.079100	0.121700	0.679700
C391	C39	0.045200	0.177800	0.578500
C401	C40	0.978100	0.187000	0.495900
H231	H23	0.979100	0.221300	0.465800
C411	C41	0.910800	0.146300	0.458600
H241	H24	0.865700	0.153800	0.404300
C421	C42	0.122200	0.220500	0.616000
N11	N1	0.765700	0.265100	0.686400
N21	N2	0.154500	0.549500	0.044800
O11	O1	0.041800	0.404980	0.513000
O21	O2	0.147400	0.376340	0.636900
O31	O3	0.258800	0.525500	0.633600
O41	O4	0.108700	0.516990	0.636400
O51	O5	0.395000	0.424100	0.612100
O61	O6	0.326200	0.340100	0.596200
O71	O7	0.224600	0.449700	0.440300
O81	O8	0.111400	0.515230	0.433700
O91	O9	0.312600	0.396200	0.776800
O101	O10	0.236000	0.329300	0.829600
O111	O11	0.161700	0.221000	0.698000
O121	O12	0.148000	0.254500	0.565600
Cd31	Cd3	0.742730	0.800730	0.803230
Cd41	Cd4	0.764910	0.937740	0.916260
C431	C43	0.159100	0.793100	0.839300
C441	C44	0.070500	0.799600	0.778700
H251	H25	0.059300	0.785800	0.721100
C451	C45	0.997500	0.826800	0.803300
H261	H26	0.937500	0.831000	0.762000
C461	C46	0.013300	0.847700	0.888300
C471	C47	0.103700	0.841000	0.948700
H271	H27	0.115400	0.855200	0.006100
C481	C48	0.176200	0.813700	0.924700
H281	H28	0.236100	0.809200	0.965900
C491	C49	0.937700	0.878100	0.914900
C501	C50	0.218000	0.711400	0.769800
C511	C51	0.149000	0.673600	0.782100
H291	H29	0.111800	0.683800	0.818500
C521	C52	0.136200	0.620400	0.739400
H301	H30	0.087800	0.596100	0.745000
C531	C53	0.193400	0.603600	0.689800
C541	C54	0.261700	0.641100	0.677300
H311	H31	0.300700	0.629800	0.643100
C551	C55	0.272500	0.694800	0.714800
H321	H32	0.316500	0.720300	0.703400
C561	C56	0.815100	0.044200	0.850500
C571	C57	0.324800	0.791300	0.835000
C581	C58	0.332600	0.849400	0.822800
H331	H33	0.277600	0.871600	0.802000
C591	C59	0.420700	0.875100	0.841100
H341	H34	0.424600	0.914500	0.832800
C601	C60	0.504600	0.842800	0.872200
C611	C61	0.496300	0.785300	0.885600
H351	H35	0.551300	0.763100	0.906200
C621	C62	0.407700	0.759300	0.869300
H361	H36	0.403700	0.720400	0.881300
C631	C63	0.600500	0.871400	0.888600
C641	C64	0.832100	0.987900	0.099200
C651	C65	0.834100	0.004400	0.192900
C661	C66	0.913100	0.033100	0.247400
H371	H37	0.963800	0.042700	0.225600
C671	C67	0.917200	0.047500	0.332500
H381	H38	0.971400	0.065800	0.368300
C681	C68	0.841800	0.035400	0.366700
C691	C69	0.762000	0.008100	0.311000
H391	H39	0.709200	0.001100	0.330900
C701	C70	0.760200	0.991400	0.226700
H401	H40	0.707900	0.970900	0.191900
C711	C71	0.814000	0.006800	0.507800
C721	C72	0.827800	0.949200	0.496600
H411	H41	0.856400	0.937300	0.454100
C731	C73	0.799600	0.909000	0.547800
H421	H42	0.807600	0.870200	0.537900
C741	C74	0.760200	0.924800	0.612700
C751	C75	0.746500	0.982200	0.624900
H431	H43	0.719200	0.993500	0.668700
C761	C76	0.772800	0.024200	0.573000
H441	H44	0.762900	0.063000	0.581800
C771	C77	0.734700	0.880000	0.673200
C781	C78	0.091200	0.594000	0.999800
C791	C79	0.028900	0.586100	0.915500
H451	H45	0.032000	0.552500	0.884300
C801	C80	0.961900	0.627700	0.877200
H461	H46	0.920900	0.621700	0.820300
C811	C81	0.954800	0.677800	0.921500
C821	C82	0.021900	0.687000	0.004100
H471	H47	0.020900	0.721300	0.034200
C831	C83	0.089200	0.646300	0.041400
H481	H48	0.134300	0.653800	0.095700
C841	C84	0.877800	0.720500	0.884000
N31	N3	0.234300	0.765100	0.813600
N41	N4	0.845500	0.049500	0.455200
O131	O13	0.958200	0.904980	0.987000
O141	O14	0.852600	0.876340	0.863100
O151	O15	0.741200	0.025500	0.866400
O161	O16	0.891300	0.016990	0.863600
O171	O17	0.605000	0.924100	0.887900
O181	O18	0.673800	0.840100	0.903800
O191	O19	0.775400	0.949700	0.059700
O201	O20	0.888600	0.015230	0.066300
O211	O21	0.687400	0.896200	0.723200
O221	O22	0.764000	0.829300	0.670400
O231	O23	0.838300	0.721000	0.802000
O241	O24	0.852000	0.754500	0.934400
Cd51	Cd5	0.742730	0.699270	0.303230
Cd61	Cd6	0.764910	0.562260	0.416260
C851	C85	0.159100	0.706900	0.339300
C861	C86	0.070500	0.700400	0.278700
H491	H49	0.059300	0.714200	0.221100
C871	C87	0.997500	0.673200	0.303300
H501	H50	0.937500	0.669000	0.262000
C881	C88	0.013300	0.652300	0.388300
C891	C89	0.103700	0.659000	0.448700
H511	H51	0.115400	0.644800	0.506100
C901	C90	0.176200	0.686300	0.424700
H521	H52	0.236100	0.690800	0.465900
C911	C91	0.937700	0.621900	0.414900
C921	C92	0.218000	0.788600	0.269800
C931	C93	0.149000	0.826400	0.282100
H531	H53	0.111800	0.816200	0.318500
C941	C94	0.136200	0.879600	0.239400
H541	H54	0.087800	0.903900	0.245000
C951	C95	0.193400	0.896400	0.189800
C961	C96	0.261700	0.858900	0.177300
H551	H55	0.300700	0.870200	0.143100
C971	C97	0.272500	0.805200	0.214800
H561	H56	0.316500	0.779700	0.203400
C981	C98	0.815100	0.455800	0.350500
C991	C99	0.324800	0.708700	0.335000
C1001	C100	0.332600	0.650600	0.322800
H571	H57	0.277600	0.628400	0.302000
C1011	C101	0.420700	0.624900	0.341100
H581	H58	0.424600	0.585500	0.332800
C1021	C102	0.504600	0.657200	0.372200
C1031	C103	0.496300	0.714700	0.385600
H591	H59	0.551300	0.736900	0.406200
C1041	C104	0.407700	0.740700	0.369300
H601	H60	0.403700	0.779600	0.381300
C1051	C105	0.600500	0.628600	0.388600
C1061	C106	0.832100	0.512100	0.599200
C1071	C107	0.834100	0.495600	0.692900
C1081	C108	0.913100	0.466900	0.747400
H611	H61	0.963800	0.457300	0.725600
C1091	C109	0.917200	0.452500	0.832500
H621	H62	0.971400	0.434200	0.868300
C1101	C110	0.841800	0.464600	0.866700
C1111	C111	0.762000	0.491900	0.811000
H631	H63	0.709200	0.498900	0.830900
C1121	C112	0.760200	0.508600	0.726700
H641	H64	0.707900	0.529100	0.691900
C1131	C113	0.814000	0.493200	0.007800
C1141	C114	0.827800	0.550800	0.996600
H651	H65	0.856400	0.562700	0.954100
C1151	C115	0.799600	0.591000	0.047800
H661	H66	0.807600	0.629800	0.037900
C1161	C116	0.760200	0.575200	0.112700
C1171	C117	0.746500	0.517800	0.124900
H671	H67	0.719200	0.506500	0.168700
C1181	C118	0.772800	0.475800	0.073000
H681	H68	0.762900	0.437000	0.081800
C1191	C119	0.734700	0.620000	0.173200
C1201	C120	0.091200	0.906000	0.499800
C1211	C121	0.028900	0.913900	0.415500
H691	H69	0.032000	0.947500	0.384300
C1221	C122	0.961900	0.872300	0.377200
H701	H70	0.920900	0.878300	0.320300
C1231	C123	0.954800	0.822200	0.421500
C1241	C124	0.021900	0.813000	0.504100
H711	H71	0.020900	0.778700	0.534200
C1251	C125	0.089200	0.853700	0.541400
H721	H72	0.134300	0.846200	0.595700
C1261	C126	0.877800	0.779500	0.384000
N51	N5	0.234300	0.734900	0.313600
N61	N6	0.845500	0.450500	0.955200
O251	O25	0.958200	0.595020	0.487000
O261	O26	0.852600	0.623660	0.363100
O271	O27	0.741200	0.474500	0.366400
O281	O28	0.891300	0.483010	0.363600
O291	O29	0.605000	0.575900	0.387900
O301	O30	0.673800	0.659900	0.403800
O311	O31	0.775400	0.550300	0.559700
O321	O32	0.888600	0.484770	0.566300
O331	O33	0.687400	0.603800	0.223200
O341	O34	0.764000	0.670700	0.170400
O351	O35	0.838300	0.779000	0.302000
O361	O36	0.852000	0.745500	0.434400
Cd71	Cd7	0.257270	0.199270	0.196770
Cd81	Cd8	0.235090	0.062260	0.083740
C1271	C127	0.840900	0.206900	0.160700
C1281	C128	0.929500	0.200400	0.221300
H731	H73	0.940700	0.214200	0.278900
C1291	C129	0.002500	0.173200	0.196700
H741	H74	0.062500	0.169000	0.238000
C1301	C130	0.986700	0.152300	0.111700
C1311	C131	0.896300	0.159000	0.051300
H751	H75	0.884600	0.144800	0.993900
C1321	C132	0.823800	0.186300	0.075300
H761	H76	0.763900	0.190800	0.034100
C1331	C133	0.062300	0.121900	0.085100
C1341	C134	0.782000	0.288600	0.230200
C1351	C135	0.851000	0.326400	0.217900
H771	H77	0.888200	0.316200	0.181500
C1361	C136	0.863800	0.379600	0.260600
H781	H78	0.912200	0.403900	0.255000
C1371	C137	0.806600	0.396400	0.310200
C1381	C138	0.738300	0.358900	0.322700
H791	H79	0.699300	0.370200	0.356900
C1391	C139	0.727500	0.305200	0.285200
H801	H80	0.683500	0.279700	0.296600
C1401	C140	0.184900	0.955800	0.149500
C1411	C141	0.675200	0.208700	0.165000
C1421	C142	0.667400	0.150600	0.177200
H811	H81	0.722400	0.128400	0.198000
C1431	C143	0.579300	0.124900	0.158900
H821	H82	0.575400	0.085500	0.167200
C1441	C144	0.495400	0.157200	0.127800
C1451	C145	0.503700	0.214700	0.114400
H831	H83	0.448700	0.236900	0.093800
C1461	C146	0.592300	0.240700	0.130700
H841	H84	0.596300	0.279600	0.118700
C1471	C147	0.399500	0.128600	0.111400
C1481	C148	0.167900	0.012100	0.900800
C1491	C149	0.165900	0.995600	0.807100
C1501	C150	0.086900	0.966900	0.752600
H851	H85	0.036200	0.957300	0.774400
C1511	C151	0.082800	0.952500	0.667500
H861	H86	0.028600	0.934200	0.631700
C1521	C152	0.158200	0.964600	0.633300
C1531	C153	0.238000	0.991900	0.689000
H871	H87	0.290800	0.998900	0.669100
C1541	C154	0.239800	0.008600	0.773300
H881	H88	0.292100	0.029100	0.808100
C1551	C155	0.186000	0.993200	0.492200
C1561	C156	0.172200	0.050800	0.503400
H891	H89	0.143600	0.062700	0.545900
C1571	C157	0.200400	0.091000	0.452200
H901	H90	0.192400	0.129800	0.462100
C1581	C158	0.239800	0.075200	0.387300
C1591	C159	0.253500	0.017800	0.375100
H911	H91	0.280800	0.006500	0.331300
C1601	C160	0.227200	0.975800	0.427000
H921	H92	0.237100	0.937000	0.418200
C1611	C161	0.265300	0.120000	0.326800
C1621	C162	0.908800	0.406000	0.000200
C1631	C163	0.971100	0.413900	0.084500
H931	H93	0.968000	0.447500	0.115700
C1641	C164	0.038100	0.372300	0.122800
H941	H94	0.079100	0.378300	0.179700
C1651	C165	0.045200	0.322200	0.078500
C1661	C166	0.978100	0.313000	0.995900
H951	H95	0.979100	0.278700	0.965800
C1671	C167	0.910800	0.353700	0.958600
H961	H96	0.865700	0.346200	0.904300
C1681	C168	0.122200	0.279500	0.116000
N71	N7	0.765700	0.234900	0.186400
N81	N8	0.154500	0.950500	0.544800
O371	O37	0.041800	0.095020	0.013000
O381	O38	0.147400	0.123660	0.136900
O391	O39	0.258800	0.974500	0.133600
O401	O40	0.108700	0.983010	0.136400
O411	O41	0.395000	0.075900	0.112100
O421	O42	0.326200	0.159900	0.096200
O431	O43	0.224600	0.050300	0.940300
O441	O44	0.111400	0.984770	0.933700
O451	O45	0.312600	0.103800	0.276800
O461	O46	0.236000	0.170700	0.329600
O471	O47	0.161700	0.279000	0.198000
O481	O48	0.148000	0.245500	0.065600
Cd91	Cd9	0.000000	0.500000	0.500000
Cd101	Cd10	0.000000	0.000000	0.000000
