data_c5nj02634b_c5nj02634b2_clean_PM
_symmetry_space_group_name_H-M	'P1'
_cell_length_a	22.807000
_cell_length_b	25.243000
_cell_length_c	16.204000
_cell_angle_alpha	90.000000
_cell_angle_beta	133.809000
_cell_angle_gamma	90.000000
_symmetry_Int_Tables_number 1

loop_
_symmetry_equiv_pos_as_xyz
'x,y,z'

loop_
_atom_site_label
_atom_site_type_symbol
_atom_site_fract_x
_atom_site_fract_y
_atom_site_fract_z
C11	C1	0.278030	0.012130	0.753200
C21	C2	0.922870	0.948850	0.591300
C31	C3	0.920430	0.094620	0.600000
C41	C4	0.206480	0.984200	0.670400
H11	H1	0.199800	0.963500	0.617000
C51	C5	0.145840	0.987800	0.669000
H21	H2	0.097600	0.969700	0.612100
C61	C6	0.872900	0.907440	0.498500
C71	C7	0.875730	0.141160	0.520500
C81	C8	0.221350	0.042300	0.825200
H31	H3	0.226800	0.061800	0.878900
C91	C9	0.898250	0.887120	0.447300
H41	H4	0.946100	0.899600	0.470200
C101	C10	0.799600	0.889830	0.460000
H51	H5	0.780900	0.904000	0.491100
C111	C11	0.853200	0.848530	0.362500
H61	H6	0.870600	0.835000	0.329200
C121	C12	0.284990	0.041950	0.832100
H71	H7	0.331900	0.061300	0.888500
C131	C13	0.792400	0.226830	0.372200
C141	C14	0.809200	0.162070	0.493500
H81	H8	0.790900	0.147300	0.524800
C151	C15	0.781900	0.830700	0.328800
C161	C16	0.347500	0.988510	0.690300
C171	C17	0.754600	0.851660	0.376300
H91	H9	0.705900	0.839900	0.351700
C181	C18	0.899500	0.163340	0.469900
H101	H10	0.943700	0.149200	0.484800
C191	C19	0.768200	0.204950	0.420200
H111	H11	0.723400	0.218800	0.404000
C201	C20	0.428000	0.994210	0.724700
C211	C21	0.501000	0.994900	0.835500
H121	H12	0.502700	0.995800	0.894500
C221	C22	0.859000	0.205930	0.397800
H131	H13	0.876800	0.220800	0.365800
C231	C23	0.427100	0.994300	0.639200
H141	H14	0.377600	0.993900	0.563200
H151	H15	0.383000	0.030200	0.812000
N11	N1	0.742640	0.270140	0.293000
N21	N2	0.730220	0.789360	0.244200
N31	N3	0.151860	0.015820	0.744580
N41	N4	0.343710	0.012520	0.762100
O11	O1	0.897210	0.965320	0.634100
O21	O2	0.987570	0.963030	0.619740
O31	O3	0.897140	0.079370	0.647220
O41	O4	0.977190	0.075030	0.614340
O51	O5	0.292020	0.964530	0.604800
Zn11	Zn1	0.060110	0.019670	0.739000
C241	C24	0.778030	0.512130	0.753200
C251	C25	0.422870	0.448850	0.591300
C261	C26	0.420430	0.594620	0.600000
C271	C27	0.706480	0.484200	0.670400
H161	H16	0.699800	0.463500	0.617000
C281	C28	0.645840	0.487800	0.669000
H171	H17	0.597600	0.469700	0.612100
C291	C29	0.372900	0.407440	0.498500
C301	C30	0.375730	0.641160	0.520500
C311	C31	0.721350	0.542300	0.825200
H181	H18	0.726800	0.561800	0.878900
C321	C32	0.398250	0.387120	0.447300
H191	H19	0.446100	0.399600	0.470200
C331	C33	0.299600	0.389830	0.460000
H201	H20	0.280900	0.404000	0.491100
C341	C34	0.353200	0.348530	0.362500
H211	H21	0.370600	0.335000	0.329200
C351	C35	0.784990	0.541950	0.832100
H221	H22	0.831900	0.561300	0.888500
C361	C36	0.292400	0.726830	0.372200
C371	C37	0.309200	0.662070	0.493500
H231	H23	0.290900	0.647300	0.524800
C381	C38	0.281900	0.330700	0.328800
C391	C39	0.847500	0.488510	0.690300
C401	C40	0.254600	0.351660	0.376300
H241	H24	0.205900	0.339900	0.351700
C411	C41	0.399500	0.663340	0.469900
H251	H25	0.443700	0.649200	0.484800
C421	C42	0.268200	0.704950	0.420200
H261	H26	0.223400	0.718800	0.404000
C431	C43	0.928000	0.494210	0.724700
C441	C44	0.001000	0.494900	0.835500
H271	H27	0.002700	0.495800	0.894500
C451	C45	0.359000	0.705930	0.397800
H281	H28	0.376800	0.720800	0.365800
C461	C46	0.927100	0.494300	0.639200
H291	H29	0.877600	0.493900	0.563200
H301	H30	0.883000	0.530200	0.812000
N51	N5	0.242640	0.770140	0.293000
N61	N6	0.230220	0.289360	0.244200
N71	N7	0.651860	0.515820	0.744580
N81	N8	0.843710	0.512520	0.762100
O61	O6	0.397210	0.465320	0.634100
O71	O7	0.487570	0.463030	0.619740
O81	O8	0.397140	0.579370	0.647220
O91	O9	0.477190	0.575030	0.614340
O101	O10	0.792020	0.464530	0.604800
Zn21	Zn2	0.560110	0.519670	0.739000
C471	C47	0.721970	0.012130	0.746800
C481	C48	0.077130	0.948850	0.908700
C491	C49	0.079570	0.094620	0.900000
C501	C50	0.793520	0.984200	0.829600
H311	H31	0.800200	0.963500	0.883000
C511	C51	0.854160	0.987800	0.831000
H321	H32	0.902400	0.969700	0.887900
C521	C52	0.127100	0.907440	0.001500
C531	C53	0.124270	0.141160	0.979500
C541	C54	0.778650	0.042300	0.674800
H331	H33	0.773200	0.061800	0.621100
C551	C55	0.101750	0.887120	0.052700
H341	H34	0.053900	0.899600	0.029800
C561	C56	0.200400	0.889830	0.040000
H351	H35	0.219100	0.904000	0.008900
C571	C57	0.146800	0.848530	0.137500
H361	H36	0.129400	0.835000	0.170800
C581	C58	0.715010	0.041950	0.667900
H371	H37	0.668100	0.061300	0.611500
C591	C59	0.207600	0.226830	0.127800
C601	C60	0.190800	0.162070	0.006500
H381	H38	0.209100	0.147300	0.975200
C611	C61	0.218100	0.830700	0.171200
C621	C62	0.652500	0.988510	0.809700
C631	C63	0.245400	0.851660	0.123700
H391	H39	0.294100	0.839900	0.148300
C641	C64	0.100500	0.163340	0.030100
H401	H40	0.056300	0.149200	0.015200
C651	C65	0.231800	0.204950	0.079800
H411	H41	0.276600	0.218800	0.096000
C661	C66	0.572000	0.994210	0.775300
C671	C67	0.499000	0.994900	0.664500
H421	H42	0.497300	0.995800	0.605500
C681	C68	0.141000	0.205930	0.102200
H431	H43	0.123200	0.220800	0.134200
C691	C69	0.572900	0.994300	0.860800
H441	H44	0.622400	0.993900	0.936800
H451	H45	0.617000	0.030200	0.688000
N91	N9	0.257360	0.270140	0.207000
N101	N10	0.269780	0.789360	0.255800
N111	N11	0.848140	0.015820	0.755420
N121	N12	0.656290	0.012520	0.737900
O111	O11	0.102790	0.965320	0.865900
O121	O12	0.012430	0.963030	0.880260
O131	O13	0.102860	0.079370	0.852780
O141	O14	0.022810	0.075030	0.885660
O151	O15	0.707980	0.964530	0.895200
Zn31	Zn3	0.939890	0.019670	0.761000
C701	C70	0.221970	0.512130	0.746800
C711	C71	0.577130	0.448850	0.908700
C721	C72	0.579570	0.594620	0.900000
C731	C73	0.293520	0.484200	0.829600
H461	H46	0.300200	0.463500	0.883000
C741	C74	0.354160	0.487800	0.831000
H471	H47	0.402400	0.469700	0.887900
C751	C75	0.627100	0.407440	0.001500
C761	C76	0.624270	0.641160	0.979500
C771	C77	0.278650	0.542300	0.674800
H481	H48	0.273200	0.561800	0.621100
C781	C78	0.601750	0.387120	0.052700
H491	H49	0.553900	0.399600	0.029800
C791	C79	0.700400	0.389830	0.040000
H501	H50	0.719100	0.404000	0.008900
C801	C80	0.646800	0.348530	0.137500
H511	H51	0.629400	0.335000	0.170800
C811	C81	0.215010	0.541950	0.667900
H521	H52	0.168100	0.561300	0.611500
C821	C82	0.707600	0.726830	0.127800
C831	C83	0.690800	0.662070	0.006500
H531	H53	0.709100	0.647300	0.975200
C841	C84	0.718100	0.330700	0.171200
C851	C85	0.152500	0.488510	0.809700
C861	C86	0.745400	0.351660	0.123700
H541	H54	0.794100	0.339900	0.148300
C871	C87	0.600500	0.663340	0.030100
H551	H55	0.556300	0.649200	0.015200
C881	C88	0.731800	0.704950	0.079800
H561	H56	0.776600	0.718800	0.096000
C891	C89	0.072000	0.494210	0.775300
C901	C90	0.999000	0.494900	0.664500
H571	H57	0.997300	0.495800	0.605500
C911	C91	0.641000	0.705930	0.102200
H581	H58	0.623200	0.720800	0.134200
C921	C92	0.072900	0.494300	0.860800
H591	H59	0.122400	0.493900	0.936800
H601	H60	0.117000	0.530200	0.688000
N131	N13	0.757360	0.770140	0.207000
N141	N14	0.769780	0.289360	0.255800
N151	N15	0.348140	0.515820	0.755420
N161	N16	0.156290	0.512520	0.737900
O161	O16	0.602790	0.465320	0.865900
O171	O17	0.512430	0.463030	0.880260
O181	O18	0.602860	0.579370	0.852780
O191	O19	0.522810	0.575030	0.885660
O201	O20	0.207980	0.464530	0.895200
Zn41	Zn4	0.439890	0.519670	0.761000
C931	C93	0.721970	0.987870	0.246800
C941	C94	0.077130	0.051150	0.408700
C951	C95	0.079570	0.905380	0.400000
C961	C96	0.793520	0.015800	0.329600
H611	H61	0.800200	0.036500	0.383000
C971	C97	0.854160	0.012200	0.331000
H621	H62	0.902400	0.030300	0.387900
C981	C98	0.127100	0.092560	0.501500
C991	C99	0.124270	0.858840	0.479500
C1001	C100	0.778650	0.957700	0.174800
H631	H63	0.773200	0.938200	0.121100
C1011	C101	0.101750	0.112880	0.552700
H641	H64	0.053900	0.100400	0.529800
C1021	C102	0.200400	0.110170	0.540000
H651	H65	0.219100	0.096000	0.508900
C1031	C103	0.146800	0.151470	0.637500
H661	H66	0.129400	0.165000	0.670800
C1041	C104	0.715010	0.958050	0.167900
H671	H67	0.668100	0.938700	0.111500
C1051	C105	0.207600	0.773170	0.627800
C1061	C106	0.190800	0.837930	0.506500
H681	H68	0.209100	0.852700	0.475200
C1071	C107	0.218100	0.169300	0.671200
C1081	C108	0.652500	0.011490	0.309700
C1091	C109	0.245400	0.148340	0.623700
H691	H69	0.294100	0.160100	0.648300
C1101	C110	0.100500	0.836660	0.530100
H701	H70	0.056300	0.850800	0.515200
C1111	C111	0.231800	0.795050	0.579800
H711	H71	0.276600	0.781200	0.596000
C1121	C112	0.572000	0.005790	0.275300
C1131	C113	0.499000	0.005100	0.164500
H721	H72	0.497300	0.004200	0.105500
C1141	C114	0.141000	0.794070	0.602200
H731	H73	0.123200	0.779200	0.634200
C1151	C115	0.572900	0.005700	0.360800
H741	H74	0.622400	0.006100	0.436800
H751	H75	0.617000	0.969800	0.188000
N171	N17	0.257360	0.729860	0.707000
N181	N18	0.269780	0.210640	0.755800
N191	N19	0.848140	0.984180	0.255420
N201	N20	0.656290	0.987480	0.237900
O211	O21	0.102790	0.034680	0.365900
O221	O22	0.012430	0.036970	0.380260
O231	O23	0.102860	0.920630	0.352780
O241	O24	0.022810	0.924970	0.385660
O251	O25	0.707980	0.035470	0.395200
Zn51	Zn5	0.939890	0.980330	0.261000
C1161	C116	0.221970	0.487870	0.246800
C1171	C117	0.577130	0.551150	0.408700
C1181	C118	0.579570	0.405380	0.400000
C1191	C119	0.293520	0.515800	0.329600
H761	H76	0.300200	0.536500	0.383000
C1201	C120	0.354160	0.512200	0.331000
H771	H77	0.402400	0.530300	0.387900
C1211	C121	0.627100	0.592560	0.501500
C1221	C122	0.624270	0.358840	0.479500
C1231	C123	0.278650	0.457700	0.174800
H781	H78	0.273200	0.438200	0.121100
C1241	C124	0.601750	0.612880	0.552700
H791	H79	0.553900	0.600400	0.529800
C1251	C125	0.700400	0.610170	0.540000
H801	H80	0.719100	0.596000	0.508900
C1261	C126	0.646800	0.651470	0.637500
H811	H81	0.629400	0.665000	0.670800
C1271	C127	0.215010	0.458050	0.167900
H821	H82	0.168100	0.438700	0.111500
C1281	C128	0.707600	0.273170	0.627800
C1291	C129	0.690800	0.337930	0.506500
H831	H83	0.709100	0.352700	0.475200
C1301	C130	0.718100	0.669300	0.671200
C1311	C131	0.152500	0.511490	0.309700
C1321	C132	0.745400	0.648340	0.623700
H841	H84	0.794100	0.660100	0.648300
C1331	C133	0.600500	0.336660	0.530100
H851	H85	0.556300	0.350800	0.515200
C1341	C134	0.731800	0.295050	0.579800
H861	H86	0.776600	0.281200	0.596000
C1351	C135	0.072000	0.505790	0.275300
C1361	C136	0.999000	0.505100	0.164500
H871	H87	0.997300	0.504200	0.105500
C1371	C137	0.641000	0.294070	0.602200
H881	H88	0.623200	0.279200	0.634200
C1381	C138	0.072900	0.505700	0.360800
H891	H89	0.122400	0.506100	0.436800
H901	H90	0.117000	0.469800	0.188000
N211	N21	0.757360	0.229860	0.707000
N221	N22	0.769780	0.710640	0.755800
N231	N23	0.348140	0.484180	0.255420
N241	N24	0.156290	0.487480	0.237900
O261	O26	0.602790	0.534680	0.365900
O271	O27	0.512430	0.536970	0.380260
O281	O28	0.602860	0.420630	0.352780
O291	O29	0.522810	0.424970	0.385660
O301	O30	0.207980	0.535470	0.395200
Zn61	Zn6	0.439890	0.480330	0.261000
C1391	C139	0.278030	0.987870	0.253200
C1401	C140	0.922870	0.051150	0.091300
C1411	C141	0.920430	0.905380	0.100000
C1421	C142	0.206480	0.015800	0.170400
H911	H91	0.199800	0.036500	0.117000
C1431	C143	0.145840	0.012200	0.169000
H921	H92	0.097600	0.030300	0.112100
C1441	C144	0.872900	0.092560	0.998500
C1451	C145	0.875730	0.858840	0.020500
C1461	C146	0.221350	0.957700	0.325200
H931	H93	0.226800	0.938200	0.378900
C1471	C147	0.898250	0.112880	0.947300
H941	H94	0.946100	0.100400	0.970200
C1481	C148	0.799600	0.110170	0.960000
H951	H95	0.780900	0.096000	0.991100
C1491	C149	0.853200	0.151470	0.862500
H961	H96	0.870600	0.165000	0.829200
C1501	C150	0.284990	0.958050	0.332100
H971	H97	0.331900	0.938700	0.388500
C1511	C151	0.792400	0.773170	0.872200
C1521	C152	0.809200	0.837930	0.993500
H981	H98	0.790900	0.852700	0.024800
C1531	C153	0.781900	0.169300	0.828800
C1541	C154	0.347500	0.011490	0.190300
C1551	C155	0.754600	0.148340	0.876300
H991	H99	0.705900	0.160100	0.851700
C1561	C156	0.899500	0.836660	0.969900
H1001	H100	0.943700	0.850800	0.984800
C1571	C157	0.768200	0.795050	0.920200
H1011	H101	0.723400	0.781200	0.904000
C1581	C158	0.428000	0.005790	0.224700
C1591	C159	0.501000	0.005100	0.335500
H1021	H102	0.502700	0.004200	0.394500
C1601	C160	0.859000	0.794070	0.897800
H1031	H103	0.876800	0.779200	0.865800
C1611	C161	0.427100	0.005700	0.139200
H1041	H104	0.377600	0.006100	0.063200
H1051	H105	0.383000	0.969800	0.312000
N251	N25	0.742640	0.729860	0.793000
N261	N26	0.730220	0.210640	0.744200
N271	N27	0.151860	0.984180	0.244580
N281	N28	0.343710	0.987480	0.262100
O311	O31	0.897210	0.034680	0.134100
O321	O32	0.987570	0.036970	0.119740
O331	O33	0.897140	0.920630	0.147220
O341	O34	0.977190	0.924970	0.114340
O351	O35	0.292020	0.035470	0.104800
Zn71	Zn7	0.060110	0.980330	0.239000
C1621	C162	0.778030	0.487870	0.253200
C1631	C163	0.422870	0.551150	0.091300
C1641	C164	0.420430	0.405380	0.100000
C1651	C165	0.706480	0.515800	0.170400
H1061	H106	0.699800	0.536500	0.117000
C1661	C166	0.645840	0.512200	0.169000
H1071	H107	0.597600	0.530300	0.112100
C1671	C167	0.372900	0.592560	0.998500
C1681	C168	0.375730	0.358840	0.020500
C1691	C169	0.721350	0.457700	0.325200
H1081	H108	0.726800	0.438200	0.378900
C1701	C170	0.398250	0.612880	0.947300
H1091	H109	0.446100	0.600400	0.970200
C1711	C171	0.299600	0.610170	0.960000
H1101	H110	0.280900	0.596000	0.991100
C1721	C172	0.353200	0.651470	0.862500
H1111	H111	0.370600	0.665000	0.829200
C1731	C173	0.784990	0.458050	0.332100
H1121	H112	0.831900	0.438700	0.388500
C1741	C174	0.292400	0.273170	0.872200
C1751	C175	0.309200	0.337930	0.993500
H1131	H113	0.290900	0.352700	0.024800
C1761	C176	0.281900	0.669300	0.828800
C1771	C177	0.847500	0.511490	0.190300
C1781	C178	0.254600	0.648340	0.876300
H1141	H114	0.205900	0.660100	0.851700
C1791	C179	0.399500	0.336660	0.969900
H1151	H115	0.443700	0.350800	0.984800
C1801	C180	0.268200	0.295050	0.920200
H1161	H116	0.223400	0.281200	0.904000
C1811	C181	0.928000	0.505790	0.224700
C1821	C182	0.001000	0.505100	0.335500
H1171	H117	0.002700	0.504200	0.394500
C1831	C183	0.359000	0.294070	0.897800
H1181	H118	0.376800	0.279200	0.865800
C1841	C184	0.927100	0.505700	0.139200
H1191	H119	0.877600	0.506100	0.063200
H1201	H120	0.883000	0.469800	0.312000
N291	N29	0.242640	0.229860	0.793000
N301	N30	0.230220	0.710640	0.744200
N311	N31	0.651860	0.484180	0.244580
N321	N32	0.843710	0.487480	0.262100
O361	O36	0.397210	0.534680	0.134100
O371	O37	0.487570	0.536970	0.119740
O381	O38	0.397140	0.420630	0.147220
O391	O39	0.477190	0.424970	0.114340
O401	O40	0.792020	0.535470	0.104800
Zn81	Zn8	0.560110	0.480330	0.239000
