data_c5sc03494a_c5sc03494a2_clean_PM
_symmetry_space_group_name_H-M	'P1'
_cell_length_a	20.447000
_cell_length_b	20.447000
_cell_length_c	20.447000
_cell_angle_alpha	90.000000
_cell_angle_beta	90.000000
_cell_angle_gamma	90.000000
_symmetry_Int_Tables_number 1

loop_
_symmetry_equiv_pos_as_xyz
'x,y,z'

loop_
_atom_site_label
_atom_site_type_symbol
_atom_site_fract_x
_atom_site_fract_y
_atom_site_fract_z
O11	O1	0.694860	0.334080	0.419100
O21	O2	0.786450	0.279630	0.437500
C11	C1	0.735300	0.288100	0.405500
C21	C2	0.719000	0.244500	0.348800
C31	C3	0.758500	0.190200	0.335000
H11	H1	0.793800	0.180300	0.361800
O31	O3	0.194860	0.834080	0.919100
O41	O4	0.286450	0.779630	0.937500
C41	C4	0.235300	0.788100	0.905500
C51	C5	0.219000	0.744500	0.848800
C61	C6	0.258500	0.690200	0.835000
H21	H2	0.293800	0.680300	0.861800
O51	O5	0.805140	0.665920	0.919100
O61	O6	0.713550	0.720370	0.937500
C71	C7	0.764700	0.711900	0.905500
C81	C8	0.781000	0.755500	0.848800
C91	C9	0.741500	0.809800	0.835000
H31	H3	0.706200	0.819700	0.861800
O71	O7	0.305140	0.165920	0.419100
O81	O8	0.213550	0.220370	0.437500
C101	C10	0.264700	0.211900	0.405500
C111	C11	0.281000	0.255500	0.348800
C121	C12	0.241500	0.309800	0.335000
H41	H4	0.206200	0.319700	0.361800
O91	O9	0.305140	0.834080	0.080900
O101	O10	0.213550	0.779630	0.062500
C131	C13	0.264700	0.788100	0.094500
C141	C14	0.281000	0.744500	0.151200
C151	C15	0.241500	0.690200	0.165000
H51	H5	0.206200	0.680300	0.138200
O111	O11	0.805140	0.334080	0.580900
O121	O12	0.713550	0.279630	0.562500
C161	C16	0.764700	0.288100	0.594500
C171	C17	0.781000	0.244500	0.651200
C181	C18	0.741500	0.190200	0.665000
H61	H6	0.706200	0.180300	0.638200
O131	O13	0.194860	0.165920	0.580900
O141	O14	0.286450	0.220370	0.562500
C191	C19	0.235300	0.211900	0.594500
C201	C20	0.219000	0.255500	0.651200
C211	C21	0.258500	0.309800	0.665000
H71	H7	0.293800	0.319700	0.638200
O151	O15	0.694860	0.665920	0.080900
O161	O16	0.786450	0.720370	0.062500
C221	C22	0.735300	0.711900	0.094500
C231	C23	0.719000	0.755500	0.151200
C241	C24	0.758500	0.809800	0.165000
H81	H8	0.793800	0.819700	0.138200
O171	O17	0.419100	0.694860	0.334080
O181	O18	0.437500	0.786450	0.279630
C251	C25	0.405500	0.735300	0.288100
C261	C26	0.348800	0.719000	0.244500
C271	C27	0.335000	0.758500	0.190200
H91	H9	0.361800	0.793800	0.180300
O191	O19	0.919100	0.194860	0.834080
O201	O20	0.937500	0.286450	0.779630
C281	C28	0.905500	0.235300	0.788100
C291	C29	0.848800	0.219000	0.744500
C301	C30	0.835000	0.258500	0.690200
H101	H10	0.861800	0.293800	0.680300
O211	O21	0.919100	0.805140	0.665920
O221	O22	0.937500	0.713550	0.720370
C311	C31	0.905500	0.764700	0.711900
C321	C32	0.848800	0.781000	0.755500
C331	C33	0.835000	0.741500	0.809800
H111	H11	0.861800	0.706200	0.819700
O231	O23	0.419100	0.305140	0.165920
O241	O24	0.437500	0.213550	0.220370
C341	C34	0.405500	0.264700	0.211900
C351	C35	0.348800	0.281000	0.255500
C361	C36	0.335000	0.241500	0.309800
H121	H12	0.361800	0.206200	0.319700
O251	O25	0.080900	0.305140	0.834080
O261	O26	0.062500	0.213550	0.779630
C371	C37	0.094500	0.264700	0.788100
C381	C38	0.151200	0.281000	0.744500
C391	C39	0.165000	0.241500	0.690200
H131	H13	0.138200	0.206200	0.680300
O271	O27	0.580900	0.805140	0.334080
O281	O28	0.562500	0.713550	0.279630
C401	C40	0.594500	0.764700	0.288100
C411	C41	0.651200	0.781000	0.244500
C421	C42	0.665000	0.741500	0.190200
H141	H14	0.638200	0.706200	0.180300
O291	O29	0.580900	0.194860	0.165920
O301	O30	0.562500	0.286450	0.220370
C431	C43	0.594500	0.235300	0.211900
C441	C44	0.651200	0.219000	0.255500
C451	C45	0.665000	0.258500	0.309800
H151	H15	0.638200	0.293800	0.319700
O311	O31	0.080900	0.694860	0.665920
O321	O32	0.062500	0.786450	0.720370
C461	C46	0.094500	0.735300	0.711900
C471	C47	0.151200	0.719000	0.755500
C481	C48	0.165000	0.758500	0.809800
H161	H16	0.138200	0.793800	0.819700
O331	O33	0.334080	0.419100	0.694860
O341	O34	0.279630	0.437500	0.786450
C491	C49	0.288100	0.405500	0.735300
C501	C50	0.244500	0.348800	0.719000
C511	C51	0.190200	0.335000	0.758500
H171	H17	0.180300	0.361800	0.793800
O351	O35	0.834080	0.919100	0.194860
O361	O36	0.779630	0.937500	0.286450
C521	C52	0.788100	0.905500	0.235300
C531	C53	0.744500	0.848800	0.219000
C541	C54	0.690200	0.835000	0.258500
H181	H18	0.680300	0.861800	0.293800
O371	O37	0.665920	0.919100	0.805140
O381	O38	0.720370	0.937500	0.713550
C551	C55	0.711900	0.905500	0.764700
C561	C56	0.755500	0.848800	0.781000
C571	C57	0.809800	0.835000	0.741500
H191	H19	0.819700	0.861800	0.706200
O391	O39	0.165920	0.419100	0.305140
O401	O40	0.220370	0.437500	0.213550
C581	C58	0.211900	0.405500	0.264700
C591	C59	0.255500	0.348800	0.281000
C601	C60	0.309800	0.335000	0.241500
H201	H20	0.319700	0.361800	0.206200
O411	O41	0.834080	0.080900	0.305140
O421	O42	0.779630	0.062500	0.213550
C611	C61	0.788100	0.094500	0.264700
C621	C62	0.744500	0.151200	0.281000
C631	C63	0.690200	0.165000	0.241500
H211	H21	0.680300	0.138200	0.206200
O431	O43	0.334080	0.580900	0.805140
O441	O44	0.279630	0.562500	0.713550
C641	C64	0.288100	0.594500	0.764700
C651	C65	0.244500	0.651200	0.781000
C661	C66	0.190200	0.665000	0.741500
H221	H22	0.180300	0.638200	0.706200
O451	O45	0.165920	0.580900	0.194860
O461	O46	0.220370	0.562500	0.286450
C671	C67	0.211900	0.594500	0.235300
C681	C68	0.255500	0.651200	0.219000
C691	C69	0.309800	0.665000	0.258500
H231	H23	0.319700	0.638200	0.293800
O471	O47	0.665920	0.080900	0.694860
O481	O48	0.720370	0.062500	0.786450
C701	C70	0.711900	0.094500	0.735300
C711	C71	0.755500	0.151200	0.719000
C721	C72	0.809800	0.165000	0.758500
H241	H24	0.819700	0.138200	0.793800
O491	O49	0.584080	0.944860	0.669100
O501	O50	0.529630	0.036450	0.687500
C731	C73	0.538100	0.985300	0.655500
C741	C74	0.494500	0.969000	0.598800
C751	C75	0.440200	0.008500	0.585000
H251	H25	0.430300	0.043800	0.611800
O511	O51	0.084080	0.444860	0.169100
O521	O52	0.029630	0.536450	0.187500
C761	C76	0.038100	0.485300	0.155500
C771	C77	0.994500	0.469000	0.098800
C781	C78	0.940200	0.508500	0.085000
H261	H26	0.930300	0.543800	0.111800
O531	O53	0.915920	0.055140	0.169100
O541	O54	0.970370	0.963550	0.187500
C791	C79	0.961900	0.014700	0.155500
C801	C80	0.005500	0.031000	0.098800
C811	C81	0.059800	0.991500	0.085000
H271	H27	0.069700	0.956200	0.111800
O551	O55	0.415920	0.555140	0.669100
O561	O56	0.470370	0.463550	0.687500
C821	C82	0.461900	0.514700	0.655500
C831	C83	0.505500	0.531000	0.598800
C841	C84	0.559800	0.491500	0.585000
H281	H28	0.569700	0.456200	0.611800
O571	O57	0.084080	0.555140	0.330900
O581	O58	0.029630	0.463550	0.312500
C851	C85	0.038100	0.514700	0.344500
C861	C86	0.994500	0.531000	0.401200
C871	C87	0.940200	0.491500	0.415000
H291	H29	0.930300	0.456200	0.388200
O591	O59	0.584080	0.055140	0.830900
O601	O60	0.529630	0.963550	0.812500
C881	C88	0.538100	0.014700	0.844500
C891	C89	0.494500	0.031000	0.901200
C901	C90	0.440200	0.991500	0.915000
H301	H30	0.430300	0.956200	0.888200
O611	O61	0.415920	0.444860	0.830900
O621	O62	0.470370	0.536450	0.812500
C911	C91	0.461900	0.485300	0.844500
C921	C92	0.505500	0.469000	0.901200
C931	C93	0.559800	0.508500	0.915000
H311	H31	0.569700	0.543800	0.888200
O631	O63	0.915920	0.944860	0.330900
O641	O64	0.970370	0.036450	0.312500
C941	C94	0.961900	0.985300	0.344500
C951	C95	0.005500	0.969000	0.401200
C961	C96	0.059800	0.008500	0.415000
H321	H32	0.069700	0.043800	0.388200
O651	O65	0.944860	0.669100	0.584080
O661	O66	0.036450	0.687500	0.529630
C971	C97	0.985300	0.655500	0.538100
C981	C98	0.969000	0.598800	0.494500
C991	C99	0.008500	0.585000	0.440200
H331	H33	0.043800	0.611800	0.430300
O671	O67	0.444860	0.169100	0.084080
O681	O68	0.536450	0.187500	0.029630
C1001	C100	0.485300	0.155500	0.038100
C1011	C101	0.469000	0.098800	0.994500
C1021	C102	0.508500	0.085000	0.940200
H341	H34	0.543800	0.111800	0.930300
O691	O69	0.055140	0.169100	0.915920
O701	O70	0.963550	0.187500	0.970370
C1031	C103	0.014700	0.155500	0.961900
C1041	C104	0.031000	0.098800	0.005500
C1051	C105	0.991500	0.085000	0.059800
H351	H35	0.956200	0.111800	0.069700
O711	O71	0.555140	0.669100	0.415920
O721	O72	0.463550	0.687500	0.470370
C1061	C106	0.514700	0.655500	0.461900
C1071	C107	0.531000	0.598800	0.505500
C1081	C108	0.491500	0.585000	0.559800
H361	H36	0.456200	0.611800	0.569700
O731	O73	0.555140	0.330900	0.084080
O741	O74	0.463550	0.312500	0.029630
C1091	C109	0.514700	0.344500	0.038100
C1101	C110	0.531000	0.401200	0.994500
C1111	C111	0.491500	0.415000	0.940200
H371	H37	0.456200	0.388200	0.930300
O751	O75	0.055140	0.830900	0.584080
O761	O76	0.963550	0.812500	0.529630
C1121	C112	0.014700	0.844500	0.538100
C1131	C113	0.031000	0.901200	0.494500
C1141	C114	0.991500	0.915000	0.440200
H381	H38	0.956200	0.888200	0.430300
O771	O77	0.444860	0.830900	0.415920
O781	O78	0.536450	0.812500	0.470370
C1151	C115	0.485300	0.844500	0.461900
C1161	C116	0.469000	0.901200	0.505500
C1171	C117	0.508500	0.915000	0.559800
H391	H39	0.543800	0.888200	0.569700
O791	O79	0.944860	0.330900	0.915920
O801	O80	0.036450	0.312500	0.970370
C1181	C118	0.985300	0.344500	0.961900
C1191	C119	0.969000	0.401200	0.005500
C1201	C120	0.008500	0.415000	0.059800
H401	H40	0.043800	0.388200	0.069700
O811	O81	0.669100	0.584080	0.944860
O821	O82	0.687500	0.529630	0.036450
C1211	C121	0.655500	0.538100	0.985300
C1221	C122	0.598800	0.494500	0.969000
C1231	C123	0.585000	0.440200	0.008500
H411	H41	0.611800	0.430300	0.043800
O831	O83	0.169100	0.084080	0.444860
O841	O84	0.187500	0.029630	0.536450
C1241	C124	0.155500	0.038100	0.485300
C1251	C125	0.098800	0.994500	0.469000
C1261	C126	0.085000	0.940200	0.508500
H421	H42	0.111800	0.930300	0.543800
O851	O85	0.169100	0.915920	0.055140
O861	O86	0.187500	0.970370	0.963550
C1271	C127	0.155500	0.961900	0.014700
C1281	C128	0.098800	0.005500	0.031000
C1291	C129	0.085000	0.059800	0.991500
H431	H43	0.111800	0.069700	0.956200
O871	O87	0.669100	0.415920	0.555140
O881	O88	0.687500	0.470370	0.463550
C1301	C130	0.655500	0.461900	0.514700
C1311	C131	0.598800	0.505500	0.531000
C1321	C132	0.585000	0.559800	0.491500
H441	H44	0.611800	0.569700	0.456200
O891	O89	0.330900	0.084080	0.555140
O901	O90	0.312500	0.029630	0.463550
C1331	C133	0.344500	0.038100	0.514700
C1341	C134	0.401200	0.994500	0.531000
C1351	C135	0.415000	0.940200	0.491500
H451	H45	0.388200	0.930300	0.456200
O911	O91	0.830900	0.584080	0.055140
O921	O92	0.812500	0.529630	0.963550
C1361	C136	0.844500	0.538100	0.014700
C1371	C137	0.901200	0.494500	0.031000
C1381	C138	0.915000	0.440200	0.991500
H461	H46	0.888200	0.430300	0.956200
O931	O93	0.830900	0.415920	0.444860
O941	O94	0.812500	0.470370	0.536450
C1391	C139	0.844500	0.461900	0.485300
C1401	C140	0.901200	0.505500	0.469000
C1411	C141	0.915000	0.559800	0.508500
H471	H47	0.888200	0.569700	0.543800
O951	O95	0.330900	0.915920	0.944860
O961	O96	0.312500	0.970370	0.036450
C1421	C142	0.344500	0.961900	0.985300
C1431	C143	0.401200	0.005500	0.969000
C1441	C144	0.415000	0.059800	0.008500
H481	H48	0.388200	0.069700	0.043800
In11	In1	0.750000	0.375000	0.500000
In21	In2	0.750000	0.625000	0.000000
In31	In3	0.250000	0.875000	0.000000
In41	In4	0.250000	0.125000	0.500000
In51	In5	0.500000	0.750000	0.375000
In61	In6	0.000000	0.750000	0.625000
In71	In7	0.000000	0.250000	0.875000
In81	In8	0.500000	0.250000	0.125000
In91	In9	0.375000	0.500000	0.750000
In101	In10	0.625000	0.000000	0.750000
In111	In11	0.875000	0.000000	0.250000
In121	In12	0.125000	0.500000	0.250000
