data_c6cc02494g_c6cc02494g4_clean_PM
_symmetry_space_group_name_H-M	'P1'
_cell_length_a	27.318000
_cell_length_b	27.318000
_cell_length_c	15.102000
_cell_angle_alpha	90.000000
_cell_angle_beta	90.000000
_cell_angle_gamma	120.000000
_symmetry_Int_Tables_number 1

loop_
_symmetry_equiv_pos_as_xyz
'x,y,z'

loop_
_atom_site_label
_atom_site_type_symbol
_atom_site_fract_x
_atom_site_fract_y
_atom_site_fract_z
S11	S1	0.287800	0.229100	0.052000
O11	O1	0.371200	0.318500	0.192300
O21	O2	0.338100	0.279400	0.325200
C11	C1	0.339500	0.218100	0.197500
C21	C2	0.316400	0.197200	0.113800
C31	C3	0.357800	0.187600	0.245100
C41	C4	0.344300	0.268100	0.234700
H11	H1	0.373200	0.203100	0.308500
S21	S2	0.954470	0.562430	0.385330
O31	O3	0.037870	0.651830	0.525630
O41	O4	0.004770	0.612730	0.658530
C51	C5	0.006170	0.551430	0.530830
C61	C6	0.983070	0.530530	0.447130
C71	C7	0.024470	0.520930	0.578430
C81	C8	0.010970	0.601430	0.568030
H21	H2	0.039870	0.536430	0.641830
S31	S3	0.621130	0.895770	0.718670
O51	O5	0.704530	0.985170	0.858970
O61	O6	0.671430	0.946070	0.991870
C91	C9	0.672830	0.884770	0.864170
C101	C10	0.649730	0.863870	0.780470
C111	C11	0.691130	0.854270	0.911770
C121	C12	0.677630	0.934770	0.901370
H31	H3	0.706530	0.869770	0.975170
S41	S4	0.770900	0.058700	0.052000
O71	O7	0.681500	0.052700	0.192300
O81	O8	0.720600	0.058700	0.325200
C131	C13	0.781900	0.121400	0.197500
C141	C14	0.802800	0.119200	0.113800
C151	C15	0.812400	0.170200	0.245100
C161	C16	0.731900	0.076200	0.234700
H41	H4	0.796900	0.170100	0.308500
S51	S5	0.437570	0.392030	0.385330
O91	O9	0.348170	0.386030	0.525630
O101	O10	0.387270	0.392030	0.658530
C171	C17	0.448570	0.454730	0.530830
C181	C18	0.469470	0.452530	0.447130
C191	C19	0.479070	0.503530	0.578430
C201	C20	0.398570	0.409530	0.568030
H51	H5	0.463570	0.503430	0.641830
S61	S6	0.104230	0.725370	0.718670
O111	O11	0.014830	0.719370	0.858970
O121	O12	0.053930	0.725370	0.991870
C211	C21	0.115230	0.788070	0.864170
C221	C22	0.136130	0.785870	0.780470
C231	C23	0.145730	0.836870	0.911770
C241	C24	0.065230	0.742870	0.901370
H61	H6	0.130230	0.836770	0.975170
S71	S7	0.941300	0.712200	0.052000
O131	O13	0.947300	0.628800	0.192300
O141	O14	0.941300	0.661900	0.325200
C251	C25	0.878600	0.660500	0.197500
C261	C26	0.880800	0.683600	0.113800
C271	C27	0.829800	0.642200	0.245100
C281	C28	0.923800	0.655700	0.234700
H71	H7	0.829900	0.626800	0.308500
S81	S8	0.607970	0.045530	0.385330
O151	O15	0.613970	0.962130	0.525630
O161	O16	0.607970	0.995230	0.658530
C291	C29	0.545270	0.993830	0.530830
C301	C30	0.547470	0.016930	0.447130
C311	C31	0.496470	0.975530	0.578430
C321	C32	0.590470	0.989030	0.568030
H81	H8	0.496570	0.960130	0.641830
S91	S9	0.274630	0.378870	0.718670
O171	O17	0.280630	0.295470	0.858970
O181	O18	0.274630	0.328570	0.991870
C331	C33	0.211930	0.327170	0.864170
C341	C34	0.214130	0.350270	0.780470
C351	C35	0.163130	0.308870	0.911770
C361	C36	0.257130	0.322370	0.901370
H91	H9	0.163230	0.293470	0.975170
S101	S10	0.229100	0.287800	0.448000
O191	O19	0.318500	0.371200	0.307700
O201	O20	0.279400	0.338100	0.174800
C371	C37	0.218100	0.339500	0.302500
C381	C38	0.197200	0.316400	0.386200
C391	C39	0.187600	0.357800	0.254900
C401	C40	0.268100	0.344300	0.265300
H101	H10	0.203100	0.373200	0.191500
S111	S11	0.895770	0.621130	0.781330
O211	O21	0.985170	0.704530	0.641030
O221	O22	0.946070	0.671430	0.508130
C411	C41	0.884770	0.672830	0.635830
C421	C42	0.863870	0.649730	0.719530
C431	C43	0.854270	0.691130	0.588230
C441	C44	0.934770	0.677630	0.598630
H111	H11	0.869770	0.706530	0.524830
S121	S12	0.562430	0.954470	0.114670
O231	O23	0.651830	0.037870	0.974370
O241	O24	0.612730	0.004770	0.841470
C451	C45	0.551430	0.006170	0.969170
C461	C46	0.530530	0.983070	0.052870
C471	C47	0.520930	0.024470	0.921570
C481	C48	0.601430	0.010970	0.931970
H121	H12	0.536430	0.039870	0.858170
S131	S13	0.058700	0.770900	0.448000
O251	O25	0.052700	0.681500	0.307700
O261	O26	0.058700	0.720600	0.174800
C491	C49	0.121400	0.781900	0.302500
C501	C50	0.119200	0.802800	0.386200
C511	C51	0.170200	0.812400	0.254900
C521	C52	0.076200	0.731900	0.265300
H131	H13	0.170100	0.796900	0.191500
S141	S14	0.725370	0.104230	0.781330
O271	O27	0.719370	0.014830	0.641030
O281	O28	0.725370	0.053930	0.508130
C531	C53	0.788070	0.115230	0.635830
C541	C54	0.785870	0.136130	0.719530
C551	C55	0.836870	0.145730	0.588230
C561	C56	0.742870	0.065230	0.598630
H141	H14	0.836770	0.130230	0.524830
S151	S15	0.392030	0.437570	0.114670
O291	O29	0.386030	0.348170	0.974370
O301	O30	0.392030	0.387270	0.841470
C571	C57	0.454730	0.448570	0.969170
C581	C58	0.452530	0.469470	0.052870
C591	C59	0.503530	0.479070	0.921570
C601	C60	0.409530	0.398570	0.931970
H151	H15	0.503430	0.463570	0.858170
S161	S16	0.712200	0.941300	0.448000
O311	O31	0.628800	0.947300	0.307700
O321	O32	0.661900	0.941300	0.174800
C611	C61	0.660500	0.878600	0.302500
C621	C62	0.683600	0.880800	0.386200
C631	C63	0.642200	0.829800	0.254900
C641	C64	0.655700	0.923800	0.265300
H161	H16	0.626800	0.829900	0.191500
S171	S17	0.378870	0.274630	0.781330
O331	O33	0.295470	0.280630	0.641030
O341	O34	0.328570	0.274630	0.508130
C651	C65	0.327170	0.211930	0.635830
C661	C66	0.350270	0.214130	0.719530
C671	C67	0.308870	0.163130	0.588230
C681	C68	0.322370	0.257130	0.598630
H171	H17	0.293470	0.163230	0.524830
S181	S18	0.045530	0.607970	0.114670
O351	O35	0.962130	0.613970	0.974370
O361	O36	0.995230	0.607970	0.841470
C691	C69	0.993830	0.545270	0.969170
C701	C70	0.016930	0.547470	0.052870
C711	C71	0.975530	0.496470	0.921570
C721	C72	0.989030	0.590470	0.931970
H181	H18	0.960130	0.496570	0.858170
S191	S19	0.712200	0.770900	0.948000
O371	O37	0.628800	0.681500	0.807700
O381	O38	0.661900	0.720600	0.674800
C731	C73	0.660500	0.781900	0.802500
C741	C74	0.683600	0.802800	0.886200
C751	C75	0.642200	0.812400	0.754900
C761	C76	0.655700	0.731900	0.765300
H191	H19	0.626800	0.796900	0.691500
S201	S20	0.378870	0.104230	0.281330
O391	O39	0.295470	0.014830	0.141030
O401	O40	0.328570	0.053930	0.008130
C771	C77	0.327170	0.115230	0.135830
C781	C78	0.350270	0.136130	0.219530
C791	C79	0.308870	0.145730	0.088230
C801	C80	0.322370	0.065230	0.098630
H201	H20	0.293470	0.130230	0.024830
S211	S21	0.045530	0.437570	0.614670
O411	O41	0.962130	0.348170	0.474370
O421	O42	0.995230	0.387270	0.341470
C811	C81	0.993830	0.448570	0.469170
C821	C82	0.016930	0.469470	0.552870
C831	C83	0.975530	0.479070	0.421570
C841	C84	0.989030	0.398570	0.431970
H211	H21	0.960130	0.463570	0.358170
S221	S22	0.229100	0.941300	0.948000
O431	O43	0.318500	0.947300	0.807700
O441	O44	0.279400	0.941300	0.674800
C851	C85	0.218100	0.878600	0.802500
C861	C86	0.197200	0.880800	0.886200
C871	C87	0.187600	0.829800	0.754900
C881	C88	0.268100	0.923800	0.765300
H221	H22	0.203100	0.829900	0.691500
S231	S23	0.895770	0.274630	0.281330
O451	O45	0.985170	0.280630	0.141030
O461	O46	0.946070	0.274630	0.008130
C891	C89	0.884770	0.211930	0.135830
C901	C90	0.863870	0.214130	0.219530
C911	C91	0.854270	0.163130	0.088230
C921	C92	0.934770	0.257130	0.098630
H231	H23	0.869770	0.163230	0.024830
S241	S24	0.562430	0.607970	0.614670
O471	O47	0.651830	0.613970	0.474370
O481	O48	0.612730	0.607970	0.341470
C931	C93	0.551430	0.545270	0.469170
C941	C94	0.530530	0.547470	0.552870
C951	C95	0.520930	0.496470	0.421570
C961	C96	0.601430	0.590470	0.431970
H241	H24	0.536430	0.496570	0.358170
S251	S25	0.058700	0.287800	0.948000
O491	O49	0.052700	0.371200	0.807700
O501	O50	0.058700	0.338100	0.674800
C971	C97	0.121400	0.339500	0.802500
C981	C98	0.119200	0.316400	0.886200
C991	C99	0.170200	0.357800	0.754900
C1001	C100	0.076200	0.344300	0.765300
H251	H25	0.170100	0.373200	0.691500
S261	S26	0.725370	0.621130	0.281330
O511	O51	0.719370	0.704530	0.141030
O521	O52	0.725370	0.671430	0.008130
C1011	C101	0.788070	0.672830	0.135830
C1021	C102	0.785870	0.649730	0.219530
C1031	C103	0.836870	0.691130	0.088230
C1041	C104	0.742870	0.677630	0.098630
H261	H26	0.836770	0.706530	0.024830
S271	S27	0.392030	0.954470	0.614670
O531	O53	0.386030	0.037870	0.474370
O541	O54	0.392030	0.004770	0.341470
C1051	C105	0.454730	0.006170	0.469170
C1061	C106	0.452530	0.983070	0.552870
C1071	C107	0.503530	0.024470	0.421570
C1081	C108	0.409530	0.010970	0.431970
H271	H27	0.503430	0.039870	0.358170
S281	S28	0.770900	0.712200	0.552000
O551	O55	0.681500	0.628800	0.692300
O561	O56	0.720600	0.661900	0.825200
C1091	C109	0.781900	0.660500	0.697500
C1101	C110	0.802800	0.683600	0.613800
C1111	C111	0.812400	0.642200	0.745100
C1121	C112	0.731900	0.655700	0.734700
H281	H28	0.796900	0.626800	0.808500
S291	S29	0.437570	0.045530	0.885330
O571	O57	0.348170	0.962130	0.025630
O581	O58	0.387270	0.995230	0.158530
C1131	C113	0.448570	0.993830	0.030830
C1141	C114	0.469470	0.016930	0.947130
C1151	C115	0.479070	0.975530	0.078430
C1161	C116	0.398570	0.989030	0.068030
H291	H29	0.463570	0.960130	0.141830
S301	S30	0.104230	0.378870	0.218670
O591	O59	0.014830	0.295470	0.358970
O601	O60	0.053930	0.328570	0.491870
C1171	C117	0.115230	0.327170	0.364170
C1181	C118	0.136130	0.350270	0.280470
C1191	C119	0.145730	0.308870	0.411770
C1201	C120	0.065230	0.322370	0.401370
H301	H30	0.130230	0.293470	0.475170
S311	S31	0.941300	0.229100	0.552000
O611	O61	0.947300	0.318500	0.692300
O621	O62	0.941300	0.279400	0.825200
C1211	C121	0.878600	0.218100	0.697500
C1221	C122	0.880800	0.197200	0.613800
C1231	C123	0.829800	0.187600	0.745100
C1241	C124	0.923800	0.268100	0.734700
H311	H31	0.829900	0.203100	0.808500
S321	S32	0.607970	0.562430	0.885330
O631	O63	0.613970	0.651830	0.025630
O641	O64	0.607970	0.612730	0.158530
C1251	C125	0.545270	0.551430	0.030830
C1261	C126	0.547470	0.530530	0.947130
C1271	C127	0.496470	0.520930	0.078430
C1281	C128	0.590470	0.601430	0.068030
H321	H32	0.496570	0.536430	0.141830
S331	S33	0.274630	0.895770	0.218670
O651	O65	0.280630	0.985170	0.358970
O661	O66	0.274630	0.946070	0.491870
C1291	C129	0.211930	0.884770	0.364170
C1301	C130	0.214130	0.863870	0.280470
C1311	C131	0.163130	0.854270	0.411770
C1321	C132	0.257130	0.934770	0.401370
H331	H33	0.163230	0.869770	0.475170
S341	S34	0.287800	0.058700	0.552000
O671	O67	0.371200	0.052700	0.692300
O681	O68	0.338100	0.058700	0.825200
C1331	C133	0.339500	0.121400	0.697500
C1341	C134	0.316400	0.119200	0.613800
C1351	C135	0.357800	0.170200	0.745100
C1361	C136	0.344300	0.076200	0.734700
H341	H34	0.373200	0.170100	0.808500
S351	S35	0.954470	0.392030	0.885330
O691	O69	0.037870	0.386030	0.025630
O701	O70	0.004770	0.392030	0.158530
C1371	C137	0.006170	0.454730	0.030830
C1381	C138	0.983070	0.452530	0.947130
C1391	C139	0.024470	0.503530	0.078430
C1401	C140	0.010970	0.409530	0.068030
H351	H35	0.039870	0.503430	0.141830
S361	S36	0.621130	0.725370	0.218670
O711	O71	0.704530	0.719370	0.358970
O721	O72	0.671430	0.725370	0.491870
C1411	C141	0.672830	0.788070	0.364170
C1421	C142	0.649730	0.785870	0.280470
C1431	C143	0.691130	0.836870	0.411770
C1441	C144	0.677630	0.742870	0.401370
H361	H36	0.706530	0.836770	0.475170
Mn11	Mn1	0.312500	0.333330	0.083330
Mn21	Mn2	0.666670	0.979170	0.083330
Mn31	Mn3	0.333330	0.312500	0.416670
Mn41	Mn4	0.020830	0.687500	0.083330
Mn51	Mn5	0.354170	0.354170	0.750000
Mn61	Mn6	0.000000	0.645830	0.750000
Mn71	Mn7	0.979170	0.666670	0.416670
Mn81	Mn8	0.645830	0.000000	0.750000
Mn91	Mn9	0.687500	0.020830	0.416670
Mn101	Mn10	0.687500	0.666670	0.916670
Mn111	Mn11	0.354170	0.000000	0.250000
Mn121	Mn12	0.020830	0.333330	0.583330
Mn131	Mn13	0.333330	0.020830	0.916670
Mn141	Mn14	0.000000	0.354170	0.250000
Mn151	Mn15	0.979170	0.312500	0.916670
Mn161	Mn16	0.645830	0.645830	0.250000
Mn171	Mn17	0.666670	0.687500	0.583330
Mn181	Mn18	0.312500	0.979170	0.583330
Mn191	Mn19	0.402700	0.402700	0.250000
Mn201	Mn20	0.069370	0.736030	0.583330
Mn211	Mn21	0.736030	0.069370	0.916670
Mn221	Mn22	0.597300	0.000000	0.250000
Mn231	Mn23	0.263970	0.333330	0.583330
Mn241	Mn24	0.930630	0.666670	0.916670
Mn251	Mn25	0.000000	0.597300	0.250000
Mn261	Mn26	0.666670	0.930630	0.583330
Mn271	Mn27	0.333330	0.263970	0.916670
Mn281	Mn28	0.597300	0.597300	0.750000
Mn291	Mn29	0.263970	0.930630	0.083330
Mn301	Mn30	0.930630	0.263970	0.416670
Mn311	Mn31	0.402700	0.000000	0.750000
Mn321	Mn32	0.069370	0.333330	0.083330
Mn331	Mn33	0.736030	0.666670	0.416670
Mn341	Mn34	0.000000	0.402700	0.750000
Mn351	Mn35	0.666670	0.736030	0.083330
Mn361	Mn36	0.333330	0.069370	0.416670
