data_c6ce00407e_c6ce00407e2_clean_PM
_symmetry_space_group_name_H-M	'P1'
_cell_length_a	21.532600
_cell_length_b	21.488200
_cell_length_c	21.637300
_cell_angle_alpha	94.338500
_cell_angle_beta	118.784000
_cell_angle_gamma	117.537000
_symmetry_Int_Tables_number 1

loop_
_symmetry_equiv_pos_as_xyz
'x,y,z'

loop_
_atom_site_label
_atom_site_type_symbol
_atom_site_fract_x
_atom_site_fract_y
_atom_site_fract_z
O11	O1	0.605910	0.669760	0.702530
O21	O2	0.624850	0.572460	0.700190
C11	C1	0.650700	0.641580	0.734750
O31	O3	0.441310	0.541040	0.637780
O41	O4	0.454980	0.450500	0.592600
C21	C2	0.413850	0.469260	0.610780
Cu11	Cu1	0.497080	0.611090	0.600220
Cu21	Cu2	0.549010	0.524250	0.588910
O51	O5	0.397360	0.540390	0.495870
O61	O6	0.465980	0.490210	0.479340
O71	O7	0.558500	0.666170	0.558870
O81	O8	0.633370	0.610350	0.584310
C31	C3	0.404080	0.500760	0.452800
C41	C4	0.613460	0.656370	0.556760
H11	H1	0.301130	0.931570	0.698640
C51	C5	0.252450	0.999180	0.669220
C61	C6	0.221360	0.036500	0.686110
C71	C7	0.222680	0.041300	0.751200
H21	H2	0.200060	0.071730	0.765420
C81	C8	0.256320	0.009100	0.799140
C91	C9	0.281090	0.967320	0.777720
H31	H3	0.301960	0.937120	0.810920
C101	C10	0.280460	0.963460	0.714000
C111	C11	0.345120	0.029530	0.932140
H41	H4	0.393670	0.040630	0.923070
C121	C12	0.355640	0.020350	0.997960
C131	C13	0.296050	0.013730	0.011180
H51	H5	0.304230	0.008000	0.063290
C141	C14	0.225370	0.013470	0.956620
C151	C15	0.211640	0.013590	0.886810
H61	H6	0.154330	0.007770	0.841900
C161	C16	0.270990	0.019680	0.874130
H71	H7	0.250120	0.992900	0.617990
H81	H8	0.684730	0.879450	0.896080
C171	C17	0.818760	0.966320	0.959490
C181	C18	0.895950	0.009400	0.030900
C191	C19	0.897280	0.009990	0.095850
H91	H9	0.958430	0.045590	0.151200
C201	C20	0.820790	0.965030	0.088910
C211	C21	0.745710	0.914920	0.016000
H101	H10	0.686160	0.872160	0.006790
C221	C22	0.744210	0.917770	0.952170
C231	C23	0.884970	0.997800	0.230410
H111	H11	0.945730	0.011430	0.242910
C241	C24	0.877730	0.008730	0.290470
C251	C25	0.797800	0.989220	0.273960
H121	H12	0.791020	0.996890	0.319780
C261	C26	0.726370	0.958010	0.197890
C271	C27	0.738570	0.952350	0.141220
H131	H13	0.688940	0.941440	0.085030
C281	C28	0.815660	0.970750	0.155260
H141	H14	0.817460	0.963330	0.908760
H151	H15	0.931670	0.192290	0.239310
C291	C29	0.804420	0.151710	0.203770
C301	C30	0.745830	0.168530	0.191130
C311	C31	0.769360	0.242290	0.202010
H161	H16	0.722750	0.255530	0.188570
C321	C32	0.851570	0.297380	0.224040
C331	C33	0.909920	0.279310	0.238650
H171	H17	0.975560	0.322260	0.259630
C341	C34	0.886310	0.206520	0.228460
C351	C35	0.930000	0.409840	0.207030
H181	H18	0.928480	0.374080	0.167760
C361	C36	0.985480	0.487430	0.235940
C371	C37	0.985860	0.532160	0.286470
H191	H19	0.031150	0.593250	0.311490
C381	C38	0.930020	0.497400	0.307150
C391	C39	0.877260	0.418430	0.279020
H201	H20	0.840130	0.388820	0.299760
C401	C40	0.880800	0.375550	0.232280
H211	H21	0.786140	0.094550	0.194020
H221	H22	0.003260	0.412740	0.727170
C411	C41	0.011010	0.503210	0.689910
C421	C42	0.055870	0.580860	0.708950
C431	C43	0.122810	0.629600	0.784500
H231	H23	0.155060	0.690270	0.799930
C441	C44	0.143130	0.599130	0.840000
C451	C45	0.102910	0.521290	0.817940
H241	H24	0.121480	0.496400	0.859160
C461	C46	0.036250	0.473570	0.743490
C471	C47	0.273890	0.717220	0.955230
H251	H25	0.291240	0.739430	0.918800
C481	C48	0.325070	0.759100	0.033490
C491	C49	0.301520	0.727080	0.078490
H261	H26	0.340240	0.759280	0.139020
C501	C50	0.226260	0.654620	0.044540
C511	C51	0.175840	0.615760	0.966980
H271	H27	0.114660	0.562010	0.939950
C521	C52	0.199750	0.645460	0.922190
H281	H28	0.958300	0.464390	0.631600
O91	O9	0.616140	0.094010	0.185630
O101	O10	0.631720	0.048110	0.096980
C531	C53	0.657590	0.102920	0.153720
O111	O11	0.632320	0.979020	0.215660
O121	O12	0.579860	0.905290	0.096640
C541	C54	0.640600	0.942590	0.171000
Cu31	Cu3	0.536800	0.990870	0.172020
Cu41	Cu4	0.520240	0.951040	0.045190
O131	O13	0.455060	0.881400	0.138340
O141	O14	0.411330	0.860050	0.013340
O151	O15	0.439810	0.997980	0.108520
O161	O16	0.463350	0.003340	0.014500
C551	C55	0.401190	0.837220	0.064310
C561	C56	0.424460	0.009020	0.044550
H291	H29	0.387530	0.387970	0.089850
C571	C57	0.295830	0.283840	0.083880
C581	C58	0.250690	0.249760	0.113510
C591	C59	0.262270	0.294210	0.173080
H301	H30	0.223710	0.268140	0.193750
C601	C60	0.315960	0.372700	0.199970
C611	C61	0.361250	0.405960	0.170280
H311	H31	0.402390	0.467170	0.190500
C621	C62	0.352460	0.361610	0.113380
C631	C63	0.283170	0.462730	0.222700
H321	H32	0.258190	0.456060	0.163980
C641	C64	0.280240	0.509310	0.267590
C651	C65	0.314150	0.517660	0.342260
H331	H33	0.313600	0.555350	0.377660
C661	C66	0.350260	0.478730	0.371160
C671	C67	0.348710	0.428950	0.324920
H341	H34	0.377270	0.398670	0.347400
C681	C68	0.315150	0.421240	0.250340
H351	H35	0.286740	0.249540	0.037110
H361	H36	0.890730	0.246440	0.362020
C691	C69	0.951590	0.355330	0.440220
C701	C70	0.028780	0.422970	0.495950
C711	C71	0.106570	0.431950	0.523580
H371	H37	0.166510	0.483250	0.570740
C721	C72	0.105450	0.372220	0.493130
C731	C73	0.027710	0.308620	0.430440
H381	H38	0.025070	0.263100	0.401710
C741	C74	0.951200	0.298620	0.406970
C751	C75	0.264130	0.423920	0.562560
H391	H39	0.280570	0.479730	0.562910
C761	C76	0.326130	0.407800	0.586950
C771	C77	0.299510	0.331870	0.575520
H401	H40	0.344980	0.316990	0.589930
C781	C78	0.214560	0.276180	0.548540
C791	C79	0.159060	0.296550	0.532150
H411	H41	0.095030	0.253830	0.514740
C801	C80	0.179270	0.366500	0.531310
H421	H42	0.890570	0.347760	0.418100
H431	H43	0.558590	0.735480	0.358420
C811	C81	0.586660	0.703110	0.453990
C821	C82	0.639890	0.688270	0.509270
C831	C83	0.710100	0.697820	0.512950
H441	H44	0.752900	0.687650	0.556590
C841	C84	0.727420	0.724390	0.462650
C851	C85	0.671610	0.736310	0.406550
H451	H45	0.682250	0.754260	0.365240
C861	C86	0.601760	0.725830	0.402370
C871	C87	0.851860	0.813830	0.465260
H461	H46	0.828820	0.849700	0.459140
C881	C88	0.926190	0.837160	0.470380
C891	C89	0.956820	0.791930	0.481500
H471	H47	0.015630	0.809960	0.486760
C901	C90	0.911400	0.723180	0.485840
C911	C91	0.836650	0.700500	0.480400
H481	H48	0.800890	0.646880	0.483550
C921	C92	0.806960	0.746100	0.470290
H491	H49	0.529940	0.694080	0.447800
H501	H50	0.870000	0.498520	0.809680
C931	C93	0.944350	0.546900	0.931010
C941	C94	0.969970	0.599300	0.994460
C951	C95	0.938690	0.643030	0.985880
H511	H51	0.956240	0.682120	0.035180
C961	C96	0.879790	0.632070	0.913080
C971	C97	0.855770	0.581160	0.849810
H521	H52	0.812730	0.575500	0.792780
C981	C98	0.888650	0.538730	0.858850
C991	C99	0.762990	0.645870	0.845180
H531	H53	0.719560	0.584840	0.823980
C1001	C100	0.735620	0.687470	0.810190
C1011	C101	0.795950	0.766460	0.838340
H541	H54	0.776820	0.800200	0.810170
C1021	C102	0.882380	0.800660	0.900570
C1031	C103	0.906690	0.755520	0.930680
H551	H55	0.973780	0.778360	0.972450
C1041	C104	0.848130	0.679020	0.900900
H561	H56	0.967170	0.510850	0.937010
O171	O17	0.178130	0.125880	0.116030
O181	O18	0.134570	0.139420	0.000040
C1051	C105	0.184430	0.167780	0.075120
O191	O19	0.185860	0.022650	0.041910
O201	O20	0.095740	0.007140	0.917790
C1061	C106	0.165310	0.013080	0.972360
Cu51	Cu5	0.108240	0.015030	0.068160
Cu61	Cu6	0.032210	0.034900	0.940520
O211	O21	0.026120	0.907490	0.001030
O221	O22	0.940530	0.927240	0.900000
O231	O23	0.019490	0.010460	0.075440
O241	O24	0.979780	0.059050	0.982390
C1071	C107	0.952420	0.882450	0.935200
C1081	C108	0.973450	0.034180	0.034500
O251	O25	0.237040	0.656950	0.160570
O261	O26	0.116320	0.553220	0.047000
C1091	C109	0.192780	0.619540	0.086620
O271	O27	0.232780	0.593960	0.265660
O281	O28	0.171790	0.496980	0.155760
C1101	C110	0.228270	0.537340	0.229050
Cu71	Cu7	0.172050	0.635280	0.204380
Cu81	Cu8	0.070980	0.499740	0.099760
O291	O29	0.090500	0.592400	0.230910
O301	O30	0.042330	0.469310	0.170130
O311	O31	0.095080	0.653710	0.124790
O321	O32	0.986240	0.524120	0.060740
C1111	C111	0.043190	0.518330	0.212290
C1121	C112	0.016720	0.594420	0.066710
O331	O33	0.110590	0.057010	0.618140
O341	O34	0.197330	0.069630	0.578970
C1131	C113	0.177680	0.060450	0.628040
O351	O35	0.951590	0.957900	0.483600
O361	O36	0.041290	0.937100	0.469390
C1141	C114	0.974750	0.913680	0.472800
Cu91	Cu9	0.034670	0.067910	0.529250
Cu101	Cu10	0.106640	0.039170	0.472500
O371	O37	0.967620	0.072110	0.430530
O381	O38	0.004330	0.012430	0.374690
O391	O39	0.129560	0.173320	0.566820
O401	O40	0.162280	0.146290	0.485760
C1151	C115	0.953310	0.032860	0.369190
C1161	C116	0.174920	0.195590	0.538730
O411	O41	0.091290	0.640860	0.631730
O421	O42	0.949650	0.568970	0.591620
C1171	C117	0.032750	0.605700	0.644950
O431	O43	0.021440	0.699290	0.529750
O441	O44	0.878100	0.599000	0.463240
C1181	C118	0.938870	0.671770	0.493240
Cu111	Cu11	0.060800	0.633610	0.529240
Cu121	Cu12	0.904780	0.524720	0.485320
O451	O45	0.007500	0.608110	0.419820
O461	O46	0.883900	0.496310	0.386140
O471	O47	0.076560	0.551610	0.521370
O481	O48	0.954580	0.466630	0.513650
C1191	C119	0.938460	0.538460	0.371510
C1201	C120	0.023880	0.485110	0.517360
