data_c6ra27069g_c6ra27069g2_clean_PM
_symmetry_space_group_name_H-M	'P1'
_cell_length_a	10.175000
_cell_length_b	21.481000
_cell_length_c	10.493000
_cell_angle_alpha	90.000000
_cell_angle_beta	93.144000
_cell_angle_gamma	90.000000
_symmetry_Int_Tables_number 1

loop_
_symmetry_equiv_pos_as_xyz
'x,y,z'

loop_
_atom_site_label
_atom_site_type_symbol
_atom_site_fract_x
_atom_site_fract_y
_atom_site_fract_z
Zn11	Zn1	0.489300	0.426560	0.320900
Zn21	Zn2	0.528200	0.653110	0.485000
Zn31	Zn3	0.976000	0.470070	0.015600
Zn41	Zn4	0.014500	0.697840	0.183500
O11	O1	0.527300	0.553000	0.420200
O21	O2	0.470600	0.460000	0.495600
O31	O3	0.982200	0.570700	0.085500
O41	O4	0.034800	0.663400	0.019000
N11	N1	0.845500	0.451800	0.146900
N21	N2	0.859700	0.399900	0.223600
N31	N3	0.751400	0.388500	0.291400
N41	N4	0.670900	0.433500	0.255400
N51	N5	0.456600	0.336900	0.359200
N61	N6	0.372200	0.305100	0.281500
N71	N7	0.373300	0.248200	0.327000
N81	N8	0.454700	0.243200	0.432800
N91	N9	0.355700	0.450400	0.187500
N101	N10	0.368100	0.438300	0.063900
N111	N11	0.254800	0.450600	0.997500
N121	N12	0.165300	0.461600	0.086900
N131	N13	0.952300	0.288500	0.850700
N141	N14	0.863000	0.322700	0.780100
N151	N15	0.860900	0.379300	0.822300
N161	N16	0.950600	0.384000	0.922400
N171	N17	0.840700	0.686000	0.252700
N181	N18	0.738300	0.729900	0.223600
N191	N19	0.640700	0.719900	0.282000
N201	N20	0.668200	0.671000	0.359300
N211	N21	0.154100	0.669900	0.313200
N221	N22	0.131400	0.680300	0.439800
N231	N23	0.241600	0.679300	0.502400
N241	N24	0.338400	0.658200	0.425100
N251	N25	0.554000	0.606000	0.643200
H11	H1	0.638700	0.596900	0.656600
H21	H2	0.529600	0.629200	0.708100
N261	N26	0.949000	0.523900	0.849000
H31	H3	0.987700	0.504700	0.785700
H41	H4	0.863800	0.526500	0.827700
C11	C1	0.723000	0.473900	0.169000
C21	C2	0.656000	0.531300	0.114000
H51	H5	0.570000	0.535000	0.146500
H61	H6	0.707300	0.567400	0.137400
H71	H7	0.647900	0.527900	0.022500
C31	C3	0.503000	0.298600	0.447000
C41	C4	0.597000	0.317800	0.551400
H81	H8	0.619100	0.360900	0.541400
H91	H9	0.558000	0.311900	0.631700
H101	H10	0.675700	0.293100	0.549300
C51	C5	0.224900	0.466700	0.193900
C61	C6	0.159000	0.483700	0.312000
H111	H11	0.223300	0.484900	0.383000
H121	H12	0.118800	0.523900	0.301900
H131	H13	0.093100	0.453300	0.328800
C71	C7	0.006000	0.327300	0.941000
C81	C8	0.109000	0.309200	0.040000
H141	H14	0.129400	0.265900	0.030600
H151	H15	0.186300	0.333800	0.029800
H161	H16	0.076700	0.316400	0.122900
C91	C9	0.784900	0.652600	0.337600
C101	C10	0.852000	0.602400	0.403000
H171	H17	0.937600	0.597300	0.370700
H181	H18	0.860600	0.611500	0.492800
H191	H19	0.802200	0.564700	0.389900
C111	C11	0.274000	0.659200	0.304000
C121	C12	0.337000	0.642900	0.184000
H201	H20	0.429700	0.636900	0.201000
H211	H21	0.298600	0.605200	0.149300
H221	H22	0.322900	0.676000	0.123100
C131	C13	0.499000	0.518500	0.505000
C141	C14	0.473000	0.545200	0.638300
H231	H23	0.379400	0.556300	0.639000
C151	C15	0.503000	0.500100	0.746600
H241	H24	0.448700	0.463900	0.735600
H251	H25	0.594300	0.488000	0.746700
H261	H26	0.486900	0.519800	0.826300
C161	C16	0.010000	0.607700	0.996000
C171	C17	0.002000	0.585200	0.862000
H271	H27	0.951000	0.614300	0.806700
C181	C18	0.140000	0.576700	0.814000
H281	H28	0.185600	0.615800	0.818600
H291	H29	0.187000	0.546800	0.867000
H301	H30	0.133600	0.562300	0.727700
Zn51	Zn5	0.510700	0.926560	0.679100
Zn61	Zn6	0.471800	0.153110	0.515000
Zn71	Zn7	0.024000	0.970070	0.984400
Zn81	Zn8	0.985500	0.197840	0.816500
O51	O5	0.472700	0.053000	0.579800
O61	O6	0.529400	0.960000	0.504400
O71	O7	0.017800	0.070700	0.914500
O81	O8	0.965200	0.163400	0.981000
N271	N27	0.154500	0.951800	0.853100
N281	N28	0.140300	0.899900	0.776400
N291	N29	0.248600	0.888500	0.708600
N301	N30	0.329100	0.933500	0.744600
N311	N31	0.543400	0.836900	0.640800
N321	N32	0.627800	0.805100	0.718500
N331	N33	0.626700	0.748200	0.673000
N341	N34	0.545300	0.743200	0.567200
N351	N35	0.644300	0.950400	0.812500
N361	N36	0.631900	0.938300	0.936100
N371	N37	0.745200	0.950600	0.002500
N381	N38	0.834700	0.961600	0.913100
N391	N39	0.047700	0.788500	0.149300
N401	N40	0.137000	0.822700	0.219900
N411	N41	0.139100	0.879300	0.177700
N421	N42	0.049400	0.884000	0.077600
N431	N43	0.159300	0.186000	0.747300
N441	N44	0.261700	0.229900	0.776400
N451	N45	0.359300	0.219900	0.718000
N461	N46	0.331800	0.171000	0.640700
N471	N47	0.845900	0.169900	0.686800
N481	N48	0.868600	0.180300	0.560200
N491	N49	0.758400	0.179300	0.497600
N501	N50	0.661600	0.158200	0.574900
N511	N51	0.446000	0.106000	0.356800
H311	H31	0.361300	0.096900	0.343400
H321	H32	0.470400	0.129200	0.291900
N521	N52	0.051000	0.023900	0.151000
H331	H33	0.012300	0.004700	0.214300
H341	H34	0.136200	0.026500	0.172300
C191	C19	0.277000	0.973900	0.831000
C201	C20	0.344000	0.031300	0.886000
H351	H35	0.430000	0.035000	0.853500
H361	H36	0.292700	0.067400	0.862600
H371	H37	0.352100	0.027900	0.977500
C211	C21	0.497000	0.798600	0.553000
C221	C22	0.403000	0.817800	0.448600
H381	H38	0.380900	0.860900	0.458600
H391	H39	0.442000	0.811900	0.368300
H401	H40	0.324300	0.793100	0.450700
C231	C23	0.775100	0.966700	0.806100
C241	C24	0.841000	0.983700	0.688000
H411	H41	0.776700	0.984900	0.617000
H421	H42	0.881200	0.023900	0.698100
H431	H43	0.906900	0.953300	0.671200
C251	C25	0.994000	0.827300	0.059000
C261	C26	0.891000	0.809200	0.960000
H441	H44	0.870600	0.765900	0.969400
H451	H45	0.813700	0.833800	0.970200
H461	H46	0.923300	0.816400	0.877100
C271	C27	0.215100	0.152600	0.662400
C281	C28	0.148000	0.102400	0.597000
H471	H47	0.062400	0.097300	0.629300
H481	H48	0.139400	0.111500	0.507200
H491	H49	0.197800	0.064700	0.610100
C291	C29	0.726000	0.159200	0.696000
C301	C30	0.663000	0.142900	0.816000
H501	H50	0.570300	0.136900	0.799000
H511	H51	0.701400	0.105200	0.850700
H521	H52	0.677100	0.176000	0.876900
C311	C31	0.501000	0.018500	0.495000
C321	C32	0.527000	0.045200	0.361700
H531	H53	0.620600	0.056300	0.361000
C331	C33	0.497000	0.000100	0.253400
H541	H54	0.551300	0.963900	0.264400
H551	H55	0.405700	0.988000	0.253300
H561	H56	0.513100	0.019800	0.173700
C341	C34	0.990000	0.107700	0.004000
C351	C35	0.998000	0.085200	0.138000
H571	H57	0.049000	0.114300	0.193300
C361	C36	0.860000	0.076700	0.186000
H581	H58	0.814400	0.115800	0.181400
H591	H59	0.813000	0.046800	0.133000
H601	H60	0.866400	0.062300	0.272300
