data_CACBUG_clean_PM
_symmetry_space_group_name_H-M	'P1'
_cell_length_a	7.408300
_cell_length_b	10.890000
_cell_length_c	13.632000
_cell_angle_alpha	66.670000
_cell_angle_beta	78.170000
_cell_angle_gamma	71.780000
_symmetry_Int_Tables_number 1

loop_
_symmetry_equiv_pos_as_xyz
'x,y,z'

loop_
_atom_site_label
_atom_site_type_symbol
_atom_site_fract_x
_atom_site_fract_y
_atom_site_fract_z
O11	O1	0.835100	0.701630	0.958280
N11	N1	0.689100	0.479200	0.015870
N21	N2	0.975600	0.486600	0.161610
C11	C1	0.659300	0.727600	0.952870
C21	C2	0.613900	0.370900	0.043850
C31	C3	0.576400	0.607100	0.973370
C41	C4	0.963600	0.370600	0.244800
C51	C5	0.986600	0.594900	0.183000
O21	O2	0.540200	0.842330	0.937360
C61	C6	0.746700	0.228200	0.093900
H11	H1	0.954100	0.293800	0.231300
C71	C7	0.964300	0.357800	0.350200
C81	C8	0.990800	0.590700	0.285100
H21	H2	0.991800	0.678700	0.124500
O31	O3	0.859600	0.181400	0.026860
O41	O4	0.736000	0.176400	0.193540
H31	H3	0.952600	0.273900	0.407000
C91	C9	0.982100	0.467400	0.373300
H41	H4	0.999500	0.669600	0.295900
N31	N3	0.500900	0.853600	0.161280
C101	C10	0.989400	0.452600	0.484000
C111	C11	0.440900	0.738400	0.189200
C121	C12	0.560000	0.874700	0.238700
H51	H5	0.977800	0.366900	0.538300
H61	H6	0.395700	0.723600	0.135500
C131	C13	0.441600	0.640400	0.292100
C141	C14	0.560000	0.783700	0.344200
H71	H7	0.603500	0.955000	0.220400
H81	H8	0.401200	0.559500	0.307500
C151	C15	0.502600	0.662000	0.373200
H91	H9	0.599000	0.804000	0.397100
C161	C16	0.507200	0.565600	0.483900
H101	H10	0.521400	0.597100	0.537000
O51	O5	0.164900	0.298370	0.041720
N41	N4	0.310900	0.520800	0.984130
N51	N5	0.024400	0.513400	0.838390
C171	C17	0.340700	0.272400	0.047130
C181	C18	0.386100	0.629100	0.956150
C191	C19	0.423600	0.392900	0.026630
C201	C20	0.036400	0.629400	0.755200
C211	C21	0.013400	0.405100	0.817000
O61	O6	0.459800	0.157670	0.062640
C221	C22	0.253300	0.771800	0.906100
H111	H11	0.045900	0.706200	0.768700
C231	C23	0.035700	0.642200	0.649800
C241	C24	0.009200	0.409300	0.714900
H121	H12	0.008200	0.321300	0.875500
O71	O7	0.140400	0.818600	0.973140
O81	O8	0.264000	0.823600	0.806460
H131	H13	0.047400	0.726100	0.593000
C251	C25	0.017900	0.532600	0.626700
H141	H14	0.000500	0.330400	0.704100
N61	N6	0.499100	0.146400	0.838720
C261	C26	0.010600	0.547400	0.516000
C271	C27	0.559100	0.261600	0.810800
C281	C28	0.440000	0.125300	0.761300
H151	H15	0.022200	0.633100	0.461700
H161	H16	0.604300	0.276400	0.864500
C291	C29	0.558400	0.359600	0.707900
C301	C30	0.440000	0.216300	0.655800
H171	H17	0.396500	0.045000	0.779600
H181	H18	0.598800	0.440500	0.692500
C311	C31	0.497400	0.338000	0.626800
H191	H19	0.401000	0.196000	0.602900
C321	C32	0.492800	0.434400	0.516100
H201	H20	0.478600	0.402900	0.463000
Zn11	Zn1	0.000000	0.500000	0.000000
Zn21	Zn2	0.500000	0.000000	0.000000
