data_CADQAB_clean_PM
_symmetry_space_group_name_H-M	'P1'
_cell_length_a	10.406000
_cell_length_b	11.062000
_cell_length_c	12.407000
_cell_angle_alpha	103.580000
_cell_angle_beta	106.340000
_cell_angle_gamma	98.730000
_symmetry_Int_Tables_number 1

loop_
_symmetry_equiv_pos_as_xyz
'x,y,z'

loop_
_atom_site_label
_atom_site_type_symbol
_atom_site_fract_x
_atom_site_fract_y
_atom_site_fract_z
Pr11	Pr1	0.094150	0.544260	0.682660
Pr21	Pr2	0.905850	0.455740	0.317340
H11	H1	0.274100	0.394300	0.249600
H21	H2	0.075600	0.881800	0.710700
H31	H3	0.000900	0.147600	0.666300
H41	H4	0.565500	0.826300	0.899300
H51	H5	0.389300	0.557600	0.634700
H61	H6	0.176600	0.939600	0.946800
H71	H7	0.725900	0.605700	0.750400
H81	H8	0.924400	0.118200	0.289300
H91	H9	0.999100	0.852400	0.333700
H101	H10	0.434500	0.173700	0.100700
H111	H11	0.610700	0.442400	0.365300
H121	H12	0.823400	0.060400	0.053200
C11	C1	0.000800	0.088100	0.599400
C21	C2	0.294200	0.771200	0.852700
C31	C3	0.357700	0.481500	0.462000
C41	C4	0.055700	0.753400	0.508700
C51	C5	0.539800	0.895600	0.939400
C61	C6	0.204900	0.460300	0.425700
C71	C7	0.400300	0.890300	0.928700
C81	C8	0.434000	0.534100	0.580700
C91	C9	0.029800	0.972300	0.607500
C101	C10	0.361800	0.994000	0.989100
C111	C11	0.424700	0.448200	0.380900
C121	C12	0.028800	0.881900	0.506600
C131	C13	0.999200	0.911900	0.400600
C141	C14	0.705800	0.228800	0.147300
C151	C15	0.642300	0.518500	0.538000
C161	C16	0.944300	0.246600	0.491300
C171	C17	0.460200	0.104400	0.060600
C181	C18	0.795100	0.539700	0.574300
C191	C19	0.599700	0.109700	0.071300
C201	C20	0.566000	0.465900	0.419300
C211	C21	0.970200	0.027700	0.392500
C221	C22	0.638200	0.006000	0.010900
C231	C23	0.575300	0.551800	0.619100
C241	C24	0.971200	0.118100	0.493400
O11	O1	0.170700	0.759100	0.850500
O21	O2	0.356600	0.397500	0.263000
O31	O3	0.057800	0.952100	0.715100
O41	O4	0.136400	0.422600	0.316100
O51	O5	0.144800	0.480600	0.500700
O61	O6	0.093000	0.733100	0.607900
O71	O7	0.330700	0.682200	0.791400
O81	O8	0.039900	0.673200	0.411700
O91	O9	0.232500	0.007400	0.985400
O101	O10	0.829300	0.240900	0.149500
O111	O11	0.643400	0.602500	0.737000
O121	O12	0.942200	0.047900	0.284900
O131	O13	0.863600	0.577400	0.683900
O141	O14	0.855200	0.519400	0.499300
O151	O15	0.907000	0.266900	0.392100
O161	O16	0.669300	0.317800	0.208600
O171	O17	0.960100	0.326800	0.588300
O181	O18	0.767500	0.992600	0.014600
