data_CADZIT_clean_PM
_symmetry_space_group_name_H-M	'P1'
_cell_length_a	19.961000
_cell_length_b	6.081000
_cell_length_c	21.693000
_cell_angle_alpha	90.000000
_cell_angle_beta	92.694000
_cell_angle_gamma	90.000000
_symmetry_Int_Tables_number 1

loop_
_symmetry_equiv_pos_as_xyz
'x,y,z'

loop_
_atom_site_label
_atom_site_type_symbol
_atom_site_fract_x
_atom_site_fract_y
_atom_site_fract_z
C11	C1	0.184900	0.942700	0.384500
H11	H1	0.156800	0.063700	0.387900
C21	C2	0.174300	0.803400	0.334700
H21	H2	0.140400	0.833000	0.305000
C31	C3	0.214200	0.620300	0.329490
C41	C4	0.264800	0.586900	0.375400
H31	H3	0.293000	0.465600	0.373700
C51	C5	0.272300	0.734800	0.422850
H41	H4	0.306000	0.710800	0.453200
C61	C6	0.206600	0.464800	0.276900
C71	C7	0.150400	0.486300	0.230300
H51	H5	0.121500	0.604200	0.241800
H61	H6	0.125400	0.351500	0.228200
H71	H7	0.167800	0.517300	0.190700
C81	C8	0.121950	0.248400	0.515200
C91	C9	0.058980	0.377500	0.507850
C101	C10	0.057610	0.569300	0.473400
H81	H8	0.096500	0.616900	0.455600
C111	C11	0.999300	0.691800	0.465100
N11	N1	0.233230	0.912000	0.427500
N21	N2	0.253700	0.322900	0.275100
O11	O1	0.173420	0.319500	0.490490
O21	O2	0.122010	0.074300	0.544500
O31	O3	0.000700	0.877400	0.430100
H91	H9	0.963500	0.934900	0.428600
C121	C12	0.684900	0.442700	0.884500
H101	H10	0.656800	0.563700	0.887900
C131	C13	0.674300	0.303400	0.834700
H111	H11	0.640400	0.333000	0.805000
C141	C14	0.714200	0.120300	0.829490
C151	C15	0.764800	0.086900	0.875400
H121	H12	0.793000	0.965600	0.873700
C161	C16	0.772300	0.234800	0.922850
H131	H13	0.806000	0.210800	0.953200
C171	C17	0.706600	0.964800	0.776900
C181	C18	0.650400	0.986300	0.730300
H141	H14	0.621500	0.104200	0.741800
H151	H15	0.625400	0.851500	0.728200
H161	H16	0.667800	0.017300	0.690700
C191	C19	0.621950	0.748400	0.015200
C201	C20	0.558980	0.877500	0.007850
C211	C21	0.557610	0.069300	0.973400
H171	H17	0.596500	0.116900	0.955600
C221	C22	0.499300	0.191800	0.965100
N31	N3	0.733230	0.412000	0.927500
N41	N4	0.753700	0.822900	0.775100
O41	O4	0.673420	0.819500	0.990490
O51	O5	0.622010	0.574300	0.044500
O61	O6	0.500700	0.377400	0.930100
H181	H18	0.463500	0.434900	0.928600
C231	C23	0.315100	0.942700	0.615500
H191	H19	0.343200	0.063700	0.612100
C241	C24	0.325700	0.803400	0.665300
H201	H20	0.359600	0.833000	0.695000
C251	C25	0.285800	0.620300	0.670510
C261	C26	0.235200	0.586900	0.624600
H211	H21	0.207000	0.465600	0.626300
C271	C27	0.227700	0.734800	0.577150
H221	H22	0.194000	0.710800	0.546800
C281	C28	0.293400	0.464800	0.723100
C291	C29	0.349600	0.486300	0.769700
H231	H23	0.378500	0.604200	0.758200
H241	H24	0.374600	0.351500	0.771800
H251	H25	0.332200	0.517300	0.809300
C301	C30	0.378050	0.248400	0.484800
C311	C31	0.441020	0.377500	0.492150
C321	C32	0.442390	0.569300	0.526600
H261	H26	0.403500	0.616900	0.544400
C331	C33	0.500700	0.691800	0.534900
N51	N5	0.266770	0.912000	0.572500
N61	N6	0.246300	0.322900	0.724900
O71	O7	0.326580	0.319500	0.509510
O81	O8	0.377990	0.074300	0.455500
O91	O9	0.499300	0.877400	0.569900
H271	H27	0.536500	0.934900	0.571400
C341	C34	0.815100	0.442700	0.115500
H281	H28	0.843200	0.563700	0.112100
C351	C35	0.825700	0.303400	0.165300
H291	H29	0.859600	0.333000	0.195000
C361	C36	0.785800	0.120300	0.170510
C371	C37	0.735200	0.086900	0.124600
H301	H30	0.707000	0.965600	0.126300
C381	C38	0.727700	0.234800	0.077150
H311	H31	0.694000	0.210800	0.046800
C391	C39	0.793400	0.964800	0.223100
C401	C40	0.849600	0.986300	0.269700
H321	H32	0.878500	0.104200	0.258200
H331	H33	0.874600	0.851500	0.271800
H341	H34	0.832200	0.017300	0.309300
C411	C41	0.878050	0.748400	0.984800
C421	C42	0.941020	0.877500	0.992150
C431	C43	0.942390	0.069300	0.026600
H351	H35	0.903500	0.116900	0.044400
C441	C44	0.000700	0.191800	0.034900
N71	N7	0.766770	0.412000	0.072500
N81	N8	0.746300	0.822900	0.224900
O101	O10	0.826580	0.819500	0.009510
O111	O11	0.877990	0.574300	0.955500
O121	O12	0.999300	0.377400	0.069900
H361	H36	0.036500	0.434900	0.071400
C451	C45	0.815100	0.057300	0.615500
H371	H37	0.843200	0.936300	0.612100
C461	C46	0.825700	0.196600	0.665300
H381	H38	0.859600	0.167000	0.695000
C471	C47	0.785800	0.379700	0.670510
C481	C48	0.735200	0.413100	0.624600
H391	H39	0.707000	0.534400	0.626300
C491	C49	0.727700	0.265200	0.577150
H401	H40	0.694000	0.289200	0.546800
C501	C50	0.793400	0.535200	0.723100
C511	C51	0.849600	0.513700	0.769700
H411	H41	0.878500	0.395800	0.758200
H421	H42	0.874600	0.648500	0.771800
H431	H43	0.832200	0.482700	0.809300
C521	C52	0.878050	0.751600	0.484800
C531	C53	0.941020	0.622500	0.492150
C541	C54	0.942390	0.430700	0.526600
H441	H44	0.903500	0.383100	0.544400
C551	C55	0.000700	0.308200	0.534900
N91	N9	0.766770	0.088000	0.572500
N101	N10	0.746300	0.677100	0.724900
O131	O13	0.826580	0.680500	0.509510
O141	O14	0.877990	0.925700	0.455500
O151	O15	0.999300	0.122600	0.569900
H451	H45	0.036500	0.065100	0.571400
C561	C56	0.315100	0.557300	0.115500
H461	H46	0.343200	0.436300	0.112100
C571	C57	0.325700	0.696600	0.165300
H471	H47	0.359600	0.667000	0.195000
C581	C58	0.285800	0.879700	0.170510
C591	C59	0.235200	0.913100	0.124600
H481	H48	0.207000	0.034400	0.126300
C601	C60	0.227700	0.765200	0.077150
H491	H49	0.194000	0.789200	0.046800
C611	C61	0.293400	0.035200	0.223100
C621	C62	0.349600	0.013700	0.269700
H501	H50	0.378500	0.895800	0.258200
H511	H51	0.374600	0.148500	0.271800
H521	H52	0.332200	0.982700	0.309300
C631	C63	0.378050	0.251600	0.984800
C641	C64	0.441020	0.122500	0.992150
C651	C65	0.442390	0.930700	0.026600
H531	H53	0.403500	0.883100	0.044400
C661	C66	0.500700	0.808200	0.034900
N111	N11	0.266770	0.588000	0.072500
N121	N12	0.246300	0.177100	0.224900
O161	O16	0.326580	0.180500	0.009510
O171	O17	0.377990	0.425700	0.955500
O181	O18	0.499300	0.622600	0.069900
H541	H54	0.536500	0.565100	0.071400
C671	C67	0.684900	0.057300	0.384500
H551	H55	0.656800	0.936300	0.387900
C681	C68	0.674300	0.196600	0.334700
H561	H56	0.640400	0.167000	0.305000
C691	C69	0.714200	0.379700	0.329490
C701	C70	0.764800	0.413100	0.375400
H571	H57	0.793000	0.534400	0.373700
C711	C71	0.772300	0.265200	0.422850
H581	H58	0.806000	0.289200	0.453200
C721	C72	0.706600	0.535200	0.276900
C731	C73	0.650400	0.513700	0.230300
H591	H59	0.621500	0.395800	0.241800
H601	H60	0.625400	0.648500	0.228200
H611	H61	0.667800	0.482700	0.190700
C741	C74	0.621950	0.751600	0.515200
C751	C75	0.558980	0.622500	0.507850
C761	C76	0.557610	0.430700	0.473400
H621	H62	0.596500	0.383100	0.455600
C771	C77	0.499300	0.308200	0.465100
N131	N13	0.733230	0.088000	0.427500
N141	N14	0.753700	0.677100	0.275100
O191	O19	0.673420	0.680500	0.490490
O201	O20	0.622010	0.925700	0.544500
O211	O21	0.500700	0.122600	0.430100
H631	H63	0.463500	0.065100	0.428600
C781	C78	0.184900	0.557300	0.884500
H641	H64	0.156800	0.436300	0.887900
C791	C79	0.174300	0.696600	0.834700
H651	H65	0.140400	0.667000	0.805000
C801	C80	0.214200	0.879700	0.829490
C811	C81	0.264800	0.913100	0.875400
H661	H66	0.293000	0.034400	0.873700
C821	C82	0.272300	0.765200	0.922850
H671	H67	0.306000	0.789200	0.953200
C831	C83	0.206600	0.035200	0.776900
C841	C84	0.150400	0.013700	0.730300
H681	H68	0.121500	0.895800	0.741800
H691	H69	0.125400	0.148500	0.728200
H701	H70	0.167800	0.982700	0.690700
C851	C85	0.121950	0.251600	0.015200
C861	C86	0.058980	0.122500	0.007850
C871	C87	0.057610	0.930700	0.973400
H711	H71	0.096500	0.883100	0.955600
C881	C88	0.999300	0.808200	0.965100
N151	N15	0.233230	0.588000	0.927500
N161	N16	0.253700	0.177100	0.775100
O221	O22	0.173420	0.180500	0.990490
O231	O23	0.122010	0.425700	0.044500
O241	O24	0.000700	0.622600	0.930100
H721	H72	0.963500	0.565100	0.928600
Zn11	Zn1	0.250000	0.121380	0.500000
Zn21	Zn2	0.750000	0.621380	0.000000
Zn31	Zn3	0.750000	0.878620	0.500000
Zn41	Zn4	0.250000	0.378620	0.000000
