data_CAHNEF_clean_PM
_symmetry_space_group_name_H-M	'P1'
_cell_length_a	10.188300
_cell_length_b	12.015800
_cell_length_c	19.205900
_cell_angle_alpha	92.790000
_cell_angle_beta	90.000000
_cell_angle_gamma	90.000000
_symmetry_Int_Tables_number 1

loop_
_symmetry_equiv_pos_as_xyz
'x,y,z'

loop_
_atom_site_label
_atom_site_type_symbol
_atom_site_fract_x
_atom_site_fract_y
_atom_site_fract_z
Ag11	Ag1	0.578950	0.244340	0.602210
Ag21	Ag2	0.296130	0.487600	0.863680
Ag31	Ag3	0.424320	0.730430	0.590490
Ag41	Ag4	0.078950	0.255660	0.897790
Ag51	Ag5	0.796130	0.012400	0.636320
Ag61	Ag6	0.924320	0.769570	0.909510
Ag71	Ag7	0.421050	0.755660	0.397790
Ag81	Ag8	0.703870	0.512400	0.136320
Ag91	Ag9	0.575680	0.269570	0.409510
Ag101	Ag10	0.921050	0.744340	0.102210
Ag111	Ag11	0.203870	0.987600	0.363680
Ag121	Ag12	0.075680	0.230430	0.090490
P11	P1	0.325810	0.151020	0.495670
P21	P2	0.464600	0.004290	0.681540
P31	P3	0.825810	0.348980	0.004330
P41	P4	0.964600	0.495710	0.818460
P51	P5	0.674190	0.848980	0.504330
P61	P6	0.535400	0.995710	0.318460
P71	P7	0.174190	0.651020	0.995670
P81	P8	0.035400	0.504290	0.181540
H11	H1	0.732700	0.468800	0.557200
H21	H2	0.813600	0.543600	0.613500
H31	H3	0.712700	0.601100	0.562500
H41	H4	0.481400	0.279100	0.827500
H51	H5	0.635700	0.297200	0.817700
H61	H6	0.555600	0.220500	0.762100
H71	H7	0.567500	0.738200	0.831800
H81	H8	0.413300	0.719800	0.842300
H91	H9	0.464800	0.794200	0.781100
H101	H10	0.143500	0.464000	0.655200
H111	H11	0.219400	0.407700	0.589600
H121	H12	0.196600	0.539700	0.594900
H131	H13	0.232700	0.031200	0.942800
H141	H14	0.313600	0.956400	0.886500
H151	H15	0.212700	0.898900	0.937500
H161	H16	0.981400	0.220900	0.672500
H171	H17	0.135700	0.202800	0.682300
H181	H18	0.055600	0.279500	0.737900
H191	H19	0.067500	0.761800	0.668200
H201	H20	0.913300	0.780200	0.657700
H211	H21	0.964800	0.705800	0.718900
H221	H22	0.643500	0.036000	0.844800
H231	H23	0.719400	0.092300	0.910400
H241	H24	0.696600	0.960300	0.905100
H251	H25	0.267300	0.531200	0.442800
H261	H26	0.186400	0.456400	0.386500
H271	H27	0.287300	0.398900	0.437500
H281	H28	0.518600	0.720900	0.172500
H291	H29	0.364300	0.702800	0.182300
H301	H30	0.444400	0.779500	0.237900
H311	H31	0.432500	0.261800	0.168200
H321	H32	0.586700	0.280200	0.157700
H331	H33	0.535200	0.205800	0.218900
H341	H34	0.856500	0.536000	0.344800
H351	H35	0.780600	0.592300	0.410400
H361	H36	0.803400	0.460300	0.405100
H371	H37	0.767300	0.968800	0.057200
H381	H38	0.686400	0.043600	0.113500
H391	H39	0.787300	0.101100	0.062500
H401	H40	0.018600	0.779100	0.327500
H411	H41	0.864300	0.797200	0.317700
H421	H42	0.944400	0.720500	0.262100
H431	H43	0.932500	0.238200	0.331800
H441	H44	0.086700	0.219800	0.342300
H451	H45	0.035200	0.294200	0.281100
H461	H46	0.356500	0.964000	0.155200
H471	H47	0.280600	0.907700	0.089600
H481	H48	0.303400	0.039700	0.094900
C11	C1	0.729500	0.535000	0.589100
C21	C2	0.619500	0.521800	0.642300
C31	C3	0.551700	0.287300	0.793300
C41	C4	0.524100	0.389300	0.750700
C51	C5	0.483000	0.728600	0.807800
C61	C6	0.488400	0.624500	0.758300
C71	C7	0.214300	0.473700	0.621500
C81	C8	0.344700	0.488900	0.660300
C91	C9	0.229500	0.965000	0.910900
C101	C10	0.119500	0.978200	0.857700
C111	C11	0.051700	0.212700	0.706700
C121	C12	0.024100	0.110700	0.749300
C131	C13	0.983000	0.771400	0.692200
C141	C14	0.988400	0.875500	0.741700
C151	C15	0.714300	0.026300	0.878500
C161	C16	0.844700	0.011100	0.839700
C171	C17	0.270500	0.465000	0.410900
C181	C18	0.380500	0.478200	0.357700
C191	C19	0.448300	0.712700	0.206700
C201	C20	0.475900	0.610700	0.249300
C211	C21	0.517000	0.271400	0.192200
C221	C22	0.511600	0.375500	0.241700
C231	C23	0.785700	0.526300	0.378500
C241	C24	0.655300	0.511100	0.339700
C251	C25	0.770500	0.035000	0.089100
C261	C26	0.880500	0.021800	0.142300
C271	C27	0.948300	0.787300	0.293300
C281	C28	0.975900	0.889300	0.250700
C291	C29	0.017000	0.228600	0.307800
C301	C30	0.011600	0.124500	0.258300
C311	C31	0.285700	0.973700	0.121500
C321	C32	0.155300	0.988900	0.160300
S11	S1	0.621840	0.647790	0.698380
S21	S2	0.467970	0.506100	0.592510
S31	S3	0.327970	0.613820	0.716890
S41	S4	0.659440	0.397710	0.688860
S51	S5	0.522480	0.508530	0.813290
S61	S6	0.368640	0.363730	0.707660
S71	S7	0.121840	0.852210	0.801620
S81	S8	0.967970	0.993900	0.907490
S91	S9	0.827970	0.886180	0.783110
S101	S10	0.159440	0.102290	0.811140
S111	S11	0.022480	0.991470	0.686710
S121	S12	0.868640	0.136270	0.792340
S131	S13	0.378160	0.352210	0.301620
S141	S14	0.532030	0.493900	0.407490
S151	S15	0.672030	0.386180	0.283110
S161	S16	0.340560	0.602290	0.311140
S171	S17	0.477520	0.491470	0.186710
S181	S18	0.631360	0.636270	0.292340
S191	S19	0.878160	0.147790	0.198380
S201	S20	0.032030	0.006100	0.092510
S211	S21	0.172030	0.113820	0.216890
S221	S22	0.840560	0.897710	0.188860
S231	S23	0.977520	0.008530	0.313290
S241	S24	0.131360	0.863730	0.207660
O11	O1	0.444500	0.219400	0.508140
O21	O2	0.258000	0.151100	0.428380
O31	O3	0.440800	0.889200	0.660200
O41	O4	0.577700	0.068200	0.657440
O51	O5	0.944500	0.280600	0.991860
O61	O6	0.758000	0.348900	0.071620
O71	O7	0.940800	0.610800	0.839800
O81	O8	0.077700	0.431800	0.842560
O91	O9	0.555500	0.780600	0.491860
O101	O10	0.742000	0.848900	0.571620
O111	O11	0.559200	0.110800	0.339800
O121	O12	0.422300	0.931800	0.342560
O131	O13	0.055500	0.719400	0.008140
O141	O14	0.242000	0.651100	0.928380
O151	O15	0.059200	0.389200	0.160200
O161	O16	0.922300	0.568200	0.157440
F11	F1	0.355100	0.031200	0.515310
F21	F2	0.227500	0.182500	0.554460
F31	F3	0.464900	0.013900	0.762530
F41	F4	0.341500	0.074900	0.669860
F51	F5	0.855100	0.468800	0.984690
F61	F6	0.727500	0.317500	0.945540
F71	F7	0.964900	0.486100	0.737470
F81	F8	0.841500	0.425100	0.830140
F91	F9	0.644900	0.968800	0.484690
F101	F10	0.772500	0.817500	0.445540
F111	F11	0.535100	0.986100	0.237470
F121	F12	0.658500	0.925100	0.330140
F131	F13	0.144900	0.531200	0.015310
F141	F14	0.272500	0.682500	0.054460
F151	F15	0.035100	0.513900	0.262530
F161	F16	0.158500	0.574900	0.169860
