data_CAJQEL_clean_PM
_symmetry_space_group_name_H-M	'P1'
_cell_length_a	18.348900
_cell_length_b	18.349000
_cell_length_c	19.866400
_cell_angle_alpha	64.527500
_cell_angle_beta	64.527700
_cell_angle_gamma	93.939900
_symmetry_Int_Tables_number 1

loop_
_symmetry_equiv_pos_as_xyz
'x,y,z'

loop_
_atom_site_label
_atom_site_type_symbol
_atom_site_fract_x
_atom_site_fract_y
_atom_site_fract_z
Cu11	Cu1	0.434760	0.003020	0.562220
Cu21	Cu2	0.003020	0.434760	0.562220
Cu31	Cu3	0.996980	0.565240	0.437780
Cu41	Cu4	0.565240	0.996980	0.437780
Cu51	Cu5	0.991070	0.991070	0.440560
Cu61	Cu6	0.568370	0.568370	0.440560
Cu71	Cu7	0.008930	0.008930	0.559440
Cu81	Cu8	0.431630	0.431630	0.559440
H11	H1	0.750200	0.982400	0.729600
H21	H2	0.539000	0.990800	0.723000
H31	H3	0.732900	0.979300	0.531800
H41	H4	0.488400	0.963800	0.853200
H51	H5	0.539000	0.063800	0.798000
H61	H6	0.520200	0.288000	0.729600
H71	H7	0.738000	0.286200	0.723000
H81	H8	0.735300	0.488900	0.531800
H91	H9	0.658400	0.183000	0.853200
H101	H10	0.663000	0.138200	0.798000
H111	H11	0.017600	0.249800	0.270400
H121	H12	0.009200	0.461000	0.277000
H131	H13	0.020700	0.267100	0.468200
H141	H14	0.036200	0.511600	0.146800
H151	H15	0.936200	0.461000	0.202000
H161	H16	0.712000	0.479800	0.270400
H171	H17	0.713800	0.262000	0.277000
H181	H18	0.511100	0.264700	0.468200
H191	H19	0.817000	0.341600	0.146800
H201	H20	0.861800	0.337000	0.202000
H211	H21	0.249800	0.017600	0.270400
H221	H22	0.461000	0.009200	0.277000
H231	H23	0.267100	0.020700	0.468200
H241	H24	0.511600	0.036200	0.146800
H251	H25	0.461000	0.936200	0.202000
H261	H26	0.479800	0.712000	0.270400
H271	H27	0.262000	0.713800	0.277000
H281	H28	0.264700	0.511100	0.468200
H291	H29	0.341600	0.817000	0.146800
H301	H30	0.337000	0.861800	0.202000
H311	H31	0.982400	0.750200	0.729600
H321	H32	0.990800	0.539000	0.723000
H331	H33	0.979300	0.732900	0.531800
H341	H34	0.963800	0.488400	0.853200
H351	H35	0.063800	0.539000	0.798000
H361	H36	0.288000	0.520200	0.729600
H371	H37	0.286200	0.738000	0.723000
H381	H38	0.488900	0.735300	0.531800
H391	H39	0.183000	0.658400	0.853200
H401	H40	0.138200	0.663000	0.798000
H411	H41	0.436200	0.886600	0.000000
H421	H42	0.563800	0.113400	0.000000
H431	H43	0.113400	0.563800	0.000000
H441	H44	0.886600	0.436200	0.000000
C11	C1	0.848700	0.983100	0.580400
C21	C2	0.757220	0.980220	0.621960
C31	C3	0.719200	0.983400	0.701400
C41	C4	0.639060	0.987660	0.734480
C51	C5	0.595090	0.987890	0.697620
C61	C6	0.628320	0.983920	0.620960
C71	C7	0.709350	0.980950	0.583900
C81	C8	0.534900	0.007300	0.840600
C91	C9	0.519520	0.004920	0.921960
C101	C10	0.577400	0.987200	0.578400
C111	C11	0.570900	0.436500	0.580400
C121	C12	0.620820	0.397820	0.621960
C131	C13	0.579400	0.315200	0.701400
C141	C14	0.626460	0.277860	0.734480
C151	C15	0.707290	0.314490	0.697620
C161	C16	0.750720	0.395120	0.620960
C171	C17	0.706750	0.435150	0.583900
C181	C18	0.624500	0.152100	0.840600
C191	C19	0.558520	0.073120	0.921960
C201	C20	0.844200	0.434400	0.578400
C211	C21	0.016900	0.151300	0.419600
C221	C22	0.019780	0.242780	0.378040
C231	C23	0.016600	0.280800	0.298600
C241	C24	0.012340	0.360940	0.265520
C251	C25	0.012110	0.404910	0.302380
C261	C26	0.016080	0.371680	0.379040
C271	C27	0.019050	0.290650	0.416100
C281	C28	0.992700	0.465100	0.159400
C291	C29	0.995080	0.480480	0.078040
C301	C30	0.012800	0.422600	0.421600
C311	C31	0.563500	0.429100	0.419600
C321	C32	0.602180	0.379180	0.378040
C331	C33	0.684800	0.420600	0.298600
C341	C34	0.722140	0.373540	0.265520
C351	C35	0.685510	0.292710	0.302380
C361	C36	0.604880	0.249280	0.379040
C371	C37	0.564850	0.293250	0.416100
C381	C38	0.847900	0.375500	0.159400
C391	C39	0.926880	0.441480	0.078040
C401	C40	0.565600	0.155800	0.421600
C411	C41	0.151300	0.016900	0.419600
C421	C42	0.242780	0.019780	0.378040
C431	C43	0.280800	0.016600	0.298600
C441	C44	0.360940	0.012340	0.265520
C451	C45	0.404910	0.012110	0.302380
C461	C46	0.371680	0.016080	0.379040
C471	C47	0.290650	0.019050	0.416100
C481	C48	0.465100	0.992700	0.159400
C491	C49	0.480480	0.995080	0.078040
C501	C50	0.422600	0.012800	0.421600
C511	C51	0.429100	0.563500	0.419600
C521	C52	0.379180	0.602180	0.378040
C531	C53	0.420600	0.684800	0.298600
C541	C54	0.373540	0.722140	0.265520
C551	C55	0.292710	0.685510	0.302380
C561	C56	0.249280	0.604880	0.379040
C571	C57	0.293250	0.564850	0.416100
C581	C58	0.375500	0.847900	0.159400
C591	C59	0.441480	0.926880	0.078040
C601	C60	0.155800	0.565600	0.421600
C611	C61	0.983100	0.848700	0.580400
C621	C62	0.980220	0.757220	0.621960
C631	C63	0.983400	0.719200	0.701400
C641	C64	0.987660	0.639060	0.734480
C651	C65	0.987890	0.595090	0.697620
C661	C66	0.983920	0.628320	0.620960
C671	C67	0.980950	0.709350	0.583900
C681	C68	0.007300	0.534900	0.840600
C691	C69	0.004920	0.519520	0.921960
C701	C70	0.987200	0.577400	0.578400
C711	C71	0.436500	0.570900	0.580400
C721	C72	0.397820	0.620820	0.621960
C731	C73	0.315200	0.579400	0.701400
C741	C74	0.277860	0.626460	0.734480
C751	C75	0.314490	0.707290	0.697620
C761	C76	0.395120	0.750720	0.620960
C771	C77	0.435150	0.706750	0.583900
C781	C78	0.152100	0.624500	0.840600
C791	C79	0.073120	0.558520	0.921960
C801	C80	0.434400	0.844200	0.578400
C811	C81	0.462200	0.933200	0.000000
C821	C82	0.537800	0.066800	0.000000
C831	C83	0.066800	0.537800	0.000000
C841	C84	0.933200	0.462200	0.000000
O11	O1	0.874100	0.974680	0.513720
O21	O2	0.504470	0.989950	0.614180
O31	O3	0.888760	0.988800	0.615520
O41	O4	0.615170	0.985190	0.509240
O51	O5	0.610440	0.990380	0.810080
O61	O6	0.612180	0.511600	0.513720
O71	O7	0.881350	0.395870	0.614180
O81	O8	0.495720	0.395680	0.615520
O91	O9	0.875590	0.505570	0.509240
O101	O10	0.579480	0.199540	0.810080
O111	O11	0.025320	0.125900	0.486280
O121	O12	0.010050	0.495530	0.385820
O131	O13	0.011200	0.111240	0.384480
O141	O14	0.014810	0.384830	0.490760
O151	O15	0.009620	0.389560	0.189920
O161	O16	0.488400	0.387820	0.486280
O171	O17	0.604130	0.118650	0.385820
O181	O18	0.604320	0.504280	0.384480
O191	O19	0.494430	0.124410	0.490760
O201	O20	0.800460	0.420520	0.189920
O211	O21	0.125900	0.025320	0.486280
O221	O22	0.495530	0.010050	0.385820
O231	O23	0.111240	0.011200	0.384480
O241	O24	0.384830	0.014810	0.490760
O251	O25	0.389560	0.009620	0.189920
O261	O26	0.387820	0.488400	0.486280
O271	O27	0.118650	0.604130	0.385820
O281	O28	0.504280	0.604320	0.384480
O291	O29	0.124410	0.494430	0.490760
O301	O30	0.420520	0.800460	0.189920
O311	O31	0.974680	0.874100	0.513720
O321	O32	0.989950	0.504470	0.614180
O331	O33	0.988800	0.888760	0.615520
O341	O34	0.985190	0.615170	0.509240
O351	O35	0.990380	0.610440	0.810080
O361	O36	0.511600	0.612180	0.513720
O371	O37	0.395870	0.881350	0.614180
O381	O38	0.395680	0.495720	0.615520
O391	O39	0.505570	0.875590	0.509240
O401	O40	0.199540	0.579480	0.810080
