data_CAJWIV_ion_b_PM
_symmetry_space_group_name_H-M	'P1'
_cell_length_a	23.118500
_cell_length_b	23.118500
_cell_length_c	9.944000
_cell_angle_alpha	101.778700
_cell_angle_beta	101.778700
_cell_angle_gamma	24.316200
_symmetry_Int_Tables_number 1

loop_
_symmetry_equiv_pos_as_xyz
'x,y,z'

loop_
_atom_site_label
_atom_site_type_symbol
_atom_site_fract_x
_atom_site_fract_y
_atom_site_fract_z
O11	O1	0.097340	0.739030	0.637980
O21	O2	0.074270	0.819200	0.501980
C31	C3	0.316010	0.590090	0.618320
C41	C4	0.350580	0.618820	0.654780
H51	H5	0.266800	0.726700	0.653940
C61	C6	0.421830	0.679990	0.784630
H71	H7	0.318900	0.760040	0.808130
C81	C8	0.451750	0.713320	0.811150
H91	H9	0.371370	0.817270	0.852540
C101	C10	0.518800	0.777240	0.776050
H111	H11	0.418760	0.852760	0.726140
C121	C12	0.550010	0.809330	0.800730
H131	H13	0.471210	0.910900	0.772930
C141	C14	0.797420	0.695270	0.009180
H151	H15	0.833960	0.635710	0.082030
C161	C16	0.832760	0.722850	0.036660
H171	H17	0.898310	0.679810	0.127880
C181	C18	0.701420	0.854790	0.830950
H191	H19	0.660560	0.919170	0.761780
C201	C20	0.667200	0.825500	0.802380
H211	H21	0.604520	0.864680	0.709810
C221	C22	0.162650	0.714090	0.587790
O231	O23	0.308170	0.863940	0.460100
O241	O24	0.169870	0.925930	0.345330
C251	C25	0.432130	0.661530	0.366500
C261	C26	0.405440	0.625520	0.316960
H271	H27	0.298260	0.709460	0.286930
C281	C28	0.344310	0.552640	0.290620
H291	H29	0.262510	0.656600	0.333190
C301	C30	0.314220	0.519640	0.262890
H311	H31	0.210840	0.599300	0.284020
C321	C32	0.255430	0.446250	0.126160
H331	H33	0.177990	0.546440	0.095180
C341	C34	0.224000	0.414670	0.102160
H351	H35	0.122430	0.492630	0.055080
C361	C36	0.306090	0.816310	0.392380
O371	O37	0.905430	0.257620	0.362890
O381	O38	0.928530	0.177540	0.499220
C391	C39	0.686730	0.406650	0.382790
C401	C40	0.652130	0.377970	0.346160
H411	H41	0.735900	0.270060	0.346770
C421	C42	0.580580	0.317100	0.215980
H431	H43	0.683370	0.237230	0.192200
C441	C44	0.550670	0.283750	0.189420
H451	H45	0.630970	0.179900	0.147650
C461	C46	0.483830	0.219610	0.224430
H471	H47	0.584070	0.143860	0.274000
C481	C48	0.452510	0.187630	0.199860
H491	H49	0.531460	0.085890	0.227240
C501	C50	0.204400	0.302440	0.992220
H511	H51	0.167450	0.362400	0.919580
C521	C52	0.169120	0.274790	0.964720
H531	H53	0.103310	0.318100	0.873660
C541	C54	0.301300	0.142010	0.169920
H551	H55	0.342560	0.077240	0.238850
C561	C56	0.335470	0.171350	0.198530
H571	H57	0.398460	0.131850	0.290920
C581	C58	0.840130	0.282620	0.413280
O591	O59	0.694600	0.132830	0.540900
O601	O60	0.832870	0.070820	0.655860
C611	C61	0.570580	0.335270	0.634690
C621	C62	0.597170	0.371390	0.684390
H631	H63	0.704260	0.287540	0.714770
C641	C64	0.658320	0.444250	0.710630
H651	H65	0.740200	0.340180	0.668320
C661	C66	0.688420	0.477220	0.738360
H671	H67	0.791910	0.397460	0.717530
C681	C68	0.746780	0.551070	0.875310
H691	H69	0.824050	0.451060	0.906740
C701	C70	0.778100	0.582760	0.899450
H711	H71	0.879440	0.505060	0.947020
C721	C72	0.696650	0.180470	0.608770
In731	In73	0.905840	0.923950	0.545280
In741	In74	0.096960	0.072780	0.455770
O751	O75	0.883180	0.868530	0.409190
O761	O76	0.898780	0.935740	0.350130
O771	O77	0.905820	0.944440	0.860910
O781	O78	0.876110	0.895070	0.677490
C791	C79	0.427540	0.446530	0.605500
H801	H80	0.403570	0.421860	0.569430
C811	C81	0.489780	0.511650	0.691310
C821	C82	0.523830	0.545450	0.730610
C831	C83	0.584910	0.612700	0.787050
C841	C84	0.616800	0.647890	0.813430
C851	C85	0.680470	0.712190	0.862640
C861	C86	0.714790	0.745340	0.891460
C871	C87	0.784760	0.803870	0.948890
C881	C88	0.818220	0.838080	0.985040
C891	C89	0.832850	0.852720	0.124710
H901	H90	0.812670	0.846950	0.204380
C911	C91	0.869540	0.878870	0.163930
C921	C92	0.887810	0.895320	0.062850
H931	H93	0.914910	0.917020	0.094450
C941	C94	0.869220	0.886710	0.922270
C951	C95	0.836040	0.856080	0.883680
H961	H96	0.825440	0.845230	0.775670
C971	C97	0.884440	0.894050	0.310560
C981	C98	0.884560	0.910960	0.819630
O991	O99	0.119550	0.128330	0.591790
O1001	O100	0.104030	0.061060	0.650860
O1011	O101	0.097700	0.051520	0.140150
O1021	O102	0.126520	0.101800	0.323480
C1031	C103	0.575200	0.550240	0.395620
H1041	H104	0.599130	0.574950	0.431530
C1051	C105	0.512850	0.485230	0.309740
C1061	C106	0.478730	0.451500	0.270370
C1071	C107	0.417620	0.384270	0.213900
C1081	C108	0.385690	0.349130	0.187500
C1091	C109	0.321810	0.285040	0.138480
C1101	C110	0.287430	0.251940	0.109700
C1111	C111	0.217590	0.193300	0.052210
C1121	C112	0.184260	0.158950	0.016010
C1131	C113	0.169510	0.144470	0.876320
H1141	H114	0.189330	0.150620	0.796610
C1151	C115	0.133200	0.117940	0.837070
C1161	C116	0.115370	0.101010	0.938140
H1171	H117	0.088750	0.078810	0.906550
C1181	C118	0.133820	0.109730	0.078720
C1191	C119	0.166720	0.140640	0.117320
H1201	H120	0.177330	0.151450	0.225350
C1211	C121	0.118320	0.102790	0.690440
C1221	C122	0.118550	0.085400	0.181380
Li1231	Li123	0.966560	0.981280	0.563460
O1241	O124	0.996570	0.034920	0.778220
Li1251	Li125	0.036180	0.015510	0.437730
O1261	O126	0.973220	0.980090	0.203670
H1271	H127	0.947540	0.115260	0.825550
H1281	H128	0.055470	0.995440	0.711770
H1291	H129	0.064410	0.963640	0.848770
H1301	H130	0.974610	0.981080	0.304220
H1311	H131	0.977900	0.017480	0.193470
H1321	H132	0.065850	0.879160	0.175440
