data_CAKFEB_clean_PM
_symmetry_space_group_name_H-M	'P1'
_cell_length_a	10.110000
_cell_length_b	21.835000
_cell_length_c	13.987000
_cell_angle_alpha	91.620000
_cell_angle_beta	90.000000
_cell_angle_gamma	90.000000
_symmetry_Int_Tables_number 1

loop_
_symmetry_equiv_pos_as_xyz
'x,y,z'

loop_
_atom_site_label
_atom_site_type_symbol
_atom_site_fract_x
_atom_site_fract_y
_atom_site_fract_z
Gd11	Gd1	0.436660	0.759750	0.768720
Gd21	Gd2	0.250150	0.748680	0.027000
Gd31	Gd3	0.936660	0.240250	0.731280
Gd41	Gd4	0.750150	0.251320	0.473000
Gd51	Gd5	0.563340	0.240250	0.231280
Gd61	Gd6	0.749850	0.251320	0.973000
Gd71	Gd7	0.063340	0.759750	0.268720
Gd81	Gd8	0.249850	0.748680	0.527000
H11	H1	0.712000	0.456700	0.810500
H21	H2	0.141100	0.034900	0.866000
H31	H3	0.117100	0.839300	0.721900
H41	H4	0.984400	0.812900	0.762200
H51	H5	0.823400	0.885400	0.818500
H61	H6	0.646700	0.547600	0.882600
H71	H7	0.202400	0.938500	0.810200
H81	H8	0.270800	0.493800	0.866000
H91	H9	0.458100	0.596000	0.988200
H101	H10	0.315100	0.585700	0.948300
H111	H11	0.764700	0.982300	0.873500
H121	H12	0.336800	0.403300	0.791300
H131	H13	0.902200	0.571400	0.904800
H141	H14	0.038500	0.522600	0.160000
H151	H15	0.850000	0.633500	0.050000
H161	H16	0.913100	0.616100	0.147800
H171	H17	0.501700	0.341700	0.712800
H181	H18	0.641500	0.370500	0.695700
H191	H19	0.962800	0.090100	0.972000
H201	H20	0.816600	0.076900	0.941400
H211	H21	0.698400	0.876300	0.988900
H221	H22	0.631400	0.871800	0.089700
H231	H23	0.583300	0.972200	0.146000
H241	H24	0.501100	0.931100	0.872200
H251	H25	0.212000	0.543300	0.689500
H261	H26	0.641100	0.965100	0.634000
H271	H27	0.617100	0.160700	0.778100
H281	H28	0.484400	0.187100	0.737800
H291	H29	0.323400	0.114600	0.681500
H301	H30	0.146700	0.452400	0.617400
H311	H31	0.702400	0.061500	0.689800
H321	H32	0.770800	0.506200	0.634000
H331	H33	0.958100	0.404000	0.511800
H341	H34	0.815100	0.414300	0.551700
H351	H35	0.264700	0.017700	0.626500
H361	H36	0.836800	0.596700	0.708700
H371	H37	0.402200	0.428600	0.595200
H381	H38	0.538500	0.477400	0.340000
H391	H39	0.350000	0.366500	0.450000
H401	H40	0.413100	0.383900	0.352200
H411	H41	0.001700	0.658300	0.787200
H421	H42	0.141500	0.629500	0.804300
H431	H43	0.462800	0.909900	0.528000
H441	H44	0.316600	0.923100	0.558600
H451	H45	0.198400	0.123700	0.511100
H461	H46	0.131400	0.128200	0.410300
H471	H47	0.083300	0.027800	0.354000
H481	H48	0.001100	0.068900	0.627800
H491	H49	0.288000	0.543300	0.189500
H501	H50	0.858900	0.965100	0.134000
H511	H51	0.882900	0.160700	0.278100
H521	H52	0.015600	0.187100	0.237800
H531	H53	0.176600	0.114600	0.181500
H541	H54	0.353300	0.452400	0.117400
H551	H55	0.797600	0.061500	0.189800
H561	H56	0.729200	0.506200	0.134000
H571	H57	0.541900	0.404000	0.011800
H581	H58	0.684900	0.414300	0.051700
H591	H59	0.235300	0.017700	0.126500
H601	H60	0.663200	0.596700	0.208700
H611	H61	0.097800	0.428600	0.095200
H621	H62	0.961500	0.477400	0.840000
H631	H63	0.150000	0.366500	0.950000
H641	H64	0.086900	0.383900	0.852200
H651	H65	0.498300	0.658300	0.287200
H661	H66	0.358500	0.629500	0.304300
H671	H67	0.037200	0.909900	0.028000
H681	H68	0.183400	0.923100	0.058600
H691	H69	0.301600	0.123700	0.011100
H701	H70	0.368600	0.128200	0.910300
H711	H71	0.416700	0.027800	0.854000
H721	H72	0.498900	0.068900	0.127800
H731	H73	0.788000	0.456700	0.310500
H741	H74	0.358900	0.034900	0.366000
H751	H75	0.382900	0.839300	0.221900
H761	H76	0.515600	0.812900	0.262200
H771	H77	0.676600	0.885400	0.318500
H781	H78	0.853300	0.547600	0.382600
H791	H79	0.297600	0.938500	0.310200
H801	H80	0.229200	0.493800	0.366000
H811	H81	0.041900	0.596000	0.488200
H821	H82	0.184900	0.585700	0.448300
H831	H83	0.735300	0.982300	0.373500
H841	H84	0.163200	0.403300	0.291300
H851	H85	0.597800	0.571400	0.404800
H861	H86	0.461500	0.522600	0.660000
H871	H87	0.650000	0.633500	0.550000
H881	H88	0.586900	0.616100	0.647800
H891	H89	0.998300	0.341700	0.212800
H901	H90	0.858500	0.370500	0.195700
H911	H91	0.537200	0.090100	0.472000
H921	H92	0.683400	0.076900	0.441400
H931	H93	0.801600	0.876300	0.488900
H941	H94	0.868600	0.871800	0.589700
H951	H95	0.916700	0.972200	0.646000
H961	H96	0.998900	0.931100	0.372200
C11	C1	0.137600	0.807450	0.857600
C21	C2	0.419800	0.647370	0.872100
C31	C3	0.451100	0.531280	0.881100
C41	C4	0.531400	0.420500	0.792400
C51	C5	0.622400	0.464050	0.820800
C61	C6	0.076900	0.004740	0.857000
C71	C7	0.061900	0.837190	0.778500
C81	C8	0.020000	0.901160	0.810700
C91	C9	0.888200	0.915080	0.828600
C101	C10	0.583100	0.518740	0.864300
C111	C11	0.947300	0.018380	0.876800
C121	C12	0.114100	0.946740	0.823700
C131	C13	0.360200	0.486940	0.854200
C141	C14	0.407000	0.590160	0.929900
C151	C15	0.853200	0.973380	0.861500
C161	C16	0.399900	0.432260	0.809700
C171	C17	0.636000	0.317980	0.813700
C181	C18	0.941600	0.542630	0.943400
C191	C19	0.963700	0.557140	0.039400
C201	C20	0.037600	0.666060	0.066300
C211	C21	0.022700	0.513720	0.095600
C221	C22	0.930500	0.619290	0.080000
C231	C23	0.911500	0.132910	0.850900
C241	C24	0.576600	0.361360	0.744300
C251	C25	0.906400	0.080250	0.917600
C261	C26	0.523600	0.828570	0.983400
C271	C27	0.614500	0.878390	0.022500
C281	C28	0.553800	0.941250	0.011100
C291	C29	0.550300	0.983170	0.086800
C301	C30	0.501400	0.958790	0.923900
C311	C31	0.637600	0.192550	0.642400
C321	C32	0.919800	0.352630	0.627900
C331	C33	0.951100	0.468720	0.618900
C341	C34	0.031400	0.579500	0.707600
C351	C35	0.122400	0.535950	0.679200
C361	C36	0.576900	0.995260	0.643000
C371	C37	0.561900	0.162810	0.721500
C381	C38	0.520000	0.098840	0.689300
C391	C39	0.388200	0.084920	0.671400
C401	C40	0.083100	0.481260	0.635700
C411	C41	0.447300	0.981620	0.623200
C421	C42	0.614100	0.053260	0.676300
C431	C43	0.860200	0.513060	0.645800
C441	C44	0.907000	0.409840	0.570100
C451	C45	0.353200	0.026620	0.638500
C461	C46	0.899900	0.567740	0.690300
C471	C47	0.136000	0.682020	0.686300
C481	C48	0.441600	0.457370	0.556600
C491	C49	0.463700	0.442860	0.460600
C501	C50	0.537600	0.333940	0.433700
C511	C51	0.522700	0.486280	0.404400
C521	C52	0.430500	0.380710	0.420000
C531	C53	0.411500	0.867090	0.649100
C541	C54	0.076600	0.638640	0.755700
C551	C55	0.406400	0.919750	0.582400
C561	C56	0.023600	0.171430	0.516600
C571	C57	0.114500	0.121610	0.477500
C581	C58	0.053800	0.058750	0.488900
C591	C59	0.050300	0.016830	0.413200
C601	C60	0.001400	0.041210	0.576100
C611	C61	0.862400	0.192550	0.142400
C621	C62	0.580200	0.352630	0.127900
C631	C63	0.548900	0.468720	0.118900
C641	C64	0.468600	0.579500	0.207600
C651	C65	0.377600	0.535950	0.179200
C661	C66	0.923100	0.995260	0.143000
C671	C67	0.938100	0.162810	0.221500
C681	C68	0.980000	0.098840	0.189300
C691	C69	0.111800	0.084920	0.171400
C701	C70	0.416900	0.481260	0.135700
C711	C71	0.052700	0.981620	0.123200
C721	C72	0.885900	0.053260	0.176300
C731	C73	0.639800	0.513060	0.145800
C741	C74	0.593000	0.409840	0.070100
C751	C75	0.146800	0.026620	0.138500
C761	C76	0.600100	0.567740	0.190300
C771	C77	0.364000	0.682020	0.186300
C781	C78	0.058400	0.457370	0.056600
C791	C79	0.036300	0.442860	0.960600
C801	C80	0.962400	0.333940	0.933700
C811	C81	0.977300	0.486280	0.904400
C821	C82	0.069500	0.380710	0.920000
C831	C83	0.088500	0.867090	0.149100
C841	C84	0.423400	0.638640	0.255700
C851	C85	0.093600	0.919750	0.082400
C861	C86	0.476400	0.171430	0.016600
C871	C87	0.385500	0.121610	0.977500
C881	C88	0.446200	0.058750	0.988900
C891	C89	0.449700	0.016830	0.913200
C901	C90	0.498600	0.041210	0.076100
C911	C91	0.362400	0.807450	0.357600
C921	C92	0.080200	0.647370	0.372100
C931	C93	0.048900	0.531280	0.381100
C941	C94	0.968600	0.420500	0.292400
C951	C95	0.877600	0.464050	0.320800
C961	C96	0.423100	0.004740	0.357000
C971	C97	0.438100	0.837190	0.278500
C981	C98	0.480000	0.901160	0.310700
C991	C99	0.611800	0.915080	0.328600
C1001	C100	0.916900	0.518740	0.364300
C1011	C101	0.552700	0.018380	0.376800
C1021	C102	0.385900	0.946740	0.323700
C1031	C103	0.139800	0.486940	0.354200
C1041	C104	0.093000	0.590160	0.429900
C1051	C105	0.646800	0.973380	0.361500
C1061	C106	0.100100	0.432260	0.309700
C1071	C107	0.864000	0.317980	0.313700
C1081	C108	0.558400	0.542630	0.443400
C1091	C109	0.536300	0.557140	0.539400
C1101	C110	0.462400	0.666060	0.566300
C1111	C111	0.477300	0.513720	0.595600
C1121	C112	0.569500	0.619290	0.580000
C1131	C113	0.588500	0.132910	0.350900
C1141	C114	0.923400	0.361360	0.244300
C1151	C115	0.593600	0.080250	0.417600
C1161	C116	0.976400	0.828570	0.483400
C1171	C117	0.885500	0.878390	0.522500
C1181	C118	0.946200	0.941250	0.511100
C1191	C119	0.949700	0.983170	0.586800
C1201	C120	0.998600	0.958790	0.423900
O11	O1	0.365300	0.696500	0.903640
O21	O2	0.074200	0.782000	0.923030
O31	O3	0.831000	0.176450	0.865250
O41	O4	0.431000	0.812320	0.035840
O51	O5	0.029200	0.717950	0.109360
O61	O6	0.133100	0.654200	0.013430
O71	O7	0.991600	0.135550	0.783880
O81	O8	0.481300	0.649090	0.796040
O91	O9	0.584700	0.313380	0.894500
O101	O10	0.261400	0.809140	0.861210
O111	O11	0.545700	0.806760	0.901340
O121	O12	0.735200	0.285240	0.792920
O131	O13	0.865300	0.303500	0.596360
O141	O14	0.574200	0.218000	0.576970
O151	O15	0.331000	0.823550	0.634750
O161	O16	0.931000	0.187680	0.464160
O171	O17	0.529200	0.282050	0.390640
O181	O18	0.633100	0.345800	0.486570
O191	O19	0.491600	0.864450	0.716120
O201	O20	0.981300	0.350910	0.703960
O211	O21	0.084700	0.686620	0.605500
O221	O22	0.761400	0.190860	0.638790
O231	O23	0.045700	0.193240	0.598660
O241	O24	0.235200	0.714760	0.707080
O251	O25	0.634700	0.303500	0.096360
O261	O26	0.925800	0.218000	0.076970
O271	O27	0.169000	0.823550	0.134750
O281	O28	0.569000	0.187680	0.964160
O291	O29	0.970800	0.282050	0.890640
O301	O30	0.866900	0.345800	0.986570
O311	O31	0.008400	0.864450	0.216120
O321	O32	0.518700	0.350910	0.203960
O331	O33	0.415300	0.686620	0.105500
O341	O34	0.738600	0.190860	0.138790
O351	O35	0.454300	0.193240	0.098660
O361	O36	0.264800	0.714760	0.207080
O371	O37	0.134700	0.696500	0.403640
O381	O38	0.425800	0.782000	0.423030
O391	O39	0.669000	0.176450	0.365250
O401	O40	0.069000	0.812320	0.535840
O411	O41	0.470800	0.717950	0.609360
O421	O42	0.366900	0.654200	0.513430
O431	O43	0.508400	0.135550	0.283880
O441	O44	0.018700	0.649090	0.296040
O451	O45	0.915300	0.313380	0.394500
O461	O46	0.238600	0.809140	0.361210
O471	O47	0.954300	0.806760	0.401340
O481	O48	0.764800	0.285240	0.292920
