data_CAKFEB01_clean_PM
_symmetry_space_group_name_H-M	'P1'
_cell_length_a	21.863000
_cell_length_b	10.035000
_cell_length_c	13.854000
_cell_angle_alpha	90.000000
_cell_angle_beta	91.530000
_cell_angle_gamma	90.000000
_symmetry_Int_Tables_number 1

loop_
_symmetry_equiv_pos_as_xyz
'x,y,z'

loop_
_atom_site_label
_atom_site_type_symbol
_atom_site_fract_x
_atom_site_fract_y
_atom_site_fract_z
Gd11	Gd1	0.259520	0.560980	0.269620
O11	O1	0.363890	0.496100	0.215570
O21	O2	0.323900	0.665900	0.137390
O31	O3	0.214510	0.763800	0.205360
O41	O4	0.218290	0.525600	0.109400
C11	C1	0.367130	0.581100	0.149800
Gd21	Gd2	0.248550	0.749490	0.029030
C21	C2	0.182680	0.867700	0.185800
C31	C3	0.165310	0.536200	0.068600
C41	C4	0.418920	0.584400	0.080500
O51	O5	0.187900	0.922700	0.105720
O61	O6	0.314540	0.928000	0.037140
O71	O7	0.152630	0.636100	0.017460
O81	O8	0.309340	0.762000	0.861110
O91	O9	0.280240	0.572300	0.922660
O101	O10	0.196430	0.863900	0.904270
C51	C5	0.139070	0.924100	0.257600
C61	C6	0.119160	0.426300	0.081000
H11	H1	0.421300	0.673600	0.053800
H21	H2	0.409100	0.524300	0.027500
C71	C7	0.481240	0.547600	0.121800
C81	C8	0.329280	0.025300	0.985800
C91	C9	0.306550	0.635900	0.856700
C101	C10	0.147090	0.921700	0.873000
H31	H3	0.158100	0.999500	0.290200
H41	H4	0.130600	0.856900	0.305800
C111	C11	0.079300	0.968600	0.209500
H51	H5	0.115700	0.406900	0.149200
H61	H6	0.133600	0.346400	0.049500
C121	C12	0.056850	0.462400	0.039500
C131	C13	0.525910	0.643400	0.134900
C141	C14	0.495810	0.415800	0.144500
C151	C15	0.378500	0.115900	0.027200
O111	O11	0.306440	0.050800	0.903840
O121	O12	0.149380	0.982900	0.796200
C161	C16	0.336580	0.560400	0.777200
C171	C17	0.090190	0.910100	0.931800
C181	C18	0.067760	0.100700	0.189300
C191	C19	0.035890	0.874500	0.180000
C201	C20	0.043130	0.441300	0.942200
C211	C21	0.013410	0.521200	0.096800
H71	H7	0.516800	0.732000	0.121100
C221	C22	0.584530	0.609100	0.168500
C231	C23	0.554030	0.382600	0.178400
H81	H8	0.466300	0.349700	0.136800
H91	H9	0.372200	0.129200	0.095500
H101	H10	0.376100	0.202000	0.995500
C241	C24	0.441520	0.055000	0.012800
C251	C25	0.400960	0.521800	0.809700
H111	H11	0.313100	0.481000	0.761500
H121	H12	0.338000	0.615500	0.719700
C261	C26	0.031410	0.953200	0.881300
H131	H13	0.095900	0.963200	0.989900
H141	H14	0.085800	0.818000	0.951700
H151	H15	0.097000	0.164500	0.205800
C271	C27	0.013100	0.140000	0.144500
C281	C28	0.981160	0.914200	0.135800
H161	H16	0.043600	0.784300	0.190000
H171	H17	0.071900	0.402000	0.903000
H181	H18	0.022200	0.535600	0.162000
H191	H19	0.614200	0.675000	0.176300
H201	H20	0.563000	0.294300	0.193400
C291	C29	0.484510	0.047500	0.088800
C301	C30	0.458150	0.005400	0.923900
H211	H21	0.006200	0.229800	0.131700
H221	H22	0.952400	0.850100	0.117400
H231	H23	0.474200	0.079000	0.149400
H241	H24	0.430200	0.008000	0.872100
Gd31	Gd3	0.740480	0.060980	0.230380
O131	O13	0.636110	0.996100	0.284430
O141	O14	0.676100	0.165900	0.362610
O151	O15	0.785490	0.263800	0.294640
O161	O16	0.781710	0.025600	0.390600
C311	C31	0.632870	0.081100	0.350200
Gd41	Gd4	0.751450	0.249490	0.470970
C321	C32	0.817320	0.367700	0.314200
C331	C33	0.834690	0.036200	0.431400
C341	C34	0.581080	0.084400	0.419500
O171	O17	0.812100	0.422700	0.394280
O181	O18	0.685460	0.428000	0.462860
O191	O19	0.847370	0.136100	0.482540
O201	O20	0.690660	0.262000	0.638890
O211	O21	0.719760	0.072300	0.577340
O221	O22	0.803570	0.363900	0.595730
C351	C35	0.860930	0.424100	0.242400
C361	C36	0.880840	0.926300	0.419000
H251	H25	0.578700	0.173600	0.446200
H261	H26	0.590900	0.024300	0.472500
C371	C37	0.518760	0.047600	0.378200
C381	C38	0.670720	0.525300	0.514200
C391	C39	0.693450	0.135900	0.643300
C401	C40	0.852910	0.421700	0.627000
H271	H27	0.841900	0.499500	0.209800
H281	H28	0.869400	0.356900	0.194200
C411	C41	0.920700	0.468600	0.290500
H291	H29	0.884300	0.906900	0.350800
H301	H30	0.866400	0.846400	0.450500
C421	C42	0.943150	0.962400	0.460500
C431	C43	0.474090	0.143400	0.365100
C441	C44	0.504190	0.915800	0.355500
C451	C45	0.621500	0.615900	0.472800
O231	O23	0.693560	0.550800	0.596160
O241	O24	0.850620	0.482900	0.703800
C461	C46	0.663420	0.060400	0.722800
C471	C47	0.909810	0.410100	0.568200
C481	C48	0.932240	0.600700	0.310700
C491	C49	0.964110	0.374500	0.320000
C501	C50	0.956870	0.941300	0.557800
C511	C51	0.986590	0.021200	0.403200
H311	H31	0.483200	0.232000	0.378900
C521	C52	0.415470	0.109100	0.331500
C531	C53	0.445970	0.882600	0.321600
H321	H32	0.533700	0.849700	0.363200
H331	H33	0.627800	0.629200	0.404500
H341	H34	0.623900	0.702000	0.504500
C541	C54	0.558480	0.555000	0.487200
C551	C55	0.599040	0.021800	0.690300
H351	H35	0.686900	0.981000	0.738500
H361	H36	0.662000	0.115500	0.780300
C561	C56	0.968590	0.453200	0.618700
H371	H37	0.904100	0.463200	0.510100
H381	H38	0.914200	0.318000	0.548300
H391	H39	0.903000	0.664500	0.294200
C571	C57	0.986900	0.640000	0.355500
C581	C58	0.018840	0.414200	0.364200
H401	H40	0.956400	0.284300	0.310000
H411	H41	0.928100	0.902000	0.597000
H421	H42	0.977800	0.035600	0.338000
H431	H43	0.385800	0.175000	0.323700
H441	H44	0.437000	0.794300	0.306600
C591	C59	0.515490	0.547500	0.411200
C601	C60	0.541850	0.505400	0.576100
H451	H45	0.993800	0.729800	0.368300
H461	H46	0.047600	0.350100	0.382600
H471	H47	0.525800	0.579000	0.350600
H481	H48	0.569800	0.508000	0.627900
Gd51	Gd5	0.740480	0.439020	0.730380
O251	O25	0.636110	0.503900	0.784430
O261	O26	0.676100	0.334100	0.862610
O271	O27	0.785490	0.236200	0.794640
O281	O28	0.781710	0.474400	0.890600
C611	C61	0.632870	0.418900	0.850200
Gd61	Gd6	0.751450	0.250510	0.970970
C621	C62	0.817320	0.132300	0.814200
C631	C63	0.834690	0.463800	0.931400
C641	C64	0.581080	0.415600	0.919500
O291	O29	0.812100	0.077300	0.894280
O301	O30	0.685460	0.072000	0.962860
O311	O31	0.847370	0.363900	0.982540
O321	O32	0.690660	0.238000	0.138890
O331	O33	0.719760	0.427700	0.077340
O341	O34	0.803570	0.136100	0.095730
C651	C65	0.860930	0.075900	0.742400
C661	C66	0.880840	0.573700	0.919000
H491	H49	0.578700	0.326400	0.946200
H501	H50	0.590900	0.475700	0.972500
C671	C67	0.518760	0.452400	0.878200
C681	C68	0.670720	0.974700	0.014200
C691	C69	0.693450	0.364100	0.143300
C701	C70	0.852910	0.078300	0.127000
H511	H51	0.841900	0.000500	0.709800
H521	H52	0.869400	0.143100	0.694200
C711	C71	0.920700	0.031400	0.790500
H531	H53	0.884300	0.593100	0.850800
H541	H54	0.866400	0.653600	0.950500
C721	C72	0.943150	0.537600	0.960500
C731	C73	0.474090	0.356600	0.865100
C741	C74	0.504190	0.584200	0.855500
C751	C75	0.621500	0.884100	0.972800
O351	O35	0.693560	0.949200	0.096160
O361	O36	0.850620	0.017100	0.203800
C761	C76	0.663420	0.439600	0.222800
C771	C77	0.909810	0.089900	0.068200
C781	C78	0.932240	0.899300	0.810700
C791	C79	0.964110	0.125500	0.820000
C801	C80	0.956870	0.558700	0.057800
C811	C81	0.986590	0.478800	0.903200
H551	H55	0.483200	0.268000	0.878900
C821	C82	0.415470	0.390900	0.831500
C831	C83	0.445970	0.617400	0.821600
H561	H56	0.533700	0.650300	0.863200
H571	H57	0.627800	0.870800	0.904500
H581	H58	0.623900	0.798000	0.004500
C841	C84	0.558480	0.945000	0.987200
C851	C85	0.599040	0.478200	0.190300
H591	H59	0.686900	0.519000	0.238500
H601	H60	0.662000	0.384500	0.280300
C861	C86	0.968590	0.046800	0.118700
H611	H61	0.904100	0.036800	0.010100
H621	H62	0.914200	0.182000	0.048300
H631	H63	0.903000	0.835500	0.794200
C871	C87	0.986900	0.860000	0.855500
C881	C88	0.018840	0.085800	0.864200
H641	H64	0.956400	0.215700	0.810000
H651	H65	0.928100	0.598000	0.097000
H661	H66	0.977800	0.464400	0.838000
H671	H67	0.385800	0.325000	0.823700
H681	H68	0.437000	0.705700	0.806600
C891	C89	0.515490	0.952500	0.911200
C901	C90	0.541850	0.994600	0.076100
H691	H69	0.993800	0.770200	0.868300
H701	H70	0.047600	0.149900	0.882600
H711	H71	0.525800	0.921000	0.850600
H721	H72	0.569800	0.992000	0.127900
Gd71	Gd7	0.259520	0.939020	0.769620
O371	O37	0.363890	0.003900	0.715570
O381	O38	0.323900	0.834100	0.637390
O391	O39	0.214510	0.736200	0.705360
O401	O40	0.218290	0.974400	0.609400
C911	C91	0.367130	0.918900	0.649800
Gd81	Gd8	0.248550	0.750510	0.529030
C921	C92	0.182680	0.632300	0.685800
C931	C93	0.165310	0.963800	0.568600
C941	C94	0.418920	0.915600	0.580500
O411	O41	0.187900	0.577300	0.605720
O421	O42	0.314540	0.572000	0.537140
O431	O43	0.152630	0.863900	0.517460
O441	O44	0.309340	0.738000	0.361110
O451	O45	0.280240	0.927700	0.422660
O461	O46	0.196430	0.636100	0.404270
C951	C95	0.139070	0.575900	0.757600
C961	C96	0.119160	0.073700	0.581000
H731	H73	0.421300	0.826400	0.553800
H741	H74	0.409100	0.975700	0.527500
C971	C97	0.481240	0.952400	0.621800
C981	C98	0.329280	0.474700	0.485800
C991	C99	0.306550	0.864100	0.356700
C1001	C100	0.147090	0.578300	0.373000
H751	H75	0.158100	0.500500	0.790200
H761	H76	0.130600	0.643100	0.805800
C1011	C101	0.079300	0.531400	0.709500
H771	H77	0.115700	0.093100	0.649200
H781	H78	0.133600	0.153600	0.549500
C1021	C102	0.056850	0.037600	0.539500
C1031	C103	0.525910	0.856600	0.634900
C1041	C104	0.495810	0.084200	0.644500
C1051	C105	0.378500	0.384100	0.527200
O471	O47	0.306440	0.449200	0.403840
O481	O48	0.149380	0.517100	0.296200
C1061	C106	0.336580	0.939600	0.277200
C1071	C107	0.090190	0.589900	0.431800
C1081	C108	0.067760	0.399300	0.689300
C1091	C109	0.035890	0.625500	0.680000
C1101	C110	0.043130	0.058700	0.442200
C1111	C111	0.013410	0.978800	0.596800
H791	H79	0.516800	0.768000	0.621100
C1121	C112	0.584530	0.890900	0.668500
C1131	C113	0.554030	0.117400	0.678400
H801	H80	0.466300	0.150300	0.636800
H811	H81	0.372200	0.370800	0.595500
H821	H82	0.376100	0.298000	0.495500
C1141	C114	0.441520	0.445000	0.512800
C1151	C115	0.400960	0.978200	0.309700
H831	H83	0.313100	0.019000	0.261500
H841	H84	0.338000	0.884500	0.219700
C1161	C116	0.031410	0.546800	0.381300
H851	H85	0.095900	0.536800	0.489900
H861	H86	0.085800	0.682000	0.451700
H871	H87	0.097000	0.335500	0.705800
C1171	C117	0.013100	0.360000	0.644500
C1181	C118	0.981160	0.585800	0.635800
H881	H88	0.043600	0.715700	0.690000
H891	H89	0.071900	0.098000	0.403000
H901	H90	0.022200	0.964400	0.662000
H911	H91	0.614200	0.825000	0.676300
H921	H92	0.563000	0.205700	0.693400
C1191	C119	0.484510	0.452500	0.588800
C1201	C120	0.458150	0.494600	0.423900
H931	H93	0.006200	0.270200	0.631700
H941	H94	0.952400	0.649900	0.617400
H951	H95	0.474200	0.421000	0.649400
H961	H96	0.430200	0.492000	0.372100
