data_CAKXET_clean_PM
_symmetry_space_group_name_H-M	'P1'
_cell_length_a	7.980900
_cell_length_b	9.746500
_cell_length_c	15.926500
_cell_angle_alpha	90.000000
_cell_angle_beta	90.000000
_cell_angle_gamma	96.215900
_symmetry_Int_Tables_number 1

loop_
_symmetry_equiv_pos_as_xyz
'x,y,z'

loop_
_atom_site_label
_atom_site_type_symbol
_atom_site_fract_x
_atom_site_fract_y
_atom_site_fract_z
Sm11	Sm1	0.919810	0.135100	0.326730
Sm21	Sm2	0.580190	0.364900	0.826730
Sm31	Sm3	0.080190	0.864900	0.673270
Sm41	Sm4	0.419810	0.635100	0.173270
H11	H1	0.968600	0.684960	0.387910
H21	H2	0.617370	0.347070	0.251470
H31	H3	0.531400	0.815040	0.887910
H41	H4	0.882630	0.152930	0.751470
H51	H5	0.031400	0.315040	0.612090
H61	H6	0.382630	0.652930	0.748530
H71	H7	0.468600	0.184960	0.112090
H81	H8	0.117370	0.847070	0.248530
C11	C1	0.913500	0.476300	0.368300
C21	C2	0.742700	0.796300	0.285100
C31	C3	0.895100	0.615600	0.359100
C41	C4	0.768300	0.648800	0.306800
C51	C5	0.056700	0.425300	0.418300
C61	C6	0.688900	0.420500	0.281200
C71	C7	0.910600	0.009200	0.515900
C81	C8	0.586500	0.023700	0.868300
C91	C9	0.757300	0.703700	0.785100
C101	C10	0.604900	0.884400	0.859100
C111	C11	0.731700	0.851200	0.806800
C121	C12	0.443300	0.074700	0.918300
C131	C13	0.811100	0.079500	0.781200
C141	C14	0.589400	0.490800	0.015900
C151	C15	0.086500	0.523700	0.631700
C161	C16	0.257300	0.203700	0.714900
C171	C17	0.104900	0.384400	0.640900
C181	C18	0.231700	0.351200	0.693200
C191	C19	0.943300	0.574700	0.581700
C201	C20	0.311100	0.579500	0.718800
C211	C21	0.089400	0.990800	0.484100
C221	C22	0.413500	0.976300	0.131700
C231	C23	0.242700	0.296300	0.214900
C241	C24	0.395100	0.115600	0.140900
C251	C25	0.268300	0.148800	0.193200
C261	C26	0.556700	0.925300	0.081700
C271	C27	0.188900	0.920500	0.218800
C281	C28	0.410600	0.509200	0.984100
N11	N1	0.810500	0.379000	0.329400
N21	N2	0.662500	0.551500	0.268400
N31	N3	0.689500	0.121000	0.829400
N41	N4	0.837500	0.948500	0.768400
N51	N5	0.189500	0.621000	0.670600
N61	N6	0.337500	0.448500	0.731600
N71	N7	0.310500	0.879000	0.170600
N81	N8	0.162500	0.051500	0.231600
O11	O1	0.049100	0.296400	0.428550
O21	O2	0.850000	0.888900	0.311360
O31	O3	0.812200	0.056500	0.464470
O41	O4	0.617600	0.813400	0.240570
O51	O5	0.875200	0.975300	0.590080
O61	O6	0.171100	0.512800	0.442460
O71	O7	0.450900	0.203600	0.928550
O81	O8	0.650000	0.611100	0.811360
O91	O9	0.687800	0.443500	0.964470
O101	O10	0.882400	0.686600	0.740570
O111	O11	0.624800	0.524700	0.090080
O121	O12	0.328900	0.987200	0.942460
O131	O13	0.950900	0.703600	0.571450
O141	O14	0.150000	0.111100	0.688640
O151	O15	0.187800	0.943500	0.535530
O161	O16	0.382400	0.186600	0.759430
O171	O17	0.124800	0.024700	0.409920
O181	O18	0.828900	0.487200	0.557540
O191	O19	0.549100	0.796400	0.071450
O201	O20	0.350000	0.388900	0.188640
O211	O21	0.312200	0.556500	0.035530
O221	O22	0.117600	0.313400	0.259430
O231	O23	0.375200	0.475300	0.909920
O241	O24	0.671100	0.012800	0.057540
