data_CAKYAQ_clean_PM
_symmetry_space_group_name_H-M	'P1'
_cell_length_a	7.955000
_cell_length_b	9.650000
_cell_length_c	15.845000
_cell_angle_alpha	90.000000
_cell_angle_beta	90.000000
_cell_angle_gamma	96.555000
_symmetry_Int_Tables_number 1

loop_
_symmetry_equiv_pos_as_xyz
'x,y,z'

loop_
_atom_site_label
_atom_site_type_symbol
_atom_site_fract_x
_atom_site_fract_y
_atom_site_fract_z
Dy11	Dy1	0.924380	0.133100	0.327100
Dy21	Dy2	0.575620	0.366900	0.827100
Dy31	Dy3	0.075620	0.866900	0.672900
Dy41	Dy4	0.424380	0.633100	0.172900
H11	H1	0.968600	0.684960	0.387910
H21	H2	0.617370	0.347070	0.251470
H31	H3	0.531400	0.815040	0.887910
H41	H4	0.882630	0.152930	0.751470
H51	H5	0.031400	0.315040	0.612090
H61	H6	0.382630	0.652930	0.748530
H71	H7	0.468600	0.184960	0.112090
H81	H8	0.117370	0.847070	0.248530
C11	C1	0.916100	0.473300	0.368100
C21	C2	0.746100	0.795200	0.283400
C31	C3	0.897700	0.614200	0.358900
C41	C4	0.771800	0.647000	0.305400
C51	C5	0.058400	0.423100	0.418800
C61	C6	0.692600	0.416800	0.279000
C71	C7	0.910200	0.009600	0.515100
C81	C8	0.583900	0.026700	0.868100
C91	C9	0.753900	0.704800	0.783400
C101	C10	0.602300	0.885800	0.858900
C111	C11	0.728200	0.853000	0.805400
C121	C12	0.441600	0.076900	0.918800
C131	C13	0.807400	0.083200	0.779000
C141	C14	0.589800	0.490400	0.015100
C151	C15	0.083900	0.526700	0.631900
C161	C16	0.253900	0.204800	0.716600
C171	C17	0.102300	0.385800	0.641100
C181	C18	0.228200	0.353000	0.694600
C191	C19	0.941600	0.576900	0.581200
C201	C20	0.307400	0.583200	0.721000
C211	C21	0.089800	0.990400	0.484900
C221	C22	0.416100	0.973300	0.131900
C231	C23	0.246100	0.295200	0.216600
C241	C24	0.397700	0.114200	0.141100
C251	C25	0.271800	0.147000	0.194600
C261	C26	0.558400	0.923100	0.081200
C271	C27	0.192600	0.916800	0.221000
C281	C28	0.410200	0.509600	0.984900
N11	N1	0.813800	0.375000	0.327800
N21	N2	0.666500	0.548300	0.265900
N31	N3	0.686200	0.125000	0.827800
N41	N4	0.833500	0.951700	0.765900
N51	N5	0.186200	0.625000	0.672200
N61	N6	0.333500	0.451700	0.734100
N71	N7	0.313800	0.875000	0.172200
N81	N8	0.166500	0.048300	0.234100
O11	O1	0.050500	0.291800	0.429400
O21	O2	0.852700	0.890400	0.310500
O31	O3	0.812600	0.056700	0.463100
O41	O4	0.620700	0.812400	0.238300
O51	O5	0.873900	0.977100	0.590400
O61	O6	0.173400	0.510800	0.443500
O71	O7	0.449500	0.208200	0.929400
O81	O8	0.647300	0.609600	0.810500
O91	O9	0.687400	0.443300	0.963100
O101	O10	0.879300	0.687600	0.738300
O111	O11	0.626100	0.522900	0.090400
O121	O12	0.326600	0.989200	0.943500
O131	O13	0.949500	0.708200	0.570600
O141	O14	0.147300	0.109600	0.689500
O151	O15	0.187400	0.943300	0.536900
O161	O16	0.379300	0.187600	0.761700
O171	O17	0.126100	0.022900	0.409600
O181	O18	0.826600	0.489200	0.556500
O191	O19	0.550500	0.791800	0.070600
O201	O20	0.352700	0.390400	0.189500
O211	O21	0.312600	0.556700	0.036900
O221	O22	0.120700	0.312400	0.261700
O231	O23	0.373900	0.477100	0.909600
O241	O24	0.673400	0.010800	0.056500
