data_CAKYIY_clean_PM
_symmetry_space_group_name_H-M	'P1'
_cell_length_a	7.923000
_cell_length_b	9.592600
_cell_length_c	15.793800
_cell_angle_alpha	90.000000
_cell_angle_beta	90.000000
_cell_angle_gamma	96.759000
_symmetry_Int_Tables_number 1

loop_
_symmetry_equiv_pos_as_xyz
'x,y,z'

loop_
_atom_site_label
_atom_site_type_symbol
_atom_site_fract_x
_atom_site_fract_y
_atom_site_fract_z
Er11	Er1	0.928170	0.132780	0.327400
Er21	Er2	0.571830	0.367220	0.827400
Er31	Er3	0.071830	0.867220	0.672600
Er41	Er4	0.428170	0.632780	0.172600
H11	H1	0.968600	0.684960	0.387910
H21	H2	0.617370	0.347070	0.251470
H31	H3	0.531400	0.815040	0.887910
H41	H4	0.882630	0.152930	0.751470
H51	H5	0.031400	0.315040	0.612090
H61	H6	0.382630	0.652930	0.748530
H71	H7	0.468600	0.184960	0.112090
H81	H8	0.117370	0.847070	0.248530
C11	C1	0.918700	0.472600	0.367800
C21	C2	0.749400	0.796300	0.282600
C31	C3	0.899900	0.614200	0.359100
C41	C4	0.774400	0.646900	0.304900
C51	C5	0.060100	0.422000	0.419300
C61	C6	0.697000	0.415000	0.277400
C71	C7	0.908800	0.009900	0.514900
C81	C8	0.581300	0.027400	0.867800
C91	C9	0.750600	0.703700	0.782600
C101	C10	0.600100	0.885800	0.859100
C111	C11	0.725600	0.853100	0.804900
C121	C12	0.439900	0.078000	0.919300
C131	C13	0.803000	0.085000	0.777400
C141	C14	0.591200	0.490100	0.014900
C151	C15	0.081300	0.527400	0.632200
C161	C16	0.250600	0.203700	0.717400
C171	C17	0.100100	0.385800	0.640900
C181	C18	0.225600	0.353100	0.695100
C191	C19	0.939900	0.578000	0.580700
C201	C20	0.303000	0.585000	0.722600
C211	C21	0.091200	0.990100	0.485100
C221	C22	0.418700	0.972600	0.132200
C231	C23	0.249400	0.296300	0.217400
C241	C24	0.399900	0.114200	0.140900
C251	C25	0.274400	0.146900	0.195100
C261	C26	0.560100	0.922000	0.080700
C271	C27	0.197000	0.915000	0.222600
C281	C28	0.408800	0.509900	0.985100
N11	N1	0.817300	0.373600	0.326700
N21	N2	0.669600	0.547900	0.264500
N31	N3	0.682700	0.126400	0.826700
N41	N4	0.830400	0.952100	0.764500
N51	N5	0.182700	0.626400	0.673300
N61	N6	0.330400	0.452100	0.735500
N71	N7	0.317300	0.873600	0.173300
N81	N8	0.169600	0.047900	0.235500
O11	O1	0.052700	0.290100	0.429500
O21	O2	0.855100	0.891200	0.310400
O31	O3	0.813300	0.056500	0.462300
O41	O4	0.624200	0.812800	0.236700
O51	O5	0.872200	0.977600	0.590100
O61	O6	0.175300	0.510800	0.444500
O71	O7	0.447300	0.209900	0.929500
O81	O8	0.644900	0.608800	0.810400
O91	O9	0.686700	0.443500	0.962300
O101	O10	0.875800	0.687200	0.736700
O111	O11	0.627800	0.522400	0.090100
O121	O12	0.324700	0.989200	0.944500
O131	O13	0.947300	0.709900	0.570500
O141	O14	0.144900	0.108800	0.689600
O151	O15	0.186700	0.943500	0.537700
O161	O16	0.375800	0.187200	0.763300
O171	O17	0.127800	0.022400	0.409900
O181	O18	0.824700	0.489200	0.555500
O191	O19	0.552700	0.790100	0.070500
O201	O20	0.355100	0.391200	0.189600
O211	O21	0.313300	0.556500	0.037700
O221	O22	0.124200	0.312800	0.263300
O231	O23	0.372200	0.477600	0.909900
O241	O24	0.675300	0.010800	0.055500
