data_CAMROA_clean_PM
_symmetry_space_group_name_H-M	'P1'
_cell_length_a	35.196000
_cell_length_b	11.647200
_cell_length_c	17.240400
_cell_angle_alpha	90.000000
_cell_angle_beta	99.003000
_cell_angle_gamma	90.000000
_symmetry_Int_Tables_number 1

loop_
_symmetry_equiv_pos_as_xyz
'x,y,z'

loop_
_atom_site_label
_atom_site_type_symbol
_atom_site_fract_x
_atom_site_fract_y
_atom_site_fract_z
Y11	Y1	0.576150	0.063270	0.078100
O11	O1	0.549680	0.050900	0.949800
O21	O2	0.633200	0.150200	0.051900
O31	O3	0.512970	0.080000	0.091800
O41	O4	0.584000	0.159700	0.201100
O51	O5	0.629300	0.029000	0.211800
O61	O6	0.614800	0.918700	0.040800
O71	O7	0.560100	0.897800	0.139100
C11	C1	0.521600	0.095900	0.903300
C21	C2	0.667600	0.117300	0.063300
Y21	Y2	0.668370	0.881670	0.175830
C31	C3	0.531800	0.174200	0.841400
O81	O8	0.683000	0.038200	0.108400
C41	C4	0.695600	0.178100	0.020100
O91	O9	0.729800	0.854000	0.154800
O101	O10	0.657200	0.778800	0.055100
O111	O11	0.610500	0.800600	0.199500
O121	O12	0.697600	0.905400	0.299300
S11	S1	0.578440	0.197100	0.830080
C51	C5	0.506500	0.239500	0.788200
S21	S2	0.680580	0.271500	0.943790
C61	C6	0.735100	0.160800	0.030900
C71	C7	0.564800	0.292400	0.754100
H11	H1	0.479300	0.240000	0.785700
C81	C8	0.526600	0.304400	0.738900
C91	C9	0.727700	0.289000	0.926700
C101	C10	0.752600	0.222600	0.975700
H21	H2	0.748700	0.113200	0.070700
C111	C11	0.595000	0.346100	0.714500
H31	H3	0.514100	0.352600	0.698300
C121	C12	0.735700	0.357800	0.859600
H41	H4	0.779300	0.218200	0.972900
O131	O13	0.583700	0.417800	0.659600
O141	O14	0.629400	0.321500	0.738600
O151	O15	0.709000	0.407800	0.817800
Y31	Y3	0.577100	0.551080	0.562360
Y41	Y4	0.679390	0.413060	0.690980
O161	O16	0.600300	0.391600	0.508700
O171	O17	0.602400	0.656600	0.671100
O181	O18	0.544900	0.532300	0.439500
O191	O19	0.629600	0.625500	0.517600
O201	O20	0.517900	0.547800	0.598200
O211	O21	0.654300	0.321000	0.574900
O221	O22	0.651100	0.566000	0.746800
O231	O23	0.678100	0.559000	0.604200
O241	O24	0.738500	0.410100	0.656200
C131	C13	0.628900	0.324000	0.517600
C141	C14	0.625800	0.640700	0.733300
C151	C15	0.515700	0.572300	0.395300
C161	C16	0.664200	0.619900	0.546200
C171	C17	0.631800	0.243100	0.451800
C181	C18	0.622700	0.723600	0.799300
C191	C19	0.522500	0.644400	0.327300
C201	C20	0.691800	0.687700	0.507600
S31	S3	0.600380	0.253300	0.364010
C211	C21	0.657500	0.161300	0.448900
S41	S4	0.648220	0.700000	0.890810
C221	C22	0.597100	0.812200	0.799600
S51	S5	0.567840	0.683500	0.313650
C231	C23	0.494200	0.686800	0.269000
S61	S6	0.674970	0.765800	0.424330
C241	C24	0.731500	0.698400	0.526400
C251	C25	0.624300	0.143500	0.324500
H51	H5	0.676800	0.143900	0.492400
C261	C26	0.654500	0.101000	0.376700
C271	C27	0.624200	0.811500	0.929200
H61	H6	0.580100	0.836400	0.754200
C281	C28	0.598300	0.863100	0.872800
C291	C29	0.549100	0.759600	0.230500
H71	H7	0.467600	0.669400	0.265200
C301	C30	0.509900	0.759500	0.215500
C311	C31	0.721000	0.809200	0.414300
H81	H8	0.746100	0.665800	0.572100
C321	C32	0.747500	0.761000	0.472400
C331	C33	0.612500	0.109500	0.241200
H91	H9	0.670900	0.040200	0.366100
C341	C34	0.632800	0.836800	0.014300
H101	H10	0.582900	0.926800	0.882500
C351	C35	0.575800	0.824400	0.186500
H111	H11	0.495000	0.802400	0.174800
C361	C36	0.726600	0.878900	0.346500
H121	H12	0.774500	0.769600	0.474800
Y51	Y5	0.076150	0.563270	0.078100
O251	O25	0.049680	0.550900	0.949800
O261	O26	0.133200	0.650200	0.051900
O271	O27	0.012970	0.580000	0.091800
O281	O28	0.084000	0.659700	0.201100
O291	O29	0.129300	0.529000	0.211800
O301	O30	0.114800	0.418700	0.040800
O311	O31	0.060100	0.397800	0.139100
C371	C37	0.021600	0.595900	0.903300
C381	C38	0.167600	0.617300	0.063300
Y61	Y6	0.168370	0.381670	0.175830
C391	C39	0.031800	0.674200	0.841400
O321	O32	0.183000	0.538200	0.108400
C401	C40	0.195600	0.678100	0.020100
O331	O33	0.229800	0.354000	0.154800
O341	O34	0.157200	0.278800	0.055100
O351	O35	0.110500	0.300600	0.199500
O361	O36	0.197600	0.405400	0.299300
S71	S7	0.078440	0.697100	0.830080
C411	C41	0.006500	0.739500	0.788200
S81	S8	0.180580	0.771500	0.943790
C421	C42	0.235100	0.660800	0.030900
C431	C43	0.064800	0.792400	0.754100
H131	H13	0.979300	0.740000	0.785700
C441	C44	0.026600	0.804400	0.738900
C451	C45	0.227700	0.789000	0.926700
C461	C46	0.252600	0.722600	0.975700
H141	H14	0.248700	0.613200	0.070700
C471	C47	0.095000	0.846100	0.714500
H151	H15	0.014100	0.852600	0.698300
C481	C48	0.235700	0.857800	0.859600
H161	H16	0.279300	0.718200	0.972900
O371	O37	0.083700	0.917800	0.659600
O381	O38	0.129400	0.821500	0.738600
O391	O39	0.209000	0.907800	0.817800
Y71	Y7	0.077100	0.051080	0.562360
Y81	Y8	0.179390	0.913060	0.690980
O401	O40	0.100300	0.891600	0.508700
O411	O41	0.102400	0.156600	0.671100
O421	O42	0.044900	0.032300	0.439500
O431	O43	0.129600	0.125500	0.517600
O441	O44	0.017900	0.047800	0.598200
O451	O45	0.154300	0.821000	0.574900
O461	O46	0.151100	0.066000	0.746800
O471	O47	0.178100	0.059000	0.604200
O481	O48	0.238500	0.910100	0.656200
C491	C49	0.128900	0.824000	0.517600
C501	C50	0.125800	0.140700	0.733300
C511	C51	0.015700	0.072300	0.395300
C521	C52	0.164200	0.119900	0.546200
C531	C53	0.131800	0.743100	0.451800
C541	C54	0.122700	0.223600	0.799300
C551	C55	0.022500	0.144400	0.327300
C561	C56	0.191800	0.187700	0.507600
S91	S9	0.100380	0.753300	0.364010
C571	C57	0.157500	0.661300	0.448900
S101	S10	0.148220	0.200000	0.890810
C581	C58	0.097100	0.312200	0.799600
S111	S11	0.067840	0.183500	0.313650
C591	C59	0.994200	0.186800	0.269000
S121	S12	0.174970	0.265800	0.424330
C601	C60	0.231500	0.198400	0.526400
C611	C61	0.124300	0.643500	0.324500
H171	H17	0.176800	0.643900	0.492400
C621	C62	0.154500	0.601000	0.376700
C631	C63	0.124200	0.311500	0.929200
H181	H18	0.080100	0.336400	0.754200
C641	C64	0.098300	0.363100	0.872800
C651	C65	0.049100	0.259600	0.230500
H191	H19	0.967600	0.169400	0.265200
C661	C66	0.009900	0.259500	0.215500
C671	C67	0.221000	0.309200	0.414300
H201	H20	0.246100	0.165800	0.572100
C681	C68	0.247500	0.261000	0.472400
C691	C69	0.112500	0.609500	0.241200
H211	H21	0.170900	0.540200	0.366100
C701	C70	0.132800	0.336800	0.014300
H221	H22	0.082900	0.426800	0.882500
C711	C71	0.075800	0.324400	0.186500
H231	H23	0.995000	0.302400	0.174800
C721	C72	0.226600	0.378900	0.346500
H241	H24	0.274500	0.269600	0.474800
Y91	Y9	0.423850	0.063270	0.921900
O491	O49	0.450320	0.050900	0.050200
O501	O50	0.366800	0.150200	0.948100
O511	O51	0.487030	0.080000	0.908200
O521	O52	0.416000	0.159700	0.798900
O531	O53	0.370700	0.029000	0.788200
O541	O54	0.385200	0.918700	0.959200
O551	O55	0.439900	0.897800	0.860900
C731	C73	0.478400	0.095900	0.096700
C741	C74	0.332400	0.117300	0.936700
Y101	Y10	0.331630	0.881670	0.824170
C751	C75	0.468200	0.174200	0.158600
O561	O56	0.317000	0.038200	0.891600
C761	C76	0.304400	0.178100	0.979900
O571	O57	0.270200	0.854000	0.845200
O581	O58	0.342800	0.778800	0.944900
O591	O59	0.389500	0.800600	0.800500
O601	O60	0.302400	0.905400	0.700700
S131	S13	0.421560	0.197100	0.169920
C771	C77	0.493500	0.239500	0.211800
S141	S14	0.319420	0.271500	0.056210
C781	C78	0.264900	0.160800	0.969100
C791	C79	0.435200	0.292400	0.245900
H251	H25	0.520700	0.240000	0.214300
C801	C80	0.473400	0.304400	0.261100
C811	C81	0.272300	0.289000	0.073300
C821	C82	0.247400	0.222600	0.024300
H261	H26	0.251300	0.113200	0.929300
C831	C83	0.405000	0.346100	0.285500
H271	H27	0.485900	0.352600	0.301700
C841	C84	0.264300	0.357800	0.140400
H281	H28	0.220700	0.218200	0.027100
O611	O61	0.416300	0.417800	0.340400
O621	O62	0.370600	0.321500	0.261400
O631	O63	0.291000	0.407800	0.182200
Y111	Y11	0.422900	0.551080	0.437640
Y121	Y12	0.320610	0.413060	0.309020
O641	O64	0.399700	0.391600	0.491300
O651	O65	0.397600	0.656600	0.328900
O661	O66	0.455100	0.532300	0.560500
O671	O67	0.370400	0.625500	0.482400
O681	O68	0.482100	0.547800	0.401800
O691	O69	0.345700	0.321000	0.425100
O701	O70	0.348900	0.566000	0.253200
O711	O71	0.321900	0.559000	0.395800
O721	O72	0.261500	0.410100	0.343800
C851	C85	0.371100	0.324000	0.482400
C861	C86	0.374200	0.640700	0.266700
C871	C87	0.484300	0.572300	0.604700
C881	C88	0.335800	0.619900	0.453800
C891	C89	0.368200	0.243100	0.548200
C901	C90	0.377300	0.723600	0.200700
C911	C91	0.477500	0.644400	0.672700
C921	C92	0.308200	0.687700	0.492400
S151	S15	0.399620	0.253300	0.635990
C931	C93	0.342500	0.161300	0.551100
S161	S16	0.351780	0.700000	0.109190
C941	C94	0.402900	0.812200	0.200400
S171	S17	0.432160	0.683500	0.686350
C951	C95	0.505800	0.686800	0.731000
S181	S18	0.325030	0.765800	0.575670
C961	C96	0.268500	0.698400	0.473600
C971	C97	0.375700	0.143500	0.675500
H291	H29	0.323200	0.143900	0.507600
C981	C98	0.345500	0.101000	0.623300
C991	C99	0.375800	0.811500	0.070800
H301	H30	0.419900	0.836400	0.245800
C1001	C100	0.401700	0.863100	0.127200
C1011	C101	0.450900	0.759600	0.769500
H311	H31	0.532400	0.669400	0.734800
C1021	C102	0.490100	0.759500	0.784500
C1031	C103	0.279000	0.809200	0.585700
H321	H32	0.253900	0.665800	0.427900
C1041	C104	0.252500	0.761000	0.527600
C1051	C105	0.387500	0.109500	0.758800
H331	H33	0.329100	0.040200	0.633900
C1061	C106	0.367200	0.836800	0.985700
H341	H34	0.417100	0.926800	0.117500
C1071	C107	0.424200	0.824400	0.813500
H351	H35	0.505000	0.802400	0.825200
C1081	C108	0.273400	0.878900	0.653500
H361	H36	0.225500	0.769600	0.525200
Y131	Y13	0.923850	0.563270	0.921900
O731	O73	0.950320	0.550900	0.050200
O741	O74	0.866800	0.650200	0.948100
O751	O75	0.987030	0.580000	0.908200
O761	O76	0.916000	0.659700	0.798900
O771	O77	0.870700	0.529000	0.788200
O781	O78	0.885200	0.418700	0.959200
O791	O79	0.939900	0.397800	0.860900
C1091	C109	0.978400	0.595900	0.096700
C1101	C110	0.832400	0.617300	0.936700
Y141	Y14	0.831630	0.381670	0.824170
C1111	C111	0.968200	0.674200	0.158600
O801	O80	0.817000	0.538200	0.891600
C1121	C112	0.804400	0.678100	0.979900
O811	O81	0.770200	0.354000	0.845200
O821	O82	0.842800	0.278800	0.944900
O831	O83	0.889500	0.300600	0.800500
O841	O84	0.802400	0.405400	0.700700
S191	S19	0.921560	0.697100	0.169920
C1131	C113	0.993500	0.739500	0.211800
S201	S20	0.819420	0.771500	0.056210
C1141	C114	0.764900	0.660800	0.969100
C1151	C115	0.935200	0.792400	0.245900
H371	H37	0.020700	0.740000	0.214300
C1161	C116	0.973400	0.804400	0.261100
C1171	C117	0.772300	0.789000	0.073300
C1181	C118	0.747400	0.722600	0.024300
H381	H38	0.751300	0.613200	0.929300
C1191	C119	0.905000	0.846100	0.285500
H391	H39	0.985900	0.852600	0.301700
C1201	C120	0.764300	0.857800	0.140400
H401	H40	0.720700	0.718200	0.027100
O851	O85	0.916300	0.917800	0.340400
O861	O86	0.870600	0.821500	0.261400
O871	O87	0.791000	0.907800	0.182200
Y151	Y15	0.922900	0.051080	0.437640
Y161	Y16	0.820610	0.913060	0.309020
O881	O88	0.899700	0.891600	0.491300
O891	O89	0.897600	0.156600	0.328900
O901	O90	0.955100	0.032300	0.560500
O911	O91	0.870400	0.125500	0.482400
O921	O92	0.982100	0.047800	0.401800
O931	O93	0.845700	0.821000	0.425100
O941	O94	0.848900	0.066000	0.253200
O951	O95	0.821900	0.059000	0.395800
O961	O96	0.761500	0.910100	0.343800
C1211	C121	0.871100	0.824000	0.482400
C1221	C122	0.874200	0.140700	0.266700
C1231	C123	0.984300	0.072300	0.604700
C1241	C124	0.835800	0.119900	0.453800
C1251	C125	0.868200	0.743100	0.548200
C1261	C126	0.877300	0.223600	0.200700
C1271	C127	0.977500	0.144400	0.672700
C1281	C128	0.808200	0.187700	0.492400
S211	S21	0.899620	0.753300	0.635990
C1291	C129	0.842500	0.661300	0.551100
S221	S22	0.851780	0.200000	0.109190
C1301	C130	0.902900	0.312200	0.200400
S231	S23	0.932160	0.183500	0.686350
C1311	C131	0.005800	0.186800	0.731000
S241	S24	0.825030	0.265800	0.575670
C1321	C132	0.768500	0.198400	0.473600
C1331	C133	0.875700	0.643500	0.675500
H411	H41	0.823200	0.643900	0.507600
C1341	C134	0.845500	0.601000	0.623300
C1351	C135	0.875800	0.311500	0.070800
H421	H42	0.919900	0.336400	0.245800
C1361	C136	0.901700	0.363100	0.127200
C1371	C137	0.950900	0.259600	0.769500
H431	H43	0.032400	0.169400	0.734800
C1381	C138	0.990100	0.259500	0.784500
C1391	C139	0.779000	0.309200	0.585700
H441	H44	0.753900	0.165800	0.427900
C1401	C140	0.752500	0.261000	0.527600
C1411	C141	0.887500	0.609500	0.758800
H451	H45	0.829100	0.540200	0.633900
C1421	C142	0.867200	0.336800	0.985700
H461	H46	0.917100	0.426800	0.117500
C1431	C143	0.924200	0.324400	0.813500
H471	H47	0.005000	0.302400	0.825200
C1441	C144	0.773400	0.378900	0.653500
H481	H48	0.725500	0.269600	0.525200
