data_CANRUG_clean_PM
_symmetry_space_group_name_H-M	'P1'
_cell_length_a	13.669100
_cell_length_b	14.569000
_cell_length_c	23.687400
_cell_angle_alpha	90.000000
_cell_angle_beta	90.000000
_cell_angle_gamma	114.939000
_symmetry_Int_Tables_number 1

loop_
_symmetry_equiv_pos_as_xyz
'x,y,z'

loop_
_atom_site_label
_atom_site_type_symbol
_atom_site_fract_x
_atom_site_fract_y
_atom_site_fract_z
Ca11	Ca1	0.015770	0.001320	0.656860
Ca21	Ca2	0.984230	0.498680	0.156860
Ca31	Ca3	0.984230	0.998680	0.343140
Ca41	Ca4	0.015770	0.501320	0.843140
Ca51	Ca5	0.000000	0.000000	0.500000
Ca61	Ca6	0.000000	0.500000	0.000000
Si11	Si1	0.706840	0.379590	0.509110
Si21	Si2	0.293160	0.120410	0.009110
Si31	Si3	0.293160	0.620410	0.490890
Si41	Si4	0.706840	0.879590	0.990890
H11	H1	0.874000	0.417400	0.599700
H21	H2	0.967600	0.327600	0.634600
H31	H3	0.819100	0.106300	0.519700
H41	H4	0.726100	0.196000	0.485100
H51	H5	0.589100	0.207500	0.583600
H61	H6	0.409900	0.114000	0.610300
H71	H7	0.319300	0.287100	0.507700
H81	H8	0.499400	0.388500	0.487600
H91	H9	0.887900	0.571300	0.480200
H101	H10	0.959800	0.736700	0.513100
H111	H11	0.718200	0.660400	0.626900
H121	H12	0.645900	0.494300	0.593400
H131	H13	0.564200	0.319900	0.405800
H141	H14	0.595300	0.326900	0.308400
H151	H15	0.916700	0.437000	0.337200
H161	H16	0.885300	0.426100	0.433900
H171	H17	0.729000	0.377000	0.182400
H181	H18	0.126000	0.082600	0.099700
H191	H19	0.032400	0.172400	0.134600
H201	H20	0.180900	0.393700	0.019700
H211	H21	0.273900	0.304000	0.985100
H221	H22	0.410900	0.292500	0.083600
H231	H23	0.590100	0.386000	0.110300
H241	H24	0.680700	0.212900	0.007700
H251	H25	0.500600	0.111500	0.987600
H261	H26	0.112100	0.928700	0.980200
H271	H27	0.040200	0.763300	0.013100
H281	H28	0.281800	0.839600	0.126900
H291	H29	0.354100	0.005700	0.093400
H301	H30	0.435800	0.180100	0.905800
H311	H31	0.404700	0.173100	0.808400
H321	H32	0.083300	0.063000	0.837200
H331	H33	0.114700	0.073900	0.933900
H341	H34	0.271000	0.123000	0.682400
H351	H35	0.126000	0.582600	0.400300
H361	H36	0.032400	0.672400	0.365400
H371	H37	0.180900	0.893700	0.480300
H381	H38	0.273900	0.804000	0.514900
H391	H39	0.410900	0.792500	0.416400
H401	H40	0.590100	0.886000	0.389700
H411	H41	0.680700	0.712900	0.492300
H421	H42	0.500600	0.611500	0.512400
H431	H43	0.112100	0.428700	0.519800
H441	H44	0.040200	0.263300	0.486900
H451	H45	0.281800	0.339600	0.373100
H461	H46	0.354100	0.505700	0.406600
H471	H47	0.435800	0.680100	0.594200
H481	H48	0.404700	0.673100	0.691600
H491	H49	0.083300	0.563000	0.662800
H501	H50	0.114700	0.573900	0.566100
H511	H51	0.271000	0.623000	0.817600
H521	H52	0.874000	0.917400	0.900300
H531	H53	0.967600	0.827600	0.865400
H541	H54	0.819100	0.606300	0.980300
H551	H55	0.726100	0.696000	0.014900
H561	H56	0.589100	0.707500	0.916400
H571	H57	0.409900	0.614000	0.889700
H581	H58	0.319300	0.787100	0.992300
H591	H59	0.499400	0.888500	0.012400
H601	H60	0.887900	0.071300	0.019800
H611	H61	0.959800	0.236700	0.986900
H621	H62	0.718200	0.160400	0.873100
H631	H63	0.645900	0.994300	0.906600
H641	H64	0.564200	0.819900	0.094200
H651	H65	0.595300	0.826900	0.191600
H661	H66	0.916700	0.937000	0.162800
H671	H67	0.885300	0.926100	0.066100
H681	H68	0.729000	0.877000	0.317600
C11	C1	0.789380	0.316320	0.538900
C21	C2	0.862200	0.354050	0.583380
C31	C3	0.918000	0.300550	0.604330
C41	C4	0.901250	0.207630	0.581090
C51	C5	0.830000	0.169300	0.536260
C61	C6	0.774880	0.222990	0.515690
C71	C7	0.958480	0.146990	0.603360
C81	C8	0.563740	0.307350	0.531640
C91	C9	0.534580	0.224710	0.568640
C101	C10	0.427510	0.167560	0.583800
C111	C11	0.346620	0.188800	0.560210
C121	C12	0.374200	0.271470	0.523760
C131	C13	0.481480	0.330650	0.511010
C141	C14	0.230490	0.121820	0.570810
C151	C15	0.759820	0.514160	0.533580
C161	C16	0.852990	0.588660	0.510260
C171	C17	0.896030	0.687520	0.529810
C181	C18	0.846770	0.714920	0.573400
C191	C19	0.753110	0.642380	0.597060
C201	C20	0.710260	0.543140	0.577070
C211	C21	0.895500	0.821530	0.595160
C221	C22	0.721300	0.375560	0.430410
C231	C23	0.636110	0.344300	0.392110
C241	C24	0.654310	0.348150	0.333990
C251	C25	0.758990	0.383170	0.313740
C261	C26	0.845010	0.412950	0.351120
C271	C27	0.826170	0.407640	0.408580
C281	C28	0.785190	0.391900	0.252470
C291	C29	0.210620	0.183680	0.038900
C301	C30	0.137800	0.145950	0.083380
C311	C31	0.082000	0.199450	0.104330
C321	C32	0.098750	0.292370	0.081090
C331	C33	0.170000	0.330700	0.036260
C341	C34	0.225120	0.277010	0.015690
C351	C35	0.041520	0.353010	0.103360
C361	C36	0.436260	0.192650	0.031640
C371	C37	0.465420	0.275290	0.068640
C381	C38	0.572490	0.332440	0.083800
C391	C39	0.653380	0.311200	0.060210
C401	C40	0.625800	0.228530	0.023760
C411	C41	0.518520	0.169350	0.011010
C421	C42	0.769510	0.378180	0.070810
C431	C43	0.240180	0.985840	0.033580
C441	C44	0.147010	0.911340	0.010260
C451	C45	0.103970	0.812480	0.029810
C461	C46	0.153230	0.785080	0.073400
C471	C47	0.246890	0.857620	0.097060
C481	C48	0.289740	0.956860	0.077070
C491	C49	0.104500	0.678470	0.095160
C501	C50	0.278700	0.124440	0.930410
C511	C51	0.363890	0.155700	0.892110
C521	C52	0.345690	0.151850	0.833990
C531	C53	0.241010	0.116830	0.813740
C541	C54	0.154990	0.087050	0.851120
C551	C55	0.173830	0.092360	0.908580
C561	C56	0.214810	0.108100	0.752470
C571	C57	0.210620	0.683680	0.461100
C581	C58	0.137800	0.645950	0.416620
C591	C59	0.082000	0.699450	0.395670
C601	C60	0.098750	0.792370	0.418910
C611	C61	0.170000	0.830700	0.463740
C621	C62	0.225120	0.777010	0.484310
C631	C63	0.041520	0.853010	0.396640
C641	C64	0.436260	0.692650	0.468360
C651	C65	0.465420	0.775290	0.431360
C661	C66	0.572490	0.832440	0.416200
C671	C67	0.653380	0.811200	0.439790
C681	C68	0.625800	0.728530	0.476240
C691	C69	0.518520	0.669350	0.488990
C701	C70	0.769510	0.878180	0.429190
C711	C71	0.240180	0.485840	0.466420
C721	C72	0.147010	0.411340	0.489740
C731	C73	0.103970	0.312480	0.470190
C741	C74	0.153230	0.285080	0.426600
C751	C75	0.246890	0.357620	0.402940
C761	C76	0.289740	0.456860	0.422930
C771	C77	0.104500	0.178470	0.404840
C781	C78	0.278700	0.624440	0.569590
C791	C79	0.363890	0.655700	0.607890
C801	C80	0.345690	0.651850	0.666010
C811	C81	0.241010	0.616830	0.686260
C821	C82	0.154990	0.587050	0.648880
C831	C83	0.173830	0.592360	0.591420
C841	C84	0.214810	0.608100	0.747530
C851	C85	0.789380	0.816320	0.961100
C861	C86	0.862200	0.854050	0.916620
C871	C87	0.918000	0.800550	0.895670
C881	C88	0.901250	0.707630	0.918910
C891	C89	0.830000	0.669300	0.963740
C901	C90	0.774880	0.722990	0.984310
C911	C91	0.958480	0.646990	0.896640
C921	C92	0.563740	0.807350	0.968360
C931	C93	0.534580	0.724710	0.931360
C941	C94	0.427510	0.667560	0.916200
C951	C95	0.346620	0.688800	0.939790
C961	C96	0.374200	0.771470	0.976240
C971	C97	0.481480	0.830650	0.988990
C981	C98	0.230490	0.621820	0.929190
C991	C99	0.759820	0.014160	0.966420
C1001	C100	0.852990	0.088660	0.989740
C1011	C101	0.896030	0.187520	0.970190
C1021	C102	0.846770	0.214920	0.926600
C1031	C103	0.753110	0.142380	0.902940
C1041	C104	0.710260	0.043140	0.922930
C1051	C105	0.895500	0.321530	0.904840
C1061	C106	0.721300	0.875560	0.069590
C1071	C107	0.636110	0.844300	0.107890
C1081	C108	0.654310	0.848150	0.166010
C1091	C109	0.758990	0.883170	0.186260
C1101	C110	0.845010	0.912950	0.148880
C1111	C111	0.826170	0.907640	0.091420
C1121	C112	0.785190	0.891900	0.247530
O11	O1	0.013160	0.172900	0.647440
O21	O2	0.946790	0.067450	0.576690
O31	O3	0.169000	0.101990	0.529150
O41	O4	0.199850	0.087890	0.620170
O51	O5	0.851830	0.844960	0.635860
O61	O6	0.982130	0.884590	0.572280
O71	O7	0.877410	0.417430	0.236170
O81	O8	0.703350	0.371410	0.217920
O91	O9	0.986840	0.327100	0.147440
O101	O10	0.053210	0.432550	0.076690
O111	O11	0.831000	0.398010	0.029150
O121	O12	0.800150	0.412110	0.120170
O131	O13	0.148170	0.655040	0.135860
O141	O14	0.017870	0.615410	0.072280
O151	O15	0.122590	0.082570	0.736170
O161	O16	0.296650	0.128590	0.717920
O171	O17	0.986840	0.827100	0.352560
O181	O18	0.053210	0.932550	0.423310
O191	O19	0.831000	0.898010	0.470850
O201	O20	0.800150	0.912110	0.379830
O211	O21	0.148170	0.155040	0.364140
O221	O22	0.017870	0.115410	0.427720
O231	O23	0.122590	0.582570	0.763830
O241	O24	0.296650	0.628590	0.782080
O251	O25	0.013160	0.672900	0.852560
O261	O26	0.946790	0.567450	0.923310
O271	O27	0.169000	0.601990	0.970850
O281	O28	0.199850	0.587890	0.879830
O291	O29	0.851830	0.344960	0.864140
O301	O30	0.982130	0.384590	0.927720
O311	O31	0.877410	0.917430	0.263830
O321	O32	0.703350	0.871410	0.282080
