data_CAQCAZ_clean_PM
_symmetry_space_group_name_H-M	'P1'
_cell_length_a	7.210400
_cell_length_b	13.637000
_cell_length_c	17.379000
_cell_angle_alpha	90.000000
_cell_angle_beta	100.657000
_cell_angle_gamma	90.000000
_symmetry_Int_Tables_number 1

loop_
_symmetry_equiv_pos_as_xyz
'x,y,z'

loop_
_atom_site_label
_atom_site_type_symbol
_atom_site_fract_x
_atom_site_fract_y
_atom_site_fract_z
In11	In1	0.466970	0.098770	0.446730
O11	O1	0.574100	0.158400	0.561900
O21	O2	0.680900	0.019700	0.625800
O31	O3	0.986200	0.120000	0.573800
O41	O4	0.254500	0.111300	0.662400
O51	O5	0.232200	0.306300	0.913100
O61	O6	0.976200	0.404800	0.900300
O71	O7	0.663900	0.280800	0.921900
O81	O8	0.532300	0.376000	0.825600
O91	O9	0.691300	0.987700	0.471300
C11	C1	0.779600	0.170200	0.684400
C21	C2	0.976200	0.177600	0.699600
C31	C3	0.069100	0.224600	0.765900
H11	H1	0.203100	0.226700	0.777100
C41	C4	0.965100	0.268700	0.816000
C51	C5	0.766400	0.263100	0.799900
C61	C6	0.675300	0.214100	0.734300
H21	H2	0.541500	0.210400	0.723400
C71	C7	0.671800	0.111800	0.617500
C81	C8	0.085600	0.132900	0.641500
C91	C9	0.064000	0.331800	0.882600
C101	C10	0.650200	0.310500	0.852500
In21	In2	0.533030	0.598770	0.053270
O101	O10	0.425900	0.658400	0.938100
O111	O11	0.319100	0.519700	0.874200
O121	O12	0.013800	0.620000	0.926200
O131	O13	0.745500	0.611300	0.837600
O141	O14	0.767800	0.806300	0.586900
O151	O15	0.023800	0.904800	0.599700
O161	O16	0.336100	0.780800	0.578100
O171	O17	0.467700	0.876000	0.674400
O181	O18	0.308700	0.487700	0.028700
C111	C11	0.220400	0.670200	0.815600
C121	C12	0.023800	0.677600	0.800400
C131	C13	0.930900	0.724600	0.734100
H31	H3	0.796900	0.726700	0.722900
C141	C14	0.034900	0.768700	0.684000
C151	C15	0.233600	0.763100	0.700100
C161	C16	0.324700	0.714100	0.765700
H41	H4	0.458500	0.710400	0.776600
C171	C17	0.328200	0.611800	0.882500
C181	C18	0.914400	0.632900	0.858500
C191	C19	0.936000	0.831800	0.617400
C201	C20	0.349800	0.810500	0.647500
In31	In3	0.533030	0.901230	0.553270
O191	O19	0.425900	0.841600	0.438100
O201	O20	0.319100	0.980300	0.374200
O211	O21	0.013800	0.880000	0.426200
O221	O22	0.745500	0.888700	0.337600
O231	O23	0.767800	0.693700	0.086900
O241	O24	0.023800	0.595200	0.099700
O251	O25	0.336100	0.719200	0.078100
O261	O26	0.467700	0.624000	0.174400
O271	O27	0.308700	0.012300	0.528700
C211	C21	0.220400	0.829800	0.315600
C221	C22	0.023800	0.822400	0.300400
C231	C23	0.930900	0.775400	0.234100
H51	H5	0.796900	0.773300	0.222900
C241	C24	0.034900	0.731300	0.184000
C251	C25	0.233600	0.736900	0.200100
C261	C26	0.324700	0.785900	0.265700
H61	H6	0.458500	0.789600	0.276600
C271	C27	0.328200	0.888200	0.382500
C281	C28	0.914400	0.867100	0.358500
C291	C29	0.936000	0.668200	0.117400
C301	C30	0.349800	0.689500	0.147500
In41	In4	0.466970	0.401230	0.946730
O281	O28	0.574100	0.341600	0.061900
O291	O29	0.680900	0.480300	0.125800
O301	O30	0.986200	0.380000	0.073800
O311	O31	0.254500	0.388700	0.162400
O321	O32	0.232200	0.193700	0.413100
O331	O33	0.976200	0.095200	0.400300
O341	O34	0.663900	0.219200	0.421900
O351	O35	0.532300	0.124000	0.325600
O361	O36	0.691300	0.512300	0.971300
C311	C31	0.779600	0.329800	0.184400
C321	C32	0.976200	0.322400	0.199600
C331	C33	0.069100	0.275400	0.265900
H71	H7	0.203100	0.273300	0.277100
C341	C34	0.965100	0.231300	0.316000
C351	C35	0.766400	0.236900	0.299900
C361	C36	0.675300	0.285900	0.234300
H81	H8	0.541500	0.289600	0.223400
C371	C37	0.671800	0.388200	0.117500
C381	C38	0.085600	0.367100	0.141500
C391	C39	0.064000	0.168200	0.382600
C401	C40	0.650200	0.189500	0.352500
In51	In5	0.000000	0.000000	0.500000
In61	In6	0.000000	0.500000	0.000000
