data_CAVMIW_clean_PM
_symmetry_space_group_name_H-M	'P1'
_cell_length_a	9.209000
_cell_length_b	14.712000
_cell_length_c	12.517800
_cell_angle_alpha	90.000000
_cell_angle_beta	109.010000
_cell_angle_gamma	90.000000
_symmetry_Int_Tables_number 1

loop_
_symmetry_equiv_pos_as_xyz
'x,y,z'

loop_
_atom_site_label
_atom_site_type_symbol
_atom_site_fract_x
_atom_site_fract_y
_atom_site_fract_z
Fe11	Fe1	0.952900	0.042380	0.332700
Fe21	Fe2	0.831630	0.200330	0.107830
Cl11	Cl1	0.005010	0.937550	0.222800
Cl21	Cl2	0.984310	0.303270	0.235200
O11	O1	0.805000	0.113000	0.209800
H11	H1	0.700500	0.100200	0.200600
O21	O2	0.952300	0.139100	0.453300
O31	O3	0.157700	0.108900	0.361000
O41	O4	0.113300	0.244400	0.568400
O51	O5	0.320500	0.213000	0.475500
O61	O6	0.712900	0.891300	0.474100
O71	O7	0.019500	0.860700	0.588000
O81	O8	0.075000	0.960800	0.477600
O91	O9	0.766600	0.984000	0.354900
C11	C1	0.075700	0.184700	0.491300
C21	C2	0.195100	0.168000	0.438000
C31	C3	0.804100	0.932600	0.439000
C41	C4	0.981900	0.917500	0.507300
Fe31	Fe3	0.452900	0.542380	0.332700
Fe41	Fe4	0.331630	0.700330	0.107830
Cl31	Cl3	0.505010	0.437550	0.222800
Cl41	Cl4	0.484310	0.803270	0.235200
O101	O10	0.305000	0.613000	0.209800
H21	H2	0.200500	0.600200	0.200600
O111	O11	0.452300	0.639100	0.453300
O121	O12	0.657700	0.608900	0.361000
O131	O13	0.613300	0.744400	0.568400
O141	O14	0.820500	0.713000	0.475500
O151	O15	0.212900	0.391300	0.474100
O161	O16	0.519500	0.360700	0.588000
O171	O17	0.575000	0.460800	0.477600
O181	O18	0.266600	0.484000	0.354900
C51	C5	0.575700	0.684700	0.491300
C61	C6	0.695100	0.668000	0.438000
C71	C7	0.304100	0.432600	0.439000
C81	C8	0.481900	0.417500	0.507300
Fe51	Fe5	0.952900	0.957620	0.832700
Fe61	Fe6	0.831630	0.799670	0.607830
Cl51	Cl5	0.005010	0.062450	0.722800
Cl61	Cl6	0.984310	0.696730	0.735200
O191	O19	0.805000	0.887000	0.709800
H31	H3	0.700500	0.899800	0.700600
O201	O20	0.952300	0.860900	0.953300
O211	O21	0.157700	0.891100	0.861000
O221	O22	0.113300	0.755600	0.068400
O231	O23	0.320500	0.787000	0.975500
O241	O24	0.712900	0.108700	0.974100
O251	O25	0.019500	0.139300	0.088000
O261	O26	0.075000	0.039200	0.977600
O271	O27	0.766600	0.016000	0.854900
C91	C9	0.075700	0.815300	0.991300
C101	C10	0.195100	0.832000	0.938000
C111	C11	0.804100	0.067400	0.939000
C121	C12	0.981900	0.082500	0.007300
Fe71	Fe7	0.452900	0.457620	0.832700
Fe81	Fe8	0.331630	0.299670	0.607830
Cl71	Cl7	0.505010	0.562450	0.722800
Cl81	Cl8	0.484310	0.196730	0.735200
O281	O28	0.305000	0.387000	0.709800
H41	H4	0.200500	0.399800	0.700600
O291	O29	0.452300	0.360900	0.953300
O301	O30	0.657700	0.391100	0.861000
O311	O31	0.613300	0.255600	0.068400
O321	O32	0.820500	0.287000	0.975500
O331	O33	0.212900	0.608700	0.974100
O341	O34	0.519500	0.639300	0.088000
O351	O35	0.575000	0.539200	0.977600
O361	O36	0.266600	0.516000	0.854900
C131	C13	0.575700	0.315300	0.991300
C141	C14	0.695100	0.332000	0.938000
C151	C15	0.304100	0.567400	0.939000
C161	C16	0.481900	0.582500	0.007300
