data_CAVMOD_clean_PM
_symmetry_space_group_name_H-M	'P1'
_cell_length_a	14.057800
_cell_length_b	23.001300
_cell_length_c	31.238000
_cell_angle_alpha	90.881000
_cell_angle_beta	90.000000
_cell_angle_gamma	90.000000
_symmetry_Int_Tables_number 1

loop_
_symmetry_equiv_pos_as_xyz
'x,y,z'

loop_
_atom_site_label
_atom_site_type_symbol
_atom_site_fract_x
_atom_site_fract_y
_atom_site_fract_z
Zn11	Zn1	0.298730	0.267920	0.342570
Zn21	Zn2	0.505600	0.214180	0.349620
Zn31	Zn3	0.333980	0.030420	0.608430
Zn41	Zn4	0.212500	0.969130	0.126860
Zn51	Zn5	0.201270	0.767920	0.842570
Zn61	Zn6	0.994400	0.714180	0.849620
Zn71	Zn7	0.166020	0.530420	0.108430
Zn81	Zn8	0.287500	0.469130	0.626860
H11	H1	0.220100	0.168200	0.448600
H21	H2	0.487500	0.112900	0.468100
H31	H3	0.149500	0.123300	0.578400
H41	H4	0.047900	0.145500	0.566000
H51	H5	0.137000	0.185000	0.558600
H61	H6	0.001600	0.159700	0.492400
H71	H7	0.072000	0.144900	0.454900
H81	H8	0.091800	0.198400	0.485200
H91	H9	0.118900	0.033600	0.529500
H101	H10	0.086800	0.045000	0.482300
H111	H11	0.018400	0.060300	0.520500
H121	H12	0.528300	0.052600	0.522300
H131	H13	0.646300	0.027600	0.555600
H141	H14	0.764900	0.983100	0.595100
H151	H15	0.726300	0.933300	0.656700
H161	H16	0.569000	0.927800	0.678800
H171	H17	0.429400	0.915300	0.685000
H181	H18	0.038600	0.899400	0.718800
H191	H19	0.320700	0.876500	0.730800
H201	H20	0.973600	0.051100	0.642700
H211	H21	0.085100	0.049900	0.643700
H221	H22	0.027300	0.046800	0.686500
H231	H23	0.970000	0.968000	0.592900
H241	H24	0.021300	0.910000	0.604900
H251	H25	0.081400	0.964700	0.592700
H261	H26	0.882000	0.968000	0.658000
H271	H27	0.932700	0.962800	0.702400
H281	H28	0.930500	0.909400	0.670700
H291	H29	0.225000	0.128300	0.250200
H301	H30	0.507000	0.114800	0.231600
H311	H31	0.574400	0.963700	0.148500
H321	H32	0.463600	0.961600	0.153900
H331	H33	0.529200	0.966700	0.194400
H341	H34	0.560400	0.051900	0.100100
H351	H35	0.502400	0.106300	0.115900
H361	H36	0.449500	0.048100	0.104500
H371	H37	0.663700	0.056100	0.163800
H381	H38	0.619800	0.055500	0.209900
H391	H39	0.609700	0.110900	0.181700
H401	H40	0.115600	0.089200	0.203800
H411	H41	0.972100	0.068400	0.199900
H421	H42	0.816100	0.060400	0.176400
H431	H43	0.782500	0.012300	0.112300
H441	H44	0.905000	0.972200	0.071800
H451	H45	0.025600	0.956700	0.037300
H461	H46	0.334200	0.847600	0.956400
H471	H47	0.069400	0.907500	0.977400
H481	H48	0.486600	0.830900	0.078300
H491	H49	0.390900	0.801600	0.064000
H501	H50	0.389200	0.858600	0.092100
H511	H51	0.536200	0.925900	0.047900
H521	H52	0.438200	0.954200	0.060200
H531	H53	0.473800	0.955000	0.012600
H541	H54	0.543400	0.834000	0.007000
H551	H55	0.484700	0.863100	0.970400
H561	H56	0.450700	0.804100	0.989600
H571	H57	0.658200	0.270200	0.297200
H581	H58	0.822700	0.278000	0.296200
H591	H59	0.838600	0.180600	0.401600
H601	H60	0.674100	0.172700	0.402600
H611	H61	0.966500	0.239500	0.283500
H621	H62	0.130400	0.250700	0.281200
H631	H63	0.140500	0.247000	0.409700
H641	H64	0.976500	0.235800	0.412000
H651	H65	0.279900	0.668200	0.948600
H661	H66	0.012500	0.612900	0.968100
H671	H67	0.350500	0.623300	0.078400
H681	H68	0.452100	0.645500	0.066000
H691	H69	0.363000	0.685000	0.058600
H701	H70	0.498400	0.659700	0.992400
H711	H71	0.428000	0.644900	0.954900
H721	H72	0.408200	0.698400	0.985200
H731	H73	0.381100	0.533600	0.029500
H741	H74	0.413200	0.545000	0.982300
H751	H75	0.481600	0.560300	0.020500
H761	H76	0.971700	0.552600	0.022300
H771	H77	0.853700	0.527600	0.055600
H781	H78	0.735100	0.483100	0.095100
H791	H79	0.773700	0.433300	0.156700
H801	H80	0.931000	0.427800	0.178800
H811	H81	0.070600	0.415300	0.185000
H821	H82	0.461400	0.399400	0.218800
H831	H83	0.179300	0.376500	0.230800
H841	H84	0.526400	0.551100	0.142700
H851	H85	0.414900	0.549900	0.143700
H861	H86	0.472700	0.546800	0.186500
H871	H87	0.530000	0.468000	0.092900
H881	H88	0.478700	0.410000	0.104900
H891	H89	0.418600	0.464700	0.092700
H901	H90	0.618000	0.468000	0.158000
H911	H91	0.567300	0.462800	0.202400
H921	H92	0.569500	0.409400	0.170700
H931	H93	0.275000	0.628300	0.750200
H941	H94	0.993000	0.614800	0.731600
H951	H95	0.925600	0.463700	0.648500
H961	H96	0.036400	0.461600	0.653900
H971	H97	0.970800	0.466700	0.694400
H981	H98	0.939600	0.551900	0.600100
H991	H99	0.997600	0.606300	0.615900
H1001	H100	0.050500	0.548100	0.604500
H1011	H101	0.836300	0.556100	0.663800
H1021	H102	0.880200	0.555500	0.709900
H1031	H103	0.890300	0.610900	0.681700
H1041	H104	0.384400	0.589200	0.703800
H1051	H105	0.527900	0.568400	0.699900
H1061	H106	0.683900	0.560400	0.676400
H1071	H107	0.717500	0.512300	0.612300
H1081	H108	0.595000	0.472200	0.571800
H1091	H109	0.474400	0.456700	0.537300
H1101	H110	0.165800	0.347600	0.456400
H1111	H111	0.430600	0.407500	0.477400
H1121	H112	0.013400	0.330900	0.578300
H1131	H113	0.109100	0.301600	0.564000
H1141	H114	0.110800	0.358600	0.592100
H1151	H115	0.963800	0.425900	0.547900
H1161	H116	0.061800	0.454200	0.560200
H1171	H117	0.026200	0.455000	0.512600
H1181	H118	0.956600	0.334000	0.507000
H1191	H119	0.015300	0.363100	0.470400
H1201	H120	0.049300	0.304100	0.489600
H1211	H121	0.841800	0.770200	0.797200
H1221	H122	0.677300	0.778000	0.796200
H1231	H123	0.661400	0.680600	0.901600
H1241	H124	0.825900	0.672700	0.902600
H1251	H125	0.533500	0.739500	0.783500
H1261	H126	0.369600	0.750700	0.781200
H1271	H127	0.359500	0.747000	0.909700
H1281	H128	0.523500	0.735800	0.912000
C11	C1	0.389400	0.176800	0.413200
C21	C2	0.358700	0.145500	0.452380
C31	C3	0.263700	0.147300	0.464600
C41	C4	0.233900	0.117800	0.500700
C51	C5	0.299100	0.086400	0.524600
C61	C6	0.394100	0.084600	0.512300
C71	C7	0.424000	0.114200	0.476200
C81	C8	0.125800	0.119800	0.514200
C91	C9	0.114000	0.145700	0.558300
C101	C10	0.067100	0.159500	0.483700
C111	C11	0.083600	0.059100	0.511400
C121	C12	0.468800	0.054500	0.535300
C131	C13	0.536600	0.004300	0.593600
C141	C14	0.630800	0.007600	0.580300
C151	C15	0.701900	0.981000	0.604000
C161	C16	0.678700	0.951100	0.640900
C171	C17	0.584500	0.947800	0.654100
C181	C18	0.513500	0.974400	0.630500
C191	C19	0.384800	0.937900	0.670900
C201	C20	0.284700	0.931200	0.683400
C211	C21	0.208000	0.956900	0.662940
C221	C22	0.115700	0.944900	0.676200
C231	C23	0.100300	0.907400	0.710000
C241	C24	0.177100	0.881700	0.730410
C251	C25	0.269300	0.893700	0.717120
C261	C26	0.026500	0.971000	0.653100
C271	C27	0.028300	0.035400	0.656800
C281	C28	0.024700	0.951700	0.606700
C291	C29	0.934600	0.951000	0.672900
C301	C30	0.155200	0.842300	0.767200
C311	C31	0.385100	0.170000	0.283100
C321	C32	0.368600	0.127900	0.246490
C331	C33	0.276200	0.112600	0.235120
C341	C34	0.260500	0.074000	0.201200
C351	C35	0.337100	0.050600	0.178720
C361	C36	0.429400	0.065900	0.190100
C371	C37	0.445200	0.104600	0.224000
C381	C38	0.517300	0.045200	0.162700
C391	C39	0.521600	0.977900	0.165100
C401	C40	0.506400	0.064700	0.116500
C411	C41	0.611500	0.069200	0.181300
C421	C42	0.160100	0.065900	0.189800
C431	C43	0.032100	0.025100	0.149900
C441	C44	0.958700	0.049100	0.174220
C451	C45	0.865200	0.044300	0.160100
C461	C46	0.845100	0.015500	0.121800
C471	C47	0.918500	0.991500	0.097500
C481	C48	0.012000	0.996300	0.111500
C491	C49	0.083900	0.951800	0.050900
C501	C50	0.159300	0.923000	0.026800
C511	C51	0.252400	0.915300	0.040630
C521	C52	0.317900	0.887100	0.014300
C531	C53	0.290300	0.866500	0.974080
C541	C54	0.197200	0.874100	0.960260
C551	C55	0.131700	0.902400	0.986600
C561	C56	0.421800	0.873900	0.029500
C571	C57	0.422200	0.838000	0.069700
C581	C58	0.472300	0.932900	0.038400
C591	C59	0.480600	0.840700	0.996000
C601	C60	0.167200	0.848700	0.917600
C611	C61	0.694400	0.252200	0.318090
C621	C62	0.792900	0.256900	0.317500
C631	C63	0.847000	0.230100	0.348800
C641	C64	0.802500	0.198500	0.380660
C651	C65	0.703900	0.193800	0.381250
C661	C66	0.955300	0.236500	0.348010
C671	C67	0.001400	0.241000	0.308840
C681	C68	0.099600	0.247700	0.307460
C691	C69	0.105600	0.245500	0.384440
C701	C70	0.007400	0.238800	0.385820
C711	C71	0.110600	0.676800	0.913200
C721	C72	0.141300	0.645500	0.952380
C731	C73	0.236300	0.647300	0.964600
C741	C74	0.266100	0.617800	0.000700
C751	C75	0.200900	0.586400	0.024600
C761	C76	0.105900	0.584600	0.012300
C771	C77	0.076000	0.614200	0.976200
C781	C78	0.374200	0.619800	0.014200
C791	C79	0.386000	0.645700	0.058300
C801	C80	0.432900	0.659500	0.983700
C811	C81	0.416400	0.559100	0.011400
C821	C82	0.031200	0.554500	0.035300
C831	C83	0.963400	0.504300	0.093600
C841	C84	0.869200	0.507600	0.080300
C851	C85	0.798100	0.481000	0.104000
C861	C86	0.821300	0.451100	0.140900
C871	C87	0.915500	0.447800	0.154100
C881	C88	0.986500	0.474400	0.130500
C891	C89	0.115200	0.437900	0.170900
C901	C90	0.215300	0.431200	0.183400
C911	C91	0.292000	0.456900	0.162940
C921	C92	0.384300	0.444900	0.176200
C931	C93	0.399700	0.407400	0.210000
C941	C94	0.322900	0.381700	0.230410
C951	C95	0.230700	0.393700	0.217120
C961	C96	0.473500	0.471000	0.153100
C971	C97	0.471700	0.535400	0.156800
C981	C98	0.475300	0.451700	0.106700
C991	C99	0.565400	0.451000	0.172900
C1001	C100	0.344800	0.342300	0.267200
C1011	C101	0.114900	0.670000	0.783100
C1021	C102	0.131400	0.627900	0.746490
C1031	C103	0.223800	0.612600	0.735120
C1041	C104	0.239500	0.574000	0.701200
C1051	C105	0.162900	0.550600	0.678720
C1061	C106	0.070600	0.565900	0.690100
C1071	C107	0.054800	0.604600	0.724000
C1081	C108	0.982700	0.545200	0.662700
C1091	C109	0.978400	0.477900	0.665100
C1101	C110	0.993600	0.564700	0.616500
C1111	C111	0.888500	0.569200	0.681300
C1121	C112	0.339900	0.565900	0.689800
C1131	C113	0.467900	0.525100	0.649900
C1141	C114	0.541300	0.549100	0.674220
C1151	C115	0.634800	0.544300	0.660100
C1161	C116	0.654900	0.515500	0.621800
C1171	C117	0.581500	0.491500	0.597500
C1181	C118	0.488000	0.496300	0.611500
C1191	C119	0.416100	0.451800	0.550900
C1201	C120	0.340700	0.423000	0.526800
C1211	C121	0.247600	0.415300	0.540630
C1221	C122	0.182100	0.387100	0.514300
C1231	C123	0.209700	0.366500	0.474080
C1241	C124	0.302800	0.374100	0.460260
C1251	C125	0.368300	0.402400	0.486600
C1261	C126	0.078200	0.373900	0.529500
C1271	C127	0.077800	0.338000	0.569700
C1281	C128	0.027700	0.432900	0.538400
C1291	C129	0.019400	0.340700	0.496000
C1301	C130	0.332800	0.348700	0.417600
C1311	C131	0.805600	0.752200	0.818090
C1321	C132	0.707100	0.756900	0.817500
C1331	C133	0.653000	0.730100	0.848800
C1341	C134	0.697500	0.698500	0.880660
C1351	C135	0.796100	0.693800	0.881250
C1361	C136	0.544700	0.736500	0.848010
C1371	C137	0.498600	0.741000	0.808840
C1381	C138	0.400400	0.747700	0.807460
C1391	C139	0.394400	0.745500	0.884440
C1401	C140	0.492600	0.738800	0.885820
N11	N1	0.649800	0.220600	0.349970
N21	N2	0.460100	0.029900	0.572100
N31	N3	0.151700	0.249900	0.345260
N41	N4	0.416200	0.972500	0.642000
N51	N5	0.128700	0.028300	0.161500
N61	N6	0.091800	0.971200	0.089900
N71	N7	0.850200	0.720600	0.849970
N81	N8	0.039900	0.529900	0.072100
N91	N9	0.348300	0.749900	0.845260
N101	N10	0.083800	0.472500	0.142000
N111	N11	0.371300	0.528300	0.661500
N121	N12	0.408200	0.471200	0.589900
O11	O1	0.476500	0.175100	0.401800
O21	O2	0.324500	0.204600	0.392800
O31	O3	0.267300	0.055400	0.557600
O41	O4	0.220000	0.994200	0.631600
O51	O5	0.068300	0.831000	0.773200
O61	O6	0.222200	0.822700	0.790200
O71	O7	0.473000	0.174000	0.295900
O81	O8	0.317500	0.198800	0.298100
O91	O9	0.324900	0.011800	0.147400
O101	O10	0.281100	0.933200	0.078400
O111	O11	0.226800	0.827900	0.892800
O121	O12	0.076900	0.848500	0.910300
O131	O13	0.445900	0.289600	0.346200
O141	O14	0.023500	0.675100	0.901800
O151	O15	0.175500	0.704600	0.892800
O161	O16	0.232700	0.555400	0.057600
O171	O17	0.280000	0.494200	0.131600
O181	O18	0.431700	0.331000	0.273200
O191	O19	0.277800	0.322700	0.290200
O201	O20	0.027000	0.674000	0.795900
O211	O21	0.182500	0.698800	0.798100
O221	O22	0.175100	0.511800	0.647400
O231	O23	0.218900	0.433200	0.578400
O241	O24	0.273200	0.327900	0.392800
O251	O25	0.423100	0.348500	0.410300
O261	O26	0.054100	0.789600	0.846200
Zn91	Zn9	0.798730	0.232080	0.157430
Zn101	Zn10	0.005600	0.285820	0.150380
Zn111	Zn11	0.833980	0.469580	0.891570
Zn121	Zn12	0.712500	0.530870	0.373140
Zn131	Zn13	0.701270	0.732080	0.657430
Zn141	Zn14	0.494400	0.785820	0.650380
Zn151	Zn15	0.666020	0.969580	0.391570
Zn161	Zn16	0.787500	0.030870	0.873140
H1291	H129	0.720100	0.331800	0.051400
H1301	H130	0.987500	0.387100	0.031900
H1311	H131	0.649500	0.376700	0.921600
H1321	H132	0.547900	0.354500	0.934000
H1331	H133	0.637000	0.315000	0.941400
H1341	H134	0.501600	0.340300	0.007600
H1351	H135	0.572000	0.355100	0.045100
H1361	H136	0.591800	0.301600	0.014800
H1371	H137	0.618900	0.466400	0.970500
H1381	H138	0.586800	0.455000	0.017700
H1391	H139	0.518400	0.439700	0.979500
H1401	H140	0.028300	0.447400	0.977700
H1411	H141	0.146300	0.472400	0.944400
H1421	H142	0.264900	0.516900	0.904900
H1431	H143	0.226300	0.566700	0.843300
H1441	H144	0.069000	0.572200	0.821200
H1451	H145	0.929400	0.584700	0.815000
H1461	H146	0.538600	0.600600	0.781200
H1471	H147	0.820700	0.623500	0.769200
H1481	H148	0.473600	0.448900	0.857300
H1491	H149	0.585100	0.450100	0.856300
H1501	H150	0.527300	0.453200	0.813500
H1511	H151	0.470000	0.532000	0.907100
H1521	H152	0.521300	0.590000	0.895100
H1531	H153	0.581400	0.535300	0.907300
H1541	H154	0.382000	0.532000	0.842000
H1551	H155	0.432700	0.537200	0.797600
H1561	H156	0.430500	0.590600	0.829300
H1571	H157	0.725000	0.371700	0.249800
H1581	H158	0.007000	0.385200	0.268400
H1591	H159	0.074400	0.536300	0.351500
H1601	H160	0.963600	0.538400	0.346100
H1611	H161	0.029200	0.533300	0.305600
H1621	H162	0.060400	0.448100	0.399900
H1631	H163	0.002400	0.393700	0.384100
H1641	H164	0.949500	0.451900	0.395500
H1651	H165	0.163700	0.443900	0.336200
H1661	H166	0.119800	0.444500	0.290100
H1671	H167	0.109700	0.389100	0.318300
H1681	H168	0.615600	0.410800	0.296200
H1691	H169	0.472100	0.431600	0.300100
H1701	H170	0.316100	0.439600	0.323600
H1711	H171	0.282500	0.487700	0.387700
H1721	H172	0.405000	0.527800	0.428200
H1731	H173	0.525600	0.543300	0.462700
H1741	H174	0.834200	0.652400	0.543600
H1751	H175	0.569400	0.592500	0.522600
H1761	H176	0.986600	0.669100	0.421700
H1771	H177	0.890900	0.698400	0.436000
H1781	H178	0.889200	0.641400	0.407900
H1791	H179	0.036200	0.574100	0.452100
H1801	H180	0.938200	0.545800	0.439800
H1811	H181	0.973800	0.545000	0.487400
H1821	H182	0.043400	0.666000	0.493000
H1831	H183	0.984700	0.636900	0.529600
H1841	H184	0.950700	0.695900	0.510400
H1851	H185	0.158200	0.229800	0.202800
H1861	H186	0.322700	0.222000	0.203800
H1871	H187	0.338600	0.319400	0.098400
H1881	H188	0.174100	0.327300	0.097400
H1891	H189	0.466500	0.260500	0.216500
H1901	H190	0.630400	0.249300	0.218800
H1911	H191	0.640500	0.253000	0.090300
H1921	H192	0.476500	0.264200	0.088000
H1931	H193	0.779900	0.831800	0.551400
H1941	H194	0.512500	0.887100	0.531900
H1951	H195	0.850500	0.876700	0.421600
H1961	H196	0.952100	0.854500	0.434000
H1971	H197	0.863000	0.815000	0.441400
H1981	H198	0.998400	0.840300	0.507600
H1991	H199	0.928000	0.855100	0.545100
H2001	H200	0.908200	0.801600	0.514800
H2011	H201	0.881100	0.966400	0.470500
H2021	H202	0.913200	0.955000	0.517700
H2031	H203	0.981600	0.939700	0.479500
H2041	H204	0.471700	0.947400	0.477700
H2051	H205	0.353700	0.972400	0.444400
H2061	H206	0.235100	0.016900	0.404900
H2071	H207	0.273700	0.066700	0.343300
H2081	H208	0.431000	0.072200	0.321200
H2091	H209	0.570600	0.084700	0.315000
H2101	H210	0.961400	0.100600	0.281200
H2111	H211	0.679300	0.123500	0.269200
H2121	H212	0.026400	0.948900	0.357300
H2131	H213	0.914900	0.950100	0.356300
H2141	H214	0.972700	0.953200	0.313500
H2151	H215	0.030000	0.032000	0.407100
H2161	H216	0.978700	0.090000	0.395100
H2171	H217	0.918600	0.035300	0.407300
H2181	H218	0.118000	0.032000	0.342000
H2191	H219	0.067300	0.037200	0.297600
H2201	H220	0.069500	0.090600	0.329300
H2211	H221	0.775000	0.871700	0.749800
H2221	H222	0.493000	0.885200	0.768400
H2231	H223	0.425600	0.036300	0.851500
H2241	H224	0.536400	0.038400	0.846100
H2251	H225	0.470800	0.033300	0.805600
H2261	H226	0.439600	0.948100	0.899900
H2271	H227	0.497600	0.893700	0.884100
H2281	H228	0.550500	0.951900	0.895500
H2291	H229	0.336300	0.943900	0.836200
H2301	H230	0.380200	0.944500	0.790100
H2311	H231	0.390300	0.889100	0.818300
H2321	H232	0.884400	0.910800	0.796200
H2331	H233	0.027900	0.931600	0.800100
H2341	H234	0.183900	0.939600	0.823600
H2351	H235	0.217500	0.987700	0.887700
H2361	H236	0.095000	0.027800	0.928200
H2371	H237	0.974400	0.043300	0.962700
H2381	H238	0.665800	0.152400	0.043600
H2391	H239	0.930600	0.092500	0.022600
H2401	H240	0.513400	0.169100	0.921700
H2411	H241	0.609100	0.198400	0.936000
H2421	H242	0.610800	0.141400	0.907900
H2431	H243	0.463800	0.074100	0.952100
H2441	H244	0.561800	0.045800	0.939800
H2451	H245	0.526200	0.045000	0.987400
H2461	H246	0.456600	0.166000	0.993000
H2471	H247	0.515300	0.136900	0.029600
H2481	H248	0.549300	0.195900	0.010400
H2491	H249	0.341800	0.729800	0.702800
H2501	H250	0.177300	0.722000	0.703800
H2511	H251	0.161400	0.819400	0.598400
H2521	H252	0.325900	0.827300	0.597400
H2531	H253	0.033500	0.760500	0.716500
H2541	H254	0.869600	0.749300	0.718800
H2551	H255	0.859500	0.753000	0.590300
H2561	H256	0.023500	0.764200	0.588000
C1411	C141	0.889400	0.323200	0.086800
C1421	C142	0.858700	0.354500	0.047620
C1431	C143	0.763700	0.352700	0.035400
C1441	C144	0.733900	0.382200	0.999300
C1451	C145	0.799100	0.413600	0.975400
C1461	C146	0.894100	0.415400	0.987700
C1471	C147	0.924000	0.385800	0.023800
C1481	C148	0.625800	0.380200	0.985800
C1491	C149	0.614000	0.354300	0.941700
C1501	C150	0.567100	0.340500	0.016300
C1511	C151	0.583600	0.440900	0.988600
C1521	C152	0.968800	0.445500	0.964700
C1531	C153	0.036600	0.495700	0.906400
C1541	C154	0.130800	0.492400	0.919700
C1551	C155	0.201900	0.519000	0.896000
C1561	C156	0.178700	0.548900	0.859100
C1571	C157	0.084500	0.552200	0.845900
C1581	C158	0.013500	0.525600	0.869500
C1591	C159	0.884800	0.562100	0.829100
C1601	C160	0.784700	0.568800	0.816600
C1611	C161	0.708000	0.543100	0.837060
C1621	C162	0.615700	0.555100	0.823800
C1631	C163	0.600300	0.592600	0.790000
C1641	C164	0.677100	0.618300	0.769590
C1651	C165	0.769300	0.606300	0.782880
C1661	C166	0.526500	0.529000	0.846900
C1671	C167	0.528300	0.464600	0.843200
C1681	C168	0.524700	0.548300	0.893300
C1691	C169	0.434600	0.549000	0.827100
C1701	C170	0.655200	0.657700	0.732800
C1711	C171	0.885100	0.330000	0.216900
C1721	C172	0.868600	0.372100	0.253510
C1731	C173	0.776200	0.387400	0.264880
C1741	C174	0.760500	0.426000	0.298800
C1751	C175	0.837100	0.449400	0.321280
C1761	C176	0.929400	0.434100	0.309900
C1771	C177	0.945200	0.395400	0.276000
C1781	C178	0.017300	0.454800	0.337300
C1791	C179	0.021600	0.522100	0.334900
C1801	C180	0.006400	0.435300	0.383500
C1811	C181	0.111500	0.430800	0.318700
C1821	C182	0.660100	0.434100	0.310200
C1831	C183	0.532100	0.474900	0.350100
C1841	C184	0.458700	0.450900	0.325780
C1851	C185	0.365200	0.455700	0.339900
C1861	C186	0.345100	0.484500	0.378200
C1871	C187	0.418500	0.508500	0.402500
C1881	C188	0.512000	0.503700	0.388500
C1891	C189	0.583900	0.548200	0.449100
C1901	C190	0.659300	0.577000	0.473200
C1911	C191	0.752400	0.584700	0.459370
C1921	C192	0.817900	0.612900	0.485700
C1931	C193	0.790300	0.633500	0.525920
C1941	C194	0.697200	0.625900	0.539740
C1951	C195	0.631700	0.597600	0.513400
C1961	C196	0.921800	0.626100	0.470500
C1971	C197	0.922200	0.662000	0.430300
C1981	C198	0.972300	0.567100	0.461600
C1991	C199	0.980600	0.659300	0.504000
C2001	C200	0.667200	0.651300	0.582400
C2011	C201	0.194400	0.247800	0.181910
C2021	C202	0.292900	0.243100	0.182500
C2031	C203	0.347000	0.269900	0.151200
C2041	C204	0.302500	0.301500	0.119340
C2051	C205	0.203900	0.306200	0.118750
C2061	C206	0.455300	0.263500	0.151990
C2071	C207	0.501400	0.259000	0.191160
C2081	C208	0.599600	0.252300	0.192540
C2091	C209	0.605600	0.254500	0.115560
C2101	C210	0.507400	0.261200	0.114180
C2111	C211	0.610600	0.823200	0.586800
C2121	C212	0.641300	0.854500	0.547620
C2131	C213	0.736300	0.852700	0.535400
C2141	C214	0.766100	0.882200	0.499300
C2151	C215	0.700900	0.913600	0.475400
C2161	C216	0.605900	0.915400	0.487700
C2171	C217	0.576000	0.885800	0.523800
C2181	C218	0.874200	0.880200	0.485800
C2191	C219	0.886000	0.854300	0.441700
C2201	C220	0.932900	0.840500	0.516300
C2211	C221	0.916400	0.940900	0.488600
C2221	C222	0.531200	0.945500	0.464700
C2231	C223	0.463400	0.995700	0.406400
C2241	C224	0.369200	0.992400	0.419700
C2251	C225	0.298100	0.019000	0.396000
C2261	C226	0.321300	0.048900	0.359100
C2271	C227	0.415500	0.052200	0.345900
C2281	C228	0.486500	0.025600	0.369500
C2291	C229	0.615200	0.062100	0.329100
C2301	C230	0.715300	0.068800	0.316600
C2311	C231	0.792000	0.043100	0.337060
C2321	C232	0.884300	0.055100	0.323800
C2331	C233	0.899700	0.092600	0.290000
C2341	C234	0.822900	0.118300	0.269590
C2351	C235	0.730700	0.106300	0.282880
C2361	C236	0.973500	0.029000	0.346900
C2371	C237	0.971700	0.964600	0.343200
C2381	C238	0.975300	0.048300	0.393300
C2391	C239	0.065400	0.049000	0.327100
C2401	C240	0.844800	0.157700	0.232800
C2411	C241	0.614900	0.830000	0.716900
C2421	C242	0.631400	0.872100	0.753510
C2431	C243	0.723800	0.887400	0.764880
C2441	C244	0.739500	0.926000	0.798800
C2451	C245	0.662900	0.949400	0.821280
C2461	C246	0.570600	0.934100	0.809900
C2471	C247	0.554800	0.895400	0.776000
C2481	C248	0.482700	0.954800	0.837300
C2491	C249	0.478400	0.022100	0.834900
C2501	C250	0.493600	0.935300	0.883500
C2511	C251	0.388500	0.930800	0.818700
C2521	C252	0.839900	0.934100	0.810200
C2531	C253	0.967900	0.974900	0.850100
C2541	C254	0.041300	0.950900	0.825780
C2551	C255	0.134800	0.955700	0.839900
C2561	C256	0.154900	0.984500	0.878200
C2571	C257	0.081500	0.008500	0.902500
C2581	C258	0.988000	0.003700	0.888500
C2591	C259	0.916100	0.048200	0.949100
C2601	C260	0.840700	0.077000	0.973200
C2611	C261	0.747600	0.084700	0.959370
C2621	C262	0.682100	0.112900	0.985700
C2631	C263	0.709700	0.133500	0.025920
C2641	C264	0.802800	0.125900	0.039740
C2651	C265	0.868300	0.097600	0.013400
C2661	C266	0.578200	0.126100	0.970500
C2671	C267	0.577800	0.162000	0.930300
C2681	C268	0.527700	0.067100	0.961600
C2691	C269	0.519400	0.159300	0.004000
C2701	C270	0.832800	0.151300	0.082400
C2711	C271	0.305600	0.747800	0.681910
C2721	C272	0.207100	0.743100	0.682500
C2731	C273	0.153000	0.769900	0.651200
C2741	C274	0.197500	0.801500	0.619340
C2751	C275	0.296100	0.806200	0.618750
C2761	C276	0.044700	0.763500	0.651990
C2771	C277	0.998600	0.759000	0.691160
C2781	C278	0.900400	0.752300	0.692540
C2791	C279	0.894400	0.754500	0.615560
C2801	C280	0.992600	0.761200	0.614180
N131	N13	0.149800	0.279400	0.150030
N141	N14	0.960100	0.470100	0.927900
N151	N15	0.651700	0.250100	0.154740
N161	N16	0.916200	0.527500	0.858000
N171	N17	0.628700	0.471700	0.338500
N181	N18	0.591800	0.528800	0.410100
N191	N19	0.350200	0.779400	0.650030
N201	N20	0.539900	0.970100	0.427900
N211	N21	0.848300	0.750100	0.654740
N221	N22	0.583800	0.027500	0.358000
N231	N23	0.871300	0.971700	0.838500
N241	N24	0.908200	0.028800	0.910100
O271	O27	0.976500	0.324900	0.098200
O281	O28	0.824500	0.295400	0.107200
O291	O29	0.767300	0.444600	0.942400
O301	O30	0.720000	0.505800	0.868400
O311	O31	0.568300	0.669000	0.726800
O321	O32	0.722200	0.677300	0.709800
O331	O33	0.973000	0.326000	0.204100
O341	O34	0.817500	0.301200	0.201900
O351	O35	0.824900	0.488200	0.352600
O361	O36	0.781100	0.566800	0.421600
O371	O37	0.726800	0.672100	0.607200
O381	O38	0.576900	0.651500	0.589700
O391	O39	0.945900	0.210400	0.153800
O401	O40	0.523500	0.824900	0.598200
O411	O41	0.675500	0.795400	0.607200
O421	O42	0.732700	0.944600	0.442400
O431	O43	0.780000	0.005800	0.368400
O441	O44	0.931700	0.169000	0.226800
O451	O45	0.777800	0.177300	0.209800
O461	O46	0.527000	0.826000	0.704100
O471	O47	0.682500	0.801200	0.701900
O481	O48	0.675100	0.988200	0.852600
O491	O49	0.718900	0.066800	0.921600
O501	O50	0.773200	0.172100	0.107200
O511	O51	0.923100	0.151500	0.089700
O521	O52	0.554100	0.710400	0.653800
