data_CAVPIA_manual_PM
_symmetry_space_group_name_H-M	'P1'
_cell_length_a	27.449000
_cell_length_b	27.449000
_cell_length_c	27.449000
_cell_angle_alpha	90.000000
_cell_angle_beta	90.000000
_cell_angle_gamma	90.000000
_symmetry_Int_Tables_number 1

loop_
_symmetry_equiv_pos_as_xyz
'x,y,z'

loop_
_atom_site_label
_atom_site_type_symbol
_atom_site_fract_x
_atom_site_fract_y
_atom_site_fract_z
Cu11	Cu1	0.000000	0.500000	0.701120
Cu21	Cu2	0.000000	0.500000	0.298880
Cu31	Cu3	0.701120	0.000000	0.500000
Cu41	Cu4	0.298880	0.000000	0.500000
Cu51	Cu5	0.500000	0.701130	0.000000
Cu61	Cu6	0.500000	0.298870	0.000000
Cu71	Cu7	0.000000	0.500000	0.798880
Cu81	Cu8	0.000000	0.500000	0.201120
Cu91	Cu9	0.500000	0.201120	0.000000
Cu101	Cu10	0.500000	0.798880	0.000000
Cu111	Cu11	0.201130	0.000000	0.500000
Cu121	Cu12	0.798870	0.000000	0.500000
H11	H1	0.102780	0.388630	0.828440
H21	H2	0.165160	0.325310	0.828370
H31	H3	0.897220	0.611370	0.828440
H41	H4	0.834840	0.674690	0.828370
H51	H5	0.897220	0.388630	0.171560
H61	H6	0.834840	0.325310	0.171630
H71	H7	0.102780	0.611370	0.171560
H81	H8	0.165160	0.674690	0.171630
H91	H9	0.829570	0.103340	0.388480
H101	H10	0.829000	0.165420	0.324860
H111	H11	0.829570	0.896660	0.611520
H121	H12	0.829000	0.834580	0.675140
H131	H13	0.170430	0.896660	0.388480
H141	H14	0.171000	0.834580	0.324860
H151	H15	0.170430	0.103340	0.611520
H161	H16	0.171000	0.165420	0.675140
H171	H17	0.388790	0.827310	0.102560
H181	H18	0.325740	0.827750	0.165190
H191	H19	0.574140	0.624550	0.021070
H201	H20	0.575360	0.535240	0.023070
H211	H21	0.611210	0.827310	0.897440
H221	H22	0.674260	0.827750	0.834810
H231	H23	0.425860	0.624550	0.978930
H241	H24	0.424640	0.535240	0.976930
H251	H25	0.388790	0.172690	0.897440
H261	H26	0.325740	0.172250	0.834810
H271	H27	0.574140	0.375450	0.978930
H281	H28	0.575360	0.464760	0.976930
H291	H29	0.611210	0.172690	0.102560
H301	H30	0.674260	0.172250	0.165190
H311	H31	0.425860	0.375450	0.021070
H321	H32	0.424640	0.464760	0.023070
H331	H33	0.888630	0.602780	0.671560
H341	H34	0.825310	0.665160	0.671630
H351	H35	0.111370	0.397220	0.671560
H361	H36	0.174690	0.334840	0.671630
H371	H37	0.888630	0.397220	0.328440
H381	H38	0.825310	0.334840	0.328370
H391	H39	0.111370	0.602780	0.328440
H401	H40	0.174690	0.665160	0.328370
H411	H41	0.603340	0.329570	0.111520
H421	H42	0.665420	0.329000	0.175140
H431	H43	0.396660	0.329570	0.888480
H441	H44	0.334580	0.329000	0.824860
H451	H45	0.396660	0.670430	0.111520
H461	H46	0.334580	0.671000	0.175140
H471	H47	0.603340	0.670430	0.888480
H481	H48	0.665420	0.671000	0.824860
H491	H49	0.327310	0.888790	0.397440
H501	H50	0.327750	0.825740	0.334810
H511	H51	0.124550	0.074140	0.478930
H521	H52	0.035240	0.075360	0.476930
H531	H53	0.327310	0.111210	0.602560
H541	H54	0.327750	0.174260	0.665190
H551	H55	0.124550	0.925860	0.521070
H561	H56	0.035240	0.924640	0.523070
H571	H57	0.672690	0.888790	0.602560
H581	H58	0.672250	0.825740	0.665190
H591	H59	0.875450	0.074140	0.521070
H601	H60	0.964760	0.075360	0.523070
H611	H61	0.672690	0.111210	0.397440
H621	H62	0.672250	0.174260	0.334810
H631	H63	0.875450	0.925860	0.478930
H641	H64	0.964760	0.924640	0.476930
H651	H65	0.896870	0.611250	0.171550
H661	H66	0.834540	0.674610	0.171610
H671	H67	0.979930	0.425570	0.375470
H681	H68	0.977680	0.424390	0.464680
H691	H69	0.103130	0.388750	0.171550
H701	H70	0.165460	0.325390	0.171610
H711	H71	0.020070	0.574430	0.375470
H721	H72	0.022320	0.575610	0.464680
H731	H73	0.103130	0.611250	0.828450
H741	H74	0.165460	0.674610	0.828390
H751	H75	0.020070	0.425570	0.624530
H761	H76	0.022320	0.424390	0.535320
H771	H77	0.896870	0.388750	0.828450
H781	H78	0.834540	0.325390	0.828390
H791	H79	0.979930	0.574430	0.624530
H801	H80	0.977680	0.575610	0.535320
H811	H81	0.172680	0.897460	0.611110
H821	H82	0.172250	0.834840	0.674160
H831	H83	0.375450	0.978930	0.425860
H841	H84	0.464760	0.976930	0.424640
H851	H85	0.172680	0.102540	0.388890
H861	H86	0.172250	0.165160	0.325840
H871	H87	0.375450	0.021070	0.574140
H881	H88	0.464760	0.023070	0.575360
H891	H89	0.827320	0.102540	0.611110
H901	H90	0.827750	0.165160	0.674160
H911	H91	0.624550	0.021070	0.425860
H921	H92	0.535240	0.023070	0.424640
H931	H93	0.827320	0.897460	0.388890
H941	H94	0.827750	0.834840	0.325840
H951	H95	0.624550	0.978930	0.574140
H961	H96	0.535240	0.976930	0.575360
H971	H97	0.611400	0.170420	0.896670
H981	H98	0.675020	0.170980	0.834590
H991	H99	0.388600	0.170420	0.103330
H1001	H100	0.324980	0.170980	0.165410
H1011	H101	0.611400	0.829580	0.103330
H1021	H102	0.675020	0.829020	0.165410
H1031	H103	0.388600	0.829580	0.896670
H1041	H104	0.324980	0.829020	0.834590
H1051	H105	0.111250	0.396870	0.328450
H1061	H106	0.174610	0.334540	0.328390
H1071	H107	0.925570	0.479930	0.124530
H1081	H108	0.924390	0.477680	0.035320
H1091	H109	0.888750	0.603130	0.328450
H1101	H110	0.825390	0.665460	0.328390
H1111	H111	0.074430	0.520070	0.124530
H1121	H112	0.075610	0.522320	0.035320
H1131	H113	0.111250	0.603130	0.671550
H1141	H114	0.174610	0.665460	0.671610
H1151	H115	0.925570	0.520070	0.875470
H1161	H116	0.924390	0.522320	0.964680
H1171	H117	0.888750	0.396870	0.671550
H1181	H118	0.825390	0.334540	0.671610
H1191	H119	0.074430	0.479930	0.875470
H1201	H120	0.075610	0.477680	0.964680
H1211	H121	0.397460	0.672680	0.888890
H1221	H122	0.334840	0.672250	0.825840
H1231	H123	0.478930	0.875450	0.074140
H1241	H124	0.476930	0.964760	0.075360
H1251	H125	0.602540	0.672680	0.111110
H1261	H126	0.665160	0.672250	0.174160
H1271	H127	0.521070	0.875450	0.925860
H1281	H128	0.523070	0.964760	0.924640
H1291	H129	0.602540	0.327320	0.888890
H1301	H130	0.665160	0.327750	0.825840
H1311	H131	0.521070	0.124550	0.074140
H1321	H132	0.523070	0.035240	0.075360
H1331	H133	0.397460	0.327320	0.111110
H1341	H134	0.334840	0.327750	0.174160
H1351	H135	0.478930	0.124550	0.925860
H1361	H136	0.476930	0.035240	0.924640
H1371	H137	0.670420	0.111400	0.603330
H1381	H138	0.670980	0.175020	0.665410
H1391	H139	0.670420	0.888600	0.396670
H1401	H140	0.670980	0.824980	0.334590
H1411	H141	0.329580	0.111400	0.396670
H1421	H142	0.329020	0.175020	0.334590
H1431	H143	0.329580	0.888600	0.603330
H1441	H144	0.329020	0.824980	0.665410
H1451	H145	0.250060	0.314300	0.813690
H1461	H146	0.749940	0.685700	0.813690
H1471	H147	0.749940	0.314300	0.186310
H1481	H148	0.250060	0.685700	0.186310
H1491	H149	0.814300	0.249940	0.313690
H1501	H150	0.814300	0.750060	0.686310
H1511	H151	0.185700	0.750060	0.313690
H1521	H152	0.185700	0.249940	0.686310
H1531	H153	0.313820	0.813820	0.250000
H1541	H154	0.686180	0.813820	0.750000
H1551	H155	0.313820	0.186180	0.750000
H1561	H156	0.686180	0.186180	0.250000
H1571	H157	0.750040	0.686440	0.185820
H1581	H158	0.249960	0.313560	0.185820
H1591	H159	0.249960	0.686440	0.814180
H1601	H160	0.750040	0.313560	0.814180
H1611	H161	0.186440	0.749960	0.685820
H1621	H162	0.186440	0.250040	0.314180
H1631	H163	0.813560	0.250040	0.685820
H1641	H164	0.813560	0.749960	0.314180
H1651	H165	0.685930	0.185930	0.750000
H1661	H166	0.314070	0.185930	0.250000
H1671	H167	0.685930	0.814070	0.250000
H1681	H168	0.314070	0.814070	0.750000
C11	C1	0.118150	0.377190	0.793950
C21	C2	0.154150	0.341090	0.793940
C31	C3	0.881850	0.622810	0.793950
C41	C4	0.845850	0.658910	0.793940
C51	C5	0.881850	0.377190	0.206050
C61	C6	0.845850	0.341090	0.206060
C71	C7	0.118150	0.622810	0.206050
C81	C8	0.154150	0.658910	0.206060
C91	C9	0.794970	0.118510	0.377080
C101	C10	0.794660	0.154330	0.340780
C111	C11	0.794970	0.881490	0.622920
C121	C12	0.794660	0.845670	0.659220
C131	C13	0.205030	0.881490	0.377080
C141	C14	0.205340	0.845670	0.340780
C151	C15	0.205030	0.118510	0.622920
C161	C16	0.205340	0.154330	0.659220
C171	C17	0.377250	0.792910	0.118060
C181	C18	0.341300	0.793200	0.154240
C191	C19	0.541460	0.604580	0.011840
C201	C20	0.542170	0.553630	0.012390
C211	C21	0.622750	0.792910	0.881940
C221	C22	0.658700	0.793200	0.845760
C231	C23	0.458540	0.604580	0.988160
C241	C24	0.457830	0.553630	0.987610
C251	C25	0.377250	0.207090	0.881940
C261	C26	0.341300	0.206800	0.845760
C271	C27	0.541460	0.395420	0.988160
C281	C28	0.542170	0.446370	0.987610
C291	C29	0.622750	0.207090	0.118060
C301	C30	0.658700	0.206800	0.154240
C311	C31	0.458540	0.395420	0.011840
C321	C32	0.457830	0.446370	0.012390
C331	C33	0.877190	0.618150	0.706050
C341	C34	0.841090	0.654150	0.706060
C351	C35	0.122810	0.381850	0.706050
C361	C36	0.158910	0.345850	0.706060
C371	C37	0.877190	0.381850	0.293950
C381	C38	0.841090	0.345850	0.293940
C391	C39	0.122810	0.618150	0.293950
C401	C40	0.158910	0.654150	0.293940
C411	C41	0.618510	0.294970	0.122920
C421	C42	0.654330	0.294660	0.159220
C431	C43	0.381490	0.294970	0.877080
C441	C44	0.345670	0.294660	0.840780
C451	C45	0.381490	0.705030	0.122920
C461	C46	0.345670	0.705340	0.159220
C471	C47	0.618510	0.705030	0.877080
C481	C48	0.654330	0.705340	0.840780
C491	C49	0.292910	0.877250	0.381940
C501	C50	0.293200	0.841300	0.345760
C511	C51	0.104580	0.041460	0.488160
C521	C52	0.053630	0.042170	0.487610
C531	C53	0.292910	0.122750	0.618060
C541	C54	0.293200	0.158700	0.654240
C551	C55	0.104580	0.958540	0.511840
C561	C56	0.053630	0.957830	0.512390
C571	C57	0.707090	0.877250	0.618060
C581	C58	0.706800	0.841300	0.654240
C591	C59	0.895420	0.041460	0.511840
C601	C60	0.946370	0.042170	0.512390
C611	C61	0.707090	0.122750	0.381940
C621	C62	0.706800	0.158700	0.345760
C631	C63	0.895420	0.958540	0.488160
C641	C64	0.946370	0.957830	0.487610
C651	C65	0.881600	0.622780	0.206050
C661	C66	0.845600	0.658920	0.206060
C671	C67	0.988700	0.458390	0.395420
C681	C68	0.988060	0.457700	0.446340
C691	C69	0.118400	0.377220	0.206050
C701	C70	0.154400	0.341080	0.206060
C711	C71	0.011300	0.541610	0.395410
C721	C72	0.011940	0.542300	0.446340
C731	C73	0.118400	0.622780	0.793950
C741	C74	0.154400	0.658920	0.793940
C751	C75	0.011300	0.458390	0.604580
C761	C76	0.011940	0.457700	0.553660
C771	C77	0.881600	0.377220	0.793950
C781	C78	0.845600	0.341080	0.793940
C791	C79	0.988700	0.541610	0.604590
C801	C80	0.988060	0.542300	0.553660
C811	C81	0.207090	0.881990	0.622670
C821	C82	0.206800	0.845820	0.658610
C831	C83	0.395420	0.988160	0.458540
C841	C84	0.446370	0.987600	0.457830
C851	C85	0.207090	0.118010	0.377330
C861	C86	0.206800	0.154180	0.341390
C871	C87	0.395420	0.011840	0.541460
C881	C88	0.446370	0.012400	0.542170
C891	C89	0.792910	0.118010	0.622670
C901	C90	0.793200	0.154180	0.658610
C911	C91	0.604580	0.011840	0.458540
C921	C92	0.553630	0.012400	0.457830
C931	C93	0.792910	0.881990	0.377330
C941	C94	0.793200	0.845820	0.341390
C951	C95	0.604580	0.988160	0.541460
C961	C96	0.553630	0.987600	0.542170
C971	C97	0.622820	0.205010	0.881530
C981	C98	0.659120	0.205320	0.845710
C991	C99	0.377180	0.205010	0.118470
C1001	C100	0.340880	0.205320	0.154290
C1011	C101	0.622820	0.794990	0.118470
C1021	C102	0.659120	0.794680	0.154290
C1031	C103	0.377180	0.794990	0.881530
C1041	C104	0.340880	0.794680	0.845710
C1051	C105	0.122780	0.381600	0.293950
C1061	C106	0.158920	0.345600	0.293940
C1071	C107	0.958390	0.488700	0.104580
C1081	C108	0.957700	0.488060	0.053660
C1091	C109	0.877220	0.618400	0.293950
C1101	C110	0.841080	0.654400	0.293940
C1111	C111	0.041610	0.511300	0.104590
C1121	C112	0.042300	0.511940	0.053660
C1131	C113	0.122780	0.618400	0.706050
C1141	C114	0.158920	0.654400	0.706060
C1151	C115	0.958390	0.511300	0.895410
C1161	C116	0.957700	0.511940	0.946340
C1171	C117	0.877220	0.381600	0.706050
C1181	C118	0.841080	0.345600	0.706060
C1191	C119	0.041610	0.488700	0.895420
C1201	C120	0.042300	0.488060	0.946340
C1211	C121	0.381990	0.707090	0.877330
C1221	C122	0.345820	0.706800	0.841390
C1231	C123	0.488160	0.895420	0.041460
C1241	C124	0.487600	0.946370	0.042170
C1251	C125	0.618010	0.707090	0.122670
C1261	C126	0.654180	0.706800	0.158610
C1271	C127	0.511840	0.895420	0.958540
C1281	C128	0.512400	0.946370	0.957830
C1291	C129	0.618010	0.292910	0.877330
C1301	C130	0.654180	0.293200	0.841390
C1311	C131	0.511840	0.104580	0.041460
C1321	C132	0.512400	0.053630	0.042170
C1331	C133	0.381990	0.292910	0.122670
C1341	C134	0.345820	0.293200	0.158610
C1351	C135	0.488160	0.104580	0.958540
C1361	C136	0.487600	0.053630	0.957830
C1371	C137	0.705010	0.122820	0.618470
C1381	C138	0.705320	0.159120	0.654290
C1391	C139	0.705010	0.877180	0.381530
C1401	C140	0.705320	0.840880	0.345710
C1411	C141	0.294990	0.122820	0.381530
C1421	C142	0.294680	0.159120	0.345710
C1431	C143	0.294990	0.877180	0.618470
C1441	C144	0.294680	0.840880	0.654290
C1451	C145	0.000000	0.500000	0.527250
C1461	C146	0.000000	0.500000	0.472750
C1471	C147	0.527240	0.000000	0.500000
C1481	C148	0.472760	0.000000	0.500000
C1491	C149	0.500000	0.527240	0.000000
C1501	C150	0.500000	0.472760	0.000000
C1511	C151	0.000000	0.500000	0.972750
C1521	C152	0.000000	0.500000	0.027250
C1531	C153	0.500000	0.027240	0.000000
C1541	C154	0.500000	0.972760	0.000000
C1551	C155	0.027240	0.000000	0.500000
C1561	C156	0.972760	0.000000	0.500000
C1571	C157	0.063770	0.436230	0.750000
C1581	C158	0.102010	0.397990	0.750000
C1591	C159	0.175030	0.324970	0.750000
C1601	C160	0.213450	0.286550	0.750000
C1611	C161	0.936230	0.563770	0.750000
C1621	C162	0.897990	0.602010	0.750000
C1631	C163	0.824970	0.675030	0.750000
C1641	C164	0.786550	0.713450	0.750000
C1651	C165	0.936230	0.436230	0.250000
C1661	C166	0.897990	0.397990	0.250000
C1671	C167	0.824970	0.324970	0.250000
C1681	C168	0.786550	0.286550	0.250000
C1691	C169	0.063770	0.563770	0.250000
C1701	C170	0.102010	0.602010	0.250000
C1711	C171	0.175030	0.675030	0.250000
C1721	C172	0.213450	0.713450	0.250000
C1731	C173	0.751400	0.064060	0.436460
C1741	C174	0.751190	0.102260	0.398110
C1751	C175	0.750580	0.174980	0.324680
C1761	C176	0.750310	0.213510	0.286300
C1771	C177	0.751400	0.935940	0.563540
C1781	C178	0.751190	0.897740	0.601890
C1791	C179	0.750580	0.825020	0.675320
C1801	C180	0.750310	0.786490	0.713700
C1811	C181	0.248600	0.935940	0.436460
C1821	C182	0.248810	0.897740	0.398110
C1831	C183	0.249420	0.825020	0.324680
C1841	C184	0.249690	0.786490	0.286300
C1851	C185	0.248600	0.064060	0.563540
C1861	C186	0.248810	0.102260	0.601890
C1871	C187	0.249420	0.174980	0.675320
C1881	C188	0.249690	0.213510	0.713700
C1891	C189	0.435940	0.748600	0.063540
C1901	C190	0.397740	0.748810	0.101890
C1911	C191	0.325020	0.749420	0.175320
C1921	C192	0.286490	0.749690	0.213700
C1931	C193	0.564060	0.748600	0.936460
C1941	C194	0.602260	0.748810	0.898110
C1951	C195	0.674980	0.749420	0.824680
C1961	C196	0.713510	0.749690	0.786300
C1971	C197	0.435940	0.251400	0.936460
C1981	C198	0.397740	0.251190	0.898110
C1991	C199	0.325020	0.250580	0.824680
C2001	C200	0.286490	0.250310	0.786300
C2011	C201	0.564060	0.251400	0.063540
C2021	C202	0.602260	0.251190	0.101890
C2031	C203	0.674980	0.250580	0.175320
C2041	C204	0.713510	0.250310	0.213700
C2051	C205	0.936190	0.563810	0.250000
C2061	C206	0.897900	0.602100	0.250000
C2071	C207	0.824800	0.675200	0.250000
C2081	C208	0.786330	0.713670	0.250000
C2091	C209	0.063810	0.436190	0.250000
C2101	C210	0.102100	0.397900	0.250000
C2111	C211	0.175200	0.324800	0.250000
C2121	C212	0.213670	0.286330	0.250000
C2131	C213	0.063810	0.563810	0.750000
C2141	C214	0.102100	0.602100	0.750000
C2151	C215	0.175200	0.675200	0.750000
C2161	C216	0.213670	0.713670	0.750000
C2171	C217	0.936190	0.436190	0.750000
C2181	C218	0.897900	0.397900	0.750000
C2191	C219	0.824800	0.324800	0.750000
C2201	C220	0.786330	0.286330	0.750000
C2211	C221	0.251410	0.936490	0.564030
C2221	C222	0.251190	0.898160	0.602210
C2231	C223	0.250590	0.824770	0.674900
C2241	C224	0.250320	0.786420	0.713400
C2251	C225	0.251410	0.063510	0.435970
C2261	C226	0.251190	0.101840	0.397790
C2271	C227	0.250590	0.175230	0.325100
C2281	C228	0.250320	0.213580	0.286600
C2291	C229	0.748590	0.063510	0.564030
C2301	C230	0.748810	0.101840	0.602210
C2311	C231	0.749410	0.175230	0.674900
C2321	C232	0.749680	0.213580	0.713400
C2331	C233	0.748590	0.936490	0.435970
C2341	C234	0.748810	0.898160	0.397790
C2351	C235	0.749410	0.824770	0.325100
C2361	C236	0.749680	0.786420	0.286600
C2371	C237	0.563510	0.248590	0.935970
C2381	C238	0.601840	0.248810	0.897790
C2391	C239	0.675230	0.249410	0.825100
C2401	C240	0.713580	0.249680	0.786600
C2411	C241	0.436490	0.248590	0.064030
C2421	C242	0.398160	0.248810	0.102210
C2431	C243	0.324770	0.249410	0.174900
C2441	C244	0.286420	0.249680	0.213400
C2451	C245	0.563510	0.751410	0.064030
C2461	C246	0.601840	0.751190	0.102210
C2471	C247	0.675230	0.750590	0.174900
C2481	C248	0.713580	0.750320	0.213400
C2491	C249	0.436490	0.751410	0.935970
C2501	C250	0.398160	0.751190	0.897790
C2511	C251	0.324770	0.750590	0.825100
C2521	C252	0.286420	0.750320	0.786600
C2531	C253	0.250010	0.286310	0.785900
C2541	C254	0.749990	0.713690	0.785900
C2551	C255	0.749990	0.286310	0.214100
C2561	C256	0.250010	0.713690	0.214100
C2571	C257	0.786310	0.249990	0.285900
C2581	C258	0.786310	0.750010	0.714100
C2591	C259	0.213690	0.750010	0.285900
C2601	C260	0.213690	0.249990	0.714100
C2611	C261	0.285940	0.785940	0.250000
C2621	C262	0.714060	0.785940	0.750000
C2631	C263	0.285940	0.214060	0.750000
C2641	C264	0.714060	0.214060	0.250000
C2651	C265	0.750000	0.714220	0.213810
C2661	C266	0.250000	0.285780	0.213810
C2671	C267	0.250000	0.714220	0.786190
C2681	C268	0.750000	0.285780	0.786190
C2691	C269	0.214220	0.750000	0.713810
C2701	C270	0.214220	0.250000	0.286190
C2711	C271	0.785780	0.250000	0.713810
C2721	C272	0.785780	0.750000	0.286190
C2731	C273	0.713820	0.213820	0.750000
C2741	C274	0.286180	0.213820	0.250000
C2751	C275	0.713820	0.786180	0.250000
C2761	C276	0.286180	0.786180	0.750000
N11	N1	0.000000	0.500000	0.629080
N21	N2	0.000000	0.500000	0.370920
N31	N3	0.629070	0.000000	0.500000
N41	N4	0.370930	0.000000	0.500000
N51	N5	0.500000	0.629070	0.000000
N61	N6	0.500000	0.370930	0.000000
N71	N7	0.000000	0.500000	0.870920
N81	N8	0.000000	0.500000	0.129080
N91	N9	0.500000	0.129070	0.000000
N101	N10	0.500000	0.870930	0.000000
N111	N11	0.129070	0.000000	0.500000
N121	N12	0.870930	0.000000	0.500000
O11	O1	0.048040	0.453060	0.709890
O21	O2	0.951960	0.546940	0.709890
O31	O3	0.951960	0.453060	0.290110
O41	O4	0.048040	0.546940	0.290110
O51	O5	0.711250	0.047830	0.452870
O61	O6	0.711250	0.952170	0.547130
O71	O7	0.288750	0.952170	0.452870
O81	O8	0.288750	0.047830	0.547130
O91	O9	0.452310	0.708410	0.047400
O101	O10	0.547690	0.708410	0.952600
O111	O11	0.452310	0.291590	0.952600
O121	O12	0.547690	0.291590	0.047400
O131	O13	0.953060	0.548040	0.790110
O141	O14	0.046940	0.451960	0.790110
O151	O15	0.953060	0.451960	0.209890
O161	O16	0.046940	0.548040	0.209890
O171	O17	0.547830	0.211250	0.047130
O181	O18	0.452170	0.211250	0.952870
O191	O19	0.452170	0.788750	0.047130
O201	O20	0.547830	0.788750	0.952870
O211	O21	0.208410	0.952310	0.452600
O221	O22	0.208410	0.047690	0.547400
O231	O23	0.791590	0.952310	0.547400
O241	O24	0.791590	0.047690	0.452600
O251	O25	0.952800	0.547850	0.290200
O261	O26	0.047200	0.452150	0.290200
O271	O27	0.047200	0.547850	0.709800
O281	O28	0.952800	0.452150	0.709800
O291	O29	0.291590	0.952630	0.547680
O301	O30	0.291590	0.047370	0.452320
O311	O31	0.708410	0.047370	0.547680
O321	O32	0.708410	0.952630	0.452320
O331	O33	0.547110	0.288740	0.952200
O341	O34	0.452890	0.288740	0.047800
O351	O35	0.547110	0.711260	0.047800
O361	O36	0.452890	0.711260	0.952200
O371	O37	0.047850	0.452800	0.209800
O381	O38	0.952150	0.547200	0.209800
O391	O39	0.047850	0.547200	0.790200
O401	O40	0.952150	0.452800	0.790200
O411	O41	0.452630	0.791590	0.952320
O421	O42	0.547370	0.791590	0.047680
O431	O43	0.547370	0.208410	0.952320
O441	O44	0.452630	0.208410	0.047680
O451	O45	0.788740	0.047110	0.547800
O461	O46	0.788740	0.952890	0.452200
O471	O47	0.211260	0.047110	0.452200
O481	O48	0.211260	0.952890	0.547800
