data_CAWDOU01_charged_PM
_symmetry_space_group_name_H-M	'P1'
_cell_length_a	13.905000
_cell_length_b	16.403000
_cell_length_c	16.403000
_cell_angle_alpha	90.000000
_cell_angle_beta	90.000000
_cell_angle_gamma	90.000000
_symmetry_Int_Tables_number 1

loop_
_symmetry_equiv_pos_as_xyz
'x,y,z'

loop_
_atom_site_label
_atom_site_type_symbol
_atom_site_fract_x
_atom_site_fract_y
_atom_site_fract_z
Cu11	Cu1	0.500000	0.682590	0.682590
Cu21	Cu2	0.000000	0.317410	0.317410
Cu31	Cu3	0.250000	0.817410	0.182590
Cu41	Cu4	0.750000	0.182590	0.817410
H11	H1	0.475000	0.556000	0.615000
H21	H2	0.669700	0.666300	0.580500
H31	H3	0.771800	0.737400	0.501600
H41	H4	0.617700	0.938500	0.549400
H51	H5	0.519300	0.860700	0.626900
H61	H6	0.975500	0.772300	0.363900
H71	H7	0.354900	0.786800	0.757600
H81	H8	0.382700	0.718000	0.532200
H91	H9	0.997600	0.003400	0.289300
H101	H10	0.975000	0.444000	0.385000
H111	H11	0.169700	0.333700	0.419500
H121	H12	0.271800	0.262600	0.498400
H131	H13	0.117700	0.061500	0.450600
H141	H14	0.019300	0.139300	0.373100
H151	H15	0.475500	0.227700	0.636100
H161	H16	0.854900	0.213200	0.242400
H171	H17	0.882700	0.282000	0.467800
H181	H18	0.497600	0.996600	0.710700
H191	H19	0.225000	0.885000	0.056000
H201	H20	0.419700	0.919500	0.166300
H211	H21	0.521800	0.998400	0.237400
H221	H22	0.367700	0.950600	0.438500
H231	H23	0.269300	0.873100	0.360700
H241	H24	0.725500	0.136100	0.272300
H251	H25	0.104900	0.742400	0.286800
H261	H26	0.132700	0.967800	0.218000
H271	H27	0.747600	0.210700	0.503400
H281	H28	0.725000	0.115000	0.944000
H291	H29	0.919700	0.080500	0.833700
H301	H30	0.021800	0.001600	0.762600
H311	H31	0.867700	0.049400	0.561500
H321	H32	0.769300	0.126900	0.639300
H331	H33	0.225500	0.863900	0.727700
H341	H34	0.604900	0.257600	0.713200
H351	H35	0.632700	0.032200	0.782000
H361	H36	0.247600	0.789300	0.496600
H371	H37	0.275000	0.944000	0.115000
H381	H38	0.080300	0.833700	0.080500
H391	H39	0.978200	0.762600	0.001600
H401	H40	0.132300	0.561500	0.049400
H411	H41	0.230700	0.639300	0.126900
H421	H42	0.774500	0.727700	0.863900
H431	H43	0.395100	0.713200	0.257600
H441	H44	0.367300	0.782000	0.032200
H451	H45	0.752400	0.496600	0.789300
H461	H46	0.775000	0.056000	0.885000
H471	H47	0.580300	0.166300	0.919500
H481	H48	0.478200	0.237400	0.998400
H491	H49	0.632300	0.438500	0.950600
H501	H50	0.730700	0.360700	0.873100
H511	H51	0.274500	0.272300	0.136100
H521	H52	0.895100	0.286800	0.742400
H531	H53	0.867300	0.218000	0.967800
H541	H54	0.252400	0.503400	0.210700
H551	H55	0.525000	0.615000	0.556000
H561	H56	0.330300	0.580500	0.666300
H571	H57	0.228200	0.501600	0.737400
H581	H58	0.382300	0.549400	0.938500
H591	H59	0.480700	0.626900	0.860700
H601	H60	0.024500	0.363900	0.772300
H611	H61	0.645100	0.757600	0.786800
H621	H62	0.617300	0.532200	0.718000
H631	H63	0.002400	0.289300	0.003400
H641	H64	0.025000	0.385000	0.444000
H651	H65	0.830300	0.419500	0.333700
H661	H66	0.728200	0.498400	0.262600
H671	H67	0.882300	0.450600	0.061500
H681	H68	0.980700	0.373100	0.139300
H691	H69	0.524500	0.636100	0.227700
H701	H70	0.145100	0.242400	0.213200
H711	H71	0.117300	0.467800	0.282000
H721	H72	0.502400	0.710700	0.996600
C11	C1	0.659900	0.722000	0.573800
C21	C2	0.720700	0.764000	0.526700
C31	C3	0.708000	0.847000	0.515100
C41	C4	0.629500	0.882900	0.554900
C51	C5	0.571500	0.836300	0.601200
C61	C6	0.770300	0.894100	0.462800
C71	C7	0.887500	0.913500	0.382700
C81	C8	0.972000	0.893700	0.336100
C91	C9	0.006100	0.813100	0.334300
C101	C10	0.334300	0.788600	0.703700
C111	C11	0.350400	0.747400	0.572100
C121	C12	0.019500	0.949800	0.291000
C131	C13	0.159900	0.278000	0.426200
C141	C14	0.220700	0.236000	0.473300
C151	C15	0.208000	0.153000	0.484900
C161	C16	0.129500	0.117100	0.445100
C171	C17	0.071500	0.163700	0.398800
C181	C18	0.270300	0.105900	0.537200
C191	C19	0.387500	0.086500	0.617300
C201	C20	0.472000	0.106300	0.663900
C211	C21	0.506100	0.186900	0.665700
C221	C22	0.834300	0.211400	0.296300
C231	C23	0.850400	0.252600	0.427900
C241	C24	0.519500	0.050200	0.709000
C251	C25	0.409900	0.926200	0.222000
C261	C26	0.470700	0.973300	0.264000
C271	C27	0.458000	0.984900	0.347000
C281	C28	0.379500	0.945100	0.382900
C291	C29	0.321500	0.898800	0.336300
C301	C30	0.520300	0.037200	0.394100
C311	C31	0.637500	0.117300	0.413500
C321	C32	0.722000	0.163900	0.393700
C331	C33	0.756100	0.165700	0.313100
C341	C34	0.084300	0.796300	0.288600
C351	C35	0.100400	0.927900	0.247400
C361	C36	0.769500	0.209000	0.449800
C371	C37	0.909900	0.073800	0.778000
C381	C38	0.970700	0.026700	0.736000
C391	C39	0.958000	0.015100	0.653000
C401	C40	0.879500	0.054900	0.617100
C411	C41	0.821500	0.101200	0.663700
C421	C42	0.020300	0.962800	0.605900
C431	C43	0.137500	0.882700	0.586500
C441	C44	0.222000	0.836100	0.606300
C451	C45	0.256100	0.834300	0.686900
C461	C46	0.584300	0.203700	0.711400
C471	C47	0.600400	0.072100	0.752600
C481	C48	0.269500	0.791000	0.550200
C491	C49	0.090100	0.778000	0.073800
C501	C50	0.029300	0.736000	0.026700
C511	C51	0.042000	0.653000	0.015100
C521	C52	0.120500	0.617100	0.054900
C531	C53	0.178500	0.663700	0.101200
C541	C54	0.979700	0.605900	0.962800
C551	C55	0.862500	0.586500	0.882700
C561	C56	0.778000	0.606300	0.836100
C571	C57	0.743900	0.686900	0.834300
C581	C58	0.415700	0.711400	0.203700
C591	C59	0.399600	0.752600	0.072100
C601	C60	0.730500	0.550200	0.791000
C611	C61	0.590100	0.222000	0.926200
C621	C62	0.529300	0.264000	0.973300
C631	C63	0.542000	0.347000	0.984900
C641	C64	0.620500	0.382900	0.945100
C651	C65	0.678500	0.336300	0.898800
C661	C66	0.479700	0.394100	0.037200
C671	C67	0.362500	0.413500	0.117300
C681	C68	0.278000	0.393700	0.163900
C691	C69	0.243900	0.313100	0.165700
C701	C70	0.915700	0.288600	0.796300
C711	C71	0.899600	0.247400	0.927900
C721	C72	0.230500	0.449800	0.209000
C731	C73	0.340100	0.573800	0.722000
C741	C74	0.279300	0.526700	0.764000
C751	C75	0.292000	0.515100	0.847000
C761	C76	0.370500	0.554900	0.882900
C771	C77	0.428500	0.601200	0.836300
C781	C78	0.229700	0.462800	0.894100
C791	C79	0.112500	0.382700	0.913500
C801	C80	0.028000	0.336100	0.893700
C811	C81	0.993900	0.334300	0.813100
C821	C82	0.665700	0.703700	0.788600
C831	C83	0.649600	0.572100	0.747400
C841	C84	0.980500	0.291000	0.949800
C851	C85	0.840100	0.426200	0.278000
C861	C86	0.779300	0.473300	0.236000
C871	C87	0.792000	0.484900	0.153000
C881	C88	0.870500	0.445100	0.117100
C891	C89	0.928500	0.398800	0.163700
C901	C90	0.729700	0.537200	0.105900
C911	C91	0.612500	0.617300	0.086500
C921	C92	0.528000	0.663900	0.106300
C931	C93	0.493900	0.665700	0.186900
C941	C94	0.165700	0.296300	0.211400
C951	C95	0.149600	0.427900	0.252600
C961	C96	0.480500	0.709000	0.050200
N11	N1	0.585500	0.757300	0.611600
N21	N2	0.768200	0.969600	0.444700
N31	N3	0.844700	0.982600	0.390300
N41	N4	0.384300	0.745800	0.649000
N51	N5	0.085500	0.242700	0.388400
N61	N6	0.268200	0.030400	0.555300
N71	N7	0.344700	0.017400	0.609700
N81	N8	0.884300	0.254200	0.351000
N91	N9	0.335500	0.888400	0.257300
N101	N10	0.518200	0.055300	0.469600
N111	N11	0.594700	0.109700	0.482600
N121	N12	0.134300	0.851000	0.245800
N131	N13	0.835500	0.111600	0.742700
N141	N14	0.018200	0.944700	0.530400
N151	N15	0.094700	0.890300	0.517400
N161	N16	0.634300	0.149000	0.754200
N171	N17	0.164500	0.742700	0.111600
N181	N18	0.981800	0.530400	0.944700
N191	N19	0.905300	0.517400	0.890300
N201	N20	0.365700	0.754200	0.149000
N211	N21	0.664500	0.257300	0.888400
N221	N22	0.481800	0.469600	0.055300
N231	N23	0.405300	0.482600	0.109700
N241	N24	0.865700	0.245800	0.851000
N251	N25	0.414500	0.611600	0.757300
N261	N26	0.231800	0.444700	0.969600
N271	N27	0.155300	0.390300	0.982600
N281	N28	0.615700	0.649000	0.745800
N291	N29	0.914500	0.388400	0.242700
N301	N30	0.731800	0.555300	0.030400
N311	N31	0.655300	0.609700	0.017400
N321	N32	0.115700	0.351000	0.254200
O11	O1	0.845490	0.854350	0.427540
O21	O2	0.345490	0.145650	0.572460
O31	O3	0.595490	0.072460	0.354350
O41	O4	0.095490	0.927540	0.645650
O51	O5	0.904510	0.645650	0.927540
O61	O6	0.404510	0.354350	0.072460
O71	O7	0.154510	0.427540	0.854350
O81	O8	0.654510	0.572460	0.145650
O91	O9	0.500000	0.586400	0.586400
O101	O10	0.000000	0.413600	0.413600
O111	O11	0.250000	0.913600	0.086400
O121	O12	0.750000	0.086400	0.913600
Cl11	Cl1	0.076400	0.691900	0.763100
O131	O13	0.049700	0.622600	0.793600
O141	O14	0.079100	0.646300	0.647300
O151	O15	0.130900	0.679600	0.695900
O161	O16	0.127900	0.733600	0.818000
Cl21	Cl2	0.576400	0.308100	0.236900
O171	O17	0.549700	0.377400	0.206400
O181	O18	0.579100	0.353700	0.352700
O191	O19	0.630900	0.320400	0.304100
O201	O20	0.627900	0.266400	0.182000
Cl31	Cl3	0.826400	0.736900	0.191900
O211	O21	0.799700	0.706400	0.122600
O221	O22	0.829100	0.852700	0.146300
O231	O23	0.880900	0.804100	0.179600
O241	O24	0.877900	0.682000	0.233600
Cl41	Cl4	0.326400	0.263100	0.808100
O251	O25	0.299700	0.293600	0.877400
O261	O26	0.329100	0.147300	0.853700
O271	O27	0.380900	0.195900	0.820400
O281	O28	0.377900	0.318000	0.766400
Cl51	Cl5	0.673600	0.808100	0.263100
O291	O29	0.700300	0.877400	0.293600
O301	O30	0.670900	0.853700	0.147300
O311	O31	0.619100	0.820400	0.195900
O321	O32	0.622100	0.766400	0.318000
Cl61	Cl6	0.173600	0.191900	0.736900
O331	O33	0.200300	0.122600	0.706400
O341	O34	0.170900	0.146300	0.852700
O351	O35	0.119100	0.179600	0.804100
O361	O36	0.122100	0.233600	0.682000
Cl71	Cl7	0.923600	0.763100	0.691900
O371	O37	0.950300	0.793600	0.622600
O381	O38	0.920900	0.647300	0.646300
O391	O39	0.869100	0.695900	0.679600
O401	O40	0.872100	0.818000	0.733600
Cl81	Cl8	0.423600	0.236900	0.308100
O411	O41	0.450300	0.206400	0.377400
O421	O42	0.420900	0.352700	0.353700
O431	O43	0.369100	0.304100	0.320400
O441	O44	0.372100	0.182000	0.266400
Cl91	Cl9	0.500000	0.871730	0.871730
O451	O45	0.415700	0.919900	0.845500
O461	O46	0.473800	0.787900	0.866900
O471	O47	0.584300	0.845500	0.919900
O481	O48	0.526200	0.866900	0.787900
Cl101	Cl10	0.000000	0.128270	0.128270
O491	O49	0.915700	0.080100	0.154500
O501	O50	0.973800	0.212100	0.133100
O511	O51	0.084300	0.154500	0.080100
O521	O52	0.026200	0.133100	0.212100
Cl111	Cl11	0.250000	0.628270	0.371730
O531	O53	0.165700	0.654500	0.419900
O541	O54	0.223800	0.633100	0.287900
O551	O55	0.334300	0.580100	0.345500
O561	O56	0.276200	0.712100	0.366900
Cl121	Cl12	0.750000	0.371730	0.628270
O571	O57	0.665700	0.345500	0.580100
O581	O58	0.723800	0.366900	0.712100
O591	O59	0.834300	0.419900	0.654500
O601	O60	0.776200	0.287900	0.633100
