data_CAWZUX_clean_PM
_symmetry_space_group_name_H-M	'P1'
_cell_length_a	13.553600
_cell_length_b	19.046300
_cell_length_c	25.825600
_cell_angle_alpha	90.000000
_cell_angle_beta	96.641100
_cell_angle_gamma	90.000000
_symmetry_Int_Tables_number 1

loop_
_symmetry_equiv_pos_as_xyz
'x,y,z'

loop_
_atom_site_label
_atom_site_type_symbol
_atom_site_fract_x
_atom_site_fract_y
_atom_site_fract_z
V11	V1	0.846810	0.764560	0.029950
V21	V2	0.870830	0.650920	0.128560
V31	V3	0.693750	0.517600	0.125490
V41	V4	0.282990	0.623230	0.941940
V51	V5	0.455190	0.713660	0.897290
V61	V6	0.638940	0.829890	0.954200
V71	V7	0.653190	0.264560	0.470050
V81	V8	0.629170	0.150920	0.371440
V91	V9	0.806250	0.017600	0.374510
V101	V10	0.217010	0.123230	0.558060
V111	V11	0.044810	0.213660	0.602710
V121	V12	0.861060	0.329890	0.545800
V131	V13	0.153190	0.235440	0.970050
V141	V14	0.129170	0.349080	0.871440
V151	V15	0.306250	0.482400	0.874510
V161	V16	0.717010	0.376770	0.058060
V171	V17	0.544810	0.286340	0.102710
V181	V18	0.361060	0.170110	0.045800
V191	V19	0.346810	0.735440	0.529950
V201	V20	0.370830	0.849080	0.628560
V211	V21	0.193750	0.982400	0.625490
V221	V22	0.782990	0.876770	0.441940
V231	V23	0.955190	0.786340	0.397290
V241	V24	0.138940	0.670110	0.454200
Ni11	Ni1	0.039100	0.674440	0.978600
Ni21	Ni2	0.536650	0.442510	0.957230
Ni31	Ni3	0.105700	0.285980	0.735800
Ni41	Ni4	0.460900	0.174440	0.521400
Ni51	Ni5	0.963350	0.942510	0.542770
Ni61	Ni6	0.394300	0.785980	0.764200
Ni71	Ni7	0.960900	0.325560	0.021400
Ni81	Ni8	0.463350	0.557490	0.042770
Ni91	Ni9	0.894300	0.714020	0.264200
Ni101	Ni10	0.539100	0.825560	0.478600
Ni111	Ni11	0.036650	0.057490	0.457230
Ni121	Ni12	0.605700	0.214020	0.235800
H11	H1	0.196400	0.777200	0.960600
H21	H2	0.218100	0.887400	0.928100
H31	H3	0.920900	0.902800	0.891700
H41	H4	0.906700	0.790200	0.925000
H51	H5	0.018600	0.995400	0.865600
H61	H6	0.110900	0.012200	0.905900
H71	H7	0.126800	0.943700	0.810800
H81	H8	0.217100	0.968600	0.850300
H91	H9	0.215200	0.211300	0.827900
H101	H10	0.231800	0.103500	0.867000
H111	H11	0.049800	0.025400	0.747000
H121	H12	0.038100	0.136000	0.711200
H131	H13	0.255500	0.216500	0.673900
H141	H14	0.423400	0.215500	0.665600
H151	H15	0.464900	0.351500	0.783400
H161	H16	0.296600	0.353300	0.786200
H171	H17	0.590300	0.338800	0.711000
H181	H18	0.584400	0.264500	0.684900
H191	H19	0.627800	0.285500	0.793500
H201	H20	0.625100	0.211700	0.766500
H211	H21	0.968700	0.245700	0.818000
H221	H22	0.803600	0.235700	0.828400
H231	H23	0.738000	0.299900	0.680500
H241	H24	0.905000	0.307800	0.674300
H251	H25	0.082300	0.568400	0.897100
H261	H26	0.015600	0.519000	0.820400
H271	H27	0.771100	0.634800	0.828200
H281	H28	0.843200	0.680500	0.905100
H291	H29	0.778400	0.564000	0.751200
H301	H30	0.883700	0.540700	0.738000
H311	H31	0.871100	0.433500	0.781800
H321	H32	0.776200	0.441400	0.741100
H331	H33	0.519700	0.476300	0.842500
H341	H34	0.614700	0.478800	0.774400
H351	H35	0.852900	0.430000	0.874500
H361	H36	0.752800	0.431300	0.940400
H371	H37	0.662600	0.314400	0.946000
H381	H38	0.648800	0.197700	0.922900
H391	H39	0.353300	0.219500	0.908200
H401	H40	0.374200	0.334600	0.931700
H411	H41	0.429100	0.099000	0.916200
H421	H42	0.543900	0.091500	0.914700
H431	H43	0.414500	0.135100	0.827600
H441	H44	0.527600	0.118800	0.827200
H451	H45	0.468900	0.868400	0.864300
H461	H46	0.503900	0.980500	0.892300
H471	H47	0.366200	0.051000	0.757100
H481	H48	0.343000	0.937000	0.730800
H491	H49	0.531100	0.578000	0.948100
H501	H50	0.612000	0.574000	0.984000
H511	H51	0.303600	0.277200	0.539400
H521	H52	0.281900	0.387400	0.571900
H531	H53	0.579100	0.402800	0.608300
H541	H54	0.593300	0.290200	0.575000
H551	H55	0.481400	0.495400	0.634400
H561	H56	0.389100	0.512200	0.594100
H571	H57	0.373200	0.443700	0.689200
H581	H58	0.282900	0.468600	0.649700
H591	H59	0.284800	0.711300	0.672100
H601	H60	0.268200	0.603500	0.633000
H611	H61	0.450200	0.525400	0.753000
H621	H62	0.461900	0.636000	0.788800
H631	H63	0.244500	0.716500	0.826100
H641	H64	0.076600	0.715500	0.834400
H651	H65	0.035100	0.851500	0.716600
H661	H66	0.203400	0.853300	0.713800
H671	H67	0.909700	0.838800	0.789000
H681	H68	0.915600	0.764500	0.815100
H691	H69	0.872200	0.785500	0.706500
H701	H70	0.874900	0.711700	0.733500
H711	H71	0.531300	0.745700	0.682000
H721	H72	0.696400	0.735700	0.671600
H731	H73	0.762000	0.799900	0.819500
H741	H74	0.595000	0.807800	0.825700
H751	H75	0.417700	0.068400	0.602900
H761	H76	0.484400	0.019000	0.679600
H771	H77	0.728900	0.134800	0.671800
H781	H78	0.656800	0.180500	0.594900
H791	H79	0.721600	0.064000	0.748800
H801	H80	0.616300	0.040700	0.762000
H811	H81	0.628900	0.933500	0.718200
H821	H82	0.723800	0.941400	0.758900
H831	H83	0.980300	0.976300	0.657500
H841	H84	0.885300	0.978800	0.725600
H851	H85	0.647100	0.930000	0.625500
H861	H86	0.747200	0.931300	0.559600
H871	H87	0.837400	0.814400	0.554000
H881	H88	0.851200	0.697700	0.577100
H891	H89	0.146700	0.719500	0.591800
H901	H90	0.125800	0.834600	0.568300
H911	H91	0.070900	0.599000	0.583800
H921	H92	0.956100	0.591500	0.585300
H931	H93	0.085500	0.635100	0.672400
H941	H94	0.972400	0.618800	0.672800
H951	H95	0.031100	0.368400	0.635700
H961	H96	0.996100	0.480500	0.607700
H971	H97	0.133800	0.551000	0.742900
H981	H98	0.157000	0.437000	0.769200
H991	H99	0.968900	0.078000	0.551900
H1001	H100	0.888000	0.074000	0.516000
H1011	H101	0.803600	0.222800	0.039400
H1021	H102	0.781900	0.112600	0.071900
H1031	H103	0.079100	0.097200	0.108300
H1041	H104	0.093300	0.209800	0.075000
H1051	H105	0.981400	0.004600	0.134400
H1061	H106	0.889100	0.987800	0.094100
H1071	H107	0.873200	0.056300	0.189200
H1081	H108	0.782900	0.031400	0.149700
H1091	H109	0.784800	0.788700	0.172100
H1101	H110	0.768200	0.896500	0.133000
H1111	H111	0.950200	0.974600	0.253000
H1121	H112	0.961900	0.864000	0.288800
H1131	H113	0.744500	0.783500	0.326100
H1141	H114	0.576600	0.784500	0.334400
H1151	H115	0.535100	0.648500	0.216600
H1161	H116	0.703400	0.646700	0.213800
H1171	H117	0.409700	0.661200	0.289000
H1181	H118	0.415600	0.735500	0.315100
H1191	H119	0.372200	0.714500	0.206500
H1201	H120	0.374900	0.788300	0.233500
H1211	H121	0.031300	0.754300	0.182000
H1221	H122	0.196400	0.764300	0.171600
H1231	H123	0.262000	0.700100	0.319500
H1241	H124	0.095000	0.692200	0.325700
H1251	H125	0.917700	0.431600	0.102900
H1261	H126	0.984400	0.481000	0.179600
H1271	H127	0.228900	0.365200	0.171800
H1281	H128	0.156800	0.319500	0.094900
H1291	H129	0.221600	0.436000	0.248800
H1301	H130	0.116300	0.459300	0.262000
H1311	H131	0.128900	0.566500	0.218200
H1321	H132	0.223800	0.558600	0.258900
H1331	H133	0.480300	0.523700	0.157500
H1341	H134	0.385300	0.521200	0.225600
H1351	H135	0.147100	0.570000	0.125500
H1361	H136	0.247200	0.568700	0.059600
H1371	H137	0.337400	0.685600	0.054000
H1381	H138	0.351200	0.802300	0.077100
H1391	H139	0.646700	0.780500	0.091800
H1401	H140	0.625800	0.665400	0.068300
H1411	H141	0.570900	0.901000	0.083800
H1421	H142	0.456100	0.908500	0.085300
H1431	H143	0.585500	0.864900	0.172400
H1441	H144	0.472400	0.881200	0.172800
H1451	H145	0.531100	0.131600	0.135700
H1461	H146	0.496100	0.019500	0.107700
H1471	H147	0.633800	0.949000	0.242900
H1481	H148	0.657000	0.063000	0.269200
H1491	H149	0.468900	0.422000	0.051900
H1501	H150	0.388000	0.426000	0.016000
H1511	H151	0.696400	0.722800	0.460600
H1521	H152	0.718100	0.612600	0.428100
H1531	H153	0.420900	0.597200	0.391700
H1541	H154	0.406700	0.709800	0.425000
H1551	H155	0.518600	0.504600	0.365600
H1561	H156	0.610900	0.487800	0.405900
H1571	H157	0.626800	0.556300	0.310800
H1581	H158	0.717100	0.531400	0.350300
H1591	H159	0.715200	0.288700	0.327900
H1601	H160	0.731800	0.396500	0.367000
H1611	H161	0.549800	0.474600	0.247000
H1621	H162	0.538100	0.364000	0.211200
H1631	H163	0.755500	0.283500	0.173900
H1641	H164	0.923400	0.284500	0.165600
H1651	H165	0.964900	0.148500	0.283400
H1661	H166	0.796600	0.146700	0.286200
H1671	H167	0.090300	0.161200	0.211000
H1681	H168	0.084400	0.235500	0.184900
H1691	H169	0.127800	0.214500	0.293500
H1701	H170	0.125100	0.288300	0.266500
H1711	H171	0.468700	0.254300	0.318000
H1721	H172	0.303600	0.264300	0.328400
H1731	H173	0.238000	0.200100	0.180500
H1741	H174	0.405000	0.192200	0.174300
H1751	H175	0.582300	0.931600	0.397100
H1761	H176	0.515600	0.981000	0.320400
H1771	H177	0.271100	0.865200	0.328200
H1781	H178	0.343200	0.819500	0.405100
H1791	H179	0.278400	0.936000	0.251200
H1801	H180	0.383700	0.959300	0.238000
H1811	H181	0.371100	0.066500	0.281800
H1821	H182	0.276200	0.058600	0.241100
H1831	H183	0.019700	0.023700	0.342500
H1841	H184	0.114700	0.021200	0.274400
H1851	H185	0.352900	0.070000	0.374500
H1861	H186	0.252800	0.068700	0.440400
H1871	H187	0.162600	0.185600	0.446000
H1881	H188	0.148800	0.302300	0.422900
H1891	H189	0.853300	0.280500	0.408200
H1901	H190	0.874200	0.165400	0.431700
H1911	H191	0.929100	0.401000	0.416200
H1921	H192	0.043900	0.408500	0.414700
H1931	H193	0.914500	0.364900	0.327600
H1941	H194	0.027600	0.381200	0.327200
H1951	H195	0.968900	0.631600	0.364300
H1961	H196	0.003900	0.519500	0.392300
H1971	H197	0.866200	0.449000	0.257100
H1981	H198	0.843000	0.563000	0.230800
H1991	H199	0.031100	0.922000	0.448100
H2001	H200	0.112000	0.926000	0.484000
C11	C1	0.141100	0.802600	0.946500
C21	C2	0.154500	0.868800	0.927000
C31	C3	0.072900	0.908000	0.905500
C41	C4	0.977200	0.878100	0.905100
C51	C5	0.969300	0.810400	0.925500
C61	C6	0.084100	0.978900	0.879500
C71	C7	0.149100	0.979200	0.836500
C81	C8	0.181390	0.173300	0.811590
C91	C9	0.192250	0.108500	0.835350
C101	C10	0.143620	0.050700	0.811620
C111	C11	0.084350	0.062400	0.764150
C121	C12	0.077220	0.129250	0.742820
C131	C13	0.297880	0.245200	0.695480
C141	C14	0.399250	0.244100	0.690450
C151	C15	0.463940	0.285900	0.722840
C161	C16	0.423760	0.324900	0.759660
C171	C17	0.322210	0.324900	0.761710
C181	C18	0.572920	0.290100	0.716120
C191	C19	0.640790	0.260900	0.762090
C201	C20	0.921570	0.256900	0.790070
C211	C21	0.822240	0.250900	0.796740
C221	C22	0.750360	0.267500	0.755860
C231	C23	0.783430	0.288900	0.709130
C241	C24	0.884250	0.293400	0.705750
C251	C25	0.019010	0.582100	0.882910
C261	C26	0.979390	0.552300	0.836590
C271	C27	0.884920	0.571800	0.813720
C281	C28	0.834740	0.620700	0.841240
C291	C29	0.878710	0.648100	0.887610
C301	C30	0.837970	0.538300	0.764170
C311	C31	0.810800	0.460600	0.773000
C321	C32	0.587450	0.467400	0.849050
C331	C33	0.644430	0.468600	0.807830
C341	C34	0.746080	0.454500	0.816180
C351	C35	0.785690	0.440000	0.866990
C361	C36	0.724570	0.440500	0.906570
C371	C37	0.599590	0.295000	0.938390
C381	C38	0.591860	0.224500	0.924660
C391	C39	0.498750	0.194300	0.913650
C401	C40	0.417120	0.237400	0.916020
C411	C41	0.430260	0.306850	0.929960
C421	C42	0.485290	0.117200	0.900290
C431	C43	0.468330	0.105000	0.842330
C441	C44	0.451480	0.905500	0.841680
C451	C45	0.471470	0.973000	0.858970
C461	C46	0.443400	0.030100	0.826900
C471	C47	0.391290	0.014900	0.778990
C481	C48	0.376580	0.945790	0.763680
C491	C49	0.358900	0.302600	0.553500
C501	C50	0.345500	0.368800	0.573000
C511	C51	0.427100	0.408000	0.594500
C521	C52	0.522800	0.378100	0.594900
C531	C53	0.530700	0.310400	0.574500
C541	C54	0.415900	0.478900	0.620500
C551	C55	0.350900	0.479200	0.663500
C561	C56	0.318610	0.673300	0.688410
C571	C57	0.307750	0.608500	0.664650
C581	C58	0.356380	0.550700	0.688380
C591	C59	0.415650	0.562400	0.735850
C601	C60	0.422780	0.629250	0.757180
C611	C61	0.202120	0.745200	0.804520
C621	C62	0.100750	0.744100	0.809550
C631	C63	0.036060	0.785900	0.777160
C641	C64	0.076240	0.824900	0.740340
C651	C65	0.177790	0.824900	0.738290
C661	C66	0.927080	0.790100	0.783880
C671	C67	0.859210	0.760900	0.737910
C681	C68	0.578430	0.756900	0.709930
C691	C69	0.677760	0.750900	0.703260
C701	C70	0.749640	0.767500	0.744140
C711	C71	0.716570	0.788900	0.790870
C721	C72	0.615750	0.793400	0.794250
C731	C73	0.480990	0.082100	0.617090
C741	C74	0.520610	0.052300	0.663410
C751	C75	0.615080	0.071800	0.686280
C761	C76	0.665260	0.120700	0.658760
C771	C77	0.621290	0.148100	0.612390
C781	C78	0.662030	0.038300	0.735830
C791	C79	0.689200	0.960600	0.727000
C801	C80	0.912550	0.967400	0.650950
C811	C81	0.855570	0.968600	0.692170
C821	C82	0.753920	0.954500	0.683820
C831	C83	0.714310	0.940000	0.633010
C841	C84	0.775430	0.940500	0.593430
C851	C85	0.900410	0.795000	0.561610
C861	C86	0.908140	0.724500	0.575340
C871	C87	0.001250	0.694300	0.586350
C881	C88	0.082880	0.737400	0.583980
C891	C89	0.069740	0.806850	0.570040
C901	C90	0.014710	0.617200	0.599710
C911	C91	0.031670	0.605000	0.657670
C921	C92	0.048520	0.405500	0.658320
C931	C93	0.028530	0.473000	0.641030
C941	C94	0.056600	0.530100	0.673100
C951	C95	0.108710	0.514900	0.721010
C961	C96	0.123420	0.445790	0.736320
C971	C97	0.858900	0.197400	0.053500
C981	C98	0.845500	0.131200	0.073000
C991	C99	0.927100	0.092000	0.094500
C1001	C100	0.022800	0.121900	0.094900
C1011	C101	0.030700	0.189600	0.074500
C1021	C102	0.915900	0.021100	0.120500
C1031	C103	0.850900	0.020800	0.163500
C1041	C104	0.818610	0.826700	0.188410
C1051	C105	0.807750	0.891500	0.164650
C1061	C106	0.856380	0.949300	0.188380
C1071	C107	0.915650	0.937600	0.235850
C1081	C108	0.922780	0.870750	0.257180
C1091	C109	0.702120	0.754800	0.304520
C1101	C110	0.600750	0.755900	0.309550
C1111	C111	0.536060	0.714100	0.277160
C1121	C112	0.576240	0.675100	0.240340
C1131	C113	0.677790	0.675100	0.238290
C1141	C114	0.427080	0.709900	0.283880
C1151	C115	0.359210	0.739100	0.237910
C1161	C116	0.078430	0.743100	0.209930
C1171	C117	0.177760	0.749100	0.203260
C1181	C118	0.249640	0.732500	0.244140
C1191	C119	0.216570	0.711100	0.290870
C1201	C120	0.115750	0.706600	0.294250
C1211	C121	0.980990	0.417900	0.117090
C1221	C122	0.020610	0.447700	0.163410
C1231	C123	0.115080	0.428200	0.186280
C1241	C124	0.165260	0.379300	0.158760
C1251	C125	0.121290	0.351900	0.112390
C1261	C126	0.162030	0.461700	0.235830
C1271	C127	0.189200	0.539400	0.227000
C1281	C128	0.412550	0.532600	0.150950
C1291	C129	0.355570	0.531400	0.192170
C1301	C130	0.253920	0.545500	0.183820
C1311	C131	0.214310	0.560000	0.133010
C1321	C132	0.275430	0.559500	0.093430
C1331	C133	0.400410	0.705000	0.061610
C1341	C134	0.408140	0.775500	0.075340
C1351	C135	0.501250	0.805700	0.086350
C1361	C136	0.582880	0.762600	0.083980
C1371	C137	0.569740	0.693150	0.070040
C1381	C138	0.514710	0.882800	0.099710
C1391	C139	0.531670	0.895000	0.157670
C1401	C140	0.548520	0.094500	0.158320
C1411	C141	0.528530	0.027000	0.141030
C1421	C142	0.556600	0.969900	0.173100
C1431	C143	0.608710	0.985100	0.221010
C1441	C144	0.623420	0.054210	0.236320
C1451	C145	0.641100	0.697400	0.446500
C1461	C146	0.654500	0.631200	0.427000
C1471	C147	0.572900	0.592000	0.405500
C1481	C148	0.477200	0.621900	0.405100
C1491	C149	0.469300	0.689600	0.425500
C1501	C150	0.584100	0.521100	0.379500
C1511	C151	0.649100	0.520800	0.336500
C1521	C152	0.681390	0.326700	0.311590
C1531	C153	0.692250	0.391500	0.335350
C1541	C154	0.643620	0.449300	0.311620
C1551	C155	0.584350	0.437600	0.264150
C1561	C156	0.577220	0.370750	0.242820
C1571	C157	0.797880	0.254800	0.195480
C1581	C158	0.899250	0.255900	0.190450
C1591	C159	0.963940	0.214100	0.222840
C1601	C160	0.923760	0.175100	0.259660
C1611	C161	0.822210	0.175100	0.261710
C1621	C162	0.072920	0.209900	0.216120
C1631	C163	0.140790	0.239100	0.262090
C1641	C164	0.421570	0.243100	0.290070
C1651	C165	0.322240	0.249100	0.296740
C1661	C166	0.250360	0.232500	0.255860
C1671	C167	0.283430	0.211100	0.209130
C1681	C168	0.384250	0.206600	0.205750
C1691	C169	0.519010	0.917900	0.382910
C1701	C170	0.479390	0.947700	0.336590
C1711	C171	0.384920	0.928200	0.313720
C1721	C172	0.334740	0.879300	0.341240
C1731	C173	0.378710	0.851900	0.387610
C1741	C174	0.337970	0.961700	0.264170
C1751	C175	0.310800	0.039400	0.273000
C1761	C176	0.087450	0.032600	0.349050
C1771	C177	0.144430	0.031400	0.307830
C1781	C178	0.246080	0.045500	0.316180
C1791	C179	0.285690	0.060000	0.366990
C1801	C180	0.224570	0.059500	0.406570
C1811	C181	0.099590	0.205000	0.438390
C1821	C182	0.091860	0.275500	0.424660
C1831	C183	0.998750	0.305700	0.413650
C1841	C184	0.917120	0.262600	0.416020
C1851	C185	0.930260	0.193150	0.429960
C1861	C186	0.985290	0.382800	0.400290
C1871	C187	0.968330	0.395000	0.342330
C1881	C188	0.951480	0.594500	0.341680
C1891	C189	0.971470	0.527000	0.358970
C1901	C190	0.943400	0.469900	0.326900
C1911	C191	0.891290	0.485100	0.278990
C1921	C192	0.876580	0.554210	0.263680
N11	N1	0.050500	0.773400	0.945800
N21	N2	0.124530	0.184430	0.766030
N31	N3	0.259430	0.285920	0.730030
N41	N4	0.953480	0.278160	0.745280
N51	N5	0.970440	0.630120	0.908740
N61	N6	0.626940	0.453660	0.898340
N71	N7	0.520050	0.336330	0.941150
N81	N8	0.407790	0.890890	0.793390
N91	N9	0.449500	0.273400	0.554200
N101	N10	0.375470	0.684430	0.733970
N111	N11	0.240570	0.785920	0.769970
N121	N12	0.546520	0.778160	0.754720
N131	N13	0.529560	0.130120	0.591260
N141	N14	0.873060	0.953660	0.601660
N151	N15	0.979950	0.836330	0.558850
N161	N16	0.092210	0.390890	0.706610
N171	N17	0.949500	0.226600	0.054200
N181	N18	0.875470	0.815570	0.233970
N191	N19	0.740570	0.714080	0.269970
N201	N20	0.046520	0.721840	0.254720
N211	N21	0.029560	0.369880	0.091260
N221	N22	0.373060	0.546340	0.101660
N231	N23	0.479950	0.663670	0.058850
N241	N24	0.592210	0.109110	0.206610
N251	N25	0.550500	0.726600	0.445800
N261	N26	0.624530	0.315570	0.266030
N271	N27	0.759430	0.214080	0.230030
N281	N28	0.453480	0.221840	0.245280
N291	N29	0.470440	0.869880	0.408740
N301	N30	0.126940	0.046340	0.398340
N311	N31	0.020050	0.163670	0.441150
N321	N32	0.907790	0.609110	0.293390
O11	O1	0.424640	0.746090	0.838240
O21	O2	0.869610	0.672120	0.190330
O31	O3	0.537220	0.772010	0.934420
O41	O4	0.790280	0.577890	0.110080
O51	O5	0.737190	0.429160	0.115290
O61	O6	0.349720	0.579220	0.988420
O71	O7	0.590390	0.534530	0.087090
O81	O8	0.342690	0.703530	0.928190
O91	O9	0.174710	0.642130	0.961210
O101	O10	0.902970	0.703570	0.997270
O111	O11	0.730300	0.782400	0.996600
O121	O12	0.826490	0.726650	0.091890
O131	O13	0.552200	0.551840	0.977700
O141	O14	0.075360	0.246090	0.661760
O151	O15	0.630390	0.172120	0.309670
O161	O16	0.962780	0.272010	0.565580
O171	O17	0.709720	0.077890	0.389920
O181	O18	0.762810	0.929160	0.384710
O191	O19	0.150280	0.079220	0.511580
O201	O20	0.909610	0.034530	0.412910
O211	O21	0.157310	0.203530	0.571810
O221	O22	0.325290	0.142130	0.538790
O231	O23	0.597030	0.203570	0.502730
O241	O24	0.769700	0.282400	0.503400
O251	O25	0.673510	0.226650	0.408110
O261	O26	0.947800	0.051840	0.522300
O271	O27	0.575360	0.253910	0.161760
O281	O28	0.130390	0.327880	0.809670
O291	O29	0.462780	0.227990	0.065580
O301	O30	0.209720	0.422110	0.889920
O311	O31	0.262810	0.570840	0.884710
O321	O32	0.650280	0.420780	0.011580
O331	O33	0.409610	0.465470	0.912910
O341	O34	0.657310	0.296470	0.071810
O351	O35	0.825290	0.357870	0.038790
O361	O36	0.097030	0.296430	0.002730
O371	O37	0.269700	0.217600	0.003400
O381	O38	0.173510	0.273350	0.908110
O391	O39	0.447800	0.448160	0.022300
O401	O40	0.924640	0.753910	0.338240
O411	O41	0.369610	0.827880	0.690330
O421	O42	0.037220	0.727990	0.434420
O431	O43	0.290280	0.922110	0.610080
O441	O44	0.237190	0.070840	0.615290
O451	O45	0.849720	0.920780	0.488420
O461	O46	0.090390	0.965470	0.587090
O471	O47	0.842690	0.796470	0.428190
O481	O48	0.674710	0.857870	0.461210
O491	O49	0.402970	0.796430	0.497270
O501	O50	0.230300	0.717600	0.496600
O511	O51	0.326490	0.773350	0.591890
O521	O52	0.052200	0.948160	0.477700
