data_CAXTEC_clean_PM
_symmetry_space_group_name_H-M	'P1'
_cell_length_a	20.935700
_cell_length_b	20.935700
_cell_length_c	34.812600
_cell_angle_alpha	90.000000
_cell_angle_beta	90.000000
_cell_angle_gamma	120.000000
_symmetry_Int_Tables_number 1

loop_
_symmetry_equiv_pos_as_xyz
'x,y,z'

loop_
_atom_site_label
_atom_site_type_symbol
_atom_site_fract_x
_atom_site_fract_y
_atom_site_fract_z
Al11	Al1	0.276730	0.073280	0.514820
O11	O1	0.309100	0.104100	0.568940
C11	C1	0.324600	0.101500	0.647530
O21	O2	0.354130	0.058280	0.511500
C21	C2	0.440700	0.942800	0.485600
O31	O3	0.249800	0.027200	0.472310
C31	C3	0.279900	0.060700	0.438300
N11	N1	0.329270	0.042130	0.622830
N21	N2	0.371400	0.875400	0.471200
Al21	Al2	0.943400	0.406610	0.848150
O41	O4	0.975770	0.437430	0.902270
C41	C4	0.991270	0.434830	0.980860
O51	O5	0.020800	0.391610	0.844830
C51	C5	0.107370	0.276130	0.818930
O61	O6	0.916470	0.360530	0.805640
C61	C6	0.946570	0.394030	0.771630
N31	N3	0.995940	0.375460	0.956160
N41	N4	0.038070	0.208730	0.804530
Al31	Al3	0.610060	0.739950	0.181490
O71	O7	0.642430	0.770770	0.235610
C71	C7	0.657930	0.768170	0.314200
O81	O8	0.687460	0.724950	0.178170
C81	C8	0.774030	0.609470	0.152270
O91	O9	0.583130	0.693870	0.138980
C91	C9	0.613230	0.727370	0.104970
N51	N5	0.662600	0.708800	0.289500
N61	N6	0.704730	0.542070	0.137870
Al41	Al4	0.926720	0.203450	0.514820
O101	O10	0.895900	0.205000	0.568940
C101	C10	0.898500	0.223100	0.647530
O111	O11	0.941720	0.295850	0.511500
C111	C11	0.057200	0.497900	0.485600
O121	O12	0.972800	0.222600	0.472310
C121	C12	0.939300	0.219200	0.438300
N71	N7	0.957870	0.287140	0.622830
N81	N8	0.124600	0.496000	0.471200
Al51	Al5	0.593390	0.536780	0.848150
O131	O13	0.562570	0.538330	0.902270
C131	C13	0.565170	0.556430	0.980860
O141	O14	0.608390	0.629180	0.844830
C141	C14	0.723870	0.831230	0.818930
O151	O15	0.639470	0.555930	0.805640
C151	C15	0.605970	0.552530	0.771630
N91	N9	0.624540	0.620470	0.956160
N101	N10	0.791270	0.829330	0.804530
Al61	Al6	0.260050	0.870120	0.181490
O161	O16	0.229230	0.871670	0.235610
C161	C16	0.231830	0.889770	0.314200
O171	O17	0.275050	0.962520	0.178170
C171	C17	0.390530	0.164570	0.152270
O181	O18	0.306130	0.889270	0.138980
C181	C18	0.272630	0.885870	0.104970
N111	N11	0.291200	0.953810	0.289500
N121	N12	0.457930	0.162670	0.137870
Al71	Al7	0.796550	0.723270	0.514820
O191	O19	0.795000	0.690900	0.568940
C191	C19	0.776900	0.675400	0.647530
O201	O20	0.704150	0.645870	0.511500
C201	C20	0.502100	0.559300	0.485600
O211	O21	0.777400	0.750200	0.472310
C211	C21	0.780800	0.720100	0.438300
N131	N13	0.712860	0.670730	0.622830
N141	N14	0.504000	0.628600	0.471200
Al81	Al8	0.463220	0.056600	0.848150
O221	O22	0.461670	0.024230	0.902270
C221	C22	0.443570	0.008730	0.980860
O231	O23	0.370820	0.979200	0.844830
C231	C23	0.168770	0.892630	0.818930
O241	O24	0.444070	0.083530	0.805640
C241	C24	0.447470	0.053430	0.771630
N151	N15	0.379530	0.004060	0.956160
N161	N16	0.170670	0.961930	0.804530
Al91	Al9	0.129880	0.389940	0.181490
O251	O25	0.128330	0.357570	0.235610
C251	C25	0.110230	0.342070	0.314200
O261	O26	0.037480	0.312540	0.178170
C261	C26	0.835430	0.225970	0.152270
O271	O27	0.110730	0.416870	0.138980
C271	C27	0.114130	0.386770	0.104970
N171	N17	0.046190	0.337400	0.289500
N181	N18	0.837330	0.295270	0.137870
Al101	Al10	0.073280	0.276730	0.485180
O281	O28	0.104100	0.309100	0.431060
C281	C28	0.101500	0.324600	0.352470
O291	O29	0.058280	0.354130	0.488500
C291	C29	0.942800	0.440700	0.514400
O301	O30	0.027200	0.249800	0.527690
C301	C30	0.060700	0.279900	0.561700
N191	N19	0.042130	0.329270	0.377170
N201	N20	0.875400	0.371400	0.528800
Al111	Al11	0.739950	0.610060	0.818510
O311	O31	0.770770	0.642430	0.764390
C311	C31	0.768170	0.657930	0.685800
O321	O32	0.724950	0.687460	0.821830
C321	C32	0.609470	0.774030	0.847730
O331	O33	0.693870	0.583130	0.861020
C331	C33	0.727370	0.613230	0.895030
N211	N21	0.708800	0.662600	0.710500
N221	N22	0.542070	0.704730	0.862130
Al121	Al12	0.406610	0.943400	0.151850
O341	O34	0.437430	0.975770	0.097730
C341	C34	0.434830	0.991270	0.019140
O351	O35	0.391610	0.020800	0.155170
C351	C35	0.276130	0.107370	0.181070
O361	O36	0.360530	0.916470	0.194360
C361	C36	0.394030	0.946570	0.228370
N231	N23	0.375460	0.995940	0.043840
N241	N24	0.208730	0.038070	0.195470
Al131	Al13	0.203450	0.926720	0.485180
O371	O37	0.205000	0.895900	0.431060
C371	C37	0.223100	0.898500	0.352470
O381	O38	0.295850	0.941720	0.488500
C381	C38	0.497900	0.057200	0.514400
O391	O39	0.222600	0.972800	0.527690
C391	C39	0.219200	0.939300	0.561700
N251	N25	0.287140	0.957870	0.377170
N261	N26	0.496000	0.124600	0.528800
Al141	Al14	0.870120	0.260050	0.818510
O401	O40	0.871670	0.229230	0.764390
C401	C40	0.889770	0.231830	0.685800
O411	O41	0.962520	0.275050	0.821830
C411	C41	0.164570	0.390530	0.847730
O421	O42	0.889270	0.306130	0.861020
C421	C42	0.885870	0.272630	0.895030
N271	N27	0.953810	0.291200	0.710500
N281	N28	0.162670	0.457930	0.862130
Al151	Al15	0.536780	0.593390	0.151850
O431	O43	0.538330	0.562570	0.097730
C431	C43	0.556430	0.565170	0.019140
O441	O44	0.629180	0.608390	0.155170
C441	C44	0.831230	0.723870	0.181070
O451	O45	0.555930	0.639470	0.194360
C451	C45	0.552530	0.605970	0.228370
N291	N29	0.620470	0.624540	0.043840
N301	N30	0.829330	0.791270	0.195470
Al161	Al16	0.723270	0.796550	0.485180
O461	O46	0.690900	0.795000	0.431060
C461	C46	0.675400	0.776900	0.352470
O471	O47	0.645870	0.704150	0.488500
C471	C47	0.559300	0.502100	0.514400
O481	O48	0.750200	0.777400	0.527690
C481	C48	0.720100	0.780800	0.561700
N311	N31	0.670730	0.712860	0.377170
N321	N32	0.628600	0.504000	0.528800
Al171	Al17	0.389940	0.129880	0.818510
O491	O49	0.357570	0.128330	0.764390
C491	C49	0.342070	0.110230	0.685800
O501	O50	0.312540	0.037480	0.821830
C501	C50	0.225970	0.835430	0.847730
O511	O51	0.416870	0.110730	0.861020
C511	C51	0.386770	0.114130	0.895030
N331	N33	0.337400	0.046190	0.710500
N341	N34	0.295270	0.837330	0.862130
Al181	Al18	0.056600	0.463220	0.151850
O521	O52	0.024230	0.461670	0.097730
C521	C52	0.008730	0.443570	0.019140
O531	O53	0.979200	0.370820	0.155170
C531	C53	0.892630	0.168770	0.181070
O541	O54	0.083530	0.444070	0.194360
C541	C54	0.053430	0.447470	0.228370
N351	N35	0.004060	0.379530	0.043840
N361	N36	0.961930	0.170670	0.195470
Al191	Al19	0.723270	0.926720	0.485180
O551	O55	0.690900	0.895900	0.431060
C551	C55	0.675400	0.898500	0.352470
O561	O56	0.645870	0.941720	0.488500
C561	C56	0.559300	0.057200	0.514400
O571	O57	0.750200	0.972800	0.527690
C571	C57	0.720100	0.939300	0.561700
N371	N37	0.670730	0.957870	0.377170
N381	N38	0.628600	0.124600	0.528800
Al201	Al20	0.389940	0.260050	0.818510
O581	O58	0.357570	0.229230	0.764390
C581	C58	0.342070	0.231830	0.685800
O591	O59	0.312540	0.275050	0.821830
C591	C59	0.225970	0.390530	0.847730
O601	O60	0.416870	0.306130	0.861020
C601	C60	0.386770	0.272630	0.895030
N391	N39	0.337400	0.291200	0.710500
N401	N40	0.295270	0.457930	0.862130
Al211	Al21	0.056600	0.593390	0.151850
O611	O61	0.024230	0.562570	0.097730
C611	C61	0.008730	0.565170	0.019140
O621	O62	0.979200	0.608390	0.155170
C621	C62	0.892630	0.723870	0.181070
O631	O63	0.083530	0.639470	0.194360
C631	C63	0.053430	0.605970	0.228370
N411	N41	0.004060	0.624540	0.043840
N421	N42	0.961930	0.791270	0.195470
Al221	Al22	0.073280	0.796550	0.485180
O641	O64	0.104100	0.795000	0.431060
C641	C64	0.101500	0.776900	0.352470
O651	O65	0.058280	0.704150	0.488500
C651	C65	0.942800	0.502100	0.514400
O661	O66	0.027200	0.777400	0.527690
C661	C66	0.060700	0.780800	0.561700
N431	N43	0.042130	0.712860	0.377170
N441	N44	0.875400	0.504000	0.528800
Al231	Al23	0.739950	0.129880	0.818510
O671	O67	0.770770	0.128330	0.764390
C671	C67	0.768170	0.110230	0.685800
O681	O68	0.724950	0.037480	0.821830
C681	C68	0.609470	0.835430	0.847730
O691	O69	0.693870	0.110730	0.861020
C691	C69	0.727370	0.114130	0.895030
N451	N45	0.708800	0.046190	0.710500
N461	N46	0.542070	0.837330	0.862130
Al241	Al24	0.406610	0.463220	0.151850
O701	O70	0.437430	0.461670	0.097730
C701	C70	0.434830	0.443570	0.019140
O711	O71	0.391610	0.370820	0.155170
C711	C71	0.276130	0.168770	0.181070
O721	O72	0.360530	0.444070	0.194360
C721	C72	0.394030	0.447470	0.228370
N471	N47	0.375460	0.379530	0.043840
N481	N48	0.208730	0.170670	0.195470
Al251	Al25	0.203450	0.276730	0.485180
O731	O73	0.205000	0.309100	0.431060
C731	C73	0.223100	0.324600	0.352470
O741	O74	0.295850	0.354130	0.488500
C741	C74	0.497900	0.440700	0.514400
O751	O75	0.222600	0.249800	0.527690
C751	C75	0.219200	0.279900	0.561700
N491	N49	0.287140	0.329270	0.377170
N501	N50	0.496000	0.371400	0.528800
Al261	Al26	0.870120	0.610060	0.818510
O761	O76	0.871670	0.642430	0.764390
C761	C76	0.889770	0.657930	0.685800
O771	O77	0.962520	0.687460	0.821830
C771	C77	0.164570	0.774030	0.847730
O781	O78	0.889270	0.583130	0.861020
C781	C78	0.885870	0.613230	0.895030
N511	N51	0.953810	0.662600	0.710500
N521	N52	0.162670	0.704730	0.862130
Al271	Al27	0.536780	0.943400	0.151850
O791	O79	0.538330	0.975770	0.097730
C791	C79	0.556430	0.991270	0.019140
O801	O80	0.629180	0.020800	0.155170
C801	C80	0.831230	0.107370	0.181070
O811	O81	0.555930	0.916470	0.194360
C811	C81	0.552530	0.946570	0.228370
N531	N53	0.620470	0.995940	0.043840
N541	N54	0.829330	0.038070	0.195470
Al281	Al28	0.926720	0.723270	0.514820
O821	O82	0.895900	0.690900	0.568940
C821	C82	0.898500	0.675400	0.647530
O831	O83	0.941720	0.645870	0.511500
C831	C83	0.057200	0.559300	0.485600
O841	O84	0.972800	0.750200	0.472310
C841	C84	0.939300	0.720100	0.438300
N551	N55	0.957870	0.670730	0.622830
N561	N56	0.124600	0.628600	0.471200
Al291	Al29	0.593390	0.056600	0.848150
O851	O85	0.562570	0.024230	0.902270
C851	C85	0.565170	0.008730	0.980860
O861	O86	0.608390	0.979200	0.844830
C861	C86	0.723870	0.892630	0.818930
O871	O87	0.639470	0.083530	0.805640
C871	C87	0.605970	0.053430	0.771630
N571	N57	0.624540	0.004060	0.956160
N581	N58	0.791270	0.961930	0.804530
Al301	Al30	0.260050	0.389940	0.181490
O881	O88	0.229230	0.357570	0.235610
C881	C88	0.231830	0.342070	0.314200
O891	O89	0.275050	0.312540	0.178170
C891	C89	0.390530	0.225970	0.152270
O901	O90	0.306130	0.416870	0.138980
C901	C90	0.272630	0.386770	0.104970
N591	N59	0.291200	0.337400	0.289500
N601	N60	0.457930	0.295270	0.137870
Al311	Al31	0.796550	0.073280	0.514820
O911	O91	0.795000	0.104100	0.568940
C911	C91	0.776900	0.101500	0.647530
O921	O92	0.704150	0.058280	0.511500
C921	C92	0.502100	0.942800	0.485600
O931	O93	0.777400	0.027200	0.472310
C931	C93	0.780800	0.060700	0.438300
N611	N61	0.712860	0.042130	0.622830
N621	N62	0.504000	0.875400	0.471200
Al321	Al32	0.463220	0.406610	0.848150
O941	O94	0.461670	0.437430	0.902270
C941	C94	0.443570	0.434830	0.980860
O951	O95	0.370820	0.391610	0.844830
C951	C95	0.168770	0.276130	0.818930
O961	O96	0.444070	0.360530	0.805640
C961	C96	0.447470	0.394030	0.771630
N631	N63	0.379530	0.375460	0.956160
N641	N64	0.170670	0.208730	0.804530
Al331	Al33	0.129880	0.739950	0.181490
O971	O97	0.128330	0.770770	0.235610
C971	C97	0.110230	0.768170	0.314200
O981	O98	0.037480	0.724950	0.178170
C981	C98	0.835430	0.609470	0.152270
O991	O99	0.110730	0.693870	0.138980
C991	C99	0.114130	0.727370	0.104970
N651	N65	0.046190	0.708800	0.289500
N661	N66	0.837330	0.542070	0.137870
Al341	Al34	0.276730	0.203450	0.514820
O1001	O100	0.309100	0.205000	0.568940
C1001	C100	0.324600	0.223100	0.647530
O1011	O101	0.354130	0.295850	0.511500
C1011	C101	0.440700	0.497900	0.485600
O1021	O102	0.249800	0.222600	0.472310
C1021	C102	0.279900	0.219200	0.438300
N671	N67	0.329270	0.287140	0.622830
N681	N68	0.371400	0.496000	0.471200
Al351	Al35	0.943400	0.536780	0.848150
O1031	O103	0.975770	0.538330	0.902270
C1031	C103	0.991270	0.556430	0.980860
O1041	O104	0.020800	0.629180	0.844830
C1041	C104	0.107370	0.831230	0.818930
O1051	O105	0.916470	0.555930	0.805640
C1051	C105	0.946570	0.552530	0.771630
N691	N69	0.995940	0.620470	0.956160
N701	N70	0.038070	0.829330	0.804530
Al361	Al36	0.610060	0.870120	0.181490
O1061	O106	0.642430	0.871670	0.235610
C1061	C106	0.657930	0.889770	0.314200
O1071	O107	0.687460	0.962520	0.178170
C1071	C107	0.774030	0.164570	0.152270
O1081	O108	0.583130	0.889270	0.138980
C1081	C108	0.613230	0.885870	0.104970
N711	N71	0.662600	0.953810	0.289500
N721	N72	0.704730	0.162670	0.137870
C1091	C109	0.315800	0.157900	0.586800
C1101	C110	0.331900	0.165950	0.632000
O1091	O109	0.331500	0.165750	0.501900
C1111	C111	0.386400	0.193200	0.477300
O1101	O110	0.196700	0.098350	0.520020
C1121	C112	0.982470	0.491230	0.920130
C1131	C113	0.998570	0.499280	0.965330
O1111	O111	0.998170	0.499080	0.835230
C1141	C114	0.053070	0.526530	0.810630
O1121	O112	0.863370	0.431680	0.853350
C1151	C115	0.649130	0.824570	0.253470
C1161	C116	0.665230	0.832620	0.298670
O1131	O113	0.664830	0.832420	0.168570
C1171	C117	0.719730	0.859870	0.143970
O1141	O114	0.530030	0.765020	0.186690
C1181	C118	0.842100	0.157900	0.586800
C1191	C119	0.834050	0.165950	0.632000
O1151	O115	0.834250	0.165750	0.501900
C1201	C120	0.806800	0.193200	0.477300
O1161	O116	0.901650	0.098350	0.520020
C1211	C121	0.508770	0.491230	0.920130
C1221	C122	0.500720	0.499280	0.965330
O1171	O117	0.500920	0.499080	0.835230
C1231	C123	0.473470	0.526530	0.810630
O1181	O118	0.568320	0.431680	0.853350
C1241	C124	0.175430	0.824570	0.253470
C1251	C125	0.167380	0.832620	0.298670
O1191	O119	0.167580	0.832420	0.168570
C1261	C126	0.140130	0.859870	0.143970
O1201	O120	0.234980	0.765020	0.186690
C1271	C127	0.842100	0.684200	0.586800
C1281	C128	0.834050	0.668100	0.632000
O1211	O121	0.834250	0.668500	0.501900
C1291	C129	0.806800	0.613600	0.477300
O1221	O122	0.901650	0.803300	0.520020
C1301	C130	0.508770	0.017530	0.920130
C1311	C131	0.500720	0.001430	0.965330
O1231	O123	0.500920	0.001830	0.835230
C1321	C132	0.473470	0.946930	0.810630
O1241	O124	0.568320	0.136630	0.853350
C1331	C133	0.175430	0.350870	0.253470
C1341	C134	0.167380	0.334770	0.298670
O1251	O125	0.167580	0.335170	0.168570
C1351	C135	0.140130	0.280270	0.143970
O1261	O126	0.234980	0.469970	0.186690
C1361	C136	0.157900	0.315800	0.413200
C1371	C137	0.165950	0.331900	0.368000
O1271	O127	0.165750	0.331500	0.498100
C1381	C138	0.193200	0.386400	0.522700
O1281	O128	0.098350	0.196700	0.479980
C1391	C139	0.824570	0.649130	0.746530
C1401	C140	0.832620	0.665230	0.701330
O1291	O129	0.832420	0.664830	0.831430
C1411	C141	0.859870	0.719730	0.856030
O1301	O130	0.765020	0.530030	0.813310
C1421	C142	0.491230	0.982470	0.079870
C1431	C143	0.499280	0.998570	0.034670
O1311	O131	0.499080	0.998170	0.164770
C1441	C144	0.526530	0.053070	0.189370
O1321	O132	0.431680	0.863370	0.146650
C1451	C145	0.157900	0.842100	0.413200
C1461	C146	0.165950	0.834050	0.368000
O1331	O133	0.165750	0.834250	0.498100
C1471	C147	0.193200	0.806800	0.522700
O1341	O134	0.098350	0.901650	0.479980
C1481	C148	0.824570	0.175430	0.746530
C1491	C149	0.832620	0.167380	0.701330
O1351	O135	0.832420	0.167580	0.831430
C1501	C150	0.859870	0.140130	0.856030
O1361	O136	0.765020	0.234980	0.813310
C1511	C151	0.491230	0.508770	0.079870
C1521	C152	0.499280	0.500720	0.034670
O1371	O137	0.499080	0.500920	0.164770
C1531	C153	0.526530	0.473470	0.189370
O1381	O138	0.431680	0.568320	0.146650
C1541	C154	0.684200	0.842100	0.413200
C1551	C155	0.668100	0.834050	0.368000
O1391	O139	0.668500	0.834250	0.498100
C1561	C156	0.613600	0.806800	0.522700
O1401	O140	0.803300	0.901650	0.479980
C1571	C157	0.350870	0.175430	0.746530
C1581	C158	0.334770	0.167380	0.701330
O1411	O141	0.335170	0.167580	0.831430
C1591	C159	0.280270	0.140130	0.856030
O1421	O142	0.469970	0.234980	0.813310
C1601	C160	0.017530	0.508770	0.079870
C1611	C161	0.001430	0.500720	0.034670
O1431	O143	0.001830	0.500920	0.164770
C1621	C162	0.946930	0.473470	0.189370
O1441	O144	0.136630	0.568320	0.146650
C1631	C163	0.364400	0.000000	0.500000
C1641	C164	0.437500	0.000000	0.500000
C1651	C165	0.031070	0.333330	0.833330
C1661	C166	0.104170	0.333330	0.833330
C1671	C167	0.697730	0.666670	0.166670
C1681	C168	0.770830	0.666670	0.166670
C1691	C169	0.000000	0.364400	0.500000
C1701	C170	0.000000	0.437500	0.500000
C1711	C171	0.666670	0.697730	0.833330
C1721	C172	0.666670	0.770830	0.833330
C1731	C173	0.333330	0.031070	0.166670
C1741	C174	0.333330	0.104170	0.166670
C1751	C175	0.635600	0.635600	0.500000
C1761	C176	0.562500	0.562500	0.500000
C1771	C177	0.302270	0.968930	0.833330
C1781	C178	0.229170	0.895830	0.833330
C1791	C179	0.968930	0.302270	0.166670
C1801	C180	0.895830	0.229170	0.166670
C1811	C181	0.635600	0.000000	0.500000
C1821	C182	0.562500	0.000000	0.500000
C1831	C183	0.302270	0.333330	0.833330
C1841	C184	0.229170	0.333330	0.833330
C1851	C185	0.968930	0.666670	0.166670
C1861	C186	0.895830	0.666670	0.166670
C1871	C187	0.000000	0.635600	0.500000
C1881	C188	0.000000	0.562500	0.500000
C1891	C189	0.666670	0.968930	0.833330
C1901	C190	0.666670	0.895830	0.833330
C1911	C191	0.333330	0.302270	0.166670
C1921	C192	0.333330	0.229170	0.166670
C1931	C193	0.364400	0.364400	0.500000
C1941	C194	0.437500	0.437500	0.500000
C1951	C195	0.031070	0.697730	0.833330
C1961	C196	0.104170	0.770830	0.833330
C1971	C197	0.697730	0.031070	0.166670
C1981	C198	0.770830	0.104170	0.166670
