data_CAXTAY_clean_PM
_symmetry_space_group_name_H-M	'P1'
_cell_length_a	21.105100
_cell_length_b	21.105100
_cell_length_c	34.888400
_cell_angle_alpha	90.000000
_cell_angle_beta	90.000000
_cell_angle_gamma	120.000000
_symmetry_Int_Tables_number 1

loop_
_symmetry_equiv_pos_as_xyz
'x,y,z'

loop_
_atom_site_label
_atom_site_type_symbol
_atom_site_fract_x
_atom_site_fract_y
_atom_site_fract_z
Al11	Al1	0.282720	0.074190	0.515380
O11	O1	0.314860	0.104640	0.568460
C11	C1	0.327610	0.106130	0.646790
O21	O2	0.367920	0.058590	0.511700
C21	C2	0.437490	0.940910	0.485890
O31	O3	0.248150	0.021000	0.468820
C31	C3	0.270200	0.060100	0.432100
Al21	Al2	0.949390	0.407520	0.848710
O41	O4	0.981530	0.437970	0.901790
C41	C4	0.994280	0.439460	0.980120
O51	O5	0.034590	0.391920	0.845030
C51	C5	0.104160	0.274240	0.819220
O61	O6	0.914820	0.354330	0.802150
C61	C6	0.936870	0.393430	0.765430
Al31	Al3	0.616050	0.740860	0.182050
O71	O7	0.648190	0.771310	0.235130
C71	C7	0.660940	0.772800	0.313460
O81	O8	0.701250	0.725260	0.178370
C81	C8	0.770820	0.607580	0.152560
O91	O9	0.581480	0.687670	0.135490
C91	C9	0.603530	0.726770	0.098770
Al41	Al4	0.925810	0.208530	0.515380
O101	O10	0.895360	0.210220	0.568460
C101	C10	0.893870	0.221480	0.646790
O111	O11	0.941410	0.309330	0.511700
C111	C11	0.059090	0.496580	0.485890
O121	O12	0.979000	0.227150	0.468820
C121	C12	0.939900	0.210100	0.432100
Al51	Al5	0.592480	0.541860	0.848710
O131	O13	0.562030	0.543550	0.901790
C131	C13	0.560540	0.554810	0.980120
O141	O14	0.608080	0.642660	0.845030
C141	C14	0.725760	0.829910	0.819220
O151	O15	0.645670	0.560480	0.802150
C151	C15	0.606570	0.543430	0.765430
Al61	Al6	0.259140	0.875200	0.182050
O161	O16	0.228690	0.876890	0.235130
C161	C16	0.227200	0.888150	0.313460
O171	O17	0.274740	0.976000	0.178370
C171	C17	0.392420	0.163250	0.152560
O181	O18	0.312330	0.893820	0.135490
C181	C18	0.273230	0.876770	0.098770
Al71	Al7	0.791470	0.717280	0.515380
O191	O19	0.789780	0.685140	0.568460
C191	C19	0.778520	0.672390	0.646790
O201	O20	0.690670	0.632080	0.511700
C201	C20	0.503420	0.562510	0.485890
O211	O21	0.772850	0.751850	0.468820
C211	C21	0.789900	0.729800	0.432100
Al81	Al8	0.458140	0.050610	0.848710
O221	O22	0.456450	0.018470	0.901790
C221	C22	0.445190	0.005720	0.980120
O231	O23	0.357340	0.965410	0.845030
C231	C23	0.170090	0.895840	0.819220
O241	O24	0.439520	0.085180	0.802150
C241	C24	0.456570	0.063130	0.765430
Al91	Al9	0.124800	0.383950	0.182050
O251	O25	0.123110	0.351810	0.235130
C251	C25	0.111850	0.339060	0.313460
O261	O26	0.024000	0.298750	0.178370
C261	C26	0.836750	0.229180	0.152560
O271	O27	0.106180	0.418520	0.135490
C271	C27	0.123230	0.396470	0.098770
Al101	Al10	0.074190	0.282720	0.484620
O281	O28	0.104640	0.314860	0.431540
C281	C28	0.106130	0.327610	0.353210
O291	O29	0.058590	0.367920	0.488300
C291	C29	0.940910	0.437490	0.514110
O301	O30	0.021000	0.248150	0.531180
C301	C30	0.060100	0.270200	0.567900
Al111	Al11	0.740860	0.616050	0.817950
O311	O31	0.771310	0.648190	0.764870
C311	C31	0.772800	0.660940	0.686540
O321	O32	0.725260	0.701250	0.821630
C321	C32	0.607580	0.770820	0.847440
O331	O33	0.687670	0.581480	0.864510
C331	C33	0.726770	0.603530	0.901230
Al121	Al12	0.407520	0.949390	0.151290
O341	O34	0.437970	0.981530	0.098210
C341	C34	0.439460	0.994280	0.019880
O351	O35	0.391920	0.034590	0.154970
C351	C35	0.274240	0.104160	0.180780
O361	O36	0.354330	0.914820	0.197850
C361	C36	0.393430	0.936870	0.234570
Al131	Al13	0.208530	0.925810	0.484620
O371	O37	0.210220	0.895360	0.431540
C371	C37	0.221480	0.893870	0.353210
O381	O38	0.309330	0.941410	0.488300
C381	C38	0.496580	0.059090	0.514110
O391	O39	0.227150	0.979000	0.531180
C391	C39	0.210100	0.939900	0.567900
Al141	Al14	0.875200	0.259140	0.817950
O401	O40	0.876890	0.228690	0.764870
C401	C40	0.888150	0.227200	0.686540
O411	O41	0.976000	0.274740	0.821630
C411	C41	0.163250	0.392420	0.847440
O421	O42	0.893820	0.312330	0.864510
C421	C42	0.876770	0.273230	0.901230
Al151	Al15	0.541860	0.592480	0.151290
O431	O43	0.543550	0.562030	0.098210
C431	C43	0.554810	0.560540	0.019880
O441	O44	0.642660	0.608080	0.154970
C441	C44	0.829910	0.725760	0.180780
O451	O45	0.560480	0.645670	0.197850
C451	C45	0.543430	0.606570	0.234570
Al161	Al16	0.717280	0.791470	0.484620
O461	O46	0.685140	0.789780	0.431540
C461	C46	0.672390	0.778520	0.353210
O471	O47	0.632080	0.690670	0.488300
C471	C47	0.562510	0.503420	0.514110
O481	O48	0.751850	0.772850	0.531180
C481	C48	0.729800	0.789900	0.567900
Al171	Al17	0.383950	0.124800	0.817950
O491	O49	0.351810	0.123110	0.764870
C491	C49	0.339060	0.111850	0.686540
O501	O50	0.298750	0.024000	0.821630
C501	C50	0.229180	0.836750	0.847440
O511	O51	0.418520	0.106180	0.864510
C511	C51	0.396470	0.123230	0.901230
Al181	Al18	0.050610	0.458140	0.151290
O521	O52	0.018470	0.456450	0.098210
C521	C52	0.005720	0.445190	0.019880
O531	O53	0.965410	0.357340	0.154970
C531	C53	0.895840	0.170090	0.180780
O541	O54	0.085180	0.439520	0.197850
C541	C54	0.063130	0.456570	0.234570
Al191	Al19	0.717280	0.925810	0.484620
O551	O55	0.685140	0.895360	0.431540
C551	C55	0.672390	0.893870	0.353210
O561	O56	0.632080	0.941410	0.488300
C561	C56	0.562510	0.059090	0.514110
O571	O57	0.751850	0.979000	0.531180
C571	C57	0.729800	0.939900	0.567900
Al201	Al20	0.383950	0.259140	0.817950
O581	O58	0.351810	0.228690	0.764870
C581	C58	0.339060	0.227200	0.686540
O591	O59	0.298750	0.274740	0.821630
C591	C59	0.229180	0.392420	0.847440
O601	O60	0.418520	0.312330	0.864510
C601	C60	0.396470	0.273230	0.901230
Al211	Al21	0.050610	0.592480	0.151290
O611	O61	0.018470	0.562030	0.098210
C611	C61	0.005720	0.560540	0.019880
O621	O62	0.965410	0.608080	0.154970
C621	C62	0.895840	0.725760	0.180780
O631	O63	0.085180	0.645670	0.197850
C631	C63	0.063130	0.606570	0.234570
Al221	Al22	0.074190	0.791470	0.484620
O641	O64	0.104640	0.789780	0.431540
C641	C64	0.106130	0.778520	0.353210
O651	O65	0.058590	0.690670	0.488300
C651	C65	0.940910	0.503420	0.514110
O661	O66	0.021000	0.772850	0.531180
C661	C66	0.060100	0.789900	0.567900
Al231	Al23	0.740860	0.124800	0.817950
O671	O67	0.771310	0.123110	0.764870
C671	C67	0.772800	0.111850	0.686540
O681	O68	0.725260	0.024000	0.821630
C681	C68	0.607580	0.836750	0.847440
O691	O69	0.687670	0.106180	0.864510
C691	C69	0.726770	0.123230	0.901230
Al241	Al24	0.407520	0.458140	0.151290
O701	O70	0.437970	0.456450	0.098210
C701	C70	0.439460	0.445190	0.019880
O711	O71	0.391920	0.357340	0.154970
C711	C71	0.274240	0.170090	0.180780
O721	O72	0.354330	0.439520	0.197850
C721	C72	0.393430	0.456570	0.234570
Al251	Al25	0.208530	0.282720	0.484620
O731	O73	0.210220	0.314860	0.431540
C731	C73	0.221480	0.327610	0.353210
O741	O74	0.309330	0.367920	0.488300
C741	C74	0.496580	0.437490	0.514110
O751	O75	0.227150	0.248150	0.531180
C751	C75	0.210100	0.270200	0.567900
Al261	Al26	0.875200	0.616050	0.817950
O761	O76	0.876890	0.648190	0.764870
C761	C76	0.888150	0.660940	0.686540
O771	O77	0.976000	0.701250	0.821630
C771	C77	0.163250	0.770820	0.847440
O781	O78	0.893820	0.581480	0.864510
C781	C78	0.876770	0.603530	0.901230
Al271	Al27	0.541860	0.949390	0.151290
O791	O79	0.543550	0.981530	0.098210
C791	C79	0.554810	0.994280	0.019880
O801	O80	0.642660	0.034590	0.154970
C801	C80	0.829910	0.104160	0.180780
O811	O81	0.560480	0.914820	0.197850
C811	C81	0.543430	0.936870	0.234570
Al281	Al28	0.925810	0.717280	0.515380
O821	O82	0.895360	0.685140	0.568460
C821	C82	0.893870	0.672390	0.646790
O831	O83	0.941410	0.632080	0.511700
C831	C83	0.059090	0.562510	0.485890
O841	O84	0.979000	0.751850	0.468820
C841	C84	0.939900	0.729800	0.432100
Al291	Al29	0.592480	0.050610	0.848710
O851	O85	0.562030	0.018470	0.901790
C851	C85	0.560540	0.005720	0.980120
O861	O86	0.608080	0.965410	0.845030
C861	C86	0.725760	0.895840	0.819220
O871	O87	0.645670	0.085180	0.802150
C871	C87	0.606570	0.063130	0.765430
Al301	Al30	0.259140	0.383950	0.182050
O881	O88	0.228690	0.351810	0.235130
C881	C88	0.227200	0.339060	0.313460
O891	O89	0.274740	0.298750	0.178370
C891	C89	0.392420	0.229180	0.152560
O901	O90	0.312330	0.418520	0.135490
C901	C90	0.273230	0.396470	0.098770
Al311	Al31	0.791470	0.074190	0.515380
O911	O91	0.789780	0.104640	0.568460
C911	C91	0.778520	0.106130	0.646790
O921	O92	0.690670	0.058590	0.511700
C921	C92	0.503420	0.940910	0.485890
O931	O93	0.772850	0.021000	0.468820
C931	C93	0.789900	0.060100	0.432100
Al321	Al32	0.458140	0.407520	0.848710
O941	O94	0.456450	0.437970	0.901790
C941	C94	0.445190	0.439460	0.980120
O951	O95	0.357340	0.391920	0.845030
C951	C95	0.170090	0.274240	0.819220
O961	O96	0.439520	0.354330	0.802150
C961	C96	0.456570	0.393430	0.765430
Al331	Al33	0.124800	0.740860	0.182050
O971	O97	0.123110	0.771310	0.235130
C971	C97	0.111850	0.772800	0.313460
O981	O98	0.024000	0.725260	0.178370
C981	C98	0.836750	0.607580	0.152560
O991	O99	0.106180	0.687670	0.135490
C991	C99	0.123230	0.726770	0.098770
Al341	Al34	0.282720	0.208530	0.515380
O1001	O100	0.314860	0.210220	0.568460
C1001	C100	0.327610	0.221480	0.646790
O1011	O101	0.367920	0.309330	0.511700
C1011	C101	0.437490	0.496580	0.485890
O1021	O102	0.248150	0.227150	0.468820
C1021	C102	0.270200	0.210100	0.432100
Al351	Al35	0.949390	0.541860	0.848710
O1031	O103	0.981530	0.543550	0.901790
C1031	C103	0.994280	0.554810	0.980120
O1041	O104	0.034590	0.642660	0.845030
C1041	C104	0.104160	0.829910	0.819220
O1051	O105	0.914820	0.560480	0.802150
C1051	C105	0.936870	0.543430	0.765430
Al361	Al36	0.616050	0.875200	0.182050
O1061	O106	0.648190	0.876890	0.235130
C1061	C106	0.660940	0.888150	0.313460
O1071	O107	0.701250	0.976000	0.178370
C1071	C107	0.770820	0.163250	0.152560
O1081	O108	0.581480	0.893820	0.135490
C1081	C108	0.603530	0.876770	0.098770
C1091	C109	0.315800	0.157900	0.583170
C1101	C110	0.325420	0.162710	0.627030
O1091	O109	0.343700	0.171850	0.496540
C1111	C111	0.421100	0.210550	0.484670
O1101	O110	0.214900	0.107450	0.521610
C1121	C112	0.140000	0.070000	0.540320
C1131	C113	0.982470	0.491230	0.916500
C1141	C114	0.992090	0.496040	0.960360
O1111	O111	0.010370	0.505180	0.829870
C1151	C115	0.087770	0.543880	0.818000
O1121	O112	0.881570	0.440780	0.854940
C1161	C116	0.806670	0.403330	0.873650
C1171	C117	0.649130	0.824570	0.249840
C1181	C118	0.658750	0.829380	0.293700
O1131	O113	0.677030	0.838520	0.163210
C1191	C119	0.754430	0.877220	0.151340
O1141	O114	0.548230	0.774120	0.188280
C1201	C120	0.473330	0.736670	0.206990
C1211	C121	0.842100	0.157900	0.583170
C1221	C122	0.837290	0.162710	0.627030
O1151	O115	0.828150	0.171850	0.496540
C1231	C123	0.789450	0.210550	0.484670
O1161	O116	0.892550	0.107450	0.521610
C1241	C124	0.930000	0.070000	0.540320
C1251	C125	0.508770	0.491230	0.916500
C1261	C126	0.503960	0.496040	0.960360
O1171	O117	0.494820	0.505180	0.829870
C1271	C127	0.456120	0.543880	0.818000
O1181	O118	0.559220	0.440780	0.854940
C1281	C128	0.596670	0.403330	0.873650
C1291	C129	0.175430	0.824570	0.249840
C1301	C130	0.170620	0.829380	0.293700
O1191	O119	0.161480	0.838520	0.163210
C1311	C131	0.122780	0.877220	0.151340
O1201	O120	0.225880	0.774120	0.188280
C1321	C132	0.263330	0.736670	0.206990
C1331	C133	0.842100	0.684200	0.583170
C1341	C134	0.837290	0.674580	0.627030
O1211	O121	0.828150	0.656300	0.496540
C1351	C135	0.789450	0.578900	0.484670
O1221	O122	0.892550	0.785100	0.521610
C1361	C136	0.930000	0.860000	0.540320
C1371	C137	0.508770	0.017530	0.916500
C1381	C138	0.503960	0.007910	0.960360
O1231	O123	0.494820	0.989630	0.829870
C1391	C139	0.456120	0.912230	0.818000
O1241	O124	0.559220	0.118430	0.854940
C1401	C140	0.596670	0.193330	0.873650
C1411	C141	0.175430	0.350870	0.249840
C1421	C142	0.170620	0.341250	0.293700
O1251	O125	0.161480	0.322970	0.163210
C1431	C143	0.122780	0.245570	0.151340
O1261	O126	0.225880	0.451770	0.188280
C1441	C144	0.263330	0.526670	0.206990
C1451	C145	0.157900	0.315800	0.416830
C1461	C146	0.162710	0.325420	0.372970
O1271	O127	0.171850	0.343700	0.503460
C1471	C147	0.210550	0.421100	0.515330
O1281	O128	0.107450	0.214900	0.478390
C1481	C148	0.070000	0.140000	0.459680
C1491	C149	0.824570	0.649130	0.750160
C1501	C150	0.829380	0.658750	0.706300
O1291	O129	0.838520	0.677030	0.836790
C1511	C151	0.877220	0.754430	0.848660
O1301	O130	0.774120	0.548230	0.811720
C1521	C152	0.736670	0.473330	0.793010
C1531	C153	0.491230	0.982470	0.083500
C1541	C154	0.496040	0.992090	0.039640
O1311	O131	0.505180	0.010370	0.170130
C1551	C155	0.543880	0.087770	0.182000
O1321	O132	0.440780	0.881570	0.145060
C1561	C156	0.403330	0.806670	0.126350
C1571	C157	0.157900	0.842100	0.416830
C1581	C158	0.162710	0.837290	0.372970
O1331	O133	0.171850	0.828150	0.503460
C1591	C159	0.210550	0.789450	0.515330
O1341	O134	0.107450	0.892550	0.478390
C1601	C160	0.070000	0.930000	0.459680
C1611	C161	0.824570	0.175430	0.750160
C1621	C162	0.829380	0.170620	0.706300
O1351	O135	0.838520	0.161480	0.836790
C1631	C163	0.877220	0.122780	0.848660
O1361	O136	0.774120	0.225880	0.811720
C1641	C164	0.736670	0.263330	0.793010
C1651	C165	0.491230	0.508770	0.083500
C1661	C166	0.496040	0.503960	0.039640
O1371	O137	0.505180	0.494820	0.170130
C1671	C167	0.543880	0.456120	0.182000
O1381	O138	0.440780	0.559220	0.145060
C1681	C168	0.403330	0.596670	0.126350
C1691	C169	0.684200	0.842100	0.416830
C1701	C170	0.674580	0.837290	0.372970
O1391	O139	0.656300	0.828150	0.503460
C1711	C171	0.578900	0.789450	0.515330
O1401	O140	0.785100	0.892550	0.478390
C1721	C172	0.860000	0.930000	0.459680
C1731	C173	0.350870	0.175430	0.750160
C1741	C174	0.341250	0.170620	0.706300
O1411	O141	0.322970	0.161480	0.836790
C1751	C175	0.245570	0.122780	0.848660
O1421	O142	0.451770	0.225880	0.811720
C1761	C176	0.526670	0.263330	0.793010
C1771	C177	0.017530	0.508770	0.083500
C1781	C178	0.007910	0.503960	0.039640
O1431	O143	0.989630	0.494820	0.170130
C1791	C179	0.912230	0.456120	0.182000
O1441	O144	0.118430	0.559220	0.145060
C1801	C180	0.193330	0.596670	0.126350
C1811	C181	0.360920	0.000000	0.500000
C1821	C182	0.433970	0.000000	0.500000
C1831	C183	0.027590	0.333330	0.833330
C1841	C184	0.100640	0.333330	0.833330
C1851	C185	0.694250	0.666670	0.166670
C1861	C186	0.767300	0.666670	0.166670
C1871	C187	0.000000	0.360920	0.500000
C1881	C188	0.000000	0.433970	0.500000
C1891	C189	0.666670	0.694250	0.833330
C1901	C190	0.666670	0.767300	0.833330
C1911	C191	0.333330	0.027590	0.166670
C1921	C192	0.333330	0.100640	0.166670
C1931	C193	0.639080	0.639080	0.500000
C1941	C194	0.566030	0.566030	0.500000
C1951	C195	0.305750	0.972410	0.833330
C1961	C196	0.232700	0.899360	0.833330
C1971	C197	0.972410	0.305750	0.166670
C1981	C198	0.899360	0.232700	0.166670
C1991	C199	0.639080	0.000000	0.500000
C2001	C200	0.566030	0.000000	0.500000
C2011	C201	0.305750	0.333330	0.833330
C2021	C202	0.232700	0.333330	0.833330
C2031	C203	0.972410	0.666670	0.166670
C2041	C204	0.899360	0.666670	0.166670
C2051	C205	0.000000	0.639080	0.500000
C2061	C206	0.000000	0.566030	0.500000
C2071	C207	0.666670	0.972410	0.833330
C2081	C208	0.666670	0.899360	0.833330
C2091	C209	0.333330	0.305750	0.166670
C2101	C210	0.333330	0.232700	0.166670
C2111	C211	0.360920	0.360920	0.500000
C2121	C212	0.433970	0.433970	0.500000
C2131	C213	0.027590	0.694250	0.833330
C2141	C214	0.100640	0.767300	0.833330
C2151	C215	0.694250	0.027590	0.166670
C2161	C216	0.767300	0.100640	0.166670
