data_CAXWAB_clean_PM
_symmetry_space_group_name_H-M	'P1'
_cell_length_a	6.837600
_cell_length_b	15.161000
_cell_length_c	15.161000
_cell_angle_alpha	62.218600
_cell_angle_beta	81.353700
_cell_angle_gamma	98.646300
_symmetry_Int_Tables_number 1

loop_
_symmetry_equiv_pos_as_xyz
'x,y,z'

loop_
_atom_site_label
_atom_site_type_symbol
_atom_site_fract_x
_atom_site_fract_y
_atom_site_fract_z
Fe11	Fe1	0.897900	0.685200	0.585900
Fe21	Fe2	0.483800	0.585900	0.728900
Fe31	Fe3	0.212700	0.728900	0.685200
Fe41	Fe4	0.102100	0.314800	0.414100
Fe51	Fe5	0.516200	0.414100	0.271100
Fe61	Fe6	0.787300	0.271100	0.314800
H11	H1	0.653900	0.019500	0.540400
H21	H2	0.194300	0.540400	0.440100
H31	H3	0.634400	0.440100	0.019500
H41	H4	0.346100	0.980500	0.459600
H51	H5	0.805700	0.459600	0.559900
H61	H6	0.365600	0.559900	0.980500
C11	C1	0.658900	0.820800	0.618000
C21	C2	0.831900	0.909700	0.546400
C31	C3	0.037700	0.897200	0.534800
C41	C4	0.811100	0.004000	0.527000
C51	C5	0.276900	0.618000	0.561200
C61	C6	0.378300	0.546400	0.543900
C71	C7	0.572500	0.534800	0.568000
C81	C8	0.338100	0.527000	0.469000
C91	C9	0.838100	0.561200	0.820800
C101	C10	0.922200	0.543900	0.909700
C111	C11	0.140500	0.568000	0.897200
C121	C12	0.807100	0.469000	0.004000
C131	C13	0.341100	0.179200	0.382000
C141	C14	0.168100	0.090300	0.453600
C151	C15	0.962300	0.102800	0.465200
C161	C16	0.188900	0.996000	0.473000
C171	C17	0.723100	0.382000	0.438800
C181	C18	0.621700	0.453600	0.456100
C191	C19	0.427500	0.465200	0.432000
C201	C20	0.661900	0.473000	0.531000
C211	C21	0.161900	0.438800	0.179200
C221	C22	0.077800	0.456100	0.090300
C231	C23	0.859500	0.432000	0.102800
C241	C24	0.192900	0.531000	0.996000
O11	O1	0.678500	0.728400	0.644400
O21	O2	0.480400	0.862600	0.613900
O31	O3	0.079700	0.809000	0.565700
O41	O4	0.322900	0.644400	0.627200
O51	O5	0.094300	0.613900	0.523500
O61	O6	0.645400	0.565700	0.625300
O71	O7	0.950100	0.627200	0.728400
O81	O8	0.617800	0.523500	0.862600
O91	O9	0.270700	0.625300	0.809000
O101	O10	0.321500	0.271600	0.355600
O111	O11	0.519600	0.137400	0.386100
O121	O12	0.920300	0.191000	0.434300
O131	O13	0.677100	0.355600	0.372800
O141	O14	0.905700	0.386100	0.476500
O151	O15	0.354600	0.434300	0.374700
O161	O16	0.049900	0.372800	0.271600
O171	O17	0.382200	0.476500	0.137400
O181	O18	0.729300	0.374700	0.191000
