data_CAYDUD_clean_PM
_symmetry_space_group_name_H-M	'P1'
_cell_length_a	12.391900
_cell_length_b	12.391900
_cell_length_c	7.904300
_cell_angle_alpha	90.000000
_cell_angle_beta	90.000000
_cell_angle_gamma	90.000000
_symmetry_Int_Tables_number 1

loop_
_symmetry_equiv_pos_as_xyz
'x,y,z'

loop_
_atom_site_label
_atom_site_type_symbol
_atom_site_fract_x
_atom_site_fract_y
_atom_site_fract_z
Cu11	Cu1	0.514290	0.823130	0.805050
C11	C1	0.663700	0.645100	0.722700
C21	C2	0.675200	0.618500	0.908800
H11	H1	0.719400	0.554300	0.919800
H21	H2	0.604400	0.601700	0.954000
C31	C3	0.725100	0.708200	0.015500
H31	H3	0.733600	0.684800	0.131900
H41	H4	0.795500	0.728000	0.971400
C41	C4	0.680800	0.883900	0.127000
H51	H5	0.758800	0.889100	0.133900
H61	H6	0.653600	0.865200	0.238300
C51	C5	0.634800	0.990200	0.073100
H71	H7	0.658900	0.045800	0.150900
H81	H8	0.662100	0.008100	0.961600
C61	C6	0.515300	0.989700	0.068500
N11	N1	0.600100	0.724100	0.666900
N21	N2	0.607300	0.723700	0.496500
N31	N3	0.673700	0.646100	0.452600
N41	N4	0.708300	0.598200	0.594600
N51	N5	0.454800	0.921100	0.976800
N61	N6	0.350000	0.945400	0.005700
N71	N7	0.342200	0.023100	0.113400
N81	N8	0.447200	0.052400	0.158500
O11	O1	0.651000	0.800000	0.006100
Cu21	Cu2	0.485710	0.176870	0.305050
C71	C7	0.336300	0.354900	0.222700
C81	C8	0.324800	0.381500	0.408800
H91	H9	0.280600	0.445700	0.419800
H101	H10	0.395600	0.398300	0.454000
C91	C9	0.274900	0.291800	0.515500
H111	H11	0.266400	0.315200	0.631900
H121	H12	0.204500	0.272000	0.471400
C101	C10	0.319200	0.116100	0.627000
H131	H13	0.241200	0.110900	0.633900
H141	H14	0.346400	0.134800	0.738300
C111	C11	0.365200	0.009800	0.573100
H151	H15	0.341100	0.954200	0.650900
H161	H16	0.337900	0.991900	0.461600
C121	C12	0.484700	0.010300	0.568500
N91	N9	0.399900	0.275900	0.166900
N101	N10	0.392700	0.276300	0.996500
N111	N11	0.326300	0.353900	0.952600
N121	N12	0.291700	0.401800	0.094600
N131	N13	0.545200	0.078900	0.476800
N141	N14	0.650000	0.054600	0.505700
N151	N15	0.657800	0.976900	0.613400
N161	N16	0.552800	0.947600	0.658500
O21	O2	0.349000	0.200000	0.506100
Cu31	Cu3	0.176870	0.514290	0.055050
C131	C13	0.354900	0.663700	0.972700
C141	C14	0.381500	0.675200	0.158800
H171	H17	0.445700	0.719400	0.169800
H181	H18	0.398300	0.604400	0.204000
C151	C15	0.291800	0.725100	0.265500
H191	H19	0.315200	0.733600	0.381900
H201	H20	0.272000	0.795500	0.221400
C161	C16	0.116100	0.680800	0.377000
H211	H21	0.110900	0.758800	0.383900
H221	H22	0.134800	0.653600	0.488300
C171	C17	0.009800	0.634800	0.323100
H231	H23	0.954200	0.658900	0.400900
H241	H24	0.991900	0.662100	0.211600
C181	C18	0.010300	0.515300	0.318500
N171	N17	0.275900	0.600100	0.916900
N181	N18	0.276300	0.607300	0.746500
N191	N19	0.353900	0.673700	0.702600
N201	N20	0.401800	0.708300	0.844600
N211	N21	0.078900	0.454800	0.226800
N221	N22	0.054600	0.350000	0.255700
N231	N23	0.976900	0.342200	0.363400
N241	N24	0.947600	0.447200	0.408500
O31	O3	0.200000	0.651000	0.256100
Cu41	Cu4	0.823130	0.485710	0.555050
C191	C19	0.645100	0.336300	0.472700
C201	C20	0.618500	0.324800	0.658800
H251	H25	0.554300	0.280600	0.669800
H261	H26	0.601700	0.395600	0.704000
C211	C21	0.708200	0.274900	0.765500
H271	H27	0.684800	0.266400	0.881900
H281	H28	0.728000	0.204500	0.721400
C221	C22	0.883900	0.319200	0.877000
H291	H29	0.889100	0.241200	0.883900
H301	H30	0.865200	0.346400	0.988300
C231	C23	0.990200	0.365200	0.823100
H311	H31	0.045800	0.341100	0.900900
H321	H32	0.008100	0.337900	0.711600
C241	C24	0.989700	0.484700	0.818500
N251	N25	0.724100	0.399900	0.416900
N261	N26	0.723700	0.392700	0.246500
N271	N27	0.646100	0.326300	0.202600
N281	N28	0.598200	0.291700	0.344600
N291	N29	0.921100	0.545200	0.726800
N301	N30	0.945400	0.650000	0.755700
N311	N31	0.023100	0.657800	0.863400
N321	N32	0.052400	0.552800	0.908500
O41	O4	0.800000	0.349000	0.756100
