data_CAYKEU_clean_PM
_symmetry_space_group_name_H-M	'P1'
_cell_length_a	11.528800
_cell_length_b	12.356500
_cell_length_c	21.861000
_cell_angle_alpha	90.000000
_cell_angle_beta	90.000000
_cell_angle_gamma	117.808000
_symmetry_Int_Tables_number 1

loop_
_symmetry_equiv_pos_as_xyz
'x,y,z'

loop_
_atom_site_label
_atom_site_type_symbol
_atom_site_fract_x
_atom_site_fract_y
_atom_site_fract_z
Pr11	Pr1	0.957520	0.000000	0.346570
Pr21	Pr2	0.042480	0.000000	0.846570
Pr31	Pr3	0.957520	0.000000	0.153430
Pr41	Pr4	0.042480	0.000000	0.653430
Pr51	Pr5	0.276340	0.186880	0.250000
Pr61	Pr6	0.723660	0.813120	0.750000
Pr71	Pr7	0.089460	0.813120	0.250000
Pr81	Pr8	0.910540	0.186880	0.750000
H11	H1	0.424500	0.438800	0.386300
H21	H2	0.766900	0.778800	0.473300
H31	H3	0.575500	0.561200	0.886300
H41	H4	0.233100	0.221200	0.973300
H51	H5	0.985700	0.561200	0.113700
H61	H6	0.988100	0.221200	0.026700
H71	H7	0.014300	0.438800	0.613700
H81	H8	0.011900	0.778800	0.526700
H91	H9	0.575500	0.561200	0.613700
H101	H10	0.233100	0.221200	0.526700
H111	H11	0.424500	0.438800	0.113700
H121	H12	0.766900	0.778800	0.026700
H131	H13	0.014300	0.438800	0.886300
H141	H14	0.011900	0.778800	0.973300
H151	H15	0.985700	0.561200	0.386300
H161	H16	0.988100	0.221200	0.473300
H171	H17	0.193300	0.000000	0.345700
H181	H18	0.806700	0.000000	0.845700
H191	H19	0.193300	0.000000	0.154300
H201	H20	0.806700	0.000000	0.654300
H211	H21	0.035300	0.188400	0.250000
H221	H22	0.964700	0.811600	0.750000
H231	H23	0.846900	0.811600	0.250000
H241	H24	0.153100	0.188400	0.750000
C11	C1	0.226400	0.224400	0.404800
C21	C2	0.317000	0.316600	0.449000
C31	C3	0.416500	0.424000	0.428200
C41	C4	0.506800	0.512600	0.467500
C51	C5	0.613500	0.624600	0.447600
C61	C6	0.698000	0.706400	0.487700
C71	C7	0.773600	0.775600	0.904800
C81	C8	0.683000	0.683400	0.949000
C91	C9	0.583500	0.576000	0.928200
C101	C10	0.493200	0.487400	0.967500
C111	C11	0.386500	0.375400	0.947600
C121	C12	0.302000	0.293600	0.987700
C131	C13	0.002000	0.775600	0.095200
C141	C14	0.000400	0.683400	0.051000
C151	C15	0.992500	0.576000	0.071800
C161	C16	0.994200	0.487400	0.032500
C171	C17	0.988900	0.375400	0.052400
C181	C18	0.991600	0.293600	0.012300
C191	C19	0.998000	0.224400	0.595200
C201	C20	0.999600	0.316600	0.551000
C211	C21	0.007500	0.424000	0.571800
C221	C22	0.005800	0.512600	0.532500
C231	C23	0.011100	0.624600	0.552400
C241	C24	0.008400	0.706400	0.512300
C251	C25	0.773600	0.775600	0.595200
C261	C26	0.683000	0.683400	0.551000
C271	C27	0.583500	0.576000	0.571800
C281	C28	0.493200	0.487400	0.532500
C291	C29	0.386500	0.375400	0.552400
C301	C30	0.302000	0.293600	0.512300
C311	C31	0.226400	0.224400	0.095200
C321	C32	0.317000	0.316600	0.051000
C331	C33	0.416500	0.424000	0.071800
C341	C34	0.506800	0.512600	0.032500
C351	C35	0.613500	0.624600	0.052400
C361	C36	0.698000	0.706400	0.012300
C371	C37	0.998000	0.224400	0.904800
C381	C38	0.999600	0.316600	0.949000
C391	C39	0.007500	0.424000	0.928200
C401	C40	0.005800	0.512600	0.967500
C411	C41	0.011100	0.624600	0.947600
C421	C42	0.008400	0.706400	0.987700
C431	C43	0.002000	0.775600	0.404800
C441	C44	0.000400	0.683400	0.449000
C451	C45	0.992500	0.576000	0.428200
C461	C46	0.994200	0.487400	0.467500
C471	C47	0.988900	0.375400	0.447600
C481	C48	0.991600	0.293600	0.487700
S11	S1	0.639760	0.659640	0.367950
S21	S2	0.360240	0.340360	0.867950
S31	S3	0.980120	0.340360	0.132050
S41	S4	0.019880	0.659640	0.632050
S51	S5	0.360240	0.340360	0.632050
S61	S6	0.639760	0.659640	0.132050
S71	S7	0.019880	0.659640	0.867950
S81	S8	0.980120	0.340360	0.367950
O11	O1	0.250900	0.251200	0.348500
O21	O2	0.133200	0.126800	0.423500
O31	O3	0.748900	0.780800	0.363000
O41	O4	0.519100	0.651000	0.343800
O51	O5	0.668300	0.565800	0.342300
O61	O6	0.749100	0.748800	0.848500
O71	O7	0.866800	0.873200	0.923500
O81	O8	0.251100	0.219200	0.863000
O91	O9	0.480900	0.349000	0.843800
O101	O10	0.331700	0.434200	0.842300
O111	O11	0.999700	0.748800	0.151500
O121	O12	0.006400	0.873200	0.076500
O131	O13	0.968100	0.219200	0.137000
O141	O14	0.868100	0.349000	0.156200
O151	O15	0.102500	0.434200	0.157700
O161	O16	0.000300	0.251200	0.651500
O171	O17	0.993600	0.126800	0.576500
O181	O18	0.031900	0.780800	0.637000
O191	O19	0.131900	0.651000	0.656200
O201	O20	0.897500	0.565800	0.657700
O211	O21	0.749100	0.748800	0.651500
O221	O22	0.866800	0.873200	0.576500
O231	O23	0.251100	0.219200	0.637000
O241	O24	0.480900	0.349000	0.656200
O251	O25	0.331700	0.434200	0.657700
O261	O26	0.250900	0.251200	0.151500
O271	O27	0.133200	0.126800	0.076500
O281	O28	0.748900	0.780800	0.137000
O291	O29	0.519100	0.651000	0.156200
O301	O30	0.668300	0.565800	0.157700
O311	O31	0.000300	0.251200	0.848500
O321	O32	0.993600	0.126800	0.923500
O331	O33	0.031900	0.780800	0.863000
O341	O34	0.131900	0.651000	0.843800
O351	O35	0.897500	0.565800	0.842300
O361	O36	0.999700	0.748800	0.348500
O371	O37	0.006400	0.873200	0.423500
O381	O38	0.968100	0.219200	0.363000
O391	O39	0.868100	0.349000	0.343800
O401	O40	0.102500	0.434200	0.342300
O411	O41	0.159700	0.000000	0.311100
O421	O42	0.840300	0.000000	0.811100
O431	O43	0.159700	0.000000	0.188900
O441	O44	0.840300	0.000000	0.688900
O451	O45	0.036500	0.120200	0.250000
O461	O46	0.963500	0.879800	0.750000
O471	O47	0.916300	0.879800	0.250000
O481	O48	0.083700	0.120200	0.750000
