data_CAYMIZ_clean_PM
_symmetry_space_group_name_H-M	'P1'
_cell_length_a	8.806000
_cell_length_b	15.603100
_cell_length_c	19.238200
_cell_angle_alpha	67.852000
_cell_angle_beta	76.769600
_cell_angle_gamma	73.609200
_symmetry_Int_Tables_number 1

loop_
_symmetry_equiv_pos_as_xyz
'x,y,z'

loop_
_atom_site_label
_atom_site_type_symbol
_atom_site_fract_x
_atom_site_fract_y
_atom_site_fract_z
Gd11	Gd1	0.907720	0.723710	0.781120
Gd21	Gd2	0.412550	0.776290	0.718880
Gd31	Gd3	0.092280	0.276290	0.218880
Gd41	Gd4	0.587450	0.223710	0.281120
H11	H1	0.933800	0.438200	0.739400
H21	H2	0.956100	0.349300	0.662300
H31	H3	0.601000	0.545900	0.553100
H41	H4	0.591300	0.640300	0.624100
H51	H5	0.038100	0.377400	0.513000
H61	H6	0.061900	0.305900	0.423700
H71	H7	0.592900	0.300600	0.476600
H81	H8	0.566400	0.374400	0.565600
H91	H9	0.555600	0.440100	0.812700
H101	H10	0.636600	0.289200	0.802400
H111	H11	0.247900	0.339200	0.702800
H121	H12	0.163900	0.489100	0.715300
H131	H13	0.111400	0.061800	0.760600
H141	H14	0.967700	0.150700	0.837700
H151	H15	0.700000	0.954100	0.946900
H161	H16	0.855700	0.859700	0.875900
H171	H17	0.928500	0.122600	0.987000
H181	H18	0.791500	0.194100	0.076300
H191	H19	0.370100	0.199400	0.023400
H201	H20	0.506400	0.125600	0.934400
H211	H21	0.808400	0.059900	0.687300
H221	H22	0.728200	0.210800	0.697600
H231	H23	0.289900	0.160800	0.797200
H241	H24	0.368300	0.010900	0.784700
H251	H25	0.066200	0.561800	0.260600
H261	H26	0.043900	0.650700	0.337700
H271	H27	0.399000	0.454100	0.446900
H281	H28	0.408700	0.359700	0.375900
H291	H29	0.961900	0.622600	0.487000
H301	H30	0.938100	0.694100	0.576300
H311	H31	0.407100	0.699400	0.523400
H321	H32	0.433600	0.625600	0.434400
H331	H33	0.444400	0.559900	0.187300
H341	H34	0.363400	0.710800	0.197600
H351	H35	0.752100	0.660800	0.297200
H361	H36	0.836100	0.510900	0.284700
H371	H37	0.888600	0.938200	0.239400
H381	H38	0.032300	0.849300	0.162300
H391	H39	0.300000	0.045900	0.053100
H401	H40	0.144300	0.140300	0.124100
H411	H41	0.071500	0.877400	0.013000
H421	H42	0.208500	0.805900	0.923700
H431	H43	0.629900	0.800600	0.976600
H441	H44	0.493600	0.874400	0.065600
H451	H45	0.191600	0.940100	0.312700
H461	H46	0.271800	0.789200	0.302400
H471	H47	0.710100	0.839200	0.202800
H481	H48	0.631700	0.989100	0.215300
C11	C1	0.766540	0.611420	0.731100
C21	C2	0.764170	0.549690	0.687570
C31	C3	0.869320	0.461660	0.699900
C41	C4	0.880680	0.407900	0.654940
C51	C5	0.782170	0.439340	0.599120
C61	C6	0.672120	0.525060	0.589500
C71	C7	0.664670	0.580810	0.632450
C81	C8	0.798380	0.386010	0.546830
C91	C9	0.946640	0.363330	0.504990
C101	C10	0.960700	0.320510	0.452090
C111	C11	0.829370	0.298480	0.439780
C121	C12	0.682850	0.317520	0.483180
C131	C13	0.667180	0.361330	0.536310
C141	C14	0.845600	0.257640	0.378560
C151	C15	0.296340	0.575950	0.772970
C161	C16	0.351330	0.479040	0.765700
C171	C17	0.492010	0.419400	0.790980
C181	C18	0.540280	0.329730	0.784710
C191	C19	0.448740	0.298320	0.752600
C201	C20	0.309750	0.359100	0.726000
C211	C21	0.260220	0.448660	0.732900
C221	C22	0.109060	0.888580	0.768900
C231	C23	0.001430	0.950310	0.812430
C241	C24	0.030880	0.038340	0.800100
C251	C25	0.943520	0.092100	0.845060
C261	C26	0.820630	0.060660	0.900880
C271	C27	0.786680	0.974940	0.910500
C281	C28	0.877930	0.919190	0.867550
C291	C29	0.731220	0.113990	0.953170
C301	C30	0.814960	0.136670	0.995010
C311	C31	0.733300	0.179490	0.047910
C321	C32	0.567630	0.201520	0.060220
C331	C33	0.483550	0.182480	0.016820
C341	C34	0.564820	0.138670	0.963690
C351	C35	0.481800	0.242360	0.121440
C361	C36	0.645260	0.924050	0.727030
C371	C37	0.596070	0.020960	0.734300
C381	C38	0.702390	0.080600	0.709020
C391	C39	0.654720	0.170270	0.715290
C401	C40	0.499660	0.201680	0.747400
C411	C41	0.394850	0.140900	0.774000
C421	C42	0.441780	0.051340	0.767100
C431	C43	0.233460	0.388580	0.268900
C441	C44	0.235830	0.450310	0.312430
C451	C45	0.130680	0.538340	0.300100
C461	C46	0.119320	0.592100	0.345060
C471	C47	0.217830	0.560660	0.400880
C481	C48	0.327880	0.474940	0.410500
C491	C49	0.335330	0.419190	0.367550
C501	C50	0.201620	0.613990	0.453170
C511	C51	0.053360	0.636670	0.495010
C521	C52	0.039300	0.679490	0.547910
C531	C53	0.170630	0.701520	0.560220
C541	C54	0.317150	0.682480	0.516820
C551	C55	0.332820	0.638670	0.463690
C561	C56	0.154400	0.742360	0.621440
C571	C57	0.703660	0.424050	0.227030
C581	C58	0.648670	0.520960	0.234300
C591	C59	0.507990	0.580600	0.209020
C601	C60	0.459720	0.670270	0.215290
C611	C61	0.551260	0.701680	0.247400
C621	C62	0.690250	0.640900	0.274000
C631	C63	0.739780	0.551340	0.267100
C641	C64	0.890940	0.111420	0.231100
C651	C65	0.998570	0.049690	0.187570
C661	C66	0.969120	0.961660	0.199900
C671	C67	0.056480	0.907900	0.154940
C681	C68	0.179370	0.939340	0.099120
C691	C69	0.213320	0.025060	0.089500
C701	C70	0.122070	0.080810	0.132450
C711	C71	0.268780	0.886010	0.046830
C721	C72	0.185040	0.863330	0.004990
C731	C73	0.266700	0.820510	0.952090
C741	C74	0.432370	0.798480	0.939780
C751	C75	0.516450	0.817520	0.983180
C761	C76	0.435180	0.861330	0.036310
C771	C77	0.518200	0.757640	0.878560
C781	C78	0.354740	0.075950	0.272970
C791	C79	0.403930	0.979040	0.265700
C801	C80	0.297610	0.919400	0.290980
C811	C81	0.345280	0.829730	0.284710
C821	C82	0.500340	0.798320	0.252600
C831	C83	0.605150	0.859100	0.226000
C841	C84	0.558220	0.948660	0.232900
O11	O1	0.856350	0.578860	0.781400
O21	O2	0.688670	0.696850	0.712890
O31	O3	0.984710	0.237730	0.344830
O41	O4	0.720960	0.247120	0.363840
O51	O5	0.148820	0.610280	0.777680
O61	O6	0.401170	0.616500	0.773320
O71	O7	0.216610	0.921140	0.718600
O81	O8	0.098410	0.803150	0.787110
O91	O9	0.567270	0.262270	0.155170
O101	O10	0.331920	0.252880	0.136160
O111	O11	0.536780	0.889720	0.722320
O121	O12	0.790990	0.883500	0.726680
O131	O13	0.143650	0.421140	0.218600
O141	O14	0.311330	0.303150	0.287110
O151	O15	0.015290	0.762270	0.655170
O161	O16	0.279040	0.752880	0.636160
O171	O17	0.851180	0.389720	0.222320
O181	O18	0.598830	0.383500	0.226680
O191	O19	0.783390	0.078860	0.281400
O201	O20	0.901590	0.196850	0.212890
O211	O21	0.432730	0.737730	0.844830
O221	O22	0.668080	0.747120	0.863840
O231	O23	0.463220	0.110280	0.277680
O241	O24	0.209010	0.116500	0.273320
