data_CAYQAV_clean_PM
_symmetry_space_group_name_H-M	'P1'
_cell_length_a	19.234700
_cell_length_b	13.256300
_cell_length_c	16.755900
_cell_angle_alpha	90.000000
_cell_angle_beta	123.909000
_cell_angle_gamma	90.000000
_symmetry_Int_Tables_number 1

loop_
_symmetry_equiv_pos_as_xyz
'x,y,z'

loop_
_atom_site_label
_atom_site_type_symbol
_atom_site_fract_x
_atom_site_fract_y
_atom_site_fract_z
Ce11	Ce1	0.221680	0.422680	0.268020
O11	O1	0.269090	0.256680	0.235600
O21	O2	0.243540	0.096140	0.188900
O31	O3	0.868400	0.117400	0.930410
O41	O4	0.860560	0.275000	0.972100
H11	H1	0.810100	0.265700	0.934300
O51	O5	0.208380	0.270500	0.360400
O61	O6	0.180450	0.115800	0.384700
N11	N1	0.106290	0.299300	0.137100
N21	N2	0.023210	0.299800	0.081200
H21	H2	0.992800	0.351900	0.071600
N31	N3	0.042000	0.323800	0.277000
H31	H3	0.073600	0.376300	0.297100
C11	C1	0.129200	0.205200	0.132200
C21	C2	0.059900	0.144500	0.072900
H41	H4	0.059200	0.076800	0.058000
C31	C3	0.992200	0.208300	0.041000
C41	C4	0.220700	0.183600	0.190200
C51	C5	0.901200	0.194700	0.975500
C61	C6	0.158200	0.201900	0.351100
C71	C7	0.068400	0.227800	0.294100
Ce21	Ce2	0.721680	0.922680	0.268020
O71	O7	0.769090	0.756680	0.235600
O81	O8	0.743540	0.596140	0.188900
O91	O9	0.368400	0.617400	0.930410
O101	O10	0.360560	0.775000	0.972100
H51	H5	0.310100	0.765700	0.934300
O111	O11	0.708380	0.770500	0.360400
O121	O12	0.680450	0.615800	0.384700
N41	N4	0.606290	0.799300	0.137100
N51	N5	0.523210	0.799800	0.081200
H61	H6	0.492800	0.851900	0.071600
N61	N6	0.542000	0.823800	0.277000
H71	H7	0.573600	0.876300	0.297100
C81	C8	0.629200	0.705200	0.132200
C91	C9	0.559900	0.644500	0.072900
H81	H8	0.559200	0.576800	0.058000
C101	C10	0.492200	0.708300	0.041000
C111	C11	0.720700	0.683600	0.190200
C121	C12	0.401200	0.694700	0.975500
C131	C13	0.658200	0.701900	0.351100
C141	C14	0.568400	0.727800	0.294100
Ce31	Ce3	0.778320	0.422680	0.231980
O131	O13	0.730910	0.256680	0.264400
O141	O14	0.756460	0.096140	0.311100
O151	O15	0.131600	0.117400	0.569590
O161	O16	0.139440	0.275000	0.527900
H91	H9	0.189900	0.265700	0.565700
O171	O17	0.791620	0.270500	0.139600
O181	O18	0.819550	0.115800	0.115300
N71	N7	0.893710	0.299300	0.362900
N81	N8	0.976790	0.299800	0.418800
H101	H10	0.007200	0.351900	0.428400
N91	N9	0.958000	0.323800	0.223000
H111	H11	0.926400	0.376300	0.202900
C151	C15	0.870800	0.205200	0.367800
C161	C16	0.940100	0.144500	0.427100
H121	H12	0.940800	0.076800	0.442000
C171	C17	0.007800	0.208300	0.459000
C181	C18	0.779300	0.183600	0.309800
C191	C19	0.098800	0.194700	0.524500
C201	C20	0.841800	0.201900	0.148900
C211	C21	0.931600	0.227800	0.205900
Ce41	Ce4	0.278320	0.922680	0.231980
O191	O19	0.230910	0.756680	0.264400
O201	O20	0.256460	0.596140	0.311100
O211	O21	0.631600	0.617400	0.569590
O221	O22	0.639440	0.775000	0.527900
H131	H13	0.689900	0.765700	0.565700
O231	O23	0.291620	0.770500	0.139600
O241	O24	0.319550	0.615800	0.115300
N101	N10	0.393710	0.799300	0.362900
N111	N11	0.476790	0.799800	0.418800
H141	H14	0.507200	0.851900	0.428400
N121	N12	0.458000	0.823800	0.223000
H151	H15	0.426400	0.876300	0.202900
C221	C22	0.370800	0.705200	0.367800
C231	C23	0.440100	0.644500	0.427100
H161	H16	0.440800	0.576800	0.442000
C241	C24	0.507800	0.708300	0.459000
C251	C25	0.279300	0.683600	0.309800
C261	C26	0.598800	0.694700	0.524500
C271	C27	0.341800	0.701900	0.148900
C281	C28	0.431600	0.727800	0.205900
Ce51	Ce5	0.778320	0.577320	0.731980
O251	O25	0.730910	0.743320	0.764400
O261	O26	0.756460	0.903860	0.811100
O271	O27	0.131600	0.882600	0.069590
O281	O28	0.139440	0.725000	0.027900
H171	H17	0.189900	0.734300	0.065700
O291	O29	0.791620	0.729500	0.639600
O301	O30	0.819550	0.884200	0.615300
N131	N13	0.893710	0.700700	0.862900
N141	N14	0.976790	0.700200	0.918800
H181	H18	0.007200	0.648100	0.928400
N151	N15	0.958000	0.676200	0.723000
H191	H19	0.926400	0.623700	0.702900
C291	C29	0.870800	0.794800	0.867800
C301	C30	0.940100	0.855500	0.927100
H201	H20	0.940800	0.923200	0.942000
C311	C31	0.007800	0.791700	0.959000
C321	C32	0.779300	0.816400	0.809800
C331	C33	0.098800	0.805300	0.024500
C341	C34	0.841800	0.798100	0.648900
C351	C35	0.931600	0.772200	0.705900
Ce61	Ce6	0.278320	0.077320	0.731980
O311	O31	0.230910	0.243320	0.764400
O321	O32	0.256460	0.403860	0.811100
O331	O33	0.631600	0.382600	0.069590
O341	O34	0.639440	0.225000	0.027900
H211	H21	0.689900	0.234300	0.065700
O351	O35	0.291620	0.229500	0.639600
O361	O36	0.319550	0.384200	0.615300
N161	N16	0.393710	0.200700	0.862900
N171	N17	0.476790	0.200200	0.918800
H221	H22	0.507200	0.148100	0.928400
N181	N18	0.458000	0.176200	0.723000
H231	H23	0.426400	0.123700	0.702900
C361	C36	0.370800	0.294800	0.867800
C371	C37	0.440100	0.355500	0.927100
H241	H24	0.440800	0.423200	0.942000
C381	C38	0.507800	0.291700	0.959000
C391	C39	0.279300	0.316400	0.809800
C401	C40	0.598800	0.305300	0.024500
C411	C41	0.341800	0.298100	0.648900
C421	C42	0.431600	0.272200	0.705900
Ce71	Ce7	0.221680	0.577320	0.768020
O371	O37	0.269090	0.743320	0.735600
O381	O38	0.243540	0.903860	0.688900
O391	O39	0.868400	0.882600	0.430410
O401	O40	0.860560	0.725000	0.472100
H251	H25	0.810100	0.734300	0.434300
O411	O41	0.208380	0.729500	0.860400
O421	O42	0.180450	0.884200	0.884700
N191	N19	0.106290	0.700700	0.637100
N201	N20	0.023210	0.700200	0.581200
H261	H26	0.992800	0.648100	0.571600
N211	N21	0.042000	0.676200	0.777000
H271	H27	0.073600	0.623700	0.797100
C431	C43	0.129200	0.794800	0.632200
C441	C44	0.059900	0.855500	0.572900
H281	H28	0.059200	0.923200	0.558000
C451	C45	0.992200	0.791700	0.541000
C461	C46	0.220700	0.816400	0.690200
C471	C47	0.901200	0.805300	0.475500
C481	C48	0.158200	0.798100	0.851100
C491	C49	0.068400	0.772200	0.794100
Ce81	Ce8	0.721680	0.077320	0.768020
O431	O43	0.769090	0.243320	0.735600
O441	O44	0.743540	0.403860	0.688900
O451	O45	0.368400	0.382600	0.430410
O461	O46	0.360560	0.225000	0.472100
H291	H29	0.310100	0.234300	0.434300
O471	O47	0.708380	0.229500	0.860400
O481	O48	0.680450	0.384200	0.884700
N221	N22	0.606290	0.200700	0.637100
N231	N23	0.523210	0.200200	0.581200
H301	H30	0.492800	0.148100	0.571600
N241	N24	0.542000	0.176200	0.777000
H311	H31	0.573600	0.123700	0.797100
C501	C50	0.629200	0.294800	0.632200
C511	C51	0.559900	0.355500	0.572900
H321	H32	0.559200	0.423200	0.558000
C521	C52	0.492200	0.291700	0.541000
C531	C53	0.720700	0.316400	0.690200
C541	C54	0.401200	0.305300	0.475500
C551	C55	0.658200	0.298100	0.851100
C561	C56	0.568400	0.272200	0.794100
C571	C57	0.000000	0.164600	0.250000
H331	H33	0.000000	0.094400	0.250000
C581	C58	0.500000	0.664600	0.250000
H341	H34	0.500000	0.594400	0.250000
C591	C59	0.000000	0.835400	0.750000
H351	H35	0.000000	0.905600	0.750000
C601	C60	0.500000	0.335400	0.750000
H361	H36	0.500000	0.405600	0.750000
