data_CAZNOI_charged_PM
_symmetry_space_group_name_H-M	'P1'
_cell_length_a	15.061000
_cell_length_b	17.069000
_cell_length_c	28.353000
_cell_angle_alpha	90.000000
_cell_angle_beta	90.000000
_cell_angle_gamma	100.653000
_symmetry_Int_Tables_number 1

loop_
_symmetry_equiv_pos_as_xyz
'x,y,z'

loop_
_atom_site_label
_atom_site_type_symbol
_atom_site_fract_x
_atom_site_fract_y
_atom_site_fract_z
Co11	Co1	0.521740	0.867950	0.029950
Co21	Co2	0.486350	0.240760	0.430850
Co31	Co3	0.514670	0.653410	0.032950
Co41	Co4	0.478260	0.132050	0.529950
Co51	Co5	0.513650	0.759240	0.930850
Co61	Co6	0.485330	0.346590	0.532950
H11	H1	0.050700	0.719200	0.373400
H21	H2	0.116700	0.744600	0.330800
H31	H3	0.937200	0.762500	0.376000
H41	H4	0.863100	0.729800	0.338300
H51	H5	0.924100	0.587100	0.313300
H61	H6	0.971000	0.518800	0.332900
H71	H7	0.185400	0.633500	0.357900
H81	H8	0.108200	0.600700	0.394000
H91	H9	0.074200	0.555900	0.270700
H101	H10	0.037800	0.633300	0.256700
H111	H11	0.880000	0.909300	0.273100
H121	H12	0.932400	0.840800	0.259500
H131	H13	0.790000	0.837900	0.362500
H141	H14	0.870400	0.874500	0.396000
H151	H15	0.045300	0.888300	0.313500
H161	H16	0.996800	0.957000	0.330900
H171	H17	0.859800	0.604600	0.457200
H181	H18	0.730800	0.528100	0.488200
H191	H19	0.700900	0.395300	0.373800
H201	H20	0.832200	0.469200	0.343100
H211	H21	0.230600	0.569600	0.424900
H221	H22	0.316100	0.494000	0.468200
H231	H23	0.266800	0.322200	0.374200
H241	H24	0.171700	0.390300	0.333200
H251	H25	0.100700	0.571200	0.195100
H261	H26	0.169500	0.564800	0.123800
H271	H27	0.390400	0.704100	0.173200
H281	H28	0.319700	0.711500	0.241500
H291	H29	0.800100	0.911000	0.208100
H301	H30	0.720300	0.895200	0.139100
H311	H31	0.656200	0.671700	0.159700
H321	H32	0.698200	0.688100	0.240900
H331	H33	0.807900	0.087500	0.335600
H341	H34	0.702900	0.151500	0.369700
H351	H35	0.648200	0.980400	0.466400
H361	H36	0.734600	0.904900	0.425600
H371	H37	0.099200	0.899600	0.460500
H381	H38	0.234100	0.975800	0.490000
H391	H39	0.280300	0.077100	0.365100
H401	H40	0.150200	0.001200	0.336300
H411	H41	0.518700	0.160400	0.046700
H421	H42	0.532200	0.046700	0.010000
H431	H43	0.533600	0.936100	0.128800
H441	H44	0.521100	0.048700	0.168400
H451	H45	0.516600	0.358700	0.048500
H461	H46	0.517000	0.478400	0.012400
H471	H47	0.515900	0.584300	0.132100
H481	H48	0.516800	0.467500	0.173100
H491	H49	0.505900	0.136200	0.265700
H501	H50	0.493400	0.132800	0.346300
H511	H51	0.489000	0.359800	0.349200
H521	H52	0.493300	0.366500	0.269500
H531	H53	0.949300	0.280800	0.873400
H541	H54	0.883300	0.255400	0.830800
H551	H55	0.062800	0.237500	0.876000
H561	H56	0.136900	0.270200	0.838300
H571	H57	0.075900	0.412900	0.813300
H581	H58	0.029000	0.481200	0.832900
H591	H59	0.814600	0.366500	0.857900
H601	H60	0.891800	0.399300	0.894000
H611	H61	0.925800	0.444100	0.770700
H621	H62	0.962200	0.366700	0.756700
H631	H63	0.120000	0.090700	0.773100
H641	H64	0.067600	0.159200	0.759500
H651	H65	0.210000	0.162100	0.862500
H661	H66	0.129600	0.125500	0.896000
H671	H67	0.954700	0.111700	0.813500
H681	H68	0.003200	0.043000	0.830900
H691	H69	0.140200	0.395400	0.957200
H701	H70	0.269200	0.471900	0.988200
H711	H71	0.299100	0.604700	0.873800
H721	H72	0.167800	0.530800	0.843100
H731	H73	0.769400	0.430400	0.924900
H741	H74	0.683900	0.506000	0.968200
H751	H75	0.733200	0.677800	0.874200
H761	H76	0.828300	0.609700	0.833200
H771	H77	0.899300	0.428800	0.695100
H781	H78	0.830500	0.435200	0.623800
H791	H79	0.609600	0.295900	0.673200
H801	H80	0.680300	0.288500	0.741500
H811	H81	0.199900	0.089000	0.708100
H821	H82	0.279700	0.104800	0.639100
H831	H83	0.343800	0.328300	0.659700
H841	H84	0.301800	0.311900	0.740900
H851	H85	0.192100	0.912500	0.835600
H861	H86	0.297100	0.848500	0.869700
H871	H87	0.351800	0.019600	0.966400
H881	H88	0.265400	0.095100	0.925600
H891	H89	0.900800	0.100400	0.960500
H901	H90	0.765900	0.024200	0.990000
H911	H91	0.719700	0.922900	0.865100
H921	H92	0.849800	0.998800	0.836300
H931	H93	0.481300	0.839600	0.546700
H941	H94	0.467800	0.953300	0.510000
H951	H95	0.466400	0.063900	0.628800
H961	H96	0.478900	0.951300	0.668400
H971	H97	0.483400	0.641300	0.548500
H981	H98	0.483000	0.521600	0.512400
H991	H99	0.484100	0.415700	0.632100
H1001	H100	0.483200	0.532500	0.673100
H1011	H101	0.494100	0.863800	0.765700
H1021	H102	0.506600	0.867200	0.846300
H1031	H103	0.511000	0.640200	0.849200
H1041	H104	0.506700	0.633500	0.769500
C11	C1	0.058900	0.712900	0.339800
C21	C2	0.921000	0.764700	0.343000
C31	C3	0.056500	0.624700	0.327900
C41	C4	0.913600	0.849000	0.330000
C51	C5	0.967100	0.574600	0.336200
C61	C6	0.127400	0.598300	0.361500
C71	C7	0.079300	0.612400	0.277200
C81	C8	0.886700	0.855100	0.280300
C91	C9	0.847500	0.874400	0.364000
C101	C10	0.002600	0.902000	0.336200
C111	C11	0.859000	0.542100	0.397600
C121	C12	0.828600	0.561400	0.440400
C131	C13	0.750400	0.515500	0.458500
C141	C14	0.700800	0.452500	0.434700
C151	C15	0.732900	0.437000	0.391500
C161	C16	0.812000	0.481500	0.372700
C171	C17	0.619500	0.402800	0.453600
C181	C18	0.191500	0.484600	0.376200
C191	C19	0.235700	0.518600	0.415300
C201	C20	0.288800	0.473600	0.440300
C211	C21	0.301700	0.401000	0.425100
C221	C22	0.258300	0.371600	0.385200
C231	C23	0.201700	0.412300	0.360200
C241	C24	0.362400	0.356200	0.449700
C251	C25	0.204600	0.641100	0.225200
C261	C26	0.159700	0.597900	0.190500
C271	C27	0.201600	0.593400	0.148300
C281	C28	0.288800	0.629200	0.140700
C291	C29	0.331900	0.676000	0.177300
C301	C30	0.289700	0.680200	0.217500
C311	C31	0.336100	0.626200	0.095300
C321	C32	0.762800	0.797000	0.230000
C331	C33	0.766000	0.861500	0.200100
C341	C34	0.718900	0.851400	0.158800
C351	C35	0.671100	0.781800	0.145500
C361	C36	0.676300	0.722600	0.171800
C371	C37	0.711500	0.729500	0.219300
C381	C38	0.620000	0.773800	0.099500
C391	C39	0.781100	0.988800	0.377600
C401	C40	0.773200	0.064600	0.360900
C411	C41	0.713700	0.104100	0.382600
C421	C42	0.668500	0.074500	0.424000
C431	C43	0.678400	0.001100	0.439200
C441	C44	0.732000	0.956400	0.415600
C451	C45	0.604100	0.119900	0.446700
C461	C46	0.115200	0.944700	0.396800
C471	C47	0.136400	0.935700	0.441200
C481	C48	0.216800	0.982100	0.459000
C491	C49	0.268600	0.036000	0.430500
C501	C50	0.243800	0.041500	0.385000
C511	C51	0.166800	0.996500	0.367600
C521	C52	0.351300	0.089300	0.449600
C531	C53	0.518200	0.193400	0.138600
C541	C54	0.515400	0.324800	0.140200
C551	C55	0.509200	0.255800	0.206800
C561	C56	0.522600	0.119500	0.112800
C571	C57	0.522900	0.115400	0.064400
C581	C58	0.529000	0.047200	0.042700
C591	C59	0.530100	0.982000	0.111800
C601	C60	0.524100	0.050000	0.135600
C611	C61	0.515400	0.400000	0.114900
C621	C62	0.516200	0.404200	0.066500
C631	C63	0.516400	0.476200	0.045200
C641	C64	0.515900	0.537700	0.115100
C651	C65	0.516200	0.467800	0.140300
C661	C66	0.503400	0.252700	0.258200
C671	C67	0.502100	0.182500	0.282200
C681	C68	0.495200	0.180900	0.330600
C691	C69	0.491600	0.313700	0.332200
C701	C70	0.495700	0.318400	0.284500
C711	C71	0.941100	0.287100	0.839800
C721	C72	0.079000	0.235300	0.843000
C731	C73	0.943500	0.375300	0.827900
C741	C74	0.086400	0.151000	0.830000
C751	C75	0.032900	0.425400	0.836200
C761	C76	0.872600	0.401700	0.861500
C771	C77	0.920700	0.387600	0.777200
C781	C78	0.113300	0.144900	0.780300
C791	C79	0.152500	0.125600	0.864000
C801	C80	0.997400	0.098000	0.836200
C811	C81	0.141000	0.457900	0.897600
C821	C82	0.171400	0.438600	0.940400
C831	C83	0.249600	0.484500	0.958500
C841	C84	0.299200	0.547500	0.934700
C851	C85	0.267100	0.563000	0.891500
C861	C86	0.188000	0.518500	0.872700
C871	C87	0.380500	0.597200	0.953600
C881	C88	0.808500	0.515400	0.876200
C891	C89	0.764300	0.481400	0.915300
C901	C90	0.711200	0.526400	0.940300
C911	C91	0.698300	0.599000	0.925100
C921	C92	0.741700	0.628400	0.885200
C931	C93	0.798300	0.587700	0.860200
C941	C94	0.637600	0.643800	0.949700
C951	C95	0.795400	0.358900	0.725200
C961	C96	0.840300	0.402100	0.690500
C971	C97	0.798400	0.406600	0.648300
C981	C98	0.711200	0.370800	0.640700
C991	C99	0.668100	0.324000	0.677300
C1001	C100	0.710300	0.319800	0.717500
C1011	C101	0.663900	0.373800	0.595300
C1021	C102	0.237200	0.203000	0.730000
C1031	C103	0.234000	0.138500	0.700100
C1041	C104	0.281100	0.148600	0.658800
C1051	C105	0.328900	0.218200	0.645500
C1061	C106	0.323700	0.277400	0.671800
C1071	C107	0.288500	0.270500	0.719300
C1081	C108	0.380000	0.226200	0.599500
C1091	C109	0.218900	0.011200	0.877600
C1101	C110	0.226800	0.935400	0.860900
C1111	C111	0.286300	0.895900	0.882600
C1121	C112	0.331500	0.925500	0.924000
C1131	C113	0.321600	0.998900	0.939200
C1141	C114	0.268000	0.043600	0.915600
C1151	C115	0.395900	0.880100	0.946700
C1161	C116	0.884800	0.055300	0.896800
C1171	C117	0.863600	0.064300	0.941200
C1181	C118	0.783200	0.017900	0.959000
C1191	C119	0.731400	0.964000	0.930500
C1201	C120	0.756200	0.958500	0.885000
C1211	C121	0.833200	0.003500	0.867600
C1221	C122	0.648700	0.910700	0.949600
C1231	C123	0.481800	0.806600	0.638600
C1241	C124	0.484600	0.675200	0.640200
C1251	C125	0.490800	0.744200	0.706800
C1261	C126	0.477400	0.880500	0.612800
C1271	C127	0.477100	0.884600	0.564400
C1281	C128	0.471000	0.952800	0.542700
C1291	C129	0.469900	0.018000	0.611800
C1301	C130	0.475900	0.950000	0.635600
C1311	C131	0.484600	0.600000	0.614900
C1321	C132	0.483800	0.595800	0.566500
C1331	C133	0.483600	0.523800	0.545200
C1341	C134	0.484100	0.462300	0.615100
C1351	C135	0.483800	0.532200	0.640300
C1361	C136	0.496600	0.747300	0.758200
C1371	C137	0.497900	0.817500	0.782200
C1381	C138	0.504800	0.819100	0.830600
C1391	C139	0.508400	0.686300	0.832200
C1401	C140	0.504300	0.681600	0.784500
N11	N1	0.519500	0.260900	0.113900
N21	N2	0.512200	0.326400	0.185800
N31	N3	0.514400	0.188500	0.185500
N41	N4	0.530900	0.979300	0.066100
N51	N5	0.515700	0.542200	0.068800
N61	N6	0.491100	0.246400	0.355800
N71	N7	0.480500	0.739100	0.613900
N81	N8	0.487800	0.673600	0.685800
N91	N9	0.485600	0.811500	0.685500
N101	N10	0.469100	0.020700	0.566100
N111	N11	0.484300	0.457800	0.568800
N121	N12	0.508900	0.753600	0.855800
O11	O1	0.988000	0.738100	0.314500
O21	O2	0.404300	0.827800	0.076000
O31	O3	0.937800	0.589600	0.383000
O41	O4	0.134800	0.520900	0.349900
O51	O5	0.169000	0.652500	0.268800
O61	O6	0.801700	0.801000	0.273400
O71	O7	0.836600	0.951100	0.351200
O81	O8	0.034500	0.893600	0.382100
O91	O9	0.573800	0.353500	0.426500
O101	O10	0.598500	0.411100	0.496000
O111	O11	0.395100	0.382000	0.488200
O121	O12	0.376400	0.294400	0.430900
O131	O13	0.295500	0.568500	0.066800
O141	O14	0.407800	0.668500	0.086500
O151	O15	0.601900	0.707100	0.082700
O161	O16	0.599600	0.835300	0.083300
O171	O17	0.566100	0.091200	0.482900
O181	O18	0.596000	0.183600	0.427100
O191	O19	0.400500	0.134700	0.421500
O201	O20	0.365600	0.084200	0.493700
O211	O21	0.492300	0.755700	0.002700
O221	O22	0.012000	0.261900	0.814500
O231	O23	0.595700	0.172200	0.576000
O241	O24	0.062200	0.410400	0.883000
O251	O25	0.865200	0.479100	0.849900
O261	O26	0.831000	0.347500	0.768800
O271	O27	0.198300	0.199000	0.773400
O281	O28	0.163400	0.048900	0.851200
O291	O29	0.965500	0.106400	0.882100
O301	O30	0.426200	0.646500	0.926500
O311	O31	0.401500	0.588900	0.996000
O321	O32	0.604900	0.618000	0.988200
O331	O33	0.623600	0.705600	0.930900
O341	O34	0.704500	0.431500	0.566800
O351	O35	0.592200	0.331500	0.586500
O361	O36	0.398100	0.292900	0.582700
O371	O37	0.400400	0.164700	0.583300
O381	O38	0.433900	0.908800	0.982900
O391	O39	0.404000	0.816400	0.927100
O401	O40	0.599500	0.865300	0.921500
O411	O41	0.634400	0.915800	0.993700
O421	O42	0.507700	0.244300	0.502700
