data_CAZNEY_clean_PM
_symmetry_space_group_name_H-M	'P1'
_cell_length_a	10.938100
_cell_length_b	13.519600
_cell_length_c	34.326000
_cell_angle_alpha	99.061900
_cell_angle_beta	90.000000
_cell_angle_gamma	113.862000
_symmetry_Int_Tables_number 1

loop_
_symmetry_equiv_pos_as_xyz
'x,y,z'

loop_
_atom_site_label
_atom_site_type_symbol
_atom_site_fract_x
_atom_site_fract_y
_atom_site_fract_z
Co11	Co1	0.775800	0.633580	0.497180
Co21	Co2	0.142220	0.366420	0.002820
Co31	Co3	0.224200	0.366420	0.502820
Co41	Co4	0.857780	0.633580	0.997180
Co51	Co5	0.000000	0.500000	0.500000
Co61	Co6	0.500000	0.500000	0.000000
H11	H1	0.430300	0.028400	0.208000
H21	H2	0.457300	0.111800	0.247900
H31	H3	0.808400	0.265200	0.241200
H41	H4	0.739500	0.174600	0.267400
H51	H5	0.548100	0.259600	0.204900
H61	H6	0.535800	0.173600	0.166700
H71	H7	0.721600	0.042000	0.206500
H81	H8	0.770900	0.132000	0.179100
H91	H9	0.877100	0.310800	0.313400
H101	H10	0.940200	0.399200	0.378400
H111	H11	0.630000	0.480400	0.379600
H121	H12	0.566900	0.392000	0.316000
H131	H13	0.527600	0.314200	0.139000
H141	H14	0.550100	0.396000	0.083500
H151	H15	0.940200	0.462200	0.088200
H161	H16	0.919200	0.385800	0.144600
H171	H17	0.438200	0.864200	0.109800
H181	H18	0.476000	0.750000	0.058400
H191	H19	0.866100	0.897600	0.088200
H201	H20	0.829000	0.007000	0.141800
H211	H21	0.401900	0.971600	0.292000
H221	H22	0.345500	0.888200	0.252100
H231	H23	0.543200	0.734800	0.258800
H241	H24	0.564900	0.825400	0.232600
H251	H25	0.288500	0.740400	0.295100
H261	H26	0.362200	0.826400	0.333300
H271	H27	0.679600	0.958000	0.293500
H281	H28	0.638900	0.868000	0.320900
H291	H29	0.566300	0.689200	0.186600
H301	H30	0.541000	0.600800	0.121600
H311	H31	0.149600	0.519600	0.120400
H321	H32	0.174900	0.608000	0.184000
H331	H33	0.213400	0.685800	0.361000
H341	H34	0.154100	0.604000	0.416500
H351	H35	0.478000	0.537800	0.411800
H361	H36	0.533400	0.614200	0.355400
H371	H37	0.574000	0.135800	0.390200
H381	H38	0.726000	0.250000	0.441600
H391	H39	0.968500	0.102400	0.411800
H401	H40	0.822000	0.993000	0.358200
H411	H41	0.569700	0.971600	0.792000
H421	H42	0.542700	0.888200	0.752100
H431	H43	0.191600	0.734800	0.758800
H441	H44	0.260500	0.825400	0.732600
H451	H45	0.451900	0.740400	0.795100
H461	H46	0.464200	0.826400	0.833300
H471	H47	0.278400	0.958000	0.793500
H481	H48	0.229100	0.868000	0.820900
H491	H49	0.122900	0.689200	0.686600
H501	H50	0.059800	0.600800	0.621600
H511	H51	0.370000	0.519600	0.620400
H521	H52	0.433100	0.608000	0.684000
H531	H53	0.472400	0.685800	0.861000
H541	H54	0.449900	0.604000	0.916500
H551	H55	0.059800	0.537800	0.911800
H561	H56	0.080800	0.614200	0.855400
H571	H57	0.561800	0.135800	0.890200
H581	H58	0.524000	0.250000	0.941600
H591	H59	0.133900	0.102400	0.911800
H601	H60	0.171000	0.993000	0.858200
H611	H61	0.598100	0.028400	0.708000
H621	H62	0.654500	0.111800	0.747900
H631	H63	0.456800	0.265200	0.741200
H641	H64	0.435100	0.174600	0.767400
H651	H65	0.711500	0.259600	0.704900
H661	H66	0.637800	0.173600	0.666700
H671	H67	0.320400	0.042000	0.706500
H681	H68	0.361100	0.132000	0.679100
H691	H69	0.433700	0.310800	0.813400
H701	H70	0.459000	0.399200	0.878400
H711	H71	0.850400	0.480400	0.879600
H721	H72	0.825100	0.392000	0.816000
H731	H73	0.786600	0.314200	0.639000
H741	H74	0.845900	0.396000	0.583500
H751	H75	0.522000	0.462200	0.588200
H761	H76	0.466600	0.385800	0.644600
H771	H77	0.426000	0.864200	0.609800
H781	H78	0.274000	0.750000	0.558400
H791	H79	0.031500	0.897600	0.588200
H801	H80	0.178000	0.007000	0.641800
C11	C1	0.625210	0.147620	0.215470
C21	C2	0.495240	0.070480	0.230090
C31	C3	0.723510	0.219620	0.250430
C41	C4	0.593190	0.218980	0.189890
C51	C5	0.693110	0.082820	0.190490
C61	C6	0.713890	0.338980	0.308710
C71	C7	0.825640	0.343680	0.326840
C81	C8	0.864220	0.398040	0.365860
C91	C9	0.792010	0.449620	0.386010
C101	C10	0.680500	0.445800	0.366650
C111	C11	0.642300	0.392400	0.328670
C121	C12	0.831010	0.504020	0.428200
C131	C13	0.720280	0.339960	0.146010
C141	C14	0.610800	0.344200	0.128720
C151	C15	0.624760	0.393920	0.095640
C161	C16	0.749280	0.440560	0.080540
C171	C17	0.857010	0.434020	0.098610
C181	C18	0.844500	0.386400	0.131880
C191	C19	0.766310	0.496420	0.045580
C201	C20	0.629540	0.946480	0.130760
C211	C21	0.525000	0.870600	0.105880
C221	C22	0.547970	0.802940	0.074790
C231	C23	0.675010	0.813220	0.067880
C241	C24	0.779110	0.889820	0.092760
C251	C25	0.757500	0.956400	0.124720
C261	C26	0.695470	0.737140	0.034200
C271	C27	0.477590	0.852380	0.284530
C281	C28	0.424760	0.929520	0.269910
C291	C29	0.503890	0.780380	0.249570
C301	C30	0.374210	0.781020	0.310110
C311	C31	0.610290	0.917180	0.309510
C321	C32	0.374910	0.661020	0.191290
C331	C33	0.481960	0.656320	0.173160
C341	C34	0.466180	0.601960	0.134140
C351	C35	0.342390	0.550380	0.113990
C361	C36	0.234700	0.554200	0.133350
C371	C37	0.249900	0.607600	0.171330
C381	C38	0.326990	0.495980	0.071800
C391	C39	0.380320	0.660040	0.353990
C401	C40	0.266600	0.655800	0.371280
C411	C41	0.230840	0.606080	0.404360
C421	C42	0.308720	0.559440	0.419460
C431	C43	0.422990	0.565980	0.401390
C441	C44	0.458100	0.613600	0.368120
C451	C45	0.269890	0.503580	0.454420
C461	C46	0.683060	0.053520	0.369240
C471	C47	0.654400	0.129400	0.394120
C481	C48	0.745030	0.197060	0.425210
C491	C49	0.861790	0.186780	0.432120
C501	C50	0.889290	0.110180	0.407240
C511	C51	0.801100	0.043600	0.375280
C521	C52	0.958330	0.262860	0.465800
C531	C53	0.374790	0.852380	0.784530
C541	C54	0.504760	0.929520	0.769910
C551	C55	0.276490	0.780380	0.749570
C561	C56	0.406810	0.781020	0.810110
C571	C57	0.306890	0.917180	0.809510
C581	C58	0.286110	0.661020	0.691290
C591	C59	0.174360	0.656320	0.673160
C601	C60	0.135780	0.601960	0.634140
C611	C61	0.207990	0.550380	0.613990
C621	C62	0.319500	0.554200	0.633350
C631	C63	0.357700	0.607600	0.671330
C641	C64	0.168990	0.495980	0.571800
C651	C65	0.279720	0.660040	0.853990
C661	C66	0.389200	0.655800	0.871280
C671	C67	0.375240	0.606080	0.904360
C681	C68	0.250720	0.559440	0.919460
C691	C69	0.142990	0.565980	0.901390
C701	C70	0.155500	0.613600	0.868120
C711	C71	0.233690	0.503580	0.954420
C721	C72	0.370460	0.053520	0.869240
C731	C73	0.475000	0.129400	0.894120
C741	C74	0.452030	0.197060	0.925210
C751	C75	0.324990	0.186780	0.932120
C761	C76	0.220890	0.110180	0.907240
C771	C77	0.242500	0.043600	0.875280
C781	C78	0.304530	0.262860	0.965800
C791	C79	0.522410	0.147620	0.715470
C801	C80	0.575240	0.070480	0.730090
C811	C81	0.496110	0.219620	0.750430
C821	C82	0.625790	0.218980	0.689890
C831	C83	0.389710	0.082820	0.690490
C841	C84	0.625090	0.338980	0.808710
C851	C85	0.518040	0.343680	0.826840
C861	C86	0.533820	0.398040	0.865860
C871	C87	0.657610	0.449620	0.886010
C881	C88	0.765300	0.445800	0.866650
C891	C89	0.750100	0.392400	0.828670
C901	C90	0.673010	0.504020	0.928200
C911	C91	0.619680	0.339960	0.646010
C921	C92	0.733400	0.344200	0.628720
C931	C93	0.769160	0.393920	0.595640
C941	C94	0.691280	0.440560	0.580540
C951	C95	0.577010	0.434020	0.598610
C961	C96	0.541900	0.386400	0.631880
C971	C97	0.730110	0.496420	0.545580
C981	C98	0.316940	0.946480	0.630760
C991	C99	0.345600	0.870600	0.605880
C1001	C100	0.254970	0.802940	0.574790
C1011	C101	0.138210	0.813220	0.567880
C1021	C102	0.110710	0.889820	0.592760
C1031	C103	0.198900	0.956400	0.624720
C1041	C104	0.041670	0.737140	0.534200
O11	O1	0.663130	0.286260	0.271370
O21	O2	0.717750	0.291900	0.178680
O31	O3	0.593750	0.009100	0.159740
O41	O4	0.925920	0.495040	0.444710
O51	O5	0.763780	0.555760	0.443870
O61	O6	0.884760	0.550520	0.036850
O71	O7	0.669020	0.491040	0.025940
O81	O8	0.594350	0.669900	0.012500
O91	O9	0.813580	0.746560	0.029450
O101	O10	0.376870	0.713740	0.228630
O111	O11	0.425850	0.708100	0.321320
O121	O12	0.584650	0.990900	0.340260
O131	O13	0.430880	0.504960	0.055290
O141	O14	0.208020	0.444240	0.056130
O151	O15	0.334240	0.449480	0.463150
O161	O16	0.177980	0.508960	0.474060
O171	O17	0.924450	0.330100	0.487500
O181	O18	0.067020	0.253440	0.470550
O191	O19	0.336870	0.713740	0.728630
O201	O20	0.282250	0.708100	0.821320
O211	O21	0.406250	0.990900	0.840260
O221	O22	0.074080	0.504960	0.555290
O231	O23	0.236220	0.444240	0.556130
O241	O24	0.115240	0.449480	0.963150
O251	O25	0.330980	0.508960	0.974060
O261	O26	0.405650	0.330100	0.987500
O271	O27	0.186420	0.253440	0.970550
O281	O28	0.623130	0.286260	0.771370
O291	O29	0.574150	0.291900	0.678680
O301	O30	0.415350	0.009100	0.659740
O311	O31	0.569120	0.495040	0.944710
O321	O32	0.791980	0.555760	0.943870
O331	O33	0.665760	0.550520	0.536850
O341	O34	0.822020	0.491040	0.525940
O351	O35	0.075550	0.669900	0.512500
O361	O36	0.932980	0.746560	0.529450
O371	O37	0.528800	0.000000	0.250000
O381	O38	0.471200	0.000000	0.750000
