data_CDLGLU10_clean_PM
_symmetry_space_group_name_H-M	'P1'
_cell_length_a	7.286000
_cell_length_b	10.790000
_cell_length_c	11.610000
_cell_angle_alpha	90.000000
_cell_angle_beta	90.000000
_cell_angle_gamma	90.000000
_symmetry_Int_Tables_number 1

loop_
_symmetry_equiv_pos_as_xyz
'x,y,z'

loop_
_atom_site_label
_atom_site_type_symbol
_atom_site_fract_x
_atom_site_fract_y
_atom_site_fract_z
Cd11	Cd1	0.639100	0.816400	0.709100
Cd21	Cd2	0.139100	0.183600	0.790900
Cd31	Cd3	0.860900	0.316400	0.290900
Cd41	Cd4	0.360900	0.683600	0.209100
H11	H1	0.065500	0.201400	0.558700
H21	H2	0.936400	0.099300	0.606600
H31	H3	0.089800	0.971400	0.515400
H41	H4	0.383300	0.011700	0.430100
H51	H5	0.236400	0.133200	0.406200
H61	H6	0.384300	0.249300	0.556800
H71	H7	0.530700	0.127700	0.581300
H81	H8	0.565500	0.798600	0.941300
H91	H9	0.436400	0.900700	0.893400
H101	H10	0.589800	0.028600	0.984600
H111	H11	0.883300	0.988300	0.069900
H121	H12	0.736400	0.866800	0.093800
H131	H13	0.884300	0.750700	0.943200
H141	H14	0.030700	0.872300	0.918700
H151	H15	0.434500	0.701400	0.441300
H161	H16	0.563600	0.599300	0.393400
H171	H17	0.410200	0.471400	0.484600
H181	H18	0.116700	0.511700	0.569900
H191	H19	0.263600	0.633200	0.593800
H201	H20	0.115700	0.749300	0.443200
H211	H21	0.969300	0.627700	0.418700
H221	H22	0.934500	0.298600	0.058700
H231	H23	0.063600	0.400700	0.106600
H241	H24	0.910200	0.528600	0.015400
H251	H25	0.616700	0.488300	0.930100
H261	H26	0.763600	0.366800	0.906200
H271	H27	0.615700	0.250700	0.056800
H281	H28	0.469300	0.372300	0.081300
C11	C1	0.180500	0.032600	0.556700
C21	C2	0.285300	0.963100	0.649800
C31	C3	0.313000	0.085700	0.468900
C41	C4	0.454600	0.175100	0.518400
C51	C5	0.587400	0.227500	0.430800
C61	C6	0.680500	0.967400	0.943300
C71	C7	0.785300	0.036900	0.850200
C81	C8	0.813000	0.914300	0.031100
C91	C9	0.954600	0.824900	0.981600
C101	C10	0.087400	0.772500	0.069200
C111	C11	0.319500	0.532600	0.443300
C121	C12	0.214700	0.463100	0.350200
C131	C13	0.187000	0.585700	0.531100
C141	C14	0.045400	0.675100	0.481600
C151	C15	0.912600	0.727500	0.569200
C161	C16	0.819500	0.467400	0.056700
C171	C17	0.714700	0.536900	0.149800
C181	C18	0.687000	0.414300	0.968900
C191	C19	0.545400	0.324900	0.018400
C201	C20	0.412600	0.272500	0.930800
N11	N1	0.058800	0.129600	0.606000
N21	N2	0.558800	0.870400	0.894000
N31	N3	0.441200	0.629600	0.394000
N41	N4	0.941200	0.370400	0.106000
O11	O1	0.278700	0.998100	0.753100
O21	O2	0.382600	0.872900	0.614500
O31	O3	0.724300	0.288000	0.469200
O41	O4	0.565100	0.213000	0.324800
O51	O5	0.778700	0.001900	0.746900
O61	O6	0.882600	0.127100	0.885500
O71	O7	0.224300	0.712000	0.030800
O81	O8	0.065100	0.787000	0.175200
O91	O9	0.221300	0.498100	0.246900
O101	O10	0.117400	0.372900	0.385500
O111	O11	0.775700	0.788000	0.530800
O121	O12	0.934900	0.713000	0.675200
O131	O13	0.721300	0.501900	0.253100
O141	O14	0.617400	0.627100	0.114500
O151	O15	0.275700	0.212000	0.969200
O161	O16	0.434900	0.287000	0.824800
