data_CDLGLU12_clean_PM
_symmetry_space_group_name_H-M	'P1'
_cell_length_a	7.266000
_cell_length_b	10.776800
_cell_length_c	11.585700
_cell_angle_alpha	90.000000
_cell_angle_beta	90.000000
_cell_angle_gamma	90.000000
_symmetry_Int_Tables_number 1

loop_
_symmetry_equiv_pos_as_xyz
'x,y,z'

loop_
_atom_site_label
_atom_site_type_symbol
_atom_site_fract_x
_atom_site_fract_y
_atom_site_fract_z
Cd11	Cd1	0.110490	0.066450	0.959150
Cd21	Cd2	0.389510	0.933550	0.459150
Cd31	Cd3	0.889510	0.566450	0.540850
Cd41	Cd4	0.610490	0.433550	0.040850
H11	H1	0.149300	0.276800	0.233300
H21	H2	0.871100	0.232200	0.318400
H31	H3	0.005500	0.121200	0.341000
H41	H4	0.860400	0.007000	0.194800
H51	H5	0.726000	0.117900	0.172300
H61	H6	0.306300	0.147000	0.144400
H71	H7	0.183100	0.052000	0.188800
H81	H8	0.350700	0.723200	0.733300
H91	H9	0.628900	0.767800	0.818400
H101	H10	0.494500	0.878800	0.841000
H111	H11	0.639600	0.993000	0.694800
H121	H12	0.774000	0.882100	0.672300
H131	H13	0.193700	0.853000	0.644400
H141	H14	0.316900	0.948000	0.688800
H151	H15	0.850700	0.776800	0.266700
H161	H16	0.128900	0.732200	0.181600
H171	H17	0.994500	0.621200	0.159000
H181	H18	0.139600	0.507000	0.305200
H191	H19	0.274000	0.617900	0.327700
H201	H20	0.693700	0.647000	0.355600
H211	H21	0.816900	0.552000	0.311200
H221	H22	0.649300	0.223200	0.766700
H231	H23	0.371100	0.267800	0.681600
H241	H24	0.505500	0.378800	0.659000
H251	H25	0.360400	0.493000	0.805200
H261	H26	0.226000	0.382100	0.827700
H271	H27	0.806300	0.353000	0.855600
H281	H28	0.683100	0.448000	0.811200
C11	C1	0.963000	0.288000	0.099500
C21	C2	0.070000	0.217100	0.193340
C31	C3	0.935900	0.164100	0.281700
C41	C4	0.795600	0.075000	0.231570
C51	C5	0.663000	0.022400	0.318900
C61	C6	0.537000	0.712000	0.599500
C71	C7	0.430000	0.782900	0.693340
C81	C8	0.564100	0.835900	0.781700
C91	C9	0.704400	0.925000	0.731570
C101	C10	0.837000	0.977600	0.818900
C111	C11	0.037000	0.788000	0.400500
C121	C12	0.930000	0.717100	0.306660
C131	C13	0.064100	0.664100	0.218300
C141	C14	0.204400	0.575000	0.268430
C151	C15	0.337000	0.522400	0.181100
C161	C16	0.463000	0.212000	0.900500
C171	C17	0.570000	0.282900	0.806660
C181	C18	0.435900	0.335900	0.718300
C191	C19	0.295600	0.425000	0.768430
C201	C20	0.163000	0.477600	0.681100
N11	N1	0.189100	0.119990	0.143870
N21	N2	0.310900	0.880010	0.643870
N31	N3	0.810900	0.619990	0.356130
N41	N4	0.689100	0.380010	0.856130
O11	O1	0.971300	0.252660	0.996560
O21	O2	0.868500	0.377270	0.135110
O31	O3	0.526100	0.961540	0.281000
O41	O4	0.684200	0.037560	0.425010
O51	O5	0.528700	0.747340	0.496560
O61	O6	0.631500	0.622730	0.635110
O71	O7	0.973900	0.038460	0.781000
O81	O8	0.815800	0.962440	0.925010
O91	O9	0.028700	0.752660	0.503440
O101	O10	0.131500	0.877270	0.364890
O111	O11	0.473900	0.461540	0.219000
O121	O12	0.315800	0.537560	0.074990
O131	O13	0.471300	0.247340	0.003440
O141	O14	0.368500	0.122730	0.864890
O151	O15	0.026100	0.538460	0.719000
O161	O16	0.184200	0.462440	0.574990
