data_CEBDOD_clean_PM
_symmetry_space_group_name_H-M	'P1'
_cell_length_a	7.186200
_cell_length_b	13.483600
_cell_length_c	13.483600
_cell_angle_alpha	119.431000
_cell_angle_beta	97.532900
_cell_angle_gamma	82.467100
_symmetry_Int_Tables_number 1

loop_
_symmetry_equiv_pos_as_xyz
'x,y,z'

loop_
_atom_site_label
_atom_site_type_symbol
_atom_site_fract_x
_atom_site_fract_y
_atom_site_fract_z
Ba11	Ba1	0.109590	0.331810	0.848710
Ba21	Ba2	0.390410	0.848710	0.331810
Ba31	Ba3	0.890410	0.668190	0.151290
Ba41	Ba4	0.609590	0.151290	0.668190
Ba51	Ba5	0.250000	0.100620	0.100620
Ba61	Ba6	0.750000	0.899380	0.899380
P11	P1	0.645340	0.439780	0.854320
P21	P2	0.102050	0.802780	0.034160
P31	P3	0.854660	0.854320	0.439780
P41	P4	0.397950	0.034160	0.802780
P51	P5	0.354660	0.560220	0.145680
P61	P6	0.897950	0.197220	0.965840
P71	P7	0.145340	0.145680	0.560220
P81	P8	0.602050	0.965840	0.197220
H11	H1	0.622000	0.606000	0.876000
H21	H2	0.473000	0.558000	0.790000
H31	H3	0.270000	0.728000	0.874000
H41	H4	0.399000	0.792000	0.986000
H51	H5	0.878000	0.876000	0.606000
H61	H6	0.027000	0.790000	0.558000
H71	H7	0.230000	0.874000	0.728000
H81	H8	0.101000	0.986000	0.792000
H91	H9	0.378000	0.394000	0.124000
H101	H10	0.527000	0.442000	0.210000
H111	H11	0.730000	0.272000	0.126000
H121	H12	0.601000	0.208000	0.014000
H131	H13	0.122000	0.124000	0.394000
H141	H14	0.973000	0.210000	0.442000
H151	H15	0.770000	0.126000	0.272000
H161	H16	0.899000	0.014000	0.208000
C11	C1	0.531200	0.569200	0.855800
C21	C2	0.307500	0.738850	0.951150
C31	C3	0.968800	0.855800	0.569200
C41	C4	0.192500	0.951150	0.738850
C51	C5	0.468800	0.430800	0.144200
C61	C6	0.692500	0.261150	0.048850
C71	C7	0.031200	0.144200	0.430800
C81	C8	0.807500	0.048850	0.261150
N11	N1	0.390000	0.628320	0.942680
N21	N2	0.110000	0.942680	0.628320
N31	N3	0.610000	0.371680	0.057320
N41	N4	0.890000	0.057320	0.371680
O11	O1	0.790100	0.476370	0.956030
O21	O2	0.490000	0.376290	0.859910
O31	O3	0.738200	0.372570	0.741430
O41	O4	0.147500	0.806950	0.148450
O51	O5	0.070900	0.918480	0.038520
O61	O6	0.936900	0.730590	0.966010
O71	O7	0.709900	0.956030	0.476370
O81	O8	0.010000	0.859910	0.376290
O91	O9	0.761800	0.741430	0.372570
O101	O10	0.352500	0.148450	0.806950
O111	O11	0.429100	0.038520	0.918480
O121	O12	0.563100	0.966010	0.730590
O131	O13	0.209900	0.523630	0.043970
O141	O14	0.510000	0.623710	0.140090
O151	O15	0.261800	0.627430	0.258570
O161	O16	0.852500	0.193050	0.851550
O171	O17	0.929100	0.081520	0.961480
O181	O18	0.063100	0.269410	0.033990
O191	O19	0.290100	0.043970	0.523630
O201	O20	0.990000	0.140090	0.623710
O211	O21	0.238200	0.258570	0.627430
O221	O22	0.647500	0.851550	0.193050
O231	O23	0.570900	0.961480	0.081520
O241	O24	0.436900	0.033990	0.269410
