data_CECVOW_clean_PM
_symmetry_space_group_name_H-M	'P1'
_cell_length_a	6.751000
_cell_length_b	11.916000
_cell_length_c	13.457000
_cell_angle_alpha	90.000000
_cell_angle_beta	100.427000
_cell_angle_gamma	90.000000
_symmetry_Int_Tables_number 1

loop_
_symmetry_equiv_pos_as_xyz
'x,y,z'

loop_
_atom_site_label
_atom_site_type_symbol
_atom_site_fract_x
_atom_site_fract_y
_atom_site_fract_z
Nd11	Nd1	0.947490	0.830540	0.744930
Nd21	Nd2	0.052510	0.330540	0.755070
Nd31	Nd3	0.052510	0.169460	0.255070
Nd41	Nd4	0.947490	0.669460	0.244930
H11	H1	0.211000	0.941000	0.543000
H21	H2	0.546000	0.808000	0.359000
H31	H3	0.789000	0.441000	0.957000
H41	H4	0.454000	0.308000	0.141000
H51	H5	0.789000	0.059000	0.457000
H61	H6	0.454000	0.192000	0.641000
H71	H7	0.211000	0.559000	0.043000
H81	H8	0.546000	0.692000	0.859000
C11	C1	0.457500	0.896300	0.719100
C21	C2	0.473100	0.879500	0.610100
C31	C3	0.317200	0.903900	0.529700
C41	C4	0.345100	0.877600	0.433900
C51	C5	0.181800	0.900500	0.342800
C61	C6	0.523200	0.826500	0.418800
C71	C7	0.674300	0.811700	0.501900
C81	C8	0.881800	0.766400	0.496200
C91	C9	0.542500	0.396300	0.780900
C101	C10	0.526900	0.379500	0.889900
C111	C11	0.682800	0.403900	0.970300
C121	C12	0.654900	0.377600	0.066100
C131	C13	0.818200	0.400500	0.157200
C141	C14	0.476800	0.326500	0.081200
C151	C15	0.325700	0.311700	0.998100
C161	C16	0.118200	0.266400	0.003800
C171	C17	0.542500	0.103700	0.280900
C181	C18	0.526900	0.120500	0.389900
C191	C19	0.682800	0.096100	0.470300
C201	C20	0.654900	0.122400	0.566100
C211	C21	0.818200	0.099500	0.657200
C221	C22	0.476800	0.173500	0.581200
C231	C23	0.325700	0.188300	0.498100
C241	C24	0.118200	0.233600	0.503800
C251	C25	0.457500	0.603700	0.219100
C261	C26	0.473100	0.620500	0.110100
C271	C27	0.317200	0.596100	0.029700
C281	C28	0.345100	0.622400	0.933900
C291	C29	0.181800	0.599500	0.842800
C301	C30	0.523200	0.673500	0.918800
C311	C31	0.674300	0.688300	0.001900
C321	C32	0.881800	0.733600	0.996200
N11	N1	0.650100	0.837800	0.595800
N21	N2	0.349900	0.337800	0.904200
N31	N3	0.349900	0.162200	0.404200
N41	N4	0.650100	0.662200	0.095800
O11	O1	0.622500	0.901000	0.781100
O21	O2	0.288000	0.906500	0.742100
O31	O3	0.165500	0.832100	0.270800
O41	O4	0.074900	0.986600	0.345500
O51	O5	0.922800	0.743100	0.411500
O61	O6	0.001500	0.756600	0.579100
O71	O7	0.377500	0.401000	0.718900
O81	O8	0.712000	0.406500	0.757900
O91	O9	0.834500	0.332100	0.229200
O101	O10	0.925100	0.486600	0.154500
O111	O11	0.077200	0.243100	0.088500
O121	O12	0.998500	0.256600	0.920900
O131	O13	0.377500	0.099000	0.218900
O141	O14	0.712000	0.093500	0.257900
O151	O15	0.834500	0.167900	0.729200
O161	O16	0.925100	0.013400	0.654500
O171	O17	0.077200	0.256900	0.588500
O181	O18	0.998500	0.243400	0.420900
O191	O19	0.622500	0.599000	0.281100
O201	O20	0.288000	0.593500	0.242100
O211	O21	0.165500	0.667900	0.770800
O221	O22	0.074900	0.513400	0.845500
O231	O23	0.922800	0.756900	0.911500
O241	O24	0.001500	0.743400	0.079100
