data_CEFDAU_clean_PM
_symmetry_space_group_name_H-M	'P1'
_cell_length_a	14.115300
_cell_length_b	8.850500
_cell_length_c	13.570400
_cell_angle_alpha	90.000000
_cell_angle_beta	111.761000
_cell_angle_gamma	90.000000
_symmetry_Int_Tables_number 1

loop_
_symmetry_equiv_pos_as_xyz
'x,y,z'

loop_
_atom_site_label
_atom_site_type_symbol
_atom_site_fract_x
_atom_site_fract_y
_atom_site_fract_z
O11	O1	0.418530	0.648600	0.640400
O21	O2	0.314300	0.453500	0.587800
O31	O3	0.348000	0.465700	0.364800
O41	O4	0.440490	0.642500	0.325320
C11	C1	0.336900	0.584600	0.574400
C21	C2	0.374200	0.597000	0.364500
C31	C3	0.270000	0.679400	0.480100
H11	H1	0.211100	0.618000	0.437800
C41	C4	0.328600	0.724700	0.409000
H21	H2	0.282700	0.782300	0.349600
H31	H3	0.383600	0.791800	0.449400
O51	O5	0.918530	0.148600	0.640400
O61	O6	0.814300	0.953500	0.587800
O71	O7	0.848000	0.965700	0.364800
O81	O8	0.940490	0.142500	0.325320
C51	C5	0.836900	0.084600	0.574400
C61	C6	0.874200	0.097000	0.364500
C71	C7	0.770000	0.179400	0.480100
H41	H4	0.711100	0.118000	0.437800
C81	C8	0.828600	0.224700	0.409000
H51	H5	0.782700	0.282300	0.349600
H61	H6	0.883600	0.291800	0.449400
O91	O9	0.581470	0.648600	0.859600
O101	O10	0.685700	0.453500	0.912200
O111	O11	0.652000	0.465700	0.135200
O121	O12	0.559510	0.642500	0.174680
C91	C9	0.663100	0.584600	0.925600
C101	C10	0.625800	0.597000	0.135500
C111	C11	0.730000	0.679400	0.019900
H71	H7	0.788900	0.618000	0.062200
C121	C12	0.671400	0.724700	0.091000
H81	H8	0.717300	0.782300	0.150400
H91	H9	0.616400	0.791800	0.050600
O131	O13	0.081470	0.148600	0.859600
O141	O14	0.185700	0.953500	0.912200
O151	O15	0.152000	0.965700	0.135200
O161	O16	0.059510	0.142500	0.174680
C131	C13	0.163100	0.084600	0.925600
C141	C14	0.125800	0.097000	0.135500
C151	C15	0.230000	0.179400	0.019900
H101	H10	0.288900	0.118000	0.062200
C161	C16	0.171400	0.224700	0.091000
H111	H11	0.217300	0.282300	0.150400
H121	H12	0.116400	0.291800	0.050600
O171	O17	0.581470	0.351400	0.359600
O181	O18	0.685700	0.546500	0.412200
O191	O19	0.652000	0.534300	0.635200
O201	O20	0.559510	0.357500	0.674680
C171	C17	0.663100	0.415400	0.425600
C181	C18	0.625800	0.403000	0.635500
C191	C19	0.730000	0.320600	0.519900
H131	H13	0.788900	0.382000	0.562200
C201	C20	0.671400	0.275300	0.591000
H141	H14	0.717300	0.217700	0.650400
H151	H15	0.616400	0.208200	0.550600
O211	O21	0.081470	0.851400	0.359600
O221	O22	0.185700	0.046500	0.412200
O231	O23	0.152000	0.034300	0.635200
O241	O24	0.059510	0.857500	0.674680
C211	C21	0.163100	0.915400	0.425600
C221	C22	0.125800	0.903000	0.635500
C231	C23	0.230000	0.820600	0.519900
H161	H16	0.288900	0.882000	0.562200
C241	C24	0.171400	0.775300	0.591000
H171	H17	0.217300	0.717700	0.650400
H181	H18	0.116400	0.708200	0.550600
O251	O25	0.418530	0.351400	0.140400
O261	O26	0.314300	0.546500	0.087800
O271	O27	0.348000	0.534300	0.864800
O281	O28	0.440490	0.357500	0.825320
C251	C25	0.336900	0.415400	0.074400
C261	C26	0.374200	0.403000	0.864500
C271	C27	0.270000	0.320600	0.980100
H191	H19	0.211100	0.382000	0.937800
C281	C28	0.328600	0.275300	0.909000
H201	H20	0.282700	0.217700	0.849600
H211	H21	0.383600	0.208200	0.949400
O291	O29	0.918530	0.851400	0.140400
O301	O30	0.814300	0.046500	0.087800
O311	O31	0.848000	0.034300	0.864800
O321	O32	0.940490	0.857500	0.825320
C291	C29	0.836900	0.915400	0.074400
C301	C30	0.874200	0.903000	0.864500
C311	C31	0.770000	0.820600	0.980100
H221	H22	0.711100	0.882000	0.937800
C321	C32	0.828600	0.775300	0.909000
H231	H23	0.782700	0.717700	0.849600
H241	H24	0.883600	0.708200	0.949400
Zn11	Zn1	0.500000	0.500290	0.750000
Zn21	Zn2	0.000000	0.000290	0.750000
Zn31	Zn3	0.500000	0.499710	0.250000
Zn41	Zn4	0.000000	0.999710	0.250000
