data_CEGDUO_clean_PM
_symmetry_space_group_name_H-M	'P1'
_cell_length_a	10.430700
_cell_length_b	19.622800
_cell_length_c	12.786700
_cell_angle_alpha	90.000000
_cell_angle_beta	90.000000
_cell_angle_gamma	90.000000
_symmetry_Int_Tables_number 1

loop_
_symmetry_equiv_pos_as_xyz
'x,y,z'

loop_
_atom_site_label
_atom_site_type_symbol
_atom_site_fract_x
_atom_site_fract_y
_atom_site_fract_z
Ag11	Ag1	0.142450	0.464790	0.673020
Ag21	Ag2	0.857550	0.035210	0.673020
Ag31	Ag3	0.642450	0.035210	0.826980
Ag41	Ag4	0.357550	0.464790	0.826980
Ag51	Ag5	0.250000	0.333660	0.250000
Ag61	Ag6	0.750000	0.166340	0.250000
Ag71	Ag7	0.000000	0.750000	0.829580
Ag81	Ag8	0.500000	0.750000	0.670420
H11	H1	0.217200	0.300200	0.647800
H21	H2	0.249600	0.244900	0.476300
H31	H3	0.191300	0.461300	0.334200
H41	H4	0.252700	0.497200	0.434700
H51	H5	0.100900	0.486600	0.427500
H61	H6	0.988500	0.612600	0.978600
H71	H7	0.041100	0.496900	0.915800
H81	H8	0.103000	0.686700	0.645300
H91	H9	0.060900	0.616800	0.590800
H101	H10	0.205400	0.626800	0.630100
H111	H11	0.782800	0.199800	0.647800
H121	H12	0.750400	0.255100	0.476300
H131	H13	0.808700	0.038700	0.334200
H141	H14	0.747300	0.002800	0.434700
H151	H15	0.899100	0.013400	0.427500
H161	H16	0.011500	0.887400	0.978600
H171	H17	0.958900	0.003100	0.915800
H181	H18	0.897000	0.813300	0.645300
H191	H19	0.939100	0.883200	0.590800
H201	H20	0.794600	0.873200	0.630100
H211	H21	0.717200	0.199800	0.852200
H221	H22	0.749600	0.255100	0.023700
H231	H23	0.691300	0.038700	0.165800
H241	H24	0.752700	0.002800	0.065300
H251	H25	0.600900	0.013400	0.072500
H261	H26	0.488500	0.887400	0.521400
H271	H27	0.541100	0.003100	0.584200
H281	H28	0.603000	0.813300	0.854700
H291	H29	0.560900	0.883200	0.909200
H301	H30	0.705400	0.873200	0.869900
H311	H31	0.282800	0.300200	0.852200
H321	H32	0.250400	0.244900	0.023700
H331	H33	0.308700	0.461300	0.165800
H341	H34	0.247300	0.497200	0.065300
H351	H35	0.399100	0.486600	0.072500
H361	H36	0.511500	0.612600	0.521400
H371	H37	0.458900	0.496900	0.584200
H381	H38	0.397000	0.686700	0.854700
H391	H39	0.439100	0.616800	0.909200
H401	H40	0.294600	0.626800	0.869900
C11	C1	0.197700	0.399250	0.461800
C21	C2	0.214600	0.322270	0.581700
C31	C3	0.232600	0.291860	0.487400
C41	C4	0.184500	0.466850	0.410100
C51	C5	0.079700	0.608660	0.749230
C61	C6	0.018300	0.601210	0.910600
C71	C7	0.046800	0.537680	0.875900
C81	C8	0.115300	0.637160	0.644900
C91	C9	0.802300	0.100750	0.461800
C101	C10	0.785400	0.177730	0.581700
C111	C11	0.767400	0.208140	0.487400
C121	C12	0.815500	0.033150	0.410100
C131	C13	0.920300	0.891340	0.749230
C141	C14	0.981700	0.898790	0.910600
C151	C15	0.953200	0.962320	0.875900
C161	C16	0.884700	0.862840	0.644900
C171	C17	0.697700	0.100750	0.038200
C181	C18	0.714600	0.177730	0.918300
C191	C19	0.732600	0.208140	0.012600
C201	C20	0.684500	0.033150	0.089900
C211	C21	0.579700	0.891340	0.750770
C221	C22	0.518300	0.898790	0.589400
C231	C23	0.546800	0.962320	0.624100
C241	C24	0.615300	0.862840	0.855100
C251	C25	0.302300	0.399250	0.038200
C261	C26	0.285400	0.322270	0.918300
C271	C27	0.267400	0.291860	0.012600
C281	C28	0.315500	0.466850	0.089900
C291	C29	0.420300	0.608660	0.750770
C301	C30	0.481700	0.601210	0.589400
C311	C31	0.453200	0.537680	0.624100
C321	C32	0.384700	0.637160	0.855100
N11	N1	0.221900	0.340730	0.410800
N21	N2	0.192000	0.390460	0.565430
N31	N3	0.085600	0.542280	0.773200
N41	N4	0.039900	0.646610	0.829790
N51	N5	0.778100	0.159270	0.410800
N61	N6	0.808000	0.109540	0.565430
N71	N7	0.914400	0.957720	0.773200
N81	N8	0.960100	0.853390	0.829790
N91	N9	0.721900	0.159270	0.089200
N101	N10	0.692000	0.109540	0.934570
N111	N11	0.585600	0.957720	0.726800
N121	N12	0.539900	0.853390	0.670210
N131	N13	0.278100	0.340730	0.089200
N141	N14	0.308000	0.390460	0.934570
N151	N15	0.414400	0.542280	0.726800
N161	N16	0.460100	0.646610	0.670210
Ag91	Ag9	0.857550	0.535210	0.326980
Ag101	Ag10	0.142450	0.964790	0.326980
Ag111	Ag11	0.357550	0.964790	0.173020
Ag121	Ag12	0.642450	0.535210	0.173020
Ag131	Ag13	0.750000	0.666340	0.750000
Ag141	Ag14	0.250000	0.833660	0.750000
Ag151	Ag15	0.000000	0.250000	0.170420
Ag161	Ag16	0.500000	0.250000	0.329580
H411	H41	0.782800	0.699800	0.352200
H421	H42	0.750400	0.755100	0.523700
H431	H43	0.808700	0.538700	0.665800
H441	H44	0.747300	0.502800	0.565300
H451	H45	0.899100	0.513400	0.572500
H461	H46	0.011500	0.387400	0.021400
H471	H47	0.958900	0.503100	0.084200
H481	H48	0.897000	0.313300	0.354700
H491	H49	0.939100	0.383200	0.409200
H501	H50	0.794600	0.373200	0.369900
H511	H51	0.217200	0.800200	0.352200
H521	H52	0.249600	0.744900	0.523700
H531	H53	0.191300	0.961300	0.665800
H541	H54	0.252700	0.997200	0.565300
H551	H55	0.100900	0.986600	0.572500
H561	H56	0.988500	0.112600	0.021400
H571	H57	0.041100	0.996900	0.084200
H581	H58	0.103000	0.186700	0.354700
H591	H59	0.060900	0.116800	0.409200
H601	H60	0.205400	0.126800	0.369900
H611	H61	0.282800	0.800200	0.147800
H621	H62	0.250400	0.744900	0.976300
H631	H63	0.308700	0.961300	0.834200
H641	H64	0.247300	0.997200	0.934700
H651	H65	0.399100	0.986600	0.927500
H661	H66	0.511500	0.112600	0.478600
H671	H67	0.458900	0.996900	0.415800
H681	H68	0.397000	0.186700	0.145300
H691	H69	0.439100	0.116800	0.090800
H701	H70	0.294600	0.126800	0.130100
H711	H71	0.717200	0.699800	0.147800
H721	H72	0.749600	0.755100	0.976300
H731	H73	0.691300	0.538700	0.834200
H741	H74	0.752700	0.502800	0.934700
H751	H75	0.600900	0.513400	0.927500
H761	H76	0.488500	0.387400	0.478600
H771	H77	0.541100	0.503100	0.415800
H781	H78	0.603000	0.313300	0.145300
H791	H79	0.560900	0.383200	0.090800
H801	H80	0.705400	0.373200	0.130100
C331	C33	0.802300	0.600750	0.538200
C341	C34	0.785400	0.677730	0.418300
C351	C35	0.767400	0.708140	0.512600
C361	C36	0.815500	0.533150	0.589900
C371	C37	0.920300	0.391340	0.250770
C381	C38	0.981700	0.398790	0.089400
C391	C39	0.953200	0.462320	0.124100
C401	C40	0.884700	0.362840	0.355100
C411	C41	0.197700	0.899250	0.538200
C421	C42	0.214600	0.822270	0.418300
C431	C43	0.232600	0.791860	0.512600
C441	C44	0.184500	0.966850	0.589900
C451	C45	0.079700	0.108660	0.250770
C461	C46	0.018300	0.101210	0.089400
C471	C47	0.046800	0.037680	0.124100
C481	C48	0.115300	0.137160	0.355100
C491	C49	0.302300	0.899250	0.961800
C501	C50	0.285400	0.822270	0.081700
C511	C51	0.267400	0.791860	0.987400
C521	C52	0.315500	0.966850	0.910100
C531	C53	0.420300	0.108660	0.249230
C541	C54	0.481700	0.101210	0.410600
C551	C55	0.453200	0.037680	0.375900
C561	C56	0.384700	0.137160	0.144900
C571	C57	0.697700	0.600750	0.961800
C581	C58	0.714600	0.677730	0.081700
C591	C59	0.732600	0.708140	0.987400
C601	C60	0.684500	0.533150	0.910100
C611	C61	0.579700	0.391340	0.249230
C621	C62	0.518300	0.398790	0.410600
C631	C63	0.546800	0.462320	0.375900
C641	C64	0.615300	0.362840	0.144900
N171	N17	0.778100	0.659270	0.589200
N181	N18	0.808000	0.609540	0.434570
N191	N19	0.914400	0.457720	0.226800
N201	N20	0.960100	0.353390	0.170210
N211	N21	0.221900	0.840730	0.589200
N221	N22	0.192000	0.890460	0.434570
N231	N23	0.085600	0.042280	0.226800
N241	N24	0.039900	0.146610	0.170210
N251	N25	0.278100	0.840730	0.910800
N261	N26	0.308000	0.890460	0.065430
N271	N27	0.414400	0.042280	0.273200
N281	N28	0.460100	0.146610	0.329790
N291	N29	0.721900	0.659270	0.910800
N301	N30	0.692000	0.609540	0.065430
N311	N31	0.585600	0.457720	0.273200
N321	N32	0.539900	0.353390	0.329790
