data_CEHLAD_clean_PM
_symmetry_space_group_name_H-M	'P1'
_cell_length_a	13.692900
_cell_length_b	13.692900
_cell_length_c	50.664000
_cell_angle_alpha	90.000000
_cell_angle_beta	90.000000
_cell_angle_gamma	90.000000
_symmetry_Int_Tables_number 1

loop_
_symmetry_equiv_pos_as_xyz
'x,y,z'

loop_
_atom_site_label
_atom_site_type_symbol
_atom_site_fract_x
_atom_site_fract_y
_atom_site_fract_z
Zn11	Zn1	0.995250	0.584510	0.882330
Zn21	Zn2	0.361980	0.487990	0.755320
Zn31	Zn3	0.946030	0.731030	0.831890
Zn41	Zn4	0.004750	0.415490	0.382330
Zn51	Zn5	0.638020	0.512010	0.255320
Zn61	Zn6	0.053970	0.268970	0.331890
Zn71	Zn7	0.915490	0.495250	0.632330
Zn81	Zn8	0.012010	0.861980	0.505320
Zn91	Zn9	0.768970	0.446030	0.581890
Zn101	Zn10	0.084510	0.504750	0.132330
Zn111	Zn11	0.987990	0.138020	0.005320
Zn121	Zn12	0.231030	0.553970	0.081890
Zn131	Zn13	0.504750	0.084510	0.867670
Zn141	Zn14	0.138020	0.987990	0.994680
Zn151	Zn15	0.553970	0.231030	0.918110
Zn161	Zn16	0.495250	0.915490	0.367670
Zn171	Zn17	0.861980	0.012010	0.494680
Zn181	Zn18	0.446030	0.768970	0.418110
Zn191	Zn19	0.584510	0.995250	0.117670
Zn201	Zn20	0.487990	0.361980	0.244680
Zn211	Zn21	0.731030	0.946030	0.168110
Zn221	Zn22	0.415490	0.004750	0.617670
Zn231	Zn23	0.512010	0.638020	0.744680
Zn241	Zn24	0.268970	0.053970	0.668110
H11	H1	0.256800	0.836200	0.874400
H21	H2	0.427100	0.836900	0.810100
H31	H3	0.212700	0.639200	0.816700
H41	H4	0.962100	0.839600	0.934700
H51	H5	0.779300	0.061400	0.946300
H61	H6	0.733500	0.874500	0.886300
H71	H7	0.743200	0.163800	0.374400
H81	H8	0.572900	0.163100	0.310100
H91	H9	0.787300	0.360800	0.316700
H101	H10	0.037900	0.160400	0.434700
H111	H11	0.220700	0.938600	0.446300
H121	H12	0.266500	0.125500	0.386300
H131	H13	0.663800	0.756800	0.624400
H141	H14	0.663100	0.927100	0.560100
H151	H15	0.860800	0.712700	0.566700
H161	H16	0.660400	0.462100	0.684700
H171	H17	0.438600	0.279300	0.696300
H181	H18	0.625500	0.233500	0.636300
H191	H19	0.336200	0.243200	0.124400
H201	H20	0.336900	0.072900	0.060100
H211	H21	0.139200	0.287300	0.066700
H221	H22	0.339600	0.537900	0.184700
H231	H23	0.561400	0.720700	0.196300
H241	H24	0.374500	0.766500	0.136300
H251	H25	0.243200	0.336200	0.875600
H261	H26	0.072900	0.336900	0.939900
H271	H27	0.287300	0.139200	0.933300
H281	H28	0.537900	0.339600	0.815300
H291	H29	0.720700	0.561400	0.803700
H301	H30	0.766500	0.374500	0.863700
H311	H31	0.756800	0.663800	0.375600
H321	H32	0.927100	0.663100	0.439900
H331	H33	0.712700	0.860800	0.433300
H341	H34	0.462100	0.660400	0.315300
H351	H35	0.279300	0.438600	0.303700
H361	H36	0.233500	0.625500	0.363700
H371	H37	0.836200	0.256800	0.125600
H381	H38	0.836900	0.427100	0.189900
H391	H39	0.639200	0.212700	0.183300
H401	H40	0.839600	0.962100	0.065300
H411	H41	0.061400	0.779300	0.053700
H421	H42	0.874500	0.733500	0.113700
H431	H43	0.163800	0.743200	0.625600
H441	H44	0.163100	0.572900	0.689900
H451	H45	0.360800	0.787300	0.683300
H461	H46	0.160400	0.037900	0.565300
H471	H47	0.938600	0.220700	0.553700
H481	H48	0.125500	0.266500	0.613700
C11	C1	0.138700	0.692000	0.864330
C21	C2	0.220300	0.733900	0.847620
C31	C3	0.272900	0.811400	0.857910
C41	C4	0.349700	0.852400	0.843700
C51	C5	0.376300	0.809900	0.819830
C61	C6	0.328600	0.728200	0.810340
C71	C7	0.247900	0.691300	0.823650
C81	C8	0.403700	0.937200	0.854740
C91	C9	0.365400	0.675300	0.786440
C101	C10	0.886400	0.755700	0.891890
C111	C11	0.852000	0.841700	0.908060
C121	C12	0.907100	0.874500	0.929550
C131	C13	0.881700	0.956100	0.942900
C141	C14	0.797700	0.006800	0.936520
C151	C15	0.740200	0.975100	0.915140
C161	C16	0.769600	0.894100	0.900890
C171	C17	0.946000	0.995700	0.965400
C181	C18	0.651400	0.035700	0.907610
C191	C19	0.861300	0.308000	0.364330
C201	C20	0.779700	0.266100	0.347620
C211	C21	0.727100	0.188600	0.357910
C221	C22	0.650300	0.147600	0.343700
C231	C23	0.623700	0.190100	0.319830
C241	C24	0.671400	0.271800	0.310340
C251	C25	0.752100	0.308700	0.323650
C261	C26	0.596300	0.062800	0.354740
C271	C27	0.634600	0.324700	0.286440
C281	C28	0.113600	0.244300	0.391890
C291	C29	0.148000	0.158300	0.408060
C301	C30	0.092900	0.125500	0.429550
C311	C31	0.118300	0.043900	0.442900
C321	C32	0.202300	0.993200	0.436520
C331	C33	0.259800	0.024900	0.415140
C341	C34	0.230400	0.105900	0.400890
C351	C35	0.054000	0.004300	0.465400
C361	C36	0.348600	0.964300	0.407610
C371	C37	0.808000	0.638700	0.614330
C381	C38	0.766100	0.720300	0.597620
C391	C39	0.688600	0.772900	0.607910
C401	C40	0.647600	0.849700	0.593700
C411	C41	0.690100	0.876300	0.569830
C421	C42	0.771800	0.828600	0.560340
C431	C43	0.808700	0.747900	0.573650
C441	C44	0.562800	0.903700	0.604740
C451	C45	0.824700	0.865400	0.536440
C461	C46	0.744300	0.386400	0.641890
C471	C47	0.658300	0.352000	0.658060
C481	C48	0.625500	0.407100	0.679550
C491	C49	0.543900	0.381700	0.692900
C501	C50	0.493200	0.297700	0.686520
C511	C51	0.524900	0.240200	0.665140
C521	C52	0.605900	0.269600	0.650890
C531	C53	0.504300	0.446000	0.715400
C541	C54	0.464300	0.151400	0.657610
C551	C55	0.192000	0.361300	0.114330
C561	C56	0.233900	0.279700	0.097620
C571	C57	0.311400	0.227100	0.107910
C581	C58	0.352400	0.150300	0.093700
C591	C59	0.309900	0.123700	0.069830
C601	C60	0.228200	0.171400	0.060340
C611	C61	0.191300	0.252100	0.073650
C621	C62	0.437200	0.096300	0.104740
C631	C63	0.175300	0.134600	0.036440
C641	C64	0.255700	0.613600	0.141890
C651	C65	0.341700	0.648000	0.158060
C661	C66	0.374500	0.592900	0.179550
C671	C67	0.456100	0.618300	0.192900
C681	C68	0.506800	0.702300	0.186520
C691	C69	0.475100	0.759800	0.165140
C701	C70	0.394100	0.730400	0.150890
C711	C71	0.495700	0.554000	0.215400
C721	C72	0.535700	0.848600	0.157610
C731	C73	0.361300	0.192000	0.885670
C741	C74	0.279700	0.233900	0.902380
C751	C75	0.227100	0.311400	0.892090
C761	C76	0.150300	0.352400	0.906300
C771	C77	0.123700	0.309900	0.930170
C781	C78	0.171400	0.228200	0.939660
C791	C79	0.252100	0.191300	0.926350
C801	C80	0.096300	0.437200	0.895260
C811	C81	0.134600	0.175300	0.963560
C821	C82	0.613600	0.255700	0.858110
C831	C83	0.648000	0.341700	0.841940
C841	C84	0.592900	0.374500	0.820450
C851	C85	0.618300	0.456100	0.807100
C861	C86	0.702300	0.506800	0.813480
C871	C87	0.759800	0.475100	0.834860
C881	C88	0.730400	0.394100	0.849110
C891	C89	0.554000	0.495700	0.784600
C901	C90	0.848600	0.535700	0.842390
C911	C91	0.638700	0.808000	0.385670
C921	C92	0.720300	0.766100	0.402380
C931	C93	0.772900	0.688600	0.392090
C941	C94	0.849700	0.647600	0.406300
C951	C95	0.876300	0.690100	0.430170
C961	C96	0.828600	0.771800	0.439660
C971	C97	0.747900	0.808700	0.426350
C981	C98	0.903700	0.562800	0.395260
C991	C99	0.865400	0.824700	0.463560
C1001	C100	0.386400	0.744300	0.358110
C1011	C101	0.352000	0.658300	0.341940
C1021	C102	0.407100	0.625500	0.320450
C1031	C103	0.381700	0.543900	0.307100
C1041	C104	0.297700	0.493200	0.313480
C1051	C105	0.240200	0.524900	0.334860
C1061	C106	0.269600	0.605900	0.349110
C1071	C107	0.446000	0.504300	0.284600
C1081	C108	0.151400	0.464300	0.342390
C1091	C109	0.692000	0.138700	0.135670
C1101	C110	0.733900	0.220300	0.152380
C1111	C111	0.811400	0.272900	0.142090
C1121	C112	0.852400	0.349700	0.156300
C1131	C113	0.809900	0.376300	0.180170
C1141	C114	0.728200	0.328600	0.189660
C1151	C115	0.691300	0.247900	0.176350
C1161	C116	0.937200	0.403700	0.145260
C1171	C117	0.675300	0.365400	0.213560
C1181	C118	0.755700	0.886400	0.108110
C1191	C119	0.841700	0.852000	0.091940
C1201	C120	0.874500	0.907100	0.070450
C1211	C121	0.956100	0.881700	0.057100
C1221	C122	0.006800	0.797700	0.063480
C1231	C123	0.975100	0.740200	0.084860
C1241	C124	0.894100	0.769600	0.099110
C1251	C125	0.995700	0.946000	0.034600
C1261	C126	0.035700	0.651400	0.092390
C1271	C127	0.308000	0.861300	0.635670
C1281	C128	0.266100	0.779700	0.652380
C1291	C129	0.188600	0.727100	0.642090
C1301	C130	0.147600	0.650300	0.656300
C1311	C131	0.190100	0.623700	0.680170
C1321	C132	0.271800	0.671400	0.689660
C1331	C133	0.308700	0.752100	0.676350
C1341	C134	0.062800	0.596300	0.645260
C1351	C135	0.324700	0.634600	0.713560
C1361	C136	0.244300	0.113600	0.608110
C1371	C137	0.158300	0.148000	0.591940
C1381	C138	0.125500	0.092900	0.570450
C1391	C139	0.043900	0.118300	0.557100
C1401	C140	0.993200	0.202300	0.563480
C1411	C141	0.024900	0.259800	0.584860
C1421	C142	0.105900	0.230400	0.599110
C1431	C143	0.004300	0.054000	0.534600
C1441	C144	0.964300	0.348600	0.592390
O11	O1	0.061400	0.659000	0.852490
O21	O2	0.147100	0.686600	0.888260
O31	O3	0.321100	0.600100	0.779760
O41	O4	0.441600	0.708200	0.775320
O51	O5	0.385300	0.961600	0.878030
O61	O6	0.463200	0.982300	0.840590
O71	O7	0.929400	0.689100	0.903470
O81	O8	0.868500	0.759800	0.867500
O91	O9	0.027200	0.957200	0.968250
O101	O10	0.913100	0.065800	0.977990
O111	O11	0.614800	0.014800	0.885020
O121	O12	0.624700	0.100300	0.922590
O131	O13	0.938600	0.341000	0.352490
O141	O14	0.852900	0.313400	0.388260
O151	O15	0.678900	0.399900	0.279760
O161	O16	0.558400	0.291800	0.275320
O171	O17	0.614700	0.038400	0.378030
O181	O18	0.536800	0.017700	0.340590
O191	O19	0.070600	0.310900	0.403470
O201	O20	0.131500	0.240200	0.367500
O211	O21	0.972800	0.042800	0.468250
O221	O22	0.086900	0.934200	0.477990
O231	O23	0.385200	0.985200	0.385020
O241	O24	0.375300	0.899700	0.422590
O251	O25	0.841000	0.561400	0.602490
O261	O26	0.813400	0.647100	0.638260
O271	O27	0.899900	0.821100	0.529760
O281	O28	0.791800	0.941600	0.525320
O291	O29	0.538400	0.885300	0.628030
O301	O30	0.517700	0.963200	0.590590
O311	O31	0.810900	0.429400	0.653470
O321	O32	0.740200	0.368500	0.617500
O331	O33	0.542800	0.527200	0.718250
O341	O34	0.434200	0.413100	0.727990
O351	O35	0.485200	0.114800	0.635020
O361	O36	0.399700	0.124700	0.672590
O371	O37	0.159000	0.438600	0.102490
O381	O38	0.186600	0.352900	0.138260
O391	O39	0.100100	0.178900	0.029760
O401	O40	0.208200	0.058400	0.025320
O411	O41	0.461600	0.114700	0.128030
O421	O42	0.482300	0.036800	0.090590
O431	O43	0.189100	0.570600	0.153470
O441	O44	0.259800	0.631500	0.117500
O451	O45	0.457200	0.472800	0.218250
O461	O46	0.565800	0.586900	0.227990
O471	O47	0.514800	0.885200	0.135020
O481	O48	0.600300	0.875300	0.172590
O491	O49	0.438600	0.159000	0.897510
O501	O50	0.352900	0.186600	0.861740
O511	O51	0.178900	0.100100	0.970240
O521	O52	0.058400	0.208200	0.974680
O531	O53	0.114700	0.461600	0.871970
O541	O54	0.036800	0.482300	0.909410
O551	O55	0.570600	0.189100	0.846530
O561	O56	0.631500	0.259800	0.882500
O571	O57	0.472800	0.457200	0.781750
O581	O58	0.586900	0.565800	0.772010
O591	O59	0.885200	0.514800	0.864980
O601	O60	0.875300	0.600300	0.827410
O611	O61	0.561400	0.841000	0.397510
O621	O62	0.647100	0.813400	0.361740
O631	O63	0.821100	0.899900	0.470240
O641	O64	0.941600	0.791800	0.474680
O651	O65	0.885300	0.538400	0.371970
O661	O66	0.963200	0.517700	0.409410
O671	O67	0.429400	0.810900	0.346530
O681	O68	0.368500	0.740200	0.382500
O691	O69	0.527200	0.542800	0.281750
O701	O70	0.413100	0.434200	0.272010
O711	O71	0.114800	0.485200	0.364980
O721	O72	0.124700	0.399700	0.327410
O731	O73	0.659000	0.061400	0.147510
O741	O74	0.686600	0.147100	0.111740
O751	O75	0.600100	0.321100	0.220240
O761	O76	0.708200	0.441600	0.224680
O771	O77	0.961600	0.385300	0.121970
O781	O78	0.982300	0.463200	0.159410
O791	O79	0.689100	0.929400	0.096530
O801	O80	0.759800	0.868500	0.132500
O811	O81	0.957200	0.027200	0.031750
O821	O82	0.065800	0.913100	0.022010
O831	O83	0.014800	0.614800	0.114980
O841	O84	0.100300	0.624700	0.077410
O851	O85	0.341000	0.938600	0.647510
O861	O86	0.313400	0.852900	0.611740
O871	O87	0.399900	0.678900	0.720240
O881	O88	0.291800	0.558400	0.724680
O891	O89	0.038400	0.614700	0.621970
O901	O90	0.017700	0.536800	0.659410
O911	O91	0.310900	0.070600	0.596530
O921	O92	0.240200	0.131500	0.632500
O931	O93	0.042800	0.972800	0.531750
O941	O94	0.934200	0.086900	0.522010
O951	O95	0.985200	0.385200	0.614980
O961	O96	0.899700	0.375300	0.577410
