data_CEHTEP_clean_PM
_symmetry_space_group_name_H-M	'P1'
_cell_length_a	11.430300
_cell_length_b	8.854600
_cell_length_c	15.600000
_cell_angle_alpha	90.000000
_cell_angle_beta	114.810000
_cell_angle_gamma	90.000000
_symmetry_Int_Tables_number 1

loop_
_symmetry_equiv_pos_as_xyz
'x,y,z'

loop_
_atom_site_label
_atom_site_type_symbol
_atom_site_fract_x
_atom_site_fract_y
_atom_site_fract_z
Ag11	Ag1	0.294000	0.007440	0.066830
Ag21	Ag2	0.201230	0.538050	0.879730
N11	N1	0.242600	0.215700	0.994800
N21	N2	0.407500	0.813500	0.054060
N31	N3	0.283700	0.540300	0.708900
N41	N4	0.091700	0.713000	0.919400
C11	C1	0.214400	0.328300	0.961300
C21	C2	0.441700	0.704300	0.035500
C31	C3	0.256800	0.541700	0.764000
C41	C4	0.059300	0.814200	0.949000
Ag31	Ag3	0.706000	0.507440	0.433170
Ag41	Ag4	0.798770	0.038050	0.620270
N51	N5	0.757400	0.715700	0.505200
N61	N6	0.592500	0.313500	0.445940
N71	N7	0.716300	0.040300	0.791100
N81	N8	0.908300	0.213000	0.580600
C51	C5	0.785600	0.828300	0.538700
C61	C6	0.558300	0.204300	0.464500
C71	C7	0.743200	0.041700	0.736000
C81	C8	0.940700	0.314200	0.551000
Ag51	Ag5	0.706000	0.992560	0.933170
Ag61	Ag6	0.798770	0.461950	0.120270
N91	N9	0.757400	0.784300	0.005200
N101	N10	0.592500	0.186500	0.945940
N111	N11	0.716300	0.459700	0.291100
N121	N12	0.908300	0.287000	0.080600
C91	C9	0.785600	0.671700	0.038700
C101	C10	0.558300	0.295700	0.964500
C111	C11	0.743200	0.458300	0.236000
C121	C12	0.940700	0.185800	0.051000
Ag71	Ag7	0.294000	0.492560	0.566830
Ag81	Ag8	0.201230	0.961950	0.379730
N131	N13	0.242600	0.284300	0.494800
N141	N14	0.407500	0.686500	0.554060
N151	N15	0.283700	0.959700	0.208900
N161	N16	0.091700	0.787000	0.419400
C131	C13	0.214400	0.171700	0.461300
C141	C14	0.441700	0.795700	0.535500
C151	C15	0.256800	0.958300	0.264000
C161	C16	0.059300	0.685800	0.449000
Ag91	Ag9	0.000000	0.000000	0.000000
Ag101	Ag10	0.000000	0.500000	0.500000
Ag111	Ag11	0.500000	0.500000	0.000000
Ag121	Ag12	0.500000	0.000000	0.500000
