data_CEHWOD_clean_PM
_symmetry_space_group_name_H-M	'P1'
_cell_length_a	7.189700
_cell_length_b	10.630000
_cell_length_c	11.543000
_cell_angle_alpha	90.000000
_cell_angle_beta	90.000000
_cell_angle_gamma	90.000000
_symmetry_Int_Tables_number 1

loop_
_symmetry_equiv_pos_as_xyz
'x,y,z'

loop_
_atom_site_label
_atom_site_type_symbol
_atom_site_fract_x
_atom_site_fract_y
_atom_site_fract_z
Ni11	Ni1	0.739020	0.214830	0.309950
Ni21	Ni2	0.239020	0.785170	0.690050
Ni31	Ni3	0.739020	0.714830	0.190050
Ni41	Ni4	0.239020	0.285170	0.809950
H11	H1	0.988300	0.428100	0.974600
H21	H2	0.133000	0.073800	0.968000
H31	H3	0.976700	0.042600	0.136800
H41	H4	0.488300	0.571900	0.025400
H51	H5	0.633000	0.926200	0.032000
H61	H6	0.476700	0.957400	0.863200
H71	H7	0.988300	0.928100	0.525400
H81	H8	0.133000	0.573800	0.532000
H91	H9	0.976700	0.542600	0.363200
H101	H10	0.488300	0.071900	0.474600
H111	H11	0.633000	0.426200	0.468000
H121	H12	0.476700	0.457400	0.636800
C11	C1	0.793500	0.431800	0.175500
C21	C2	0.897900	0.328800	0.110100
C31	C3	0.989600	0.348400	0.008000
C41	C4	0.073800	0.141300	0.003700
C51	C5	0.980400	0.123000	0.105100
C61	C6	0.293500	0.568200	0.824500
C71	C7	0.397900	0.671200	0.889900
C81	C8	0.489600	0.651600	0.992000
C91	C9	0.573800	0.858700	0.996300
C101	C10	0.480400	0.877000	0.894900
C111	C11	0.793500	0.931800	0.324500
C121	C12	0.897900	0.828800	0.389900
C131	C13	0.989600	0.848400	0.492000
C141	C14	0.073800	0.641300	0.496300
C151	C15	0.980400	0.623000	0.394900
C161	C16	0.293500	0.068200	0.675500
C171	C17	0.397900	0.171200	0.610100
C181	C18	0.489600	0.151600	0.508000
C191	C19	0.573800	0.358700	0.503700
C201	C20	0.480400	0.377000	0.605100
N11	N1	0.894200	0.216300	0.160400
N21	N2	0.081100	0.255000	0.955400
N31	N3	0.394200	0.783700	0.839600
N41	N4	0.581100	0.745000	0.044600
N51	N5	0.894200	0.716300	0.339600
N61	N6	0.081100	0.755000	0.544600
N71	N7	0.394200	0.283700	0.660400
N81	N8	0.581100	0.245000	0.455400
Cl11	Cl1	0.469000	0.165200	0.190450
Cl21	Cl2	0.969000	0.834800	0.809550
Cl31	Cl3	0.469000	0.665200	0.309550
Cl41	Cl4	0.969000	0.334800	0.690450
O11	O1	0.715600	0.400700	0.266800
O21	O2	0.802400	0.539300	0.131600
O31	O3	0.215600	0.599300	0.733200
O41	O4	0.302400	0.460700	0.868400
O51	O5	0.715600	0.900700	0.233200
O61	O6	0.802400	0.039300	0.368400
O71	O7	0.215600	0.099300	0.766800
O81	O8	0.302400	0.960700	0.631600
