data_CEKHIL_clean_PM
_symmetry_space_group_name_H-M	'P1'
_cell_length_a	10.152000
_cell_length_b	17.953000
_cell_length_c	18.062000
_cell_angle_alpha	90.000000
_cell_angle_beta	94.620000
_cell_angle_gamma	90.000000
_symmetry_Int_Tables_number 1

loop_
_symmetry_equiv_pos_as_xyz
'x,y,z'

loop_
_atom_site_label
_atom_site_type_symbol
_atom_site_fract_x
_atom_site_fract_y
_atom_site_fract_z
Co11	Co1	0.509300	0.695370	0.628580
Co21	Co2	0.274320	0.750690	0.488090
Co31	Co3	0.490700	0.195370	0.371420
Co41	Co4	0.725680	0.250690	0.511910
H11	H1	0.620500	0.052800	0.775100
H21	H2	0.864600	0.109900	0.101000
H31	H3	0.022900	0.121400	0.802800
H41	H4	0.114100	0.142900	0.922800
H51	H5	0.766300	0.092600	0.002100
H61	H6	0.675100	0.071200	0.882100
H71	H7	0.589500	0.918500	0.697400
H81	H8	0.458400	0.965500	0.487300
H91	H9	0.626500	0.127600	0.622300
H101	H10	0.165400	0.160100	0.183300
H111	H11	0.035000	0.204600	0.381900
H121	H12	0.774400	0.163600	0.206300
H131	H13	0.379500	0.552800	0.224900
H141	H14	0.135400	0.609900	0.899000
H151	H15	0.977100	0.621400	0.197200
H161	H16	0.885900	0.642900	0.077200
H171	H17	0.233700	0.592600	0.997900
H181	H18	0.324900	0.571200	0.117900
H191	H19	0.410500	0.418500	0.302600
H201	H20	0.541600	0.465500	0.512700
H211	H21	0.373500	0.627600	0.377700
H221	H22	0.834600	0.660100	0.816700
H231	H23	0.965000	0.704600	0.618100
H241	H24	0.225600	0.663600	0.793700
C11	C1	0.839990	0.094170	0.830540
C21	C2	0.971490	0.115650	0.842750
C31	C3	0.026110	0.128500	0.914670
C41	C4	0.949230	0.119860	0.974390
C51	C5	0.817730	0.098380	0.962180
C61	C6	0.763110	0.085530	0.890260
C71	C7	0.786600	0.084650	0.752370
C81	C8	0.008990	0.142790	0.048030
C91	C9	0.616000	0.025690	0.669650
C101	C10	0.575700	0.952930	0.659090
C111	C11	0.512500	0.930650	0.589120
C121	C12	0.499100	0.980400	0.532880
C131	C13	0.545700	0.055030	0.541570
C141	C14	0.601200	0.078400	0.613590
C151	C15	0.464900	0.851600	0.580630
C161	C16	0.531100	0.107980	0.480210
C171	C17	0.967800	0.161420	0.181760
C181	C18	0.094700	0.167820	0.212150
C191	C19	0.116800	0.186170	0.287080
C201	C20	0.016800	0.194480	0.331640
C211	C21	0.884300	0.187730	0.301160
C221	C22	0.860700	0.169940	0.226780
C231	C23	0.259400	0.190600	0.320870
C241	C24	0.772000	0.198700	0.349660
C251	C25	0.160010	0.594170	0.169460
C261	C26	0.028510	0.615650	0.157250
C271	C27	0.973890	0.628500	0.085330
C281	C28	0.050770	0.619860	0.025610
C291	C29	0.182270	0.598380	0.037820
C301	C30	0.236890	0.585530	0.109740
C311	C31	0.213400	0.584650	0.247630
C321	C32	0.991010	0.642790	0.951970
C331	C33	0.384000	0.525690	0.330350
C341	C34	0.424300	0.452930	0.340910
C351	C35	0.487500	0.430650	0.410880
C361	C36	0.500900	0.480400	0.467120
C371	C37	0.454300	0.555030	0.458430
C381	C38	0.398800	0.578400	0.386410
C391	C39	0.535100	0.351600	0.419370
C401	C40	0.468900	0.607980	0.519790
C411	C41	0.032200	0.661420	0.818240
C421	C42	0.905300	0.667820	0.787850
C431	C43	0.883200	0.686170	0.712920
C441	C44	0.983200	0.694480	0.668360
C451	C45	0.115700	0.687730	0.698840
C461	C46	0.139300	0.669940	0.773220
C471	C47	0.740600	0.690600	0.679130
C481	C48	0.228000	0.698700	0.650340
N11	N1	0.679100	0.044100	0.741200
N21	N2	0.931200	0.143100	0.106300
N31	N3	0.320900	0.544100	0.258800
N41	N4	0.068800	0.643100	0.893700
O11	O1	0.851900	0.110100	0.702300
O21	O2	0.122900	0.170400	0.059000
O31	O3	0.501300	0.807800	0.631100
O41	O4	0.400400	0.835800	0.521400
O51	O5	0.484500	0.086100	0.418000
O61	O6	0.563800	0.175800	0.490400
O71	O7	0.353000	0.179600	0.280300
O81	O8	0.277600	0.204700	0.388500
O91	O9	0.799400	0.226100	0.411700
O101	O10	0.659100	0.178700	0.323000
O111	O11	0.148100	0.610100	0.297700
O121	O12	0.877100	0.670400	0.941000
O131	O13	0.498700	0.307800	0.368900
O141	O14	0.599600	0.335800	0.478600
O151	O15	0.515500	0.586100	0.582000
O161	O16	0.436200	0.675800	0.509600
O171	O17	0.647000	0.679600	0.719700
O181	O18	0.722400	0.704700	0.611500
O191	O19	0.200600	0.726100	0.588300
O201	O20	0.340900	0.678700	0.677000
