data_CELKEL_clean_PM
_symmetry_space_group_name_H-M	'P1'
_cell_length_a	8.575000
_cell_length_b	8.575000
_cell_length_c	52.520000
_cell_angle_alpha	90.000000
_cell_angle_beta	90.000000
_cell_angle_gamma	90.000000
_symmetry_Int_Tables_number 1

loop_
_symmetry_equiv_pos_as_xyz
'x,y,z'

loop_
_atom_site_label
_atom_site_type_symbol
_atom_site_fract_x
_atom_site_fract_y
_atom_site_fract_z
Cu11	Cu1	0.090430	0.445680	0.737450
Cu21	Cu2	0.365300	0.661250	0.984530
Cu31	Cu3	0.409570	0.554320	0.237450
Cu41	Cu4	0.134700	0.338750	0.484530
Cu51	Cu5	0.909570	0.945680	0.762550
Cu61	Cu6	0.634700	0.161250	0.515470
Cu71	Cu7	0.590430	0.054320	0.262550
Cu81	Cu8	0.865300	0.838750	0.015470
H11	H1	0.611800	0.757700	0.763100
H21	H2	0.589900	0.776500	0.710900
H31	H3	0.245900	0.246700	0.700600
H41	H4	0.262400	0.198500	0.658200
H51	H5	0.930100	0.526700	0.647100
H61	H6	0.913800	0.558500	0.691300
H71	H7	0.957900	0.328000	0.785900
H81	H8	0.993100	0.357000	0.829300
H91	H9	0.297700	0.703700	0.814600
H101	H10	0.258800	0.664800	0.772000
H111	H11	0.095000	0.493700	0.864700
H121	H12	0.325200	0.713400	0.856200
H131	H13	0.119400	0.498300	0.904200
H141	H14	0.163600	0.506500	0.947700
H151	H15	0.474400	0.840900	0.938000
H161	H16	0.444200	0.833900	0.894900
H171	H17	0.257400	0.195100	0.530400
H181	H18	0.232700	0.214200	0.574200
H191	H19	0.900200	0.534100	0.565100
H201	H20	0.926900	0.506900	0.521300
H211	H21	0.957300	0.464000	0.607000
H221	H22	0.196300	0.259300	0.614300
H231	H23	0.594400	0.458700	0.755100
H241	H24	0.580700	0.469400	0.712200
H251	H25	0.376500	0.155300	0.004000
H261	H26	0.391600	0.162600	0.960700
H271	H27	0.683600	0.170600	0.008100
H281	H28	0.696600	0.165200	0.959500
H291	H29	0.888200	0.242300	0.263100
H301	H30	0.910100	0.223500	0.210900
H311	H31	0.254100	0.753300	0.200600
H321	H32	0.237600	0.801500	0.158200
H331	H33	0.569900	0.473300	0.147100
H341	H34	0.586200	0.441500	0.191300
H351	H35	0.542100	0.672000	0.285900
H361	H36	0.506900	0.643000	0.329300
H371	H37	0.202300	0.296300	0.314600
H381	H38	0.241200	0.335200	0.272000
H391	H39	0.405000	0.506300	0.364700
H401	H40	0.174800	0.286600	0.356200
H411	H41	0.380600	0.501700	0.404200
H421	H42	0.336400	0.493500	0.447700
H431	H43	0.025600	0.159100	0.438000
H441	H44	0.055800	0.166100	0.394900
H451	H45	0.242600	0.804900	0.030400
H461	H46	0.267300	0.785800	0.074200
H471	H47	0.599800	0.465900	0.065100
H481	H48	0.573100	0.493100	0.021300
H491	H49	0.542700	0.536000	0.107000
H501	H50	0.303700	0.740700	0.114300
H511	H51	0.905600	0.541300	0.255100
H521	H52	0.919300	0.530600	0.212200
H531	H53	0.123500	0.844700	0.504000
H541	H54	0.108400	0.837400	0.460700
H551	H55	0.816400	0.829400	0.508100
H561	H56	0.803400	0.834800	0.459500
H571	H57	0.388200	0.257700	0.736900
H581	H58	0.410100	0.276500	0.789100
H591	H59	0.754100	0.746700	0.799400
H601	H60	0.737600	0.698500	0.841800
H611	H61	0.069900	0.026700	0.852900
H621	H62	0.086200	0.058500	0.808700
H631	H63	0.042100	0.828000	0.714100
H641	H64	0.006900	0.857000	0.670700
H651	H65	0.702300	0.203700	0.685400
H661	H66	0.741200	0.164800	0.728000
H671	H67	0.905000	0.993700	0.635300
H681	H68	0.674800	0.213400	0.643800
H691	H69	0.880600	0.998300	0.595800
H701	H70	0.836400	0.006500	0.552300
H711	H71	0.525600	0.340900	0.562000
H721	H72	0.555800	0.333900	0.605100
H731	H73	0.742600	0.695100	0.969600
H741	H74	0.767300	0.714200	0.925800
H751	H75	0.099800	0.034100	0.934900
H761	H76	0.073100	0.006900	0.978700
H771	H77	0.042700	0.964000	0.893000
H781	H78	0.803700	0.759300	0.885700
H791	H79	0.405600	0.958700	0.744900
H801	H80	0.419300	0.969400	0.787800
H811	H81	0.623500	0.655300	0.496000
H821	H82	0.608400	0.662600	0.539300
H831	H83	0.316400	0.670600	0.491900
H841	H84	0.303400	0.665200	0.540500
H851	H85	0.111800	0.742300	0.236900
H861	H86	0.089900	0.723500	0.289100
H871	H87	0.745900	0.253300	0.299400
H881	H88	0.762400	0.301500	0.341800
H891	H89	0.430100	0.973300	0.352900
H901	H90	0.413800	0.941500	0.308700
H911	H91	0.457900	0.172000	0.214100
H921	H92	0.493100	0.143000	0.170700
H931	H93	0.797700	0.796300	0.185400
H941	H94	0.758800	0.835200	0.228000
H951	H95	0.595000	0.006300	0.135300
H961	H96	0.825200	0.786600	0.143800
H971	H97	0.619400	0.001700	0.095800
H981	H98	0.663600	0.993500	0.052300
H991	H99	0.974400	0.659100	0.062000
H1001	H100	0.944200	0.666100	0.105100
H1011	H101	0.757400	0.304900	0.469600
H1021	H102	0.732700	0.285800	0.425800
H1031	H103	0.400200	0.965900	0.434900
H1041	H104	0.426900	0.993100	0.478700
H1051	H105	0.457300	0.036000	0.393000
H1061	H106	0.696300	0.240700	0.385700
H1071	H107	0.094400	0.041300	0.244900
H1081	H108	0.080700	0.030600	0.287800
H1091	H109	0.876500	0.344700	0.996000
H1101	H110	0.891600	0.337400	0.039300
H1111	H111	0.183600	0.329400	0.991900
H1121	H112	0.196600	0.334800	0.040500
C11	C1	0.179500	0.303000	0.689400
C21	C2	0.192200	0.276000	0.664100
C31	C3	0.104900	0.359100	0.647000
C41	C4	0.996200	0.467400	0.657900
C51	C5	0.986600	0.486600	0.684400
C61	C6	0.029200	0.404300	0.791980
C71	C7	0.047100	0.423300	0.817780
C81	C8	0.143400	0.538200	0.826870
C91	C9	0.226100	0.626300	0.809100
C101	C10	0.204100	0.600900	0.783730
C111	C11	0.161100	0.555800	0.854300
C121	C12	0.259900	0.649400	0.866400
C131	C13	0.277200	0.663000	0.894090
C141	C14	0.194900	0.568600	0.910700
C151	C15	0.220400	0.574300	0.936850
C161	C16	0.402300	0.768300	0.931090
C171	C17	0.384200	0.765900	0.905300
C181	C18	0.184400	0.266800	0.537340
C191	C19	0.168500	0.277200	0.563600
C201	C20	0.063500	0.375000	0.574600
C211	C21	0.974500	0.462900	0.558400
C221	C22	0.992400	0.448600	0.532340
C231	C23	0.039400	0.396500	0.601900
C241	C24	0.119300	0.332200	0.619500
C251	C25	0.798900	0.577600	0.746990
C261	C26	0.621300	0.563100	0.747820
C271	C27	0.378300	0.587500	0.722320
C281	C28	0.557200	0.571100	0.720730
C291	C29	0.481800	0.128200	0.997100
C301	C30	0.498100	0.371200	0.970300
C311	C31	0.491500	0.191400	0.969360
C321	C32	0.494600	0.950200	0.996270
C331	C33	0.320500	0.697000	0.189400
C341	C34	0.307800	0.724000	0.164100
C351	C35	0.395100	0.640900	0.147000
C361	C36	0.503800	0.532600	0.157900
C371	C37	0.513400	0.513400	0.184400
C381	C38	0.470800	0.595700	0.291980
C391	C39	0.452900	0.576700	0.317780
C401	C40	0.356600	0.461800	0.326870
C411	C41	0.273900	0.373700	0.309100
C421	C42	0.295900	0.399100	0.283730
C431	C43	0.338900	0.444200	0.354300
C441	C44	0.240100	0.350600	0.366400
C451	C45	0.222800	0.337000	0.394090
C461	C46	0.305100	0.431400	0.410700
C471	C47	0.279600	0.425700	0.436850
C481	C48	0.097700	0.231700	0.431090
C491	C49	0.115800	0.234100	0.405300
C501	C50	0.315600	0.733200	0.037340
C511	C51	0.331500	0.722800	0.063600
C521	C52	0.436500	0.625000	0.074600
C531	C53	0.525500	0.537100	0.058400
C541	C54	0.507600	0.551400	0.032340
C551	C55	0.460600	0.603500	0.101900
C561	C56	0.380700	0.667800	0.119500
C571	C57	0.701100	0.422400	0.246990
C581	C58	0.878700	0.436900	0.247820
C591	C59	0.121700	0.412500	0.222320
C601	C60	0.942800	0.428900	0.220730
C611	C61	0.018200	0.871800	0.497100
C621	C62	0.001900	0.628800	0.470300
C631	C63	0.008500	0.808600	0.469360
C641	C64	0.005400	0.049800	0.496270
C651	C65	0.820500	0.803000	0.810600
C661	C66	0.807800	0.776000	0.835900
C671	C67	0.895100	0.859100	0.853000
C681	C68	0.003800	0.967400	0.842100
C691	C69	0.013400	0.986600	0.815600
C701	C70	0.970800	0.904300	0.708020
C711	C71	0.952900	0.923300	0.682220
C721	C72	0.856600	0.038200	0.673130
C731	C73	0.773900	0.126300	0.690900
C741	C74	0.795900	0.100900	0.716270
C751	C75	0.838900	0.055800	0.645700
C761	C76	0.740100	0.149400	0.633600
C771	C77	0.722800	0.163000	0.605910
C781	C78	0.805100	0.068600	0.589300
C791	C79	0.779600	0.074300	0.563150
C801	C80	0.597700	0.268300	0.568910
C811	C81	0.615800	0.265900	0.594700
C821	C82	0.815600	0.766800	0.962660
C831	C83	0.831500	0.777200	0.936400
C841	C84	0.936500	0.875000	0.925400
C851	C85	0.025500	0.962900	0.941600
C861	C86	0.007600	0.948600	0.967660
C871	C87	0.960600	0.896500	0.898100
C881	C88	0.880700	0.832200	0.880500
C891	C89	0.201100	0.077600	0.753010
C901	C90	0.378700	0.063100	0.752180
C911	C91	0.621700	0.087500	0.777680
C921	C92	0.442800	0.071100	0.779270
C931	C93	0.518200	0.628200	0.502900
C941	C94	0.501900	0.871200	0.529700
C951	C95	0.508500	0.691400	0.530640
C961	C96	0.505400	0.450200	0.503730
C971	C97	0.679500	0.197000	0.310600
C981	C98	0.692200	0.224000	0.335900
C991	C99	0.604900	0.140900	0.353000
C1001	C100	0.496200	0.032600	0.342100
C1011	C101	0.486600	0.013400	0.315600
C1021	C102	0.529200	0.095700	0.208020
C1031	C103	0.547100	0.076700	0.182220
C1041	C104	0.643400	0.961800	0.173130
C1051	C105	0.726100	0.873700	0.190900
C1061	C106	0.704100	0.899100	0.216270
C1071	C107	0.661100	0.944200	0.145700
C1081	C108	0.759900	0.850600	0.133600
C1091	C109	0.777200	0.837000	0.105910
C1101	C110	0.694900	0.931400	0.089300
C1111	C111	0.720400	0.925700	0.063150
C1121	C112	0.902300	0.731700	0.068910
C1131	C113	0.884200	0.734100	0.094700
C1141	C114	0.684400	0.233200	0.462660
C1151	C115	0.668500	0.222800	0.436400
C1161	C116	0.563500	0.125000	0.425400
C1171	C117	0.474500	0.037100	0.441600
C1181	C118	0.492400	0.051400	0.467660
C1191	C119	0.539400	0.103500	0.398100
C1201	C120	0.619300	0.167800	0.380500
C1211	C121	0.298900	0.922400	0.253010
C1221	C122	0.121300	0.936900	0.252180
C1231	C123	0.878300	0.912500	0.277680
C1241	C124	0.057200	0.928900	0.279270
C1251	C125	0.981800	0.371800	0.002900
C1261	C126	0.998100	0.128800	0.029700
C1271	C127	0.991500	0.308600	0.030640
C1281	C128	0.994600	0.549800	0.003730
N11	N1	0.077200	0.406200	0.699680
N21	N2	0.110500	0.491700	0.774690
N31	N3	0.326100	0.676300	0.947140
N41	N4	0.103000	0.351800	0.522190
N51	N5	0.422800	0.593800	0.199680
N61	N6	0.389500	0.508300	0.274690
N71	N7	0.173900	0.323700	0.447140
N81	N8	0.397000	0.648200	0.022190
N91	N9	0.922800	0.906200	0.800320
N101	N10	0.889500	0.991700	0.725310
N111	N11	0.673900	0.176300	0.552860
N121	N12	0.897000	0.851800	0.977810
N131	N13	0.577200	0.093800	0.300320
N141	N14	0.610500	0.008300	0.225310
N151	N15	0.826100	0.823700	0.052860
N161	N16	0.603000	0.148200	0.477810
O11	O1	0.864700	0.449100	0.738470
O21	O2	0.315900	0.468600	0.734120
O31	O3	0.555200	0.677700	0.763300
O41	O4	0.624100	0.689600	0.706030
O51	O5	0.386400	0.430700	0.981310
O61	O6	0.378300	0.886100	0.984960
O71	O7	0.604600	0.885100	0.006030
O81	O8	0.869200	0.690200	0.753620
O91	O9	0.614600	0.436600	0.960350
O101	O10	0.312000	0.693600	0.713480
O111	O11	0.594100	0.197500	0.012900
O121	O12	0.611400	0.123900	0.955440
O131	O13	0.635300	0.550900	0.238470
O141	O14	0.184100	0.531400	0.234120
O151	O15	0.944800	0.322300	0.263300
O161	O16	0.875900	0.310400	0.206030
O171	O17	0.113600	0.569300	0.481310
O181	O18	0.121700	0.113900	0.484960
O191	O19	0.895400	0.114900	0.506030
O201	O20	0.630800	0.309800	0.253620
O211	O21	0.885400	0.563400	0.460350
O221	O22	0.188000	0.306400	0.213480
O231	O23	0.905900	0.802500	0.512900
O241	O24	0.888600	0.876100	0.455440
O251	O25	0.135300	0.949100	0.761530
O261	O26	0.684100	0.968600	0.765880
O271	O27	0.444800	0.177700	0.736700
O281	O28	0.375900	0.189600	0.793970
O291	O29	0.613600	0.930700	0.518690
O301	O30	0.621700	0.386100	0.515040
O311	O31	0.395400	0.385100	0.493970
O321	O32	0.130800	0.190200	0.746380
O331	O33	0.385400	0.936600	0.539650
O341	O34	0.688000	0.193600	0.786520
O351	O35	0.405900	0.697500	0.487100
O361	O36	0.388600	0.623900	0.544560
O371	O37	0.364700	0.050900	0.261530
O381	O38	0.815900	0.031400	0.265880
O391	O39	0.055200	0.822300	0.236700
O401	O40	0.124100	0.810400	0.293970
O411	O41	0.886400	0.069300	0.018690
O421	O42	0.878300	0.613900	0.015040
O431	O43	0.104600	0.614900	0.993970
O441	O44	0.369200	0.809800	0.246380
O451	O45	0.114600	0.063400	0.039650
O461	O46	0.812000	0.806400	0.286520
O471	O47	0.094100	0.302500	0.987100
O481	O48	0.111400	0.376100	0.044560
