data_CESYEF_clean_PM
_symmetry_space_group_name_H-M	'P1'
_cell_length_a	3.693400
_cell_length_b	12.178300
_cell_length_c	15.239000
_cell_angle_alpha	90.000000
_cell_angle_beta	90.100000
_cell_angle_gamma	90.000000
_symmetry_Int_Tables_number 1

loop_
_symmetry_equiv_pos_as_xyz
'x,y,z'

loop_
_atom_site_label
_atom_site_type_symbol
_atom_site_fract_x
_atom_site_fract_y
_atom_site_fract_z
Ag11	Ag1	0.609600	0.575420	0.424760
Ag21	Ag2	0.390400	0.075420	0.075240
Ag31	Ag3	0.390400	0.424580	0.575240
Ag41	Ag4	0.609600	0.924580	0.924760
H11	H1	0.427200	0.550600	0.222100
H21	H2	0.186300	0.639100	0.103500
H31	H3	0.062400	0.904100	0.253500
H41	H4	0.294700	0.806400	0.369300
H51	H5	0.572800	0.050600	0.277900
H61	H6	0.813700	0.139100	0.396500
H71	H7	0.937600	0.404100	0.246500
H81	H8	0.705300	0.306400	0.130700
H91	H9	0.572800	0.449400	0.777900
H101	H10	0.813700	0.360900	0.896500
H111	H11	0.937600	0.095900	0.746500
H121	H12	0.705300	0.193600	0.630700
H131	H13	0.427200	0.949400	0.722100
H141	H14	0.186300	0.860900	0.603500
H151	H15	0.062400	0.595900	0.753500
H161	H16	0.294700	0.693600	0.869300
C11	C1	0.351000	0.622900	0.228800
C21	C2	0.207100	0.675400	0.157000
C31	C3	0.094000	0.782500	0.165400
C41	C4	0.133000	0.831400	0.245600
C51	C5	0.276000	0.772300	0.314900
C61	C6	0.927000	0.842700	0.090000
C71	C7	0.649000	0.122900	0.271200
C81	C8	0.792900	0.175400	0.343000
C91	C9	0.906000	0.282500	0.334600
C101	C10	0.867000	0.331400	0.254400
C111	C11	0.724000	0.272300	0.185100
C121	C12	0.073000	0.342700	0.410000
C131	C13	0.649000	0.377100	0.771200
C141	C14	0.792900	0.324600	0.843000
C151	C15	0.906000	0.217500	0.834600
C161	C16	0.867000	0.168600	0.754400
C171	C17	0.724000	0.227700	0.685100
C181	C18	0.073000	0.157300	0.910000
C191	C19	0.351000	0.877100	0.728800
C201	C20	0.207100	0.824600	0.657000
C211	C21	0.094000	0.717500	0.665400
C221	C22	0.133000	0.668600	0.745600
C231	C23	0.276000	0.727700	0.814900
C241	C24	0.927000	0.657300	0.590000
N11	N1	0.388800	0.669100	0.307300
N21	N2	0.611200	0.169100	0.192700
N31	N3	0.611200	0.330900	0.692700
N41	N4	0.388800	0.830900	0.807300
O11	O1	0.879200	0.944900	0.100900
O21	O2	0.847000	0.790400	0.023000
O31	O3	0.120800	0.444900	0.399100
O41	O4	0.153000	0.290400	0.477000
O51	O5	0.120800	0.055100	0.899100
O61	O6	0.153000	0.209600	0.977000
O71	O7	0.879200	0.555100	0.600900
O81	O8	0.847000	0.709600	0.523000
