data_CETFUD_clean_PM
_symmetry_space_group_name_H-M	'P1'
_cell_length_a	7.744700
_cell_length_b	10.193500
_cell_length_c	12.146400
_cell_angle_alpha	80.751000
_cell_angle_beta	80.287000
_cell_angle_gamma	82.818000
_symmetry_Int_Tables_number 1

loop_
_symmetry_equiv_pos_as_xyz
'x,y,z'

loop_
_atom_site_label
_atom_site_type_symbol
_atom_site_fract_x
_atom_site_fract_y
_atom_site_fract_z
Pr11	Pr1	0.739080	0.009990	0.558980
Pr21	Pr2	0.260920	0.990010	0.441020
H11	H1	0.135600	0.585100	0.455300
H21	H2	0.079100	0.482800	0.387700
H31	H3	0.808700	0.776600	0.238600
H41	H4	0.998700	0.708700	0.249900
H51	H5	0.956300	0.841800	0.884000
H61	H6	0.157100	0.816000	0.894000
H71	H7	0.890800	0.689900	0.046500
H81	H8	0.091400	0.657600	0.055500
H91	H9	0.907600	0.912300	0.079000
H101	H10	0.104400	0.872300	0.096200
H111	H11	0.460400	0.448800	0.423700
H121	H12	0.374800	0.358000	0.359300
H131	H13	0.245200	0.414500	0.581600
H141	H14	0.168600	0.307600	0.529400
H151	H15	0.155600	0.593000	0.861700
H161	H16	0.957400	0.624400	0.845700
H171	H17	0.161300	0.630000	0.673500
H181	H18	0.224700	0.758700	0.702100
H191	H19	0.864400	0.414900	0.544700
H201	H20	0.920900	0.517200	0.612300
H211	H21	0.191300	0.223400	0.761400
H221	H22	0.001300	0.291300	0.750100
H231	H23	0.043700	0.158200	0.116000
H241	H24	0.842900	0.184000	0.106000
H251	H25	0.109200	0.310100	0.953500
H261	H26	0.908600	0.342400	0.944500
H271	H27	0.092400	0.087700	0.921000
H281	H28	0.895600	0.127700	0.903800
H291	H29	0.539600	0.551200	0.576300
H301	H30	0.625200	0.642000	0.640700
H311	H31	0.754800	0.585500	0.418400
H321	H32	0.831400	0.692400	0.470600
H331	H33	0.844400	0.407000	0.138300
H341	H34	0.042600	0.375600	0.154300
H351	H35	0.838700	0.370000	0.326500
H361	H36	0.775300	0.241300	0.297900
C11	C1	0.506800	0.249900	0.481900
C21	C2	0.950700	0.888500	0.307100
C31	C3	0.091200	0.498800	0.462500
C41	C4	0.931500	0.793000	0.228400
C51	C5	0.048100	0.774400	0.907500
C61	C6	0.002600	0.727800	0.032600
C71	C7	0.990100	0.839100	0.105300
C81	C8	0.397100	0.370400	0.432900
C91	C9	0.221600	0.391300	0.511600
C101	C10	0.068500	0.662700	0.835500
C111	C11	0.123800	0.708300	0.710800
C121	C12	0.982500	0.793600	0.651600
C131	C13	0.493200	0.750100	0.518100
C141	C14	0.049300	0.111500	0.692900
C151	C15	0.908800	0.501200	0.537500
C161	C16	0.068500	0.207000	0.771600
C171	C17	0.951900	0.225600	0.092500
C181	C18	0.997400	0.272200	0.967400
C191	C19	0.009900	0.160900	0.894700
C201	C20	0.602900	0.629600	0.567100
C211	C21	0.778400	0.608700	0.488400
C221	C22	0.931500	0.337300	0.164500
C231	C23	0.876200	0.291700	0.289200
C241	C24	0.017500	0.206400	0.348400
O11	O1	0.811500	0.937600	0.363400
O21	O2	0.612800	0.260300	0.545200
O31	O3	0.488000	0.135100	0.458000
O41	O4	0.823700	0.798700	0.695600
O51	O5	0.103100	0.913600	0.312100
O61	O6	0.029100	0.859300	0.554400
O71	O7	0.188500	0.062400	0.636600
O81	O8	0.387200	0.739700	0.454800
O91	O9	0.512000	0.864900	0.542000
O101	O10	0.176300	0.201300	0.304400
O111	O11	0.896900	0.086400	0.687900
O121	O12	0.970900	0.140700	0.445600
