data_CETHEQ_clean_PM
_symmetry_space_group_name_H-M	'P1'
_cell_length_a	10.860800
_cell_length_b	14.832200
_cell_length_c	14.832200
_cell_angle_alpha	65.755200
_cell_angle_beta	75.872400
_cell_angle_gamma	104.128000
_symmetry_Int_Tables_number 1

loop_
_symmetry_equiv_pos_as_xyz
'x,y,z'

loop_
_atom_site_label
_atom_site_type_symbol
_atom_site_fract_x
_atom_site_fract_y
_atom_site_fract_z
Cu11	Cu1	0.030610	0.593400	0.521130
Cu21	Cu2	0.551740	0.521130	0.885470
Cu31	Cu3	0.437210	0.885470	0.593400
Cu41	Cu4	0.551740	0.114530	0.478870
Cu51	Cu5	0.437210	0.406600	0.114530
Cu61	Cu6	0.030610	0.478870	0.406600
Cu71	Cu7	0.329910	0.594500	0.405500
Cu81	Cu8	0.735410	0.405500	0.000000
Cu91	Cu9	0.735410	0.000000	0.594500
H11	H1	0.574900	0.715200	0.428100
H21	H2	0.587200	0.740800	0.521200
H31	H3	0.611300	0.835200	0.406800
H41	H4	0.019400	0.735700	0.619000
H51	H5	0.131700	0.852800	0.573500
H61	H6	0.102500	0.757000	0.688600
H71	H7	0.003000	0.428100	0.856700
H81	H8	0.108400	0.521200	0.738000
H91	H9	0.018100	0.406800	0.758000
H101	H10	0.638400	0.619000	0.645300
H111	H11	0.705200	0.573500	0.573700
H121	H12	0.791100	0.688600	0.554400
H131	H13	0.859700	0.856700	0.715200
H141	H14	0.846400	0.738000	0.740800
H151	H15	0.776100	0.758000	0.835200
H161	H16	0.283700	0.645300	0.735700
H171	H17	0.278900	0.573700	0.852800
H181	H18	0.345500	0.554400	0.757000
H191	H19	0.003000	0.143300	0.571900
H201	H20	0.108400	0.262000	0.478800
H211	H21	0.018100	0.242000	0.593200
H221	H22	0.638400	0.354700	0.381000
H231	H23	0.705200	0.426300	0.426500
H241	H24	0.791100	0.445600	0.311400
H251	H25	0.859700	0.284800	0.143300
H261	H26	0.846400	0.259200	0.262000
H271	H27	0.776100	0.164800	0.242000
H281	H28	0.283700	0.264300	0.354700
H291	H29	0.278900	0.147200	0.426300
H301	H30	0.345500	0.243000	0.445600
H311	H31	0.574900	0.571900	0.284800
H321	H32	0.587200	0.478800	0.259200
H331	H33	0.611300	0.593200	0.164800
H341	H34	0.019400	0.381000	0.264300
H351	H35	0.131700	0.426500	0.147200
H361	H36	0.102500	0.311400	0.243000
H371	H37	0.190400	0.668600	0.331400
H381	H38	0.521800	0.331400	0.000000
H391	H39	0.521800	0.000000	0.668600
C11	C1	0.412500	0.738900	0.498000
C21	C2	0.558400	0.759200	0.460400
C31	C3	0.218900	0.746800	0.563500
C41	C4	0.108300	0.775500	0.615900
C51	C5	0.910500	0.498000	0.763100
C61	C6	0.018800	0.460400	0.780400
C71	C7	0.782400	0.563500	0.689700
C81	C8	0.724200	0.615900	0.608600
C91	C9	0.673600	0.763100	0.738900
C101	C10	0.799200	0.780400	0.759200
C111	C11	0.472100	0.689700	0.746800
C121	C12	0.332800	0.608600	0.775500
C131	C13	0.910500	0.236900	0.502000
C141	C14	0.018800	0.219600	0.539600
C151	C15	0.782400	0.310300	0.436500
C161	C16	0.724200	0.391400	0.384100
C171	C17	0.673600	0.261100	0.236900
C181	C18	0.799200	0.240800	0.219600
C191	C19	0.472100	0.253200	0.310300
C201	C20	0.332800	0.224500	0.391400
C211	C21	0.412500	0.502000	0.261100
C221	C22	0.558400	0.539600	0.240800
C231	C23	0.218900	0.436500	0.253200
C241	C24	0.108300	0.384100	0.224500
N11	N1	0.319000	0.673900	0.486100
N21	N2	0.191500	0.677700	0.529500
N31	N3	0.352400	0.786800	0.547400
N41	N4	0.805100	0.486100	0.840000
N51	N5	0.721000	0.529500	0.792800
N61	N6	0.899800	0.547400	0.665800
N71	N7	0.645100	0.840000	0.673900
N81	N8	0.513800	0.792800	0.677700
N91	N9	0.565600	0.665800	0.786800
N101	N10	0.805100	0.160000	0.513900
N111	N11	0.721000	0.207200	0.470500
N121	N12	0.899800	0.334200	0.452600
N131	N13	0.645100	0.326100	0.160000
N141	N14	0.513800	0.322300	0.207200
N151	N15	0.565600	0.213200	0.334200
N161	N16	0.319000	0.513900	0.326100
N171	N17	0.191500	0.470500	0.322300
N181	N18	0.352400	0.452600	0.213200
O11	O1	0.162000	0.612500	0.387500
O21	O2	0.897500	0.514400	0.485600
O31	O3	0.549500	0.387500	0.000000
O41	O4	0.383100	0.485600	0.000000
O51	O5	0.549500	0.000000	0.612500
O61	O6	0.383100	0.000000	0.514400
