data_CETJAN_clean_h_PM
_symmetry_space_group_name_H-M	'P1'
_cell_length_a	13.451000
_cell_length_b	13.451000
_cell_length_c	25.498000
_cell_angle_alpha	90.000000
_cell_angle_beta	90.000000
_cell_angle_gamma	90.000000
_symmetry_Int_Tables_number 1

loop_
_symmetry_equiv_pos_as_xyz
'x,y,z'

loop_
_atom_site_label
_atom_site_type_symbol
_atom_site_fract_x
_atom_site_fract_y
_atom_site_fract_z
Co11	Co1	0.250000	0.250000	0.888240
Co21	Co2	0.750000	0.750000	0.388240
C11	C1	0.126500	0.447000	0.893200
C21	C2	0.403300	0.230400	0.795400
C31	C3	0.484300	0.253800	0.764000
C41	C4	0.526600	0.349300	0.769500
C51	C5	0.483400	0.417800	0.805200
C61	C6	0.402700	0.384200	0.834700
C71	C7	0.611300	0.382700	0.737300
C81	C8	0.725500	0.340400	0.672000
C91	C9	0.660500	0.227800	0.604200
C101	C10	0.634800	0.062000	0.570000
C111	C11	0.660600	0.994200	0.527600
C121	C12	0.727300	0.015600	0.489300
C131	C13	0.622300	0.899800	0.526500
C141	C14	0.747600	0.947800	0.449200
C151	C15	0.643800	0.834000	0.486700
C161	C16	0.373500	0.053000	0.893200
C171	C17	0.096700	0.269600	0.795400
C181	C18	0.015700	0.246200	0.764000
C191	C19	0.973400	0.150700	0.769500
C201	C20	0.016600	0.082200	0.805200
C211	C21	0.097300	0.115800	0.834700
C221	C22	0.888700	0.117300	0.737300
C231	C23	0.774500	0.159600	0.672000
C241	C24	0.839500	0.272200	0.604200
C251	C25	0.865200	0.438000	0.570000
C261	C26	0.839400	0.505800	0.527600
C271	C27	0.772700	0.484400	0.489300
C281	C28	0.877700	0.600200	0.526500
C291	C29	0.752400	0.552200	0.449200
C301	C30	0.856200	0.666000	0.486700
C311	C31	0.553000	0.626500	0.393200
C321	C32	0.769600	0.903300	0.295400
C331	C33	0.746200	0.984300	0.264000
C341	C34	0.650700	0.026600	0.269500
C351	C35	0.582200	0.983400	0.305200
C361	C36	0.615800	0.902700	0.334700
C371	C37	0.617300	0.111300	0.237300
C381	C38	0.659600	0.225500	0.172000
C391	C39	0.772200	0.160500	0.104200
C401	C40	0.938000	0.134800	0.070000
C411	C41	0.005800	0.160600	0.027600
C421	C42	0.984400	0.227300	0.989300
C431	C43	0.100200	0.122300	0.026500
C441	C44	0.052200	0.247600	0.949200
C451	C45	0.166000	0.143800	0.986700
C461	C46	0.947000	0.873500	0.393200
C471	C47	0.730400	0.596700	0.295400
C481	C48	0.753800	0.515700	0.264000
C491	C49	0.849300	0.473400	0.269500
C501	C50	0.917800	0.516600	0.305200
C511	C51	0.884200	0.597300	0.334700
C521	C52	0.882700	0.388700	0.237300
C531	C53	0.840400	0.274500	0.172000
C541	C54	0.727800	0.339500	0.104200
C551	C55	0.562000	0.365200	0.070000
C561	C56	0.494200	0.339400	0.027600
C571	C57	0.515600	0.272700	0.989300
C581	C58	0.399800	0.377700	0.026500
C591	C59	0.447800	0.252400	0.949200
C601	C60	0.334000	0.356200	0.986700
C611	C61	0.750000	0.250000	0.637700
C621	C62	0.750000	0.250000	0.137700
S11	S1	0.035200	0.520700	0.897900
S21	S2	0.464800	0.979300	0.897900
S31	S3	0.479300	0.535200	0.397900
S41	S4	0.020700	0.964800	0.397900
N11	N1	0.191300	0.392700	0.886800
N21	N2	0.363300	0.294100	0.830380
N31	N3	0.709500	0.858300	0.450000
N41	N4	0.308700	0.107300	0.886800
N51	N5	0.136700	0.205900	0.830380
N61	N6	0.790500	0.641700	0.450000
N71	N7	0.607300	0.691300	0.386800
N81	N8	0.705900	0.863300	0.330380
N91	N9	0.141700	0.209500	0.950000
N101	N10	0.892700	0.808700	0.386800
N111	N11	0.794100	0.636700	0.330380
N121	N12	0.358300	0.290500	0.950000
O11	O1	0.652900	0.460000	0.743200
O21	O2	0.642500	0.312700	0.704880
O31	O3	0.683100	0.147200	0.567560
O41	O4	0.580200	0.041900	0.605600
O51	O5	0.847100	0.040000	0.743200
O61	O6	0.857500	0.187300	0.704880
O71	O7	0.816900	0.352800	0.567560
O81	O8	0.919800	0.458100	0.605600
O91	O9	0.540000	0.152900	0.243200
O101	O10	0.687300	0.142500	0.204880
O111	O11	0.852800	0.183100	0.067560
O121	O12	0.958100	0.080200	0.105600
O131	O13	0.960000	0.347100	0.243200
O141	O14	0.812700	0.357500	0.204880
O151	O15	0.647200	0.316900	0.067560
O161	O16	0.541900	0.419800	0.105600
Co31	Co3	0.750000	0.750000	0.111760
Co41	Co4	0.250000	0.250000	0.611760
C631	C63	0.873500	0.553000	0.106800
C641	C64	0.596700	0.769600	0.204600
C651	C65	0.515700	0.746200	0.236000
C661	C66	0.473400	0.650700	0.230500
C671	C67	0.516600	0.582200	0.194800
C681	C68	0.597300	0.615800	0.165300
C691	C69	0.388700	0.617300	0.262700
C701	C70	0.274500	0.659600	0.328000
C711	C71	0.339500	0.772200	0.395800
C721	C72	0.365200	0.938000	0.430000
C731	C73	0.339400	0.005800	0.472400
C741	C74	0.272700	0.984400	0.510700
C751	C75	0.377700	0.100200	0.473500
C761	C76	0.252400	0.052200	0.550800
C771	C77	0.356200	0.166000	0.513300
C781	C78	0.626500	0.947000	0.106800
C791	C79	0.903300	0.730400	0.204600
C801	C80	0.984300	0.753800	0.236000
C811	C81	0.026600	0.849300	0.230500
C821	C82	0.983400	0.917800	0.194800
C831	C83	0.902700	0.884200	0.165300
C841	C84	0.111300	0.882700	0.262700
C851	C85	0.225500	0.840400	0.328000
C861	C86	0.160500	0.727800	0.395800
C871	C87	0.134800	0.562000	0.430000
C881	C88	0.160600	0.494200	0.472400
C891	C89	0.227300	0.515600	0.510700
C901	C90	0.122300	0.399800	0.473500
C911	C91	0.247600	0.447800	0.550800
C921	C92	0.143800	0.334000	0.513300
C931	C93	0.447000	0.373500	0.606800
C941	C94	0.230400	0.096700	0.704600
C951	C95	0.253800	0.015700	0.736000
C961	C96	0.349300	0.973400	0.730500
C971	C97	0.417800	0.016600	0.694800
C981	C98	0.384200	0.097300	0.665300
C991	C99	0.382700	0.888700	0.762700
C1001	C100	0.340400	0.774500	0.828000
C1011	C101	0.227800	0.839500	0.895800
C1021	C102	0.062000	0.865200	0.930000
C1031	C103	0.994200	0.839400	0.972400
C1041	C104	0.015600	0.772700	0.010700
C1051	C105	0.899800	0.877700	0.973500
C1061	C106	0.947800	0.752400	0.050800
C1071	C107	0.834000	0.856200	0.013300
C1081	C108	0.053000	0.126500	0.606800
C1091	C109	0.269600	0.403300	0.704600
C1101	C110	0.246200	0.484300	0.736000
C1111	C111	0.150700	0.526600	0.730500
C1121	C112	0.082200	0.483400	0.694800
C1131	C113	0.115800	0.402700	0.665300
C1141	C114	0.117300	0.611300	0.762700
C1151	C115	0.159600	0.725500	0.828000
C1161	C116	0.272200	0.660500	0.895800
C1171	C117	0.438000	0.634800	0.930000
C1181	C118	0.505800	0.660600	0.972400
C1191	C119	0.484400	0.727300	0.010700
C1201	C120	0.600200	0.622300	0.973500
C1211	C121	0.552200	0.747600	0.050800
C1221	C122	0.666000	0.643800	0.013300
C1231	C123	0.250000	0.750000	0.362300
C1241	C124	0.250000	0.750000	0.862300
S51	S5	0.964800	0.479300	0.102100
S61	S6	0.535200	0.020700	0.102100
S71	S7	0.520700	0.464800	0.602100
S81	S8	0.979300	0.035200	0.602100
N131	N13	0.808700	0.607300	0.113200
N141	N14	0.636700	0.705900	0.169620
N151	N15	0.290500	0.141700	0.550000
N161	N16	0.691300	0.892700	0.113200
N171	N17	0.863300	0.794100	0.169620
N181	N18	0.209500	0.358300	0.550000
N191	N19	0.392700	0.308700	0.613200
N201	N20	0.294100	0.136700	0.669620
N211	N21	0.858300	0.790500	0.050000
N221	N22	0.107300	0.191300	0.613200
N231	N23	0.205900	0.363300	0.669620
N241	N24	0.641700	0.709500	0.050000
O171	O17	0.347100	0.540000	0.256800
O181	O18	0.357500	0.687300	0.295120
O191	O19	0.316900	0.852800	0.432440
O201	O20	0.419800	0.958100	0.394400
O211	O21	0.152900	0.960000	0.256800
O221	O22	0.142500	0.812700	0.295120
O231	O23	0.183100	0.647200	0.432440
O241	O24	0.080200	0.541900	0.394400
O251	O25	0.460000	0.847100	0.756800
O261	O26	0.312700	0.857500	0.795120
O271	O27	0.147200	0.816900	0.932440
O281	O28	0.041900	0.919800	0.894400
O291	O29	0.040000	0.652900	0.756800
O301	O30	0.187300	0.642500	0.795120
O311	O31	0.352800	0.683100	0.932440
O321	O32	0.458100	0.580200	0.894400
H11	H1	0.367130	0.153970	0.792350
H21	H2	0.514420	0.196720	0.735020
H31	H3	0.514810	0.496230	0.808760
H41	H4	0.366440	0.435340	0.864790
H51	H5	0.770870	0.411580	0.668010
H61	H6	0.588970	0.271980	0.609820
H71	H7	0.767900	0.090000	0.489480
H81	H8	0.570870	0.873560	0.559230
H91	H9	0.797930	0.970180	0.415220
H101	H10	0.605180	0.758610	0.485240
H111	H11	0.132870	0.346030	0.792350
H121	H12	0.985580	0.303280	0.735020
H131	H13	0.985190	0.003770	0.808760
H141	H14	0.133560	0.064660	0.864790
H151	H15	0.729130	0.088420	0.668010
H161	H16	0.911030	0.228020	0.609820
H171	H17	0.732100	0.410000	0.489480
H181	H18	0.929130	0.626440	0.559230
H191	H19	0.702070	0.529820	0.415220
H201	H20	0.894820	0.741390	0.485240
H211	H21	0.846030	0.867130	0.292350
H221	H22	0.803280	0.014420	0.235020
H231	H23	0.503770	0.014810	0.308760
H241	H24	0.564660	0.866440	0.364790
H251	H25	0.588420	0.270870	0.168010
H261	H26	0.728020	0.088970	0.109820
H271	H27	0.910000	0.267900	0.989480
H281	H28	0.126440	0.070870	0.059230
H291	H29	0.029820	0.297930	0.915220
H301	H30	0.241390	0.105180	0.985240
H311	H31	0.653970	0.632870	0.292350
H321	H32	0.696720	0.485580	0.235020
H331	H33	0.996230	0.485190	0.308760
H341	H34	0.935340	0.633560	0.364790
H351	H35	0.911580	0.229130	0.168010
H361	H36	0.771980	0.411030	0.109820
H371	H37	0.590000	0.232100	0.989480
H381	H38	0.373560	0.429130	0.059230
H391	H39	0.470180	0.202070	0.915220
H401	H40	0.258610	0.394820	0.985240
H411	H41	0.632870	0.846030	0.207650
H421	H42	0.485580	0.803280	0.264980
H431	H43	0.485190	0.503770	0.191240
H441	H44	0.633560	0.564660	0.135210
H451	H45	0.229130	0.588420	0.331990
H461	H46	0.411030	0.728020	0.390180
H471	H47	0.232100	0.910000	0.510520
H481	H48	0.429130	0.126440	0.440770
H491	H49	0.202070	0.029820	0.584780
H501	H50	0.394820	0.241390	0.514760
H511	H51	0.867130	0.653970	0.207650
H521	H52	0.014420	0.696720	0.264980
H531	H53	0.014810	0.996230	0.191240
H541	H54	0.866440	0.935340	0.135210
H551	H55	0.270870	0.911580	0.331990
H561	H56	0.088970	0.771980	0.390180
H571	H57	0.267900	0.590000	0.510520
H581	H58	0.070870	0.373560	0.440770
H591	H59	0.297930	0.470180	0.584780
H601	H60	0.105180	0.258610	0.514760
H611	H61	0.153970	0.132870	0.707650
H621	H62	0.196720	0.985580	0.764980
H631	H63	0.496230	0.985190	0.691240
H641	H64	0.435340	0.133560	0.635210
H651	H65	0.411580	0.729130	0.831990
H661	H66	0.271980	0.911030	0.890180
H671	H67	0.090000	0.732100	0.010520
H681	H68	0.873560	0.929130	0.940770
H691	H69	0.970180	0.702070	0.084780
H701	H70	0.758610	0.894820	0.014760
H711	H71	0.346030	0.367130	0.707650
H721	H72	0.303280	0.514420	0.764980
H731	H73	0.003770	0.514810	0.691240
H741	H74	0.064660	0.366440	0.635210
H751	H75	0.088420	0.770870	0.831990
H761	H76	0.228020	0.588970	0.890180
H771	H77	0.410000	0.767900	0.010520
H781	H78	0.626440	0.570870	0.940770
H791	H79	0.529820	0.797930	0.084780
H801	H80	0.741390	0.605180	0.014760
