data_CEXHOD_clean_PM
_symmetry_space_group_name_H-M	'P1'
_cell_length_a	33.410000
_cell_length_b	26.932000
_cell_length_c	12.365000
_cell_angle_alpha	90.000000
_cell_angle_beta	91.533000
_cell_angle_gamma	90.000000
_symmetry_Int_Tables_number 1

loop_
_symmetry_equiv_pos_as_xyz
'x,y,z'

loop_
_atom_site_label
_atom_site_type_symbol
_atom_site_fract_x
_atom_site_fract_y
_atom_site_fract_z
Ag11	Ag1	0.638570	0.280530	0.221890
Ag21	Ag2	0.142680	0.277520	0.747920
Co11	Co1	0.386710	0.430140	0.468200
Co21	Co2	0.886160	0.432240	0.518140
C11	C1	0.455420	0.469500	0.593600
H11	H1	0.439000	0.491900	0.631800
C21	C2	0.496330	0.465400	0.609800
H21	H2	0.512300	0.483900	0.660200
C31	C3	0.509740	0.429900	0.539900
H31	H3	0.536500	0.418800	0.532800
C41	C4	0.474910	0.413000	0.479700
C51	C5	0.472300	0.373800	0.404900
C61	C6	0.437420	0.353900	0.359300
C71	C7	0.433000	0.312800	0.287700
H41	H4	0.454000	0.294000	0.257100
C81	C8	0.393300	0.305700	0.271500
H51	H5	0.380700	0.280500	0.229100
C91	C9	0.373800	0.344200	0.331900
H61	H6	0.345600	0.348500	0.333700
C101	C10	0.510700	0.353200	0.365000
C111	C11	0.522020	0.303800	0.387700
H71	H7	0.505800	0.283200	0.430900
C121	C12	0.557290	0.285900	0.345600
H81	H8	0.564800	0.252500	0.360600
C131	C13	0.536670	0.381800	0.304300
H91	H9	0.530700	0.415600	0.288400
C141	C14	0.571000	0.360200	0.267900
H101	H10	0.588800	0.380000	0.227500
C151	C15	0.643300	0.983400	0.842100
H111	H11	0.644200	0.953700	0.800900
C161	C16	0.656400	0.030100	0.803400
H121	H12	0.665600	0.037500	0.733200
C171	C17	0.652700	0.062400	0.888800
H131	H13	0.659800	0.096500	0.890100
C181	C18	0.636000	0.034300	0.976100
C191	C19	0.625500	0.051500	0.077000
C201	C20	0.608670	0.024800	0.156700
C211	C21	0.597700	0.041400	0.264100
H141	H14	0.600700	0.073900	0.292900
C221	C22	0.582200	0.000200	0.315900
H151	H15	0.571500	0.999300	0.386300
C231	C23	0.585300	0.961100	0.245500
H161	H16	0.577100	0.928400	0.262800
C241	C24	0.633500	0.105300	0.101600
C251	C25	0.661700	0.120800	0.176400
H171	H17	0.678100	0.096800	0.212200
C261	C26	0.667000	0.170200	0.201300
H181	H18	0.686500	0.179300	0.254700
C271	C27	0.612600	0.142900	0.044400
H191	H19	0.594700	0.134500	0.986300
C281	C28	0.618200	0.191800	0.072400
H201	H20	0.603000	0.216600	0.035600
C291	C29	0.316500	0.448500	0.325600
H211	H21	0.332000	0.465300	0.273800
C301	C30	0.274100	0.442300	0.316200
H221	H22	0.256900	0.453900	0.259400
C311	C31	0.263200	0.415400	0.408200
H231	H23	0.237000	0.405600	0.427000
C321	C32	0.299850	0.405800	0.467700
C331	C33	0.303850	0.377400	0.561000
C341	C34	0.340620	0.365800	0.613000
C351	C35	0.346800	0.335000	0.706600
H241	H24	0.326800	0.318600	0.746300
C361	C36	0.386800	0.333800	0.727300
H251	H25	0.400400	0.315500	0.782700
C371	C37	0.404480	0.365100	0.651000
H261	H26	0.432400	0.371400	0.647200
C381	C38	0.266840	0.354100	0.605300
C391	C39	0.253900	0.367900	0.704900
H271	H27	0.267700	0.392400	0.746800
C401	C40	0.219600	0.344700	0.742400
H281	H28	0.210900	0.353400	0.812400
C411	C41	0.245100	0.319200	0.543800
H291	H29	0.252900	0.310500	0.472900
C421	C42	0.211870	0.297600	0.589600
H301	H30	0.198300	0.272000	0.550300
C431	C43	0.918980	0.455400	0.737500
H311	H31	0.927700	0.422300	0.749400
C441	C44	0.922400	0.493300	0.812800
H321	H32	0.934000	0.490800	0.883500
C451	C45	0.905900	0.535400	0.765900
H331	H33	0.903300	0.567100	0.798800
C461	C46	0.893320	0.521900	0.658100
C471	C47	0.875000	0.552300	0.581600
C481	C48	0.863390	0.538000	0.476700
C491	C49	0.845530	0.568200	0.394500
H341	H34	0.839200	0.602500	0.399600
C501	C50	0.839340	0.538400	0.307300
H351	H35	0.827100	0.547700	0.240100
C511	C51	0.854270	0.491700	0.334500
H361	H36	0.854200	0.464100	0.286800
C521	C52	0.867060	0.604600	0.614600
C531	C53	0.840200	0.616500	0.690900
H371	H37	0.824800	0.591700	0.725300
C541	C54	0.836020	0.667000	0.717100
H381	H38	0.817500	0.675000	0.771300
C551	C55	0.888600	0.643400	0.564000
H391	H39	0.907500	0.636600	0.510000
C561	C56	0.880590	0.691700	0.597300
H401	H40	0.894200	0.718200	0.563300
C571	C57	0.898150	0.370500	0.327200
H411	H41	0.926300	0.375400	0.330300
C581	C58	0.877200	0.341000	0.248500
H421	H42	0.888600	0.323100	0.190600
C591	C59	0.837700	0.343700	0.272900
H431	H43	0.816400	0.327000	0.236100
C601	C60	0.834140	0.375100	0.360700
C611	C61	0.799650	0.387300	0.418000
C621	C62	0.798080	0.411500	0.514400
C631	C63	0.763800	0.422100	0.578400
H441	H44	0.736700	0.415500	0.558600
C641	C64	0.777300	0.443500	0.673100
H451	H45	0.761600	0.453900	0.731800
C651	C65	0.819160	0.446900	0.666000
H461	H46	0.836200	0.460000	0.721800
C661	C66	0.761390	0.367400	0.370800
C671	C67	0.740800	0.330800	0.427000
H471	H47	0.750500	0.319600	0.495700
C681	C68	0.705910	0.310900	0.380800
H481	H48	0.691700	0.286800	0.420600
C691	C69	0.745890	0.382700	0.270500
H491	H49	0.758800	0.407600	0.229900
C701	C70	0.710920	0.360200	0.231600
H501	H50	0.700000	0.370900	0.163800
C711	C71	0.952650	0.472300	0.395000
H511	H51	0.935500	0.495000	0.357400
C721	C72	0.994470	0.468600	0.378800
H521	H52	0.009800	0.487200	0.329200
C731	C73	0.007940	0.433600	0.447700
H531	H53	0.035000	0.423300	0.457300
C741	C74	0.974240	0.414500	0.504700
C751	C75	0.972920	0.374100	0.574000
C761	C76	0.938650	0.352800	0.615200
C771	C77	0.934700	0.309400	0.681000
H541	H54	0.955900	0.289100	0.708200
C781	C78	0.895500	0.302700	0.697400
H551	H55	0.883800	0.276400	0.736600
C791	C79	0.874900	0.342500	0.644900
H561	H56	0.846700	0.347600	0.645500
C801	C80	0.011940	0.351000	0.614100
C811	C81	0.038890	0.379400	0.675800
H571	H57	0.033300	0.413100	0.692200
C821	C82	0.074330	0.357000	0.712900
H581	H58	0.092400	0.376100	0.756600
C831	C83	0.022690	0.303100	0.584100
H591	H59	0.006100	0.283800	0.536600
C841	C84	0.058320	0.284600	0.626100
H601	H60	0.065200	0.251400	0.608600
N11	N1	0.441780	0.438050	0.517700
N21	N2	0.399320	0.372010	0.383100
N31	N3	0.580770	0.312980	0.286000
N41	N4	0.629760	0.985610	0.942700
N51	N5	0.600980	0.973090	0.150400
N61	N6	0.645140	0.205740	0.151800
N71	N7	0.331880	0.427540	0.417300
N81	N8	0.376610	0.384500	0.584600
N91	N9	0.198020	0.310600	0.685300
N101	N10	0.901420	0.472100	0.644600
N111	N11	0.868620	0.490700	0.435900
N121	N12	0.854700	0.702950	0.675000
N131	N13	0.872630	0.390130	0.395600
N141	N14	0.832040	0.429900	0.573000
N151	N15	0.691550	0.323930	0.284800
N161	N16	0.940180	0.440340	0.468600
N171	N17	0.900540	0.371310	0.595200
N181	N18	0.084140	0.310720	0.690500
Ag31	Ag3	0.361430	0.780530	0.278110
Ag41	Ag4	0.857320	0.777520	0.752080
Co31	Co3	0.613290	0.930140	0.031800
Co41	Co4	0.113840	0.932240	0.981860
C851	C85	0.544580	0.969500	0.906400
H611	H61	0.561000	0.991900	0.868200
C861	C86	0.503670	0.965400	0.890200
H621	H62	0.487700	0.983900	0.839800
C871	C87	0.490260	0.929900	0.960100
H631	H63	0.463500	0.918800	0.967200
C881	C88	0.525090	0.913000	0.020300
C891	C89	0.527700	0.873800	0.095100
C901	C90	0.562580	0.853900	0.140700
C911	C91	0.567000	0.812800	0.212300
H641	H64	0.546000	0.794000	0.242900
C921	C92	0.606700	0.805700	0.228500
H651	H65	0.619300	0.780500	0.270900
C931	C93	0.626200	0.844200	0.168100
H661	H66	0.654400	0.848500	0.166300
C941	C94	0.489300	0.853200	0.135000
C951	C95	0.477980	0.803800	0.112300
H671	H67	0.494200	0.783200	0.069100
C961	C96	0.442710	0.785900	0.154400
H681	H68	0.435200	0.752500	0.139400
C971	C97	0.463330	0.881800	0.195700
H691	H69	0.469300	0.915600	0.211600
C981	C98	0.429000	0.860200	0.232100
H701	H70	0.411200	0.880000	0.272500
C991	C99	0.356700	0.483400	0.657900
H711	H71	0.355800	0.453700	0.699100
C1001	C100	0.343600	0.530100	0.696600
H721	H72	0.334400	0.537500	0.766800
C1011	C101	0.347300	0.562400	0.611200
H731	H73	0.340200	0.596500	0.609900
C1021	C102	0.364000	0.534300	0.523900
C1031	C103	0.374500	0.551500	0.423000
C1041	C104	0.391330	0.524800	0.343300
C1051	C105	0.402300	0.541400	0.235900
H741	H74	0.399300	0.573900	0.207100
C1061	C106	0.417800	0.500200	0.184100
H751	H75	0.428500	0.499300	0.113700
C1071	C107	0.414700	0.461100	0.254500
H761	H76	0.422900	0.428400	0.237200
C1081	C108	0.366500	0.605300	0.398400
C1091	C109	0.338300	0.620800	0.323600
H771	H77	0.321900	0.596800	0.287800
C1101	C110	0.333000	0.670200	0.298700
H781	H78	0.313500	0.679300	0.245300
C1111	C111	0.387400	0.642900	0.455600
H791	H79	0.405300	0.634500	0.513700
C1121	C112	0.381800	0.691800	0.427600
H801	H80	0.397000	0.716600	0.464400
C1131	C113	0.683500	0.948500	0.174400
H811	H81	0.668000	0.965300	0.226200
C1141	C114	0.725900	0.942300	0.183800
H821	H82	0.743100	0.953900	0.240600
C1151	C115	0.736800	0.915400	0.091800
H831	H83	0.763000	0.905600	0.073000
C1161	C116	0.700150	0.905800	0.032300
C1171	C117	0.696150	0.877400	0.939000
C1181	C118	0.659380	0.865800	0.887000
C1191	C119	0.653200	0.835000	0.793400
H841	H84	0.673200	0.818600	0.753700
C1201	C120	0.613200	0.833800	0.772700
H851	H85	0.599600	0.815500	0.717300
C1211	C121	0.595520	0.865100	0.849000
H861	H86	0.567600	0.871400	0.852800
C1221	C122	0.733160	0.854100	0.894700
C1231	C123	0.746100	0.867900	0.795100
H871	H87	0.732300	0.892400	0.753200
C1241	C124	0.780400	0.844700	0.757600
H881	H88	0.789100	0.853400	0.687600
C1251	C125	0.754900	0.819200	0.956200
H891	H89	0.747100	0.810500	0.027100
C1261	C126	0.788130	0.797600	0.910400
H901	H90	0.801700	0.772000	0.949700
C1271	C127	0.081020	0.955400	0.762500
H911	H91	0.072300	0.922300	0.750600
C1281	C128	0.077600	0.993300	0.687200
H921	H92	0.066000	0.990800	0.616500
C1291	C129	0.094100	0.035400	0.734100
H931	H93	0.096700	0.067100	0.701200
C1301	C130	0.106680	0.021900	0.841900
C1311	C131	0.125000	0.052300	0.918400
C1321	C132	0.136610	0.038000	0.023300
C1331	C133	0.154470	0.068200	0.105500
H941	H94	0.160800	0.102500	0.100400
C1341	C134	0.160660	0.038400	0.192700
H951	H95	0.172900	0.047700	0.259900
C1351	C135	0.145730	0.991700	0.165500
H961	H96	0.145800	0.964100	0.213200
C1361	C136	0.132940	0.104600	0.885400
C1371	C137	0.159800	0.116500	0.809100
H971	H97	0.175200	0.091700	0.774700
C1381	C138	0.163980	0.167000	0.782900
H981	H98	0.182500	0.175000	0.728700
C1391	C139	0.111400	0.143400	0.936000
H991	H99	0.092500	0.136600	0.990000
C1401	C140	0.119410	0.191700	0.902700
H1001	H100	0.105800	0.218200	0.936700
C1411	C141	0.101850	0.870500	0.172800
H1011	H101	0.073700	0.875400	0.169700
C1421	C142	0.122800	0.841000	0.251500
H1021	H102	0.111400	0.823100	0.309400
C1431	C143	0.162300	0.843700	0.227100
H1031	H103	0.183600	0.827000	0.263900
C1441	C144	0.165860	0.875100	0.139300
C1451	C145	0.200350	0.887300	0.082000
C1461	C146	0.201920	0.911500	0.985600
C1471	C147	0.236200	0.922100	0.921600
H1041	H104	0.263300	0.915500	0.941400
C1481	C148	0.222700	0.943500	0.826900
H1051	H105	0.238400	0.953900	0.768200
C1491	C149	0.180840	0.946900	0.834000
H1061	H106	0.163800	0.960000	0.778200
C1501	C150	0.238610	0.867400	0.129200
C1511	C151	0.259200	0.830800	0.073000
H1071	H107	0.249500	0.819600	0.004300
C1521	C152	0.294090	0.810900	0.119200
H1081	H108	0.308300	0.786800	0.079400
C1531	C153	0.254110	0.882700	0.229500
H1091	H109	0.241200	0.907600	0.270100
C1541	C154	0.289080	0.860200	0.268400
H1101	H110	0.300000	0.870900	0.336200
C1551	C155	0.047350	0.972300	0.105000
H1111	H111	0.064500	0.995000	0.142600
C1561	C156	0.005530	0.968600	0.121200
H1121	H112	0.990200	0.987200	0.170800
C1571	C157	0.992060	0.933600	0.052300
H1131	H113	0.965000	0.923300	0.042700
C1581	C158	0.025760	0.914500	0.995300
C1591	C159	0.027080	0.874100	0.926000
C1601	C160	0.061350	0.852800	0.884800
C1611	C161	0.065300	0.809400	0.819000
H1141	H114	0.044100	0.789100	0.791800
C1621	C162	0.104500	0.802700	0.802600
H1151	H115	0.116200	0.776400	0.763400
C1631	C163	0.125100	0.842500	0.855100
H1161	H116	0.153300	0.847600	0.854500
C1641	C164	0.988060	0.851000	0.885900
C1651	C165	0.961110	0.879400	0.824200
H1171	H117	0.966700	0.913100	0.807800
C1661	C166	0.925670	0.857000	0.787100
H1181	H118	0.907600	0.876100	0.743400
C1671	C167	0.977310	0.803100	0.915900
H1191	H119	0.993900	0.783800	0.963400
C1681	C168	0.941680	0.784600	0.873900
H1201	H120	0.934800	0.751400	0.891400
N191	N19	0.558220	0.938050	0.982300
N201	N20	0.600680	0.872010	0.116900
N211	N21	0.419230	0.812980	0.214000
N221	N22	0.370240	0.485610	0.557300
N231	N23	0.399020	0.473090	0.349600
N241	N24	0.354860	0.705740	0.348200
N251	N25	0.668120	0.927540	0.082700
N261	N26	0.623390	0.884500	0.915400
N271	N27	0.801980	0.810600	0.814700
N281	N28	0.098580	0.972100	0.855400
N291	N29	0.131380	0.990700	0.064100
N301	N30	0.145300	0.202950	0.825000
N311	N31	0.127370	0.890130	0.104400
N321	N32	0.167960	0.929900	0.927000
N331	N33	0.308450	0.823930	0.215200
N341	N34	0.059820	0.940340	0.031400
N351	N35	0.099460	0.871310	0.904800
N361	N36	0.915860	0.810720	0.809500
Ag51	Ag5	0.361430	0.719470	0.778110
Ag61	Ag6	0.857320	0.722480	0.252080
Co51	Co5	0.613290	0.569860	0.531800
Co61	Co6	0.113840	0.567760	0.481860
C1691	C169	0.544580	0.530500	0.406400
H1211	H121	0.561000	0.508100	0.368200
C1701	C170	0.503670	0.534600	0.390200
H1221	H122	0.487700	0.516100	0.339800
C1711	C171	0.490260	0.570100	0.460100
H1231	H123	0.463500	0.581200	0.467200
C1721	C172	0.525090	0.587000	0.520300
C1731	C173	0.527700	0.626200	0.595100
C1741	C174	0.562580	0.646100	0.640700
C1751	C175	0.567000	0.687200	0.712300
H1241	H124	0.546000	0.706000	0.742900
C1761	C176	0.606700	0.694300	0.728500
H1251	H125	0.619300	0.719500	0.770900
C1771	C177	0.626200	0.655800	0.668100
H1261	H126	0.654400	0.651500	0.666300
C1781	C178	0.489300	0.646800	0.635000
C1791	C179	0.477980	0.696200	0.612300
H1271	H127	0.494200	0.716800	0.569100
C1801	C180	0.442710	0.714100	0.654400
H1281	H128	0.435200	0.747500	0.639400
C1811	C181	0.463330	0.618200	0.695700
H1291	H129	0.469300	0.584400	0.711600
C1821	C182	0.429000	0.639800	0.732100
H1301	H130	0.411200	0.620000	0.772500
C1831	C183	0.356700	0.016600	0.157900
H1311	H131	0.355800	0.046300	0.199100
C1841	C184	0.343600	0.969900	0.196600
H1321	H132	0.334400	0.962500	0.266800
C1851	C185	0.347300	0.937600	0.111200
H1331	H133	0.340200	0.903500	0.109900
C1861	C186	0.364000	0.965700	0.023900
C1871	C187	0.374500	0.948500	0.923000
C1881	C188	0.391330	0.975200	0.843300
C1891	C189	0.402300	0.958600	0.735900
H1341	H134	0.399300	0.926100	0.707100
C1901	C190	0.417800	0.999800	0.684100
H1351	H135	0.428500	0.000700	0.613700
C1911	C191	0.414700	0.038900	0.754500
H1361	H136	0.422900	0.071600	0.737200
C1921	C192	0.366500	0.894700	0.898400
C1931	C193	0.338300	0.879200	0.823600
H1371	H137	0.321900	0.903200	0.787800
C1941	C194	0.333000	0.829800	0.798700
H1381	H138	0.313500	0.820700	0.745300
C1951	C195	0.387400	0.857100	0.955600
H1391	H139	0.405300	0.865500	0.013700
C1961	C196	0.381800	0.808200	0.927600
H1401	H140	0.397000	0.783400	0.964400
C1971	C197	0.683500	0.551500	0.674400
H1411	H141	0.668000	0.534700	0.726200
C1981	C198	0.725900	0.557700	0.683800
H1421	H142	0.743100	0.546100	0.740600
C1991	C199	0.736800	0.584600	0.591800
H1431	H143	0.763000	0.594400	0.573000
C2001	C200	0.700150	0.594200	0.532300
C2011	C201	0.696150	0.622600	0.439000
C2021	C202	0.659380	0.634200	0.387000
C2031	C203	0.653200	0.665000	0.293400
H1441	H144	0.673200	0.681400	0.253700
C2041	C204	0.613200	0.666200	0.272700
H1451	H145	0.599600	0.684500	0.217300
C2051	C205	0.595520	0.634900	0.349000
H1461	H146	0.567600	0.628600	0.352800
C2061	C206	0.733160	0.645900	0.394700
C2071	C207	0.746100	0.632100	0.295100
H1471	H147	0.732300	0.607600	0.253200
C2081	C208	0.780400	0.655300	0.257600
H1481	H148	0.789100	0.646600	0.187600
C2091	C209	0.754900	0.680800	0.456200
H1491	H149	0.747100	0.689500	0.527100
C2101	C210	0.788130	0.702400	0.410400
H1501	H150	0.801700	0.728000	0.449700
C2111	C211	0.081020	0.544600	0.262500
H1511	H151	0.072300	0.577700	0.250600
C2121	C212	0.077600	0.506700	0.187200
H1521	H152	0.066000	0.509200	0.116500
C2131	C213	0.094100	0.464600	0.234100
H1531	H153	0.096700	0.432900	0.201200
C2141	C214	0.106680	0.478100	0.341900
C2151	C215	0.125000	0.447700	0.418400
C2161	C216	0.136610	0.462000	0.523300
C2171	C217	0.154470	0.431800	0.605500
H1541	H154	0.160800	0.397500	0.600400
C2181	C218	0.160660	0.461600	0.692700
H1551	H155	0.172900	0.452300	0.759900
C2191	C219	0.145730	0.508300	0.665500
H1561	H156	0.145800	0.535900	0.713200
C2201	C220	0.132940	0.395400	0.385400
C2211	C221	0.159800	0.383500	0.309100
H1571	H157	0.175200	0.408300	0.274700
C2221	C222	0.163980	0.333000	0.282900
H1581	H158	0.182500	0.325000	0.228700
C2231	C223	0.111400	0.356600	0.436000
H1591	H159	0.092500	0.363400	0.490000
C2241	C224	0.119410	0.308300	0.402700
H1601	H160	0.105800	0.281800	0.436700
C2251	C225	0.101850	0.629500	0.672800
H1611	H161	0.073700	0.624600	0.669700
C2261	C226	0.122800	0.659000	0.751500
H1621	H162	0.111400	0.676900	0.809400
C2271	C227	0.162300	0.656300	0.727100
H1631	H163	0.183600	0.673000	0.763900
C2281	C228	0.165860	0.624900	0.639300
C2291	C229	0.200350	0.612700	0.582000
C2301	C230	0.201920	0.588500	0.485600
C2311	C231	0.236200	0.577900	0.421600
H1641	H164	0.263300	0.584500	0.441400
C2321	C232	0.222700	0.556500	0.326900
H1651	H165	0.238400	0.546100	0.268200
C2331	C233	0.180840	0.553100	0.334000
H1661	H166	0.163800	0.540000	0.278200
C2341	C234	0.238610	0.632600	0.629200
C2351	C235	0.259200	0.669200	0.573000
H1671	H167	0.249500	0.680400	0.504300
C2361	C236	0.294090	0.689100	0.619200
H1681	H168	0.308300	0.713200	0.579400
C2371	C237	0.254110	0.617300	0.729500
H1691	H169	0.241200	0.592400	0.770100
C2381	C238	0.289080	0.639800	0.768400
H1701	H170	0.300000	0.629100	0.836200
C2391	C239	0.047350	0.527700	0.605000
H1711	H171	0.064500	0.505000	0.642600
C2401	C240	0.005530	0.531400	0.621200
H1721	H172	0.990200	0.512800	0.670800
C2411	C241	0.992060	0.566400	0.552300
H1731	H173	0.965000	0.576700	0.542700
C2421	C242	0.025760	0.585500	0.495300
C2431	C243	0.027080	0.625900	0.426000
C2441	C244	0.061350	0.647200	0.384800
C2451	C245	0.065300	0.690600	0.319000
H1741	H174	0.044100	0.710900	0.291800
C2461	C246	0.104500	0.697300	0.302600
H1751	H175	0.116200	0.723600	0.263400
C2471	C247	0.125100	0.657500	0.355100
H1761	H176	0.153300	0.652400	0.354500
C2481	C248	0.988060	0.649000	0.385900
C2491	C249	0.961110	0.620600	0.324200
H1771	H177	0.966700	0.586900	0.307800
C2501	C250	0.925670	0.643000	0.287100
H1781	H178	0.907600	0.623900	0.243400
C2511	C251	0.977310	0.696900	0.415900
H1791	H179	0.993900	0.716200	0.463400
C2521	C252	0.941680	0.715400	0.373900
H1801	H180	0.934800	0.748600	0.391400
N371	N37	0.558220	0.561950	0.482300
N381	N38	0.600680	0.627990	0.616900
N391	N39	0.419230	0.687020	0.714000
N401	N40	0.370240	0.014390	0.057300
N411	N41	0.399020	0.026910	0.849600
N421	N42	0.354860	0.794260	0.848200
N431	N43	0.668120	0.572460	0.582700
N441	N44	0.623390	0.615500	0.415400
N451	N45	0.801980	0.689400	0.314700
N461	N46	0.098580	0.527900	0.355400
N471	N47	0.131380	0.509300	0.564100
N481	N48	0.145300	0.297050	0.325000
N491	N49	0.127370	0.609870	0.604400
N501	N50	0.167960	0.570100	0.427000
N511	N51	0.308450	0.676070	0.715200
N521	N52	0.059820	0.559660	0.531400
N531	N53	0.099460	0.628690	0.404800
N541	N54	0.915860	0.689280	0.309500
Ag71	Ag7	0.638570	0.219470	0.721890
Ag81	Ag8	0.142680	0.222480	0.247920
Co71	Co7	0.386710	0.069860	0.968200
Co81	Co8	0.886160	0.067760	0.018140
C2531	C253	0.455420	0.030500	0.093600
H1811	H181	0.439000	0.008100	0.131800
C2541	C254	0.496330	0.034600	0.109800
H1821	H182	0.512300	0.016100	0.160200
C2551	C255	0.509740	0.070100	0.039900
H1831	H183	0.536500	0.081200	0.032800
C2561	C256	0.474910	0.087000	0.979700
C2571	C257	0.472300	0.126200	0.904900
C2581	C258	0.437420	0.146100	0.859300
C2591	C259	0.433000	0.187200	0.787700
H1841	H184	0.454000	0.206000	0.757100
C2601	C260	0.393300	0.194300	0.771500
H1851	H185	0.380700	0.219500	0.729100
C2611	C261	0.373800	0.155800	0.831900
H1861	H186	0.345600	0.151500	0.833700
C2621	C262	0.510700	0.146800	0.865000
C2631	C263	0.522020	0.196200	0.887700
H1871	H187	0.505800	0.216800	0.930900
C2641	C264	0.557290	0.214100	0.845600
H1881	H188	0.564800	0.247500	0.860600
C2651	C265	0.536670	0.118200	0.804300
H1891	H189	0.530700	0.084400	0.788400
C2661	C266	0.571000	0.139800	0.767900
H1901	H190	0.588800	0.120000	0.727500
C2671	C267	0.643300	0.516600	0.342100
H1911	H191	0.644200	0.546300	0.300900
C2681	C268	0.656400	0.469900	0.303400
H1921	H192	0.665600	0.462500	0.233200
C2691	C269	0.652700	0.437600	0.388800
H1931	H193	0.659800	0.403500	0.390100
C2701	C270	0.636000	0.465700	0.476100
C2711	C271	0.625500	0.448500	0.577000
C2721	C272	0.608670	0.475200	0.656700
C2731	C273	0.597700	0.458600	0.764100
H1941	H194	0.600700	0.426100	0.792900
C2741	C274	0.582200	0.499800	0.815900
H1951	H195	0.571500	0.500700	0.886300
C2751	C275	0.585300	0.538900	0.745500
H1961	H196	0.577100	0.571600	0.762800
C2761	C276	0.633500	0.394700	0.601600
C2771	C277	0.661700	0.379200	0.676400
H1971	H197	0.678100	0.403200	0.712200
C2781	C278	0.667000	0.329800	0.701300
H1981	H198	0.686500	0.320700	0.754700
C2791	C279	0.612600	0.357100	0.544400
H1991	H199	0.594700	0.365500	0.486300
C2801	C280	0.618200	0.308200	0.572400
H2001	H200	0.603000	0.283400	0.535600
C2811	C281	0.316500	0.051500	0.825600
H2011	H201	0.332000	0.034700	0.773800
C2821	C282	0.274100	0.057700	0.816200
H2021	H202	0.256900	0.046100	0.759400
C2831	C283	0.263200	0.084600	0.908200
H2031	H203	0.237000	0.094400	0.927000
C2841	C284	0.299850	0.094200	0.967700
C2851	C285	0.303850	0.122600	0.061000
C2861	C286	0.340620	0.134200	0.113000
C2871	C287	0.346800	0.165000	0.206600
H2041	H204	0.326800	0.181400	0.246300
C2881	C288	0.386800	0.166200	0.227300
H2051	H205	0.400400	0.184500	0.282700
C2891	C289	0.404480	0.134900	0.151000
H2061	H206	0.432400	0.128600	0.147200
C2901	C290	0.266840	0.145900	0.105300
C2911	C291	0.253900	0.132100	0.204900
H2071	H207	0.267700	0.107600	0.246800
C2921	C292	0.219600	0.155300	0.242400
H2081	H208	0.210900	0.146600	0.312400
C2931	C293	0.245100	0.180800	0.043800
H2091	H209	0.252900	0.189500	0.972900
C2941	C294	0.211870	0.202400	0.089600
H2101	H210	0.198300	0.228000	0.050300
C2951	C295	0.918980	0.044600	0.237500
H2111	H211	0.927700	0.077700	0.249400
C2961	C296	0.922400	0.006700	0.312800
H2121	H212	0.934000	0.009200	0.383500
C2971	C297	0.905900	0.964600	0.265900
H2131	H213	0.903300	0.932900	0.298800
C2981	C298	0.893320	0.978100	0.158100
C2991	C299	0.875000	0.947700	0.081600
C3001	C300	0.863390	0.962000	0.976700
C3011	C301	0.845530	0.931800	0.894500
H2141	H214	0.839200	0.897500	0.899600
C3021	C302	0.839340	0.961600	0.807300
H2151	H215	0.827100	0.952300	0.740100
C3031	C303	0.854270	0.008300	0.834500
H2161	H216	0.854200	0.035900	0.786800
C3041	C304	0.867060	0.895400	0.114600
C3051	C305	0.840200	0.883500	0.190900
H2171	H217	0.824800	0.908300	0.225300
C3061	C306	0.836020	0.833000	0.217100
H2181	H218	0.817500	0.825000	0.271300
C3071	C307	0.888600	0.856600	0.064000
H2191	H219	0.907500	0.863400	0.010000
C3081	C308	0.880590	0.808300	0.097300
H2201	H220	0.894200	0.781800	0.063300
C3091	C309	0.898150	0.129500	0.827200
H2211	H221	0.926300	0.124600	0.830300
C3101	C310	0.877200	0.159000	0.748500
H2221	H222	0.888600	0.176900	0.690600
C3111	C311	0.837700	0.156300	0.772900
H2231	H223	0.816400	0.173000	0.736100
C3121	C312	0.834140	0.124900	0.860700
C3131	C313	0.799650	0.112700	0.918000
C3141	C314	0.798080	0.088500	0.014400
C3151	C315	0.763800	0.077900	0.078400
H2241	H224	0.736700	0.084500	0.058600
C3161	C316	0.777300	0.056500	0.173100
H2251	H225	0.761600	0.046100	0.231800
C3171	C317	0.819160	0.053100	0.166000
H2261	H226	0.836200	0.040000	0.221800
C3181	C318	0.761390	0.132600	0.870800
C3191	C319	0.740800	0.169200	0.927000
H2271	H227	0.750500	0.180400	0.995700
C3201	C320	0.705910	0.189100	0.880800
H2281	H228	0.691700	0.213200	0.920600
C3211	C321	0.745890	0.117300	0.770500
H2291	H229	0.758800	0.092400	0.729900
C3221	C322	0.710920	0.139800	0.731600
H2301	H230	0.700000	0.129100	0.663800
C3231	C323	0.952650	0.027700	0.895000
H2311	H231	0.935500	0.005000	0.857400
C3241	C324	0.994470	0.031400	0.878800
H2321	H232	0.009800	0.012800	0.829200
C3251	C325	0.007940	0.066400	0.947700
H2331	H233	0.035000	0.076700	0.957300
C3261	C326	0.974240	0.085500	0.004700
C3271	C327	0.972920	0.125900	0.074000
C3281	C328	0.938650	0.147200	0.115200
C3291	C329	0.934700	0.190600	0.181000
H2341	H234	0.955900	0.210900	0.208200
C3301	C330	0.895500	0.197300	0.197400
H2351	H235	0.883800	0.223600	0.236600
C3311	C331	0.874900	0.157500	0.144900
H2361	H236	0.846700	0.152400	0.145500
C3321	C332	0.011940	0.149000	0.114100
C3331	C333	0.038890	0.120600	0.175800
H2371	H237	0.033300	0.086900	0.192200
C3341	C334	0.074330	0.143000	0.212900
H2381	H238	0.092400	0.123900	0.256600
C3351	C335	0.022690	0.196900	0.084100
H2391	H239	0.006100	0.216200	0.036600
C3361	C336	0.058320	0.215400	0.126100
H2401	H240	0.065200	0.248600	0.108600
N551	N55	0.441780	0.061950	0.017700
N561	N56	0.399320	0.127990	0.883100
N571	N57	0.580770	0.187020	0.786000
N581	N58	0.629760	0.514390	0.442700
N591	N59	0.600980	0.526910	0.650400
N601	N60	0.645140	0.294260	0.651800
N611	N61	0.331880	0.072460	0.917300
N621	N62	0.376610	0.115500	0.084600
N631	N63	0.198020	0.189400	0.185300
N641	N64	0.901420	0.027900	0.144600
N651	N65	0.868620	0.009300	0.935900
N661	N66	0.854700	0.797050	0.175000
N671	N67	0.872630	0.109870	0.895600
N681	N68	0.832040	0.070100	0.073000
N691	N69	0.691550	0.176070	0.784800
N701	N70	0.940180	0.059660	0.968600
N711	N71	0.900540	0.128690	0.095200
N721	N72	0.084140	0.189280	0.190500
