data_cg0702636-file001_clean_PM
_symmetry_space_group_name_H-M	'P1'
_cell_length_a	9.190700
_cell_length_b	9.190700
_cell_length_c	12.759000
_cell_angle_alpha	90.000000
_cell_angle_beta	90.000000
_cell_angle_gamma	120.000000
_symmetry_Int_Tables_number 1

loop_
_symmetry_equiv_pos_as_xyz
'x,y,z'

loop_
_atom_site_label
_atom_site_type_symbol
_atom_site_fract_x
_atom_site_fract_y
_atom_site_fract_z
Cd11	Cd1	0.637350	0.000000	0.000000
Cd21	Cd2	0.000000	0.637350	0.333330
Cd31	Cd3	0.362650	0.362650	0.666670
H11	H1	0.963800	0.794300	0.549470
H21	H2	0.830500	0.036200	0.216130
H31	H3	0.794300	0.963800	0.783870
H41	H4	0.169500	0.205700	0.450530
H51	H5	0.036200	0.830500	0.117200
H61	H6	0.205700	0.169500	0.882800
C11	C1	0.071200	0.071200	0.666670
C21	C2	0.880000	0.779700	0.596320
C31	C3	0.680300	0.483500	0.522950
C41	C4	0.483500	0.680300	0.810390
C51	C5	0.631000	0.725900	0.735810
C61	C6	0.094900	0.369000	0.402470
C71	C7	0.905800	0.905800	0.666670
C81	C8	0.120000	0.899700	0.070350
C91	C9	0.220300	0.100300	0.929650
C101	C10	0.516500	0.196800	0.856280
C111	C11	0.725900	0.631000	0.597530
C121	C12	0.000000	0.928800	0.333330
C131	C13	0.928800	0.000000	0.000000
C141	C14	0.779700	0.880000	0.737020
C151	C15	0.803200	0.319700	0.189610
C161	C16	0.899700	0.120000	0.262980
C171	C17	0.905100	0.274100	0.264190
C181	C18	0.274100	0.905100	0.069140
C191	C19	0.369000	0.094900	0.930860
C201	C20	0.000000	0.094200	0.333330
C211	C21	0.094200	0.000000	0.000000
C221	C22	0.100300	0.220300	0.403680
C231	C23	0.196800	0.516500	0.477050
C241	C24	0.319700	0.803200	0.143720
N11	N1	0.607600	0.607600	0.666670
N21	N2	0.000000	0.392400	0.333330
N31	N3	0.392400	0.000000	0.000000
O11	O1	0.356100	0.539900	0.798140
O21	O2	0.643900	0.183800	0.868530
O31	O3	0.924390	0.118590	0.956570
O41	O4	0.881410	0.805800	0.289900
O51	O5	0.539900	0.356100	0.535200
O61	O6	0.194200	0.075610	0.623240
O71	O7	0.499200	0.785600	0.875720
O81	O8	0.075610	0.194200	0.710100
O91	O9	0.286400	0.500800	0.542380
O101	O10	0.785600	0.499200	0.457620
O111	O11	0.118590	0.924390	0.376760
O121	O12	0.805800	0.881410	0.043430
O131	O13	0.500800	0.286400	0.790950
O141	O14	0.816200	0.460100	0.201860
O151	O15	0.183800	0.643900	0.464800
O161	O16	0.214400	0.713600	0.209050
O171	O17	0.713600	0.214400	0.124280
O181	O18	0.460100	0.816200	0.131470
