data_cg200606r_si_001_clean_PM
_symmetry_space_group_name_H-M	'P1'
_cell_length_a	8.133100
_cell_length_b	14.655600
_cell_length_c	16.825700
_cell_angle_alpha	90.000000
_cell_angle_beta	90.000000
_cell_angle_gamma	90.000000
_symmetry_Int_Tables_number 1

loop_
_symmetry_equiv_pos_as_xyz
'x,y,z'

loop_
_atom_site_label
_atom_site_type_symbol
_atom_site_fract_x
_atom_site_fract_y
_atom_site_fract_z
Zn11	Zn1	0.560250	0.472490	0.954750
S11	S1	0.168980	0.135990	0.210190
O11	O1	0.467900	0.382460	0.030730
O21	O2	0.427100	0.516860	0.083730
O31	O3	0.024800	0.427800	0.390490
O41	O4	0.226700	0.526060	0.368630
O51	O5	0.136700	0.121590	0.125850
O61	O6	0.313500	0.089230	0.236530
O71	O7	0.025400	0.120880	0.259220
N11	N1	0.781900	0.509840	0.995600
N21	N2	0.972300	0.555600	0.077600
H11	H1	0.020500	0.577800	0.118700
C11	C1	0.333300	0.387430	0.155140
C21	C2	0.289100	0.437330	0.221990
H21	H2	0.317600	0.498700	0.225100
C31	C3	0.204100	0.397730	0.283540
C41	C4	0.163400	0.305490	0.279560
H31	H3	0.104000	0.278200	0.320400
C51	C5	0.212400	0.254490	0.213950
C61	C6	0.295400	0.294750	0.152370
H41	H4	0.326600	0.260100	0.108600
C71	C7	0.414300	0.432700	0.086110
C81	C8	0.152000	0.456010	0.353000
C91	C9	0.812800	0.548200	0.066200
H51	H5	0.732800	0.567000	0.102200
C101	C10	0.931100	0.494400	0.962700
H61	H6	0.946700	0.468500	0.912800
C111	C11	0.049000	0.520000	0.008900
H71	H7	0.161300	0.515800	0.999000
Zn21	Zn2	0.939750	0.527510	0.454750
S21	S2	0.331020	0.864010	0.710190
O81	O8	0.032100	0.617540	0.530730
O91	O9	0.072900	0.483140	0.583730
O101	O10	0.475200	0.572200	0.890490
O111	O11	0.273300	0.473940	0.868630
O121	O12	0.363300	0.878410	0.625850
O131	O13	0.186500	0.910770	0.736530
O141	O14	0.474600	0.879120	0.759220
N31	N3	0.718100	0.490160	0.495600
N41	N4	0.527700	0.444400	0.577600
H81	H8	0.479500	0.422200	0.618700
C121	C12	0.166700	0.612570	0.655140
C131	C13	0.210900	0.562670	0.721990
H91	H9	0.182400	0.501300	0.725100
C141	C14	0.295900	0.602270	0.783540
C151	C15	0.336600	0.694510	0.779560
H101	H10	0.396000	0.721800	0.820400
C161	C16	0.287600	0.745510	0.713950
C171	C17	0.204600	0.705250	0.652370
H111	H11	0.173400	0.739900	0.608600
C181	C18	0.085700	0.567300	0.586110
C191	C19	0.348000	0.543990	0.853000
C201	C20	0.687200	0.451800	0.566200
H121	H12	0.767200	0.433000	0.602200
C211	C21	0.568900	0.505600	0.462700
H131	H13	0.553300	0.531500	0.412800
C221	C22	0.451000	0.480000	0.508900
H141	H14	0.338700	0.484200	0.499000
Zn31	Zn3	0.439750	0.972490	0.545250
S31	S3	0.831020	0.635990	0.289810
O151	O15	0.532100	0.882460	0.469270
O161	O16	0.572900	0.016860	0.416270
O171	O17	0.975200	0.927800	0.109510
O181	O18	0.773300	0.026060	0.131370
O191	O19	0.863300	0.621590	0.374150
O201	O20	0.686500	0.589230	0.263470
O211	O21	0.974600	0.620880	0.240780
N51	N5	0.218100	0.009840	0.504400
N61	N6	0.027700	0.055600	0.422400
H151	H15	0.979500	0.077800	0.381300
C231	C23	0.666700	0.887430	0.344860
C241	C24	0.710900	0.937330	0.278010
H161	H16	0.682400	0.998700	0.274900
C251	C25	0.795900	0.897730	0.216460
C261	C26	0.836600	0.805490	0.220440
H171	H17	0.896000	0.778200	0.179600
C271	C27	0.787600	0.754490	0.286050
C281	C28	0.704600	0.794750	0.347630
H181	H18	0.673400	0.760100	0.391400
C291	C29	0.585700	0.932700	0.413890
C301	C30	0.848000	0.956010	0.147000
C311	C31	0.187200	0.048200	0.433800
H191	H19	0.267200	0.067000	0.397800
C321	C32	0.068900	0.994400	0.537300
H201	H20	0.053300	0.968500	0.587200
C331	C33	0.951000	0.020000	0.491100
H211	H21	0.838700	0.015800	0.501000
Zn41	Zn4	0.060250	0.027510	0.045250
S41	S4	0.668980	0.364010	0.789810
O221	O22	0.967900	0.117540	0.969270
O231	O23	0.927100	0.983140	0.916270
O241	O24	0.524800	0.072200	0.609510
O251	O25	0.726700	0.973940	0.631370
O261	O26	0.636700	0.378410	0.874150
O271	O27	0.813500	0.410770	0.763470
O281	O28	0.525400	0.379120	0.740780
N71	N7	0.281900	0.990160	0.004400
N81	N8	0.472300	0.944400	0.922400
H221	H22	0.520500	0.922200	0.881300
C341	C34	0.833300	0.112570	0.844860
C351	C35	0.789100	0.062670	0.778010
H231	H23	0.817600	0.001300	0.774900
C361	C36	0.704100	0.102270	0.716460
C371	C37	0.663400	0.194510	0.720440
H241	H24	0.604000	0.221800	0.679600
C381	C38	0.712400	0.245510	0.786050
C391	C39	0.795400	0.205250	0.847630
H251	H25	0.826600	0.239900	0.891400
C401	C40	0.914300	0.067300	0.913890
C411	C41	0.652000	0.043990	0.647000
C421	C42	0.312800	0.951800	0.933800
H261	H26	0.232800	0.933000	0.897800
C431	C43	0.431100	0.005600	0.037300
H271	H27	0.446700	0.031500	0.087200
C441	C44	0.549000	0.980000	0.991100
H281	H28	0.661300	0.984200	0.001000
