data_cg301725z_si_003_clean_PM
_symmetry_space_group_name_H-M	'P1'
_cell_length_a	12.699100
_cell_length_b	15.571100
_cell_length_c	16.331300
_cell_angle_alpha	90.000000
_cell_angle_beta	90.000000
_cell_angle_gamma	90.000000
_symmetry_Int_Tables_number 1

loop_
_symmetry_equiv_pos_as_xyz
'x,y,z'

loop_
_atom_site_label
_atom_site_type_symbol
_atom_site_fract_x
_atom_site_fract_y
_atom_site_fract_z
Mn11	Mn1	0.600450	0.495290	0.088790
Mn21	Mn2	0.600450	0.004710	0.588790
Mn31	Mn3	0.899550	0.995290	0.088790
Mn41	Mn4	0.100450	0.004710	0.911210
Mn51	Mn5	0.399550	0.504710	0.911210
Mn61	Mn6	0.100450	0.495290	0.411210
Mn71	Mn7	0.899550	0.504710	0.588790
Mn81	Mn8	0.399550	0.995290	0.411210
H11	H1	0.777600	0.967800	0.366900
H21	H2	0.668600	0.256500	0.525000
H31	H3	0.331400	0.756500	0.975000
H41	H4	0.277600	0.532200	0.633100
H51	H5	0.448500	0.757800	0.201500
H61	H6	0.222400	0.467800	0.133100
H71	H7	0.722400	0.032200	0.866900
H81	H8	0.448500	0.742200	0.701500
H91	H9	0.777600	0.532200	0.866900
H101	H10	0.222400	0.032200	0.633100
H111	H11	0.168600	0.256500	0.975000
H121	H12	0.051500	0.242200	0.701500
H131	H13	0.051500	0.257800	0.201500
H141	H14	0.168600	0.243500	0.475000
H151	H15	0.668600	0.243500	0.025000
H161	H16	0.331400	0.743500	0.475000
H171	H17	0.948500	0.742200	0.798500
H181	H18	0.277600	0.967800	0.133100
H191	H19	0.722400	0.467800	0.366900
H201	H20	0.551500	0.257800	0.298500
H211	H21	0.948500	0.757800	0.298500
H221	H22	0.831400	0.743500	0.025000
H231	H23	0.831400	0.756500	0.525000
H241	H24	0.551500	0.242200	0.798500
C11	C1	0.693400	0.086200	0.875900
C21	C2	0.956000	0.648900	0.438700
C31	C3	0.726600	0.584300	0.012700
C41	C4	0.773400	0.415700	0.512700
C51	C5	0.204000	0.133800	0.547600
C61	C6	0.128600	0.419800	0.269000
C71	C7	0.871400	0.580200	0.731000
C81	C8	0.863600	0.629600	0.819500
C91	C9	0.095200	0.229800	0.082200
C101	C10	0.410000	0.717100	0.659400
C111	C11	0.704000	0.366200	0.452400
C121	C12	0.544000	0.148900	0.438700
C131	C13	0.843500	0.778800	0.473000
C141	C14	0.136400	0.129600	0.680500
C151	C15	0.128600	0.080200	0.769000
C161	C16	0.456000	0.648900	0.061300
C171	C17	0.544000	0.351100	0.938700
C181	C18	0.044000	0.351100	0.561300
C191	C19	0.863600	0.870400	0.319500
C201	C20	0.156500	0.221200	0.527000
C211	C21	0.704000	0.133800	0.952400
C221	C22	0.306600	0.913800	0.124100
C231	C23	0.404800	0.729800	0.082200
C241	C24	0.156500	0.278800	0.027000
C251	C25	0.371400	0.919800	0.269000
C261	C26	0.343500	0.778800	0.027000
C271	C27	0.595200	0.270200	0.917800
C281	C28	0.204000	0.366200	0.047600
C291	C29	0.590000	0.217100	0.840600
C301	C30	0.693400	0.413800	0.375900
C311	C31	0.226600	0.915700	0.987300
C321	C32	0.363600	0.870400	0.180500
C331	C33	0.871400	0.919800	0.231000
C341	C34	0.773400	0.084300	0.012700
C351	C35	0.636400	0.129600	0.819500
C361	C36	0.193400	0.413800	0.124100
C371	C37	0.910000	0.782900	0.340600
C381	C38	0.371400	0.580200	0.769000
C391	C39	0.343500	0.721200	0.527000
C401	C40	0.193400	0.086200	0.624100
C411	C41	0.296000	0.633800	0.547600
C421	C42	0.910000	0.717100	0.840600
C431	C43	0.843500	0.721200	0.973000
C441	C44	0.796000	0.866200	0.452400
C451	C45	0.095200	0.270200	0.582200
C461	C46	0.656500	0.221200	0.973000
C471	C47	0.404800	0.770200	0.582200
C481	C48	0.363600	0.629600	0.680500
C491	C49	0.136400	0.370400	0.180500
C501	C50	0.296000	0.866200	0.047600
C511	C51	0.806600	0.586200	0.875900
C521	C52	0.456000	0.851100	0.561300
C531	C53	0.595200	0.229800	0.417800
C541	C54	0.410000	0.782900	0.159400
C551	C55	0.636400	0.370400	0.319500
C561	C56	0.956000	0.851100	0.938700
C571	C57	0.796000	0.633800	0.952400
C581	C58	0.806600	0.913800	0.375900
C591	C59	0.090000	0.282900	0.159400
C601	C60	0.226600	0.584300	0.487300
C611	C61	0.628600	0.419800	0.231000
C621	C62	0.656500	0.278800	0.473000
C631	C63	0.044000	0.148900	0.061300
C641	C64	0.628600	0.080200	0.731000
C651	C65	0.273400	0.084300	0.487300
C661	C66	0.726600	0.915700	0.512700
C671	C67	0.590000	0.282900	0.340600
C681	C68	0.904800	0.729800	0.417800
C691	C69	0.904800	0.770200	0.917800
C701	C70	0.090000	0.217100	0.659400
C711	C71	0.306600	0.586200	0.624100
C721	C72	0.273400	0.415700	0.987300
O11	O1	0.201900	0.998500	0.001300
O21	O2	0.501500	0.400900	0.882700
O31	O3	0.086600	0.372800	0.317300
O41	O4	0.798100	0.498500	0.498700
O51	O5	0.298100	0.498500	0.001300
O61	O6	0.201900	0.501500	0.501300
O71	O7	0.413400	0.872800	0.317300
O81	O8	0.340100	0.494100	0.779000
O91	O9	0.913400	0.872800	0.182700
O101	O10	0.840100	0.494100	0.721000
O111	O11	0.299700	0.358400	0.934600
O121	O12	0.001500	0.099100	0.117300
O131	O13	0.659900	0.994100	0.721000
O141	O14	0.964300	0.882700	0.013400
O151	O15	0.659900	0.505900	0.221000
O161	O16	0.413400	0.627200	0.817300
O171	O17	0.200300	0.641600	0.434600
O181	O18	0.001500	0.400900	0.617300
O191	O19	0.501500	0.099100	0.382700
O201	O20	0.498500	0.900900	0.617300
O211	O21	0.913400	0.627200	0.682700
O221	O22	0.535700	0.382700	0.013400
O231	O23	0.159900	0.505900	0.279000
O241	O24	0.998500	0.599100	0.382700
O251	O25	0.701900	0.998500	0.498700
O261	O26	0.586600	0.127200	0.682700
O271	O27	0.840100	0.005900	0.221000
O281	O28	0.464300	0.617300	0.986600
O291	O29	0.086600	0.127200	0.817300
O301	O30	0.200300	0.858400	0.934600
O311	O31	0.700300	0.858400	0.565400
O321	O32	0.964300	0.617300	0.513400
O331	O33	0.340100	0.005900	0.279000
O341	O34	0.586600	0.372800	0.182700
O351	O35	0.998500	0.900900	0.882700
O361	O36	0.299700	0.141600	0.434600
O371	O37	0.035700	0.117300	0.986600
O381	O38	0.298100	0.001500	0.501300
O391	O39	0.799700	0.358400	0.565400
O401	O40	0.159900	0.994100	0.779000
O411	O41	0.700300	0.641600	0.065400
O421	O42	0.535700	0.117300	0.513400
O431	O43	0.798100	0.001500	0.998700
O441	O44	0.701900	0.501500	0.998700
O451	O45	0.035700	0.382700	0.486600
O461	O46	0.498500	0.599100	0.117300
O471	O47	0.799700	0.141600	0.065400
O481	O48	0.464300	0.882700	0.486600
