data_cg500121f_si_004_clean_PM
_symmetry_space_group_name_H-M	'P1'
_cell_length_a	9.555000
_cell_length_b	15.664400
_cell_length_c	10.024900
_cell_angle_alpha	100.696000
_cell_angle_beta	90.000000
_cell_angle_gamma	90.000000
_symmetry_Int_Tables_number 1

loop_
_symmetry_equiv_pos_as_xyz
'x,y,z'

loop_
_atom_site_label
_atom_site_type_symbol
_atom_site_fract_x
_atom_site_fract_y
_atom_site_fract_z
Co11	Co1	0.581170	0.085510	0.642980
Co21	Co2	0.918830	0.085510	0.142980
Co31	Co3	0.081170	0.914490	0.857020
Co41	Co4	0.418830	0.914490	0.357020
H11	H1	0.126100	0.419200	0.617600
H21	H2	0.873900	0.580800	0.382400
H31	H3	0.233100	0.077500	0.442000
H41	H4	0.698000	0.124100	0.943900
H51	H5	0.278400	0.641700	0.370200
H61	H6	0.386600	0.121400	0.887700
H71	H7	0.778400	0.358300	0.129800
H81	H8	0.198000	0.875900	0.556100
H91	H9	0.613400	0.878600	0.112300
H101	H10	0.221600	0.641700	0.870200
H111	H11	0.520500	0.644800	0.046500
H121	H12	0.113400	0.121400	0.387700
H131	H13	0.479500	0.355200	0.953500
H141	H14	0.979500	0.644800	0.546500
H151	H15	0.373900	0.419200	0.117600
H161	H16	0.733100	0.922500	0.058000
H171	H17	0.266900	0.077500	0.942000
H181	H18	0.302000	0.875900	0.056100
H191	H19	0.721600	0.358300	0.629800
H201	H20	0.246800	0.492300	0.804700
H211	H21	0.753200	0.507700	0.195300
H221	H22	0.746800	0.507700	0.695300
H231	H23	0.766900	0.922500	0.558000
H241	H24	0.802000	0.124100	0.443900
H251	H25	0.886600	0.878600	0.612300
H261	H26	0.253200	0.492300	0.304700
H271	H27	0.020500	0.355200	0.453500
H281	H28	0.626100	0.580800	0.882400
C11	C1	0.039400	0.523800	0.558900
C21	C2	0.586400	0.246100	0.749200
C31	C3	0.186900	0.026000	0.257800
C41	C4	0.086400	0.753900	0.750800
C51	C5	0.619700	0.520600	0.860000
C61	C6	0.177800	0.612500	0.792100
C71	C7	0.813100	0.974000	0.742200
C81	C8	0.531900	0.386800	0.901400
C91	C9	0.413600	0.753900	0.250800
C101	C10	0.031900	0.613200	0.598600
C111	C11	0.468100	0.613200	0.098600
C121	C12	0.968100	0.386800	0.401400
C131	C13	0.119700	0.479400	0.640000
C141	C14	0.380300	0.479400	0.140000
C151	C15	0.809200	0.476900	0.245800
C161	C16	0.247000	0.923400	0.603200
C171	C17	0.322200	0.612500	0.292100
C181	C18	0.686900	0.974000	0.242200
C191	C19	0.677800	0.387500	0.707900
C201	C20	0.880300	0.520600	0.360000
C211	C21	0.822200	0.387500	0.207900
C221	C22	0.960600	0.476200	0.441100
C231	C23	0.099500	0.657300	0.713200
C241	C24	0.400500	0.657300	0.213200
C251	C25	0.460600	0.523800	0.058900
C261	C26	0.753000	0.076600	0.396800
C271	C27	0.309200	0.523100	0.254200
C281	C28	0.747000	0.076600	0.896800
C291	C29	0.539400	0.476200	0.941100
C301	C30	0.313100	0.026000	0.757800
C311	C31	0.913600	0.246100	0.249200
C321	C32	0.190800	0.523100	0.754200
C331	C33	0.599500	0.342700	0.786800
C341	C34	0.253000	0.923400	0.103200
C351	C35	0.690800	0.476900	0.745800
C361	C36	0.900500	0.342700	0.286800
N11	N1	0.103900	0.027600	0.151400
N21	N2	0.350300	0.959600	0.550500
N31	N3	0.282900	0.961000	0.232900
N41	N4	0.603900	0.972400	0.348600
N51	N5	0.717100	0.039000	0.767100
N61	N6	0.176600	0.081700	0.376800
N71	N7	0.782900	0.039000	0.267100
N81	N8	0.850300	0.040400	0.949500
N91	N9	0.396100	0.027600	0.651400
N101	N10	0.823400	0.918300	0.623200
N111	N11	0.896100	0.972400	0.848600
N121	N12	0.323400	0.081700	0.876800
N131	N13	0.217100	0.961000	0.732900
N141	N14	0.676600	0.918300	0.123200
N151	N15	0.649700	0.040400	0.449500
N161	N16	0.149700	0.959600	0.050500
O11	O1	0.029100	0.795650	0.672300
O21	O2	0.364800	0.792100	0.364600
O31	O3	0.970900	0.204350	0.327700
O41	O4	0.635200	0.207900	0.635400
O51	O5	0.135200	0.792100	0.864600
O61	O6	0.864800	0.207900	0.135400
O71	O7	0.470900	0.795650	0.172300
O81	O8	0.529100	0.204350	0.827700
