data_cg500192d_si_003_clean_PM
_symmetry_space_group_name_H-M	'P1'
_cell_length_a	14.050000
_cell_length_b	20.156000
_cell_length_c	20.378000
_cell_angle_alpha	90.000000
_cell_angle_beta	101.717000
_cell_angle_gamma	90.000000
_symmetry_Int_Tables_number 1

loop_
_symmetry_equiv_pos_as_xyz
'x,y,z'

loop_
_atom_site_label
_atom_site_type_symbol
_atom_site_fract_x
_atom_site_fract_y
_atom_site_fract_z
Cd11	Cd1	0.102940	0.040190	0.034150
Cd21	Cd2	0.102940	0.459810	0.534150
Cd31	Cd3	0.897060	0.540190	0.465850
Cd41	Cd4	0.897060	0.959810	0.965850
H11	H1	0.050600	0.208500	0.878700
H21	H2	0.755300	0.431800	0.578600
H31	H3	0.543200	0.995800	0.951900
H41	H4	0.803100	0.390700	0.310200
H51	H5	0.000600	0.291100	0.799300
H61	H6	0.450600	0.797500	0.855900
H71	H7	0.456800	0.495800	0.548100
H81	H8	0.999400	0.708900	0.200700
H91	H9	0.456800	0.004200	0.048100
H101	H10	0.755300	0.068200	0.078600
H111	H11	0.450600	0.702500	0.355900
H121	H12	0.050600	0.291500	0.378700
H131	H13	0.385600	0.176400	0.114400
H141	H14	0.549400	0.202500	0.144100
H151	H15	0.247300	0.690500	0.765300
H161	H16	0.029900	0.824600	0.812700
H171	H17	0.949400	0.708500	0.621300
H181	H18	0.803100	0.109300	0.810200
H191	H19	0.543200	0.504200	0.451900
H201	H20	0.384800	0.529200	0.418100
H211	H21	0.614400	0.823600	0.885600
H221	H22	0.695600	0.202200	0.208400
H231	H23	0.970100	0.324600	0.687300
H241	H24	0.614400	0.676400	0.385600
H251	H25	0.549400	0.297500	0.644100
H261	H26	0.244700	0.568200	0.421400
H271	H27	0.970100	0.175400	0.187300
H281	H28	0.615200	0.470800	0.581900
H291	H29	0.196900	0.609300	0.689800
H301	H30	0.949400	0.791500	0.121300
H311	H31	0.244700	0.931800	0.921400
H321	H32	0.000600	0.208900	0.299300
H331	H33	0.752700	0.190500	0.734700
H341	H34	0.752700	0.309500	0.234700
H351	H35	0.196900	0.890700	0.189800
H361	H36	0.615200	0.029200	0.081900
H371	H37	0.695600	0.297800	0.708400
H381	H38	0.304400	0.702200	0.291600
H391	H39	0.029900	0.675400	0.312700
H401	H40	0.385600	0.323600	0.614400
H411	H41	0.247300	0.809500	0.265300
H421	H42	0.384800	0.970800	0.918100
H431	H43	0.999400	0.791100	0.700700
H441	H44	0.304400	0.797800	0.791600
C11	C1	0.432300	0.145000	0.109700
C21	C2	0.468800	0.660300	0.372200
C31	C3	0.837500	0.198800	0.206100
C41	C4	0.701800	0.934900	0.935900
C51	C5	0.039300	0.754700	0.698500
C61	C6	0.569900	0.440400	0.591200
C71	C7	0.813300	0.305800	0.263100
C81	C8	0.224600	0.898600	0.889900
C91	C9	0.870900	0.249900	0.757300
C101	C10	0.526900	0.956400	0.928500
C111	C11	0.009100	0.795100	0.150800
C121	C12	0.095700	0.665400	0.324800
C131	C13	0.531200	0.339700	0.627800
C141	C14	0.596100	0.919300	0.916100
C151	C15	0.259800	0.681100	0.312500
C161	C16	0.603300	0.385200	0.622300
C171	C17	0.095700	0.834600	0.824800
C181	C18	0.933200	0.151200	0.852400
C191	C19	0.990900	0.204900	0.849200
C201	C20	0.596100	0.580700	0.416100
C211	C21	0.066800	0.651200	0.647600
C221	C22	0.298200	0.065100	0.064100
C231	C23	0.943100	0.416200	0.590400
C241	C24	0.396700	0.614800	0.377700
C251	C25	0.129100	0.749900	0.742700
C261	C26	0.186700	0.805800	0.236900
C271	C27	0.904300	0.165400	0.175200
C281	C28	0.473100	0.043600	0.071500
C291	C29	0.569900	0.059600	0.091200
C301	C30	0.186700	0.694200	0.736900
C311	C31	0.127300	0.617600	0.373400
C321	C32	0.293600	0.633300	0.360900
C331	C33	0.706400	0.366700	0.639100
C341	C34	0.603300	0.114800	0.122300
C351	C35	0.567700	0.855000	0.890300
C361	C36	0.403900	0.419300	0.583900
C371	C37	0.298200	0.434900	0.564100
C381	C38	0.531200	0.160300	0.127800
C391	C39	0.963300	0.403600	0.405000
C401	C40	0.963300	0.096400	0.905000
C411	C41	0.396700	0.885200	0.877700
C421	C42	0.056900	0.583800	0.409600
C431	C43	0.430100	0.940400	0.908800
C441	C44	0.036700	0.903600	0.095000
C451	C45	0.990900	0.295100	0.349200
C461	C46	0.162500	0.698800	0.293900
C471	C47	0.066800	0.848800	0.147600
C481	C48	0.473100	0.456400	0.571500
C491	C49	0.870900	0.250100	0.257300
C501	C50	0.567700	0.645000	0.390300
C511	C51	0.842600	0.354000	0.308200
C521	C52	0.526900	0.543600	0.428500
C531	C53	0.872700	0.382400	0.626600
C541	C54	0.259800	0.818900	0.812500
C551	C55	0.157400	0.854000	0.191800
C561	C56	0.403900	0.080700	0.083900
C571	C57	0.813300	0.194200	0.763100
C581	C58	0.157400	0.646000	0.691800
C591	C59	0.872700	0.117600	0.126600
C601	C60	0.056900	0.916200	0.909600
C611	C61	0.432300	0.355000	0.609700
C621	C62	0.224600	0.601400	0.389900
C631	C63	0.430100	0.559600	0.408800
C641	C64	0.740200	0.318900	0.687500
C651	C65	0.701800	0.565100	0.435900
C661	C66	0.036700	0.596400	0.595000
C671	C67	0.468800	0.839700	0.872200
C681	C68	0.039300	0.745300	0.198500
C691	C69	0.129100	0.750100	0.242700
C701	C70	0.960700	0.254700	0.801500
C711	C71	0.775400	0.398600	0.610100
C721	C72	0.837500	0.301200	0.706100
C731	C73	0.009100	0.704900	0.650800
C741	C74	0.127300	0.882400	0.873400
C751	C75	0.943100	0.083800	0.090400
C761	C76	0.740200	0.181100	0.187500
C771	C77	0.775400	0.101400	0.110100
C781	C78	0.293600	0.866700	0.860900
C791	C79	0.162500	0.801200	0.793900
C801	C80	0.904300	0.334600	0.675200
C811	C81	0.960700	0.245300	0.301500
C821	C82	0.842600	0.146000	0.808200
C831	C83	0.933200	0.348800	0.352400
C841	C84	0.706400	0.133300	0.139100
O11	O1	0.728000	0.519500	0.469200
O21	O2	0.093400	0.549700	0.597500
O31	O3	0.728000	0.980500	0.969200
O41	O4	0.042700	0.394500	0.446000
O51	O5	0.970000	0.897100	0.897400
O61	O6	0.238400	0.102900	0.079700
O71	O7	0.911000	0.039600	0.049000
O81	O8	0.761600	0.602900	0.420300
O91	O9	0.030000	0.397100	0.602600
O101	O10	0.238400	0.397100	0.579700
O111	O11	0.906600	0.450300	0.402500
O121	O12	0.272000	0.019500	0.030800
O131	O13	0.030000	0.102900	0.102600
O141	O14	0.089000	0.539600	0.451000
O151	O15	0.093400	0.950300	0.097500
O161	O16	0.272000	0.480500	0.530800
O171	O17	0.089000	0.960400	0.951000
O181	O18	0.761600	0.897100	0.920300
O191	O19	0.906600	0.049700	0.902500
O201	O20	0.970000	0.602900	0.397400
O211	O21	0.042700	0.105500	0.946000
O221	O22	0.957300	0.605500	0.554000
O231	O23	0.957300	0.894500	0.054000
O241	O24	0.911000	0.460400	0.549000
