data_cg500033b_si_002_clean_PM
_symmetry_space_group_name_H-M	'P1'
_cell_length_a	12.546000
_cell_length_b	15.734000
_cell_length_c	26.633000
_cell_angle_alpha	90.000000
_cell_angle_beta	90.000000
_cell_angle_gamma	97.869000
_symmetry_Int_Tables_number 1

loop_
_symmetry_equiv_pos_as_xyz
'x,y,z'

loop_
_atom_site_label
_atom_site_type_symbol
_atom_site_fract_x
_atom_site_fract_y
_atom_site_fract_z
Zn11	Zn1	0.308440	0.817440	0.748020
Zn21	Zn2	0.852170	0.877690	0.256060
Zn31	Zn3	0.147830	0.622310	0.756060
Zn41	Zn4	0.691560	0.682560	0.248020
H11	H1	0.117500	0.277600	0.286200
H21	H2	0.923100	0.547600	0.733300
H31	H3	0.192700	0.872800	0.595700
H41	H4	0.191100	0.077700	0.237900
H51	H5	0.499800	0.997100	0.422500
H61	H6	0.043600	0.323800	0.812700
H71	H7	0.578100	0.214200	0.788100
H81	H8	0.647900	0.742000	0.895000
H91	H9	0.479500	0.741700	0.336000
H101	H10	0.145000	0.454200	0.806900
H111	H11	0.197000	0.909100	0.511900
H121	H12	0.631700	0.974700	0.365400
H131	H13	0.855000	0.045800	0.306900
H141	H14	0.946700	0.700900	0.854600
H151	H15	0.105300	0.936900	0.852300
H161	H16	0.002100	0.824100	0.088200
H171	H17	0.894700	0.563100	0.352300
H181	H18	0.701800	0.918100	0.019500
H191	H19	0.352100	0.758000	0.395000
H201	H20	0.808900	0.422300	0.737900
H211	H21	0.500200	0.502900	0.922500
H221	H22	0.541600	0.890200	0.733100
H231	H23	0.716800	0.907700	0.104600
H241	H24	0.309700	0.983900	0.802200
H251	H25	0.479000	0.826100	0.496600
H261	H26	0.017000	0.668300	0.502100
H271	H27	0.690300	0.516100	0.302200
H281	H28	0.076900	0.952400	0.233300
H291	H29	0.480500	0.795000	0.582000
H301	H30	0.803000	0.590900	0.011900
H311	H31	0.421900	0.285800	0.288100
H321	H32	0.519500	0.705000	0.082000
H331	H33	0.413100	0.115900	0.808900
H341	H34	0.163500	0.758800	0.416500
H351	H35	0.836500	0.741200	0.916500
H361	H36	0.987200	0.977300	0.911500
H371	H37	0.983000	0.831700	0.002100
H381	H38	0.368300	0.525300	0.865400
H391	H39	0.521000	0.673900	0.996600
H401	H40	0.648400	0.017500	0.738300
H411	H41	0.298200	0.581900	0.519500
H421	H42	0.458400	0.609800	0.233100
H431	H43	0.053300	0.799100	0.354600
H441	H44	0.586900	0.384100	0.308900
H451	H45	0.956400	0.176200	0.312700
H461	H46	0.807300	0.627200	0.095700
H471	H47	0.012800	0.522700	0.411500
H481	H48	0.351600	0.482500	0.238300
H491	H49	0.997900	0.675900	0.588200
H501	H50	0.520500	0.758300	0.836000
H511	H51	0.283200	0.592300	0.604600
H521	H52	0.882500	0.222400	0.786200
C11	C1	0.407500	0.802200	0.388400
C21	C2	0.950500	0.603000	0.364100
C31	C3	0.036500	0.813900	0.845890
C41	C4	0.592500	0.697800	0.888400
C51	C5	0.843500	0.877700	0.003360
C61	C6	0.516100	0.707200	0.853900
C71	C7	0.148200	0.230100	0.275700
C81	C8	0.085500	0.144200	0.274900
C91	C9	0.378500	0.991500	0.788360
C101	C10	0.392500	0.333000	0.276100
C111	C11	0.077000	0.446600	0.792320
C121	C12	0.650500	0.840900	0.306700
C131	C13	0.422200	0.817500	0.568220
C141	C14	0.414000	0.880500	0.414100
C151	C15	0.228500	0.607200	0.584160
C161	C16	0.440500	0.070900	0.793000
C171	C17	0.496300	0.945200	0.405500
C181	C18	0.059100	0.657400	0.574710
C191	C19	0.946600	0.501200	0.749560
C201	C20	0.514800	0.936500	0.747790
C211	C21	0.662100	0.668600	0.098470
C221	C22	0.577900	0.663500	0.017100
C231	C23	0.110700	0.786900	0.807480
C241	C24	0.889300	0.713100	0.307480
C251	C25	0.138700	0.635700	0.606460
C261	C26	0.542600	0.082300	0.773850
C271	C27	0.771500	0.892800	0.084160
C281	C28	0.578900	0.012100	0.751240
C291	C29	0.930300	0.848200	0.023110
C301	C30	0.349500	0.659100	0.806700
C311	C31	0.748000	0.635500	0.076300
C321	C32	0.607500	0.167000	0.776100
C331	C33	0.979500	0.921000	0.900000
C341	C34	0.125300	0.637800	0.660410
C351	C35	0.956500	0.757300	0.865900
C361	C36	0.237700	0.600700	0.533620
C371	C37	0.043500	0.742700	0.365900
C381	C38	0.940900	0.842600	0.074710
C391	C39	0.337900	0.831400	0.598470
C401	C40	0.049500	0.897000	0.864100
C411	C41	0.020500	0.579000	0.400000
C421	C42	0.586000	0.619500	0.914100
C431	C43	0.746400	0.614900	0.026230
C441	C44	0.122300	0.073500	0.251500
C451	C45	0.156500	0.622300	0.503360
C461	C46	0.983100	0.131600	0.296150
C471	C47	0.431300	0.643100	0.844480
C481	C48	0.963500	0.686100	0.345890
C491	C49	0.574200	0.931800	0.370900
C501	C50	0.422100	0.836500	0.517100
C511	C51	0.053400	0.998800	0.249560
C521	C52	0.483900	0.792800	0.353900
C531	C53	0.457400	0.417700	0.273850
C541	C54	0.877700	0.426500	0.751500
C551	C55	0.923000	0.053400	0.292320
C561	C56	0.559500	0.429100	0.293000
C571	C57	0.098900	0.636700	0.418000
C581	C58	0.861300	0.864300	0.106460
C591	C59	0.338100	0.870200	0.498020
C601	C60	0.661900	0.629800	0.998020
C611	C61	0.485200	0.563500	0.247790
C621	C62	0.914500	0.355800	0.774900
C631	C63	0.889500	0.781400	0.902500
C641	C64	0.252000	0.864500	0.576300
C651	C65	0.901100	0.863300	0.918000
C661	C66	0.110500	0.718600	0.402500
C671	C67	0.621500	0.508500	0.288360
C681	C68	0.851800	0.269900	0.775700
C691	C69	0.253600	0.885100	0.526230
C701	C70	0.421100	0.487900	0.251240
C711	C71	0.762300	0.899300	0.033620
C721	C72	0.659000	0.685300	0.153260
C731	C73	0.503700	0.554800	0.905500
C741	C74	0.069700	0.651800	0.523110
C751	C75	0.568700	0.856900	0.344480
C761	C76	0.577800	0.682500	0.068220
C771	C77	0.425800	0.568200	0.870900
C781	C78	0.341000	0.814700	0.653260
C791	C79	0.874700	0.862200	0.160410
C801	C80	0.016900	0.368400	0.796150
N11	N1	0.955200	0.987200	0.269060
N21	N2	0.294500	0.325000	0.261300
N31	N3	0.412800	0.925800	0.765040
N41	N4	0.587200	0.574200	0.265040
N51	N5	0.705500	0.175000	0.761300
N61	N6	0.044800	0.512800	0.769060
N71	N7	0.245600	0.237300	0.261600
N81	N8	0.754400	0.262700	0.761600
O11	O1	0.958100	0.843100	0.180110
O21	O2	0.914300	0.786600	0.289960
O31	O3	0.580500	0.710100	0.172820
O41	O4	0.419500	0.789900	0.672820
O51	O5	0.259100	0.830100	0.679410
O61	O6	0.733100	0.894700	0.302450
O71	O7	0.085700	0.713400	0.789960
O81	O8	0.809000	0.661400	0.294720
O91	O9	0.796800	0.881300	0.188250
O101	O10	0.266900	0.605300	0.802450
O111	O11	0.173700	0.611600	0.451910
O121	O12	0.826300	0.888400	0.951910
O131	O13	0.669100	0.605300	0.947300
O141	O14	0.368900	0.725600	0.781690
O151	O15	0.203200	0.618700	0.688250
O161	O16	0.631100	0.774400	0.281690
O171	O17	0.330900	0.894700	0.447300
O181	O18	0.740900	0.669900	0.179410
O191	O19	0.041900	0.656900	0.680110
O201	O20	0.191000	0.838600	0.794720
Zn51	Zn5	0.147830	0.122310	0.743940
Zn61	Zn6	0.308440	0.317440	0.751980
Zn71	Zn7	0.691560	0.182560	0.251980
Zn81	Zn8	0.852170	0.377690	0.243940
H531	H53	0.368300	0.025300	0.634600
H541	H54	0.882500	0.722400	0.713800
H551	H55	0.987200	0.477300	0.588500
H561	H56	0.500200	0.002900	0.577500
H571	H57	0.458400	0.109800	0.266900
H581	H58	0.807300	0.127200	0.404300
H591	H59	0.197000	0.409100	0.988100
H601	H60	0.012800	0.022700	0.088500
H611	H61	0.983000	0.331700	0.497900
H621	H62	0.578100	0.714200	0.711900
H631	H63	0.283200	0.092300	0.895400
H641	H64	0.105300	0.436900	0.647700
H651	H65	0.479000	0.326100	0.003400
H661	H66	0.520500	0.258300	0.664000
H671	H67	0.803000	0.090900	0.488100
H681	H68	0.499800	0.497100	0.077500
H691	H69	0.521000	0.173900	0.503400
H701	H70	0.519500	0.205000	0.418000
H711	H71	0.351600	0.982500	0.261700
H721	H72	0.836500	0.241200	0.583500
H731	H73	0.163500	0.258800	0.083500
H741	H74	0.421900	0.785800	0.211900
H751	H75	0.480500	0.295000	0.918000
H761	H76	0.192700	0.372800	0.904300
H771	H77	0.997900	0.175900	0.911800
H781	H78	0.586900	0.884100	0.191100
H791	H79	0.309700	0.483900	0.697800
H801	H80	0.647900	0.242000	0.605000
H811	H81	0.923100	0.047600	0.766700
H821	H82	0.076900	0.452400	0.266700
H831	H83	0.716800	0.407700	0.395400
H841	H84	0.701800	0.418100	0.480500
H851	H85	0.946700	0.200900	0.645400
H861	H86	0.117500	0.777600	0.213800
H871	H87	0.956400	0.676200	0.187300
H881	H88	0.002100	0.324100	0.411800
H891	H89	0.894700	0.063100	0.147700
H901	H90	0.053300	0.299100	0.145400
H911	H91	0.017000	0.168300	0.997900
H921	H92	0.043600	0.823800	0.687300
H931	H93	0.808900	0.922300	0.762100
H941	H94	0.855000	0.545800	0.193100
H951	H95	0.631700	0.474700	0.134600
H961	H96	0.690300	0.016100	0.197800
H971	H97	0.648400	0.517500	0.761700
H981	H98	0.413100	0.615900	0.691100
H991	H99	0.541600	0.390200	0.766900
H1001	H100	0.298200	0.081900	0.980500
H1011	H101	0.479500	0.241700	0.164000
H1021	H102	0.145000	0.954200	0.693100
H1031	H103	0.191100	0.577700	0.262100
H1041	H104	0.352100	0.258000	0.105000
C811	C81	0.110500	0.218600	0.097500
C821	C82	0.559500	0.929100	0.207000
C831	C83	0.069700	0.151800	0.976890
C841	C84	0.574200	0.431800	0.129100
C851	C85	0.228500	0.107200	0.915840
C861	C86	0.496300	0.445200	0.094500
C871	C87	0.746400	0.114900	0.473770
C881	C88	0.923000	0.553400	0.207680
C891	C89	0.771500	0.392800	0.415840
C901	C90	0.901100	0.363300	0.582000
C911	C91	0.979500	0.421000	0.600000
C921	C92	0.138700	0.135700	0.893540
C931	C93	0.110700	0.286900	0.692520
C941	C94	0.578900	0.512100	0.748760
C951	C95	0.156500	0.122300	0.996640
C961	C96	0.020500	0.079000	0.100000
C971	C97	0.125300	0.137800	0.839590
C981	C98	0.762300	0.399300	0.466380
C991	C99	0.621500	0.008500	0.211640
C1001	C100	0.843500	0.377700	0.496640
C1011	C101	0.237700	0.100700	0.966380
C1021	C102	0.077000	0.946600	0.707680
C1031	C103	0.607500	0.667000	0.723900
C1041	C104	0.349500	0.159100	0.693300
C1051	C105	0.983100	0.631600	0.203850
C1061	C106	0.431300	0.143100	0.655520
C1071	C107	0.253600	0.385100	0.973770
C1081	C108	0.877700	0.926500	0.748500
C1091	C109	0.516100	0.207200	0.646100
C1101	C110	0.662100	0.168600	0.401530
C1111	C111	0.059100	0.157400	0.925290
C1121	C112	0.485200	0.063500	0.252210
C1131	C113	0.043500	0.242700	0.134100
C1141	C114	0.963500	0.186100	0.154110
C1151	C115	0.659000	0.185300	0.346740
C1161	C116	0.851800	0.769900	0.724300
C1171	C117	0.874700	0.362200	0.339590
C1181	C118	0.483900	0.292800	0.146100
C1191	C119	0.889500	0.281400	0.597500
C1201	C120	0.085500	0.644200	0.225100
C1211	C121	0.414000	0.380500	0.085900
C1221	C122	0.542600	0.582300	0.726150
C1231	C123	0.592500	0.197800	0.611600
C1241	C124	0.650500	0.340900	0.193300
C1251	C125	0.122300	0.573500	0.248500
C1261	C126	0.940900	0.342600	0.425290
C1271	C127	0.748000	0.135500	0.423700
C1281	C128	0.950500	0.103000	0.135900
C1291	C129	0.577800	0.182500	0.431780
C1301	C130	0.956500	0.257300	0.634100
C1311	C131	0.586000	0.119500	0.585900
C1321	C132	0.440500	0.570900	0.707000
C1331	C133	0.861300	0.364300	0.393540
C1341	C134	0.889300	0.213100	0.192520
C1351	C135	0.946600	0.001200	0.750440
C1361	C136	0.422200	0.317500	0.931780
C1371	C137	0.914500	0.855800	0.725100
C1381	C138	0.148200	0.730100	0.224300
C1391	C139	0.016900	0.868400	0.703850
C1401	C140	0.457400	0.917700	0.226150
C1411	C141	0.036500	0.313900	0.654110
C1421	C142	0.338100	0.370200	0.001980
C1431	C143	0.930300	0.348200	0.476890
C1441	C144	0.422100	0.336500	0.982900
C1451	C145	0.568700	0.356900	0.155520
C1461	C146	0.503700	0.054800	0.594500
C1471	C147	0.407500	0.302200	0.111600
C1481	C148	0.378500	0.491500	0.711640
C1491	C149	0.421100	0.987900	0.248760
C1501	C150	0.049500	0.397000	0.635900
C1511	C151	0.661900	0.129800	0.501980
C1521	C152	0.098900	0.136700	0.082000
C1531	C153	0.514800	0.436500	0.752210
C1541	C154	0.392500	0.833000	0.223900
C1551	C155	0.053400	0.498800	0.250440
C1561	C156	0.577900	0.163500	0.482900
C1571	C157	0.252000	0.364500	0.923700
C1581	C158	0.337900	0.331400	0.901530
C1591	C159	0.425800	0.068200	0.629100
C1601	C160	0.341000	0.314700	0.846740
N91	N9	0.587200	0.074200	0.234960
N101	N10	0.754400	0.762700	0.738400
N111	N11	0.412800	0.425800	0.734960
N121	N12	0.705500	0.675000	0.738700
N131	N13	0.245600	0.737300	0.238400
N141	N14	0.955200	0.487200	0.230940
N151	N15	0.044800	0.012800	0.730940
N161	N16	0.294500	0.825000	0.238700
O211	O21	0.259100	0.330100	0.820590
O221	O22	0.669100	0.105300	0.552700
O231	O23	0.796800	0.381300	0.311750
O241	O24	0.266900	0.105300	0.697550
O251	O25	0.914300	0.286600	0.210040
O261	O26	0.191000	0.338600	0.705280
O271	O27	0.631100	0.274400	0.218310
O281	O28	0.826300	0.388400	0.548090
O291	O29	0.368900	0.225600	0.718310
O301	O30	0.958100	0.343100	0.319890
O311	O31	0.330900	0.394700	0.052700
O321	O32	0.809000	0.161400	0.205280
O331	O33	0.419500	0.289900	0.827180
O341	O34	0.580500	0.210100	0.327180
O351	O35	0.041900	0.156900	0.819890
O361	O36	0.740900	0.169900	0.320590
O371	O37	0.085700	0.213400	0.710040
O381	O38	0.203200	0.118700	0.811750
O391	O39	0.733100	0.394700	0.197550
O401	O40	0.173700	0.111600	0.048090
