data_cg5010616_si_007_clean_PM
_symmetry_space_group_name_H-M	'P1'
_cell_length_a	9.577800
_cell_length_b	15.606200
_cell_length_c	15.606200
_cell_angle_alpha	64.073000
_cell_angle_beta	78.195600
_cell_angle_gamma	101.804000
_symmetry_Int_Tables_number 1

loop_
_symmetry_equiv_pos_as_xyz
'x,y,z'

loop_
_atom_site_label
_atom_site_type_symbol
_atom_site_fract_x
_atom_site_fract_y
_atom_site_fract_z
Fe11	Fe1	0.000000	0.000000	0.500000
Fe21	Fe2	0.500000	0.500000	0.500000
Fe31	Fe3	0.000000	0.500000	0.000000
Si11	Si1	0.793000	0.293000	0.414000
Si21	Si2	0.793000	0.586000	0.707000
Si31	Si3	0.207000	0.707000	0.586000
Si41	Si4	0.500000	0.293000	0.293000
Si51	Si5	0.207000	0.414000	0.293000
Si61	Si6	0.500000	0.707000	0.707000
H11	H1	0.121900	0.148100	0.275200
H21	H2	0.828200	0.848600	0.875700
H31	H3	0.973800	0.576700	0.148100
H41	H4	0.026200	0.148100	0.576700
H51	H5	0.979600	0.151400	0.724300
H61	H6	0.296100	0.275700	0.875700
H71	H7	0.703900	0.724300	0.124300
H81	H8	0.171800	0.875700	0.848600
H91	H9	0.397100	0.275200	0.576700
H101	H10	0.828200	0.124300	0.151400
H111	H11	0.602900	0.576700	0.275200
H121	H12	0.171800	0.151400	0.124300
H131	H13	0.878100	0.275200	0.148100
H141	H14	0.296100	0.124300	0.724300
H151	H15	0.397100	0.423300	0.724800
H161	H16	0.026200	0.423300	0.851900
H171	H17	0.703900	0.875700	0.275700
H181	H18	0.878100	0.851900	0.724800
H191	H19	0.020400	0.848600	0.275700
H201	H20	0.602900	0.724800	0.423300
H211	H21	0.121900	0.724800	0.851900
H221	H22	0.973800	0.851900	0.423300
H231	H23	0.979600	0.275700	0.848600
H241	H24	0.020400	0.724300	0.151400
C11	C1	0.311300	0.605900	0.820000
C21	C2	0.294600	0.605900	0.574100
C31	C3	0.042500	0.910300	0.274100
C41	C4	0.131300	0.425900	0.180000
C51	C5	0.376600	0.362600	0.724700
C61	C6	0.867800	0.184400	0.089700
C71	C7	0.713800	0.818000	0.182000
C81	C8	0.705400	0.394100	0.425900
C91	C9	0.898700	0.275300	0.087300
C101	C10	0.775800	0.914300	0.085700
C111	C11	0.683400	0.815600	0.274100
C121	C12	0.132200	0.815600	0.910300
C131	C13	0.986000	0.087300	0.637400
C141	C14	0.311300	0.180000	0.394100
C151	C15	0.861500	0.085700	0.000000
C161	C16	0.014000	0.912700	0.362600
C171	C17	0.104200	0.818000	0.000000
C181	C18	0.868700	0.180000	0.425900
C191	C19	0.316600	0.184400	0.725900
C201	C20	0.014000	0.637400	0.087300
C211	C21	0.895800	0.000000	0.818000
C221	C22	0.132200	0.089700	0.184400
C231	C23	0.294600	0.425900	0.394100
C241	C24	0.101300	0.087300	0.275300
C251	C25	0.705400	0.574100	0.605900
C261	C26	0.623400	0.724700	0.362600
C271	C27	0.101300	0.724700	0.912700
C281	C28	0.688700	0.394100	0.180000
C291	C29	0.867800	0.910300	0.815600
C301	C30	0.286200	0.182000	0.818000
C311	C31	0.316600	0.274100	0.815600
C321	C32	0.138500	0.000000	0.085700
C331	C33	0.623400	0.637400	0.275300
C341	C34	0.957500	0.274100	0.910300
C351	C35	0.868700	0.574100	0.820000
C361	C36	0.376600	0.275300	0.637400
C371	C37	0.131300	0.820000	0.574100
C381	C38	0.138500	0.914300	0.000000
C391	C39	0.104200	0.000000	0.182000
C401	C40	0.042500	0.725900	0.089700
C411	C41	0.683400	0.725900	0.184400
C421	C42	0.895800	0.182000	0.000000
C431	C43	0.957500	0.089700	0.725900
C441	C44	0.861500	0.000000	0.914300
C451	C45	0.986000	0.362600	0.912700
C461	C46	0.898700	0.912700	0.724700
C471	C47	0.224200	0.085700	0.914300
C481	C48	0.688700	0.820000	0.605900
N11	N1	0.894800	0.088600	0.911400
N21	N2	0.193800	0.000000	0.911400
N31	N3	0.593100	0.635600	0.364400
N41	N4	0.908700	0.554000	0.888700
N51	N5	0.645300	0.442700	0.446000
N61	N6	0.797400	0.888700	0.557300
N71	N7	0.354700	0.446000	0.442700
N81	N8	0.091300	0.888700	0.554000
N91	N9	0.042500	0.635600	0.000000
N101	N10	0.957500	0.000000	0.635600
N111	N11	0.908700	0.111300	0.446000
N121	N12	0.193800	0.088600	0.000000
N131	N13	0.806200	0.911400	0.000000
N141	N14	0.797400	0.442700	0.111300
N151	N15	0.957500	0.364400	0.000000
N161	N16	0.806200	0.000000	0.088600
N171	N17	0.091300	0.446000	0.111300
N181	N18	0.645300	0.554000	0.557300
N191	N19	0.354700	0.557300	0.554000
N201	N20	0.202600	0.111300	0.442700
N211	N21	0.042500	0.000000	0.364400
N221	N22	0.105200	0.911400	0.088600
N231	N23	0.406900	0.364400	0.635600
N241	N24	0.202600	0.557300	0.888700
