data_cg501332u_si_002_clean_PM
_symmetry_space_group_name_H-M	'P1'
_cell_length_a	16.131100
_cell_length_b	16.131100
_cell_length_c	18.954000
_cell_angle_alpha	66.731000
_cell_angle_beta	66.731000
_cell_angle_gamma	68.447000
_symmetry_Int_Tables_number 1

loop_
_symmetry_equiv_pos_as_xyz
'x,y,z'

loop_
_atom_site_label
_atom_site_type_symbol
_atom_site_fract_x
_atom_site_fract_y
_atom_site_fract_z
Co11	Co1	0.122490	0.870550	0.222180
Co21	Co2	0.129450	0.877510	0.777820
Cu11	Cu1	0.159820	0.446400	0.975200
Cu21	Cu2	0.697330	0.918210	0.450140
Cu31	Cu3	0.553600	0.840180	0.024800
Cu41	Cu4	0.141940	0.453780	0.460880
Cu51	Cu5	0.546220	0.858060	0.539120
Cu61	Cu6	0.697350	0.914510	0.966210
Cu71	Cu7	0.081790	0.302670	0.549860
Cu81	Cu8	0.085490	0.302650	0.033790
B11	B1	0.283000	0.772600	0.311300
B21	B2	0.227400	0.717000	0.688700
B31	B3	0.955400	0.965600	0.143400
B41	B4	0.034400	0.044600	0.856600
H11	H1	0.836800	0.046800	0.947600
H21	H2	0.925800	0.578000	0.979200
H31	H3	0.541500	0.267100	0.435300
H41	H4	0.277200	0.142200	0.893300
H51	H5	0.287100	0.812700	0.879600
H61	H6	0.638000	0.605600	0.206900
H71	H7	0.378200	0.077000	0.635700
H81	H8	0.271900	0.590700	0.415000
H91	H9	0.422000	0.074200	0.020800
H101	H10	0.727100	0.491100	0.149300
H111	H11	0.342300	0.932100	0.668300
H121	H12	0.795700	0.709700	0.337800
H131	H13	0.139200	0.033400	0.956800
H141	H14	0.682800	0.608400	0.459400
H151	H15	0.725300	0.547300	0.241300
H161	H16	0.438100	0.088900	0.680400
H171	H17	0.901600	0.392000	0.745100
H181	H18	0.508900	0.272900	0.850700
H191	H19	0.425600	0.132400	0.431100
H201	H20	0.375100	0.234700	0.661000
H211	H21	0.923000	0.621800	0.364300
H221	H22	0.833400	0.384200	0.484600
H231	H23	0.400700	0.027100	0.873200
H241	H24	0.615800	0.166600	0.515400
H251	H25	0.857800	0.722800	0.106700
H261	H26	0.717700	0.554900	0.062000
H271	H27	0.452700	0.274700	0.758700
H281	H28	0.141400	0.058800	0.598100
H291	H29	0.529100	0.140700	0.812200
H301	H30	0.119400	0.748600	0.580200
H311	H31	0.664500	0.556500	0.575900
H321	H32	0.977200	0.952800	0.669000
H331	H33	0.972900	0.599300	0.126800
H341	H34	0.409300	0.728100	0.585000
H351	H35	0.608000	0.098400	0.254900
H361	H36	0.582700	0.114100	0.609300
H371	H37	0.914500	0.559700	0.218600
H381	H38	0.911100	0.561900	0.319600
H391	H39	0.909500	0.832100	0.875000
H401	H40	0.328000	0.200800	0.463000
H411	H41	0.365800	0.104200	0.523500
H421	H42	0.391600	0.317200	0.540600
H431	H43	0.466000	0.754000	0.194900
H441	H44	0.859300	0.470900	0.187800
H451	H45	0.988100	0.540900	0.683500
H461	H46	0.047200	0.022800	0.331000
H471	H47	0.765300	0.624900	0.339000
H481	H48	0.325600	0.107200	0.000100
H491	H49	0.867600	0.574400	0.568900
H501	H50	0.445100	0.282300	0.938000
H511	H51	0.953200	0.163200	0.052400
H521	H52	0.311900	0.881300	0.049500
H531	H53	0.118700	0.688100	0.950500
H541	H54	0.067900	0.657700	0.331700
H551	H55	0.332900	0.744700	0.338700
H561	H56	0.802900	0.464500	0.071100
H571	H57	0.673200	0.650800	0.248000
H581	H58	0.852700	0.501900	0.735200
H591	H59	0.246000	0.534000	0.805100
H601	H60	0.440300	0.085500	0.781400
H611	H61	0.459100	0.011900	0.316500
H621	H62	0.187300	0.712900	0.120400
H631	H63	0.498100	0.147300	0.264800
H641	H64	0.892800	0.674400	0.999900
H651	H65	0.779200	0.996000	0.259700
H661	H66	0.290300	0.204300	0.662200
H671	H67	0.167900	0.090500	0.125000
H681	H68	0.004000	0.220800	0.740300
H691	H69	0.533500	0.221500	0.574900
H701	H70	0.394400	0.362000	0.793100
H711	H71	0.443500	0.335500	0.424100
H721	H72	0.966600	0.860800	0.043200
H731	H73	0.808600	0.692400	0.202000
H741	H74	0.255300	0.667100	0.661300
H751	H75	0.497000	0.258200	0.377400
H761	H76	0.941200	0.858600	0.401900
H771	H77	0.799200	0.672000	0.537000
H781	H78	0.307600	0.191400	0.798000
H791	H79	0.885900	0.417300	0.390700
H801	H80	0.349200	0.326800	0.752000
H811	H81	0.828900	0.649700	0.968100
H821	H82	0.535500	0.197100	0.928900
H831	H83	0.778500	0.466500	0.425100
H841	H84	0.350300	0.171100	0.031900
H851	H85	0.251400	0.880600	0.419800
H861	H86	0.732900	0.458500	0.564700
H871	H87	0.902800	0.994400	0.119000
H881	H88	0.895800	0.634200	0.476500
H891	H89	0.005600	0.097200	0.881000
H901	H90	0.741800	0.503000	0.622600
C11	C1	0.751200	0.915800	0.697500
C21	C2	0.700600	0.836200	0.736000
C31	C3	0.610500	0.895900	0.746700
C41	C4	0.690500	0.818900	0.610900
C51	C5	0.565900	0.089900	0.154500
C61	C6	0.834700	0.671900	0.153000
C71	C7	0.390400	0.307200	0.785400
C81	C8	0.115900	0.345300	0.766800
C91	C9	0.754500	0.646300	0.138100
C101	C10	0.905200	0.449600	0.749700
C111	C11	0.161200	0.987200	0.929900
C121	C12	0.976800	0.459400	0.089500
C131	C13	0.217700	0.585700	0.826300
C141	C14	0.485000	0.109800	0.861900
C151	C15	0.550400	0.094800	0.250300
C161	C16	0.363100	0.266700	0.550000
C171	C17	0.495000	0.134200	0.550900
C181	C18	0.560400	0.956800	0.374200
C191	C19	0.132300	0.759300	0.112000
C201	C20	0.328100	0.165300	0.847000
C211	C21	0.433600	0.204200	0.496500
C221	C22	0.104100	0.389500	0.253300
C231	C23	0.687100	0.728700	0.468000
C241	C24	0.267700	0.298500	0.912800
C251	C25	0.483200	0.272000	0.427400
C261	C26	0.316300	0.300900	0.258000
C271	C27	0.573000	0.958600	0.101400
C281	C28	0.036200	0.167600	0.721400
C291	C29	0.843900	0.616100	0.523200
C301	C30	0.865800	0.505000	0.449100
C311	C31	0.163800	0.299400	0.264000
C321	C32	0.720900	0.761900	0.814200
C331	C33	0.021200	0.896600	0.661000
C341	C34	0.569200	0.940400	0.243900
C351	C35	0.998600	0.471800	0.701000
C361	C36	0.001000	0.471000	0.828400
C371	C37	0.271300	0.312900	0.532000
C381	C38	0.562000	0.161200	0.563600
C391	C39	0.123300	0.658700	0.337600
C401	C40	0.529000	0.999000	0.171600
C411	C41	0.911600	0.886600	0.881500
C421	C42	0.041400	0.427000	0.898600
C431	C43	0.701500	0.673500	0.830800
C441	C44	0.059600	0.430800	0.756100
C451	C45	0.871800	0.624000	0.000900
C461	C46	0.999800	0.127600	0.078900
C471	C47	0.330800	0.849600	0.096900
C481	C48	0.242800	0.167600	0.343300
C491	C49	0.730600	0.773600	0.682000
C501	C50	0.238100	0.279100	0.185800
C511	C51	0.654700	0.884100	0.233200
C521	C52	0.733300	0.636900	0.450000
C531	C53	0.761600	0.516200	0.093300
C541	C54	0.229800	0.621800	0.383600
C551	C55	0.912300	0.585700	0.162400
C561	C56	0.890200	0.515000	0.138100
C571	C57	0.692800	0.609600	0.214600
C581	C58	0.872400	0.000200	0.921100
C591	C59	0.103400	0.978800	0.339000
C601	C60	0.956300	0.451900	0.474500
C611	C61	0.326500	0.298500	0.169200
C621	C62	0.882400	0.587000	0.366200
C631	C63	0.181100	0.309500	0.389100
C641	C64	0.832400	0.757200	0.656700
C651	C65	0.341300	0.876700	0.662400
C661	C66	0.226400	0.269400	0.318000
C671	C67	0.684600	0.803400	0.884400
C681	C68	0.043200	0.439600	0.625800
C691	C69	0.113400	0.088400	0.118500
C701	C70	0.378200	0.770200	0.616400
C711	C71	0.196600	0.315400	0.115600
C721	C72	0.988500	0.576100	0.793400
C731	C73	0.423900	0.011500	0.206600
C741	C74	0.383900	0.156100	0.476800
C751	C75	0.414300	0.782300	0.173700
C761	C76	0.701500	0.732300	0.087200
C771	C77	0.012800	0.838800	0.070100
C781	C78	0.084200	0.248800	0.302500
C791	C79	0.838800	0.438000	0.436400
C801	C80	0.353700	0.245500	0.861900
C811	C81	0.832400	0.963800	0.278600
C821	C82	0.376000	0.128200	0.999100
C831	C83	0.414300	0.087700	0.837600
C841	C84	0.483800	0.238400	0.906700
C851	C85	0.728000	0.516800	0.572600
C861	C86	0.548100	0.043700	0.525500
C871	C87	0.792500	0.644100	0.366800
C881	C88	0.109700	0.079700	0.644600
C891	C89	0.424100	0.179500	0.910700
C901	C90	0.795800	0.566400	0.503500
C911	C91	0.910100	0.434100	0.845500
C921	C92	0.699100	0.683700	0.742000
C931	C93	0.150400	0.669200	0.903100
C941	C94	0.820500	0.575900	0.089300
C951	C95	0.920300	0.890300	0.355400
C961	C96	0.240700	0.867700	0.888000
C971	C97	0.211300	0.904100	0.386900
C981	C98	0.413000	0.117600	0.633800
C991	C99	0.540600	0.023200	0.910500
C1001	C100	0.528200	0.001400	0.299000
C1011	C101	0.355900	0.207500	0.633200
C1021	C102	0.095900	0.788700	0.613100
N11	N1	0.271800	0.846000	0.697500
N21	N2	0.089700	0.011100	0.144200
N31	N3	0.154000	0.728200	0.302500
N41	N4	0.416700	0.830500	0.615000
N51	N5	0.136300	0.781900	0.668000
N61	N6	0.060500	0.163100	0.083500
N71	N7	0.189300	0.578300	0.906600
N81	N8	0.917700	0.941100	0.234000
N91	N9	0.120400	0.983200	0.881700
N101	N10	0.146710	0.913310	0.301000
N111	N11	0.226200	0.706200	0.335600
N121	N12	0.058900	0.082300	0.766000
N131	N13	0.013300	0.035300	0.116700
N141	N14	0.083200	0.763000	0.065800
N151	N15	0.326300	0.799100	0.217900
N161	N16	0.988900	0.910300	0.855800
N171	N17	0.270800	0.842200	0.166800
N181	N18	0.104300	0.022100	0.718700
N191	N19	0.237000	0.916800	0.934200
N201	N20	0.831900	0.932500	0.359400
N211	N21	0.964700	0.986700	0.883300
N221	N22	0.157800	0.729200	0.833200
N231	N23	0.067500	0.168100	0.640600
N241	N24	0.169500	0.583300	0.385000
N251	N25	0.421700	0.810700	0.093400
N261	N26	0.168750	0.908750	0.856200
N271	N27	0.293800	0.773800	0.664400
N281	N28	0.086690	0.853290	0.699000
N291	N29	0.091250	0.831250	0.143800
N301	N30	0.016800	0.879600	0.118300
N311	N31	0.218100	0.863700	0.332000
N321	N32	0.020300	0.858300	0.612800
N331	N33	0.977900	0.895700	0.281300
N341	N34	0.141700	0.979700	0.387200
N351	N35	0.200900	0.673700	0.782100
N361	N36	0.836900	0.939500	0.916500
O11	O1	0.602300	0.740900	0.511500
O21	O2	0.032200	0.358200	0.637200
O31	O3	0.641800	0.967800	0.362800
O41	O4	0.212200	0.269200	0.558600
O51	O5	0.980800	0.377600	0.099400
O61	O6	0.211500	0.394700	0.065400
O71	O7	0.259100	0.397700	0.488500
O81	O8	0.739500	0.799500	0.046900
O91	O9	0.506300	0.975100	0.560400
O101	O10	0.622400	0.019200	0.900600
O111	O11	0.196400	0.384800	0.380100
O121	O12	0.020000	0.362200	0.950800
O131	O13	0.637800	0.980000	0.049200
O141	O14	0.626660	0.728460	0.086100
O151	O15	0.734000	0.868600	0.547500
O161	O16	0.098200	0.469000	0.893200
O171	O17	0.730800	0.787800	0.441400
O181	O18	0.531000	0.901800	0.106800
O191	O19	0.962600	0.372600	0.524800
O201	O20	0.510900	0.919500	0.436800
O211	O21	0.080500	0.489100	0.563200
O221	O22	0.502000	0.960600	0.954300
O231	O23	0.039400	0.498000	0.045700
O241	O24	0.615200	0.803600	0.619900
O251	O25	0.131400	0.266000	0.452500
O261	O26	0.271540	0.373340	0.913900
O271	O27	0.627400	0.037400	0.475200
O281	O28	0.153100	0.267700	0.111300
O291	O29	0.024900	0.493700	0.439600
O301	O30	0.605300	0.788500	0.934600
O311	O31	0.200500	0.260500	0.953100
O321	O32	0.732300	0.846900	0.888700
