data_cg500091k_si_002_clean_PM
_symmetry_space_group_name_H-M	'P1'
_cell_length_a	15.244500
_cell_length_b	15.244500
_cell_length_c	23.215000
_cell_angle_alpha	90.000000
_cell_angle_beta	90.000000
_cell_angle_gamma	96.091500
_symmetry_Int_Tables_number 1

loop_
_symmetry_equiv_pos_as_xyz
'x,y,z'

loop_
_atom_site_label
_atom_site_type_symbol
_atom_site_fract_x
_atom_site_fract_y
_atom_site_fract_z
Co11	Co1	0.298670	0.298670	0.000000
Co21	Co2	0.845730	0.261550	0.891930
Co31	Co3	0.261550	0.845730	0.108070
Co41	Co4	0.211110	0.788890	0.250000
Co51	Co5	0.743270	0.655710	0.646110
Co61	Co6	0.256730	0.344290	0.146110
Co71	Co7	0.701330	0.701330	0.500000
Co81	Co8	0.738450	0.154270	0.608070
Co91	Co9	0.344290	0.256730	0.853890
Co101	Co10	0.154270	0.738450	0.391930
Co111	Co11	0.788890	0.211110	0.750000
Co121	Co12	0.655710	0.743270	0.353890
H11	H1	0.176400	0.120000	0.684800
H21	H2	0.558200	0.345400	0.041100
H31	H3	0.858300	0.962900	0.788600
H41	H4	0.037100	0.141700	0.711400
H51	H5	0.540500	0.865100	0.133200
H61	H6	0.017400	0.668800	0.621400
H71	H7	0.520400	0.227200	0.791000
H81	H8	0.331200	0.982600	0.878600
H91	H9	0.702100	0.350100	0.074700
H101	H10	0.479600	0.772800	0.291000
H111	H11	0.880000	0.823600	0.815200
H121	H12	0.117300	0.310100	0.339800
H131	H13	0.412600	0.200200	0.064400
H141	H14	0.649900	0.297900	0.425300
H151	H15	0.273900	0.026300	0.042500
H161	H16	0.730100	0.366300	0.612500
H171	H17	0.166100	0.667300	0.599300
H181	H18	0.982600	0.331200	0.121400
H191	H19	0.962900	0.858300	0.211400
H201	H20	0.366300	0.730100	0.387500
H211	H21	0.259300	0.944300	0.349800
H221	H22	0.689900	0.882700	0.160200
H231	H23	0.833900	0.332700	0.099300
H241	H24	0.441800	0.654600	0.541100
H251	H25	0.866100	0.748700	0.357700
H261	H26	0.120000	0.176400	0.315200
H271	H27	0.134900	0.459500	0.366800
H281	H28	0.251300	0.133900	0.142300
H291	H29	0.823600	0.880000	0.184800
H301	H30	0.297900	0.649900	0.574700
H311	H31	0.345400	0.558200	0.958900
H321	H32	0.227200	0.520400	0.209000
H331	H33	0.133900	0.251300	0.857700
H341	H34	0.332700	0.833900	0.900700
H351	H35	0.026300	0.273900	0.957500
H361	H36	0.459500	0.134900	0.633200
H371	H37	0.865100	0.540500	0.866800
H381	H38	0.587400	0.799800	0.564400
H391	H39	0.668800	0.017400	0.378600
H401	H40	0.748700	0.866100	0.642300
H411	H41	0.269900	0.633700	0.112500
H421	H42	0.141700	0.037100	0.288600
H431	H43	0.350100	0.702100	0.925300
H441	H44	0.799800	0.587400	0.435600
H451	H45	0.055700	0.740700	0.150200
H461	H46	0.740700	0.055700	0.849800
H471	H47	0.200200	0.412600	0.935600
H481	H48	0.667300	0.166100	0.400700
H491	H49	0.882700	0.689900	0.839800
H501	H50	0.310100	0.117300	0.660200
H511	H51	0.654600	0.441800	0.458900
H521	H52	0.772800	0.479600	0.709000
H531	H53	0.973700	0.726100	0.457500
H541	H54	0.633700	0.269900	0.887500
H551	H55	0.944300	0.259300	0.650200
H561	H56	0.726100	0.973700	0.542500
C11	C1	0.694500	0.980900	0.459400
C21	C2	0.305500	0.019100	0.959400
C31	C3	0.142600	0.226400	0.821800
C41	C4	0.284500	0.647900	0.074500
C51	C5	0.818400	0.761200	0.746700
C61	C6	0.676900	0.125900	0.429600
C71	C7	0.142400	0.353600	0.314900
C81	C8	0.478400	0.205000	0.764200
C91	C9	0.768700	0.108300	0.864300
C101	C10	0.108300	0.768700	0.135700
C111	C11	0.154100	0.689100	0.515300
C121	C12	0.396900	0.234500	0.095100
C131	C13	0.603200	0.180600	0.698000
C141	C14	0.694700	0.883300	0.447200
C151	C15	0.667100	0.312500	0.462800
C161	C16	0.116700	0.305300	0.052800
C171	C17	0.396800	0.819400	0.198000
C181	C18	0.798500	0.930300	0.711700
C191	C19	0.689100	0.154100	0.484700
C201	C20	0.580000	0.303000	0.961800
C211	C21	0.824400	0.492800	0.787900
C221	C22	0.312500	0.667100	0.537200
C231	C23	0.976400	0.215800	0.805400
C241	C24	0.980900	0.694500	0.540600
C251	C25	0.857400	0.773600	0.321800
C261	C26	0.125900	0.676900	0.570400
C271	C27	0.987400	0.288400	0.986100
C281	C28	0.513200	0.703000	0.442600
C291	C29	0.765500	0.603100	0.404900
C301	C30	0.397800	0.670600	0.516700
C311	C31	0.333000	0.175400	0.738100
C321	C32	0.305300	0.116700	0.947200
C331	C33	0.175600	0.507200	0.287900
C341	C34	0.238800	0.181600	0.753300
C351	C35	0.309100	0.751100	0.002400
C361	C36	0.845900	0.310900	0.015300
C371	C37	0.149500	0.166900	0.281000
C381	C38	0.557400	0.851400	0.170400
C391	C39	0.795000	0.521600	0.735800
C401	C40	0.690900	0.248900	0.502400
C411	C41	0.297000	0.486800	0.057400
C421	C42	0.962500	0.321500	0.083900
C431	C43	0.201500	0.069700	0.211700
C441	C44	0.602200	0.329400	0.016700
C451	C45	0.711600	0.012600	0.513900
C461	C46	0.670600	0.397800	0.483300
C471	C47	0.248900	0.690900	0.497600
C481	C48	0.353600	0.142400	0.685100
C491	C49	0.647900	0.284500	0.925500
C501	C50	0.175400	0.333000	0.261900
C511	C51	0.930300	0.798500	0.288300
C521	C52	0.850500	0.833100	0.781000
C531	C53	0.231300	0.891700	0.364300
C541	C54	0.751100	0.309100	0.997600
C551	C55	0.323100	0.874100	0.929600
C561	C56	0.332900	0.687500	0.962800
C571	C57	0.603100	0.765500	0.595100
C581	C58	0.915500	0.839300	0.235100
C591	C59	0.166900	0.149500	0.719000
C601	C60	0.761200	0.818400	0.253300
C611	C61	0.507200	0.175600	0.712100
C621	C62	0.819400	0.396800	0.802000
C631	C63	0.839300	0.915500	0.764900
C641	C64	0.069700	0.201500	0.788300
C651	C65	0.851400	0.557400	0.829600
C661	C66	0.687500	0.332900	0.037200
C671	C67	0.486800	0.297000	0.942600
C681	C68	0.303000	0.580000	0.038200
C691	C69	0.037500	0.678500	0.583900
C701	C70	0.521600	0.795000	0.264200
C711	C71	0.180600	0.603200	0.302000
C721	C72	0.874100	0.323100	0.070400
C731	C73	0.883300	0.694700	0.552800
C741	C74	0.181600	0.238800	0.246700
C751	C75	0.321500	0.962500	0.916100
C761	C76	0.703000	0.513200	0.557400
C771	C77	0.012600	0.711600	0.486100
C781	C78	0.352100	0.715500	0.425500
C791	C79	0.857600	0.646400	0.814900
C801	C80	0.678500	0.037500	0.416100
C811	C81	0.160700	0.084500	0.264900
C821	C82	0.833100	0.850500	0.219000
C831	C83	0.773600	0.857400	0.678200
C841	C84	0.084500	0.160700	0.735100
C851	C85	0.420000	0.697000	0.461800
C861	C86	0.442600	0.148600	0.670400
C871	C87	0.697000	0.420000	0.538200
C881	C88	0.667000	0.824600	0.238100
C891	C89	0.492800	0.824400	0.212100
C901	C90	0.234500	0.396900	0.904900
C911	C91	0.288400	0.987400	0.013900
C921	C92	0.891700	0.231300	0.635700
C931	C93	0.310900	0.845900	0.984700
C941	C94	0.148600	0.442600	0.329600
C951	C95	0.784200	0.023600	0.694600
C961	C96	0.646400	0.857600	0.185100
C971	C97	0.019100	0.305500	0.040600
C981	C98	0.226400	0.142600	0.178200
C991	C99	0.715500	0.352100	0.574500
C1001	C100	0.215800	0.976400	0.194600
C1011	C101	0.023600	0.784200	0.305400
C1021	C102	0.824600	0.667000	0.761900
C1031	C103	0.205000	0.478400	0.235800
C1041	C104	0.329400	0.602200	0.983300
N11	N1	0.708300	0.098500	0.527800
N21	N2	0.225400	0.216600	0.805400
N31	N3	0.098500	0.708300	0.472200
N41	N4	0.608000	0.796800	0.278200
N51	N5	0.203200	0.392000	0.221800
N61	N6	0.713700	0.266700	0.558310
N71	N7	0.774600	0.783400	0.305400
N81	N8	0.266700	0.713700	0.441690
N91	N9	0.796800	0.608000	0.721800
N101	N10	0.286300	0.733300	0.058310
N111	N11	0.216600	0.225400	0.194600
N121	N12	0.291700	0.901500	0.027800
N131	N13	0.392000	0.203200	0.778200
N141	N14	0.783400	0.774600	0.694600
N151	N15	0.733300	0.286300	0.941690
N161	N16	0.901500	0.291700	0.972200
O11	O1	0.843080	0.378320	0.852730
O21	O2	0.722700	0.669500	0.413100
O31	O3	0.277300	0.330500	0.913100
O41	O4	0.234500	0.820900	0.337200
O51	O5	0.560500	0.766900	0.635700
O61	O6	0.164900	0.289900	0.011360
O71	O7	0.190100	0.891500	0.411400
O81	O8	0.319900	0.139900	0.895890
O91	O9	0.077600	0.788400	0.266100
O101	O10	0.719400	0.530400	0.610080
O111	O11	0.788400	0.077600	0.733900
O121	O12	0.108500	0.809900	0.088600
O131	O13	0.680100	0.860100	0.395890
O141	O14	0.710100	0.835100	0.488640
O151	O15	0.235110	0.964090	0.142510
O161	O16	0.035910	0.764890	0.357490
O171	O17	0.691700	0.568100	0.519590
O181	O18	0.766900	0.560500	0.364300
O191	O19	0.211600	0.922400	0.233900
O201	O20	0.530400	0.719400	0.389920
O211	O21	0.809900	0.108500	0.911400
O221	O22	0.206400	0.655200	0.263260
O231	O23	0.308300	0.431900	0.019590
O241	O24	0.439500	0.233100	0.135700
O251	O25	0.280600	0.469600	0.110080
O261	O26	0.330500	0.277300	0.086900
O271	O27	0.156920	0.621680	0.352730
O281	O28	0.431900	0.308300	0.980410
O291	O29	0.568100	0.691700	0.480410
O301	O30	0.835100	0.710100	0.511360
O311	O31	0.793600	0.344800	0.763260
O321	O32	0.820900	0.234500	0.662800
O331	O33	0.764890	0.035910	0.642510
O341	O34	0.179100	0.765500	0.162800
O351	O35	0.289900	0.164900	0.988640
O361	O36	0.765500	0.179100	0.837200
O371	O37	0.891500	0.190100	0.588600
O381	O38	0.964090	0.235110	0.857490
O391	O39	0.233100	0.439500	0.864300
O401	O40	0.860100	0.680100	0.604110
O411	O41	0.378320	0.843080	0.147270
O421	O42	0.139900	0.319900	0.104110
O431	O43	0.655200	0.206400	0.736740
O441	O44	0.669500	0.722700	0.586900
O451	O45	0.621680	0.156920	0.647270
O461	O46	0.469600	0.280600	0.889920
O471	O47	0.922400	0.211600	0.766100
O481	O48	0.344800	0.793600	0.236740
