data_cg8002564_si_006_clean_PM
_symmetry_space_group_name_H-M	'P1'
_cell_length_a	10.970900
_cell_length_b	10.970900
_cell_length_c	35.314000
_cell_angle_alpha	90.000000
_cell_angle_beta	90.000000
_cell_angle_gamma	120.000000
_symmetry_Int_Tables_number 1

loop_
_symmetry_equiv_pos_as_xyz
'x,y,z'

loop_
_atom_site_label
_atom_site_type_symbol
_atom_site_fract_x
_atom_site_fract_y
_atom_site_fract_z
N11	N1	0.956200	0.685200	0.073540
N21	N2	0.931700	0.819300	0.033900
N31	N3	0.822100	0.770800	0.059400
C11	C1	0.010100	0.767000	0.042640
H11	H1	0.090700	0.783100	0.029700
C21	C2	0.841300	0.692100	0.082770
H21	H2	0.783300	0.646100	0.103300
N41	N4	0.622870	0.018530	0.406870
N51	N5	0.598370	0.152630	0.367230
N61	N6	0.488770	0.104130	0.392730
C31	C3	0.676770	0.100330	0.375970
H31	H3	0.757370	0.116430	0.363030
C41	C4	0.507970	0.025430	0.416100
H41	H4	0.449970	0.979430	0.436630
N71	N7	0.289530	0.351870	0.740210
N81	N8	0.265030	0.485970	0.700570
N91	N9	0.155430	0.437470	0.726070
C51	C5	0.343430	0.433670	0.709310
H51	H5	0.424030	0.449770	0.696370
C61	C6	0.174630	0.358770	0.749440
H61	H6	0.116630	0.312770	0.769970
N101	N10	0.314800	0.271000	0.073540
N111	N11	0.180700	0.112400	0.033900
N121	N12	0.229200	0.051300	0.059400
C71	C7	0.233000	0.243100	0.042640
H71	H7	0.216900	0.307600	0.029700
C81	C8	0.307900	0.149200	0.082770
H81	H8	0.353900	0.137200	0.103300
N131	N13	0.981470	0.604330	0.406870
N141	N14	0.847370	0.445730	0.367230
N151	N15	0.895870	0.384630	0.392730
C91	C9	0.899670	0.576430	0.375970
H91	H9	0.883570	0.640930	0.363030
C101	C10	0.974570	0.482530	0.416100
H101	H10	0.020570	0.470530	0.436630
N161	N16	0.648130	0.937670	0.740210
N171	N17	0.514030	0.779070	0.700570
N181	N18	0.562530	0.717970	0.726070
C111	C11	0.566330	0.909770	0.709310
H111	H11	0.550230	0.974270	0.696370
C121	C12	0.641230	0.815870	0.749440
H121	H12	0.687230	0.803870	0.769970
N191	N19	0.729000	0.043800	0.073540
N201	N20	0.887600	0.068300	0.033900
N211	N21	0.948700	0.177900	0.059400
C131	C13	0.756900	0.989900	0.042640
H131	H13	0.692400	0.909300	0.029700
C141	C14	0.850800	0.158700	0.082770
H141	H14	0.862800	0.216700	0.103300
N221	N22	0.395670	0.377130	0.406870
N231	N23	0.554270	0.401630	0.367230
N241	N24	0.615370	0.511230	0.392730
C151	C15	0.423570	0.323230	0.375970
H151	H15	0.359070	0.242630	0.363030
C161	C16	0.517470	0.492030	0.416100
H161	H16	0.529470	0.550030	0.436630
N251	N25	0.062330	0.710470	0.740210
N261	N26	0.220930	0.734970	0.700570
N271	N27	0.282030	0.844570	0.726070
C171	C17	0.090230	0.656570	0.709310
H171	H17	0.025730	0.575970	0.696370
C181	C18	0.184130	0.825370	0.749440
H181	H18	0.196130	0.883370	0.769970
N281	N28	0.685200	0.956200	0.426460
N291	N29	0.819300	0.931700	0.466100
N301	N30	0.770800	0.822100	0.440600
C191	C19	0.767000	0.010100	0.457360
H191	H19	0.783100	0.090700	0.470300
C201	C20	0.692100	0.841300	0.417230
H201	H20	0.646100	0.783300	0.396700
N311	N31	0.351870	0.289530	0.759790
N321	N32	0.485970	0.265030	0.799430
N331	N33	0.437470	0.155430	0.773930
C211	C21	0.433670	0.343430	0.790690
H211	H21	0.449770	0.424030	0.803630
C221	C22	0.358770	0.174630	0.750560
H221	H22	0.312770	0.116630	0.730030
N341	N34	0.018530	0.622870	0.093130
N351	N35	0.152630	0.598370	0.132770
N361	N36	0.104130	0.488770	0.107270
C231	C23	0.100330	0.676770	0.124030
H231	H23	0.116430	0.757370	0.136970
C241	C24	0.025430	0.507970	0.083900
H241	H24	0.979430	0.449970	0.063370
N371	N37	0.271000	0.314800	0.426460
N381	N38	0.112400	0.180700	0.466100
N391	N39	0.051300	0.229200	0.440600
C251	C25	0.243100	0.233000	0.457360
H251	H25	0.307600	0.216900	0.470300
C261	C26	0.149200	0.307900	0.417230
H261	H26	0.137200	0.353900	0.396700
N401	N40	0.937670	0.648130	0.759790
N411	N41	0.779070	0.514030	0.799430
N421	N42	0.717970	0.562530	0.773930
C271	C27	0.909770	0.566330	0.790690
H271	H27	0.974270	0.550230	0.803630
C281	C28	0.815870	0.641230	0.750560
H281	H28	0.803870	0.687230	0.730030
N431	N43	0.604330	0.981470	0.093130
N441	N44	0.445730	0.847370	0.132770
N451	N45	0.384630	0.895870	0.107270
C291	C29	0.576430	0.899670	0.124030
H291	H29	0.640930	0.883570	0.136970
C301	C30	0.482530	0.974570	0.083900
H301	H30	0.470530	0.020570	0.063370
N461	N46	0.043800	0.729000	0.426460
N471	N47	0.068300	0.887600	0.466100
N481	N48	0.177900	0.948700	0.440600
C311	C31	0.989900	0.756900	0.457360
H311	H31	0.909300	0.692400	0.470300
C321	C32	0.158700	0.850800	0.417230
H321	H32	0.216700	0.862800	0.396700
N491	N49	0.710470	0.062330	0.759790
N501	N50	0.734970	0.220930	0.799430
N511	N51	0.844570	0.282030	0.773930
C331	C33	0.656570	0.090230	0.790690
H331	H33	0.575970	0.025730	0.803630
C341	C34	0.825370	0.184130	0.750560
H341	H34	0.883370	0.196130	0.730030
N521	N52	0.377130	0.395670	0.093130
N531	N53	0.401630	0.554270	0.132770
N541	N54	0.511230	0.615370	0.107270
C351	C35	0.323230	0.423570	0.124030
H351	H35	0.242630	0.359070	0.136970
C361	C36	0.492030	0.517470	0.083900
H361	H36	0.550030	0.529470	0.063370
N551	N55	0.043800	0.314800	0.926460
N561	N56	0.068300	0.180700	0.966100
N571	N57	0.177900	0.229200	0.940600
C371	C37	0.989900	0.233000	0.957360
H371	H37	0.909300	0.216900	0.970300
C381	C38	0.158700	0.307900	0.917230
H381	H38	0.216700	0.353900	0.896700
N581	N58	0.710470	0.648130	0.259790
N591	N59	0.734970	0.514030	0.299430
N601	N60	0.844570	0.562530	0.273930
C391	C39	0.656570	0.566330	0.290690
H391	H39	0.575970	0.550230	0.303630
C401	C40	0.825370	0.641230	0.250560
H401	H40	0.883370	0.687230	0.230030
N611	N61	0.377130	0.981470	0.593130
N621	N62	0.401630	0.847370	0.632770
N631	N63	0.511230	0.895870	0.607270
C411	C41	0.323230	0.899670	0.624030
H411	H41	0.242630	0.883570	0.636970
C421	C42	0.492030	0.974570	0.583900
H421	H42	0.550030	0.020570	0.563370
N641	N64	0.685200	0.729000	0.926460
N651	N65	0.819300	0.887600	0.966100
N661	N66	0.770800	0.948700	0.940600
C431	C43	0.767000	0.756900	0.957360
H431	H43	0.783100	0.692400	0.970300
C441	C44	0.692100	0.850800	0.917230
H441	H44	0.646100	0.862800	0.896700
N671	N67	0.351870	0.062330	0.259790
N681	N68	0.485970	0.220930	0.299430
N691	N69	0.437470	0.282030	0.273930
C451	C45	0.433670	0.090230	0.290690
H451	H45	0.449770	0.025730	0.303630
C461	C46	0.358770	0.184130	0.250560
H461	H46	0.312770	0.196130	0.230030
N701	N70	0.018530	0.395670	0.593130
N711	N71	0.152630	0.554270	0.632770
N721	N72	0.104130	0.615370	0.607270
C471	C47	0.100330	0.423570	0.624030
H471	H47	0.116430	0.359070	0.636970
C481	C48	0.025430	0.517470	0.583900
H481	H48	0.979430	0.529470	0.563370
N731	N73	0.271000	0.956200	0.926460
N741	N74	0.112400	0.931700	0.966100
N751	N75	0.051300	0.822100	0.940600
C491	C49	0.243100	0.010100	0.957360
H491	H49	0.307600	0.090700	0.970300
C501	C50	0.149200	0.841300	0.917230
H501	H50	0.137200	0.783300	0.896700
N761	N76	0.937670	0.289530	0.259790
N771	N77	0.779070	0.265030	0.299430
N781	N78	0.717970	0.155430	0.273930
C511	C51	0.909770	0.343430	0.290690
H511	H51	0.974270	0.424030	0.303630
C521	C52	0.815870	0.174630	0.250560
H521	H52	0.803870	0.116630	0.230030
N791	N79	0.604330	0.622870	0.593130
N801	N80	0.445730	0.598370	0.632770
N811	N81	0.384630	0.488770	0.607270
C531	C53	0.576430	0.676770	0.624030
H531	H53	0.640930	0.757370	0.636970
C541	C54	0.482530	0.507970	0.583900
H541	H54	0.470530	0.449970	0.563370
N821	N82	0.314800	0.043800	0.573540
N831	N83	0.180700	0.068300	0.533900
N841	N84	0.229200	0.177900	0.559400
C551	C55	0.233000	0.989900	0.542640
H551	H55	0.216900	0.909300	0.529700
C561	C56	0.307900	0.158700	0.582770
H561	H56	0.353900	0.216700	0.603300
N851	N85	0.981470	0.377130	0.906870
N861	N86	0.847370	0.401630	0.867230
N871	N87	0.895870	0.511230	0.892730
C571	C57	0.899670	0.323230	0.875970
H571	H57	0.883570	0.242630	0.863030
C581	C58	0.974570	0.492030	0.916100
H581	H58	0.020570	0.550030	0.936630
N881	N88	0.648130	0.710470	0.240210
N891	N89	0.514030	0.734970	0.200570
N901	N90	0.562530	0.844570	0.226070
C591	C59	0.566330	0.656570	0.209310
H591	H59	0.550230	0.575970	0.196370
C601	C60	0.641230	0.825370	0.249440
H601	H60	0.687230	0.883370	0.269970
N911	N91	0.729000	0.685200	0.573540
N921	N92	0.887600	0.819300	0.533900
N931	N93	0.948700	0.770800	0.559400
C611	C61	0.756900	0.767000	0.542640
H611	H61	0.692400	0.783100	0.529700
C621	C62	0.850800	0.692100	0.582770
H621	H62	0.862800	0.646100	0.603300
N941	N94	0.395670	0.018530	0.906870
N951	N95	0.554270	0.152630	0.867230
N961	N96	0.615370	0.104130	0.892730
C631	C63	0.423570	0.100330	0.875970
H631	H63	0.359070	0.116430	0.863030
C641	C64	0.517470	0.025430	0.916100
H641	H64	0.529470	0.979430	0.936630
N971	N97	0.062330	0.351870	0.240210
N981	N98	0.220930	0.485970	0.200570
N991	N99	0.282030	0.437470	0.226070
C651	C65	0.090230	0.433670	0.209310
H651	H65	0.025730	0.449770	0.196370
C661	C66	0.184130	0.358770	0.249440
H661	H66	0.196130	0.312770	0.269970
N1001	N100	0.956200	0.271000	0.573540
N1011	N101	0.931700	0.112400	0.533900
N1021	N102	0.822100	0.051300	0.559400
C671	C67	0.010100	0.243100	0.542640
H671	H67	0.090700	0.307600	0.529700
C681	C68	0.841300	0.149200	0.582770
H681	H68	0.783300	0.137200	0.603300
N1031	N103	0.622870	0.604330	0.906870
N1041	N104	0.598370	0.445730	0.867230
N1051	N105	0.488770	0.384630	0.892730
C691	C69	0.676770	0.576430	0.875970
H691	H69	0.757370	0.640930	0.863030
C701	C70	0.507970	0.482530	0.916100
H701	H70	0.449970	0.470530	0.936630
N1061	N106	0.289530	0.937670	0.240210
N1071	N107	0.265030	0.779070	0.200570
N1081	N108	0.155430	0.717970	0.226070
C711	C71	0.343430	0.909770	0.209310
H711	H71	0.424030	0.974270	0.196370
C721	C72	0.174630	0.815870	0.249440
H721	H72	0.116630	0.803870	0.269970
Cu11	Cu1	0.000000	0.000000	0.000000
Cu21	Cu2	0.666670	0.333330	0.333330
Cu31	Cu3	0.333330	0.666670	0.666670
Cu41	Cu4	0.000000	0.000000	0.500000
Cu51	Cu5	0.666670	0.333330	0.833330
Cu61	Cu6	0.333330	0.666670	0.166670
