data_cg8002564_si_008_clean_PM
_symmetry_space_group_name_H-M	'P1'
_cell_length_a	12.690900
_cell_length_b	12.690900
_cell_length_c	14.672300
_cell_angle_alpha	115.625000
_cell_angle_beta	115.625000
_cell_angle_gamma	90.000700
_symmetry_Int_Tables_number 1

loop_
_symmetry_equiv_pos_as_xyz
'x,y,z'

loop_
_atom_site_label
_atom_site_type_symbol
_atom_site_fract_x
_atom_site_fract_y
_atom_site_fract_z
Cd11	Cd1	0.000000	0.000000	0.000000
Cd21	Cd2	0.338150	0.338150	0.676300
Cd31	Cd3	0.661850	0.661850	0.323700
H11	H1	0.898100	0.080900	0.681800
H21	H2	0.825000	0.713400	0.198800
H31	H3	0.783700	0.600900	0.681800
H41	H4	0.841500	0.497900	0.441800
H51	H5	0.399100	0.101900	0.318200
H61	H6	0.530000	0.736400	0.972000
H71	H7	0.961300	0.824700	0.446400
H81	H8	0.286600	0.626200	0.801200
H91	H9	0.919100	0.216300	0.318200
H101	H10	0.263600	0.558000	0.028000
H111	H11	0.502100	0.399700	0.558200
H121	H12	0.757200	0.598300	0.897000
H131	H13	0.701300	0.242800	0.103000
H141	H14	0.175300	0.514900	0.553600
H151	H15	0.200900	0.996000	0.737800
H161	H16	0.764400	0.470000	0.028000
H171	H17	0.401700	0.860200	0.103000
H181	H18	0.819400	0.942700	0.107400
H191	H19	0.373800	0.485400	0.198800
H201	H20	0.139800	0.298700	0.897000
H211	H21	0.442000	0.235600	0.972000
H221	H22	0.057300	0.712000	0.892600
H231	H23	0.288000	0.164700	0.107400
H241	H24	0.600300	0.943900	0.441800
H251	H25	0.536900	0.741800	0.737800
H261	H26	0.004000	0.463100	0.262200
H271	H27	0.378300	0.038700	0.553600
H281	H28	0.258200	0.799100	0.262200
H291	H29	0.056100	0.158500	0.558200
H301	H30	0.485100	0.621700	0.446400
H311	H31	0.835300	0.180600	0.892600
H321	H32	0.514600	0.175000	0.801200
C11	C1	0.149700	0.253900	0.935000
C21	C2	0.745400	0.715000	0.158400
C31	C3	0.413000	0.443400	0.158400
C41	C4	0.285000	0.587000	0.841600
C51	C5	0.380500	0.075600	0.511600
C61	C6	0.564000	0.619500	0.488400
C71	C7	0.888300	0.009800	0.618800
C81	C8	0.818700	0.870600	0.050800
C91	C9	0.864100	0.503600	0.391400
C101	C10	0.131100	0.436000	0.511600
C111	C11	0.318900	0.850300	0.065000
C121	C12	0.129400	0.767900	0.949200
C131	C13	0.964500	0.867900	0.755800
C141	C14	0.693300	0.416000	0.965000
C151	C15	0.730500	0.609000	0.618800
C161	C16	0.819800	0.181300	0.949200
C171	C17	0.112200	0.135900	0.608600
C181	C18	0.584000	0.728300	0.035000
C191	C19	0.271700	0.549000	0.965000
C201	C20	0.990200	0.269500	0.381200
C211	C21	0.191400	0.047400	0.706400
C221	C22	0.515000	0.659000	0.706400
C231	C23	0.791300	0.887900	0.755800
C241	C24	0.952600	0.485000	0.293600
C251	C25	0.527300	0.887800	0.391400
C261	C26	0.232100	0.180200	0.050800
C271	C27	0.132100	0.208700	0.244200
C281	C28	0.341000	0.808600	0.293600
C291	C29	0.112100	0.035500	0.244200
C301	C30	0.451000	0.306700	0.035000
C311	C31	0.391000	0.111700	0.381200
C321	C32	0.556600	0.254600	0.841600
C331	C33	0.746100	0.214700	0.065000
C341	C34	0.924400	0.868900	0.488400
C351	C35	0.496400	0.472700	0.608600
C361	C36	0.785300	0.681100	0.935000
N11	N1	0.117100	0.961600	0.290400
N21	N2	0.276300	0.124800	0.731200
N31	N3	0.118700	0.129500	0.988600
N41	N4	0.302900	0.480300	0.819000
N51	N5	0.608200	0.601700	0.581600
N61	N6	0.794800	0.924200	0.552600
N71	N7	0.815200	0.835100	0.468000
N81	N8	0.065100	0.177700	0.915400
N91	N9	0.098500	0.098500	0.197000
N101	N10	0.661300	0.697100	0.181000
N111	N11	0.671200	0.882900	0.709600
N121	N12	0.741400	0.235500	0.980400
N131	N13	0.950700	0.458000	0.370200
N141	N14	0.262300	0.934900	0.084600
N151	N15	0.020100	0.391800	0.418400
N161	N16	0.225100	0.183300	0.669000
N171	N17	0.367200	0.333700	0.069400
N181	N18	0.556700	0.708300	0.101000
N191	N19	0.901500	0.901500	0.803000
N201	N20	0.652800	0.632900	0.468000
N211	N21	0.239000	0.744900	0.980400
N221	N22	0.607300	0.443300	0.899000
N231	N23	0.393600	0.723700	0.268800
N241	N24	0.140900	0.881300	0.011400
N251	N25	0.702200	0.735700	0.069400
N261	N26	0.542000	0.580500	0.629800
N271	N27	0.666300	0.297800	0.930600
N281	N28	0.516100	0.338700	0.819000
N291	N29	0.764500	0.761000	0.019600
N301	N30	0.875200	0.545100	0.268800
N311	N31	0.164900	0.347200	0.532000
N321	N32	0.973400	0.979900	0.581600
N331	N33	0.255100	0.258600	0.019600
N341	N34	0.087800	0.049300	0.629800
N351	N35	0.822300	0.149700	0.084600
N361	N36	0.869900	0.859100	0.988600
N371	N37	0.291700	0.455700	0.899000
N381	N38	0.757800	0.628400	0.552600
N391	N39	0.454900	0.606400	0.731200
N401	N40	0.870500	0.130100	0.011400
N411	N41	0.419500	0.912200	0.370200
N421	N42	0.850300	0.737700	0.915400
N431	N43	0.173300	0.328800	0.290400
N441	N44	0.816700	0.556100	0.331000
N451	N45	0.514300	0.774900	0.331000
N461	N46	0.398300	0.026600	0.418400
N471	N47	0.371600	0.205200	0.447400
N481	N48	0.075800	0.242200	0.447400
N491	N49	0.264300	0.632800	0.930600
N501	N50	0.367100	0.184800	0.532000
N511	N51	0.519700	0.483900	0.181000
N521	N52	0.443900	0.485700	0.669000
N531	N53	0.544300	0.392700	0.101000
N541	N54	0.038400	0.826700	0.709600
