data_cg900505v_si_004_clean_PM
_symmetry_space_group_name_H-M	'P1'
_cell_length_a	13.062800
_cell_length_b	13.062800
_cell_length_c	13.522000
_cell_angle_alpha	90.000000
_cell_angle_beta	90.000000
_cell_angle_gamma	120.000000
_symmetry_Int_Tables_number 1

loop_
_symmetry_equiv_pos_as_xyz
'x,y,z'

loop_
_atom_site_label
_atom_site_type_symbol
_atom_site_fract_x
_atom_site_fract_y
_atom_site_fract_z
Cd11	Cd1	0.666670	0.333340	0.100950
Cd21	Cd2	0.666670	0.333340	0.399050
Cd31	Cd3	0.500000	0.500000	0.500000
Cd41	Cd4	0.333330	0.666660	0.899050
Cd51	Cd5	0.500000	0.500000	0.000000
Cd61	Cd6	0.000000	0.500000	0.500000
Cd71	Cd7	0.500000	0.000000	0.500000
Cd81	Cd8	0.333330	0.666660	0.600950
Cd91	Cd9	0.000000	0.500000	0.000000
Cd101	Cd10	0.500000	0.000000	0.000000
H11	H1	0.967000	0.258000	0.138500
H21	H2	0.208300	0.043500	0.666900
H31	H3	0.835200	0.043500	0.833100
H41	H4	0.956500	0.164800	0.666900
H51	H5	0.742000	0.709000	0.361500
H61	H6	0.411900	0.823800	0.194900
H71	H7	0.208300	0.164800	0.666900
H81	H8	0.791700	0.956500	0.166900
H91	H9	0.709000	0.967000	0.861500
H101	H10	0.291000	0.258000	0.138500
H111	H11	0.588100	0.176200	0.805100
H121	H12	0.709000	0.967000	0.638500
H131	H13	0.956500	0.791700	0.833100
H141	H14	0.291000	0.258000	0.361500
H151	H15	0.258000	0.967000	0.861500
H161	H16	0.791700	0.956500	0.333100
H171	H17	0.411900	0.823800	0.305100
H181	H18	0.956500	0.164800	0.833100
H191	H19	0.742000	0.709000	0.138500
H201	H20	0.258000	0.967000	0.638500
H211	H21	0.043500	0.208300	0.333100
H221	H22	0.967000	0.258000	0.361500
H231	H23	0.709000	0.742000	0.638500
H241	H24	0.043500	0.208300	0.166900
H251	H25	0.033000	0.291000	0.638500
H261	H26	0.164800	0.208300	0.166900
H271	H27	0.588100	0.411900	0.805100
H281	H28	0.411900	0.588100	0.305100
H291	H29	0.823800	0.411900	0.805100
H301	H30	0.033000	0.742000	0.861500
H311	H31	0.967000	0.709000	0.361500
H321	H32	0.709000	0.742000	0.861500
H331	H33	0.291000	0.033000	0.361500
H341	H34	0.258000	0.291000	0.861500
H351	H35	0.033000	0.291000	0.861500
H361	H36	0.164800	0.956500	0.333100
H371	H37	0.835200	0.791700	0.666900
H381	H38	0.176200	0.588100	0.305100
H391	H39	0.411900	0.588100	0.194900
H401	H40	0.208300	0.043500	0.833100
H411	H41	0.588100	0.411900	0.694900
H421	H42	0.043500	0.835200	0.166900
H431	H43	0.791700	0.835200	0.166900
H441	H44	0.033000	0.742000	0.638500
H451	H45	0.742000	0.033000	0.138500
H461	H46	0.258000	0.291000	0.638500
H471	H47	0.742000	0.033000	0.361500
H481	H48	0.791700	0.835200	0.333100
H491	H49	0.043500	0.835200	0.333100
H501	H50	0.823800	0.411900	0.694900
H511	H51	0.208300	0.164800	0.833100
H521	H52	0.835200	0.043500	0.666900
H531	H53	0.588100	0.176200	0.694900
H541	H54	0.164800	0.956500	0.166900
H551	H55	0.291000	0.033000	0.138500
H561	H56	0.967000	0.709000	0.138500
H571	H57	0.835200	0.791700	0.833100
H581	H58	0.176200	0.588100	0.194900
H591	H59	0.164800	0.208300	0.333100
H601	H60	0.956500	0.791700	0.666900
C11	C1	0.223300	0.349900	0.085900
C21	C2	0.650100	0.873400	0.414100
C31	C3	0.508000	0.492000	0.750000
C41	C4	0.492000	0.508000	0.250000
C51	C5	0.776700	0.126600	0.914100
C61	C6	0.126600	0.776700	0.414100
C71	C7	0.650100	0.776700	0.085900
C81	C8	0.650100	0.776700	0.414100
C91	C9	0.349900	0.126600	0.585900
C101	C10	0.984000	0.492000	0.750000
C111	C11	0.873400	0.223300	0.914100
C121	C12	0.016000	0.508000	0.250000
C131	C13	0.126600	0.776700	0.085900
C141	C14	0.650100	0.873400	0.085900
C151	C15	0.223300	0.349900	0.414100
C161	C16	0.776700	0.650100	0.585900
C171	C17	0.126600	0.349900	0.414100
C181	C18	0.776700	0.126600	0.585900
C191	C19	0.223300	0.873400	0.414100
C201	C20	0.873400	0.650100	0.914100
C211	C21	0.349900	0.223300	0.585900
C221	C22	0.492000	0.984000	0.250000
C231	C23	0.873400	0.223300	0.585900
C241	C24	0.873400	0.650100	0.585900
C251	C25	0.349900	0.126600	0.914100
C261	C26	0.349900	0.223300	0.914100
C271	C27	0.126600	0.349900	0.085900
C281	C28	0.223300	0.873400	0.085900
C291	C29	0.776700	0.650100	0.914100
C301	C30	0.508000	0.016000	0.750000
N11	N1	0.442900	0.140500	0.967200
N21	N2	0.837400	0.418700	0.205400
N31	N3	0.581300	0.418700	0.205400
N41	N4	0.773000	0.739000	0.637000
N51	N5	0.302400	0.442900	0.467200
N61	N6	0.966000	0.739000	0.637000
N71	N7	0.430900	0.569100	0.250000
N81	N8	0.248600	0.751400	0.000800
N91	N9	0.475200	0.524800	0.668000
N101	N10	0.162600	0.581300	0.705400
N111	N11	0.569100	0.138200	0.750000
N121	N12	0.442900	0.302400	0.967200
N131	N13	0.739000	0.773000	0.137000
N141	N14	0.502800	0.751400	0.499200
N151	N15	0.524800	0.049600	0.168000
N161	N16	0.557100	0.697600	0.467200
N171	N17	0.497200	0.248600	0.500800
N181	N18	0.697600	0.140500	0.967200
N191	N19	0.739000	0.773000	0.363000
N201	N20	0.751400	0.248600	0.500800
N211	N21	0.261000	0.034000	0.863000
N221	N22	0.859500	0.557100	0.967200
N231	N23	0.248600	0.497200	0.000800
N241	N24	0.248600	0.751400	0.499200
N251	N25	0.773000	0.034000	0.637000
N261	N26	0.950400	0.475200	0.168000
N271	N27	0.442900	0.140500	0.532800
N281	N28	0.302400	0.442900	0.032800
N291	N29	0.227000	0.261000	0.363000
N301	N30	0.261000	0.227000	0.637000
N311	N31	0.049600	0.524800	0.668000
N321	N32	0.248600	0.497200	0.499200
N331	N33	0.697600	0.557100	0.967200
N341	N34	0.418700	0.837400	0.794600
N351	N35	0.430900	0.861800	0.250000
N361	N36	0.837400	0.418700	0.294600
N371	N37	0.475200	0.950400	0.668000
N381	N38	0.524800	0.049600	0.332000
N391	N39	0.418700	0.581300	0.705400
N401	N40	0.966000	0.739000	0.863000
N411	N41	0.140500	0.697600	0.032800
N421	N42	0.140500	0.442900	0.032800
N431	N43	0.034000	0.261000	0.137000
N441	N44	0.475200	0.524800	0.832000
N451	N45	0.034000	0.773000	0.363000
N461	N46	0.697600	0.140500	0.532800
N471	N47	0.739000	0.966000	0.137000
N481	N48	0.581300	0.162600	0.294600
N491	N49	0.773000	0.034000	0.863000
N501	N50	0.966000	0.227000	0.637000
N511	N51	0.950400	0.475200	0.332000
N521	N52	0.442900	0.302400	0.532800
N531	N53	0.569100	0.430900	0.750000
N541	N54	0.418700	0.837400	0.705400
N551	N55	0.034000	0.773000	0.137000
N561	N56	0.227000	0.966000	0.363000
N571	N57	0.557100	0.859500	0.467200
N581	N58	0.302400	0.859500	0.032800
N591	N59	0.751400	0.248600	0.999200
N601	N60	0.261000	0.227000	0.863000
N611	N61	0.859500	0.302400	0.532800
N621	N62	0.861800	0.430900	0.750000
N631	N63	0.773000	0.739000	0.863000
N641	N64	0.227000	0.261000	0.137000
N651	N65	0.418700	0.581300	0.794600
N661	N66	0.302400	0.859500	0.467200
N671	N67	0.557100	0.859500	0.032800
N681	N68	0.227000	0.966000	0.137000
N691	N69	0.751400	0.502800	0.500800
N701	N70	0.581300	0.418700	0.294600
N711	N71	0.859500	0.557100	0.532800
N721	N72	0.138200	0.569100	0.250000
N731	N73	0.524800	0.475200	0.168000
N741	N74	0.697600	0.557100	0.532800
N751	N75	0.524800	0.475200	0.332000
N761	N76	0.502800	0.751400	0.000800
N771	N77	0.859500	0.302400	0.967200
N781	N78	0.581300	0.162600	0.205400
N791	N79	0.739000	0.966000	0.363000
N801	N80	0.497200	0.248600	0.999200
N811	N81	0.049600	0.524800	0.832000
N821	N82	0.966000	0.227000	0.863000
N831	N83	0.557100	0.697600	0.032800
N841	N84	0.034000	0.261000	0.363000
N851	N85	0.140500	0.442900	0.467200
N861	N86	0.751400	0.502800	0.999200
N871	N87	0.162600	0.581300	0.794600
N881	N88	0.140500	0.697600	0.467200
N891	N89	0.261000	0.034000	0.637000
N901	N90	0.475200	0.950400	0.832000
