data_CICSOW01_clean_PM
_symmetry_space_group_name_H-M	'P1'
_cell_length_a	10.938000
_cell_length_b	10.938000
_cell_length_c	34.555000
_cell_angle_alpha	90.000000
_cell_angle_beta	90.000000
_cell_angle_gamma	120.000000
_symmetry_Int_Tables_number 1

loop_
_symmetry_equiv_pos_as_xyz
'x,y,z'

loop_
_atom_site_label
_atom_site_type_symbol
_atom_site_fract_x
_atom_site_fract_y
_atom_site_fract_z
N11	N1	0.186200	0.083900	0.035490
N21	N2	0.210200	0.175700	0.066400
N31	N3	0.314200	0.054400	0.077300
N41	N4	0.373500	0.988300	0.097130
N51	N5	0.514900	0.911800	0.113500
N61	N6	0.388000	0.837400	0.133680
C11	C1	0.249300	0.012400	0.042600
C21	C2	0.286600	0.154300	0.091100
C31	C3	0.501900	0.000600	0.091400
C41	C4	0.306500	0.886100	0.123800
H11	H1	0.255000	0.943000	0.028000
H21	H2	0.326000	0.202000	0.115000
H31	H3	0.566000	0.067000	0.076000
H41	H4	0.212000	0.859000	0.132000
N71	N7	0.852870	0.417230	0.368820
N81	N8	0.876870	0.509030	0.399730
N91	N9	0.980870	0.387730	0.410630
N101	N10	0.040170	0.321630	0.430460
N111	N11	0.181570	0.245130	0.446830
N121	N12	0.054670	0.170730	0.467010
C51	C5	0.915970	0.345730	0.375930
C61	C6	0.953270	0.487630	0.424430
C71	C7	0.168570	0.333930	0.424730
C81	C8	0.973170	0.219430	0.457130
H51	H5	0.921670	0.276330	0.361330
H61	H6	0.992670	0.535330	0.448330
H71	H7	0.232670	0.400330	0.409330
H81	H8	0.878670	0.192330	0.465330
N131	N13	0.519530	0.750570	0.702160
N141	N14	0.543530	0.842370	0.733070
N151	N15	0.647530	0.721070	0.743970
N161	N16	0.706830	0.654970	0.763800
N171	N17	0.848230	0.578470	0.780170
N181	N18	0.721330	0.504070	0.800350
C91	C9	0.582630	0.679070	0.709270
C101	C10	0.619930	0.820970	0.757770
C111	C11	0.835230	0.667270	0.758070
C121	C12	0.639830	0.552770	0.790470
H91	H9	0.588330	0.609670	0.694670
H101	H10	0.659330	0.868670	0.781670
H111	H11	0.899330	0.733670	0.742670
H121	H12	0.545330	0.525670	0.798670
N191	N19	0.916100	0.102300	0.035490
N201	N20	0.824300	0.034500	0.066400
N211	N21	0.945600	0.259800	0.077300
N221	N22	0.011700	0.385200	0.097130
N231	N23	0.088200	0.603100	0.113500
N241	N24	0.162600	0.550600	0.133680
C131	C13	0.987600	0.236900	0.042600
C141	C14	0.845700	0.132300	0.091100
C151	C15	0.999400	0.501300	0.091400
C161	C16	0.113900	0.420400	0.123800
H131	H13	0.057000	0.312000	0.028000
H141	H14	0.798000	0.124000	0.115000
H151	H15	0.933000	0.499000	0.076000
H161	H16	0.141000	0.353000	0.132000
N251	N25	0.582770	0.435630	0.368820
N261	N26	0.490970	0.367830	0.399730
N271	N27	0.612270	0.593130	0.410630
N281	N28	0.678370	0.718530	0.430460
N291	N29	0.754870	0.936430	0.446830
N301	N30	0.829270	0.883930	0.467010
C171	C17	0.654270	0.570230	0.375930
C181	C18	0.512370	0.465630	0.424430
C191	C19	0.666070	0.834630	0.424730
C201	C20	0.780570	0.753730	0.457130
H171	H17	0.723670	0.645330	0.361330
H181	H18	0.464670	0.457330	0.448330
H191	H19	0.599670	0.832330	0.409330
H201	H20	0.807670	0.686330	0.465330
N311	N31	0.249430	0.768970	0.702160
N321	N32	0.157630	0.701170	0.733070
N331	N33	0.278930	0.926470	0.743970
N341	N34	0.345030	0.051870	0.763800
N351	N35	0.421530	0.269770	0.780170
N361	N36	0.495930	0.217270	0.800350
C211	C21	0.320930	0.903570	0.709270
C221	C22	0.179030	0.798970	0.757770
C231	C23	0.332730	0.167970	0.758070
C241	C24	0.447230	0.087070	0.790470
H211	H21	0.390330	0.978670	0.694670
H221	H22	0.131330	0.790670	0.781670
H231	H23	0.266330	0.165670	0.742670
H241	H24	0.474330	0.019670	0.798670
N371	N37	0.897700	0.813800	0.035490
N381	N38	0.965500	0.789800	0.066400
N391	N39	0.740200	0.685800	0.077300
N401	N40	0.614800	0.626500	0.097130
N411	N41	0.396900	0.485100	0.113500
N421	N42	0.449400	0.612000	0.133680
C251	C25	0.763100	0.750700	0.042600
C261	C26	0.867700	0.713400	0.091100
C271	C27	0.498700	0.498100	0.091400
C281	C28	0.579600	0.693500	0.123800
H251	H25	0.688000	0.745000	0.028000
H261	H26	0.876000	0.674000	0.115000
H271	H27	0.501000	0.434000	0.076000
H281	H28	0.647000	0.788000	0.132000
N431	N43	0.564370	0.147130	0.368820
N441	N44	0.632170	0.123130	0.399730
N451	N45	0.406870	0.019130	0.410630
N461	N46	0.281470	0.959830	0.430460
N471	N47	0.063570	0.818430	0.446830
N481	N48	0.116070	0.945330	0.467010
C291	C29	0.429770	0.084030	0.375930
C301	C30	0.534370	0.046730	0.424430
C311	C31	0.165370	0.831430	0.424730
C321	C32	0.246270	0.026830	0.457130
H291	H29	0.354670	0.078330	0.361330
H301	H30	0.542670	0.007330	0.448330
H311	H31	0.167670	0.767330	0.409330
H321	H32	0.313670	0.121330	0.465330
N491	N49	0.231030	0.480470	0.702160
N501	N50	0.298830	0.456470	0.733070
N511	N51	0.073530	0.352470	0.743970
N521	N52	0.948130	0.293170	0.763800
N531	N53	0.730230	0.151770	0.780170
N541	N54	0.782730	0.278670	0.800350
C331	C33	0.096430	0.417370	0.709270
C341	C34	0.201030	0.380070	0.757770
C351	C35	0.832030	0.164770	0.758070
C361	C36	0.912930	0.360170	0.790470
H331	H33	0.021330	0.411670	0.694670
H341	H34	0.209330	0.340670	0.781670
H351	H35	0.834330	0.100670	0.742670
H361	H36	0.980330	0.454670	0.798670
N551	N55	0.813800	0.916100	0.964510
N561	N56	0.789800	0.824300	0.933600
N571	N57	0.685800	0.945600	0.922700
N581	N58	0.626500	0.011700	0.902870
N591	N59	0.485100	0.088200	0.886500
N601	N60	0.612000	0.162600	0.866320
C371	C37	0.750700	0.987600	0.957400
C381	C38	0.713400	0.845700	0.908900
C391	C39	0.498100	0.999400	0.908600
C401	C40	0.693500	0.113900	0.876200
H371	H37	0.745000	0.057000	0.972000
H381	H38	0.674000	0.798000	0.885000
H391	H39	0.434000	0.933000	0.924000
H401	H40	0.788000	0.141000	0.868000
N611	N61	0.480470	0.249430	0.297840
N621	N62	0.456470	0.157630	0.266930
N631	N63	0.352470	0.278930	0.256030
N641	N64	0.293170	0.345030	0.236200
N651	N65	0.151770	0.421530	0.219830
N661	N66	0.278670	0.495930	0.199650
C411	C41	0.417370	0.320930	0.290730
C421	C42	0.380070	0.179030	0.242230
C431	C43	0.164770	0.332730	0.241930
C441	C44	0.360170	0.447230	0.209530
H411	H41	0.411670	0.390330	0.305330
H421	H42	0.340670	0.131330	0.218330
H431	H43	0.100670	0.266330	0.257330
H441	H44	0.454670	0.474330	0.201330
N671	N67	0.147130	0.582770	0.631180
N681	N68	0.123130	0.490970	0.600270
N691	N69	0.019130	0.612270	0.589370
N701	N70	0.959830	0.678370	0.569540
N711	N71	0.818430	0.754870	0.553170
N721	N72	0.945330	0.829270	0.532990
C451	C45	0.084030	0.654270	0.624070
C461	C46	0.046730	0.512370	0.575570
C471	C47	0.831430	0.666070	0.575270
C481	C48	0.026830	0.780570	0.542870
H451	H45	0.078330	0.723670	0.638670
H461	H46	0.007330	0.464670	0.551670
H471	H47	0.767330	0.599670	0.590670
H481	H48	0.121330	0.807670	0.534670
N731	N73	0.083900	0.897700	0.964510
N741	N74	0.175700	0.965500	0.933600
N751	N75	0.054400	0.740200	0.922700
N761	N76	0.988300	0.614800	0.902870
N771	N77	0.911800	0.396900	0.886500
N781	N78	0.837400	0.449400	0.866320
C491	C49	0.012400	0.763100	0.957400
C501	C50	0.154300	0.867700	0.908900
C511	C51	0.000600	0.498700	0.908600
C521	C52	0.886100	0.579600	0.876200
H491	H49	0.943000	0.688000	0.972000
H501	H50	0.202000	0.876000	0.885000
H511	H51	0.067000	0.501000	0.924000
H521	H52	0.859000	0.647000	0.868000
N791	N79	0.750570	0.231030	0.297840
N801	N80	0.842370	0.298830	0.266930
N811	N81	0.721070	0.073530	0.256030
N821	N82	0.654970	0.948130	0.236200
N831	N83	0.578470	0.730230	0.219830
N841	N84	0.504070	0.782730	0.199650
C531	C53	0.679070	0.096430	0.290730
C541	C54	0.820970	0.201030	0.242230
C551	C55	0.667270	0.832030	0.241930
C561	C56	0.552770	0.912930	0.209530
H531	H53	0.609670	0.021330	0.305330
H541	H54	0.868670	0.209330	0.218330
H551	H55	0.733670	0.834330	0.257330
H561	H56	0.525670	0.980330	0.201330
N851	N85	0.417230	0.564370	0.631180
N861	N86	0.509030	0.632170	0.600270
N871	N87	0.387730	0.406870	0.589370
N881	N88	0.321630	0.281470	0.569540
N891	N89	0.245130	0.063570	0.553170
N901	N90	0.170730	0.116070	0.532990
C571	C57	0.345730	0.429770	0.624070
C581	C58	0.487630	0.534370	0.575570
C591	C59	0.333930	0.165370	0.575270
C601	C60	0.219430	0.246270	0.542870
H571	H57	0.276330	0.354670	0.638670
H581	H58	0.535330	0.542670	0.551670
H591	H59	0.400330	0.167670	0.590670
H601	H60	0.192330	0.313670	0.534670
N911	N91	0.102300	0.186200	0.964510
N921	N92	0.034500	0.210200	0.933600
N931	N93	0.259800	0.314200	0.922700
N941	N94	0.385200	0.373500	0.902870
N951	N95	0.603100	0.514900	0.886500
N961	N96	0.550600	0.388000	0.866320
C611	C61	0.236900	0.249300	0.957400
C621	C62	0.132300	0.286600	0.908900
C631	C63	0.501300	0.501900	0.908600
C641	C64	0.420400	0.306500	0.876200
H611	H61	0.312000	0.255000	0.972000
H621	H62	0.124000	0.326000	0.885000
H631	H63	0.499000	0.566000	0.924000
H641	H64	0.353000	0.212000	0.868000
N971	N97	0.768970	0.519530	0.297840
N981	N98	0.701170	0.543530	0.266930
N991	N99	0.926470	0.647530	0.256030
N1001	N100	0.051870	0.706830	0.236200
N1011	N101	0.269770	0.848230	0.219830
N1021	N102	0.217270	0.721330	0.199650
C651	C65	0.903570	0.582630	0.290730
C661	C66	0.798970	0.619930	0.242230
C671	C67	0.167970	0.835230	0.241930
C681	C68	0.087070	0.639830	0.209530
H651	H65	0.978670	0.588330	0.305330
H661	H66	0.790670	0.659330	0.218330
H671	H67	0.165670	0.899330	0.257330
H681	H68	0.019670	0.545330	0.201330
N1031	N103	0.435630	0.852870	0.631180
N1041	N104	0.367830	0.876870	0.600270
N1051	N105	0.593130	0.980870	0.589370
N1061	N106	0.718530	0.040170	0.569540
N1071	N107	0.936430	0.181570	0.553170
N1081	N108	0.883930	0.054670	0.532990
C691	C69	0.570230	0.915970	0.624070
C701	C70	0.465630	0.953270	0.575570
C711	C71	0.834630	0.168570	0.575270
C721	C72	0.753730	0.973170	0.542870
H691	H69	0.645330	0.921670	0.638670
H701	H70	0.457330	0.992670	0.551670
H711	H71	0.832330	0.232670	0.590670
H721	H72	0.686330	0.878670	0.534670
Fe11	Fe1	0.000000	0.000000	0.000000
Fe21	Fe2	0.666670	0.333330	0.333330
Fe31	Fe3	0.333330	0.666670	0.666670
Fe41	Fe4	0.666670	0.333330	0.833330
Fe51	Fe5	0.333330	0.666670	0.166670
Fe61	Fe6	0.000000	0.000000	0.500000
