data_CICSOW02_clean_PM
_symmetry_space_group_name_H-M	'P1'
_cell_length_a	10.971000
_cell_length_b	10.971000
_cell_length_c	35.517000
_cell_angle_alpha	90.000000
_cell_angle_beta	90.000000
_cell_angle_gamma	120.000000
_symmetry_Int_Tables_number 1

loop_
_symmetry_equiv_pos_as_xyz
'x,y,z'

loop_
_atom_site_label
_atom_site_type_symbol
_atom_site_fract_x
_atom_site_fract_y
_atom_site_fract_z
N11	N1	0.186700	0.084100	0.034650
N21	N2	0.209700	0.175200	0.064530
N31	N3	0.313700	0.055300	0.075560
N41	N4	0.374700	0.991800	0.094840
N51	N5	0.520100	0.923400	0.111700
N61	N6	0.397600	0.852200	0.132450
C11	C1	0.248900	0.013200	0.041900
C21	C2	0.284900	0.154500	0.088700
C31	C3	0.503200	0.005600	0.089100
C41	C4	0.312900	0.895400	0.122000
H11	H1	0.252000	0.944000	0.026000
H21	H2	0.320000	0.200000	0.112000
H31	H3	0.570000	0.064000	0.070000
H41	H4	0.221000	0.866000	0.128000
N71	N7	0.853370	0.417430	0.367980
N81	N8	0.876370	0.508530	0.397860
N91	N9	0.980370	0.388630	0.408890
N101	N10	0.041370	0.325130	0.428170
N111	N11	0.186770	0.256730	0.445030
N121	N12	0.064270	0.185530	0.465780
C51	C5	0.915570	0.346530	0.375230
C61	C6	0.951570	0.487830	0.422030
C71	C7	0.169870	0.338930	0.422430
C81	C8	0.979570	0.228730	0.455330
H51	H5	0.918670	0.277330	0.359330
H61	H6	0.986670	0.533330	0.445330
H71	H7	0.236670	0.397330	0.403330
H81	H8	0.887670	0.199330	0.461330
N131	N13	0.520030	0.750770	0.701320
N141	N14	0.543030	0.841870	0.731200
N151	N15	0.647030	0.721970	0.742230
N161	N16	0.708030	0.658470	0.761510
N171	N17	0.853430	0.590070	0.778370
N181	N18	0.730930	0.518870	0.799120
C91	C9	0.582230	0.679870	0.708570
C101	C10	0.618230	0.821170	0.755370
C111	C11	0.836530	0.672270	0.755770
C121	C12	0.646230	0.562070	0.788670
H91	H9	0.585330	0.610670	0.692670
H101	H10	0.653330	0.866670	0.778670
H111	H11	0.903330	0.730670	0.736670
H121	H12	0.554330	0.532670	0.794670
N191	N19	0.915900	0.102600	0.034650
N201	N20	0.824800	0.034500	0.064530
N211	N21	0.944700	0.258400	0.075560
N221	N22	0.008200	0.382900	0.094840
N231	N23	0.076600	0.596700	0.111700
N241	N24	0.147800	0.545400	0.132450
C131	C13	0.986800	0.235700	0.041900
C141	C14	0.845500	0.130400	0.088700
C151	C15	0.994400	0.497600	0.089100
C161	C16	0.104600	0.417500	0.122000
H131	H13	0.056000	0.308000	0.026000
H141	H14	0.800000	0.120000	0.112000
H151	H15	0.936000	0.506000	0.070000
H161	H16	0.134000	0.355000	0.128000
N251	N25	0.582570	0.435930	0.367980
N261	N26	0.491470	0.367830	0.397860
N271	N27	0.611370	0.591730	0.408890
N281	N28	0.674870	0.716230	0.428170
N291	N29	0.743270	0.930030	0.445030
N301	N30	0.814470	0.878730	0.465780
C171	C17	0.653470	0.569030	0.375230
C181	C18	0.512170	0.463730	0.422030
C191	C19	0.661070	0.830930	0.422430
C201	C20	0.771270	0.750830	0.455330
H171	H17	0.722670	0.641330	0.359330
H181	H18	0.466670	0.453330	0.445330
H191	H19	0.602670	0.839330	0.403330
H201	H20	0.800670	0.688330	0.461330
N311	N31	0.249230	0.769270	0.701320
N321	N32	0.158130	0.701170	0.731200
N331	N33	0.278030	0.925070	0.742230
N341	N34	0.341530	0.049570	0.761510
N351	N35	0.409930	0.263370	0.778370
N361	N36	0.481130	0.212070	0.799120
C211	C21	0.320130	0.902370	0.708570
C221	C22	0.178830	0.797070	0.755370
C231	C23	0.327730	0.164270	0.755770
C241	C24	0.437930	0.084170	0.788670
H211	H21	0.389330	0.974670	0.692670
H221	H22	0.133330	0.786670	0.778670
H231	H23	0.269330	0.172670	0.736670
H241	H24	0.467330	0.021670	0.794670
N371	N37	0.897400	0.813300	0.034650
N381	N38	0.965500	0.790300	0.064530
N391	N39	0.741600	0.686300	0.075560
N401	N40	0.617100	0.625300	0.094840
N411	N41	0.403300	0.479900	0.111700
N421	N42	0.454600	0.602400	0.132450
C251	C25	0.764300	0.751100	0.041900
C261	C26	0.869600	0.715100	0.088700
C271	C27	0.502400	0.496800	0.089100
C281	C28	0.582500	0.687100	0.122000
H251	H25	0.692000	0.748000	0.026000
H261	H26	0.880000	0.680000	0.112000
H271	H27	0.494000	0.430000	0.070000
H281	H28	0.645000	0.779000	0.128000
N431	N43	0.564070	0.146630	0.367980
N441	N44	0.632170	0.123630	0.397860
N451	N45	0.408270	0.019630	0.408890
N461	N46	0.283770	0.958630	0.428170
N471	N47	0.069970	0.813230	0.445030
N481	N48	0.121270	0.935730	0.465780
C291	C29	0.430970	0.084430	0.375230
C301	C30	0.536270	0.048430	0.422030
C311	C31	0.169070	0.830130	0.422430
C321	C32	0.249170	0.020430	0.455330
H291	H29	0.358670	0.081330	0.359330
H301	H30	0.546670	0.013330	0.445330
H311	H31	0.160670	0.763330	0.403330
H321	H32	0.311670	0.112330	0.461330
N491	N49	0.230730	0.479970	0.701320
N501	N50	0.298830	0.456970	0.731200
N511	N51	0.074930	0.352970	0.742230
N521	N52	0.950430	0.291970	0.761510
N531	N53	0.736630	0.146570	0.778370
N541	N54	0.787930	0.269070	0.799120
C331	C33	0.097630	0.417770	0.708570
C341	C34	0.202930	0.381770	0.755370
C351	C35	0.835730	0.163470	0.755770
C361	C36	0.915830	0.353770	0.788670
H331	H33	0.025330	0.414670	0.692670
H341	H34	0.213330	0.346670	0.778670
H351	H35	0.827330	0.096670	0.736670
H361	H36	0.978330	0.445670	0.794670
N551	N55	0.813300	0.915900	0.965350
N561	N56	0.790300	0.824800	0.935470
N571	N57	0.686300	0.944700	0.924440
N581	N58	0.625300	0.008200	0.905160
N591	N59	0.479900	0.076600	0.888300
N601	N60	0.602400	0.147800	0.867550
C371	C37	0.751100	0.986800	0.958100
C381	C38	0.715100	0.845500	0.911300
C391	C39	0.496800	0.994400	0.910900
C401	C40	0.687100	0.104600	0.878000
H371	H37	0.748000	0.056000	0.974000
H381	H38	0.680000	0.800000	0.888000
H391	H39	0.430000	0.936000	0.930000
H401	H40	0.779000	0.134000	0.872000
N611	N61	0.479970	0.249230	0.298680
N621	N62	0.456970	0.158130	0.268800
N631	N63	0.352970	0.278030	0.257770
N641	N64	0.291970	0.341530	0.238490
N651	N65	0.146570	0.409930	0.221630
N661	N66	0.269070	0.481130	0.200880
C411	C41	0.417770	0.320130	0.291430
C421	C42	0.381770	0.178830	0.244630
C431	C43	0.163470	0.327730	0.244230
C441	C44	0.353770	0.437930	0.211330
H411	H41	0.414670	0.389330	0.307330
H421	H42	0.346670	0.133330	0.221330
H431	H43	0.096670	0.269330	0.263330
H441	H44	0.445670	0.467330	0.205330
N671	N67	0.146630	0.582570	0.632020
N681	N68	0.123630	0.491470	0.602140
N691	N69	0.019630	0.611370	0.591110
N701	N70	0.958630	0.674870	0.571830
N711	N71	0.813230	0.743270	0.554970
N721	N72	0.935730	0.814470	0.534220
C451	C45	0.084430	0.653470	0.624770
C461	C46	0.048430	0.512170	0.577970
C471	C47	0.830130	0.661070	0.577570
C481	C48	0.020430	0.771270	0.544670
H451	H45	0.081330	0.722670	0.640670
H461	H46	0.013330	0.466670	0.554670
H471	H47	0.763330	0.602670	0.596670
H481	H48	0.112330	0.800670	0.538670
N731	N73	0.084100	0.897400	0.965350
N741	N74	0.175200	0.965500	0.935470
N751	N75	0.055300	0.741600	0.924440
N761	N76	0.991800	0.617100	0.905160
N771	N77	0.923400	0.403300	0.888300
N781	N78	0.852200	0.454600	0.867550
C491	C49	0.013200	0.764300	0.958100
C501	C50	0.154500	0.869600	0.911300
C511	C51	0.005600	0.502400	0.910900
C521	C52	0.895400	0.582500	0.878000
H491	H49	0.944000	0.692000	0.974000
H501	H50	0.200000	0.880000	0.888000
H511	H51	0.064000	0.494000	0.930000
H521	H52	0.866000	0.645000	0.872000
N791	N79	0.750770	0.230730	0.298680
N801	N80	0.841870	0.298830	0.268800
N811	N81	0.721970	0.074930	0.257770
N821	N82	0.658470	0.950430	0.238490
N831	N83	0.590070	0.736630	0.221630
N841	N84	0.518870	0.787930	0.200880
C531	C53	0.679870	0.097630	0.291430
C541	C54	0.821170	0.202930	0.244630
C551	C55	0.672270	0.835730	0.244230
C561	C56	0.562070	0.915830	0.211330
H531	H53	0.610670	0.025330	0.307330
H541	H54	0.866670	0.213330	0.221330
H551	H55	0.730670	0.827330	0.263330
H561	H56	0.532670	0.978330	0.205330
N851	N85	0.417430	0.564070	0.632020
N861	N86	0.508530	0.632170	0.602140
N871	N87	0.388630	0.408270	0.591110
N881	N88	0.325130	0.283770	0.571830
N891	N89	0.256730	0.069970	0.554970
N901	N90	0.185530	0.121270	0.534220
C571	C57	0.346530	0.430970	0.624770
C581	C58	0.487830	0.536270	0.577970
C591	C59	0.338930	0.169070	0.577570
C601	C60	0.228730	0.249170	0.544670
H571	H57	0.277330	0.358670	0.640670
H581	H58	0.533330	0.546670	0.554670
H591	H59	0.397330	0.160670	0.596670
H601	H60	0.199330	0.311670	0.538670
N911	N91	0.102600	0.186700	0.965350
N921	N92	0.034500	0.209700	0.935470
N931	N93	0.258400	0.313700	0.924440
N941	N94	0.382900	0.374700	0.905160
N951	N95	0.596700	0.520100	0.888300
N961	N96	0.545400	0.397600	0.867550
C611	C61	0.235700	0.248900	0.958100
C621	C62	0.130400	0.284900	0.911300
C631	C63	0.497600	0.503200	0.910900
C641	C64	0.417500	0.312900	0.878000
H611	H61	0.308000	0.252000	0.974000
H621	H62	0.120000	0.320000	0.888000
H631	H63	0.506000	0.570000	0.930000
H641	H64	0.355000	0.221000	0.872000
N971	N97	0.769270	0.520030	0.298680
N981	N98	0.701170	0.543030	0.268800
N991	N99	0.925070	0.647030	0.257770
N1001	N100	0.049570	0.708030	0.238490
N1011	N101	0.263370	0.853430	0.221630
N1021	N102	0.212070	0.730930	0.200880
C651	C65	0.902370	0.582230	0.291430
C661	C66	0.797070	0.618230	0.244630
C671	C67	0.164270	0.836530	0.244230
C681	C68	0.084170	0.646230	0.211330
H651	H65	0.974670	0.585330	0.307330
H661	H66	0.786670	0.653330	0.221330
H671	H67	0.172670	0.903330	0.263330
H681	H68	0.021670	0.554330	0.205330
N1031	N103	0.435930	0.853370	0.632020
N1041	N104	0.367830	0.876370	0.602140
N1051	N105	0.591730	0.980370	0.591110
N1061	N106	0.716230	0.041370	0.571830
N1071	N107	0.930030	0.186770	0.554970
N1081	N108	0.878730	0.064270	0.534220
C691	C69	0.569030	0.915570	0.624770
C701	C70	0.463730	0.951570	0.577970
C711	C71	0.830930	0.169870	0.577570
C721	C72	0.750830	0.979570	0.544670
H691	H69	0.641330	0.918670	0.640670
H701	H70	0.453330	0.986670	0.554670
H711	H71	0.839330	0.236670	0.596670
H721	H72	0.688330	0.887670	0.538670
Fe11	Fe1	0.000000	0.000000	0.000000
Fe21	Fe2	0.666670	0.333330	0.333330
Fe31	Fe3	0.333330	0.666670	0.666670
Fe41	Fe4	0.666670	0.333330	0.833330
Fe51	Fe5	0.333330	0.666670	0.166670
Fe61	Fe6	0.000000	0.000000	0.500000
