data_CICYIX_clean_PM
_symmetry_space_group_name_H-M	'P1'
_cell_length_a	5.326200
_cell_length_b	6.288500
_cell_length_c	8.100800
_cell_angle_alpha	97.733000
_cell_angle_beta	105.055000
_cell_angle_gamma	110.436000
_symmetry_Int_Tables_number 1

loop_
_symmetry_equiv_pos_as_xyz
'x,y,z'

loop_
_atom_site_label
_atom_site_type_symbol
_atom_site_fract_x
_atom_site_fract_y
_atom_site_fract_z
Cd11	Cd1	0.000000	0.500000	0.000000
H11	H1	0.337100	0.557300	0.421200
H21	H2	0.985200	0.032300	0.498500
C11	C1	0.498100	0.774900	0.659900
C21	C2	0.705700	0.681800	0.749300
C31	C3	0.324000	0.683600	0.492100
C41	C4	0.117200	0.773700	0.417400
C51	C5	0.116700	0.964200	0.536900
C61	C6	0.301700	0.047100	0.703300
C71	C7	0.313700	0.243800	0.839200
O11	O1	0.495000	0.959500	0.766900
O21	O2	0.862600	0.784800	0.907300
O31	O3	0.702500	0.500500	0.664000
O41	O4	0.950700	0.691000	0.262300
O51	O5	0.523700	0.330600	0.977300
O61	O6	0.104200	0.295700	0.798400
