data_CIFDUS_clean_PM
_symmetry_space_group_name_H-M	'P1'
_cell_length_a	11.667100
_cell_length_b	11.667100
_cell_length_c	20.986900
_cell_angle_alpha	95.856600
_cell_angle_beta	95.856600
_cell_angle_gamma	104.276000
_symmetry_Int_Tables_number 1

loop_
_symmetry_equiv_pos_as_xyz
'x,y,z'

loop_
_atom_site_label
_atom_site_type_symbol
_atom_site_fract_x
_atom_site_fract_y
_atom_site_fract_z
Mn11	Mn1	0.520930	0.032030	0.812890
Mn21	Mn2	0.967970	0.479070	0.687110
Mn31	Mn3	0.479070	0.967970	0.187110
Mn41	Mn4	0.032030	0.520930	0.312890
Mn51	Mn5	0.752070	0.247930	0.750000
Mn61	Mn6	0.247930	0.752070	0.250000
H11	H1	0.647700	0.037300	0.608300
H21	H2	0.303600	0.036200	0.606300
H31	H3	0.275400	0.006200	0.496000
H41	H4	0.736700	0.501500	0.915700
H51	H5	0.720100	0.630500	0.002000
H61	H6	0.403000	0.306000	0.917200
H71	H7	0.999800	0.224400	0.528500
H81	H8	0.888600	0.980200	0.644200
H91	H9	0.929500	0.836700	0.575000
H101	H10	0.962700	0.352300	0.891700
H111	H11	0.963800	0.696400	0.893700
H121	H12	0.993800	0.724600	0.004000
H131	H13	0.498500	0.263300	0.584300
H141	H14	0.369500	0.279900	0.498000
H151	H15	0.694000	0.597000	0.582800
H161	H16	0.775600	0.000200	0.971500
H171	H17	0.019800	0.111400	0.855800
H181	H18	0.163300	0.070500	0.925000
H191	H19	0.352300	0.962700	0.391700
H201	H20	0.696400	0.963800	0.393700
H211	H21	0.724600	0.993800	0.504000
H221	H22	0.263300	0.498500	0.084300
H231	H23	0.279900	0.369500	0.998000
H241	H24	0.597000	0.694000	0.082800
H251	H25	0.000200	0.775600	0.471500
H261	H26	0.111400	0.019800	0.355800
H271	H27	0.070500	0.163300	0.425000
H281	H28	0.037300	0.647700	0.108300
H291	H29	0.036200	0.303600	0.106300
H301	H30	0.006200	0.275400	0.996000
H311	H31	0.501500	0.736700	0.415700
H321	H32	0.630500	0.720100	0.502000
H331	H33	0.306000	0.403000	0.417200
H341	H34	0.224400	0.999800	0.028500
H351	H35	0.980200	0.888600	0.144200
H361	H36	0.836700	0.929500	0.075000
C11	C1	0.495380	0.051700	0.690480
C21	C2	0.480720	0.038660	0.618180
C31	C3	0.572780	0.028480	0.585490
C41	C4	0.557190	0.004750	0.517260
C51	C5	0.366790	0.029210	0.583860
C61	C6	0.349800	0.009840	0.518060
C71	C7	0.585400	0.301460	0.854380
C81	C8	0.570480	0.389420	0.908630
C91	C9	0.665990	0.488610	0.933990
C101	C10	0.655820	0.566180	0.985200
C111	C11	0.465980	0.371300	0.934380
C121	C12	0.451790	0.450530	0.987040
C131	C13	0.910320	0.211660	0.638450
C141	C14	0.940630	0.118270	0.592770
C151	C15	0.985360	0.146060	0.537410
C161	C16	0.010500	0.058820	0.492920
C171	C17	0.919410	0.000050	0.606450
C181	C18	0.943530	0.914350	0.565020
C191	C19	0.948300	0.504620	0.809520
C201	C20	0.961340	0.519280	0.881820
C211	C21	0.971520	0.427220	0.914510
C221	C22	0.995250	0.442810	0.982740
C231	C23	0.970790	0.633210	0.916140
C241	C24	0.990160	0.650200	0.981940
C251	C25	0.698540	0.414600	0.645620
C261	C26	0.610580	0.429520	0.591370
C271	C27	0.511390	0.334010	0.566010
C281	C28	0.433820	0.344180	0.514800
C291	C29	0.628700	0.534020	0.565620
C301	C30	0.549470	0.548210	0.512960
C311	C31	0.788340	0.089680	0.861550
C321	C32	0.881730	0.059370	0.907230
C331	C33	0.853940	0.014640	0.962590
C341	C34	0.941180	0.989500	0.007080
C351	C35	0.999950	0.080590	0.893550
C361	C36	0.085650	0.056470	0.934980
C371	C37	0.504620	0.948300	0.309520
C381	C38	0.519280	0.961340	0.381820
C391	C39	0.427220	0.971520	0.414510
C401	C40	0.442810	0.995250	0.482740
C411	C41	0.633210	0.970790	0.416140
C421	C42	0.650200	0.990160	0.481940
C431	C43	0.414600	0.698540	0.145620
C441	C44	0.429520	0.610580	0.091370
C451	C45	0.334010	0.511390	0.066010
C461	C46	0.344180	0.433820	0.014800
C471	C47	0.534020	0.628700	0.065620
C481	C48	0.548210	0.549470	0.012960
C491	C49	0.089680	0.788340	0.361550
C501	C50	0.059370	0.881730	0.407230
C511	C51	0.014640	0.853940	0.462590
C521	C52	0.989500	0.941180	0.507080
C531	C53	0.080590	0.999950	0.393550
C541	C54	0.056470	0.085650	0.434980
C551	C55	0.051700	0.495380	0.190480
C561	C56	0.038660	0.480720	0.118180
C571	C57	0.028480	0.572780	0.085490
C581	C58	0.004750	0.557190	0.017260
C591	C59	0.029210	0.366790	0.083860
C601	C60	0.009840	0.349800	0.018060
C611	C61	0.301460	0.585400	0.354380
C621	C62	0.389420	0.570480	0.408630
C631	C63	0.488610	0.665990	0.433990
C641	C64	0.566180	0.655820	0.485200
C651	C65	0.371300	0.465980	0.434380
C661	C66	0.450530	0.451790	0.487040
C671	C67	0.211660	0.910320	0.138450
C681	C68	0.118270	0.940630	0.092770
C691	C69	0.146060	0.985360	0.037410
C701	C70	0.058820	0.010500	0.992920
C711	C71	0.000050	0.919410	0.106450
C721	C72	0.914350	0.943530	0.065020
O11	O1	0.600350	0.086870	0.721760
O21	O2	0.406070	0.020890	0.718350
O31	O3	0.672370	0.331210	0.824390
O41	O4	0.507600	0.203400	0.844050
O51	O5	0.850930	0.176070	0.681580
O61	O6	0.947840	0.317860	0.628360
O71	O7	0.913130	0.399650	0.778240
O81	O8	0.979110	0.593930	0.781650
O91	O9	0.668790	0.327630	0.675610
O101	O10	0.796600	0.492400	0.655950
O111	O11	0.823930	0.149070	0.818420
O121	O12	0.682140	0.052160	0.871640
O131	O13	0.399650	0.913130	0.278240
O141	O14	0.593930	0.979110	0.281650
O151	O15	0.327630	0.668790	0.175610
O161	O16	0.492400	0.796600	0.155950
O171	O17	0.149070	0.823930	0.318420
O181	O18	0.052160	0.682140	0.371640
O191	O19	0.086870	0.600350	0.221760
O201	O20	0.020890	0.406070	0.218350
O211	O21	0.331210	0.672370	0.324390
O221	O22	0.203400	0.507600	0.344050
O231	O23	0.176070	0.850930	0.181580
O241	O24	0.317860	0.947840	0.128360
