data_CIFJAE_clean_PM
_symmetry_space_group_name_H-M	'P1'
_cell_length_a	10.317700
_cell_length_b	10.317700
_cell_length_c	12.652700
_cell_angle_alpha	100.754000
_cell_angle_beta	100.754000
_cell_angle_gamma	104.730000
_symmetry_Int_Tables_number 1

loop_
_symmetry_equiv_pos_as_xyz
'x,y,z'

loop_
_atom_site_label
_atom_site_type_symbol
_atom_site_fract_x
_atom_site_fract_y
_atom_site_fract_z
Mn11	Mn1	0.772860	0.378520	0.901470
Mn21	Mn2	0.621480	0.227140	0.598530
Mn31	Mn3	0.227140	0.621480	0.098530
Mn41	Mn4	0.378520	0.772860	0.401470
H11	H1	0.614900	0.672900	0.590700
H21	H2	0.827700	0.038100	0.802400
H31	H3	0.923500	0.925500	0.921500
H41	H4	0.869800	0.688200	0.875500
H51	H5	0.327100	0.385100	0.909300
H61	H6	0.961900	0.172300	0.697600
H71	H7	0.074500	0.076500	0.578500
H81	H8	0.311800	0.130200	0.624500
H91	H9	0.385100	0.327100	0.409300
H101	H10	0.172300	0.961900	0.197600
H111	H11	0.076500	0.074500	0.078500
H121	H12	0.130200	0.311800	0.124500
H131	H13	0.672900	0.614900	0.090700
H141	H14	0.038100	0.827700	0.302400
H151	H15	0.925500	0.923500	0.421500
H161	H16	0.688200	0.869800	0.375500
C11	C1	0.736910	0.656890	0.728900
C21	C2	0.678250	0.724150	0.657000
C31	C3	0.712950	0.866850	0.683200
C41	C4	0.804800	0.942200	0.783300
C51	C5	0.862000	0.874600	0.854300
C61	C6	0.829300	0.732700	0.827300
C71	C7	0.701380	0.502420	0.698500
C81	C8	0.650920	0.939480	0.604800
C91	C9	0.343110	0.263090	0.771100
C101	C10	0.275850	0.321750	0.843000
C111	C11	0.133150	0.287050	0.816800
C121	C12	0.057800	0.195200	0.716700
C131	C13	0.125400	0.138000	0.645700
C141	C14	0.267300	0.170700	0.672700
C151	C15	0.497580	0.298620	0.801500
C161	C16	0.060520	0.349080	0.895200
C171	C17	0.263090	0.343110	0.271100
C181	C18	0.321750	0.275850	0.343000
C191	C19	0.287050	0.133150	0.316800
C201	C20	0.195200	0.057800	0.216700
C211	C21	0.138000	0.125400	0.145700
C221	C22	0.170700	0.267300	0.172700
C231	C23	0.298620	0.497580	0.301500
C241	C24	0.349080	0.060520	0.395200
C251	C25	0.656890	0.736910	0.228900
C261	C26	0.724150	0.678250	0.157000
C271	C27	0.866850	0.712950	0.183200
C281	C28	0.942200	0.804800	0.283300
C291	C29	0.874600	0.862000	0.354300
C301	C30	0.732700	0.829300	0.327300
C311	C31	0.502420	0.701380	0.198500
C321	C32	0.939480	0.650920	0.104800
O11	O1	0.780400	0.447280	0.750000
O21	O2	0.598320	0.434060	0.622250
O31	O3	0.556690	0.868190	0.524480
O41	O4	0.700590	0.067270	0.626000
O51	O5	0.552720	0.219600	0.750000
O61	O6	0.565940	0.401680	0.877750
O71	O7	0.131810	0.443310	0.975520
O81	O8	0.932730	0.299410	0.874000
O91	O9	0.219600	0.552720	0.250000
O101	O10	0.401680	0.565940	0.377750
O111	O11	0.443310	0.131810	0.475520
O121	O12	0.299410	0.932730	0.374000
O131	O13	0.447280	0.780400	0.250000
O141	O14	0.434060	0.598320	0.122250
O151	O15	0.868190	0.556690	0.024480
O161	O16	0.067270	0.700590	0.126000
