data_CIFLUA_clean_PM
_symmetry_space_group_name_H-M	'P1'
_cell_length_a	18.490000
_cell_length_b	27.509000
_cell_length_c	22.860000
_cell_angle_alpha	90.000000
_cell_angle_beta	123.230000
_cell_angle_gamma	90.000000
_symmetry_Int_Tables_number 1

loop_
_symmetry_equiv_pos_as_xyz
'x,y,z'

loop_
_atom_site_label
_atom_site_type_symbol
_atom_site_fract_x
_atom_site_fract_y
_atom_site_fract_z
O11	O1	0.342300	0.210300	0.551000
O21	O2	0.273700	0.220200	0.435400
C11	C1	0.296800	0.233800	0.495900
O31	O3	0.536500	0.638200	0.197800
O41	O4	0.543500	0.577800	0.139100
C21	C2	0.508000	0.598900	0.166800
C31	C3	0.432100	0.575500	0.161800
C41	C4	0.385900	0.599400	0.182900
H11	H1	0.399800	0.631300	0.198400
C51	C5	0.317800	0.576400	0.181500
H21	H2	0.287100	0.593000	0.196600
C61	C6	0.295600	0.529100	0.157900
C71	C7	0.223900	0.503200	0.156500
C81	C8	0.146600	0.525700	0.132400
H31	H3	0.138700	0.558000	0.117900
C91	C9	0.077800	0.499500	0.129600
C101	C10	0.992000	0.524000	0.097000
C111	C11	0.957500	0.549800	0.034500
H41	H4	0.987600	0.550800	0.012600
C121	C12	0.880500	0.573700	0.005100
H51	H5	0.858500	0.590300	0.963300
C131	C13	0.834000	0.573400	0.037100
O51	O5	0.509100	0.644300	0.841200
O61	O6	0.525000	0.577900	0.898700
C141	C14	0.487100	0.600700	0.842000
C151	C15	0.416500	0.577000	0.776800
C161	C16	0.376800	0.601700	0.714800
H61	H6	0.390900	0.634100	0.714100
C171	C17	0.313400	0.577900	0.650800
H71	H7	0.287400	0.594300	0.608300
C181	C18	0.291900	0.531100	0.653200
C191	C19	0.233800	0.503600	0.586300
C201	C20	0.158800	0.525500	0.530500
H81	H8	0.143800	0.556800	0.535400
C211	C21	0.107200	0.500700	0.468300
C221	C22	0.026800	0.524000	0.411700
C231	C23	0.971000	0.548100	0.423300
H91	H9	0.985400	0.549900	0.469100
C241	C24	0.895400	0.569900	0.372400
H101	H10	0.859200	0.585400	0.382900
C251	C25	0.875400	0.567800	0.303900
C261	C26	0.250500	0.456100	0.578300
H111	H11	0.298800	0.440900	0.615600
C271	C27	0.794200	0.592500	0.247100
O71	O7	0.738000	0.606100	0.259000
C281	C28	0.252900	0.228700	0.270100
C291	C29	0.150700	0.353900	0.229500
H121	H12	0.114800	0.371500	0.238400
C301	C30	0.169800	0.305900	0.250700
H131	H13	0.144700	0.291300	0.272200
C311	C31	0.224800	0.279700	0.240700
C321	C32	0.256700	0.300800	0.204200
H141	H14	0.292000	0.283000	0.194900
C331	C33	0.236000	0.348300	0.181800
H151	H15	0.257400	0.362000	0.157100
C341	C34	0.406800	0.527300	0.134800
H161	H16	0.435300	0.511100	0.117300
C351	C35	0.340700	0.505100	0.134800
H171	H17	0.325900	0.473200	0.118900
C361	C36	0.234800	0.455100	0.176500
H181	H18	0.287100	0.440000	0.191200
C371	C37	0.169600	0.428100	0.175500
C381	C38	0.090600	0.451900	0.151300
H191	H19	0.046100	0.435100	0.150000
C391	C39	0.867200	0.548200	0.097900
H201	H20	0.837500	0.548200	0.120000
C401	C40	0.943500	0.522800	0.127400
H211	H21	0.963100	0.504600	0.167700
O81	O8	0.216400	0.207600	0.294800
O91	O9	0.317800	0.211600	0.269800
C411	C41	0.184300	0.375900	0.195200
Co11	Co1	0.638850	0.646380	0.192760
Co21	Co2	0.609810	0.644710	0.945250
Co31	Co3	0.754010	0.659640	0.123830
O101	O10	0.711500	0.609800	0.939500
O111	O11	0.719200	0.612600	0.038100
O121	O12	0.789400	0.600500	0.189500
O131	O13	0.624900	0.652900	0.094800
O141	O14	0.535100	0.661100	0.982700
C421	C42	0.750600	0.600300	0.003200
C431	C43	0.928200	0.542700	0.288300
H221	H22	0.913500	0.540100	0.242500
C441	C44	0.003100	0.521700	0.342800
H231	H23	0.039100	0.505400	0.332800
C451	C45	0.128600	0.453300	0.462700
H241	H24	0.094400	0.436800	0.420500
C461	C46	0.198900	0.430100	0.517600
C471	C47	0.330700	0.506800	0.718400
H251	H25	0.314300	0.475200	0.720600
C481	C48	0.391800	0.530000	0.777600
H261	H26	0.417800	0.513600	0.820100
C491	C49	0.222700	0.379800	0.511400
C501	C50	0.263400	0.347800	0.570800
H271	H27	0.274900	0.358800	0.613500
C511	C51	0.285200	0.301900	0.565400
H281	H28	0.311900	0.281700	0.604400
C521	C52	0.267600	0.284600	0.500900
C531	C53	0.229200	0.314500	0.444400
H291	H29	0.218700	0.303200	0.402100
C541	C54	0.205600	0.361300	0.448600
H301	H30	0.177700	0.380700	0.408800
C551	C55	0.552700	0.661300	0.043400
H311	H31	0.508600	0.668200	0.050300
O151	O15	0.657700	0.710300	0.949000
O161	O16	0.726300	0.720200	0.064600
C561	C56	0.703200	0.733800	0.004100
O171	O17	0.463500	0.138200	0.302200
O181	O18	0.456500	0.077800	0.360900
C571	C57	0.492000	0.098900	0.333200
C581	C58	0.567900	0.075500	0.338200
C591	C59	0.614100	0.099400	0.317100
H321	H32	0.600200	0.131300	0.301600
C601	C60	0.682200	0.076400	0.318500
H331	H33	0.712900	0.093000	0.303400
C611	C61	0.704400	0.029100	0.342100
C621	C62	0.776100	0.003200	0.343500
C631	C63	0.853400	0.025700	0.367600
H341	H34	0.861300	0.058000	0.382100
C641	C64	0.922200	0.999500	0.370400
C651	C65	0.008000	0.024000	0.403000
C661	C66	0.042500	0.049800	0.465500
H351	H35	0.012400	0.050800	0.487400
C671	C67	0.119500	0.073700	0.494900
H361	H36	0.141500	0.090300	0.536700
C681	C68	0.166000	0.073400	0.462900
O191	O19	0.490900	0.144300	0.658800
O201	O20	0.475000	0.077900	0.601300
C691	C69	0.512900	0.100700	0.658000
C701	C70	0.583500	0.077000	0.723200
C711	C71	0.623200	0.101700	0.785200
H371	H37	0.609100	0.134100	0.785900
C721	C72	0.686600	0.077900	0.849200
H381	H38	0.712600	0.094300	0.891700
C731	C73	0.708100	0.031100	0.846800
C741	C74	0.766200	0.003600	0.913700
C751	C75	0.841200	0.025500	0.969500
H391	H39	0.856200	0.056800	0.964600
C761	C76	0.892800	0.000700	0.031700
C771	C77	0.973200	0.024000	0.088300
C781	C78	0.029000	0.048100	0.076700
H401	H40	0.014600	0.049900	0.030900
C791	C79	0.104600	0.069900	0.127600
H411	H41	0.140800	0.085400	0.117100
C801	C80	0.124600	0.067800	0.196100
C811	C81	0.749500	0.956100	0.921700
H421	H42	0.701200	0.940900	0.884400
C821	C82	0.205800	0.092500	0.252900
O211	O21	0.262000	0.106100	0.241000
C831	C83	0.747100	0.728700	0.229900
C841	C84	0.849300	0.853900	0.270500
H431	H43	0.885200	0.871500	0.261600
C851	C85	0.830200	0.805900	0.249300
H441	H44	0.855300	0.791300	0.227800
C861	C86	0.775200	0.779700	0.259300
C871	C87	0.743300	0.800800	0.295800
H451	H45	0.708000	0.783000	0.305100
C881	C88	0.764000	0.848300	0.318200
H461	H46	0.742600	0.862000	0.342900
C891	C89	0.593200	0.027300	0.365200
H471	H47	0.564700	0.011100	0.382700
C901	C90	0.659300	0.005100	0.365200
H481	H48	0.674100	0.973200	0.381100
C911	C91	0.765200	0.955100	0.323500
H491	H49	0.712900	0.940000	0.308800
C921	C92	0.830400	0.928100	0.324500
C931	C93	0.909400	0.951900	0.348700
H501	H50	0.953900	0.935100	0.350000
C941	C94	0.132800	0.048200	0.402100
H511	H51	0.162500	0.048200	0.380000
C951	C95	0.056500	0.022800	0.372600
H521	H52	0.036900	0.004600	0.332300
O221	O22	0.783600	0.707600	0.205200
O231	O23	0.682200	0.711600	0.230200
C961	C96	0.815700	0.875900	0.304800
Co41	Co4	0.361150	0.146380	0.307240
Co51	Co5	0.390190	0.144710	0.554750
Co61	Co6	0.245990	0.159640	0.376170
O241	O24	0.288500	0.109800	0.560500
O251	O25	0.280800	0.112600	0.461900
O261	O26	0.210600	0.100500	0.310500
O271	O27	0.375100	0.152900	0.405200
O281	O28	0.464900	0.161100	0.517300
C971	C97	0.249400	0.100300	0.496800
C981	C98	0.071800	0.042700	0.211700
H531	H53	0.086500	0.040100	0.257500
C991	C99	0.996900	0.021700	0.157200
H541	H54	0.960900	0.005400	0.167200
C1001	C100	0.871400	0.953300	0.037300
H551	H55	0.905600	0.936800	0.079500
C1011	C101	0.801100	0.930100	0.982400
C1021	C102	0.669300	0.006800	0.781600
H561	H56	0.685700	0.975200	0.779400
C1031	C103	0.608200	0.030000	0.722400
H571	H57	0.582200	0.013600	0.679900
C1041	C104	0.777300	0.879800	0.988600
C1051	C105	0.736600	0.847800	0.929200
H581	H58	0.725100	0.858800	0.886500
C1061	C106	0.714800	0.801900	0.934600
H591	H59	0.688100	0.781700	0.895600
C1071	C107	0.732400	0.784600	0.999100
C1081	C108	0.770800	0.814500	0.055600
H601	H60	0.781300	0.803200	0.097900
C1091	C109	0.794400	0.861300	0.051400
H611	H61	0.822300	0.880700	0.091200
C1101	C110	0.447300	0.161300	0.456600
H621	H62	0.491400	0.168200	0.449700
O291	O29	0.657700	0.789700	0.449000
O301	O30	0.726300	0.779800	0.564600
C1111	C111	0.703200	0.766200	0.504100
O311	O31	0.463500	0.361800	0.802200
O321	O32	0.456500	0.422200	0.860900
C1121	C112	0.492000	0.401100	0.833200
C1131	C113	0.567900	0.424500	0.838200
C1141	C114	0.614100	0.400600	0.817100
H631	H63	0.600200	0.368700	0.801600
C1151	C115	0.682200	0.423600	0.818500
H641	H64	0.712900	0.407000	0.803400
C1161	C116	0.704400	0.470900	0.842100
C1171	C117	0.776100	0.496800	0.843500
C1181	C118	0.853400	0.474300	0.867600
H651	H65	0.861300	0.442000	0.882100
C1191	C119	0.922200	0.500500	0.870400
C1201	C120	0.008000	0.476000	0.903000
C1211	C121	0.042500	0.450200	0.965500
H661	H66	0.012400	0.449200	0.987400
C1221	C122	0.119500	0.426300	0.994900
H671	H67	0.141500	0.409700	0.036700
C1231	C123	0.166000	0.426600	0.962900
O331	O33	0.490900	0.355700	0.158800
O341	O34	0.475000	0.422100	0.101300
C1241	C124	0.512900	0.399300	0.158000
C1251	C125	0.583500	0.423000	0.223200
C1261	C126	0.623200	0.398300	0.285200
H681	H68	0.609100	0.365900	0.285900
C1271	C127	0.686600	0.422100	0.349200
H691	H69	0.712600	0.405700	0.391700
C1281	C128	0.708100	0.468900	0.346800
C1291	C129	0.766200	0.496400	0.413700
C1301	C130	0.841200	0.474500	0.469500
H701	H70	0.856200	0.443200	0.464600
C1311	C131	0.892800	0.499300	0.531700
C1321	C132	0.973200	0.476000	0.588300
C1331	C133	0.029000	0.451900	0.576700
H711	H71	0.014600	0.450100	0.530900
C1341	C134	0.104600	0.430100	0.627600
H721	H72	0.140800	0.414600	0.617100
C1351	C135	0.124600	0.432200	0.696100
C1361	C136	0.749500	0.543900	0.421700
H731	H73	0.701200	0.559100	0.384400
C1371	C137	0.205800	0.407500	0.752900
O351	O35	0.262000	0.393900	0.741000
C1381	C138	0.747100	0.771300	0.729900
C1391	C139	0.849300	0.646100	0.770500
H741	H74	0.885200	0.628500	0.761600
C1401	C140	0.830200	0.694100	0.749300
H751	H75	0.855300	0.708700	0.727800
C1411	C141	0.775200	0.720300	0.759300
C1421	C142	0.743300	0.699200	0.795800
H761	H76	0.708000	0.717000	0.805100
C1431	C143	0.764000	0.651700	0.818200
H771	H77	0.742600	0.638000	0.842900
C1441	C144	0.593200	0.472700	0.865200
H781	H78	0.564700	0.488900	0.882700
C1451	C145	0.659300	0.494900	0.865200
H791	H79	0.674100	0.526800	0.881100
C1461	C146	0.765200	0.544900	0.823500
H801	H80	0.712900	0.560000	0.808800
C1471	C147	0.830400	0.571900	0.824500
C1481	C148	0.909400	0.548100	0.848700
H811	H81	0.953900	0.564900	0.850000
C1491	C149	0.132800	0.451800	0.902100
H821	H82	0.162500	0.451800	0.880000
C1501	C150	0.056500	0.477200	0.872600
H831	H83	0.036900	0.495400	0.832300
O361	O36	0.783600	0.792400	0.705200
O371	O37	0.682200	0.788400	0.730200
C1511	C151	0.815700	0.624100	0.804800
Co71	Co7	0.361150	0.353620	0.807240
Co81	Co8	0.390190	0.355290	0.054750
Co91	Co9	0.245990	0.340360	0.876170
O381	O38	0.288500	0.390200	0.060500
O391	O39	0.280800	0.387400	0.961900
O401	O40	0.210600	0.399500	0.810500
O411	O41	0.375100	0.347100	0.905200
O421	O42	0.464900	0.338900	0.017300
C1521	C152	0.249400	0.399700	0.996800
C1531	C153	0.071800	0.457300	0.711700
H841	H84	0.086500	0.459900	0.757500
C1541	C154	0.996900	0.478300	0.657200
H851	H85	0.960900	0.494600	0.667200
C1551	C155	0.871400	0.546700	0.537300
H861	H86	0.905600	0.563200	0.579500
C1561	C156	0.801100	0.569900	0.482400
C1571	C157	0.669300	0.493200	0.281600
H871	H87	0.685700	0.524800	0.279400
C1581	C158	0.608200	0.470000	0.222400
H881	H88	0.582200	0.486400	0.179900
C1591	C159	0.777300	0.620200	0.488600
C1601	C160	0.736600	0.652200	0.429200
H891	H89	0.725100	0.641200	0.386500
C1611	C161	0.714800	0.698100	0.434600
H901	H90	0.688100	0.718300	0.395600
C1621	C162	0.732400	0.715400	0.499100
C1631	C163	0.770800	0.685500	0.555600
H911	H91	0.781300	0.696800	0.597900
C1641	C164	0.794400	0.638700	0.551400
H921	H92	0.822300	0.619300	0.591200
C1651	C165	0.447300	0.338700	0.956600
H931	H93	0.491400	0.331800	0.949700
O431	O43	0.342300	0.289700	0.051000
O441	O44	0.273700	0.279800	0.935400
C1661	C166	0.296800	0.266200	0.995900
O451	O45	0.536500	0.861800	0.697800
O461	O46	0.543500	0.922200	0.639100
C1671	C167	0.508000	0.901100	0.666800
C1681	C168	0.432100	0.924500	0.661800
C1691	C169	0.385900	0.900600	0.682900
H941	H94	0.399800	0.868700	0.698400
C1701	C170	0.317800	0.923600	0.681500
H951	H95	0.287100	0.907000	0.696600
C1711	C171	0.295600	0.970900	0.657900
C1721	C172	0.223900	0.996800	0.656500
C1731	C173	0.146600	0.974300	0.632400
H961	H96	0.138700	0.942000	0.617900
C1741	C174	0.077800	0.000500	0.629600
C1751	C175	0.992000	0.976000	0.597000
C1761	C176	0.957500	0.950200	0.534500
H971	H97	0.987600	0.949200	0.512600
C1771	C177	0.880500	0.926300	0.505100
H981	H98	0.858500	0.909700	0.463300
C1781	C178	0.834000	0.926600	0.537100
O471	O47	0.509100	0.855700	0.341200
O481	O48	0.525000	0.922100	0.398700
C1791	C179	0.487100	0.899300	0.342000
C1801	C180	0.416500	0.923000	0.276800
C1811	C181	0.376800	0.898300	0.214800
H991	H99	0.390900	0.865900	0.214100
C1821	C182	0.313400	0.922100	0.150800
H1001	H100	0.287400	0.905700	0.108300
C1831	C183	0.291900	0.968900	0.153200
C1841	C184	0.233800	0.996400	0.086300
C1851	C185	0.158800	0.974500	0.030500
H1011	H101	0.143800	0.943200	0.035400
C1861	C186	0.107200	0.999300	0.968300
C1871	C187	0.026800	0.976000	0.911700
C1881	C188	0.971000	0.951900	0.923300
H1021	H102	0.985400	0.950100	0.969100
C1891	C189	0.895400	0.930100	0.872400
H1031	H103	0.859200	0.914600	0.882900
C1901	C190	0.875400	0.932200	0.803900
C1911	C191	0.250500	0.043900	0.078300
H1041	H104	0.298800	0.059100	0.115600
C1921	C192	0.794200	0.907500	0.747100
O491	O49	0.738000	0.893900	0.759000
C1931	C193	0.252900	0.271300	0.770100
C1941	C194	0.150700	0.146100	0.729500
H1051	H105	0.114800	0.128500	0.738400
C1951	C195	0.169800	0.194100	0.750700
H1061	H106	0.144700	0.208700	0.772200
C1961	C196	0.224800	0.220300	0.740700
C1971	C197	0.256700	0.199200	0.704200
H1071	H107	0.292000	0.217000	0.694900
C1981	C198	0.236000	0.151700	0.681800
H1081	H108	0.257400	0.138000	0.657100
C1991	C199	0.406800	0.972700	0.634800
H1091	H109	0.435300	0.988900	0.617300
C2001	C200	0.340700	0.994900	0.634800
H1101	H110	0.325900	0.026800	0.618900
C2011	C201	0.234800	0.044900	0.676500
H1111	H111	0.287100	0.060000	0.691200
C2021	C202	0.169600	0.071900	0.675500
C2031	C203	0.090600	0.048100	0.651300
H1121	H112	0.046100	0.064900	0.650000
C2041	C204	0.867200	0.951800	0.597900
H1131	H113	0.837500	0.951800	0.620000
C2051	C205	0.943500	0.977200	0.627400
H1141	H114	0.963100	0.995400	0.667700
O501	O50	0.216400	0.292400	0.794800
O511	O51	0.317800	0.288400	0.769800
C2061	C206	0.184300	0.124100	0.695200
Co101	Co10	0.638850	0.853620	0.692760
Co111	Co11	0.609810	0.855290	0.445250
Co121	Co12	0.754010	0.840360	0.623830
O521	O52	0.711500	0.890200	0.439500
O531	O53	0.719200	0.887400	0.538100
O541	O54	0.789400	0.899500	0.689500
O551	O55	0.624900	0.847100	0.594800
O561	O56	0.535100	0.838900	0.482700
C2071	C207	0.750600	0.899700	0.503200
C2081	C208	0.928200	0.957300	0.788300
H1151	H115	0.913500	0.959900	0.742500
C2091	C209	0.003100	0.978300	0.842800
H1161	H116	0.039100	0.994600	0.832800
C2101	C210	0.128600	0.046700	0.962700
H1171	H117	0.094400	0.063200	0.920500
C2111	C211	0.198900	0.069900	0.017600
C2121	C212	0.330700	0.993200	0.218400
H1181	H118	0.314300	0.024800	0.220600
C2131	C213	0.391800	0.970000	0.277600
H1191	H119	0.417800	0.986400	0.320100
C2141	C214	0.222700	0.120200	0.011400
C2151	C215	0.263400	0.152200	0.070800
H1201	H120	0.274900	0.141200	0.113500
C2161	C216	0.285200	0.198100	0.065400
H1211	H121	0.311900	0.218300	0.104400
C2171	C217	0.267600	0.215400	0.000900
C2181	C218	0.229200	0.185500	0.944400
H1221	H122	0.218700	0.196800	0.902100
C2191	C219	0.205600	0.138700	0.948600
H1231	H123	0.177700	0.119300	0.908800
C2201	C220	0.552700	0.838700	0.543400
H1241	H124	0.508600	0.831800	0.550300
