data_CIFMEL_clean_PM
_symmetry_space_group_name_H-M	'P1'
_cell_length_a	14.651800
_cell_length_b	14.651800
_cell_length_c	14.651800
_cell_angle_alpha	90.000000
_cell_angle_beta	90.000000
_cell_angle_gamma	90.000000
_symmetry_Int_Tables_number 1

loop_
_symmetry_equiv_pos_as_xyz
'x,y,z'

loop_
_atom_site_label
_atom_site_type_symbol
_atom_site_fract_x
_atom_site_fract_y
_atom_site_fract_z
Co11	Co1	0.955760	0.544240	0.455760
Co21	Co2	0.816330	0.683670	0.316330
Co31	Co3	0.544240	0.455760	0.955760
Co41	Co4	0.683670	0.316330	0.816330
Co51	Co5	0.044240	0.044240	0.044240
Co61	Co6	0.183670	0.183670	0.183670
Co71	Co7	0.455760	0.955760	0.544240
Co81	Co8	0.316330	0.816330	0.683670
H11	H1	0.752200	0.469900	0.163200
H21	H2	0.747800	0.530100	0.663200
H31	H3	0.247800	0.969900	0.336800
H41	H4	0.252200	0.030100	0.836800
H51	H5	0.163200	0.752200	0.469900
H61	H6	0.663200	0.747800	0.530100
H71	H7	0.336800	0.247800	0.969900
H81	H8	0.836800	0.252200	0.030100
H91	H9	0.469900	0.163200	0.752200
H101	H10	0.530100	0.663200	0.747800
H111	H11	0.969900	0.336800	0.247800
H121	H12	0.030100	0.836800	0.252200
C11	C1	0.869200	0.486000	0.292700
C21	C2	0.794100	0.422700	0.156100
C31	C3	0.863300	0.415100	0.216400
C41	C4	0.630800	0.514000	0.792700
C51	C5	0.705900	0.577300	0.656100
C61	C6	0.636700	0.584900	0.716400
C71	C7	0.130800	0.986000	0.207300
C81	C8	0.205900	0.922700	0.343900
C91	C9	0.136700	0.915100	0.283600
C101	C10	0.369200	0.014000	0.707300
C111	C11	0.294100	0.077300	0.843900
C121	C12	0.363300	0.084900	0.783600
C131	C13	0.292700	0.869200	0.486000
C141	C14	0.156100	0.794100	0.422700
C151	C15	0.216400	0.863300	0.415100
C161	C16	0.792700	0.630800	0.514000
C171	C17	0.656100	0.705900	0.577300
C181	C18	0.716400	0.636700	0.584900
C191	C19	0.207300	0.130800	0.986000
C201	C20	0.343900	0.205900	0.922700
C211	C21	0.283600	0.136700	0.915100
C221	C22	0.707300	0.369200	0.014000
C231	C23	0.843900	0.294100	0.077300
C241	C24	0.783600	0.363300	0.084900
C251	C25	0.486000	0.292700	0.869200
C261	C26	0.422700	0.156100	0.794100
C271	C27	0.415100	0.216400	0.863300
C281	C28	0.514000	0.792700	0.630800
C291	C29	0.577300	0.656100	0.705900
C301	C30	0.584900	0.716400	0.636700
C311	C31	0.986000	0.207300	0.130800
C321	C32	0.922700	0.343900	0.205900
C331	C33	0.915100	0.283600	0.136700
C341	C34	0.014000	0.707300	0.369200
C351	C35	0.077300	0.843900	0.294100
C361	C36	0.084900	0.783600	0.363300
Cl11	Cl1	0.037900	0.462100	0.537900
Cl21	Cl2	0.462100	0.537900	0.037900
Cl31	Cl3	0.962100	0.962100	0.962100
Cl41	Cl4	0.537900	0.037900	0.462100
O11	O1	0.819500	0.552500	0.290300
O21	O2	0.937000	0.468800	0.348900
O31	O3	0.680500	0.447500	0.790300
O41	O4	0.563000	0.531200	0.848900
O51	O5	0.180500	0.052500	0.209700
O61	O6	0.063000	0.968800	0.151100
O71	O7	0.319500	0.947500	0.709700
O81	O8	0.437000	0.031200	0.651100
O91	O9	0.290300	0.819500	0.552500
O101	O10	0.348900	0.937000	0.468800
O111	O11	0.790300	0.680500	0.447500
O121	O12	0.848900	0.563000	0.531200
O131	O13	0.209700	0.180500	0.052500
O141	O14	0.151100	0.063000	0.968800
O151	O15	0.709700	0.319500	0.947500
O161	O16	0.651100	0.437000	0.031200
O171	O17	0.552500	0.290300	0.819500
O181	O18	0.468800	0.348900	0.937000
O191	O19	0.447500	0.790300	0.680500
O201	O20	0.531200	0.848900	0.563000
O211	O21	0.052500	0.209700	0.180500
O221	O22	0.968800	0.151100	0.063000
O231	O23	0.947500	0.709700	0.319500
O241	O24	0.031200	0.651100	0.437000
