data_CIFMAH_clean_PM
_symmetry_space_group_name_H-M	'P1'
_cell_length_a	17.443000
_cell_length_b	25.094000
_cell_length_c	21.991000
_cell_angle_alpha	90.000000
_cell_angle_beta	90.000000
_cell_angle_gamma	90.000000
_symmetry_Int_Tables_number 1

loop_
_symmetry_equiv_pos_as_xyz
'x,y,z'

loop_
_atom_site_label
_atom_site_type_symbol
_atom_site_fract_x
_atom_site_fract_y
_atom_site_fract_z
O11	O1	0.881100	0.679800	0.565300
O21	O2	0.930700	0.609200	0.529000
O31	O3	0.501400	0.362480	0.155260
O41	O4	0.436000	0.309310	0.219560
C11	C1	0.434500	0.389300	0.307400
H11	H1	0.400400	0.361100	0.312200
C21	C2	0.530100	0.433400	0.250000
H21	H2	0.560800	0.436100	0.215500
C31	C3	0.535900	0.471100	0.295800
H31	H3	0.571600	0.498400	0.291700
C41	C4	0.439600	0.427500	0.351800
H41	H4	0.408200	0.425000	0.385900
C51	C5	0.471300	0.351300	0.205700
C61	C6	0.479100	0.392000	0.255500
Co11	Co1	0.998520	0.678840	0.576100
C71	C7	0.431000	0.531100	0.421500
H51	H5	0.383300	0.518300	0.409500
C81	C8	0.232000	0.639000	0.543600
C91	C9	0.573500	0.568600	0.458200
C101	C10	0.495800	0.510900	0.394800
C111	C11	0.162200	0.665400	0.571300
C121	C12	0.364100	0.593500	0.494200
C131	C13	0.434900	0.570300	0.465800
C141	C14	0.363900	0.614400	0.551300
H61	H6	0.408600	0.613200	0.574400
C151	C15	0.567000	0.530300	0.413400
H71	H7	0.611200	0.517000	0.395200
C161	C16	0.783400	0.567200	0.498000
H81	H8	0.823800	0.543100	0.496500
C171	C17	0.299700	0.637200	0.575600
H91	H9	0.301700	0.651600	0.614500
C181	C18	0.507700	0.589100	0.483300
H101	H10	0.511200	0.615900	0.512400
C191	C19	0.796200	0.617900	0.517900
C201	C20	0.650600	0.586300	0.479100
C211	C21	0.296200	0.595400	0.461600
H111	H11	0.294800	0.582300	0.422000
C221	C22	0.735800	0.652400	0.518500
H121	H12	0.743300	0.686900	0.532700
C231	C23	0.230400	0.616700	0.487000
H131	H13	0.184700	0.615700	0.465300
C241	C24	0.711900	0.551300	0.480400
H141	H14	0.704200	0.516000	0.468900
C251	C25	0.490600	0.469600	0.347100
C261	C26	0.664200	0.637600	0.498700
H151	H15	0.624600	0.662400	0.498500
C271	C27	0.874600	0.639000	0.538800
O51	O5	0.170600	0.692560	0.617060
O61	O6	0.098900	0.657430	0.543200
O71	O7	0.618900	0.320200	0.065300
O81	O8	0.569300	0.390800	0.029000
O91	O9	0.998600	0.637520	0.655260
O101	O10	0.064000	0.690690	0.719560
C281	C28	0.065500	0.610700	0.807400
H161	H16	0.099600	0.638900	0.812200
C291	C29	0.969900	0.566600	0.750000
H171	H17	0.939200	0.563900	0.715500
C301	C30	0.964100	0.528900	0.795800
H181	H18	0.928400	0.501600	0.791700
C311	C31	0.060400	0.572500	0.851800
H191	H19	0.091800	0.575000	0.885900
C321	C32	0.028700	0.648700	0.705700
C331	C33	0.020900	0.608000	0.755500
Co21	Co2	0.501480	0.321160	0.076100
C341	C34	0.069000	0.468900	0.921500
H201	H20	0.116700	0.481700	0.909500
C351	C35	0.268000	0.361000	0.043600
C361	C36	0.926500	0.431400	0.958200
C371	C37	0.004200	0.489100	0.894800
C381	C38	0.337800	0.334600	0.071300
C391	C39	0.135900	0.406500	0.994200
C401	C40	0.065100	0.429700	0.965800
C411	C41	0.136100	0.385600	0.051300
H211	H21	0.091400	0.386800	0.074400
C421	C42	0.933000	0.469700	0.913400
H221	H22	0.888800	0.483000	0.895200
C431	C43	0.716600	0.432800	0.998000
H231	H23	0.676200	0.456900	0.996500
C441	C44	0.200300	0.362800	0.075600
H241	H24	0.198300	0.348400	0.114500
C451	C45	0.992300	0.410900	0.983300
H251	H25	0.988800	0.384100	0.012400
C461	C46	0.703800	0.382100	0.017900
C471	C47	0.849400	0.413700	0.979100
C481	C48	0.203800	0.404600	0.961600
H261	H26	0.205200	0.417700	0.922000
C491	C49	0.764200	0.347600	0.018500
H271	H27	0.756700	0.313100	0.032700
C501	C50	0.269600	0.383300	0.987000
H281	H28	0.315300	0.384300	0.965300
C511	C51	0.788100	0.448700	0.980400
H291	H29	0.795800	0.484000	0.968900
C521	C52	0.009400	0.530400	0.847100
C531	C53	0.835800	0.362400	0.998700
H301	H30	0.875400	0.337600	0.998500
C541	C54	0.625400	0.361000	0.038800
O111	O11	0.329400	0.307440	0.117060
O121	O12	0.401100	0.342570	0.043200
O131	O13	0.881100	0.820200	0.565300
O141	O14	0.930700	0.890800	0.529000
O151	O15	0.501400	0.137520	0.155260
O161	O16	0.436000	0.190690	0.219560
C551	C55	0.434500	0.110700	0.307400
H311	H31	0.400400	0.138900	0.312200
C561	C56	0.530100	0.066600	0.250000
H321	H32	0.560800	0.063900	0.215500
C571	C57	0.535900	0.028900	0.295800
H331	H33	0.571600	0.001600	0.291700
C581	C58	0.439600	0.072500	0.351800
H341	H34	0.408200	0.075000	0.385900
C591	C59	0.471300	0.148700	0.205700
C601	C60	0.479100	0.108000	0.255500
Co31	Co3	0.998520	0.821160	0.576100
C611	C61	0.431000	0.968900	0.421500
H351	H35	0.383300	0.981700	0.409500
C621	C62	0.232000	0.861000	0.543600
C631	C63	0.573500	0.931400	0.458200
C641	C64	0.495800	0.989100	0.394800
C651	C65	0.162200	0.834600	0.571300
C661	C66	0.364100	0.906500	0.494200
C671	C67	0.434900	0.929700	0.465800
C681	C68	0.363900	0.885600	0.551300
H361	H36	0.408600	0.886800	0.574400
C691	C69	0.567000	0.969700	0.413400
H371	H37	0.611200	0.983000	0.395200
C701	C70	0.783400	0.932800	0.498000
H381	H38	0.823800	0.956900	0.496500
C711	C71	0.299700	0.862800	0.575600
H391	H39	0.301700	0.848400	0.614500
C721	C72	0.507700	0.910900	0.483300
H401	H40	0.511200	0.884100	0.512400
C731	C73	0.796200	0.882100	0.517900
C741	C74	0.650600	0.913700	0.479100
C751	C75	0.296200	0.904600	0.461600
H411	H41	0.294800	0.917700	0.422000
C761	C76	0.735800	0.847600	0.518500
H421	H42	0.743300	0.813100	0.532700
C771	C77	0.230400	0.883300	0.487000
H431	H43	0.184700	0.884300	0.465300
C781	C78	0.711900	0.948700	0.480400
H441	H44	0.704200	0.984000	0.468900
C791	C79	0.490600	0.030400	0.347100
C801	C80	0.664200	0.862400	0.498700
H451	H45	0.624600	0.837600	0.498500
C811	C81	0.874600	0.861000	0.538800
O171	O17	0.170600	0.807440	0.617060
O181	O18	0.098900	0.842570	0.543200
O191	O19	0.618900	0.179800	0.065300
O201	O20	0.569300	0.109200	0.029000
O211	O21	0.998600	0.862480	0.655260
O221	O22	0.064000	0.809310	0.719560
C821	C82	0.065500	0.889300	0.807400
H461	H46	0.099600	0.861100	0.812200
C831	C83	0.969900	0.933400	0.750000
H471	H47	0.939200	0.936100	0.715500
C841	C84	0.964100	0.971100	0.795800
H481	H48	0.928400	0.998400	0.791700
C851	C85	0.060400	0.927500	0.851800
H491	H49	0.091800	0.925000	0.885900
C861	C86	0.028700	0.851300	0.705700
C871	C87	0.020900	0.892000	0.755500
Co41	Co4	0.501480	0.178840	0.076100
C881	C88	0.069000	0.031100	0.921500
H501	H50	0.116700	0.018300	0.909500
C891	C89	0.268000	0.139000	0.043600
C901	C90	0.926500	0.068600	0.958200
C911	C91	0.004200	0.010900	0.894800
C921	C92	0.337800	0.165400	0.071300
C931	C93	0.135900	0.093500	0.994200
C941	C94	0.065100	0.070300	0.965800
C951	C95	0.136100	0.114400	0.051300
H511	H51	0.091400	0.113200	0.074400
C961	C96	0.933000	0.030300	0.913400
H521	H52	0.888800	0.017000	0.895200
C971	C97	0.716600	0.067200	0.998000
H531	H53	0.676200	0.043100	0.996500
C981	C98	0.200300	0.137200	0.075600
H541	H54	0.198300	0.151600	0.114500
C991	C99	0.992300	0.089100	0.983300
H551	H55	0.988800	0.115900	0.012400
C1001	C100	0.703800	0.117900	0.017900
C1011	C101	0.849400	0.086300	0.979100
C1021	C102	0.203800	0.095400	0.961600
H561	H56	0.205200	0.082300	0.922000
C1031	C103	0.764200	0.152400	0.018500
H571	H57	0.756700	0.186900	0.032700
C1041	C104	0.269600	0.116700	0.987000
H581	H58	0.315300	0.115700	0.965300
C1051	C105	0.788100	0.051300	0.980400
H591	H59	0.795800	0.016000	0.968900
C1061	C106	0.009400	0.969600	0.847100
C1071	C107	0.835800	0.137600	0.998700
H601	H60	0.875400	0.162400	0.998500
C1081	C108	0.625400	0.139000	0.038800
O231	O23	0.329400	0.192560	0.117060
O241	O24	0.401100	0.157430	0.043200
Co51	Co5	0.112870	0.750000	0.665930
O251	O25	0.009600	0.750000	0.615600
Co61	Co6	0.387130	0.250000	0.165930
O261	O26	0.490400	0.250000	0.115600
O271	O27	0.118900	0.179800	0.434700
O281	O28	0.069300	0.109200	0.471000
O291	O29	0.498600	0.862480	0.844740
O301	O30	0.564000	0.809310	0.780440
C1091	C109	0.565500	0.889300	0.692600
H611	H61	0.599600	0.861100	0.687800
C1101	C110	0.469900	0.933400	0.750000
H621	H62	0.439200	0.936100	0.784500
C1111	C111	0.464100	0.971100	0.704200
H631	H63	0.428400	0.998400	0.708300
C1121	C112	0.560400	0.927500	0.648200
H641	H64	0.591800	0.925000	0.614100
C1131	C113	0.528700	0.851300	0.794300
C1141	C114	0.520900	0.892000	0.744500
Co71	Co7	0.001480	0.178840	0.423900
C1151	C115	0.569000	0.031100	0.578500
H651	H65	0.616700	0.018300	0.590500
C1161	C116	0.768000	0.139000	0.456400
C1171	C117	0.426500	0.068600	0.541800
C1181	C118	0.504200	0.010900	0.605200
C1191	C119	0.837800	0.165400	0.428700
C1201	C120	0.635900	0.093500	0.505800
C1211	C121	0.565100	0.070300	0.534200
C1221	C122	0.636100	0.114400	0.448700
H661	H66	0.591400	0.113200	0.425600
C1231	C123	0.433000	0.030300	0.586600
H671	H67	0.388800	0.017000	0.604800
C1241	C124	0.216600	0.067200	0.502000
H681	H68	0.176200	0.043100	0.503500
C1251	C125	0.700300	0.137200	0.424400
H691	H69	0.698300	0.151600	0.385500
C1261	C126	0.492300	0.089100	0.516700
H701	H70	0.488800	0.115900	0.487600
C1271	C127	0.203800	0.117900	0.482100
C1281	C128	0.349400	0.086300	0.520900
C1291	C129	0.703800	0.095400	0.538400
H711	H71	0.705200	0.082300	0.578000
C1301	C130	0.264200	0.152400	0.481500
H721	H72	0.256700	0.186900	0.467300
C1311	C131	0.769600	0.116700	0.513000
H731	H73	0.815300	0.115700	0.534700
C1321	C132	0.288100	0.051300	0.519600
H741	H74	0.295800	0.016000	0.531100
C1331	C133	0.509400	0.969600	0.652900
C1341	C134	0.335800	0.137600	0.501300
H751	H75	0.375400	0.162400	0.501500
C1351	C135	0.125400	0.139000	0.461200
O311	O31	0.829400	0.192560	0.382940
O321	O32	0.901100	0.157430	0.456800
O331	O33	0.381100	0.820200	0.934700
O341	O34	0.430700	0.890800	0.971000
O351	O35	0.001400	0.137520	0.344740
O361	O36	0.936000	0.190690	0.280440
C1361	C136	0.934500	0.110700	0.192600
H761	H76	0.900400	0.138900	0.187800
C1371	C137	0.030100	0.066600	0.250000
H771	H77	0.060800	0.063900	0.284500
C1381	C138	0.035900	0.028900	0.204200
H781	H78	0.071600	0.001600	0.208300
C1391	C139	0.939600	0.072500	0.148200
H791	H79	0.908200	0.075000	0.114100
C1401	C140	0.971300	0.148700	0.294300
C1411	C141	0.979100	0.108000	0.244500
Co81	Co8	0.498520	0.821160	0.923900
C1421	C142	0.931000	0.968900	0.078500
H801	H80	0.883300	0.981700	0.090500
C1431	C143	0.732000	0.861000	0.956400
C1441	C144	0.073500	0.931400	0.041800
C1451	C145	0.995800	0.989100	0.105200
C1461	C146	0.662200	0.834600	0.928700
C1471	C147	0.864100	0.906500	0.005800
C1481	C148	0.934900	0.929700	0.034200
C1491	C149	0.863900	0.885600	0.948700
H811	H81	0.908600	0.886800	0.925600
C1501	C150	0.067000	0.969700	0.086600
H821	H82	0.111200	0.983000	0.104800
C1511	C151	0.283400	0.932800	0.002000
H831	H83	0.323800	0.956900	0.003500
C1521	C152	0.799700	0.862800	0.924400
H841	H84	0.801700	0.848400	0.885500
C1531	C153	0.007700	0.910900	0.016700
H851	H85	0.011200	0.884100	0.987600
C1541	C154	0.296200	0.882100	0.982100
C1551	C155	0.150600	0.913700	0.020900
C1561	C156	0.796200	0.904600	0.038400
H861	H86	0.794800	0.917700	0.078000
C1571	C157	0.235800	0.847600	0.981500
H871	H87	0.243300	0.813100	0.967300
C1581	C158	0.730400	0.883300	0.013000
H881	H88	0.684700	0.884300	0.034700
C1591	C159	0.211900	0.948700	0.019600
H891	H89	0.204200	0.984000	0.031100
C1601	C160	0.990600	0.030400	0.152900
C1611	C161	0.164200	0.862400	0.001300
H901	H90	0.124600	0.837600	0.001500
C1621	C162	0.374600	0.861000	0.961200
O371	O37	0.670600	0.807440	0.882940
O381	O38	0.598900	0.842570	0.956800
O391	O39	0.118900	0.320200	0.434700
O401	O40	0.069300	0.390800	0.471000
O411	O41	0.498600	0.637520	0.844740
O421	O42	0.564000	0.690690	0.780440
C1631	C163	0.565500	0.610700	0.692600
H911	H91	0.599600	0.638900	0.687800
C1641	C164	0.469900	0.566600	0.750000
H921	H92	0.439200	0.563900	0.784500
C1651	C165	0.464100	0.528900	0.704200
H931	H93	0.428400	0.501600	0.708300
C1661	C166	0.560400	0.572500	0.648200
H941	H94	0.591800	0.575000	0.614100
C1671	C167	0.528700	0.648700	0.794300
C1681	C168	0.520900	0.608000	0.744500
Co91	Co9	0.001480	0.321160	0.423900
C1691	C169	0.569000	0.468900	0.578500
H951	H95	0.616700	0.481700	0.590500
C1701	C170	0.768000	0.361000	0.456400
C1711	C171	0.426500	0.431400	0.541800
C1721	C172	0.504200	0.489100	0.605200
C1731	C173	0.837800	0.334600	0.428700
C1741	C174	0.635900	0.406500	0.505800
C1751	C175	0.565100	0.429700	0.534200
C1761	C176	0.636100	0.385600	0.448700
H961	H96	0.591400	0.386800	0.425600
C1771	C177	0.433000	0.469700	0.586600
H971	H97	0.388800	0.483000	0.604800
C1781	C178	0.216600	0.432800	0.502000
H981	H98	0.176200	0.456900	0.503500
C1791	C179	0.700300	0.362800	0.424400
H991	H99	0.698300	0.348400	0.385500
C1801	C180	0.492300	0.410900	0.516700
H1001	H100	0.488800	0.384100	0.487600
C1811	C181	0.203800	0.382100	0.482100
C1821	C182	0.349400	0.413700	0.520900
C1831	C183	0.703800	0.404600	0.538400
H1011	H101	0.705200	0.417700	0.578000
C1841	C184	0.264200	0.347600	0.481500
H1021	H102	0.256700	0.313100	0.467300
C1851	C185	0.769600	0.383300	0.513000
H1031	H103	0.815300	0.384300	0.534700
C1861	C186	0.288100	0.448700	0.519600
H1041	H104	0.295800	0.484000	0.531100
C1871	C187	0.509400	0.530400	0.652900
C1881	C188	0.335800	0.362400	0.501300
H1051	H105	0.375400	0.337600	0.501500
C1891	C189	0.125400	0.361000	0.461200
O431	O43	0.829400	0.307440	0.382940
O441	O44	0.901100	0.342570	0.456800
O451	O45	0.381100	0.679800	0.934700
O461	O46	0.430700	0.609200	0.971000
O471	O47	0.001400	0.362480	0.344740
O481	O48	0.936000	0.309310	0.280440
C1901	C190	0.934500	0.389300	0.192600
H1061	H106	0.900400	0.361100	0.187800
C1911	C191	0.030100	0.433400	0.250000
H1071	H107	0.060800	0.436100	0.284500
C1921	C192	0.035900	0.471100	0.204200
H1081	H108	0.071600	0.498400	0.208300
C1931	C193	0.939600	0.427500	0.148200
H1091	H109	0.908200	0.425000	0.114100
C1941	C194	0.971300	0.351300	0.294300
C1951	C195	0.979100	0.392000	0.244500
Co101	Co10	0.498520	0.678840	0.923900
C1961	C196	0.931000	0.531100	0.078500
H1101	H110	0.883300	0.518300	0.090500
C1971	C197	0.732000	0.639000	0.956400
C1981	C198	0.073500	0.568600	0.041800
C1991	C199	0.995800	0.510900	0.105200
C2001	C200	0.662200	0.665400	0.928700
C2011	C201	0.864100	0.593500	0.005800
C2021	C202	0.934900	0.570300	0.034200
C2031	C203	0.863900	0.614400	0.948700
H1111	H111	0.908600	0.613200	0.925600
C2041	C204	0.067000	0.530300	0.086600
H1121	H112	0.111200	0.517000	0.104800
C2051	C205	0.283400	0.567200	0.002000
H1131	H113	0.323800	0.543100	0.003500
C2061	C206	0.799700	0.637200	0.924400
H1141	H114	0.801700	0.651600	0.885500
C2071	C207	0.007700	0.589100	0.016700
H1151	H115	0.011200	0.615900	0.987600
C2081	C208	0.296200	0.617900	0.982100
C2091	C209	0.150600	0.586300	0.020900
C2101	C210	0.796200	0.595400	0.038400
H1161	H116	0.794800	0.582300	0.078000
C2111	C211	0.235800	0.652400	0.981500
H1171	H117	0.243300	0.686900	0.967300
C2121	C212	0.730400	0.616700	0.013000
H1181	H118	0.684700	0.615700	0.034700
C2131	C213	0.211900	0.551300	0.019600
H1191	H119	0.204200	0.516000	0.031100
C2141	C214	0.990600	0.469600	0.152900
C2151	C215	0.164200	0.637600	0.001300
H1201	H120	0.124600	0.662400	0.001500
C2161	C216	0.374600	0.639000	0.961200
O491	O49	0.670600	0.692560	0.882940
O501	O50	0.598900	0.657430	0.956800
Co111	Co11	0.887130	0.250000	0.334070
O511	O51	0.990400	0.250000	0.384400
Co121	Co12	0.612870	0.750000	0.834070
O521	O52	0.509600	0.750000	0.884400
