data_CIGDUT_clean_PM
_symmetry_space_group_name_H-M	'P1'
_cell_length_a	12.793400
_cell_length_b	14.682200
_cell_length_c	19.077100
_cell_angle_alpha	107.115000
_cell_angle_beta	105.536000
_cell_angle_gamma	93.518000
_symmetry_Int_Tables_number 1

loop_
_symmetry_equiv_pos_as_xyz
'x,y,z'

loop_
_atom_site_label
_atom_site_type_symbol
_atom_site_fract_x
_atom_site_fract_y
_atom_site_fract_z
Dy11	Dy1	0.402870	0.620000	0.779880
Dy21	Dy2	0.157230	0.881480	0.280020
Dy31	Dy3	0.348050	0.124210	0.236810
Dy41	Dy4	0.109910	0.385480	0.736090
Dy51	Dy5	0.597130	0.380000	0.220120
Dy61	Dy6	0.842770	0.118520	0.719980
Dy71	Dy7	0.651950	0.875790	0.763190
Dy81	Dy8	0.890090	0.614520	0.263910
H11	H1	0.939900	0.389900	0.803800
H21	H2	0.367200	0.533600	0.570000
H31	H3	0.395300	0.459000	0.444500
H41	H4	0.121600	0.541600	0.071600
H51	H5	0.150100	0.471000	0.946600
H61	H6	0.534700	0.119000	0.187300
H71	H7	0.068400	0.649700	0.480300
H81	H8	0.977100	0.856700	0.068900
H91	H9	0.195200	0.647300	0.601300
H101	H10	0.606500	0.036200	0.320000
H111	H11	0.858200	0.851500	0.945800
H121	H12	0.770400	0.958400	0.321800
H131	H13	0.897700	0.967000	0.197300
H141	H14	0.731000	0.039900	0.186500
H151	H15	0.060100	0.610100	0.196200
H161	H16	0.632800	0.466400	0.430000
H171	H17	0.604700	0.541000	0.555500
H181	H18	0.878400	0.458400	0.928400
H191	H19	0.849900	0.529000	0.053400
H201	H20	0.465300	0.881000	0.812700
H211	H21	0.931600	0.350300	0.519700
H221	H22	0.022900	0.143300	0.931100
H231	H23	0.804800	0.352700	0.398700
H241	H24	0.393500	0.963800	0.680000
H251	H25	0.141800	0.148500	0.054200
H261	H26	0.229600	0.041600	0.678200
H271	H27	0.102300	0.033000	0.802700
H281	H28	0.269000	0.960100	0.813500
C11	C1	0.233700	0.598700	0.957700
C21	C2	0.338600	0.470400	0.539000
C31	C3	0.356000	0.426800	0.467000
C41	C4	0.402300	0.924100	0.295100
C51	C5	0.157300	0.576000	0.048600
C61	C6	0.273300	0.580900	0.889300
C71	C7	0.175400	0.534900	0.977100
C81	C8	0.197900	0.671900	0.080500
C91	C9	0.188600	0.741400	0.151000
C101	C10	0.274900	0.408500	0.557600
C111	C11	0.863500	0.762400	0.078000
C121	C12	0.909300	0.748000	0.152200
C131	C13	0.742700	0.758800	0.954300
C141	C14	0.140000	0.682200	0.500500
C151	C15	0.315600	0.264600	0.363800
C161	C16	0.097700	0.077600	0.215700
C171	C17	0.311400	0.735100	0.587200
C181	C18	0.235500	0.428800	0.625600
C191	C19	0.754700	0.757700	0.287900
C201	C20	0.645800	0.743100	0.885800
C211	C21	0.184300	0.734600	0.466300
C221	C22	0.308900	0.332900	0.434400
C231	C23	0.136100	0.748200	0.390800
C241	C24	0.679300	0.827500	0.296500
C251	C25	0.983000	0.094800	0.209100
C261	C26	0.739000	0.238700	0.204800
C271	C27	0.816400	0.168400	0.200900
C281	C28	0.409200	0.749800	0.653800
C291	C29	0.907900	0.819500	0.045900
C301	C30	0.212800	0.681000	0.570600
C311	C31	0.516400	0.906200	0.298400
C321	C32	0.606900	0.970600	0.311900
C331	C33	0.839500	0.816800	0.975500
C341	C34	0.700900	0.925400	0.312100
C351	C35	0.894800	0.030900	0.199700
C361	C36	0.799300	0.073300	0.194100
C371	C37	0.766300	0.401300	0.042300
C381	C38	0.661400	0.529600	0.461000
C391	C39	0.644000	0.573200	0.533000
C401	C40	0.597700	0.075900	0.704900
C411	C41	0.842700	0.424000	0.951400
C421	C42	0.726700	0.419100	0.110700
C431	C43	0.824600	0.465100	0.022900
C441	C44	0.802100	0.328100	0.919500
C451	C45	0.811400	0.258600	0.849000
C461	C46	0.725100	0.591500	0.442400
C471	C47	0.136500	0.237600	0.922000
C481	C48	0.090700	0.252000	0.847800
C491	C49	0.257300	0.241200	0.045700
C501	C50	0.860000	0.317800	0.499500
C511	C51	0.684400	0.735400	0.636200
C521	C52	0.902300	0.922400	0.784300
C531	C53	0.688600	0.264900	0.412800
C541	C54	0.764500	0.571200	0.374400
C551	C55	0.245300	0.242300	0.712100
C561	C56	0.354200	0.256900	0.114200
C571	C57	0.815700	0.265400	0.533700
C581	C58	0.691100	0.667100	0.565600
C591	C59	0.863900	0.251800	0.609200
C601	C60	0.320700	0.172500	0.703500
C611	C61	0.017000	0.905200	0.790900
C621	C62	0.261000	0.761300	0.795200
C631	C63	0.183600	0.831600	0.799100
C641	C64	0.590800	0.250200	0.346200
C651	C65	0.092100	0.180500	0.954100
C661	C66	0.787200	0.319000	0.429400
C671	C67	0.483600	0.093800	0.701600
C681	C68	0.393100	0.029400	0.688100
C691	C69	0.160500	0.183200	0.024500
C701	C70	0.299100	0.074600	0.687900
C711	C71	0.105200	0.969100	0.800300
C721	C72	0.200700	0.926700	0.805900
S11	S1	0.263450	0.711060	0.024770
S21	S2	0.735150	0.705410	0.020700
S31	S3	0.238390	0.297470	0.489140
S41	S4	0.315840	0.788610	0.519690
S51	S5	0.545440	0.791690	0.285790
S61	S6	0.950670	0.206920	0.214740
S71	S7	0.736550	0.288940	0.975230
S81	S8	0.264850	0.294590	0.979300
S91	S9	0.761610	0.702530	0.510860
S101	S10	0.684160	0.211390	0.480310
S111	S11	0.454560	0.208310	0.714210
S121	S12	0.049330	0.793080	0.785260
O11	O1	0.225200	0.510100	0.831700
O21	O2	0.372000	0.996900	0.279300
O31	O3	0.973400	0.437000	0.800200
O41	O4	0.343000	0.864200	0.307400
O51	O5	0.352600	0.637800	0.892900
O61	O6	0.183300	0.811100	0.374200
O71	O7	0.159500	0.137200	0.203900
O81	O8	0.286300	0.499000	0.683300
O91	O9	0.563900	0.687400	0.877200
O101	O10	0.048700	0.693100	0.349100
O111	O11	0.483800	0.817000	0.667700
O121	O12	0.153000	0.374500	0.621100
O131	O13	0.487700	0.072600	0.177500
O141	O14	0.775200	0.326800	0.239400
O151	O15	0.865500	0.677600	0.163200
O161	O16	0.296200	0.175100	0.353700
O171	O17	0.127800	0.006300	0.234000
O181	O18	0.653800	0.790400	0.841800
O191	O19	0.168300	0.711300	0.202500
O201	O20	0.989900	0.807700	0.199600
O211	O21	0.342700	0.292500	0.314200
O221	O22	0.197400	0.830000	0.158600
O231	O23	0.714000	0.668800	0.255000
O241	O24	0.410200	0.694700	0.692500
O251	O25	0.636600	0.211000	0.173900
O261	O26	0.855900	0.783400	0.311000
O271	O27	0.774800	0.489900	0.168300
O281	O28	0.628000	0.003100	0.720700
O291	O29	0.026600	0.563000	0.199800
O301	O30	0.657000	0.135800	0.692600
O311	O31	0.647400	0.362200	0.107100
O321	O32	0.816700	0.188900	0.625800
O331	O33	0.840500	0.862800	0.796100
O341	O34	0.713700	0.501000	0.316700
O351	O35	0.436100	0.312600	0.122800
O361	O36	0.951300	0.306900	0.650900
O371	O37	0.516200	0.183000	0.332300
O381	O38	0.847000	0.625500	0.378900
O391	O39	0.512300	0.927400	0.822500
O401	O40	0.224800	0.673200	0.760600
O411	O41	0.134500	0.322400	0.836800
O421	O42	0.703800	0.824900	0.646300
O431	O43	0.872200	0.993700	0.766000
O441	O44	0.346200	0.209600	0.158200
O451	O45	0.831700	0.288700	0.797500
O461	O46	0.010100	0.192300	0.800400
O471	O47	0.657300	0.707500	0.685800
O481	O48	0.802600	0.170000	0.841400
O491	O49	0.286000	0.331200	0.745000
O501	O50	0.589800	0.305300	0.307500
O511	O51	0.363400	0.789000	0.826100
O521	O52	0.144100	0.216600	0.689000
