data_CIGYAU_clean_PM
_symmetry_space_group_name_H-M	'P1'
_cell_length_a	10.723700
_cell_length_b	13.448100
_cell_length_c	13.448100
_cell_angle_alpha	90.000000
_cell_angle_beta	90.000000
_cell_angle_gamma	90.000000
_symmetry_Int_Tables_number 1

loop_
_symmetry_equiv_pos_as_xyz
'x,y,z'

loop_
_atom_site_label
_atom_site_type_symbol
_atom_site_fract_x
_atom_site_fract_y
_atom_site_fract_z
Cu11	Cu1	0.757110	0.347110	0.728780
Cu21	Cu2	0.757110	0.152890	0.771220
Cu31	Cu3	0.257110	0.271220	0.847110
Cu41	Cu4	0.257110	0.228780	0.652890
Cu51	Cu5	0.242890	0.652890	0.271220
Cu61	Cu6	0.242890	0.847110	0.228780
Cu71	Cu7	0.742890	0.728780	0.152890
Cu81	Cu8	0.742890	0.771220	0.347110
H11	H1	0.530600	0.483600	0.769400
H21	H2	0.505200	0.674300	0.544000
H31	H3	0.674900	0.594600	0.473300
H41	H4	0.774100	0.470000	0.556000
H51	H5	0.384400	0.750700	0.639700
H61	H6	0.278700	0.672100	0.619300
H71	H7	0.530600	0.016400	0.730600
H81	H8	0.505200	0.825700	0.956000
H91	H9	0.674900	0.905400	0.026700
H101	H10	0.774100	0.030000	0.944000
H111	H11	0.384400	0.749300	0.860300
H121	H12	0.278700	0.827900	0.880700
H131	H13	0.030600	0.230600	0.983600
H141	H14	0.005200	0.456000	0.174300
H151	H15	0.174900	0.526700	0.094600
H161	H16	0.274100	0.444000	0.970000
H171	H17	0.884400	0.360300	0.250700
H181	H18	0.778700	0.380700	0.172100
H191	H19	0.030600	0.269400	0.516400
H201	H20	0.005200	0.044000	0.325700
H211	H21	0.174900	0.973300	0.405400
H221	H22	0.274100	0.056000	0.530000
H231	H23	0.884400	0.139700	0.249300
H241	H24	0.778700	0.119300	0.327900
H251	H25	0.469400	0.516400	0.230600
H261	H26	0.494800	0.325700	0.456000
H271	H27	0.325100	0.405400	0.526700
H281	H28	0.225900	0.530000	0.444000
H291	H29	0.615600	0.249300	0.360300
H301	H30	0.721300	0.327900	0.380700
H311	H31	0.469400	0.983600	0.269400
H321	H32	0.494800	0.174300	0.044000
H331	H33	0.325100	0.094600	0.973300
H341	H34	0.225900	0.970000	0.056000
H351	H35	0.615600	0.250700	0.139700
H361	H36	0.721300	0.172100	0.119300
H371	H37	0.969400	0.769400	0.016400
H381	H38	0.994800	0.544000	0.825700
H391	H39	0.825100	0.473300	0.905400
H401	H40	0.725900	0.556000	0.030000
H411	H41	0.115600	0.639700	0.749300
H421	H42	0.221300	0.619300	0.827900
H431	H43	0.969400	0.730600	0.483600
H441	H44	0.994800	0.956000	0.674300
H451	H45	0.825100	0.026700	0.594600
H461	H46	0.725900	0.944000	0.470000
H471	H47	0.115600	0.860300	0.750700
H481	H48	0.221300	0.880700	0.672100
C11	C1	0.542100	0.288300	0.875400
C21	C2	0.561800	0.508100	0.709700
C31	C3	0.501900	0.587900	0.666200
C41	C4	0.543900	0.621500	0.576300
C51	C5	0.645400	0.574400	0.535200
C61	C6	0.703400	0.498600	0.584100
C71	C7	0.330800	0.701500	0.670500
C81	C8	0.542100	0.211700	0.624600
C91	C9	0.561800	0.991900	0.790300
C101	C10	0.501900	0.912100	0.833800
C111	C11	0.543900	0.878500	0.923700
C121	C12	0.645400	0.925600	0.964800
C131	C13	0.703400	0.001400	0.915900
C141	C14	0.330800	0.798500	0.829500
C151	C15	0.042100	0.124600	0.788300
C161	C16	0.061800	0.290300	0.008100
C171	C17	0.001900	0.333800	0.087900
C181	C18	0.043900	0.423700	0.121500
C191	C19	0.145400	0.464800	0.074400
C201	C20	0.203400	0.415900	0.998600
C211	C21	0.830800	0.329500	0.201500
C221	C22	0.042100	0.375400	0.711700
C231	C23	0.061800	0.209700	0.491900
C241	C24	0.001900	0.166200	0.412100
C251	C25	0.043900	0.076300	0.378500
C261	C26	0.145400	0.035200	0.425600
C271	C27	0.203400	0.084100	0.501400
C281	C28	0.830800	0.170500	0.298500
C291	C29	0.457900	0.711700	0.124600
C301	C30	0.438200	0.491900	0.290300
C311	C31	0.498100	0.412100	0.333800
C321	C32	0.456100	0.378500	0.423700
C331	C33	0.354600	0.425600	0.464800
C341	C34	0.296600	0.501400	0.415900
C351	C35	0.669200	0.298500	0.329500
C361	C36	0.457900	0.788300	0.375400
C371	C37	0.438200	0.008100	0.209700
C381	C38	0.498100	0.087900	0.166200
C391	C39	0.456100	0.121500	0.076300
C401	C40	0.354600	0.074400	0.035200
C411	C41	0.296600	0.998600	0.084100
C421	C42	0.669200	0.201500	0.170500
C431	C43	0.957900	0.875400	0.211700
C441	C44	0.938200	0.709700	0.991900
C451	C45	0.998100	0.666200	0.912100
C461	C46	0.956100	0.576300	0.878500
C471	C47	0.854600	0.535200	0.925600
C481	C48	0.796600	0.584100	0.001400
C491	C49	0.169200	0.670500	0.798500
C501	C50	0.957900	0.624600	0.288300
C511	C51	0.938200	0.790300	0.508100
C521	C52	0.998100	0.833800	0.587900
C531	C53	0.956100	0.923700	0.621500
C541	C54	0.854600	0.964800	0.574400
C551	C55	0.796600	0.915900	0.498600
C561	C56	0.169200	0.829500	0.701500
C571	C57	0.250000	0.750000	0.750000
C581	C58	0.750000	0.250000	0.250000
S11	S1	0.696560	0.291680	0.887060
S21	S2	0.696560	0.208320	0.612940
S31	S3	0.196560	0.112940	0.791680
S41	S4	0.196560	0.387060	0.708320
S51	S5	0.303440	0.708320	0.112940
S61	S6	0.303440	0.791680	0.387060
S71	S7	0.803440	0.887060	0.208320
S81	S8	0.803440	0.612940	0.291680
N11	N1	0.435600	0.285100	0.869300
N21	N2	0.661800	0.464500	0.670600
N31	N3	0.435600	0.214900	0.630700
N41	N4	0.661800	0.035500	0.829400
N51	N5	0.935600	0.130700	0.785100
N61	N6	0.161800	0.329400	0.964500
N71	N7	0.935600	0.369300	0.714900
N81	N8	0.161800	0.170600	0.535500
N91	N9	0.564400	0.714900	0.130700
N101	N10	0.338200	0.535500	0.329400
N111	N11	0.564400	0.785100	0.369300
N121	N12	0.338200	0.964500	0.170600
N131	N13	0.064400	0.869300	0.214900
N141	N14	0.838200	0.670600	0.035500
N151	N15	0.064400	0.630700	0.285100
N161	N16	0.838200	0.829400	0.464500
O11	O1	0.404300	0.626400	0.717500
O21	O2	0.404300	0.873600	0.782500
O31	O3	0.904300	0.282500	0.126400
O41	O4	0.904300	0.217500	0.373600
O51	O5	0.595700	0.373600	0.282500
O61	O6	0.595700	0.126400	0.217500
O71	O7	0.095700	0.717500	0.873600
O81	O8	0.095700	0.782500	0.626400
