data_CIJVOH_clean_PM
_symmetry_space_group_name_H-M	'P1'
_cell_length_a	8.365000
_cell_length_b	9.795000
_cell_length_c	20.946000
_cell_angle_alpha	90.000000
_cell_angle_beta	90.000000
_cell_angle_gamma	90.000000
_symmetry_Int_Tables_number 1

loop_
_symmetry_equiv_pos_as_xyz
'x,y,z'

loop_
_atom_site_label
_atom_site_type_symbol
_atom_site_fract_x
_atom_site_fract_y
_atom_site_fract_z
Cd11	Cd1	0.507680	0.603380	0.716770
Cd21	Cd2	0.308310	0.659420	0.978660
Cd31	Cd3	0.992320	0.396620	0.216770
Cd41	Cd4	0.191690	0.340580	0.478660
Cd51	Cd5	0.492320	0.103380	0.783230
Cd61	Cd6	0.691690	0.159420	0.521340
Cd71	Cd7	0.007680	0.896620	0.283230
Cd81	Cd8	0.808310	0.840580	0.021340
H11	H1	0.424800	0.400100	0.924100
H21	H2	0.694300	0.678100	0.815600
H31	H3	0.672100	0.410000	0.939700
H41	H4	0.788800	0.497500	0.846000
H51	H5	0.075200	0.599900	0.424100
H61	H6	0.805700	0.321900	0.315600
H71	H7	0.827900	0.590000	0.439700
H81	H8	0.711200	0.502500	0.346000
H91	H9	0.575200	0.900100	0.575900
H101	H10	0.305700	0.178100	0.684400
H111	H11	0.327900	0.910000	0.560300
H121	H12	0.211200	0.997500	0.654000
H131	H13	0.924800	0.099900	0.075900
H141	H14	0.194300	0.821900	0.184400
H151	H15	0.172100	0.090000	0.060300
H161	H16	0.288800	0.002500	0.154000
C11	C1	0.678400	0.620300	0.955510
C21	C2	0.621400	0.492400	0.920170
C31	C3	0.669700	0.501500	0.849190
C41	C4	0.598900	0.379000	0.814040
C51	C5	0.821600	0.379700	0.455510
C61	C6	0.878600	0.507600	0.420170
C71	C7	0.830300	0.498500	0.349190
C81	C8	0.901100	0.621000	0.314040
C91	C9	0.321600	0.120300	0.544490
C101	C10	0.378600	0.992400	0.579830
C111	C11	0.330300	0.001500	0.650810
C121	C12	0.401100	0.879000	0.685960
C131	C13	0.178400	0.879700	0.044490
C141	C14	0.121400	0.007600	0.079830
C151	C15	0.169700	0.998500	0.150810
C161	C16	0.098900	0.121000	0.185960
O11	O1	0.581400	0.697600	0.983540
O21	O2	0.827900	0.643600	0.955450
O31	O3	0.452300	0.482400	0.926090
O41	O4	0.615700	0.626700	0.822190
O51	O5	0.599700	0.266700	0.844020
O61	O6	0.544900	0.390800	0.757920
O71	O7	0.918600	0.302400	0.483540
O81	O8	0.672100	0.356400	0.455450
O91	O9	0.047700	0.517600	0.426090
O101	O10	0.884300	0.373300	0.322190
O111	O11	0.900300	0.733300	0.344020
O121	O12	0.955100	0.609200	0.257920
O131	O13	0.418600	0.197600	0.516460
O141	O14	0.172100	0.143600	0.544550
O151	O15	0.547700	0.982400	0.573910
O161	O16	0.384300	0.126700	0.677810
O171	O17	0.400300	0.766700	0.655980
O181	O18	0.455100	0.890800	0.742080
O191	O19	0.081400	0.802400	0.016460
O201	O20	0.327900	0.856400	0.044550
O211	O21	0.952300	0.017600	0.073910
O221	O22	0.115700	0.873300	0.177810
O231	O23	0.099700	0.233300	0.155980
O241	O24	0.044900	0.109200	0.242080
