data_CIPCUB_clean_PM
_symmetry_space_group_name_H-M	'P1'
_cell_length_a	13.407100
_cell_length_b	15.794000
_cell_length_c	17.814700
_cell_angle_alpha	93.021000
_cell_angle_beta	90.000000
_cell_angle_gamma	90.000000
_symmetry_Int_Tables_number 1

loop_
_symmetry_equiv_pos_as_xyz
'x,y,z'

loop_
_atom_site_label
_atom_site_type_symbol
_atom_site_fract_x
_atom_site_fract_y
_atom_site_fract_z
Cd11	Cd1	0.013160	0.746510	0.260680
Cd21	Cd2	0.513160	0.253490	0.239320
Ag11	Ag1	0.269620	0.701570	0.630860
Ag21	Ag2	0.769620	0.298430	0.869140
H11	H1	0.127800	0.855500	0.398200
H21	H2	0.617800	0.086900	0.440100
H31	H3	0.731900	0.226900	0.037000
H41	H4	0.891800	0.573800	0.054400
H51	H5	0.473100	0.102600	0.673200
H61	H6	0.627800	0.144500	0.101800
H71	H7	0.800900	0.885900	0.437400
H81	H8	0.901200	0.952800	0.584800
H91	H9	0.973100	0.897400	0.826800
H101	H10	0.263500	0.982200	0.248200
H111	H11	0.585800	0.184000	0.614700
H121	H12	0.990500	0.911800	0.459200
H131	H13	0.708100	0.255600	0.686500
H141	H14	0.757000	0.505600	0.243500
H151	H15	0.117800	0.913100	0.059900
H161	H16	0.399300	0.051100	0.790800
H171	H17	0.231900	0.773100	0.463000
H181	H18	0.899300	0.948900	0.709200
H191	H19	0.085800	0.816000	0.885300
H201	H20	0.391800	0.426200	0.445600
H211	H21	0.401200	0.047200	0.915200
H221	H22	0.257000	0.494400	0.256500
H231	H23	0.300900	0.114100	0.062600
H241	H24	0.197500	0.618900	0.452500
H251	H25	0.697500	0.381100	0.047500
H261	H26	0.763500	0.017800	0.251800
H271	H27	0.208100	0.744400	0.813500
H281	H28	0.490500	0.088200	0.040800
C11	C1	0.596600	0.169500	0.898500
C21	C2	0.948300	0.918700	0.682100
C31	C3	0.148100	0.622800	0.306500
C41	C4	0.659800	0.049600	0.413100
C51	C5	0.631100	0.132200	0.299800
C61	C6	0.179500	0.800000	0.488700
C71	C7	0.330600	0.447500	0.343700
C81	C8	0.365800	0.116500	0.206100
C91	C9	0.117100	0.847600	0.449000
C101	C10	0.517700	0.128900	0.778700
C111	C11	0.017700	0.871100	0.721300
C121	C12	0.385800	0.379400	0.299300
C131	C13	0.158800	0.774300	0.789500
C141	C14	0.749000	0.008900	0.301800
C151	C15	0.715900	0.435300	0.152300
C161	C16	0.658800	0.225700	0.710500
C171	C17	0.096600	0.830500	0.601500
C181	C18	0.131100	0.867800	0.200200
C191	C19	0.590900	0.176000	0.819500
C201	C20	0.294500	0.056600	0.163200
C211	C21	0.527100	0.121100	0.937200
C221	C22	0.086900	0.819100	0.833300
C231	C23	0.231700	0.576800	0.424600
C241	C24	0.681500	0.061600	0.340800
C251	C25	0.538400	0.116600	0.013900
C261	C26	0.347900	0.460700	0.420800
C271	C27	0.701300	0.980200	0.446700
C281	C28	0.027100	0.878900	0.562800
C291	C29	0.798900	0.474600	0.041100
C301	C30	0.448300	0.081300	0.817900
C311	C31	0.249000	0.991100	0.198200
C321	C32	0.770400	0.929100	0.412200
C331	C33	0.950200	0.922100	0.608400
C341	C34	0.586900	0.180900	0.666700
C351	C35	0.201300	0.019800	0.053300
C361	C36	0.617100	0.152400	0.051000
C371	C37	0.679500	0.200000	0.011300
C381	C38	0.090900	0.824000	0.680500
C391	C39	0.450200	0.077900	0.891600
C401	C40	0.847900	0.539300	0.079200
C411	C41	0.038400	0.883400	0.486100
C421	C42	0.159800	0.950400	0.086900
C431	C43	0.266200	0.501400	0.308200
C441	C44	0.794500	0.943400	0.336800
C451	C45	0.519800	0.133400	0.701900
C461	C46	0.181500	0.938400	0.159200
C471	C47	0.865800	0.883500	0.293900
C481	C48	0.270400	0.070900	0.087800
C491	C49	0.215900	0.564700	0.347700
C501	C50	0.298900	0.525400	0.458900
C511	C51	0.731700	0.423200	0.075400
C521	C52	0.019800	0.866600	0.798100
C531	C53	0.766200	0.498600	0.191800
C541	C54	0.885800	0.620600	0.200700
C551	C55	0.830600	0.552500	0.156300
C561	C56	0.648100	0.377200	0.193500
I11	I1	0.831350	0.455980	0.924710
I21	I2	0.160280	0.041040	0.939570
I31	I3	0.331350	0.544020	0.575290
I41	I4	0.660280	0.958960	0.560430
N11	N1	0.671500	0.211500	0.936400
N21	N2	0.658300	0.226500	0.784000
N31	N3	0.158300	0.773500	0.716000
N41	N4	0.171500	0.788500	0.563600
O11	O1	0.407200	0.172900	0.168800
O21	O2	0.138800	0.615000	0.238300
O31	O3	0.427700	0.321700	0.336100
O41	O4	0.377600	0.108100	0.274800
O51	O5	0.638800	0.385000	0.261700
O61	O6	0.092300	0.807400	0.158400
O71	O7	0.907200	0.827100	0.331200
O81	O8	0.124500	0.871400	0.267800
O91	O9	0.602700	0.320700	0.153000
O101	O10	0.624500	0.128600	0.232200
O111	O11	0.592300	0.192600	0.341600
O121	O12	0.392700	0.380000	0.228900
O131	O13	0.877600	0.891900	0.225200
O141	O14	0.102700	0.679300	0.347000
O151	O15	0.892700	0.620000	0.271100
O161	O16	0.927700	0.678300	0.163900
Cd31	Cd3	0.486840	0.746510	0.760680
Cd41	Cd4	0.986840	0.253490	0.739320
Ag31	Ag3	0.730380	0.298430	0.369140
Ag41	Ag4	0.230380	0.701570	0.130860
H291	H29	0.302500	0.618900	0.952500
H301	H30	0.199100	0.114100	0.562600
H311	H31	0.108200	0.426200	0.945600
H321	H32	0.608200	0.573800	0.554400
H331	H33	0.768100	0.226900	0.537000
H341	H34	0.098800	0.047200	0.415200
H351	H35	0.699100	0.885900	0.937400
H361	H36	0.100700	0.051100	0.290800
H371	H37	0.372200	0.855500	0.898200
H381	H38	0.872200	0.144500	0.601800
H391	H39	0.291900	0.744400	0.313500
H401	H40	0.414200	0.816000	0.385300
H411	H41	0.236500	0.982200	0.748200
H421	H42	0.598800	0.952800	0.084800
H431	H43	0.882200	0.086900	0.940100
H441	H44	0.509500	0.911800	0.959200
H451	H45	0.736500	0.017800	0.751800
H461	H46	0.026900	0.102600	0.173200
H471	H47	0.009500	0.088200	0.540800
H481	H48	0.526900	0.897400	0.326800
H491	H49	0.600700	0.948900	0.209200
H501	H50	0.268100	0.773100	0.963000
H511	H51	0.802500	0.381100	0.547500
H521	H52	0.743000	0.505600	0.743500
H531	H53	0.914200	0.184000	0.114700
H541	H54	0.791900	0.255600	0.186500
H551	H55	0.243000	0.494400	0.756500
H561	H56	0.382200	0.913100	0.559900
C571	C57	0.320500	0.800000	0.988700
C581	C58	0.614200	0.620600	0.700700
C591	C59	0.351900	0.622800	0.806500
C601	C60	0.634200	0.883500	0.793900
C611	C61	0.798700	0.980200	0.946700
C621	C62	0.409100	0.824000	0.180500
C631	C63	0.284100	0.564700	0.847700
C641	C64	0.051700	0.081300	0.317900
C651	C65	0.549800	0.922100	0.108400
C661	C66	0.340200	0.950400	0.586900
C671	C67	0.229600	0.070900	0.587800
C681	C68	0.461600	0.883400	0.986100
C691	C69	0.980200	0.133400	0.201900
C701	C70	0.820500	0.200000	0.511300
C711	C71	0.840200	0.049600	0.913100
C721	C72	0.784100	0.435300	0.652300
C731	C73	0.768300	0.423200	0.575400
C741	C74	0.205500	0.056600	0.663200
C751	C75	0.114200	0.379400	0.799300
C761	C76	0.368900	0.867800	0.700200
C771	C77	0.049800	0.077900	0.391600
C781	C78	0.551700	0.918700	0.182100
C791	C79	0.152100	0.460700	0.920800
C801	C80	0.868900	0.132200	0.799800
C811	C81	0.482300	0.871100	0.221300
C821	C82	0.913100	0.180900	0.166700
C831	C83	0.982300	0.128900	0.278700
C841	C84	0.882900	0.152400	0.551000
C851	C85	0.134200	0.116500	0.706100
C861	C86	0.701100	0.474600	0.541100
C871	C87	0.413100	0.819100	0.333300
C881	C88	0.382900	0.847600	0.949000
C891	C89	0.751000	0.008900	0.801800
C901	C90	0.341200	0.774300	0.289500
C911	C91	0.909100	0.176000	0.319500
C921	C92	0.705500	0.943400	0.836800
C931	C93	0.472900	0.878900	0.062800
C941	C94	0.251000	0.991100	0.698200
C951	C95	0.729600	0.929100	0.912200
C961	C96	0.972900	0.121100	0.437200
C971	C97	0.903400	0.169500	0.398500
C981	C98	0.669400	0.552500	0.656300
C991	C99	0.233800	0.501400	0.808200
C1001	C100	0.169400	0.447500	0.843700
C1011	C101	0.480200	0.866600	0.298100
C1021	C102	0.851900	0.377200	0.693500
C1031	C103	0.841200	0.225700	0.210500
C1041	C104	0.818500	0.061600	0.840800
C1051	C105	0.318500	0.938400	0.659200
C1061	C106	0.201100	0.525400	0.958900
C1071	C107	0.961600	0.116600	0.513900
C1081	C108	0.652100	0.539300	0.579200
C1091	C109	0.268300	0.576800	0.924600
C1101	C110	0.403400	0.830500	0.101500
C1111	C111	0.733800	0.498600	0.691800
C1121	C112	0.298700	0.019800	0.553300
I51	I5	0.839720	0.958960	0.060430
I61	I6	0.168650	0.544020	0.075290
I71	I7	0.339720	0.041040	0.439570
I81	I8	0.668650	0.455980	0.424710
N51	N5	0.828500	0.211500	0.436400
N61	N6	0.841700	0.226500	0.284000
N71	N7	0.328500	0.788500	0.063600
N81	N8	0.341700	0.773500	0.216000
O171	O17	0.375500	0.871400	0.767800
O181	O18	0.875500	0.128600	0.732200
O191	O19	0.361200	0.615000	0.738300
O201	O20	0.407700	0.807400	0.658400
O211	O21	0.092800	0.172900	0.668800
O221	O22	0.907700	0.192600	0.841600
O231	O23	0.122400	0.108100	0.774800
O241	O24	0.897300	0.320700	0.653000
O251	O25	0.572300	0.678300	0.663900
O261	O26	0.107300	0.380000	0.728900
O271	O27	0.607300	0.620000	0.771100
O281	O28	0.397300	0.679300	0.847000
O291	O29	0.622400	0.891900	0.725200
O301	O30	0.592800	0.827100	0.831200
O311	O31	0.861200	0.385000	0.761700
O321	O32	0.072300	0.321700	0.836100
