data_CISLUN_clean_PM
_symmetry_space_group_name_H-M	'P1'
_cell_length_a	12.951700
_cell_length_b	14.733000
_cell_length_c	20.052000
_cell_angle_alpha	90.000000
_cell_angle_beta	129.256000
_cell_angle_gamma	90.000000
_symmetry_Int_Tables_number 1

loop_
_symmetry_equiv_pos_as_xyz
'x,y,z'

loop_
_atom_site_label
_atom_site_type_symbol
_atom_site_fract_x
_atom_site_fract_y
_atom_site_fract_z
Cu11	Cu1	0.613440	0.208160	0.597630
N11	N1	0.554100	0.095800	0.456100
N21	N2	0.604700	0.175100	0.496000
N31	N3	0.628400	0.226500	0.453800
N41	N4	0.544400	0.092700	0.386400
N51	N5	0.609600	0.255200	0.192800
N61	N6	0.750500	0.067500	0.668600
N71	N7	0.686100	0.997800	0.613700
N81	N8	0.766600	0.926700	0.639700
N91	N9	0.874000	0.041200	0.732500
N101	N10	0.461300	0.126400	0.550300
N111	N11	0.370900	0.143300	0.548200
N121	N12	0.225500	0.787600	0.849600
N131	N13	0.281800	0.157900	0.545400
C11	C1	0.590100	0.174000	0.387100
C21	C2	0.596900	0.201200	0.319000
C31	C3	0.638100	0.289400	0.318600
H11	H1	0.662800	0.330800	0.361500
C41	C4	0.566600	0.171300	0.190800
H21	H2	0.540700	0.131900	0.146300
C51	C5	0.882600	0.956200	0.712800
C61	C6	0.001800	0.899200	0.761600
C71	C7	0.112800	0.918200	0.845200
H31	H3	0.113900	0.968900	0.873300
C81	C8	0.641000	0.313200	0.253700
H41	H4	0.665700	0.372000	0.252300
C91	C9	0.560400	0.142600	0.254200
H51	H5	0.531800	0.084100	0.252700
C101	C10	0.004100	0.821600	0.722500
H61	H6	0.931000	0.806900	0.666200
C111	C11	0.115800	0.767100	0.768200
H71	H7	0.116000	0.714700	0.742400
C121	C12	0.221800	0.861600	0.886800
H81	H8	0.296100	0.875400	0.943000
Cu21	Cu2	0.386560	0.708160	0.902370
N141	N14	0.445900	0.595800	0.043900
N151	N15	0.395300	0.675100	0.004000
N161	N16	0.371600	0.726500	0.046200
N171	N17	0.455600	0.592700	0.113600
N181	N18	0.390400	0.755200	0.307200
N191	N19	0.249500	0.567500	0.831400
N201	N20	0.313900	0.497800	0.886300
N211	N21	0.233400	0.426700	0.860300
N221	N22	0.126000	0.541200	0.767500
N231	N23	0.538700	0.626400	0.949700
N241	N24	0.629100	0.643300	0.951800
N251	N25	0.774500	0.287600	0.650400
N261	N26	0.718200	0.657900	0.954600
C131	C13	0.409900	0.674000	0.112900
C141	C14	0.403100	0.701200	0.181000
C151	C15	0.361900	0.789400	0.181400
H91	H9	0.337200	0.830800	0.138500
C161	C16	0.433400	0.671300	0.309200
H101	H10	0.459300	0.631900	0.353700
C171	C17	0.117400	0.456200	0.787200
C181	C18	0.998200	0.399200	0.738400
C191	C19	0.887200	0.418200	0.654800
H111	H11	0.886100	0.468900	0.626700
C201	C20	0.359000	0.813200	0.246300
H121	H12	0.334300	0.872000	0.247700
C211	C21	0.439600	0.642600	0.245800
H131	H13	0.468200	0.584100	0.247300
C221	C22	0.995900	0.321600	0.777500
H141	H14	0.069000	0.306900	0.833800
C231	C23	0.884200	0.267100	0.731800
H151	H15	0.884000	0.214700	0.757600
C241	C24	0.778200	0.361600	0.613200
H161	H16	0.703900	0.375400	0.557000
Cu31	Cu3	0.386560	0.791840	0.402370
N271	N27	0.445900	0.904200	0.543900
N281	N28	0.395300	0.824900	0.504000
N291	N29	0.371600	0.773500	0.546200
N301	N30	0.455600	0.907300	0.613600
N311	N31	0.390400	0.744800	0.807200
N321	N32	0.249500	0.932500	0.331400
N331	N33	0.313900	0.002200	0.386300
N341	N34	0.233400	0.073300	0.360300
N351	N35	0.126000	0.958800	0.267500
N361	N36	0.538700	0.873600	0.449700
N371	N37	0.629100	0.856700	0.451800
N381	N38	0.774500	0.212400	0.150400
N391	N39	0.718200	0.842100	0.454600
C251	C25	0.409900	0.826000	0.612900
C261	C26	0.403100	0.798800	0.681000
C271	C27	0.361900	0.710600	0.681400
H171	H17	0.337200	0.669200	0.638500
C281	C28	0.433400	0.828700	0.809200
H181	H18	0.459300	0.868100	0.853700
C291	C29	0.117400	0.043800	0.287200
C301	C30	0.998200	0.100800	0.238400
C311	C31	0.887200	0.081800	0.154800
H191	H19	0.886100	0.031100	0.126700
C321	C32	0.359000	0.686800	0.746300
H201	H20	0.334300	0.628000	0.747700
C331	C33	0.439600	0.857400	0.745800
H211	H21	0.468200	0.915900	0.747300
C341	C34	0.995900	0.178400	0.277500
H221	H22	0.069000	0.193100	0.333800
C351	C35	0.884200	0.232900	0.231800
H231	H23	0.884000	0.285300	0.257600
C361	C36	0.778200	0.138400	0.113200
H241	H24	0.703900	0.124600	0.057000
Cu41	Cu4	0.613440	0.291840	0.097630
N401	N40	0.554100	0.404200	0.956100
N411	N41	0.604700	0.324900	0.996000
N421	N42	0.628400	0.273500	0.953800
N431	N43	0.544400	0.407300	0.886400
N441	N44	0.609600	0.244800	0.692800
N451	N45	0.750500	0.432500	0.168600
N461	N46	0.686100	0.502200	0.113700
N471	N47	0.766600	0.573300	0.139700
N481	N48	0.874000	0.458800	0.232500
N491	N49	0.461300	0.373600	0.050300
N501	N50	0.370900	0.356700	0.048200
N511	N51	0.225500	0.712400	0.349600
N521	N52	0.281800	0.342100	0.045400
C371	C37	0.590100	0.326000	0.887100
C381	C38	0.596900	0.298800	0.819000
C391	C39	0.638100	0.210600	0.818600
H251	H25	0.662800	0.169200	0.861500
C401	C40	0.566600	0.328700	0.690800
H261	H26	0.540700	0.368100	0.646300
C411	C41	0.882600	0.543800	0.212800
C421	C42	0.001800	0.600800	0.261600
C431	C43	0.112800	0.581800	0.345200
H271	H27	0.113900	0.531100	0.373300
C441	C44	0.641000	0.186800	0.753700
H281	H28	0.665700	0.128000	0.752300
C451	C45	0.560400	0.357400	0.754200
H291	H29	0.531800	0.415900	0.752700
C461	C46	0.004100	0.678400	0.222500
H301	H30	0.931000	0.693100	0.166200
C471	C47	0.115800	0.732900	0.268200
H311	H31	0.116000	0.785300	0.242400
C481	C48	0.221800	0.638400	0.386800
H321	H32	0.296100	0.624600	0.443000
Cu51	Cu5	0.500000	0.000000	0.500000
Cu61	Cu6	0.500000	0.500000	0.000000
