data_CISMEY01_clean_PM
_symmetry_space_group_name_H-M	'P1'
_cell_length_a	9.153000
_cell_length_b	9.486600
_cell_length_c	11.153100
_cell_angle_alpha	90.929000
_cell_angle_beta	99.746000
_cell_angle_gamma	105.174000
_symmetry_Int_Tables_number 1

loop_
_symmetry_equiv_pos_as_xyz
'x,y,z'

loop_
_atom_site_label
_atom_site_type_symbol
_atom_site_fract_x
_atom_site_fract_y
_atom_site_fract_z
Cd11	Cd1	0.338390	0.133840	0.467130
Cd21	Cd2	0.495820	0.476790	0.649970
C11	C1	0.575500	0.764500	0.803300
C21	C2	0.634000	0.862500	0.918000
C31	C3	0.648100	0.803800	0.031300
H11	H1	0.625500	0.702800	0.036300
C41	C4	0.695700	0.894900	0.137200
C51	C5	0.701100	0.829500	0.259500
C61	C6	0.668200	0.014100	0.910700
H21	H2	0.658300	0.054300	0.835200
C71	C7	0.730100	0.046300	0.130100
H31	H3	0.761400	0.107900	0.200700
C81	C8	0.717000	0.103800	0.016500
C91	C9	0.855200	0.352600	0.079500
C101	C10	0.991800	0.325200	0.130200
H41	H4	0.009000	0.234600	0.115700
C111	C11	0.104300	0.434900	0.203500
H51	H5	0.196700	0.416700	0.238700
C121	C12	0.080700	0.571100	0.224800
C131	C13	0.943000	0.596400	0.170800
H61	H6	0.926300	0.687800	0.182900
C141	C14	0.829300	0.486900	0.098700
H71	H7	0.736500	0.504300	0.063600
C151	C15	0.198000	0.687400	0.303300
H81	H8	0.281000	0.383000	0.467000
N11	N1	0.342600	0.684200	0.347460
N21	N2	0.407100	0.811500	0.414740
N31	N3	0.305600	0.886600	0.410300
N41	N4	0.171600	0.811600	0.340700
O11	O1	0.538500	0.820700	0.704920
O21	O2	0.561700	0.629490	0.813860
O31	O3	0.658800	0.693000	0.258500
O41	O4	0.748000	0.916100	0.353970
O51	O5	0.739300	0.252590	0.001750
O61	O6	0.360100	0.373730	0.468630
Cd31	Cd3	0.661610	0.866160	0.532870
Cd41	Cd4	0.504180	0.523210	0.350030
C161	C16	0.424500	0.235500	0.196700
C171	C17	0.366000	0.137500	0.082000
C181	C18	0.351900	0.196200	0.968700
H91	H9	0.374500	0.297200	0.963700
C191	C19	0.304300	0.105100	0.862800
C201	C20	0.298900	0.170500	0.740500
C211	C21	0.331800	0.985900	0.089300
H101	H10	0.341700	0.945700	0.164800
C221	C22	0.269900	0.953700	0.869900
H111	H11	0.238600	0.892100	0.799300
C231	C23	0.283000	0.896200	0.983500
C241	C24	0.144800	0.647400	0.920500
C251	C25	0.008200	0.674800	0.869800
H121	H12	0.991000	0.765400	0.884300
C261	C26	0.895700	0.565100	0.796500
H131	H13	0.803300	0.583300	0.761300
C271	C27	0.919300	0.428900	0.775200
C281	C28	0.057000	0.403600	0.829200
H141	H14	0.073700	0.312200	0.817100
C291	C29	0.170700	0.513100	0.901300
H151	H15	0.263500	0.495700	0.936400
C301	C30	0.802000	0.312600	0.696700
H161	H16	0.719000	0.617000	0.533000
N51	N5	0.657400	0.315800	0.652540
N61	N6	0.592900	0.188500	0.585260
N71	N7	0.694400	0.113400	0.589700
N81	N8	0.828400	0.188400	0.659300
O71	O7	0.461500	0.179300	0.295080
O81	O8	0.438300	0.370510	0.186140
O91	O9	0.341200	0.307000	0.741500
O101	O10	0.252000	0.083900	0.646030
O111	O11	0.260700	0.747410	0.998250
O121	O12	0.639900	0.626270	0.531370
