data_CISXEJ_clean_PM
_symmetry_space_group_name_H-M	'P1'
_cell_length_a	11.221300
_cell_length_b	39.846800
_cell_length_c	22.494800
_cell_angle_alpha	90.000000
_cell_angle_beta	104.135000
_cell_angle_gamma	90.000000
_symmetry_Int_Tables_number 1

loop_
_symmetry_equiv_pos_as_xyz
'x,y,z'

loop_
_atom_site_label
_atom_site_type_symbol
_atom_site_fract_x
_atom_site_fract_y
_atom_site_fract_z
Pb11	Pb1	0.186040	0.485700	0.754420
P11	P1	0.666560	0.495290	0.321510
P21	P2	0.872590	0.405910	0.293650
P31	P3	0.135700	0.201080	0.496470
P41	P4	0.244290	0.259380	0.324880
P51	P5	0.817630	0.780150	0.072830
P61	P6	0.533800	0.808120	0.909180
Na11	Na1	0.493500	0.496310	0.744530
Na21	Na2	0.917800	0.430890	0.656400
O11	O1	0.748800	0.479380	0.376100
O21	O2	0.738200	0.411110	0.268600
O31	O3	0.386000	0.484330	0.818700
O41	O4	0.288300	0.446120	0.861500
O51	O5	0.672300	0.543100	0.616100
O61	O6	0.579600	0.505610	0.661700
O71	O7	0.160700	0.188220	0.560900
O81	O8	0.141500	0.269140	0.352600
O91	O9	0.310400	0.454470	0.700900
O101	O10	0.118400	0.444270	0.649700
O111	O11	0.883100	0.037760	0.332000
O121	O12	0.696500	0.026020	0.279200
O131	O13	0.761200	0.813600	0.074700
O141	O14	0.639600	0.786430	0.905700
O151	O15	0.643500	0.539840	0.785800
O161	O16	0.754800	0.578520	0.754100
O171	O17	0.310700	0.969780	0.231500
O181	O18	0.158100	0.944780	0.260800
C11	C1	0.707400	0.488190	0.249100
C21	C2	0.825300	0.479970	0.246500
C31	C3	0.851700	0.475930	0.186900
C41	C4	0.976500	0.472350	0.182200
H11	H1	0.041700	0.472700	0.218200
C51	C5	0.001500	0.468500	0.127100
H21	H2	0.084700	0.467200	0.124600
C61	C6	0.908900	0.466200	0.074100
H31	H3	0.929000	0.462700	0.036000
C71	C7	0.787800	0.469100	0.076000
C81	C8	0.757900	0.476060	0.134400
C91	C9	0.637800	0.484160	0.138200
H41	H4	0.573100	0.485000	0.102000
C101	C10	0.613800	0.490830	0.194000
H51	H5	0.533300	0.497300	0.195800
C111	C11	0.958200	0.443160	0.326000
C121	C12	0.928500	0.474700	0.302600
C131	C13	0.996700	0.503560	0.330200
C141	C14	0.968400	0.536300	0.306300
H61	H6	0.899500	0.539400	0.272600
C151	C15	0.035700	0.562600	0.329900
H71	H7	0.017800	0.584100	0.311800
C161	C16	0.134700	0.558400	0.382500
H81	H8	0.180700	0.577500	0.399900
C171	C17	0.165400	0.528020	0.408400
C181	C18	0.098100	0.499340	0.382500
C191	C19	0.126900	0.466190	0.403600
H91	H9	0.194400	0.462700	0.437900
C201	C20	0.062500	0.439350	0.377000
H101	H10	0.086600	0.417500	0.392400
C211	C21	0.685600	0.465490	0.019300
C221	C22	0.689500	0.484400	0.966900
H111	H11	0.758700	0.498200	0.967100
C231	C23	0.593900	0.483000	0.915600
H121	H12	0.595800	0.496400	0.880900
C241	C24	0.493500	0.461830	0.914300
C251	C25	0.493900	0.441630	0.965100
H131	H13	0.428400	0.426400	0.964300
C261	C26	0.589700	0.443970	0.016200
H141	H14	0.589300	0.430100	0.050600
C271	C27	0.381000	0.463710	0.861700
C281	C28	0.270400	0.525780	0.462300
C291	C29	0.383000	0.540820	0.459400
H151	H15	0.390300	0.551200	0.422500
C301	C30	0.481700	0.540580	0.509300
H161	H16	0.555900	0.551300	0.506800
C311	C31	0.474700	0.524650	0.564100
C321	C32	0.364000	0.509810	0.567000
H171	H17	0.357200	0.499100	0.603800
C331	C33	0.264000	0.510400	0.517200
H181	H18	0.189300	0.500100	0.520300
C341	C34	0.583700	0.524460	0.617200
C351	C35	0.510200	0.480880	0.306600
C361	C36	0.491800	0.446380	0.297600
H191	H19	0.560100	0.431900	0.300000
C371	C37	0.374300	0.433300	0.285000
H201	H20	0.361000	0.409900	0.278700
C381	C38	0.275600	0.455000	0.281900
H211	H21	0.195000	0.446000	0.274900
C391	C39	0.291400	0.488900	0.288400
H221	H22	0.222700	0.503400	0.284500
C401	C40	0.409100	0.501600	0.300800
H231	H23	0.421000	0.525200	0.305400
C411	C41	0.656200	0.539940	0.330000
C421	C42	0.650800	0.562500	0.283300
H241	H24	0.653700	0.554700	0.243800
C431	C43	0.641000	0.596700	0.293800
H251	H25	0.641400	0.612300	0.262000
C441	C44	0.630800	0.607700	0.349600
H261	H26	0.622800	0.631100	0.356100
C451	C45	0.631900	0.586000	0.396100
H271	H27	0.623500	0.593900	0.434700
C461	C46	0.645900	0.551800	0.385800
H281	H28	0.648300	0.536400	0.418300
C471	C47	0.906900	0.376480	0.355800
C481	C48	0.872000	0.385650	0.409000
H291	H29	0.835100	0.407000	0.410900
C491	C49	0.889800	0.364540	0.458300
H301	H30	0.865700	0.371500	0.494000
C501	C50	0.943400	0.332800	0.456800
H311	H31	0.954900	0.317900	0.490800
C511	C51	0.978300	0.323970	0.404500
H321	H32	0.015900	0.302800	0.402600
C521	C52	0.960200	0.345330	0.354200
H331	H33	0.984500	0.338500	0.318500
C531	C53	0.945800	0.391320	0.235000
C541	C54	0.872800	0.390200	0.176000
H341	H34	0.788200	0.396000	0.167900
C551	C55	0.925400	0.380300	0.127700
H351	H35	0.876400	0.379600	0.086800
C561	C56	0.045100	0.371900	0.139700
H361	H36	0.079300	0.365100	0.107000
C571	C57	0.119500	0.373100	0.198700
H371	H37	0.203900	0.367200	0.206100
C581	C58	0.070200	0.382930	0.247000
H381	H38	0.120500	0.383900	0.287600
C591	C59	0.219900	0.239380	0.493000
C601	C60	0.316600	0.245490	0.467600
C611	C61	0.387000	0.276880	0.482200
C621	C62	0.498600	0.282080	0.465400
H391	H39	0.530100	0.264900	0.444200
C631	C63	0.561600	0.311100	0.478900
H401	H40	0.637300	0.314000	0.467700
C641	C64	0.515900	0.337060	0.509300
H411	H41	0.560900	0.357400	0.518400
C651	C65	0.406700	0.333400	0.526300
C661	C66	0.340800	0.302200	0.515600
C671	C67	0.236400	0.295140	0.536700
H421	H42	0.204200	0.312200	0.557900
C681	C68	0.179500	0.265220	0.528100
H431	H43	0.111700	0.261100	0.545400
C691	C69	0.340200	0.225390	0.365200
C701	C70	0.363300	0.221090	0.427500
C711	C71	0.438800	0.193520	0.456400
C721	C72	0.467500	0.188700	0.520400
H441	H44	0.438800	0.204400	0.545600
C731	C73	0.535800	0.161880	0.546600
H451	H45	0.553600	0.158900	0.589800
C741	C74	0.580000	0.138700	0.510700
H461	H46	0.626000	0.119900	0.529900
C751	C75	0.558900	0.142300	0.449000
C761	C76	0.485200	0.170300	0.419500
C771	C77	0.463800	0.176670	0.355900
H471	H47	0.499200	0.162400	0.331000
C781	C78	0.392700	0.203130	0.329900
H481	H48	0.378100	0.206700	0.287000
C791	C79	0.362900	0.361760	0.559500
C801	C80	0.243100	0.374470	0.538700
H491	H49	0.190400	0.365800	0.502300
C811	C81	0.201800	0.399410	0.570700
H501	H50	0.119800	0.407300	0.556900
C821	C82	0.278000	0.413280	0.623100
C831	C83	0.398600	0.401950	0.641400
H511	H51	0.453200	0.412300	0.675400
C841	C84	0.440400	0.376250	0.611600
H521	H52	0.522000	0.368200	0.626300
C851	C85	0.230000	0.439480	0.659300
C861	C86	0.612100	0.118050	0.412400
C871	C87	0.739100	0.111880	0.429900
H531	H53	0.789300	0.123800	0.463400
C881	C88	0.791500	0.088390	0.398500
H541	H54	0.877600	0.084500	0.410400
C891	C89	0.718600	0.070340	0.349400
C901	C90	0.592700	0.077490	0.331800
H551	H55	0.542200	0.065900	0.298000
C911	C91	0.541000	0.100960	0.362400
H561	H56	0.455600	0.105600	0.349300
C921	C92	0.771700	0.042910	0.319500
C931	C93	0.977000	0.213070	0.465900
C941	C94	0.890500	0.199690	0.494700
H571	H57	0.914900	0.185800	0.529900
C951	C95	0.766600	0.207500	0.469800
H581	H58	0.705300	0.198700	0.488000
C961	C96	0.733300	0.227900	0.419200
H591	H59	0.648800	0.232500	0.402000
C971	C97	0.819600	0.241630	0.393400
H601	H60	0.795800	0.256200	0.359200
C981	C98	0.941700	0.234190	0.417200
H611	H61	0.002200	0.243900	0.399500
C991	C99	0.163400	0.168420	0.445800
C1001	C100	0.132100	0.172380	0.382800
H621	H62	0.096500	0.192800	0.365300
C1011	C101	0.152400	0.146630	0.345200
H631	H63	0.130700	0.149300	0.301900
C1021	C102	0.204900	0.116780	0.371400
H641	H64	0.219800	0.099100	0.345800
C1031	C103	0.235400	0.112730	0.433700
H651	H65	0.270700	0.092300	0.451300
C1041	C104	0.214200	0.138780	0.471100
H661	H66	0.235000	0.136000	0.514300
C1051	C105	0.348900	0.294080	0.323100
C1061	C106	0.458400	0.289910	0.305000
H671	H67	0.478300	0.268700	0.290700
C1071	C107	0.538800	0.316960	0.307800
H681	H68	0.613100	0.314300	0.295200
C1081	C108	0.509200	0.347500	0.328900
H691	H69	0.564500	0.365800	0.332100
C1091	C109	0.397200	0.351620	0.345900
H701	H70	0.375500	0.372900	0.359100
C1101	C110	0.319500	0.324690	0.343300
H711	H71	0.244800	0.327300	0.355500
C1111	C111	0.187200	0.243460	0.248200
C1121	C112	0.232800	0.252870	0.198200
H721	H72	0.295100	0.269500	0.202800
C1131	C113	0.186700	0.237900	0.142300
H731	H73	0.220600	0.243700	0.108900
C1141	C114	0.093100	0.214700	0.133200
H741	H74	0.061200	0.204800	0.094100
C1151	C115	0.047200	0.206500	0.183300
H751	H75	0.982600	0.190500	0.178400
C1161	C116	0.092100	0.220500	0.238600
H761	H76	0.057700	0.214500	0.271800
C1171	C117	0.717000	0.749090	0.028500
C1181	C118	0.591700	0.752480	0.011700
C1191	C119	0.515200	0.726190	0.977500
C1201	C120	0.387900	0.727370	0.966100
H771	H77	0.349900	0.745800	0.981000
C1211	C121	0.316800	0.702700	0.934200
H781	H78	0.230100	0.703400	0.928300
C1221	C122	0.372800	0.675800	0.909600
H791	H79	0.322600	0.658900	0.886300
C1231	C123	0.496000	0.673860	0.918700
C1241	C124	0.573200	0.698030	0.957000
C1251	C125	0.702200	0.695460	0.973200
H801	H80	0.741400	0.676800	0.959700
C1261	C126	0.771900	0.720070	0.008800
H811	H81	0.858700	0.717700	0.020500
C1271	C127	0.501000	0.809400	0.984700
C1281	C128	0.528300	0.783250	0.026500
C1291	C129	0.496800	0.785330	0.083800
C1301	C130	0.514400	0.757980	0.124800
H821	H82	0.551300	0.737900	0.114900
C1311	C131	0.478900	0.760070	0.178500
H831	H83	0.485300	0.741000	0.204500
C1321	C132	0.432600	0.790810	0.195300
H841	H84	0.411800	0.792300	0.233700
C1331	C133	0.417000	0.817940	0.158400
C1341	C134	0.445700	0.816150	0.101100
C1351	C135	0.417800	0.841940	0.055600
H851	H85	0.380800	0.862100	0.065000
C1361	C136	0.441800	0.838850	0.000400
H861	H86	0.419200	0.856400	0.971200
C1371	C137	0.549300	0.645930	0.887300
C1381	C138	0.522700	0.612640	0.896100
H871	H87	0.475600	0.606700	0.924400
C1391	C139	0.567100	0.587580	0.862300
H881	H88	0.549800	0.564600	0.867900
C1401	C140	0.634000	0.596170	0.821800
C1411	C141	0.658700	0.630160	0.813400
H891	H89	0.703500	0.636500	0.784400
C1421	C142	0.618400	0.653700	0.846700
H901	H90	0.638600	0.676500	0.841900
C1431	C143	0.679500	0.569560	0.784200
C1441	C144	0.371500	0.850330	0.179700
C1451	C145	0.269400	0.851040	0.204100
H911	H91	0.226100	0.830900	0.207300
C1461	C146	0.230200	0.881460	0.223800
H921	H92	0.160400	0.881700	0.240700
C1471	C147	0.291400	0.911200	0.219200
C1481	C148	0.396600	0.909610	0.195600
H931	H93	0.441100	0.929500	0.192500
C1491	C149	0.435000	0.879940	0.177100
H941	H94	0.507100	0.879500	0.162100
C1501	C150	0.248600	0.943930	0.238300
C1511	C151	0.874900	0.762300	0.147300
C1521	C152	0.901300	0.730000	0.158400
H951	H95	0.880700	0.714500	0.125400
C1531	C153	0.958500	0.717900	0.217200
H961	H96	0.976800	0.694700	0.222600
C1541	C154	0.987000	0.738100	0.265100
H971	H97	0.022300	0.729900	0.305300
C1551	C155	0.963000	0.773000	0.253300
H981	H98	0.984200	0.788500	0.286300
C1561	C156	0.909500	0.784900	0.195100
H991	H99	0.896700	0.808300	0.188100
C1571	C157	0.948500	0.781910	0.039800
C1581	C158	0.065400	0.775400	0.073200
H1001	H100	0.079500	0.769000	0.115000
C1591	C159	0.166900	0.778300	0.044900
H1011	H101	0.248100	0.773200	0.067400
C1601	C160	0.144500	0.788700	0.985000
H1021	H102	0.211200	0.791500	0.966300
C1611	C161	0.028200	0.795000	0.952200
H1031	H103	0.014200	0.801500	0.910400
C1621	C162	0.927600	0.792100	0.979300
H1041	H104	0.846700	0.797100	0.956300
C1631	C163	0.562300	0.851700	0.894900
C1641	C164	0.660300	0.866590	0.935000
H1051	H105	0.708000	0.854000	0.968300
C1651	C165	0.689800	0.899400	0.927300
H1061	H106	0.759500	0.909000	0.954500
C1661	C166	0.619300	0.918700	0.880200
H1071	H107	0.640000	0.941500	0.875200
C1671	C167	0.517500	0.904000	0.840400
H1081	H108	0.466400	0.916800	0.808600
C1681	C168	0.491800	0.870470	0.847800
H1091	H109	0.424300	0.860200	0.819900
C1691	C169	0.394300	0.794910	0.857000
C1701	C170	0.282600	0.810500	0.850700
H1101	H110	0.276400	0.829400	0.875500
C1711	C171	0.177800	0.798900	0.808100
H1111	H111	0.101500	0.810400	0.802200
C1721	C172	0.188800	0.770300	0.775000
H1121	H112	0.118000	0.761900	0.746700
C1731	C173	0.292300	0.754300	0.781300
H1131	H113	0.295500	0.734600	0.757800
C1741	C174	0.397700	0.765800	0.821700
H1141	H114	0.472900	0.754000	0.825900
Pb21	Pb2	0.813960	0.985700	0.245580
P71	P7	0.333440	0.995290	0.678490
P81	P8	0.127410	0.905910	0.706350
P91	P9	0.864300	0.701080	0.503530
P101	P10	0.755710	0.759380	0.675120
P111	P11	0.182370	0.280150	0.927170
P121	P12	0.466200	0.308120	0.090820
Na31	Na3	0.506500	0.996310	0.255470
Na41	Na4	0.082200	0.930890	0.343600
O191	O19	0.251200	0.979380	0.623900
O201	O20	0.261800	0.911110	0.731400
O211	O21	0.614000	0.984330	0.181300
O221	O22	0.711700	0.946120	0.138500
O231	O23	0.327700	0.043100	0.383900
O241	O24	0.420400	0.005610	0.338300
O251	O25	0.839300	0.688220	0.439100
O261	O26	0.858500	0.769140	0.647400
O271	O27	0.689600	0.954470	0.299100
O281	O28	0.881600	0.944270	0.350300
O291	O29	0.116900	0.537760	0.668000
O301	O30	0.303500	0.526020	0.720800
O311	O31	0.238800	0.313600	0.925300
O321	O32	0.360400	0.286430	0.094300
O331	O33	0.356500	0.039840	0.214200
O341	O34	0.245200	0.078520	0.245900
O351	O35	0.689300	0.469780	0.768500
O361	O36	0.841900	0.444780	0.739200
C1751	C175	0.292600	0.988190	0.750900
C1761	C176	0.174700	0.979970	0.753500
C1771	C177	0.148300	0.975930	0.813100
C1781	C178	0.023500	0.972350	0.817800
H1151	H115	0.958300	0.972700	0.781800
C1791	C179	0.998500	0.968500	0.872900
H1161	H116	0.915300	0.967200	0.875400
C1801	C180	0.091100	0.966200	0.925900
H1171	H117	0.071000	0.962700	0.964000
C1811	C181	0.212200	0.969100	0.924000
C1821	C182	0.242100	0.976060	0.865600
C1831	C183	0.362200	0.984160	0.861800
H1181	H118	0.426900	0.985000	0.898000
C1841	C184	0.386200	0.990830	0.806000
H1191	H119	0.466700	0.997300	0.804200
C1851	C185	0.041800	0.943160	0.674000
C1861	C186	0.071500	0.974700	0.697400
C1871	C187	0.003300	0.003560	0.669800
C1881	C188	0.031600	0.036300	0.693700
H1201	H120	0.100500	0.039400	0.727400
C1891	C189	0.964300	0.062600	0.670100
H1211	H121	0.982200	0.084100	0.688200
C1901	C190	0.865300	0.058400	0.617500
H1221	H122	0.819300	0.077500	0.600100
C1911	C191	0.834600	0.028020	0.591600
C1921	C192	0.901900	0.999340	0.617500
C1931	C193	0.873100	0.966190	0.596400
H1231	H123	0.805600	0.962700	0.562100
C1941	C194	0.937500	0.939350	0.623000
H1241	H124	0.913400	0.917500	0.607600
C1951	C195	0.314400	0.965490	0.980700
C1961	C196	0.310500	0.984400	0.033100
H1251	H125	0.241300	0.998200	0.032900
C1971	C197	0.406100	0.983000	0.084400
H1261	H126	0.404200	0.996400	0.119100
C1981	C198	0.506500	0.961830	0.085700
C1991	C199	0.506100	0.941630	0.034900
H1271	H127	0.571600	0.926400	0.035700
C2001	C200	0.410300	0.943970	0.983800
H1281	H128	0.410700	0.930100	0.949400
C2011	C201	0.619000	0.963710	0.138300
C2021	C202	0.729600	0.025780	0.537700
C2031	C203	0.617000	0.040820	0.540600
H1291	H129	0.609700	0.051200	0.577500
C2041	C204	0.518300	0.040580	0.490700
H1301	H130	0.444100	0.051300	0.493200
C2051	C205	0.525300	0.024650	0.435900
C2061	C206	0.636000	0.009810	0.433000
H1311	H131	0.642800	0.999100	0.396200
C2071	C207	0.736000	0.010400	0.482800
H1321	H132	0.810700	0.000100	0.479700
C2081	C208	0.416300	0.024460	0.382800
C2091	C209	0.489800	0.980880	0.693400
C2101	C210	0.508200	0.946380	0.702400
H1331	H133	0.439900	0.931900	0.700000
C2111	C211	0.625700	0.933300	0.715000
H1341	H134	0.639000	0.909900	0.721300
C2121	C212	0.724400	0.955000	0.718100
H1351	H135	0.805000	0.946000	0.725100
C2131	C213	0.708600	0.988900	0.711600
H1361	H136	0.777300	0.003400	0.715500
C2141	C214	0.590900	0.001600	0.699200
H1371	H137	0.579000	0.025200	0.694600
C2151	C215	0.343800	0.039940	0.670000
C2161	C216	0.349200	0.062500	0.716700
H1381	H138	0.346300	0.054700	0.756200
C2171	C217	0.359000	0.096700	0.706200
H1391	H139	0.358600	0.112300	0.738000
C2181	C218	0.369200	0.107700	0.650400
H1401	H140	0.377200	0.131100	0.643900
C2191	C219	0.368100	0.086000	0.603900
H1411	H141	0.376500	0.093900	0.565300
C2201	C220	0.354100	0.051800	0.614200
H1421	H142	0.351700	0.036400	0.581700
C2211	C221	0.093100	0.876480	0.644200
C2221	C222	0.128000	0.885650	0.591000
H1431	H143	0.164900	0.907000	0.589100
C2231	C223	0.110200	0.864540	0.541700
H1441	H144	0.134300	0.871500	0.506000
C2241	C224	0.056600	0.832800	0.543200
H1451	H145	0.045100	0.817900	0.509200
C2251	C225	0.021700	0.823970	0.595500
H1461	H146	0.984100	0.802800	0.597400
C2261	C226	0.039800	0.845330	0.645800
H1471	H147	0.015500	0.838500	0.681500
C2271	C227	0.054200	0.891320	0.765000
C2281	C228	0.127200	0.890200	0.824000
H1481	H148	0.211800	0.896000	0.832100
C2291	C229	0.074600	0.880300	0.872300
H1491	H149	0.123600	0.879600	0.913200
C2301	C230	0.954900	0.871900	0.860300
H1501	H150	0.920700	0.865100	0.893000
C2311	C231	0.880500	0.873100	0.801300
H1511	H151	0.796100	0.867200	0.793900
C2321	C232	0.929800	0.882930	0.753000
H1521	H152	0.879500	0.883900	0.712400
C2331	C233	0.780100	0.739380	0.507000
C2341	C234	0.683400	0.745490	0.532400
C2351	C235	0.613000	0.776880	0.517800
C2361	C236	0.501400	0.782080	0.534600
H1531	H153	0.469900	0.764900	0.555800
C2371	C237	0.438400	0.811100	0.521100
H1541	H154	0.362700	0.814000	0.532300
C2381	C238	0.484100	0.837060	0.490700
H1551	H155	0.439100	0.857400	0.481600
C2391	C239	0.593300	0.833400	0.473700
C2401	C240	0.659200	0.802200	0.484400
C2411	C241	0.763600	0.795140	0.463300
H1561	H156	0.795800	0.812200	0.442100
C2421	C242	0.820500	0.765220	0.471900
H1571	H157	0.888300	0.761100	0.454600
C2431	C243	0.659800	0.725390	0.634800
C2441	C244	0.636700	0.721090	0.572500
C2451	C245	0.561200	0.693520	0.543600
C2461	C246	0.532500	0.688700	0.479600
H1581	H158	0.561200	0.704400	0.454400
C2471	C247	0.464200	0.661880	0.453400
H1591	H159	0.446400	0.658900	0.410200
C2481	C248	0.420000	0.638700	0.489300
H1601	H160	0.374000	0.619900	0.470100
C2491	C249	0.441100	0.642300	0.551000
C2501	C250	0.514800	0.670300	0.580500
C2511	C251	0.536200	0.676670	0.644100
H1611	H161	0.500800	0.662400	0.669000
C2521	C252	0.607300	0.703130	0.670100
H1621	H162	0.621900	0.706700	0.713000
C2531	C253	0.637100	0.861760	0.440500
C2541	C254	0.756900	0.874470	0.461300
H1631	H163	0.809600	0.865800	0.497700
C2551	C255	0.798200	0.899410	0.429300
H1641	H164	0.880200	0.907300	0.443100
C2561	C256	0.722000	0.913280	0.376900
C2571	C257	0.601400	0.901950	0.358600
H1651	H165	0.546800	0.912300	0.324600
C2581	C258	0.559600	0.876250	0.388400
H1661	H166	0.478000	0.868200	0.373700
C2591	C259	0.770000	0.939480	0.340700
C2601	C260	0.387900	0.618050	0.587600
C2611	C261	0.260900	0.611880	0.570100
H1671	H167	0.210700	0.623800	0.536600
C2621	C262	0.208500	0.588390	0.601500
H1681	H168	0.122400	0.584500	0.589600
C2631	C263	0.281400	0.570340	0.650600
C2641	C264	0.407300	0.577490	0.668200
H1691	H169	0.457800	0.565900	0.702000
C2651	C265	0.459000	0.600960	0.637600
H1701	H170	0.544400	0.605600	0.650700
C2661	C266	0.228300	0.542910	0.680500
C2671	C267	0.023000	0.713070	0.534100
C2681	C268	0.109500	0.699690	0.505300
H1711	H171	0.085100	0.685800	0.470100
C2691	C269	0.233400	0.707500	0.530200
H1721	H172	0.294700	0.698700	0.512000
C2701	C270	0.266700	0.727900	0.580800
H1731	H173	0.351200	0.732500	0.598000
C2711	C271	0.180400	0.741630	0.606600
H1741	H174	0.204200	0.756200	0.640800
C2721	C272	0.058300	0.734190	0.582800
H1751	H175	0.997800	0.743900	0.600500
C2731	C273	0.836600	0.668420	0.554200
C2741	C274	0.867900	0.672380	0.617200
H1761	H176	0.903500	0.692800	0.634700
C2751	C275	0.847600	0.646630	0.654800
H1771	H177	0.869300	0.649300	0.698100
C2761	C276	0.795100	0.616780	0.628600
H1781	H178	0.780200	0.599100	0.654200
C2771	C277	0.764600	0.612730	0.566300
H1791	H179	0.729300	0.592300	0.548700
C2781	C278	0.785800	0.638780	0.528900
H1801	H180	0.765000	0.636000	0.485700
C2791	C279	0.651100	0.794080	0.676900
C2801	C280	0.541600	0.789910	0.695000
H1811	H181	0.521700	0.768700	0.709300
C2811	C281	0.461200	0.816960	0.692200
H1821	H182	0.386900	0.814300	0.704800
C2821	C282	0.490800	0.847500	0.671100
H1831	H183	0.435500	0.865800	0.667900
C2831	C283	0.602800	0.851620	0.654100
H1841	H184	0.624500	0.872900	0.640900
C2841	C284	0.680500	0.824690	0.656700
H1851	H185	0.755200	0.827300	0.644500
C2851	C285	0.812800	0.743460	0.751800
C2861	C286	0.767200	0.752870	0.801800
H1861	H186	0.704900	0.769500	0.797200
C2871	C287	0.813300	0.737900	0.857700
H1871	H187	0.779400	0.743700	0.891100
C2881	C288	0.906900	0.714700	0.866800
H1881	H188	0.938800	0.704800	0.905900
C2891	C289	0.952800	0.706500	0.816700
H1891	H189	0.017400	0.690500	0.821600
C2901	C290	0.907900	0.720500	0.761400
H1901	H190	0.942300	0.714500	0.728200
C2911	C291	0.283000	0.249090	0.971500
C2921	C292	0.408300	0.252480	0.988300
C2931	C293	0.484800	0.226190	0.022500
C2941	C294	0.612100	0.227370	0.033900
H1911	H191	0.650100	0.245800	0.019000
C2951	C295	0.683200	0.202700	0.065800
H1921	H192	0.769900	0.203400	0.071700
C2961	C296	0.627200	0.175800	0.090400
H1931	H193	0.677400	0.158900	0.113700
C2971	C297	0.504000	0.173860	0.081300
C2981	C298	0.426800	0.198030	0.043000
C2991	C299	0.297800	0.195460	0.026800
H1941	H194	0.258600	0.176800	0.040300
C3001	C300	0.228100	0.220070	0.991200
H1951	H195	0.141300	0.217700	0.979500
C3011	C301	0.499000	0.309400	0.015300
C3021	C302	0.471700	0.283250	0.973500
C3031	C303	0.503200	0.285330	0.916200
C3041	C304	0.485600	0.257980	0.875200
H1961	H196	0.448700	0.237900	0.885100
C3051	C305	0.521100	0.260070	0.821500
H1971	H197	0.514700	0.241000	0.795500
C3061	C306	0.567400	0.290810	0.804700
H1981	H198	0.588200	0.292300	0.766300
C3071	C307	0.583000	0.317940	0.841600
C3081	C308	0.554300	0.316150	0.898900
C3091	C309	0.582200	0.341940	0.944400
H1991	H199	0.619200	0.362100	0.935000
C3101	C310	0.558200	0.338850	0.999600
H2001	H200	0.580800	0.356400	0.028800
C3111	C311	0.450700	0.145930	0.112700
C3121	C312	0.477300	0.112640	0.103900
H2011	H201	0.524400	0.106700	0.075600
C3131	C313	0.432900	0.087580	0.137700
H2021	H202	0.450200	0.064600	0.132100
C3141	C314	0.366000	0.096170	0.178200
C3151	C315	0.341300	0.130160	0.186600
H2031	H203	0.296500	0.136500	0.215600
C3161	C316	0.381600	0.153700	0.153300
H2041	H204	0.361400	0.176500	0.158100
C3171	C317	0.320500	0.069560	0.215800
C3181	C318	0.628500	0.350330	0.820300
C3191	C319	0.730600	0.351040	0.795900
H2051	H205	0.773900	0.330900	0.792700
C3201	C320	0.769800	0.381460	0.776200
H2061	H206	0.839600	0.381700	0.759300
C3211	C321	0.708600	0.411200	0.780800
C3221	C322	0.603400	0.409610	0.804400
H2071	H207	0.558900	0.429500	0.807500
C3231	C323	0.565000	0.379940	0.822900
H2081	H208	0.492900	0.379500	0.837900
C3241	C324	0.751400	0.443930	0.761700
C3251	C325	0.125100	0.262300	0.852700
C3261	C326	0.098700	0.230000	0.841600
H2091	H209	0.119300	0.214500	0.874600
C3271	C327	0.041500	0.217900	0.782800
H2101	H210	0.023200	0.194700	0.777400
C3281	C328	0.013000	0.238100	0.734900
H2111	H211	0.977700	0.229900	0.694700
C3291	C329	0.037000	0.273000	0.746700
H2121	H212	0.015800	0.288500	0.713700
C3301	C330	0.090500	0.284900	0.804900
H2131	H213	0.103300	0.308300	0.811900
C3311	C331	0.051500	0.281910	0.960200
C3321	C332	0.934600	0.275400	0.926800
H2141	H214	0.920500	0.269000	0.885000
C3331	C333	0.833100	0.278300	0.955100
H2151	H215	0.751900	0.273200	0.932600
C3341	C334	0.855500	0.288700	0.015000
H2161	H216	0.788800	0.291500	0.033700
C3351	C335	0.971800	0.295000	0.047800
H2171	H217	0.985800	0.301500	0.089600
C3361	C336	0.072400	0.292100	0.020700
H2181	H218	0.153300	0.297100	0.043700
C3371	C337	0.437700	0.351700	0.105100
C3381	C338	0.339700	0.366590	0.065000
H2191	H219	0.292000	0.354000	0.031700
C3391	C339	0.310200	0.399400	0.072700
H2201	H220	0.240500	0.409000	0.045500
C3401	C340	0.380700	0.418700	0.119800
H2211	H221	0.360000	0.441500	0.124800
C3411	C341	0.482500	0.404000	0.159600
H2221	H222	0.533600	0.416800	0.191400
C3421	C342	0.508200	0.370470	0.152200
H2231	H223	0.575700	0.360200	0.180100
C3431	C343	0.605700	0.294910	0.143000
C3441	C344	0.717400	0.310500	0.149300
H2241	H224	0.723600	0.329400	0.124500
C3451	C345	0.822200	0.298900	0.191900
H2251	H225	0.898500	0.310400	0.197800
C3461	C346	0.811200	0.270300	0.225000
H2261	H226	0.882000	0.261900	0.253300
C3471	C347	0.707700	0.254300	0.218700
H2271	H227	0.704500	0.234600	0.242200
C3481	C348	0.602300	0.265800	0.178300
H2281	H228	0.527100	0.254000	0.174100
