data_CIWROQ_clean_PM
_symmetry_space_group_name_H-M	'P1'
_cell_length_a	13.793400
_cell_length_b	27.424000
_cell_length_c	45.907000
_cell_angle_alpha	90.000000
_cell_angle_beta	90.000000
_cell_angle_gamma	90.000000
_symmetry_Int_Tables_number 1

loop_
_symmetry_equiv_pos_as_xyz
'x,y,z'

loop_
_atom_site_label
_atom_site_type_symbol
_atom_site_fract_x
_atom_site_fract_y
_atom_site_fract_z
Zn11	Zn1	0.146800	0.051450	0.571140
Zn21	Zn2	0.356280	0.027860	0.413440
Zn31	Zn3	0.149330	0.243830	0.311530
Zn41	Zn4	0.853200	0.448550	0.071140
Zn51	Zn5	0.643720	0.472140	0.913440
Zn61	Zn6	0.850670	0.256170	0.811530
Zn71	Zn7	0.646800	0.948550	0.928860
Zn81	Zn8	0.856280	0.972140	0.086560
Zn91	Zn9	0.649330	0.756170	0.188470
Zn101	Zn10	0.353200	0.551450	0.428860
Zn111	Zn11	0.143720	0.527860	0.586560
Zn121	Zn12	0.350670	0.743830	0.688470
H11	H1	0.492800	0.050600	0.463100
H21	H2	0.649000	0.080000	0.470600
H31	H3	0.514600	0.073900	0.379100
H41	H4	0.670300	0.104200	0.384200
H51	H5	0.937900	0.227000	0.328300
H61	H6	0.848800	0.193200	0.366000
H71	H7	0.184700	0.187300	0.365200
H81	H8	0.101200	0.152300	0.403600
H91	H9	0.182000	0.106700	0.515000
H101	H10	0.097100	0.134100	0.474700
H111	H11	0.954000	0.033100	0.542900
H121	H12	0.864000	0.057900	0.503000
H131	H13	0.080100	0.080600	0.631300
H141	H14	0.056300	0.149300	0.659400
H151	H15	0.148400	0.160000	0.563100
H161	H16	0.124700	0.231900	0.588800
H171	H17	0.110100	0.422800	0.570500
H181	H18	0.090600	0.347200	0.592200
H191	H19	0.096900	0.488600	0.646700
H201	H20	0.072400	0.415300	0.670500
H211	H21	0.911400	0.335500	0.771700
H221	H22	0.973600	0.346100	0.724700
H231	H23	0.966600	0.194600	0.769000
H241	H24	0.027900	0.201300	0.722000
H251	H25	0.507200	0.449400	0.963100
H261	H26	0.351000	0.420000	0.970600
H271	H27	0.485400	0.426100	0.879100
H281	H28	0.329700	0.395800	0.884200
H291	H29	0.062100	0.273000	0.828300
H301	H30	0.151200	0.306800	0.866000
H311	H31	0.815300	0.312700	0.865200
H321	H32	0.898800	0.347700	0.903600
H331	H33	0.818000	0.393300	0.015000
H341	H34	0.902900	0.365900	0.974700
H351	H35	0.046000	0.466900	0.042900
H361	H36	0.136000	0.442100	0.003000
H371	H37	0.919900	0.419400	0.131300
H381	H38	0.943700	0.350700	0.159400
H391	H39	0.851600	0.340000	0.063100
H401	H40	0.875300	0.268100	0.088800
H411	H41	0.889900	0.077200	0.070500
H421	H42	0.909400	0.152800	0.092200
H431	H43	0.903100	0.011400	0.146700
H441	H44	0.927600	0.084700	0.170500
H451	H45	0.088600	0.164500	0.271700
H461	H46	0.026400	0.153900	0.224700
H471	H47	0.033400	0.305400	0.269000
H481	H48	0.972100	0.298700	0.222000
H491	H49	0.992800	0.949400	0.036900
H501	H50	0.149000	0.920000	0.029400
H511	H51	0.014600	0.926100	0.120900
H521	H52	0.170300	0.895800	0.115800
H531	H53	0.437900	0.773000	0.171700
H541	H54	0.348800	0.806800	0.134000
H551	H55	0.684700	0.812700	0.134800
H561	H56	0.601200	0.847700	0.096400
H571	H57	0.682000	0.893300	0.985000
H581	H58	0.597100	0.865900	0.025300
H591	H59	0.454000	0.966900	0.957100
H601	H60	0.364000	0.942100	0.997000
H611	H61	0.580100	0.919400	0.868700
H621	H62	0.556300	0.850700	0.840600
H631	H63	0.648400	0.840000	0.936900
H641	H64	0.624700	0.768100	0.911200
H651	H65	0.610100	0.577200	0.929500
H661	H66	0.590600	0.652800	0.907800
H671	H67	0.596900	0.511400	0.853300
H681	H68	0.572400	0.584700	0.829500
H691	H69	0.411400	0.664500	0.728300
H701	H70	0.473600	0.653900	0.775300
H711	H71	0.466600	0.805400	0.731000
H721	H72	0.527900	0.798700	0.778000
H731	H73	0.007200	0.550600	0.536900
H741	H74	0.851000	0.580000	0.529400
H751	H75	0.985400	0.573900	0.620900
H761	H76	0.829700	0.604200	0.615800
H771	H77	0.562100	0.727000	0.671700
H781	H78	0.651200	0.693200	0.634000
H791	H79	0.315300	0.687300	0.634800
H801	H80	0.398800	0.652300	0.596400
H811	H81	0.318000	0.606700	0.485000
H821	H82	0.402900	0.634100	0.525300
H831	H83	0.546000	0.533100	0.457100
H841	H84	0.636000	0.557900	0.497000
H851	H85	0.419900	0.580600	0.368700
H861	H86	0.443700	0.649300	0.340600
H871	H87	0.351600	0.660000	0.436900
H881	H88	0.375300	0.731900	0.411200
H891	H89	0.389900	0.922800	0.429500
H901	H90	0.409400	0.847200	0.407800
H911	H91	0.403100	0.988600	0.353300
H921	H92	0.427600	0.915300	0.329500
H931	H93	0.588600	0.835500	0.228300
H941	H94	0.526400	0.846100	0.275300
H951	H95	0.533400	0.694600	0.231000
H961	H96	0.472100	0.701300	0.278000
C11	C1	0.529400	0.061500	0.446880
C21	C2	0.622600	0.079200	0.451470
C31	C3	0.542400	0.075200	0.398010
C41	C4	0.635300	0.093400	0.400770
C51	C5	0.676200	0.095380	0.428230
C61	C6	0.777600	0.112530	0.431890
C71	C7	0.971300	0.211600	0.343910
C81	C8	0.917600	0.191700	0.366270
C91	C9	0.115900	0.188450	0.365390
C101	C10	0.066600	0.167750	0.388330
C111	C11	0.965700	0.169660	0.388940
C121	C12	0.913000	0.146870	0.413500
C131	C13	0.116500	0.096900	0.512570
C141	C14	0.066400	0.113300	0.488450
C151	C15	0.983300	0.053790	0.528790
C161	C16	0.929200	0.068560	0.505230
C171	C17	0.971300	0.099380	0.484570
C181	C18	0.914300	0.114540	0.458590
C191	C19	0.089400	0.111780	0.622750
C201	C20	0.074900	0.152490	0.639600
C211	C21	0.129000	0.158140	0.582890
C221	C22	0.115400	0.201260	0.598070
C231	C23	0.087600	0.198580	0.627250
C241	C24	0.073700	0.242760	0.644770
C251	C25	0.103800	0.421060	0.591060
C261	C26	0.091700	0.375840	0.603800
C271	C27	0.095400	0.459400	0.635550
C281	C28	0.081500	0.415900	0.649950
C291	C29	0.081000	0.372750	0.633860
C301	C30	0.070900	0.324680	0.648120
C311	C31	0.934800	0.307900	0.761310
C321	C32	0.971400	0.314600	0.733270
C331	C33	0.966700	0.225570	0.759760
C341	C34	0.003600	0.229320	0.731730
C351	C35	0.004500	0.274130	0.718270
C361	C36	0.036400	0.278820	0.687440
C371	C37	0.470600	0.438500	0.946880
C381	C38	0.377400	0.420800	0.951470
C391	C39	0.457600	0.424800	0.898010
C401	C40	0.364700	0.406600	0.900770
C411	C41	0.323800	0.404620	0.928230
C421	C42	0.222400	0.387470	0.931890
C431	C43	0.028700	0.288400	0.843910
C441	C44	0.082400	0.308300	0.866270
C451	C45	0.884100	0.311550	0.865390
C461	C46	0.933400	0.332250	0.888330
C471	C47	0.034300	0.330340	0.888940
C481	C48	0.087000	0.353130	0.913500
C491	C49	0.883500	0.403100	0.012570
C501	C50	0.933600	0.386700	0.988450
C511	C51	0.016700	0.446210	0.028790
C521	C52	0.070800	0.431440	0.005230
C531	C53	0.028700	0.400620	0.984570
C541	C54	0.085700	0.385460	0.958590
C551	C55	0.910600	0.388220	0.122750
C561	C56	0.925100	0.347510	0.139600
C571	C57	0.871000	0.341860	0.082890
C581	C58	0.884600	0.298740	0.098070
C591	C59	0.912400	0.301420	0.127250
C601	C60	0.926300	0.257240	0.144770
C611	C61	0.896200	0.078940	0.091060
C621	C62	0.908300	0.124160	0.103800
C631	C63	0.904600	0.040600	0.135550
C641	C64	0.918500	0.084100	0.149950
C651	C65	0.919000	0.127250	0.133860
C661	C66	0.929100	0.175320	0.148120
C671	C67	0.065200	0.192100	0.261310
C681	C68	0.028600	0.185400	0.233270
C691	C69	0.033300	0.274430	0.259760
C701	C70	0.996400	0.270680	0.231730
C711	C71	0.995500	0.225870	0.218270
C721	C72	0.963600	0.221180	0.187440
C731	C73	0.029400	0.938500	0.053120
C741	C74	0.122600	0.920800	0.048530
C751	C75	0.042400	0.924800	0.101990
C761	C76	0.135300	0.906600	0.099230
C771	C77	0.176200	0.904620	0.071770
C781	C78	0.277600	0.887470	0.068110
C791	C79	0.471300	0.788400	0.156090
C801	C80	0.417600	0.808300	0.133730
C811	C81	0.615900	0.811550	0.134610
C821	C82	0.566600	0.832250	0.111670
C831	C83	0.465700	0.830340	0.111060
C841	C84	0.413000	0.853130	0.086500
C851	C85	0.616500	0.903100	0.987430
C861	C86	0.566400	0.886700	0.011550
C871	C87	0.483300	0.946210	0.971210
C881	C88	0.429200	0.931440	0.994770
C891	C89	0.471300	0.900620	0.015430
C901	C90	0.414300	0.885460	0.041410
C911	C91	0.589400	0.888220	0.877250
C921	C92	0.574900	0.847510	0.860400
C931	C93	0.629000	0.841860	0.917110
C941	C94	0.615400	0.798740	0.901930
C951	C95	0.587600	0.801420	0.872750
C961	C96	0.573700	0.757240	0.855230
C971	C97	0.603800	0.578940	0.908940
C981	C98	0.591700	0.624160	0.896200
C991	C99	0.595400	0.540600	0.864450
C1001	C100	0.581500	0.584100	0.850050
C1011	C101	0.581000	0.627250	0.866140
C1021	C102	0.570900	0.675320	0.851880
C1031	C103	0.434800	0.692100	0.738690
C1041	C104	0.471400	0.685400	0.766730
C1051	C105	0.466700	0.774430	0.740240
C1061	C106	0.503600	0.770680	0.768270
C1071	C107	0.504500	0.725870	0.781730
C1081	C108	0.536400	0.721180	0.812560
C1091	C109	0.970600	0.561500	0.553120
C1101	C110	0.877400	0.579200	0.548530
C1111	C111	0.957600	0.575200	0.601990
C1121	C112	0.864700	0.593400	0.599230
C1131	C113	0.823800	0.595380	0.571770
C1141	C114	0.722400	0.612530	0.568110
C1151	C115	0.528700	0.711600	0.656090
C1161	C116	0.582400	0.691700	0.633730
C1171	C117	0.384100	0.688450	0.634610
C1181	C118	0.433400	0.667750	0.611670
C1191	C119	0.534300	0.669660	0.611060
C1201	C120	0.587000	0.646870	0.586500
C1211	C121	0.383500	0.596900	0.487430
C1221	C122	0.433600	0.613300	0.511550
C1231	C123	0.516700	0.553790	0.471210
C1241	C124	0.570800	0.568560	0.494770
C1251	C125	0.528700	0.599380	0.515430
C1261	C126	0.585700	0.614540	0.541410
C1271	C127	0.410600	0.611780	0.377250
C1281	C128	0.425100	0.652490	0.360400
C1291	C129	0.371000	0.658140	0.417110
C1301	C130	0.384600	0.701260	0.401930
C1311	C131	0.412400	0.698580	0.372750
C1321	C132	0.426300	0.742760	0.355230
C1331	C133	0.396200	0.921060	0.408940
C1341	C134	0.408300	0.875840	0.396200
C1351	C135	0.404600	0.959400	0.364450
C1361	C136	0.418500	0.915900	0.350050
C1371	C137	0.419000	0.872750	0.366140
C1381	C138	0.429100	0.824680	0.351880
C1391	C139	0.565200	0.807900	0.238690
C1401	C140	0.528600	0.814600	0.266730
C1411	C141	0.533300	0.725570	0.240240
C1421	C142	0.496400	0.729320	0.268270
C1431	C143	0.495500	0.774130	0.281730
C1441	C144	0.463600	0.778820	0.312560
I11	I1	0.053450	0.983940	0.596930
I21	I2	0.330000	0.053790	0.564290
I31	I3	0.282300	0.008380	0.463070
I41	I4	0.264590	0.073530	0.373910
I51	I5	0.164720	0.334480	0.322850
I61	I6	0.303230	0.192500	0.304870
I71	I7	0.946550	0.516060	0.096930
I81	I8	0.670000	0.446210	0.064290
I91	I9	0.717700	0.491620	0.963070
I101	I10	0.735410	0.426470	0.873910
I111	I11	0.835280	0.165520	0.822850
I121	I12	0.696770	0.307500	0.804870
I131	I13	0.553450	0.016060	0.903070
I141	I14	0.830000	0.946210	0.935710
I151	I15	0.782300	0.991620	0.036930
I161	I16	0.764590	0.926470	0.126090
I171	I17	0.664720	0.665520	0.177150
I181	I18	0.803230	0.807500	0.195130
I191	I19	0.446550	0.483940	0.403070
I201	I20	0.170000	0.553790	0.435710
I211	I21	0.217700	0.508380	0.536930
I221	I22	0.235410	0.573530	0.626090
I231	I23	0.335280	0.834480	0.677150
I241	I24	0.196770	0.692500	0.695130
N11	N1	0.489500	0.059420	0.420310
N21	N2	0.069100	0.210270	0.343130
N31	N3	0.076500	0.067570	0.532630
N41	N4	0.819500	0.135100	0.409250
N51	N5	0.963700	0.137870	0.437740
N61	N6	0.821500	0.101840	0.457100
N71	N7	0.116500	0.114350	0.594550
N81	N8	0.106900	0.462640	0.606530
N91	N9	0.931300	0.263990	0.774250
N101	N10	0.085700	0.285800	0.631460
N111	N11	0.046400	0.323710	0.676370
N121	N12	0.049400	0.237310	0.672760
N131	N13	0.510500	0.440580	0.920310
N141	N14	0.930900	0.289730	0.843130
N151	N15	0.923500	0.432430	0.032630
N161	N16	0.180500	0.364900	0.909250
N171	N17	0.036300	0.362130	0.937740
N181	N18	0.178500	0.398160	0.957100
N191	N19	0.883500	0.385650	0.094550
N201	N20	0.893100	0.037360	0.106530
N211	N21	0.068700	0.236010	0.274250
N221	N22	0.914300	0.214200	0.131460
N231	N23	0.953600	0.176290	0.176370
N241	N24	0.950600	0.262690	0.172760
N251	N25	0.989500	0.940580	0.079690
N261	N26	0.569100	0.789730	0.156870
N271	N27	0.576500	0.932430	0.967370
N281	N28	0.319500	0.864900	0.090750
N291	N29	0.463700	0.862130	0.062260
N301	N30	0.321500	0.898160	0.042900
N311	N31	0.616500	0.885650	0.905450
N321	N32	0.606900	0.537360	0.893470
N331	N33	0.431300	0.736010	0.725750
N341	N34	0.585700	0.714200	0.868540
N351	N35	0.546400	0.676290	0.823630
N361	N36	0.549400	0.762690	0.827240
N371	N37	0.010500	0.559420	0.579690
N381	N38	0.430900	0.710270	0.656870
N391	N39	0.423500	0.567570	0.467370
N401	N40	0.680500	0.635100	0.590750
N411	N41	0.536300	0.637870	0.562260
N421	N42	0.678500	0.601840	0.542900
N431	N43	0.383500	0.614350	0.405450
N441	N44	0.393100	0.962640	0.393470
N451	N45	0.568700	0.763990	0.225750
N461	N46	0.414300	0.785800	0.368540
N471	N47	0.453600	0.823710	0.323630
N481	N48	0.450600	0.737310	0.327240
Zn131	Zn13	0.853200	0.948550	0.428860
Zn141	Zn14	0.643720	0.972140	0.586560
Zn151	Zn15	0.850670	0.756170	0.688470
Zn161	Zn16	0.146800	0.551450	0.928860
Zn171	Zn17	0.356280	0.527860	0.086560
Zn181	Zn18	0.149330	0.743830	0.188470
Zn191	Zn19	0.353200	0.051450	0.071140
Zn201	Zn20	0.143720	0.027860	0.913440
Zn211	Zn21	0.350670	0.243830	0.811530
Zn221	Zn22	0.646800	0.448550	0.571140
Zn231	Zn23	0.856280	0.472140	0.413440
Zn241	Zn24	0.649330	0.256170	0.311530
H971	H97	0.507200	0.949400	0.536900
H981	H98	0.351000	0.920000	0.529400
H991	H99	0.485400	0.926100	0.620900
H1001	H100	0.329700	0.895800	0.615800
H1011	H101	0.062100	0.773000	0.671700
H1021	H102	0.151200	0.806800	0.634000
H1031	H103	0.815300	0.812700	0.634800
H1041	H104	0.898800	0.847700	0.596400
H1051	H105	0.818000	0.893300	0.485000
H1061	H106	0.902900	0.865900	0.525300
H1071	H107	0.046000	0.966900	0.457100
H1081	H108	0.136000	0.942100	0.497000
H1091	H109	0.919900	0.919400	0.368700
H1101	H110	0.943700	0.850700	0.340600
H1111	H111	0.851600	0.840000	0.436900
H1121	H112	0.875300	0.768100	0.411200
H1131	H113	0.889900	0.577200	0.429500
H1141	H114	0.909400	0.652800	0.407800
H1151	H115	0.903100	0.511400	0.353300
H1161	H116	0.927600	0.584700	0.329500
H1171	H117	0.088600	0.664500	0.228300
H1181	H118	0.026400	0.653900	0.275300
H1191	H119	0.033400	0.805400	0.231000
H1201	H120	0.972100	0.798700	0.278000
H1211	H121	0.492800	0.550600	0.036900
H1221	H122	0.649000	0.580000	0.029400
H1231	H123	0.514600	0.573900	0.120900
H1241	H124	0.670300	0.604200	0.115800
H1251	H125	0.937900	0.727000	0.171700
H1261	H126	0.848800	0.693200	0.134000
H1271	H127	0.184700	0.687300	0.134800
H1281	H128	0.101200	0.652300	0.096400
H1291	H129	0.182000	0.606700	0.985000
H1301	H130	0.097100	0.634100	0.025300
H1311	H131	0.954000	0.533100	0.957100
H1321	H132	0.864000	0.557900	0.997000
H1331	H133	0.080100	0.580600	0.868700
H1341	H134	0.056300	0.649300	0.840600
H1351	H135	0.148400	0.660000	0.936900
H1361	H136	0.124700	0.731900	0.911200
H1371	H137	0.110100	0.922800	0.929500
H1381	H138	0.090600	0.847200	0.907800
H1391	H139	0.096900	0.988600	0.853300
H1401	H140	0.072400	0.915300	0.829500
H1411	H141	0.911400	0.835500	0.728300
H1421	H142	0.973600	0.846100	0.775300
H1431	H143	0.966600	0.694600	0.731000
H1441	H144	0.027900	0.701300	0.778000
H1451	H145	0.007200	0.050600	0.963100
H1461	H146	0.851000	0.080000	0.970600
H1471	H147	0.985400	0.073900	0.879100
H1481	H148	0.829700	0.104200	0.884200
H1491	H149	0.562100	0.227000	0.828300
H1501	H150	0.651200	0.193200	0.866000
H1511	H151	0.315300	0.187300	0.865200
H1521	H152	0.398800	0.152300	0.903600
H1531	H153	0.318000	0.106700	0.015000
H1541	H154	0.402900	0.134100	0.974700
H1551	H155	0.546000	0.033100	0.042900
H1561	H156	0.636000	0.057900	0.003000
H1571	H157	0.419900	0.080600	0.131300
H1581	H158	0.443700	0.149300	0.159400
H1591	H159	0.351600	0.160000	0.063100
H1601	H160	0.375300	0.231900	0.088800
H1611	H161	0.389900	0.422800	0.070500
H1621	H162	0.409400	0.347200	0.092200
H1631	H163	0.403100	0.488600	0.146700
H1641	H164	0.427600	0.415300	0.170500
H1651	H165	0.588600	0.335500	0.271700
H1661	H166	0.526400	0.346100	0.224700
H1671	H167	0.533400	0.194600	0.269000
H1681	H168	0.472100	0.201300	0.222000
H1691	H169	0.992800	0.449400	0.463100
H1701	H170	0.149000	0.420000	0.470600
H1711	H171	0.014600	0.426100	0.379100
H1721	H172	0.170300	0.395800	0.384200
H1731	H173	0.437900	0.273000	0.328300
H1741	H174	0.348800	0.306800	0.366000
H1751	H175	0.684700	0.312700	0.365200
H1761	H176	0.601200	0.347700	0.403600
H1771	H177	0.682000	0.393300	0.515000
H1781	H178	0.597100	0.365900	0.474700
H1791	H179	0.454000	0.466900	0.542900
H1801	H180	0.364000	0.442100	0.503000
H1811	H181	0.580100	0.419400	0.631300
H1821	H182	0.556300	0.350700	0.659400
H1831	H183	0.648400	0.340000	0.563100
H1841	H184	0.624700	0.268100	0.588800
H1851	H185	0.610100	0.077200	0.570500
H1861	H186	0.590600	0.152800	0.592200
H1871	H187	0.596900	0.011400	0.646700
H1881	H188	0.572400	0.084700	0.670500
H1891	H189	0.411400	0.164500	0.771700
H1901	H190	0.473600	0.153900	0.724700
H1911	H191	0.466600	0.305400	0.769000
H1921	H192	0.527900	0.298700	0.722000
C1451	C145	0.470600	0.938500	0.553120
C1461	C146	0.377400	0.920800	0.548530
C1471	C147	0.457600	0.924800	0.601990
C1481	C148	0.364700	0.906600	0.599230
C1491	C149	0.323800	0.904620	0.571770
C1501	C150	0.222400	0.887470	0.568110
C1511	C151	0.028700	0.788400	0.656090
C1521	C152	0.082400	0.808300	0.633730
C1531	C153	0.884100	0.811550	0.634610
C1541	C154	0.933400	0.832250	0.611670
C1551	C155	0.034300	0.830340	0.611060
C1561	C156	0.087000	0.853130	0.586500
C1571	C157	0.883500	0.903100	0.487430
C1581	C158	0.933600	0.886700	0.511550
C1591	C159	0.016700	0.946210	0.471210
C1601	C160	0.070800	0.931440	0.494770
C1611	C161	0.028700	0.900620	0.515430
C1621	C162	0.085700	0.885460	0.541410
C1631	C163	0.910600	0.888220	0.377250
C1641	C164	0.925100	0.847510	0.360400
C1651	C165	0.871000	0.841860	0.417110
C1661	C166	0.884600	0.798740	0.401930
C1671	C167	0.912400	0.801420	0.372750
C1681	C168	0.926300	0.757240	0.355230
C1691	C169	0.896200	0.578940	0.408940
C1701	C170	0.908300	0.624160	0.396200
C1711	C171	0.904600	0.540600	0.364450
C1721	C172	0.918500	0.584100	0.350050
C1731	C173	0.919000	0.627250	0.366140
C1741	C174	0.929100	0.675320	0.351880
C1751	C175	0.065200	0.692100	0.238690
C1761	C176	0.028600	0.685400	0.266730
C1771	C177	0.033300	0.774430	0.240240
C1781	C178	0.996400	0.770680	0.268270
C1791	C179	0.995500	0.725870	0.281730
C1801	C180	0.963600	0.721180	0.312560
C1811	C181	0.529400	0.561500	0.053120
C1821	C182	0.622600	0.579200	0.048530
C1831	C183	0.542400	0.575200	0.101990
C1841	C184	0.635300	0.593400	0.099230
C1851	C185	0.676200	0.595380	0.071770
C1861	C186	0.777600	0.612530	0.068110
C1871	C187	0.971300	0.711600	0.156090
C1881	C188	0.917600	0.691700	0.133730
C1891	C189	0.115900	0.688450	0.134610
C1901	C190	0.066600	0.667750	0.111670
C1911	C191	0.965700	0.669660	0.111060
C1921	C192	0.913000	0.646870	0.086500
C1931	C193	0.116500	0.596900	0.987430
C1941	C194	0.066400	0.613300	0.011550
C1951	C195	0.983300	0.553790	0.971210
C1961	C196	0.929200	0.568560	0.994770
C1971	C197	0.971300	0.599380	0.015430
C1981	C198	0.914300	0.614540	0.041410
C1991	C199	0.089400	0.611780	0.877250
C2001	C200	0.074900	0.652490	0.860400
C2011	C201	0.129000	0.658140	0.917110
C2021	C202	0.115400	0.701260	0.901930
C2031	C203	0.087600	0.698580	0.872750
C2041	C204	0.073700	0.742760	0.855230
C2051	C205	0.103800	0.921060	0.908940
C2061	C206	0.091700	0.875840	0.896200
C2071	C207	0.095400	0.959400	0.864450
C2081	C208	0.081500	0.915900	0.850050
C2091	C209	0.081000	0.872750	0.866140
C2101	C210	0.070900	0.824680	0.851880
C2111	C211	0.934800	0.807900	0.738690
C2121	C212	0.971400	0.814600	0.766730
C2131	C213	0.966700	0.725570	0.740240
C2141	C214	0.003600	0.729320	0.768270
C2151	C215	0.004500	0.774130	0.781730
C2161	C216	0.036400	0.778820	0.812560
C2171	C217	0.970600	0.061500	0.946880
C2181	C218	0.877400	0.079200	0.951470
C2191	C219	0.957600	0.075200	0.898010
C2201	C220	0.864700	0.093400	0.900770
C2211	C221	0.823800	0.095380	0.928230
C2221	C222	0.722400	0.112530	0.931890
C2231	C223	0.528700	0.211600	0.843910
C2241	C224	0.582400	0.191700	0.866270
C2251	C225	0.384100	0.188450	0.865390
C2261	C226	0.433400	0.167750	0.888330
C2271	C227	0.534300	0.169660	0.888940
C2281	C228	0.587000	0.146870	0.913500
C2291	C229	0.383500	0.096900	0.012570
C2301	C230	0.433600	0.113300	0.988450
C2311	C231	0.516700	0.053790	0.028790
C2321	C232	0.570800	0.068560	0.005230
C2331	C233	0.528700	0.099380	0.984570
C2341	C234	0.585700	0.114540	0.958590
C2351	C235	0.410600	0.111780	0.122750
C2361	C236	0.425100	0.152490	0.139600
C2371	C237	0.371000	0.158140	0.082890
C2381	C238	0.384600	0.201260	0.098070
C2391	C239	0.412400	0.198580	0.127250
C2401	C240	0.426300	0.242760	0.144770
C2411	C241	0.396200	0.421060	0.091060
C2421	C242	0.408300	0.375840	0.103800
C2431	C243	0.404600	0.459400	0.135550
C2441	C244	0.418500	0.415900	0.149950
C2451	C245	0.419000	0.372750	0.133860
C2461	C246	0.429100	0.324680	0.148120
C2471	C247	0.565200	0.307900	0.261310
C2481	C248	0.528600	0.314600	0.233270
C2491	C249	0.533300	0.225570	0.259760
C2501	C250	0.496400	0.229320	0.231730
C2511	C251	0.495500	0.274130	0.218270
C2521	C252	0.463600	0.278820	0.187440
C2531	C253	0.029400	0.438500	0.446880
C2541	C254	0.122600	0.420800	0.451470
C2551	C255	0.042400	0.424800	0.398010
C2561	C256	0.135300	0.406600	0.400770
C2571	C257	0.176200	0.404620	0.428230
C2581	C258	0.277600	0.387470	0.431890
C2591	C259	0.471300	0.288400	0.343910
C2601	C260	0.417600	0.308300	0.366270
C2611	C261	0.615900	0.311550	0.365390
C2621	C262	0.566600	0.332250	0.388330
C2631	C263	0.465700	0.330340	0.388940
C2641	C264	0.413000	0.353130	0.413500
C2651	C265	0.616500	0.403100	0.512570
C2661	C266	0.566400	0.386700	0.488450
C2671	C267	0.483300	0.446210	0.528790
C2681	C268	0.429200	0.431440	0.505230
C2691	C269	0.471300	0.400620	0.484570
C2701	C270	0.414300	0.385460	0.458590
C2711	C271	0.589400	0.388220	0.622750
C2721	C272	0.574900	0.347510	0.639600
C2731	C273	0.629000	0.341860	0.582890
C2741	C274	0.615400	0.298740	0.598070
C2751	C275	0.587600	0.301420	0.627250
C2761	C276	0.573700	0.257240	0.644770
C2771	C277	0.603800	0.078940	0.591060
C2781	C278	0.591700	0.124160	0.603800
C2791	C279	0.595400	0.040600	0.635550
C2801	C280	0.581500	0.084100	0.649950
C2811	C281	0.581000	0.127250	0.633860
C2821	C282	0.570900	0.175320	0.648120
C2831	C283	0.434800	0.192100	0.761310
C2841	C284	0.471400	0.185400	0.733270
C2851	C285	0.466700	0.274430	0.759760
C2861	C286	0.503600	0.270680	0.731730
C2871	C287	0.504500	0.225870	0.718270
C2881	C288	0.536400	0.221180	0.687440
I251	I25	0.946550	0.016060	0.403070
I261	I26	0.670000	0.946210	0.435710
I271	I27	0.717700	0.991620	0.536930
I281	I28	0.735410	0.926470	0.626090
I291	I29	0.835280	0.665520	0.677150
I301	I30	0.696770	0.807500	0.695130
I311	I31	0.053450	0.483940	0.903070
I321	I32	0.330000	0.553790	0.935710
I331	I33	0.282300	0.508380	0.036930
I341	I34	0.264590	0.573530	0.126090
I351	I35	0.164720	0.834480	0.177150
I361	I36	0.303230	0.692500	0.195130
I371	I37	0.446550	0.983940	0.096930
I381	I38	0.170000	0.053790	0.064290
I391	I39	0.217700	0.008380	0.963070
I401	I40	0.235410	0.073530	0.873910
I411	I41	0.335280	0.334480	0.822850
I421	I42	0.196770	0.192500	0.804870
I431	I43	0.553450	0.516060	0.596930
I441	I44	0.830000	0.446210	0.564290
I451	I45	0.782300	0.491620	0.463070
I461	I46	0.764590	0.426470	0.373910
I471	I47	0.664720	0.165520	0.322850
I481	I48	0.803230	0.307500	0.304870
N491	N49	0.510500	0.940580	0.579690
N501	N50	0.930900	0.789730	0.656870
N511	N51	0.923500	0.932430	0.467370
N521	N52	0.180500	0.864900	0.590750
N531	N53	0.036300	0.862130	0.562260
N541	N54	0.178500	0.898160	0.542900
N551	N55	0.883500	0.885650	0.405450
N561	N56	0.893100	0.537360	0.393470
N571	N57	0.068700	0.736010	0.225750
N581	N58	0.914300	0.714200	0.368540
N591	N59	0.953600	0.676290	0.323630
N601	N60	0.950600	0.762690	0.327240
N611	N61	0.489500	0.559420	0.079690
N621	N62	0.069100	0.710270	0.156870
N631	N63	0.076500	0.567570	0.967370
N641	N64	0.819500	0.635100	0.090750
N651	N65	0.963700	0.637870	0.062260
N661	N66	0.821500	0.601840	0.042900
N671	N67	0.116500	0.614350	0.905450
N681	N68	0.106900	0.962640	0.893470
N691	N69	0.931300	0.763990	0.725750
N701	N70	0.085700	0.785800	0.868540
N711	N71	0.046400	0.823710	0.823630
N721	N72	0.049400	0.737310	0.827240
N731	N73	0.010500	0.059420	0.920310
N741	N74	0.430900	0.210270	0.843130
N751	N75	0.423500	0.067570	0.032630
N761	N76	0.680500	0.135100	0.909250
N771	N77	0.536300	0.137870	0.937740
N781	N78	0.678500	0.101840	0.957100
N791	N79	0.383500	0.114350	0.094550
N801	N80	0.393100	0.462640	0.106530
N811	N81	0.568700	0.263990	0.274250
N821	N82	0.414300	0.285800	0.131460
N831	N83	0.453600	0.323710	0.176370
N841	N84	0.450600	0.237310	0.172760
N851	N85	0.989500	0.440580	0.420310
N861	N86	0.569100	0.289730	0.343130
N871	N87	0.576500	0.432430	0.532630
N881	N88	0.319500	0.364900	0.409250
N891	N89	0.463700	0.362130	0.437740
N901	N90	0.321500	0.398160	0.457100
N911	N91	0.616500	0.385650	0.594550
N921	N92	0.606900	0.037360	0.606530
N931	N93	0.431300	0.236010	0.774250
N941	N94	0.585700	0.214200	0.631460
N951	N95	0.546400	0.176290	0.676370
N961	N96	0.549400	0.262690	0.672760
