data_CIYZUG_clean_PM
_symmetry_space_group_name_H-M	'P1'
_cell_length_a	17.314000
_cell_length_b	5.362800
_cell_length_c	23.927000
_cell_angle_alpha	90.000000
_cell_angle_beta	133.577000
_cell_angle_gamma	90.000000
_symmetry_Int_Tables_number 1

loop_
_symmetry_equiv_pos_as_xyz
'x,y,z'

loop_
_atom_site_label
_atom_site_type_symbol
_atom_site_fract_x
_atom_site_fract_y
_atom_site_fract_z
O11	O1	0.607700	0.201400	0.565300
O21	O2	0.915300	0.746700	0.943400
N11	N1	0.894700	0.804000	0.630000
N21	N2	0.553800	0.020000	0.458200
H11	H1	0.506900	0.924300	0.419700
N31	N3	0.872200	0.803600	0.740600
N41	N4	0.896900	0.154400	0.911400
H21	H2	0.927300	0.298000	0.926300
C11	C1	0.904200	0.644300	0.591800
H31	H3	0.962900	0.538400	0.620100
C21	C2	0.831100	0.630500	0.512600
H41	H4	0.840200	0.516700	0.488200
C31	C3	0.743500	0.788300	0.469700
H51	H5	0.693300	0.781700	0.416100
C41	C4	0.731900	0.954300	0.507100
C51	C5	0.809200	0.956000	0.587000
H61	H6	0.801600	0.068700	0.612500
C61	C6	0.636200	0.123500	0.464200
H71	H7	0.658600	0.282500	0.490700
H81	H8	0.607300	0.153600	0.412800
C71	C7	0.547000	0.064700	0.508600
C81	C8	0.790500	0.647000	0.693200
H91	H9	0.790800	0.539400	0.662900
C91	C9	0.705400	0.638500	0.687400
H101	H10	0.649200	0.529000	0.653200
C101	C10	0.705000	0.793800	0.732900
H111	H11	0.648800	0.788800	0.730300
C111	C11	0.788700	0.957200	0.782500
C121	C12	0.870100	0.957000	0.784000
H121	H12	0.926200	0.068600	0.816700
C131	C13	0.791400	0.128600	0.834000
H131	H13	0.766200	0.292100	0.810200
H141	H14	0.742700	0.065200	0.837800
C141	C14	0.947100	0.964300	0.959500
O31	O3	0.392300	0.201400	0.934700
O41	O4	0.084700	0.746700	0.556600
N51	N5	0.105300	0.804000	0.870000
N61	N6	0.446200	0.020000	0.041800
H151	H15	0.493100	0.924300	0.080300
N71	N7	0.127800	0.803600	0.759400
N81	N8	0.103100	0.154400	0.588600
H161	H16	0.072700	0.298000	0.573700
C151	C15	0.095800	0.644300	0.908200
H171	H17	0.037100	0.538400	0.879900
C161	C16	0.168900	0.630500	0.987400
H181	H18	0.159800	0.516700	0.011800
C171	C17	0.256500	0.788300	0.030300
H191	H19	0.306700	0.781700	0.083900
C181	C18	0.268100	0.954300	0.992900
C191	C19	0.190800	0.956000	0.913000
H201	H20	0.198400	0.068700	0.887500
C201	C20	0.363800	0.123500	0.035800
H211	H21	0.341400	0.282500	0.009300
H221	H22	0.392700	0.153600	0.087200
C211	C21	0.453000	0.064700	0.991400
C221	C22	0.209500	0.647000	0.806800
H231	H23	0.209200	0.539400	0.837100
C231	C23	0.294600	0.638500	0.812600
H241	H24	0.350800	0.529000	0.846800
C241	C24	0.295000	0.793800	0.767100
H251	H25	0.351200	0.788800	0.769700
C251	C25	0.211300	0.957200	0.717500
C261	C26	0.129900	0.957000	0.716000
H261	H26	0.073800	0.068600	0.683300
C271	C27	0.208600	0.128600	0.666000
H271	H27	0.233800	0.292100	0.689800
H281	H28	0.257300	0.065200	0.662200
C281	C28	0.052900	0.964300	0.540500
O51	O5	0.392300	0.798600	0.434700
O61	O6	0.084700	0.253300	0.056600
N91	N9	0.105300	0.196000	0.370000
N101	N10	0.446200	0.980000	0.541800
H291	H29	0.493100	0.075700	0.580300
N111	N11	0.127800	0.196400	0.259400
N121	N12	0.103100	0.845600	0.088600
H301	H30	0.072700	0.702000	0.073700
C291	C29	0.095800	0.355700	0.408200
H311	H31	0.037100	0.461600	0.379900
C301	C30	0.168900	0.369500	0.487400
H321	H32	0.159800	0.483300	0.511800
C311	C31	0.256500	0.211700	0.530300
H331	H33	0.306700	0.218300	0.583900
C321	C32	0.268100	0.045700	0.492900
C331	C33	0.190800	0.044000	0.413000
H341	H34	0.198400	0.931300	0.387500
C341	C34	0.363800	0.876500	0.535800
H351	H35	0.341400	0.717500	0.509300
H361	H36	0.392700	0.846400	0.587200
C351	C35	0.453000	0.935300	0.491400
C361	C36	0.209500	0.353000	0.306800
H371	H37	0.209200	0.460600	0.337100
C371	C37	0.294600	0.361500	0.312600
H381	H38	0.350800	0.471000	0.346800
C381	C38	0.295000	0.206200	0.267100
H391	H39	0.351200	0.211200	0.269700
C391	C39	0.211300	0.042800	0.217500
C401	C40	0.129900	0.043000	0.216000
H401	H40	0.073800	0.931400	0.183300
C411	C41	0.208600	0.871400	0.166000
H411	H41	0.233800	0.707900	0.189800
H421	H42	0.257300	0.934800	0.162200
C421	C42	0.052900	0.035700	0.040500
O71	O7	0.607700	0.798600	0.065300
O81	O8	0.915300	0.253300	0.443400
N131	N13	0.894700	0.196000	0.130000
N141	N14	0.553800	0.980000	0.958200
H431	H43	0.506900	0.075700	0.919700
N151	N15	0.872200	0.196400	0.240600
N161	N16	0.896900	0.845600	0.411400
H441	H44	0.927300	0.702000	0.426300
C431	C43	0.904200	0.355700	0.091800
H451	H45	0.962900	0.461600	0.120100
C441	C44	0.831100	0.369500	0.012600
H461	H46	0.840200	0.483300	0.988200
C451	C45	0.743500	0.211700	0.969700
H471	H47	0.693300	0.218300	0.916100
C461	C46	0.731900	0.045700	0.007100
C471	C47	0.809200	0.044000	0.087000
H481	H48	0.801600	0.931300	0.112500
C481	C48	0.636200	0.876500	0.964200
H491	H49	0.658600	0.717500	0.990700
H501	H50	0.607300	0.846400	0.912800
C491	C49	0.547000	0.935300	0.008600
C501	C50	0.790500	0.353000	0.193200
H511	H51	0.790800	0.460600	0.162900
C511	C51	0.705400	0.361500	0.187400
H521	H52	0.649200	0.471000	0.153200
C521	C52	0.705000	0.206200	0.232900
H531	H53	0.648800	0.211200	0.230300
C531	C53	0.788700	0.042800	0.282500
C541	C54	0.870100	0.043000	0.284000
H541	H54	0.926200	0.931400	0.316700
C551	C55	0.791400	0.871400	0.334000
H551	H55	0.766200	0.707900	0.310200
H561	H56	0.742700	0.934800	0.337800
C561	C56	0.947100	0.035700	0.459500
Br11	Br1	0.000000	0.303290	0.750000
Cu11	Cu1	0.000000	0.804310	0.750000
Br21	Br2	0.000000	0.696710	0.250000
Cu21	Cu2	0.000000	0.195690	0.250000
