data_CIZLEE_clean_PM
_symmetry_space_group_name_H-M	'P1'
_cell_length_a	6.595000
_cell_length_b	9.165300
_cell_length_c	14.195800
_cell_angle_alpha	85.873000
_cell_angle_beta	82.166000
_cell_angle_gamma	74.734000
_symmetry_Int_Tables_number 1

loop_
_symmetry_equiv_pos_as_xyz
'x,y,z'

loop_
_atom_site_label
_atom_site_type_symbol
_atom_site_fract_x
_atom_site_fract_y
_atom_site_fract_z
C11	C1	0.224600	0.755000	0.192900
C21	C2	0.565000	0.074900	0.171700
C31	C3	0.653300	0.905400	0.187600
C41	C4	0.692400	0.839900	0.277200
C51	C5	0.673700	0.925900	0.364200
C61	C6	0.757500	0.683200	0.286200
H11	H1	0.788900	0.637300	0.346500
C71	C7	0.777900	0.591700	0.210400
C81	C8	0.844500	0.423500	0.234800
C91	C9	0.740100	0.656600	0.120800
C101	C10	0.735000	0.568100	0.036100
C111	C11	0.681600	0.816500	0.109700
H21	H2	0.661700	0.862900	0.048400
Cd11	Cd1	0.413060	0.385520	0.164680
Cd21	Cd2	0.058510	0.111280	0.275400
Cd31	Cd3	0.246040	0.877540	0.488550
N11	N1	0.210100	0.791000	0.101100
H31	H3	0.169600	0.886600	0.082000
H41	H4	0.241000	0.719300	0.059500
N21	N2	0.181700	0.854300	0.263100
N31	N3	0.214700	0.768500	0.344800
N41	N4	0.273000	0.625600	0.325700
N51	N5	0.281800	0.612000	0.231100
O11	O1	0.412000	0.143600	0.231400
O21	O2	0.640800	0.141800	0.101600
O31	O3	0.744300	0.042200	0.359300
O41	O4	0.594400	0.873300	0.441200
O51	O5	0.705000	0.349300	0.251900
O61	O6	0.034000	0.364600	0.246100
O71	O7	0.686900	0.444600	0.050900
O81	O8	0.776700	0.626700	0.953900
O91	O9	0.083900	0.105900	0.429900
H51	H5	0.158300	0.164200	0.438600
C121	C12	0.775400	0.245000	0.807100
C131	C13	0.435000	0.925100	0.828300
C141	C14	0.346700	0.094600	0.812400
C151	C15	0.307600	0.160100	0.722800
C161	C16	0.326300	0.074100	0.635800
C171	C17	0.242500	0.316800	0.713800
H61	H6	0.211100	0.362700	0.653500
C181	C18	0.222100	0.408300	0.789600
C191	C19	0.155500	0.576500	0.765200
C201	C20	0.259900	0.343400	0.879200
C211	C21	0.265000	0.431900	0.963900
C221	C22	0.318400	0.183500	0.890300
H71	H7	0.338300	0.137100	0.951600
Cd41	Cd4	0.586940	0.614480	0.835320
Cd51	Cd5	0.941490	0.888720	0.724600
Cd61	Cd6	0.753960	0.122460	0.511450
N61	N6	0.789900	0.209000	0.898900
H81	H8	0.830400	0.113400	0.918000
H91	H9	0.759000	0.280700	0.940500
N71	N7	0.818300	0.145700	0.736900
N81	N8	0.785300	0.231500	0.655200
N91	N9	0.727000	0.374400	0.674300
N101	N10	0.718200	0.388000	0.768900
O101	O10	0.588000	0.856400	0.768600
O111	O11	0.359200	0.858200	0.898400
O121	O12	0.255700	0.957800	0.640700
O131	O13	0.405600	0.126700	0.558800
O141	O14	0.295000	0.650700	0.748100
O151	O15	0.966000	0.635400	0.753900
O161	O16	0.313100	0.555400	0.949100
O171	O17	0.223300	0.373300	0.046100
O181	O18	0.916100	0.894100	0.570100
H101	H10	0.841700	0.835800	0.561400
