data_cm202876r_si_002_clean_PM
_symmetry_space_group_name_H-M	'P1'
_cell_length_a	10.817300
_cell_length_b	13.582000
_cell_length_c	14.703700
_cell_angle_alpha	110.628000
_cell_angle_beta	90.000000
_cell_angle_gamma	90.000000
_symmetry_Int_Tables_number 1

loop_
_symmetry_equiv_pos_as_xyz
'x,y,z'

loop_
_atom_site_label
_atom_site_type_symbol
_atom_site_fract_x
_atom_site_fract_y
_atom_site_fract_z
Co11	Co1	0.097470	0.590600	0.538860
Co21	Co2	0.989540	0.495900	0.707640
Co31	Co3	0.902530	0.409400	0.461140
Co41	Co4	0.510460	0.495900	0.207640
Co51	Co5	0.489540	0.504100	0.792360
Co61	Co6	0.597470	0.409400	0.961140
Co71	Co7	0.402530	0.590600	0.038860
Co81	Co8	0.010460	0.504100	0.292360
H11	H1	0.667300	0.149700	0.789900
H21	H2	0.068100	0.001100	0.710400
H31	H3	0.956800	0.860100	0.343500
H41	H4	0.370000	0.138900	0.858300
H51	H5	0.130000	0.138900	0.358300
H61	H6	0.568100	0.998900	0.789600
H71	H7	0.870000	0.861100	0.641700
H81	H8	0.641600	0.088500	0.992500
H91	H9	0.682200	0.949600	0.044000
H101	H10	0.832700	0.149700	0.289900
H111	H11	0.167300	0.850300	0.710100
H121	H12	0.317800	0.050400	0.956000
H131	H13	0.043200	0.139900	0.656500
H141	H14	0.817800	0.949600	0.544000
H151	H15	0.456800	0.139900	0.156500
H161	H16	0.358400	0.911500	0.007500
H171	H17	0.630000	0.861100	0.141700
H181	H18	0.332700	0.850300	0.210100
H191	H19	0.431900	0.001100	0.210400
H201	H20	0.543200	0.860100	0.843500
H211	H21	0.931900	0.998900	0.289600
H221	H22	0.141600	0.911500	0.507500
H231	H23	0.182200	0.050400	0.456000
H241	H24	0.858400	0.088500	0.492500
C11	C1	0.203100	0.982400	0.416380
C21	C2	0.804200	0.861310	0.682500
C31	C3	0.168300	0.314750	0.687800
C41	C4	0.758800	0.034510	0.173730
C51	C5	0.222400	0.054130	0.790550
C61	C6	0.890700	0.859850	0.303000
C71	C7	0.191900	0.224470	0.724090
C81	C8	0.382620	0.311180	0.819300
C91	C9	0.617380	0.688820	0.180700
C101	C10	0.706300	0.137200	0.730440
C111	C11	0.178600	0.898930	0.447360
C121	C12	0.777600	0.945870	0.209450
C131	C13	0.709700	0.776890	0.214880
C141	C14	0.668300	0.685250	0.812200
C151	C15	0.241200	0.965490	0.826270
C161	C16	0.666660	0.296400	0.086700
C171	C17	0.270640	0.779480	0.301290
C181	C18	0.209130	0.796870	0.389170
C191	C19	0.833340	0.296400	0.586700
C201	C20	0.316880	0.671480	0.240700
C211	C21	0.321400	0.898930	0.947360
C221	C22	0.821400	0.101070	0.552640
C231	C23	0.722400	0.945870	0.709450
C241	C24	0.695800	0.861310	0.182500
C251	C25	0.293700	0.862800	0.269560
C261	C26	0.882620	0.688820	0.680700
C271	C27	0.277600	0.054130	0.290550
C281	C28	0.290300	0.223110	0.785120
C291	C29	0.816880	0.328520	0.259300
C301	C30	0.331700	0.314750	0.187800
C311	C31	0.390700	0.140150	0.197000
C321	C32	0.678600	0.101070	0.052640
C331	C33	0.375700	0.056430	0.229570
C341	C34	0.308100	0.224470	0.224090
C351	C35	0.624300	0.943570	0.770430
C361	C36	0.290870	0.796870	0.889170
C371	C37	0.117380	0.311180	0.319300
C381	C38	0.183120	0.671480	0.740700
C391	C39	0.796900	0.017600	0.583620
C401	C40	0.790870	0.203130	0.610830
C411	C41	0.209700	0.223110	0.285120
C421	C42	0.304200	0.138690	0.817500
C431	C43	0.109300	0.140150	0.697000
C441	C44	0.195800	0.138690	0.317500
C451	C45	0.124300	0.056430	0.729570
C461	C46	0.875700	0.943570	0.270430
C471	C47	0.831700	0.685250	0.312200
C481	C48	0.793700	0.137200	0.230440
C491	C49	0.206300	0.862800	0.769560
C501	C50	0.741200	0.034510	0.673730
C511	C51	0.166660	0.703600	0.413300
C521	C52	0.709130	0.203130	0.110830
C531	C53	0.683120	0.328520	0.759300
C541	C54	0.229360	0.779480	0.801290
C551	C55	0.790300	0.776890	0.714880
C561	C56	0.609300	0.859850	0.803000
C571	C57	0.703100	0.017600	0.083620
C581	C58	0.691900	0.775530	0.775910
C591	C59	0.808100	0.775530	0.275910
C601	C60	0.296900	0.982400	0.916380
C611	C61	0.258800	0.965490	0.326270
C621	C62	0.770640	0.220520	0.198710
C631	C63	0.333340	0.703600	0.913300
C641	C64	0.729360	0.220520	0.698710
O11	O1	0.352920	0.621320	0.842020
O21	O2	0.030850	0.301710	0.371520
O31	O3	0.153140	0.715550	0.501370
O41	O4	0.777360	0.366460	0.345010
O51	O5	0.363730	0.388740	0.792330
O61	O6	0.958140	0.538890	0.432470
O71	O7	0.716000	0.688550	0.890510
O81	O8	0.895920	0.370280	0.221080
O91	O9	0.530850	0.698290	0.128480
O101	O10	0.604080	0.370280	0.721080
O111	O11	0.647080	0.378680	0.157980
O121	O12	0.104080	0.629720	0.778920
O131	O13	0.653140	0.284450	0.998630
O141	O14	0.904130	0.615440	0.260780
O151	O15	0.541860	0.538890	0.932470
O161	O16	0.458140	0.461110	0.067530
O171	O17	0.216000	0.311450	0.609490
O181	O18	0.136270	0.388740	0.292330
O191	O19	0.404130	0.384560	0.239220
O201	O20	0.041860	0.461110	0.567530
O211	O21	0.722640	0.366460	0.845010
O221	O22	0.147080	0.621320	0.342020
O231	O23	0.595870	0.615440	0.760780
O241	O24	0.469150	0.301710	0.871520
O251	O25	0.222640	0.633540	0.654990
O261	O26	0.346860	0.715550	0.001370
O271	O27	0.969150	0.698290	0.628480
O281	O28	0.784000	0.688550	0.390510
O291	O29	0.636270	0.611260	0.207670
O301	O30	0.277360	0.633540	0.154990
O311	O31	0.284000	0.311450	0.109490
O321	O32	0.863730	0.611260	0.707670
O331	O33	0.395920	0.629720	0.278920
O341	O34	0.846860	0.284450	0.498630
O351	O35	0.852920	0.378680	0.657980
O361	O36	0.095870	0.384560	0.739220
