data_cm303749m_si_001_clean_PM
_symmetry_space_group_name_H-M	'P1'
_cell_length_a	11.642500
_cell_length_b	13.856900
_cell_length_c	15.573800
_cell_angle_alpha	90.000000
_cell_angle_beta	90.000000
_cell_angle_gamma	90.000000
_symmetry_Int_Tables_number 1

loop_
_symmetry_equiv_pos_as_xyz
'x,y,z'

loop_
_atom_site_label
_atom_site_type_symbol
_atom_site_fract_x
_atom_site_fract_y
_atom_site_fract_z
O11	O1	0.392600	0.079340	0.082220
C11	C1	0.165450	0.086750	0.299650
H11	H1	0.140070	0.154840	0.327600
C21	C2	0.235740	0.086820	0.225950
H21	H2	0.262450	0.155310	0.199530
O21	O2	0.607400	0.920660	0.082220
C31	C3	0.834550	0.913250	0.299650
H31	H3	0.859930	0.845160	0.327600
C41	C4	0.764260	0.913180	0.225950
H41	H4	0.737550	0.844690	0.199530
O31	O3	0.607400	0.079340	0.917780
C51	C5	0.834550	0.086750	0.700350
H51	H5	0.859930	0.154840	0.672400
C61	C6	0.764260	0.086820	0.774050
H61	H6	0.737550	0.155310	0.800470
O41	O4	0.392600	0.920660	0.917780
C71	C7	0.165450	0.913250	0.700350
H71	H7	0.140070	0.845160	0.672400
C81	C8	0.235740	0.913180	0.774050
H81	H8	0.262450	0.844690	0.800470
O51	O5	0.607400	0.920660	0.917780
C91	C9	0.834550	0.913250	0.700350
H91	H9	0.859930	0.845160	0.672400
C101	C10	0.764260	0.913180	0.774050
H101	H10	0.737550	0.844690	0.800470
O61	O6	0.392600	0.079340	0.917780
C111	C11	0.165450	0.086750	0.700350
H111	H11	0.140070	0.154840	0.672400
C121	C12	0.235740	0.086820	0.774050
H121	H12	0.262450	0.155310	0.800470
O71	O7	0.392600	0.920660	0.082220
C131	C13	0.165450	0.913250	0.299650
H131	H13	0.140070	0.845160	0.327600
C141	C14	0.235740	0.913180	0.225950
H141	H14	0.262450	0.844690	0.199530
O81	O8	0.607400	0.079340	0.082220
C151	C15	0.834550	0.086750	0.299650
H151	H15	0.859930	0.154840	0.327600
C161	C16	0.764260	0.086820	0.225950
H161	H16	0.737550	0.155310	0.199530
Zn11	Zn1	0.500000	0.111180	0.000000
N11	N1	0.500000	0.244800	0.000000
C171	C17	0.500000	0.445680	0.000000
Zn21	Zn2	0.500000	0.888820	0.000000
N21	N2	0.500000	0.755200	0.000000
C181	C18	0.500000	0.554320	0.000000
C191	C19	0.119630	0.000000	0.500000
H171	H17	0.787390	0.000000	0.500000
C201	C20	0.880370	0.000000	0.500000
H181	H18	0.212610	0.000000	0.500000
C211	C21	0.061110	0.000000	0.420090
C221	C22	0.129960	0.000000	0.338050
C231	C23	0.273300	0.000000	0.187970
C241	C24	0.355950	0.000000	0.112910
C251	C25	0.938890	0.000000	0.420090
C261	C26	0.870040	0.000000	0.338050
C271	C27	0.726700	0.000000	0.187970
C281	C28	0.644050	0.000000	0.112910
C291	C29	0.938890	0.000000	0.579910
C301	C30	0.870040	0.000000	0.661950
C311	C31	0.726700	0.000000	0.812030
C321	C32	0.644050	0.000000	0.887090
C331	C33	0.061110	0.000000	0.579910
C341	C34	0.129960	0.000000	0.661950
C351	C35	0.273300	0.000000	0.812030
C361	C36	0.355950	0.000000	0.887090
C371	C37	0.398550	0.292290	0.000000
H191	H19	0.319020	0.252060	0.000000
C381	C38	0.396380	0.392490	0.000000
H201	H20	0.312850	0.425430	0.000000
C391	C39	0.601450	0.707710	0.000000
H211	H21	0.680980	0.747940	0.000000
C401	C40	0.603620	0.607510	0.000000
H221	H22	0.687150	0.574570	0.000000
C411	C41	0.601450	0.292290	0.000000
H231	H23	0.680980	0.252060	0.000000
C421	C42	0.603620	0.392490	0.000000
H241	H24	0.687150	0.425430	0.000000
C431	C43	0.398550	0.707710	0.000000
H251	H25	0.319020	0.747940	0.000000
C441	C44	0.396380	0.607510	0.000000
H261	H26	0.312850	0.574570	0.000000
