data_cm301726k_si_004_clean_PM
_symmetry_space_group_name_H-M	'P1'
_cell_length_a	12.573800
_cell_length_b	12.573800
_cell_length_c	14.334000
_cell_angle_alpha	90.000000
_cell_angle_beta	90.000000
_cell_angle_gamma	120.000000
_symmetry_Int_Tables_number 1

loop_
_symmetry_equiv_pos_as_xyz
'x,y,z'

loop_
_atom_site_label
_atom_site_type_symbol
_atom_site_fract_x
_atom_site_fract_y
_atom_site_fract_z
Mg11	Mg1	0.206100	0.486500	0.500000
Mg21	Mg2	0.486500	0.280400	0.500000
Mg31	Mg3	0.280400	0.793900	0.500000
Mg41	Mg4	0.793900	0.513500	0.500000
Mg51	Mg5	0.719600	0.206100	0.500000
Mg61	Mg6	0.513500	0.719600	0.500000
C71	C7	0.489900	0.880400	0.647100
C81	C8	0.393500	0.481900	0.948500
C91	C9	0.911600	0.393800	0.948600
C101	C10	0.489400	0.880300	0.353000
C111	C11	0.708000	0.534600	0.102000
C121	C12	0.510100	0.119600	0.352900
C131	C13	0.500100	0.499900	0.102100
C141	C14	0.907700	0.393600	0.750000
C151	C15	0.606200	0.517800	0.948600
C161	C16	0.911600	0.393500	0.051500
C171	C17	0.485900	0.092200	0.250400
C181	C18	0.390900	0.510600	0.353000
C191	C19	0.499900	0.999800	0.897900
C201	C20	0.999800	0.499900	0.102100
C211	C21	0.088400	0.606200	0.051400
C221	C22	0.880400	0.390500	0.352900
C231	C23	0.708100	0.533300	0.800400
C241	C24	0.609100	0.489400	0.647000
C251	C25	0.173500	0.708000	0.101800
C261	C26	0.174400	0.707500	0.800500
C271	C27	0.088400	0.606500	0.948500
C281	C28	0.500200	0.000000	0.797400
C291	C29	0.510600	0.119700	0.647000
C301	C30	0.174800	0.708100	0.199600
C311	C31	0.499800	0.499800	0.797400
C321	C32	0.517800	0.911600	0.051400
C331	C33	0.092300	0.606400	0.250000
C341	C34	0.000200	0.500100	0.897900
C351	C35	0.500100	0.000200	0.102100
C361	C36	0.606500	0.518100	0.051500
C371	C37	0.393700	0.485900	0.749600
C381	C38	0.514100	0.907800	0.749600
C391	C39	0.609500	0.489900	0.352900
C401	C40	0.000000	0.500200	0.797400
C411	C41	0.825600	0.292500	0.199500
C421	C42	0.500200	0.500200	0.202600
C431	C43	0.465400	0.173400	0.102000
C441	C44	0.707500	0.533100	0.199500
C451	C45	0.606300	0.514100	0.250400
C461	C46	0.393600	0.485900	0.250000
C471	C47	0.292000	0.465400	0.898000
C481	C48	0.533100	0.825600	0.800500
C491	C49	0.485900	0.092300	0.750000
C501	C50	0.826600	0.292000	0.102000
C511	C51	0.292000	0.465500	0.101800
C521	C52	0.482200	0.088400	0.948600
C531	C53	0.092200	0.606300	0.749600
C541	C54	0.533300	0.825200	0.199600
C551	C55	0.466700	0.174800	0.800400
C561	C56	0.825200	0.291900	0.800400
C571	C57	0.514100	0.907700	0.250000
C581	C58	0.534600	0.826600	0.898000
C591	C59	0.907800	0.393700	0.250400
C601	C60	0.534500	0.826500	0.101800
C611	C61	0.119600	0.609500	0.647100
C621	C62	0.466900	0.174400	0.199500
C631	C63	0.606400	0.514100	0.750000
C641	C64	0.826500	0.292000	0.898200
C651	C65	0.465500	0.173500	0.898200
C661	C66	0.499900	0.500100	0.897900
C671	C67	0.518100	0.911600	0.948500
C681	C68	0.292500	0.466900	0.800500
C691	C69	0.119700	0.609100	0.353000
C701	C70	0.393800	0.482200	0.051400
C711	C71	0.291900	0.466700	0.199600
C721	C72	0.390500	0.510100	0.647100
C731	C73	0.880300	0.390900	0.647000
C741	C74	0.000000	0.499800	0.202600
C751	C75	0.499800	0.000000	0.202600
C761	C76	0.708000	0.534500	0.898200
C771	C77	0.173400	0.708000	0.898000
C781	C78	0.481900	0.088400	0.051500
O791	O79	0.482100	0.604400	0.386300
O801	O80	0.604100	0.122200	0.386200
O811	O81	0.877800	0.481900	0.386200
O821	O82	0.145600	0.706900	0.603500
O831	O83	0.145600	0.707000	0.396600
O841	O84	0.707000	0.561400	0.603400
O851	O85	0.706900	0.561300	0.396500
O861	O86	0.854400	0.293000	0.603400
O871	O87	0.561300	0.854400	0.603500
O881	O88	0.122200	0.518100	0.613800
O891	O89	0.438700	0.145600	0.396500
O901	O90	0.122300	0.517900	0.386300
O911	O91	0.333330	0.666660	0.500100
O921	O92	0.517900	0.395600	0.613700
O931	O93	0.561400	0.854400	0.396600
O941	O94	0.666670	0.333340	0.499900
O951	O95	0.604400	0.122300	0.613700
O961	O96	0.293100	0.438700	0.603500
O971	O97	0.518100	0.395900	0.386200
O981	O98	0.438600	0.145600	0.603400
O991	O99	0.395900	0.877800	0.613800
O1001	O100	0.854400	0.293100	0.396500
O1011	O101	0.293000	0.438600	0.396600
O1021	O102	0.395600	0.877700	0.386300
O1031	O103	0.877700	0.482100	0.613700
O1041	O104	0.481900	0.604100	0.613800
H1051	H105	0.794090	0.549770	0.063930
H1061	H106	0.794350	0.548580	0.762510
H1071	H107	0.244380	0.793990	0.063590
H1081	H108	0.245790	0.793950	0.763060
H1091	H109	0.244910	0.793270	0.239050
H1101	H110	0.755480	0.207640	0.239250
H1111	H111	0.450400	0.243320	0.062210
H1121	H112	0.792360	0.547840	0.239250
H1131	H113	0.205910	0.450230	0.936070
H1141	H114	0.548160	0.754210	0.763060
H1151	H115	0.755680	0.205910	0.063930
H1161	H116	0.206010	0.450390	0.063590
H1171	H117	0.548580	0.754230	0.237490
H1181	H118	0.451420	0.245770	0.762510
H1191	H119	0.754230	0.205650	0.762510
H1201	H120	0.549600	0.756680	0.937790
H1211	H121	0.549610	0.755620	0.063590
H1221	H122	0.452160	0.244520	0.239250
H1231	H123	0.755620	0.206010	0.936410
H1241	H124	0.450390	0.244380	0.936410
H1251	H125	0.206730	0.451640	0.239050
H1261	H126	0.793990	0.549610	0.936410
H1271	H127	0.244320	0.794090	0.936070
H1281	H128	0.206050	0.451840	0.763060
