data_cm503311x_OH-mil-53-Al-lp-ortho_clean_PM
_symmetry_space_group_name_H-M	'P1'
_cell_length_a	13.341300
_cell_length_b	16.833600
_cell_length_c	12.973000
_cell_angle_alpha	90.000000
_cell_angle_beta	90.000000
_cell_angle_gamma	90.000000
_symmetry_Int_Tables_number 1

loop_
_symmetry_equiv_pos_as_xyz
'x,y,z'

loop_
_atom_site_label
_atom_site_type_symbol
_atom_site_fract_x
_atom_site_fract_y
_atom_site_fract_z
H11	H1	0.410280	0.451770	0.574920
H21	H2	0.409920	0.573650	0.463710
H31	H3	0.091930	0.550860	0.422320
H41	H4	0.092240	0.428570	0.533240
H51	H5	0.407540	0.072300	0.534840
H61	H6	0.089000	0.050690	0.572530
H71	H7	0.157090	0.070730	0.958130
H81	H8	0.344480	0.925080	0.032110
H91	H9	0.157480	0.948790	0.070390
H101	H10	0.341520	0.046490	0.918840
H111	H11	0.342140	0.423740	0.967090
H121	H12	0.159930	0.450160	0.922250
H131	H13	0.089190	0.929700	0.459120
H141	H14	0.407910	0.951020	0.421320
H151	H15	0.159660	0.571420	0.034650
H161	H16	0.339430	0.545590	0.078370
H171	H17	0.907200	0.454380	0.576610
H181	H18	0.904350	0.576010	0.464220
H191	H19	0.588970	0.543240	0.413430
H201	H20	0.591750	0.421880	0.525670
H211	H21	0.907350	0.075520	0.531660
H221	H22	0.591190	0.044830	0.578800
H231	H23	0.657790	0.077200	0.965240
H241	H24	0.838980	0.927110	0.031540
H251	H25	0.660810	0.956190	0.078800
H261	H26	0.838690	0.048700	0.919330
H271	H27	0.841890	0.426780	0.963780
H281	H28	0.657650	0.455860	0.916140
H291	H29	0.594110	0.922960	0.466440
H301	H30	0.910270	0.954000	0.419090
H311	H31	0.654790	0.577980	0.027570
H321	H32	0.841600	0.548440	0.075910
C11	C1	0.410830	0.026040	0.954390
C21	C2	0.997830	0.066710	0.932690
C31	C3	0.497730	0.140270	0.867930
C41	C4	0.090540	0.539290	0.018760
C51	C5	0.161100	0.528490	0.456190
C61	C6	0.250850	0.569330	0.436530
C71	C7	0.249820	0.641820	0.369670
C81	C8	0.338460	0.040460	0.517610
C91	C9	0.090780	0.471880	0.956810
C101	C10	0.500150	0.432370	0.935410
C111	C11	0.001890	0.358720	0.870100
C121	C12	0.412490	0.958880	0.016800
C131	C13	0.338670	0.973380	0.455030
C141	C14	0.248630	0.933370	0.433890
C151	C15	0.249460	0.861660	0.366130
C161	C16	0.161420	0.460680	0.517480
C171	C17	0.088260	0.971230	0.036740
C181	C18	0.502890	0.933430	0.061220
C191	C19	0.999350	0.858750	0.124710
C201	C20	0.410190	0.457870	0.980680
C211	C21	0.341080	0.473630	0.540600
C221	C22	0.251410	0.432590	0.560000
C231	C23	0.252130	0.359830	0.626300
C241	C24	0.158450	0.961300	0.476110
C251	C25	0.408580	0.525630	0.042040
C261	C26	0.000560	0.566910	0.061700
C271	C27	0.495330	0.641740	0.125370
C281	C28	0.088030	0.038690	0.974810
C291	C29	0.158190	0.028350	0.538700
C301	C30	0.248210	0.068340	0.559700
C311	C31	0.247670	0.140120	0.627400
C321	C32	0.340790	0.541410	0.479250
C331	C33	0.907920	0.026360	0.953100
C341	C34	0.499490	0.068580	0.935780
C351	C35	0.997350	0.138950	0.865700
C361	C36	0.586910	0.543630	0.013740
C371	C37	0.658100	0.523480	0.449980
C381	C38	0.746440	0.566810	0.432930
C391	C39	0.745040	0.639090	0.366080
C401	C40	0.839380	0.041530	0.516920
C411	C41	0.588470	0.475830	0.952390
C421	C42	0.001070	0.431030	0.937100
C431	C43	0.502030	0.359750	0.868860
C441	C44	0.908220	0.958930	0.015080
C451	C45	0.840960	0.974080	0.454970
C461	C46	0.752450	0.931160	0.436970
C471	C47	0.754000	0.858790	0.370070
C481	C48	0.659750	0.456010	0.511840
C491	C49	0.591480	0.976140	0.042840
C501	C50	0.998330	0.930870	0.057340
C511	C51	0.504370	0.861440	0.128460
C521	C52	0.911050	0.458820	0.979850
C531	C53	0.838060	0.474210	0.540150
C541	C54	0.749740	0.430830	0.557320
C551	C55	0.751740	0.358620	0.624500
C561	C56	0.662140	0.956850	0.481370
C571	C57	0.910740	0.526270	0.041770
C581	C58	0.496870	0.569070	0.058880
C591	C59	0.999750	0.638940	0.129030
C601	C60	0.589840	0.043290	0.980380
C611	C61	0.660500	0.024310	0.543310
C621	C62	0.749120	0.067030	0.561540
C631	C63	0.747480	0.139120	0.628800
C641	C64	0.836510	0.541680	0.478300
O11	O1	0.081370	0.171810	0.846820
O21	O2	0.409680	0.665160	0.157250
O31	O3	0.333920	0.675070	0.350590
O41	O4	0.162770	0.163700	0.660010
O51	O5	0.418300	0.326210	0.849620
O61	O6	0.084450	0.835700	0.157150
O71	O7	0.165380	0.828560	0.346570
O81	O8	0.337580	0.335490	0.657150
O91	O9	0.420730	0.828570	0.148220
O101	O10	0.087400	0.334700	0.839110
O111	O11	0.167830	0.327650	0.646650
O121	O12	0.334270	0.838510	0.333170
O131	O13	0.083840	0.672070	0.148160
O141	O14	0.412740	0.162370	0.833850
O151	O15	0.331710	0.172630	0.647000
O161	O16	0.164740	0.664750	0.337160
O171	O17	0.581140	0.174270	0.849640
O181	O18	0.914960	0.662040	0.161980
O191	O19	0.828740	0.671860	0.346550
O201	O20	0.662610	0.161330	0.663130
O211	O21	0.917660	0.326630	0.849350
O221	O22	0.589780	0.837890	0.160830
O231	O23	0.670320	0.825840	0.350470
O241	O24	0.837420	0.336040	0.656790
O251	O25	0.915230	0.825610	0.144350
O261	O26	0.587650	0.336860	0.836660
O271	O27	0.668090	0.325140	0.644150
O281	O28	0.839640	0.835340	0.338040
O291	O29	0.579030	0.674670	0.144700
O301	O30	0.912530	0.162630	0.832900
O311	O31	0.830900	0.173360	0.646420
O321	O32	0.659650	0.662690	0.333890
O331	O33	0.000170	0.251090	0.684290
O341	O34	0.249640	0.751460	0.183860
O351	O35	0.499560	0.751580	0.310640
O361	O36	0.250250	0.250300	0.810420
O371	O37	0.500320	0.250210	0.684610
O381	O38	0.749800	0.749140	0.184190
O391	O39	0.999710	0.749260	0.311060
O401	O40	0.750240	0.251100	0.810470
Al11	Al1	0.124950	0.249060	0.748000
Al21	Al2	0.374610	0.752130	0.247210
Al31	Al3	0.375110	0.248840	0.747040
Al41	Al4	0.124630	0.750470	0.247310
Al51	Al5	0.625030	0.249000	0.748200
Al61	Al6	0.874730	0.748790	0.247740
Al71	Al7	0.874880	0.249210	0.746580
Al81	Al8	0.624710	0.750480	0.247500
H331	H33	0.249660	0.724050	0.118160
H341	H34	0.750600	0.776840	0.118680
H351	H35	0.498830	0.725510	0.377250
H361	H36	0.999790	0.778230	0.375660
H371	H37	0.250740	0.273140	0.878950
H381	H38	0.750980	0.276240	0.877640
H391	H39	0.500880	0.273470	0.616320
H401	H40	0.000820	0.275940	0.616940
