data_cm503311x_alf275K_clean_PM
_symmetry_space_group_name_H-M	'P1'
_cell_length_a	6.567700
_cell_length_b	16.403700
_cell_length_c	13.174000
_cell_angle_alpha	90.000000
_cell_angle_beta	90.000000
_cell_angle_gamma	90.000000
_symmetry_Int_Tables_number 1

loop_
_symmetry_equiv_pos_as_xyz
'x,y,z'

loop_
_atom_site_label
_atom_site_type_symbol
_atom_site_fract_x
_atom_site_fract_y
_atom_site_fract_z
O11	O1	0.168700	0.168260	0.838900
C11	C1	0.806500	0.029800	0.958300
O21	O2	0.668700	0.668260	0.338900
C21	C2	0.306500	0.529800	0.458300
O31	O3	0.831300	0.331740	0.838900
C31	C3	0.193500	0.470200	0.958300
O41	O4	0.331300	0.831740	0.338900
C41	C4	0.693500	0.970200	0.458300
O51	O5	0.831300	0.668260	0.161100
C51	C5	0.193500	0.529800	0.041700
O61	O6	0.331300	0.168260	0.661100
C61	C6	0.693500	0.029800	0.541700
O71	O7	0.168700	0.831740	0.161100
C71	C7	0.806500	0.970200	0.041700
O81	O8	0.668700	0.331740	0.661100
C81	C8	0.306500	0.470200	0.541700
O91	O9	0.831300	0.831740	0.161100
C91	C9	0.193500	0.970200	0.041700
O101	O10	0.331300	0.331740	0.661100
C101	C10	0.693500	0.470200	0.541700
O111	O11	0.168700	0.668260	0.161100
C111	C11	0.806500	0.529800	0.041700
O121	O12	0.668700	0.168260	0.661100
C121	C12	0.306500	0.029800	0.541700
O131	O13	0.168700	0.331740	0.838900
C131	C13	0.806500	0.470200	0.958300
O141	O14	0.668700	0.831740	0.338900
C141	C14	0.306500	0.970200	0.458300
O151	O15	0.831300	0.168260	0.838900
C151	C15	0.193500	0.029800	0.958300
O161	O16	0.331300	0.668260	0.338900
C161	C16	0.693500	0.529800	0.458300
Al11	Al1	0.250000	0.250000	0.750000
Al21	Al2	0.750000	0.250000	0.750000
Al31	Al3	0.750000	0.750000	0.250000
Al41	Al4	0.250000	0.750000	0.250000
F11	F1	0.000000	0.250000	0.694000
F21	F2	0.500000	0.750000	0.194000
F31	F3	0.000000	0.750000	0.306000
F41	F4	0.500000	0.250000	0.806000
C171	C17	0.000000	0.062200	0.946100
C181	C18	0.000000	0.138700	0.872400
C191	C19	0.500000	0.562200	0.446100
C201	C20	0.500000	0.638700	0.372400
C211	C21	0.000000	0.437800	0.946100
C221	C22	0.000000	0.361300	0.872400
C231	C23	0.500000	0.937800	0.446100
C241	C24	0.500000	0.861300	0.372400
C251	C25	0.000000	0.562200	0.053900
C261	C26	0.000000	0.638700	0.127600
C271	C27	0.500000	0.062200	0.553900
C281	C28	0.500000	0.138700	0.627600
C291	C29	0.000000	0.937800	0.053900
C301	C30	0.000000	0.861300	0.127600
C311	C31	0.500000	0.437800	0.553900
C321	C32	0.500000	0.361300	0.627600
