data_cm501138g_si_005_clean_PM
_symmetry_space_group_name_H-M	'P1'
_cell_length_a	18.561400
_cell_length_b	18.561400
_cell_length_c	18.561400
_cell_angle_alpha	60.000000
_cell_angle_beta	60.000000
_cell_angle_gamma	60.000000
_symmetry_Int_Tables_number 1

loop_
_symmetry_equiv_pos_as_xyz
'x,y,z'

loop_
_atom_site_label
_atom_site_type_symbol
_atom_site_fract_x
_atom_site_fract_y
_atom_site_fract_z
Cu11	Cu1	0.000000	0.000000	0.431040
Cu21	Cu2	0.431040	0.000000	0.000000
Cu31	Cu3	0.568960	0.000000	0.000000
Cu41	Cu4	0.000000	0.431040	0.568960
Cu51	Cu5	0.000000	0.000000	0.568960
Cu61	Cu6	0.000000	0.568960	0.431040
Cu71	Cu7	0.568960	0.431040	0.000000
Cu81	Cu8	0.000000	0.431040	0.000000
Cu91	Cu9	0.568960	0.000000	0.431040
Cu101	Cu10	0.431040	0.568960	0.000000
Cu111	Cu11	0.000000	0.568960	0.000000
Cu121	Cu12	0.431040	0.000000	0.568960
H11	H1	0.273200	0.488800	0.273200
H21	H2	0.726800	0.035200	0.511200
H31	H3	0.488800	0.964800	0.273200
H41	H4	0.964800	0.273200	0.488800
H51	H5	0.273200	0.964800	0.488800
H61	H6	0.273200	0.273200	0.964800
H71	H7	0.964800	0.488800	0.273200
H81	H8	0.964800	0.273200	0.273200
H91	H9	0.488800	0.273200	0.273200
H101	H10	0.035200	0.726800	0.511200
H111	H11	0.273200	0.488800	0.964800
H121	H12	0.035200	0.511200	0.726800
H131	H13	0.726800	0.511200	0.035200
H141	H14	0.726800	0.035200	0.726800
H151	H15	0.726800	0.511200	0.726800
H161	H16	0.511200	0.035200	0.726800
H171	H17	0.511200	0.726800	0.726800
H181	H18	0.273200	0.273200	0.488800
H191	H19	0.488800	0.273200	0.964800
H201	H20	0.726800	0.726800	0.035200
H211	H21	0.273200	0.964800	0.273200
H221	H22	0.726800	0.726800	0.511200
H231	H23	0.035200	0.726800	0.726800
H241	H24	0.511200	0.726800	0.035200
C11	C1	0.301800	0.430580	0.301800
C21	C2	0.698200	0.569420	0.034180
C31	C3	0.025760	0.568500	0.568500
C41	C4	0.258250	0.387530	0.387530
C51	C5	0.431500	0.431500	0.974240
C61	C6	0.741750	0.033310	0.612470
C71	C7	0.431500	0.974240	0.162760
C81	C8	0.430580	0.301800	0.965820
C91	C9	0.033310	0.741750	0.612470
C101	C10	0.698200	0.698200	0.569420
C111	C11	0.612470	0.741750	0.033310
C121	C12	0.612470	0.612470	0.741750
C131	C13	0.698200	0.569420	0.698200
C141	C14	0.569420	0.698200	0.034180
C151	C15	0.698200	0.034180	0.569420
C161	C16	0.569420	0.034180	0.698200
C171	C17	0.965820	0.301800	0.301800
C181	C18	0.033310	0.612470	0.612470
C191	C19	0.965820	0.430580	0.301800
C201	C20	0.387530	0.258250	0.966690
C211	C21	0.258250	0.966690	0.387530
C221	C22	0.741750	0.612470	0.612470
C231	C23	0.612470	0.612470	0.033310
C241	C24	0.387530	0.387530	0.258250
C251	C25	0.430580	0.301800	0.301800
C261	C26	0.387530	0.387530	0.966690
C271	C27	0.966690	0.258250	0.387530
C281	C28	0.033310	0.612470	0.741750
C291	C29	0.301800	0.301800	0.430580
C301	C30	0.837240	0.025760	0.568500
C311	C31	0.569420	0.698200	0.698200
C321	C32	0.965820	0.301800	0.430580
C331	C33	0.387530	0.966690	0.387530
C341	C34	0.974240	0.431500	0.162760
C351	C35	0.837240	0.568500	0.568500
C361	C36	0.258250	0.387530	0.966690
C371	C37	0.974240	0.162760	0.431500
C381	C38	0.162760	0.974240	0.431500
C391	C39	0.431500	0.162760	0.974240
C401	C40	0.025760	0.568500	0.837240
C411	C41	0.698200	0.034180	0.698200
C421	C42	0.741750	0.612470	0.033310
C431	C43	0.568500	0.837240	0.568500
C441	C44	0.568500	0.837240	0.025760
C451	C45	0.301800	0.965820	0.301800
C461	C46	0.387530	0.258250	0.387530
C471	C47	0.387530	0.966690	0.258250
C481	C48	0.568500	0.568500	0.837240
C491	C49	0.966690	0.387530	0.258250
C501	C50	0.034180	0.698200	0.698200
C511	C51	0.612470	0.033310	0.741750
C521	C52	0.034180	0.569420	0.698200
C531	C53	0.974240	0.431500	0.431500
C541	C54	0.301800	0.965820	0.430580
C551	C55	0.430580	0.965820	0.301800
C561	C56	0.431500	0.431500	0.162760
C571	C57	0.431500	0.162760	0.431500
C581	C58	0.698200	0.698200	0.034180
C591	C59	0.612470	0.033310	0.612470
C601	C60	0.431500	0.974240	0.431500
C611	C61	0.568500	0.568500	0.025760
C621	C62	0.301800	0.301800	0.965820
C631	C63	0.301800	0.430580	0.965820
C641	C64	0.837240	0.568500	0.025760
C651	C65	0.034180	0.698200	0.569420
C661	C66	0.162760	0.431500	0.974240
C671	C67	0.568500	0.025760	0.568500
C681	C68	0.612470	0.741750	0.612470
C691	C69	0.568500	0.025760	0.837240
C701	C70	0.966690	0.387530	0.387530
C711	C71	0.162760	0.431500	0.431500
C721	C72	0.025760	0.837240	0.568500
O11	O1	0.492060	0.874320	0.020960
O21	O2	0.874320	0.612660	0.492060
O31	O3	0.125680	0.387340	0.979040
O41	O4	0.387340	0.507940	0.125680
O51	O5	0.612660	0.874320	0.020960
O61	O6	0.612660	0.020960	0.492060
O71	O7	0.874320	0.612660	0.020960
O81	O8	0.979040	0.507940	0.387340
O91	O9	0.387340	0.125680	0.507940
O101	O10	0.125680	0.979040	0.507940
O111	O11	0.612660	0.874320	0.492060
O121	O12	0.507940	0.387340	0.125680
O131	O13	0.387340	0.507940	0.979040
O141	O14	0.507940	0.979040	0.125680
O151	O15	0.492060	0.612660	0.874320
O161	O16	0.387340	0.979040	0.507940
O171	O17	0.874320	0.492060	0.020960
O181	O18	0.979040	0.387340	0.125680
O191	O19	0.874320	0.020960	0.612660
O201	O20	0.492060	0.874320	0.612660
O211	O21	0.020960	0.874320	0.492060
O221	O22	0.125680	0.507940	0.387340
O231	O23	0.874320	0.492060	0.612660
O241	O24	0.507940	0.125680	0.979040
O251	O25	0.874320	0.020960	0.492060
O261	O26	0.492060	0.612660	0.020960
O271	O27	0.020960	0.612660	0.492060
O281	O28	0.387340	0.979040	0.125680
O291	O29	0.020960	0.612660	0.874320
O301	O30	0.507940	0.387340	0.979040
O311	O31	0.020960	0.492060	0.874320
O321	O32	0.612660	0.492060	0.874320
O331	O33	0.492060	0.020960	0.874320
O341	O34	0.979040	0.125680	0.507940
O351	O35	0.125680	0.507940	0.979040
O361	O36	0.492060	0.020960	0.612660
O371	O37	0.612660	0.020960	0.874320
O381	O38	0.979040	0.125680	0.387340
O391	O39	0.507940	0.979040	0.387340
O401	O40	0.020960	0.874320	0.612660
O411	O41	0.020960	0.492060	0.612660
O421	O42	0.125680	0.387340	0.507940
O431	O43	0.979040	0.387340	0.507940
O441	O44	0.612660	0.492060	0.020960
O451	O45	0.979040	0.507940	0.125680
O461	O46	0.125680	0.979040	0.387340
O471	O47	0.507940	0.125680	0.387340
O481	O48	0.387340	0.125680	0.979040
