data_cm503311x_alf11K_clean_PM
_symmetry_space_group_name_H-M	'P1'
_cell_length_a	6.552500
_cell_length_b	16.436200
_cell_length_c	13.141700
_cell_angle_alpha	90.000000
_cell_angle_beta	90.000000
_cell_angle_gamma	90.581900
_symmetry_Int_Tables_number 1

loop_
_symmetry_equiv_pos_as_xyz
'x,y,z'

loop_
_atom_site_label
_atom_site_type_symbol
_atom_site_fract_x
_atom_site_fract_y
_atom_site_fract_z
O11	O1	0.156800	0.174400	0.854800
O21	O2	0.818300	0.657610	0.167800
C11	C1	0.797000	0.023700	0.949800
C21	C2	0.002800	0.063200	0.945500
C31	C3	0.000500	0.137200	0.865900
C41	C4	0.194600	0.540300	0.025400
O31	O3	0.656800	0.674400	0.354800
O41	O4	0.318300	0.157610	0.667800
C51	C5	0.297000	0.523700	0.449800
C61	C6	0.502800	0.563200	0.445500
C71	C7	0.500500	0.637200	0.365900
C81	C8	0.694600	0.040300	0.525400
O51	O5	0.843200	0.325600	0.854800
O61	O6	0.181700	0.842390	0.167800
C91	C9	0.203000	0.476300	0.949800
C101	C10	0.997200	0.436800	0.945500
C111	C11	0.999500	0.362800	0.865900
C121	C12	0.805400	0.959700	0.025400
O71	O7	0.343200	0.825600	0.354800
O81	O8	0.681700	0.342390	0.667800
C131	C13	0.703000	0.976300	0.449800
C141	C14	0.497200	0.936800	0.445500
C151	C15	0.499500	0.862800	0.365900
C161	C16	0.305400	0.459700	0.525400
O91	O9	0.843200	0.825600	0.145200
O101	O10	0.181700	0.342390	0.832200
C171	C17	0.203000	0.976300	0.050200
C181	C18	0.997200	0.936800	0.054500
C191	C19	0.999500	0.862800	0.134100
C201	C20	0.805400	0.459700	0.974600
O111	O11	0.343200	0.325600	0.645200
O121	O12	0.681700	0.842390	0.332200
C211	C21	0.703000	0.476300	0.550200
C221	C22	0.497200	0.436800	0.554500
C231	C23	0.499500	0.362800	0.634100
C241	C24	0.305400	0.959700	0.474600
O131	O13	0.156800	0.674400	0.145200
O141	O14	0.818300	0.157610	0.832200
C251	C25	0.797000	0.523700	0.050200
C261	C26	0.002800	0.563200	0.054500
C271	C27	0.000500	0.637200	0.134100
C281	C28	0.194600	0.040300	0.974600
O151	O15	0.656800	0.174400	0.645200
O161	O16	0.318300	0.657610	0.332200
C291	C29	0.297000	0.023700	0.550200
C301	C30	0.502800	0.063200	0.554500
C311	C31	0.500500	0.137200	0.634100
C321	C32	0.694600	0.540300	0.474600
Al11	Al1	0.250000	0.250000	0.750000
Al21	Al2	0.750000	0.250000	0.750000
Al31	Al3	0.750000	0.750000	0.250000
Al41	Al4	0.250000	0.750000	0.250000
F11	F1	0.000000	0.250000	0.690200
F21	F2	0.500000	0.750000	0.190200
F31	F3	0.000000	0.750000	0.309800
F41	F4	0.500000	0.250000	0.809800
