data_cm503311x_alf200K_clean_PM
_symmetry_space_group_name_H-M	'P1'
_cell_length_a	6.568100
_cell_length_b	16.392800
_cell_length_c	13.199500
_cell_angle_alpha	90.000000
_cell_angle_beta	90.000000
_cell_angle_gamma	90.000000
_symmetry_Int_Tables_number 1

loop_
_symmetry_equiv_pos_as_xyz
'x,y,z'

loop_
_atom_site_label
_atom_site_type_symbol
_atom_site_fract_x
_atom_site_fract_y
_atom_site_fract_z
O11	O1	0.167100	0.168830	0.839960
C11	C1	0.804800	0.029900	0.957700
O21	O2	0.667100	0.668830	0.339960
C21	C2	0.304800	0.529900	0.457700
O31	O3	0.832900	0.331170	0.839960
C31	C3	0.195200	0.470100	0.957700
O41	O4	0.332900	0.831170	0.339960
C41	C4	0.695200	0.970100	0.457700
O51	O5	0.832900	0.668830	0.160040
C51	C5	0.195200	0.529900	0.042300
O61	O6	0.332900	0.168830	0.660040
C61	C6	0.695200	0.029900	0.542300
O71	O7	0.167100	0.831170	0.160040
C71	C7	0.804800	0.970100	0.042300
O81	O8	0.667100	0.331170	0.660040
C81	C8	0.304800	0.470100	0.542300
O91	O9	0.832900	0.831170	0.160040
C91	C9	0.195200	0.970100	0.042300
O101	O10	0.332900	0.331170	0.660040
C101	C10	0.695200	0.470100	0.542300
O111	O11	0.167100	0.668830	0.160040
C111	C11	0.804800	0.529900	0.042300
O121	O12	0.667100	0.168830	0.660040
C121	C12	0.304800	0.029900	0.542300
O131	O13	0.167100	0.331170	0.839960
C131	C13	0.804800	0.470100	0.957700
O141	O14	0.667100	0.831170	0.339960
C141	C14	0.304800	0.970100	0.457700
O151	O15	0.832900	0.168830	0.839960
C151	C15	0.195200	0.029900	0.957700
O161	O16	0.332900	0.668830	0.339960
C161	C16	0.695200	0.529900	0.457700
Al11	Al1	0.250000	0.250000	0.750000
Al21	Al2	0.750000	0.250000	0.750000
Al31	Al3	0.750000	0.750000	0.250000
Al41	Al4	0.250000	0.750000	0.250000
F11	F1	0.000000	0.250000	0.692400
F21	F2	0.500000	0.750000	0.192400
F31	F3	0.000000	0.750000	0.307600
F41	F4	0.500000	0.250000	0.807600
C171	C17	0.000000	0.062500	0.947900
C181	C18	0.000000	0.135100	0.869800
C191	C19	0.500000	0.562500	0.447900
C201	C20	0.500000	0.635100	0.369800
C211	C21	0.000000	0.437500	0.947900
C221	C22	0.000000	0.364900	0.869800
C231	C23	0.500000	0.937500	0.447900
C241	C24	0.500000	0.864900	0.369800
C251	C25	0.000000	0.562500	0.052100
C261	C26	0.000000	0.635100	0.130200
C271	C27	0.500000	0.062500	0.552100
C281	C28	0.500000	0.135100	0.630200
C291	C29	0.000000	0.937500	0.052100
C301	C30	0.000000	0.864900	0.130200
C311	C31	0.500000	0.437500	0.552100
C321	C32	0.500000	0.364900	0.630200
