data_cm503311x_alf150K_clean_PM
_symmetry_space_group_name_H-M	'P1'
_cell_length_a	6.566800
_cell_length_b	16.397100
_cell_length_c	13.202100
_cell_angle_alpha	90.000000
_cell_angle_beta	90.000000
_cell_angle_gamma	90.139000
_symmetry_Int_Tables_number 1

loop_
_symmetry_equiv_pos_as_xyz
'x,y,z'

loop_
_atom_site_label
_atom_site_type_symbol
_atom_site_fract_x
_atom_site_fract_y
_atom_site_fract_z
O11	O1	0.160900	0.169200	0.848600
O21	O2	0.820600	0.665200	0.170100
C11	C1	0.811300	0.024600	0.957800
C21	C2	0.987100	0.066800	0.942800
C31	C3	0.002000	0.136900	0.869600
C41	C4	0.202800	0.533300	0.035700
O31	O3	0.660900	0.669200	0.348600
O41	O4	0.320600	0.165200	0.670100
C51	C5	0.311300	0.524600	0.457800
C61	C6	0.487100	0.566800	0.442800
C71	C7	0.502000	0.636900	0.369600
C81	C8	0.702800	0.033300	0.535700
O51	O5	0.839100	0.330800	0.848600
O61	O6	0.179400	0.834800	0.170100
C91	C9	0.188700	0.475400	0.957800
C101	C10	0.012900	0.433200	0.942800
C111	C11	0.998000	0.363100	0.869600
C121	C12	0.797200	0.966700	0.035700
O71	O7	0.339100	0.830800	0.348600
O81	O8	0.679400	0.334800	0.670100
C131	C13	0.688700	0.975400	0.457800
C141	C14	0.512900	0.933200	0.442800
C151	C15	0.498000	0.863100	0.369600
C161	C16	0.297200	0.466700	0.535700
O91	O9	0.839100	0.830800	0.151400
O101	O10	0.179400	0.334800	0.829900
C171	C17	0.188700	0.975400	0.042200
C181	C18	0.012900	0.933200	0.057200
C191	C19	0.998000	0.863100	0.130400
C201	C20	0.797200	0.466700	0.964300
O111	O11	0.339100	0.330800	0.651400
O121	O12	0.679400	0.834800	0.329900
C211	C21	0.688700	0.475400	0.542200
C221	C22	0.512900	0.433200	0.557200
C231	C23	0.498000	0.363100	0.630400
C241	C24	0.297200	0.966700	0.464300
O131	O13	0.160900	0.669200	0.151400
O141	O14	0.820600	0.165200	0.829900
C251	C25	0.811300	0.524600	0.042200
C261	C26	0.987100	0.566800	0.057200
C271	C27	0.002000	0.636900	0.130400
C281	C28	0.202800	0.033300	0.964300
O151	O15	0.660900	0.169200	0.651400
O161	O16	0.320600	0.665200	0.329900
C291	C29	0.311300	0.024600	0.542200
C301	C30	0.487100	0.066800	0.557200
C311	C31	0.502000	0.136900	0.630400
C321	C32	0.702800	0.533300	0.464300
Al11	Al1	0.250000	0.250000	0.750000
Al21	Al2	0.750000	0.250000	0.750000
Al31	Al3	0.750000	0.750000	0.250000
Al41	Al4	0.250000	0.750000	0.250000
F11	F1	0.000000	0.250000	0.690700
F21	F2	0.500000	0.750000	0.190700
F31	F3	0.000000	0.750000	0.309300
F41	F4	0.500000	0.250000	0.809300
