data_cm501138g_si_011_clean_PM
_symmetry_space_group_name_H-M	'P1'
_cell_length_a	18.650500
_cell_length_b	18.650500
_cell_length_c	18.650500
_cell_angle_alpha	60.000000
_cell_angle_beta	60.000000
_cell_angle_gamma	60.000000
_symmetry_Int_Tables_number 1

loop_
_symmetry_equiv_pos_as_xyz
'x,y,z'

loop_
_atom_site_label
_atom_site_type_symbol
_atom_site_fract_x
_atom_site_fract_y
_atom_site_fract_z
Cu11	Cu1	0.000000	0.569330	0.430670
Cu21	Cu2	0.569330	0.000000	0.430670
Cu31	Cu3	0.569330	0.000000	0.000000
Cu41	Cu4	0.000000	0.430670	0.569330
Cu51	Cu5	0.000000	0.569330	0.000000
Cu61	Cu6	0.000000	0.000000	0.430670
Cu71	Cu7	0.000000	0.430670	0.000000
Cu81	Cu8	0.000000	0.000000	0.569330
Cu91	Cu9	0.430670	0.000000	0.569330
Cu101	Cu10	0.430670	0.569330	0.000000
Cu111	Cu11	0.430670	0.000000	0.000000
Cu121	Cu12	0.569330	0.430670	0.000000
H11	H1	0.032100	0.727700	0.512500
H21	H2	0.727700	0.032100	0.727700
H31	H3	0.272300	0.487500	0.967900
H41	H4	0.512500	0.727700	0.727700
H51	H5	0.727700	0.512500	0.032100
H61	H6	0.512500	0.032100	0.727700
H71	H7	0.727700	0.727700	0.032100
H81	H8	0.487500	0.272300	0.272300
H91	H9	0.487500	0.967900	0.272300
H101	H10	0.032100	0.727700	0.727700
H111	H11	0.032100	0.512500	0.727700
H121	H12	0.727700	0.032100	0.512500
H131	H13	0.727700	0.512500	0.727700
H141	H14	0.272300	0.272300	0.487500
H151	H15	0.272300	0.967900	0.272300
H161	H16	0.487500	0.272300	0.967900
H171	H17	0.512500	0.727700	0.032100
H181	H18	0.272300	0.272300	0.967900
H191	H19	0.967900	0.487500	0.272300
H201	H20	0.967900	0.272300	0.272300
H211	H21	0.272300	0.487500	0.272300
H221	H22	0.967900	0.272300	0.487500
H231	H23	0.272300	0.967900	0.487500
H241	H24	0.727700	0.727700	0.512500
C11	C1	0.025090	0.837170	0.568870
C21	C2	0.967940	0.301060	0.301060
C31	C3	0.032060	0.698940	0.698940
C41	C4	0.698940	0.032060	0.698940
C51	C5	0.974910	0.431130	0.431130
C61	C6	0.032060	0.570060	0.698940
C71	C7	0.429940	0.301060	0.301060
C81	C8	0.974910	0.162830	0.431130
C91	C9	0.698940	0.570060	0.698940
C101	C10	0.257990	0.387050	0.387050
C111	C11	0.568870	0.568870	0.837170
C121	C12	0.698940	0.570060	0.032060
C131	C13	0.162830	0.431130	0.974910
C141	C14	0.162830	0.431130	0.431130
C151	C15	0.032060	0.698940	0.570060
C161	C16	0.429940	0.967940	0.301060
C171	C17	0.032090	0.612950	0.742010
C181	C18	0.698940	0.698940	0.032060
C191	C19	0.612950	0.612950	0.742010
C201	C20	0.301060	0.967940	0.429940
C211	C21	0.301060	0.967940	0.301060
C221	C22	0.301060	0.429940	0.967940
C231	C23	0.387050	0.387050	0.257990
C241	C24	0.431130	0.974910	0.162830
C251	C25	0.967910	0.387050	0.387050
C261	C26	0.837170	0.025090	0.568870
C271	C27	0.387050	0.257990	0.387050
C281	C28	0.301060	0.301060	0.967940
C291	C29	0.568870	0.025090	0.837170
C301	C30	0.570060	0.698940	0.032060
C311	C31	0.698940	0.032060	0.570060
C321	C32	0.025090	0.568870	0.837170
C331	C33	0.429940	0.301060	0.967940
C341	C34	0.967940	0.429940	0.301060
C351	C35	0.967940	0.301060	0.429940
C361	C36	0.837170	0.568870	0.025090
C371	C37	0.698940	0.698940	0.570060
C381	C38	0.612950	0.032090	0.742010
C391	C39	0.025090	0.568870	0.568870
C401	C40	0.967910	0.387050	0.257990
C411	C41	0.032090	0.742010	0.612950
C421	C42	0.570060	0.032060	0.698940
C431	C43	0.387050	0.257990	0.967910
C441	C44	0.570060	0.698940	0.698940
C451	C45	0.431130	0.162830	0.974910
C461	C46	0.742010	0.612950	0.612950
C471	C47	0.568870	0.837170	0.568870
C481	C48	0.387050	0.967910	0.257990
C491	C49	0.431130	0.431130	0.974910
C501	C50	0.612950	0.032090	0.612950
C511	C51	0.568870	0.568870	0.025090
C521	C52	0.612950	0.742010	0.612950
C531	C53	0.431130	0.431130	0.162830
C541	C54	0.301060	0.301060	0.429940
C551	C55	0.431130	0.974910	0.431130
C561	C56	0.742010	0.612950	0.032090
C571	C57	0.967910	0.257990	0.387050
C581	C58	0.974910	0.431130	0.162830
C591	C59	0.387050	0.967910	0.387050
C601	C60	0.301060	0.429940	0.301060
C611	C61	0.568870	0.837170	0.025090
C621	C62	0.568870	0.025090	0.568870
C631	C63	0.612950	0.742010	0.032090
C641	C64	0.837170	0.568870	0.568870
C651	C65	0.257990	0.967910	0.387050
C661	C66	0.612950	0.612950	0.032090
C671	C67	0.032090	0.612950	0.612950
C681	C68	0.431130	0.162830	0.431130
C691	C69	0.257990	0.387050	0.967910
C701	C70	0.162830	0.974910	0.431130
C711	C71	0.387050	0.387050	0.967910
C721	C72	0.742010	0.032090	0.612950
O11	O1	0.492390	0.021070	0.874070
O21	O2	0.387530	0.125930	0.978930
O31	O3	0.874070	0.021070	0.492390
O41	O4	0.021070	0.492390	0.612470
O51	O5	0.507610	0.978930	0.387530
O61	O6	0.387530	0.978930	0.507610
O71	O7	0.978930	0.387530	0.125930
O81	O8	0.125930	0.978930	0.507610
O91	O9	0.021070	0.874070	0.612470
O101	O10	0.492390	0.874070	0.612470
O111	O11	0.612470	0.492390	0.021070
O121	O12	0.507610	0.387530	0.978930
O131	O13	0.021070	0.612470	0.874070
O141	O14	0.492390	0.612470	0.021070
O151	O15	0.387530	0.125930	0.507610
O161	O16	0.978930	0.125930	0.387530
O171	O17	0.125930	0.507610	0.387530
O181	O18	0.612470	0.492390	0.874070
O191	O19	0.125930	0.507610	0.978930
O201	O20	0.021070	0.612470	0.492390
O211	O21	0.874070	0.612470	0.021070
O221	O22	0.507610	0.387530	0.125930
O231	O23	0.387530	0.507610	0.125930
O241	O24	0.125930	0.387530	0.507610
O251	O25	0.492390	0.612470	0.874070
O261	O26	0.492390	0.021070	0.612470
O271	O27	0.387530	0.507610	0.978930
O281	O28	0.978930	0.125930	0.507610
O291	O29	0.874070	0.612470	0.492390
O301	O30	0.125930	0.387530	0.978930
O311	O31	0.874070	0.492390	0.021070
O321	O32	0.874070	0.492390	0.612470
O331	O33	0.492390	0.874070	0.021070
O341	O34	0.021070	0.874070	0.492390
O351	O35	0.507610	0.978930	0.125930
O361	O36	0.612470	0.021070	0.492390
O371	O37	0.612470	0.874070	0.021070
O381	O38	0.507610	0.125930	0.387530
O391	O39	0.874070	0.021070	0.612470
O401	O40	0.021070	0.492390	0.874070
O411	O41	0.978930	0.507610	0.387530
O421	O42	0.978930	0.387530	0.507610
O431	O43	0.125930	0.978930	0.387530
O441	O44	0.612470	0.021070	0.874070
O451	O45	0.612470	0.874070	0.492390
O461	O46	0.978930	0.507610	0.125930
O471	O47	0.387530	0.978930	0.125930
O481	O48	0.507610	0.125930	0.978930
