data_cm503311x_aloh400K_clean_PM
_symmetry_space_group_name_H-M	'P1'
_cell_length_a	6.628900
_cell_length_b	16.733800
_cell_length_c	12.825400
_cell_angle_alpha	90.000000
_cell_angle_beta	90.000000
_cell_angle_gamma	90.000000
_symmetry_Int_Tables_number 1

loop_
_symmetry_equiv_pos_as_xyz
'x,y,z'

loop_
_atom_site_label
_atom_site_type_symbol
_atom_site_fract_x
_atom_site_fract_y
_atom_site_fract_z
O11	O1	0.165570	0.168050	0.842960
C11	C1	0.808900	0.035850	0.968000
O21	O2	0.665570	0.668050	0.342960
C21	C2	0.308900	0.535850	0.468000
O31	O3	0.834430	0.331950	0.842960
C31	C3	0.191100	0.464150	0.968000
O41	O4	0.334430	0.831950	0.342960
C41	C4	0.691100	0.964150	0.468000
O51	O5	0.834430	0.668050	0.157040
C51	C5	0.191100	0.535850	0.032000
O61	O6	0.334430	0.168050	0.657040
C61	C6	0.691100	0.035850	0.532000
O71	O7	0.165570	0.831950	0.157040
C71	C7	0.808900	0.964150	0.032000
O81	O8	0.665570	0.331950	0.657040
C81	C8	0.308900	0.464150	0.532000
O91	O9	0.834430	0.831950	0.157040
C91	C9	0.191100	0.964150	0.032000
O101	O10	0.334430	0.331950	0.657040
C101	C10	0.691100	0.464150	0.532000
O111	O11	0.165570	0.668050	0.157040
C111	C11	0.808900	0.535850	0.032000
O121	O12	0.665570	0.168050	0.657040
C121	C12	0.308900	0.035850	0.532000
O131	O13	0.165570	0.331950	0.842960
C131	C13	0.808900	0.464150	0.968000
O141	O14	0.665570	0.831950	0.342960
C141	C14	0.308900	0.964150	0.468000
O151	O15	0.834430	0.168050	0.842960
C151	C15	0.191100	0.035850	0.968000
O161	O16	0.334430	0.668050	0.342960
C161	C16	0.691100	0.535850	0.468000
Al11	Al1	0.250000	0.250000	0.750000
Al21	Al2	0.750000	0.250000	0.750000
Al31	Al3	0.750000	0.750000	0.250000
Al41	Al4	0.250000	0.750000	0.250000
O171	O17	0.000000	0.250000	0.685800
O181	O18	0.500000	0.750000	0.185800
O191	O19	0.000000	0.750000	0.314200
O201	O20	0.500000	0.250000	0.814200
C171	C17	0.000000	0.062800	0.947200
C181	C18	0.000000	0.135900	0.871200
C191	C19	0.500000	0.562800	0.447200
C201	C20	0.500000	0.635900	0.371200
C211	C21	0.000000	0.437200	0.947200
C221	C22	0.000000	0.364100	0.871200
C231	C23	0.500000	0.937200	0.447200
C241	C24	0.500000	0.864100	0.371200
C251	C25	0.000000	0.562800	0.052800
C261	C26	0.000000	0.635900	0.128800
C271	C27	0.500000	0.062800	0.552800
C281	C28	0.500000	0.135900	0.628800
C291	C29	0.000000	0.937200	0.052800
C301	C30	0.000000	0.864100	0.128800
C311	C31	0.500000	0.437200	0.552800
C321	C32	0.500000	0.364100	0.628800
