data_cm503311x_aloh500K_clean_PM
_symmetry_space_group_name_H-M	'P1'
_cell_length_a	6.628500
_cell_length_b	16.712100
_cell_length_c	12.853000
_cell_angle_alpha	90.000000
_cell_angle_beta	90.000000
_cell_angle_gamma	90.000000
_symmetry_Int_Tables_number 1

loop_
_symmetry_equiv_pos_as_xyz
'x,y,z'

loop_
_atom_site_label
_atom_site_type_symbol
_atom_site_fract_x
_atom_site_fract_y
_atom_site_fract_z
O11	O1	0.164960	0.168660	0.842870
C11	C1	0.809700	0.035980	0.968200
O21	O2	0.664960	0.668660	0.342870
C21	C2	0.309700	0.535980	0.468200
O31	O3	0.835040	0.331340	0.842870
C31	C3	0.190300	0.464020	0.968200
O41	O4	0.335040	0.831340	0.342870
C41	C4	0.690300	0.964020	0.468200
O51	O5	0.835040	0.668660	0.157130
C51	C5	0.190300	0.535980	0.031800
O61	O6	0.335040	0.168660	0.657130
C61	C6	0.690300	0.035980	0.531800
O71	O7	0.164960	0.831340	0.157130
C71	C7	0.809700	0.964020	0.031800
O81	O8	0.664960	0.331340	0.657130
C81	C8	0.309700	0.464020	0.531800
O91	O9	0.835040	0.831340	0.157130
C91	C9	0.190300	0.964020	0.031800
O101	O10	0.335040	0.331340	0.657130
C101	C10	0.690300	0.464020	0.531800
O111	O11	0.164960	0.668660	0.157130
C111	C11	0.809700	0.535980	0.031800
O121	O12	0.664960	0.168660	0.657130
C121	C12	0.309700	0.035980	0.531800
O131	O13	0.164960	0.331340	0.842870
C131	C13	0.809700	0.464020	0.968200
O141	O14	0.664960	0.831340	0.342870
C141	C14	0.309700	0.964020	0.468200
O151	O15	0.835040	0.168660	0.842870
C151	C15	0.190300	0.035980	0.968200
O161	O16	0.335040	0.668660	0.342870
C161	C16	0.690300	0.535980	0.468200
Al11	Al1	0.250000	0.250000	0.750000
Al21	Al2	0.750000	0.250000	0.750000
Al31	Al3	0.750000	0.750000	0.250000
Al41	Al4	0.250000	0.750000	0.250000
O171	O17	0.000000	0.250000	0.685400
O181	O18	0.500000	0.750000	0.185400
O191	O19	0.000000	0.750000	0.314600
O201	O20	0.500000	0.250000	0.814600
C171	C17	0.000000	0.062200	0.948200
C181	C18	0.000000	0.135800	0.872200
C191	C19	0.500000	0.562200	0.448200
C201	C20	0.500000	0.635800	0.372200
C211	C21	0.000000	0.437800	0.948200
C221	C22	0.000000	0.364200	0.872200
C231	C23	0.500000	0.937800	0.448200
C241	C24	0.500000	0.864200	0.372200
C251	C25	0.000000	0.562200	0.051800
C261	C26	0.000000	0.635800	0.127800
C271	C27	0.500000	0.062200	0.551800
C281	C28	0.500000	0.135800	0.627800
C291	C29	0.000000	0.937800	0.051800
C301	C30	0.000000	0.864200	0.127800
C311	C31	0.500000	0.437800	0.551800
C321	C32	0.500000	0.364200	0.627800
