data_cm503311x_aloh375K_clean_PM
_symmetry_space_group_name_H-M	'P1'
_cell_length_a	6.629100
_cell_length_b	16.740000
_cell_length_c	12.817200
_cell_angle_alpha	90.000000
_cell_angle_beta	90.000000
_cell_angle_gamma	90.000000
_symmetry_Int_Tables_number 1

loop_
_symmetry_equiv_pos_as_xyz
'x,y,z'

loop_
_atom_site_label
_atom_site_type_symbol
_atom_site_fract_x
_atom_site_fract_y
_atom_site_fract_z
O11	O1	0.165510	0.168340	0.842810
C11	C1	0.809200	0.035410	0.967300
O21	O2	0.665510	0.668340	0.342810
C21	C2	0.309200	0.535410	0.467300
O31	O3	0.834490	0.331660	0.842810
C31	C3	0.190800	0.464590	0.967300
O41	O4	0.334490	0.831660	0.342810
C41	C4	0.690800	0.964590	0.467300
O51	O5	0.834490	0.668340	0.157190
C51	C5	0.190800	0.535410	0.032700
O61	O6	0.334490	0.168340	0.657190
C61	C6	0.690800	0.035410	0.532700
O71	O7	0.165510	0.831660	0.157190
C71	C7	0.809200	0.964590	0.032700
O81	O8	0.665510	0.331660	0.657190
C81	C8	0.309200	0.464590	0.532700
O91	O9	0.834490	0.831660	0.157190
C91	C9	0.190800	0.964590	0.032700
O101	O10	0.334490	0.331660	0.657190
C101	C10	0.690800	0.464590	0.532700
O111	O11	0.165510	0.668340	0.157190
C111	C11	0.809200	0.535410	0.032700
O121	O12	0.665510	0.168340	0.657190
C121	C12	0.309200	0.035410	0.532700
O131	O13	0.165510	0.331660	0.842810
C131	C13	0.809200	0.464590	0.967300
O141	O14	0.665510	0.831660	0.342810
C141	C14	0.309200	0.964590	0.467300
O151	O15	0.834490	0.168340	0.842810
C151	C15	0.190800	0.035410	0.967300
O161	O16	0.334490	0.668340	0.342810
C161	C16	0.690800	0.535410	0.467300
Al11	Al1	0.250000	0.250000	0.750000
Al21	Al2	0.750000	0.250000	0.750000
Al31	Al3	0.750000	0.750000	0.250000
Al41	Al4	0.250000	0.750000	0.250000
O171	O17	0.000000	0.250000	0.686300
O181	O18	0.500000	0.750000	0.186300
O191	O19	0.000000	0.750000	0.313700
O201	O20	0.500000	0.250000	0.813700
C171	C17	0.000000	0.062900	0.945900
C181	C18	0.000000	0.136900	0.870300
C191	C19	0.500000	0.562900	0.445900
C201	C20	0.500000	0.636900	0.370300
C211	C21	0.000000	0.437100	0.945900
C221	C22	0.000000	0.363100	0.870300
C231	C23	0.500000	0.937100	0.445900
C241	C24	0.500000	0.863100	0.370300
C251	C25	0.000000	0.562900	0.054100
C261	C26	0.000000	0.636900	0.129700
C271	C27	0.500000	0.062900	0.554100
C281	C28	0.500000	0.136900	0.629700
C291	C29	0.000000	0.937100	0.054100
C301	C30	0.000000	0.863100	0.129700
C311	C31	0.500000	0.437100	0.554100
C321	C32	0.500000	0.363100	0.629700
