data_cm503311x_alf375K_clean_PM
_symmetry_space_group_name_H-M	'P1'
_cell_length_a	6.567600
_cell_length_b	16.401900
_cell_length_c	13.163200
_cell_angle_alpha	90.000000
_cell_angle_beta	90.000000
_cell_angle_gamma	90.000000
_symmetry_Int_Tables_number 1

loop_
_symmetry_equiv_pos_as_xyz
'x,y,z'

loop_
_atom_site_label
_atom_site_type_symbol
_atom_site_fract_x
_atom_site_fract_y
_atom_site_fract_z
O11	O1	0.166800	0.169330	0.840710
C11	C1	0.804400	0.025200	0.952500
O21	O2	0.666800	0.669330	0.340710
C21	C2	0.304400	0.525200	0.452500
O31	O3	0.833200	0.330670	0.840710
C31	C3	0.195600	0.474800	0.952500
O41	O4	0.333200	0.830670	0.340710
C41	C4	0.695600	0.974800	0.452500
O51	O5	0.833200	0.669330	0.159290
C51	C5	0.195600	0.525200	0.047500
O61	O6	0.333200	0.169330	0.659290
C61	C6	0.695600	0.025200	0.547500
O71	O7	0.166800	0.830670	0.159290
C71	C7	0.804400	0.974800	0.047500
O81	O8	0.666800	0.330670	0.659290
C81	C8	0.304400	0.474800	0.547500
O91	O9	0.833200	0.830670	0.159290
C91	C9	0.195600	0.974800	0.047500
O101	O10	0.333200	0.330670	0.659290
C101	C10	0.695600	0.474800	0.547500
O111	O11	0.166800	0.669330	0.159290
C111	C11	0.804400	0.525200	0.047500
O121	O12	0.666800	0.169330	0.659290
C121	C12	0.304400	0.025200	0.547500
O131	O13	0.166800	0.330670	0.840710
C131	C13	0.804400	0.474800	0.952500
O141	O14	0.666800	0.830670	0.340710
C141	C14	0.304400	0.974800	0.452500
O151	O15	0.833200	0.169330	0.840710
C151	C15	0.195600	0.025200	0.952500
O161	O16	0.333200	0.669330	0.340710
C161	C16	0.695600	0.525200	0.452500
Al11	Al1	0.250000	0.250000	0.750000
Al21	Al2	0.750000	0.250000	0.750000
Al31	Al3	0.750000	0.750000	0.250000
Al41	Al4	0.250000	0.750000	0.250000
F11	F1	0.000000	0.250000	0.692000
F21	F2	0.500000	0.750000	0.192000
F31	F3	0.000000	0.750000	0.308000
F41	F4	0.500000	0.250000	0.808000
C171	C17	0.000000	0.063300	0.949700
C181	C18	0.000000	0.135100	0.868000
C191	C19	0.500000	0.563300	0.449700
C201	C20	0.500000	0.635100	0.368000
C211	C21	0.000000	0.436700	0.949700
C221	C22	0.000000	0.364900	0.868000
C231	C23	0.500000	0.936700	0.449700
C241	C24	0.500000	0.864900	0.368000
C251	C25	0.000000	0.563300	0.050300
C261	C26	0.000000	0.635100	0.132000
C271	C27	0.500000	0.063300	0.550300
C281	C28	0.500000	0.135100	0.632000
C291	C29	0.000000	0.936700	0.050300
C301	C30	0.000000	0.864900	0.132000
C311	C31	0.500000	0.436700	0.550300
C321	C32	0.500000	0.364900	0.632000
