data_cm503311x_alf100K_clean_PM
_symmetry_space_group_name_H-M	'P1'
_cell_length_a	6.558100
_cell_length_b	16.425000
_cell_length_c	13.159200
_cell_angle_alpha	90.000000
_cell_angle_beta	90.000000
_cell_angle_gamma	90.502800
_symmetry_Int_Tables_number 1

loop_
_symmetry_equiv_pos_as_xyz
'x,y,z'

loop_
_atom_site_label
_atom_site_type_symbol
_atom_site_fract_x
_atom_site_fract_y
_atom_site_fract_z
O11	O1	0.160500	0.173100	0.848400
O21	O2	0.819800	0.661400	0.168200
C11	C1	0.807100	0.024800	0.952400
C21	C2	0.004500	0.066000	0.943600
C31	C3	0.991900	0.135000	0.865500
C41	C4	0.197700	0.539900	0.024300
O31	O3	0.660500	0.673100	0.348400
O41	O4	0.319800	0.161400	0.668200
C51	C5	0.307100	0.524800	0.452400
C61	C6	0.504500	0.566000	0.443600
C71	C7	0.491900	0.635000	0.365500
C81	C8	0.697700	0.039900	0.524300
O51	O5	0.839500	0.326900	0.848400
O61	O6	0.180200	0.838600	0.168200
C91	C9	0.192900	0.475200	0.952400
C101	C10	0.995500	0.434000	0.943600
C111	C11	0.008100	0.365000	0.865500
C121	C12	0.802300	0.960100	0.024300
O71	O7	0.339500	0.826900	0.348400
O81	O8	0.680200	0.338600	0.668200
C131	C13	0.692900	0.975200	0.452400
C141	C14	0.495500	0.934000	0.443600
C151	C15	0.508100	0.865000	0.365500
C161	C16	0.302300	0.460100	0.524300
O91	O9	0.839500	0.826900	0.151600
O101	O10	0.180200	0.338600	0.831800
C171	C17	0.192900	0.975200	0.047600
C181	C18	0.995500	0.934000	0.056400
C191	C19	0.008100	0.865000	0.134500
C201	C20	0.802300	0.460100	0.975700
O111	O11	0.339500	0.326900	0.651600
O121	O12	0.680200	0.838600	0.331800
C211	C21	0.692900	0.475200	0.547600
C221	C22	0.495500	0.434000	0.556400
C231	C23	0.508100	0.365000	0.634500
C241	C24	0.302300	0.960100	0.475700
O131	O13	0.160500	0.673100	0.151600
O141	O14	0.819800	0.161400	0.831800
C251	C25	0.807100	0.524800	0.047600
C261	C26	0.004500	0.566000	0.056400
C271	C27	0.991900	0.635000	0.134500
C281	C28	0.197700	0.039900	0.975700
O151	O15	0.660500	0.173100	0.651600
O161	O16	0.319800	0.661400	0.331800
C291	C29	0.307100	0.024800	0.547600
C301	C30	0.504500	0.066000	0.556400
C311	C31	0.491900	0.135000	0.634500
C321	C32	0.697700	0.539900	0.475700
Al11	Al1	0.250000	0.250000	0.750000
Al21	Al2	0.750000	0.250000	0.750000
Al31	Al3	0.750000	0.750000	0.250000
Al41	Al4	0.250000	0.750000	0.250000
F11	F1	0.000000	0.250000	0.691200
F21	F2	0.500000	0.750000	0.191200
F31	F3	0.000000	0.750000	0.308800
F41	F4	0.500000	0.250000	0.808800
