data_cm503311x_F-mil-53-Al-lp-mono_clean_PM
_symmetry_space_group_name_H-M	'P1'
_cell_length_a	13.139500
_cell_length_b	16.414400
_cell_length_c	13.314100
_cell_angle_alpha	89.998400
_cell_angle_beta	90.003500
_cell_angle_gamma	90.604700
_symmetry_Int_Tables_number 1

loop_
_symmetry_equiv_pos_as_xyz
'x,y,z'

loop_
_atom_site_label
_atom_site_type_symbol
_atom_site_fract_x
_atom_site_fract_y
_atom_site_fract_z
H11	H1	0.411960	0.459840	0.580960
H21	H2	0.407780	0.581210	0.465860
H31	H3	0.088190	0.540260	0.415890
H41	H4	0.092370	0.418910	0.531010
H51	H5	0.407760	0.081150	0.530730
H61	H6	0.088140	0.040280	0.580570
H71	H7	0.157740	0.080540	0.965000
H81	H8	0.342310	0.918180	0.029820
H91	H9	0.161860	0.959130	0.080030
H101	H10	0.338210	0.039580	0.914770
H111	H11	0.342250	0.418220	0.966450
H121	H12	0.161870	0.459170	0.916630
H131	H13	0.092290	0.918990	0.465370
H141	H14	0.411900	0.959850	0.415530
H151	H15	0.157640	0.580510	0.031750
H161	H16	0.338040	0.539550	0.081590
H171	H17	0.912030	0.459930	0.581040
H181	H18	0.907850	0.581300	0.465960
H191	H19	0.588260	0.540380	0.416010
H201	H20	0.592430	0.419010	0.531110
H211	H21	0.907850	0.081240	0.530640
H221	H22	0.588220	0.040400	0.580450
H231	H23	0.657840	0.080360	0.964740
H241	H24	0.842370	0.918030	0.029600
H251	H25	0.661930	0.958960	0.079780
H261	H26	0.838250	0.039430	0.914570
H271	H27	0.842310	0.418120	0.966600
H281	H28	0.661910	0.459030	0.916820
H291	H29	0.592360	0.919100	0.465250
H301	H30	0.911980	0.959950	0.415430
H311	H31	0.657710	0.580370	0.031960
H321	H32	0.838090	0.539460	0.081740
C11	C1	0.408500	0.021440	0.951480
C21	C2	0.997780	0.066800	0.933420
C31	C3	0.495700	0.138730	0.864980
C41	C4	0.089280	0.544340	0.017050
C51	C5	0.158480	0.522180	0.452630
C61	C6	0.247770	0.567520	0.434460
C71	C7	0.245660	0.639280	0.365750
C81	C8	0.339350	0.045040	0.515970
C91	C9	0.091570	0.477230	0.953360
C101	C10	0.502270	0.431910	0.935110
C111	C11	0.004330	0.360400	0.866020
C121	C12	0.410720	0.954300	0.015140
C131	C13	0.341600	0.977960	0.452230
C141	C14	0.252280	0.932680	0.433960
C151	C15	0.254330	0.860960	0.365170
C161	C16	0.160760	0.455060	0.516310
C171	C17	0.091600	0.977200	0.043220
C181	C18	0.502300	0.931850	0.061330
C191	C19	0.004310	0.860330	0.130410
C201	C20	0.410650	0.454340	0.981230
C211	C21	0.341660	0.477940	0.544250
C221	C22	0.252350	0.432630	0.562480
C231	C23	0.254390	0.360920	0.631270
C241	C24	0.160690	0.955110	0.480110
C251	C25	0.408370	0.521440	0.044940
C261	C26	0.997650	0.566790	0.063120
C271	C27	0.495570	0.638700	0.131600
C281	C28	0.089360	0.044340	0.979580
C291	C29	0.158440	0.022200	0.543840
C301	C30	0.247740	0.067500	0.562080
C311	C31	0.245670	0.139230	0.630830
C321	C32	0.339380	0.545070	0.480580
C331	C33	0.908520	0.021360	0.951370
C341	C34	0.497800	0.066790	0.933400
C351	C35	0.995670	0.138750	0.865010
C361	C36	0.589310	0.544250	0.017180
C371	C37	0.658550	0.522280	0.452740
C381	C38	0.747840	0.567620	0.434570
C391	C39	0.745710	0.639360	0.365830
C401	C40	0.839430	0.045130	0.515870
C411	C41	0.591590	0.477150	0.953480
C421	C42	0.002280	0.431930	0.935090
C431	C43	0.504320	0.360390	0.866020
C441	C44	0.910760	0.954220	0.015020
C451	C45	0.841680	0.978050	0.452130
C461	C46	0.752360	0.932770	0.433860
C471	C47	0.754390	0.861040	0.365090
C481	C48	0.660820	0.455160	0.516410
C491	C49	0.591640	0.977100	0.043080
C501	C50	0.002300	0.931860	0.061340
C511	C51	0.504290	0.860340	0.130430
C521	C52	0.910690	0.454280	0.981310
C531	C53	0.841720	0.478030	0.544350
C541	C54	0.752420	0.432720	0.562560
C551	C55	0.754440	0.360990	0.631340
C561	C56	0.660760	0.955220	0.479990
C571	C57	0.908390	0.521390	0.045010
C581	C58	0.497660	0.566770	0.063150
C591	C59	0.995550	0.638710	0.131580
C601	C60	0.589420	0.044240	0.979420
C611	C61	0.658520	0.022300	0.543730
C621	C62	0.747820	0.067600	0.561970
C631	C63	0.745730	0.139310	0.630750
C641	C64	0.839450	0.545160	0.480670
O11	O1	0.080230	0.174800	0.847350
O21	O2	0.409470	0.659280	0.167190
O31	O3	0.330210	0.675280	0.347890
O41	O4	0.159580	0.159730	0.666510
O51	O5	0.419720	0.324540	0.847930
O61	O6	0.090360	0.839990	0.166320
O71	O7	0.169740	0.825020	0.347330
O81	O8	0.340470	0.340410	0.666990
O91	O9	0.419680	0.824500	0.148510
O101	O10	0.090400	0.340050	0.830160
O111	O11	0.169780	0.325020	0.649160
O121	O12	0.340410	0.840490	0.329420
O131	O13	0.080120	0.674770	0.149230
O141	O14	0.409590	0.159330	0.829420
O151	O15	0.330250	0.175180	0.648740
O161	O16	0.159570	0.659720	0.330020
O171	O17	0.580270	0.174770	0.847280
O181	O18	0.909470	0.659260	0.167220
O191	O19	0.830260	0.675360	0.347950
O201	O20	0.659640	0.159790	0.666430
O211	O21	0.919740	0.324520	0.847980
O221	O22	0.590360	0.839960	0.166280
O231	O23	0.669800	0.825090	0.347280
O241	O24	0.840510	0.340470	0.667060
O251	O25	0.919710	0.824450	0.148440
O261	O26	0.590390	0.340030	0.830180
O271	O27	0.669830	0.325080	0.649190
O281	O28	0.840460	0.840560	0.329340
O291	O29	0.580140	0.674720	0.149290
O301	O30	0.909570	0.159320	0.829400
O311	O31	0.830310	0.175250	0.648690
O321	O32	0.659610	0.659800	0.330110
F11	F1	0.000020	0.250040	0.687870
F21	F2	0.249960	0.749860	0.187840
F31	F3	0.499980	0.750060	0.308670
F41	F4	0.250010	0.249870	0.808680
F51	F5	0.500020	0.250040	0.687860
F61	F6	0.749970	0.749850	0.187850
F71	F7	0.999980	0.750060	0.308660
F81	F8	0.750020	0.249880	0.808670
Al11	Al1	0.125010	0.249930	0.748280
Al21	Al2	0.374960	0.749930	0.248250
Al31	Al3	0.375010	0.249910	0.748280
Al41	Al4	0.124960	0.749910	0.248240
Al51	Al5	0.625020	0.249950	0.748250
Al61	Al6	0.874980	0.749950	0.248240
Al71	Al7	0.875030	0.249930	0.748290
Al81	Al8	0.624980	0.749930	0.248260
