data_cm501138g_si_012_clean_PM
_symmetry_space_group_name_H-M	'P1'
_cell_length_a	18.597700
_cell_length_b	18.597700
_cell_length_c	18.597700
_cell_angle_alpha	60.000000
_cell_angle_beta	60.000000
_cell_angle_gamma	60.000000
_symmetry_Int_Tables_number 1

loop_
_symmetry_equiv_pos_as_xyz
'x,y,z'

loop_
_atom_site_label
_atom_site_type_symbol
_atom_site_fract_x
_atom_site_fract_y
_atom_site_fract_z
Cu11	Cu1	0.000000	0.000000	0.431160
Cu21	Cu2	0.000000	0.431160	0.000000
Cu31	Cu3	0.431160	0.000000	0.000000
Cu41	Cu4	0.431160	0.568840	0.000000
Cu51	Cu5	0.431160	0.000000	0.568840
Cu61	Cu6	0.000000	0.000000	0.568840
Cu71	Cu7	0.000000	0.568840	0.000000
Cu81	Cu8	0.000000	0.431160	0.568840
Cu91	Cu9	0.568840	0.431160	0.000000
Cu101	Cu10	0.568840	0.000000	0.431160
Cu111	Cu11	0.568840	0.000000	0.000000
Cu121	Cu12	0.000000	0.568840	0.431160
H11	H1	0.728500	0.030300	0.512700
H21	H2	0.030300	0.728500	0.728500
H31	H3	0.487300	0.271500	0.969700
H41	H4	0.969700	0.487300	0.271500
H51	H5	0.728500	0.512700	0.030300
H61	H6	0.271500	0.969700	0.271500
H71	H7	0.271500	0.969700	0.487300
H81	H8	0.487300	0.969700	0.271500
H91	H9	0.969700	0.271500	0.271500
H101	H10	0.969700	0.271500	0.487300
H111	H11	0.271500	0.487300	0.271500
H121	H12	0.271500	0.271500	0.487300
H131	H13	0.728500	0.030300	0.728500
H141	H14	0.512700	0.728500	0.030300
H151	H15	0.487300	0.271500	0.271500
H161	H16	0.030300	0.728500	0.512700
H171	H17	0.512700	0.728500	0.728500
H181	H18	0.728500	0.728500	0.030300
H191	H19	0.512700	0.030300	0.728500
H201	H20	0.728500	0.728500	0.512700
H211	H21	0.271500	0.271500	0.969700
H221	H22	0.030300	0.512700	0.728500
H231	H23	0.728500	0.512700	0.728500
H241	H24	0.271500	0.487300	0.969700
C11	C1	0.570570	0.029810	0.699810
C21	C2	0.256800	0.970600	0.386300
C31	C3	0.023600	0.569100	0.838200
C41	C4	0.699810	0.699810	0.570570
C51	C5	0.699810	0.029810	0.570570
C61	C6	0.838200	0.569100	0.023600
C71	C7	0.029810	0.570570	0.699810
C81	C8	0.430900	0.161800	0.976400
C91	C9	0.743200	0.029400	0.613700
C101	C10	0.569100	0.023600	0.838200
C111	C11	0.970600	0.256800	0.386300
C121	C12	0.430900	0.161800	0.430900
C131	C13	0.613700	0.743200	0.029400
C141	C14	0.569100	0.838200	0.023600
C151	C15	0.300190	0.300190	0.970190
C161	C16	0.976400	0.430900	0.161800
C171	C17	0.613700	0.029400	0.743200
C181	C18	0.970190	0.300190	0.429430
C191	C19	0.743200	0.613700	0.029400
C201	C20	0.161800	0.430900	0.976400
C211	C21	0.161800	0.430900	0.430900
C221	C22	0.699810	0.570570	0.029810
C231	C23	0.613700	0.613700	0.743200
C241	C24	0.161800	0.976400	0.430900
C251	C25	0.570570	0.699810	0.029810
C261	C26	0.256800	0.386300	0.970600
C271	C27	0.970190	0.429430	0.300190
C281	C28	0.613700	0.743200	0.613700
C291	C29	0.029810	0.699810	0.570570
C301	C30	0.699810	0.570570	0.699810
C311	C31	0.029400	0.743200	0.613700
C321	C32	0.386300	0.256800	0.970600
C331	C33	0.970190	0.300190	0.300190
C341	C34	0.386300	0.970600	0.386300
C351	C35	0.699810	0.029810	0.699810
C361	C36	0.023600	0.569100	0.569100
C371	C37	0.023600	0.838200	0.569100
C381	C38	0.838200	0.569100	0.569100
C391	C39	0.300190	0.970190	0.300190
C401	C40	0.613700	0.613700	0.029400
C411	C41	0.029400	0.613700	0.613700
C421	C42	0.430900	0.430900	0.161800
C431	C43	0.386300	0.386300	0.970600
C441	C44	0.386300	0.386300	0.256800
C451	C45	0.029810	0.699810	0.699810
C461	C46	0.430900	0.430900	0.976400
C471	C47	0.569100	0.569100	0.838200
C481	C48	0.429430	0.970190	0.300190
C491	C49	0.838200	0.023600	0.569100
C501	C50	0.386300	0.970600	0.256800
C511	C51	0.569100	0.023600	0.569100
C521	C52	0.976400	0.161800	0.430900
C531	C53	0.300190	0.429430	0.970190
C541	C54	0.300190	0.970190	0.429430
C551	C55	0.569100	0.569100	0.023600
C561	C56	0.430900	0.976400	0.430900
C571	C57	0.429430	0.300190	0.970190
C581	C58	0.569100	0.838200	0.569100
C591	C59	0.743200	0.613700	0.613700
C601	C60	0.029400	0.613700	0.743200
C611	C61	0.300190	0.429430	0.300190
C621	C62	0.386300	0.256800	0.386300
C631	C63	0.970600	0.386300	0.256800
C641	C64	0.699810	0.699810	0.029810
C651	C65	0.976400	0.430900	0.430900
C661	C66	0.429430	0.300190	0.300190
C671	C67	0.570570	0.699810	0.699810
C681	C68	0.430900	0.976400	0.161800
C691	C69	0.300190	0.300190	0.429430
C701	C70	0.970600	0.386300	0.386300
C711	C71	0.613700	0.029400	0.613700
C721	C72	0.256800	0.386300	0.386300
O11	O1	0.507740	0.979040	0.387580
O21	O2	0.020960	0.492260	0.612420
O31	O3	0.020960	0.612420	0.874360
O41	O4	0.874360	0.492260	0.020960
O51	O5	0.874360	0.612420	0.020960
O61	O6	0.979040	0.507740	0.387580
O71	O7	0.492260	0.612420	0.020960
O81	O8	0.125640	0.979040	0.507740
O91	O9	0.125640	0.387580	0.979040
O101	O10	0.387580	0.125640	0.979040
O111	O11	0.507740	0.979040	0.125640
O121	O12	0.492260	0.612420	0.874360
O131	O13	0.492260	0.874360	0.612420
O141	O14	0.387580	0.507740	0.979040
O151	O15	0.874360	0.492260	0.612420
O161	O16	0.507740	0.387580	0.125640
O171	O17	0.612420	0.874360	0.492260
O181	O18	0.387580	0.125640	0.507740
O191	O19	0.979040	0.387580	0.125640
O201	O20	0.612420	0.492260	0.874360
O211	O21	0.020960	0.874360	0.612420
O221	O22	0.979040	0.387580	0.507740
O231	O23	0.612420	0.492260	0.020960
O241	O24	0.874360	0.020960	0.492260
O251	O25	0.125640	0.507740	0.387580
O261	O26	0.387580	0.979040	0.125640
O271	O27	0.612420	0.874360	0.020960
O281	O28	0.020960	0.492260	0.874360
O291	O29	0.507740	0.125640	0.387580
O301	O30	0.492260	0.020960	0.874360
O311	O31	0.979040	0.507740	0.125640
O321	O32	0.125640	0.979040	0.387580
O331	O33	0.387580	0.979040	0.507740
O341	O34	0.387580	0.507740	0.125640
O351	O35	0.020960	0.874360	0.492260
O361	O36	0.125640	0.387580	0.507740
O371	O37	0.612420	0.020960	0.874360
O381	O38	0.507740	0.387580	0.979040
O391	O39	0.507740	0.125640	0.979040
O401	O40	0.612420	0.020960	0.492260
O411	O41	0.492260	0.874360	0.020960
O421	O42	0.125640	0.507740	0.979040
O431	O43	0.874360	0.020960	0.612420
O441	O44	0.979040	0.125640	0.387580
O451	O45	0.492260	0.020960	0.612420
O461	O46	0.874360	0.612420	0.492260
O471	O47	0.979040	0.125640	0.507740
O481	O48	0.020960	0.612420	0.492260
