data_cm503311x_aloh425K_clean_PM
_symmetry_space_group_name_H-M	'P1'
_cell_length_a	6.628800
_cell_length_b	16.727600
_cell_length_c	12.833600
_cell_angle_alpha	90.000000
_cell_angle_beta	90.000000
_cell_angle_gamma	90.000000
_symmetry_Int_Tables_number 1

loop_
_symmetry_equiv_pos_as_xyz
'x,y,z'

loop_
_atom_site_label
_atom_site_type_symbol
_atom_site_fract_x
_atom_site_fract_y
_atom_site_fract_z
O11	O1	0.165760	0.168350	0.842880
C11	C1	0.809100	0.035440	0.967500
O21	O2	0.665760	0.668350	0.342880
C21	C2	0.309100	0.535440	0.467500
O31	O3	0.834240	0.331650	0.842880
C31	C3	0.190900	0.464560	0.967500
O41	O4	0.334240	0.831650	0.342880
C41	C4	0.690900	0.964560	0.467500
O51	O5	0.834240	0.668350	0.157120
C51	C5	0.190900	0.535440	0.032500
O61	O6	0.334240	0.168350	0.657120
C61	C6	0.690900	0.035440	0.532500
O71	O7	0.165760	0.831650	0.157120
C71	C7	0.809100	0.964560	0.032500
O81	O8	0.665760	0.331650	0.657120
C81	C8	0.309100	0.464560	0.532500
O91	O9	0.834240	0.831650	0.157120
C91	C9	0.190900	0.964560	0.032500
O101	O10	0.334240	0.331650	0.657120
C101	C10	0.690900	0.464560	0.532500
O111	O11	0.165760	0.668350	0.157120
C111	C11	0.809100	0.535440	0.032500
O121	O12	0.665760	0.168350	0.657120
C121	C12	0.309100	0.035440	0.532500
O131	O13	0.165760	0.331650	0.842880
C131	C13	0.809100	0.464560	0.967500
O141	O14	0.665760	0.831650	0.342880
C141	C14	0.309100	0.964560	0.467500
O151	O15	0.834240	0.168350	0.842880
C151	C15	0.190900	0.035440	0.967500
O161	O16	0.334240	0.668350	0.342880
C161	C16	0.690900	0.535440	0.467500
Al11	Al1	0.250000	0.250000	0.750000
Al21	Al2	0.750000	0.250000	0.750000
Al31	Al3	0.750000	0.750000	0.250000
Al41	Al4	0.250000	0.750000	0.250000
O171	O17	0.000000	0.250000	0.685700
O181	O18	0.500000	0.750000	0.185700
O191	O19	0.000000	0.750000	0.314300
O201	O20	0.500000	0.250000	0.814300
C171	C17	0.000000	0.062200	0.946400
C181	C18	0.000000	0.137000	0.871600
C191	C19	0.500000	0.562200	0.446400
C201	C20	0.500000	0.637000	0.371600
C211	C21	0.000000	0.437800	0.946400
C221	C22	0.000000	0.363000	0.871600
C231	C23	0.500000	0.937800	0.446400
C241	C24	0.500000	0.863000	0.371600
C251	C25	0.000000	0.562200	0.053600
C261	C26	0.000000	0.637000	0.128400
C271	C27	0.500000	0.062200	0.553600
C281	C28	0.500000	0.137000	0.628400
C291	C29	0.000000	0.937800	0.053600
C301	C30	0.000000	0.863000	0.128400
C311	C31	0.500000	0.437800	0.553600
C321	C32	0.500000	0.363000	0.628400
