data_COBWEV_clean_PM
_symmetry_space_group_name_H-M	'P1'
_cell_length_a	30.809000
_cell_length_b	5.369000
_cell_length_c	25.126000
_cell_angle_alpha	90.000000
_cell_angle_beta	127.610000
_cell_angle_gamma	90.000000
_symmetry_Int_Tables_number 1

loop_
_symmetry_equiv_pos_as_xyz
'x,y,z'

loop_
_atom_site_label
_atom_site_type_symbol
_atom_site_fract_x
_atom_site_fract_y
_atom_site_fract_z
Cd11	Cd1	0.264000	0.885000	0.576800
Cd21	Cd2	0.686500	0.000000	0.958000
P11	P1	0.701800	0.542000	0.042500
P21	P2	0.331000	0.440000	0.592100
O11	O1	0.730400	0.586000	0.121300
O21	O2	0.392100	0.492000	0.620800
O31	O3	0.740300	0.674000	0.029000
O41	O4	0.296500	0.580000	0.525600
O51	O5	0.645500	0.663000	0.007900
O61	O6	0.321600	0.565000	0.638700
O71	O7	0.702900	0.282000	0.037600
O81	O8	0.326100	0.167000	0.587400
N11	N1	0.745800	0.353000	0.284700
N21	N2	0.540200	0.348000	0.790300
C11	C1	0.753600	0.200000	0.342200
C21	C2	0.590800	0.253000	0.846400
O91	O9	0.795900	0.226000	0.400600
O101	O10	0.634000	0.317000	0.861500
N31	N3	0.714000	0.044000	0.316900
N41	N4	0.596300	0.049000	0.886000
C31	C3	0.668600	0.968000	0.253300
C41	C4	0.543600	0.982000	0.863900
N51	N5	0.634000	0.787000	0.241000
N61	N6	0.544100	0.781000	0.899600
C51	C5	0.660400	0.135000	0.196900
C61	C6	0.489900	0.085000	0.809600
C71	C7	0.699100	0.320000	0.218100
C81	C8	0.483500	0.289000	0.767700
C91	C9	0.790600	0.507000	0.308500
C101	C10	0.546300	0.571000	0.752600
C111	C11	0.841600	0.406000	0.322500
C121	C12	0.548100	0.456000	0.694500
C131	C13	0.825100	0.449000	0.255000
C141	C14	0.491700	0.532000	0.634300
C151	C15	0.803300	0.724000	0.235000
C161	C16	0.468900	0.739000	0.649600
O111	O11	0.765100	0.716000	0.254900
O121	O12	0.498200	0.702000	0.721800
O131	O13	0.873700	0.453000	0.254800
O141	O14	0.495000	0.542000	0.574300
C171	C17	0.762400	0.796000	0.157100
C181	C18	0.407500	0.718000	0.615800
Cd31	Cd3	0.236000	0.385000	0.423200
Cd41	Cd4	0.813500	0.500000	0.042000
P31	P3	0.798200	0.042000	0.957500
P41	P4	0.169000	0.940000	0.407900
O151	O15	0.769600	0.086000	0.878700
O161	O16	0.107900	0.992000	0.379200
O171	O17	0.759700	0.174000	0.971000
O181	O18	0.203500	0.080000	0.474400
O191	O19	0.854500	0.163000	0.992100
O201	O20	0.178400	0.065000	0.361300
O211	O21	0.797100	0.782000	0.962400
O221	O22	0.173900	0.667000	0.412600
N71	N7	0.754200	0.853000	0.715300
N81	N8	0.959800	0.848000	0.209700
C191	C19	0.746400	0.700000	0.657800
C201	C20	0.909200	0.753000	0.153600
O231	O23	0.704100	0.726000	0.599400
O241	O24	0.866000	0.817000	0.138500
N91	N9	0.786000	0.544000	0.683100
N101	N10	0.903700	0.549000	0.114000
C211	C21	0.831400	0.468000	0.746700
C221	C22	0.956400	0.482000	0.136100
N111	N11	0.866000	0.287000	0.759000
N121	N12	0.955900	0.281000	0.100400
C231	C23	0.839600	0.635000	0.803100
C241	C24	0.010100	0.585000	0.190400
C251	C25	0.800900	0.820000	0.781900
C261	C26	0.016500	0.789000	0.232300
C271	C27	0.709400	0.007000	0.691500
C281	C28	0.953700	0.071000	0.247400
C291	C29	0.658400	0.906000	0.677500
C301	C30	0.951900	0.956000	0.305500
C311	C31	0.674900	0.949000	0.745000
C321	C32	0.008300	0.032000	0.365700
C331	C33	0.696700	0.224000	0.765000
C341	C34	0.031100	0.239000	0.350400
O251	O25	0.734900	0.216000	0.745100
O261	O26	0.001800	0.202000	0.278200
O271	O27	0.626300	0.953000	0.745200
O281	O28	0.005000	0.042000	0.425700
C351	C35	0.737600	0.296000	0.842900
C361	C36	0.092500	0.218000	0.384200
Cd51	Cd5	0.764000	0.385000	0.576800
Cd61	Cd6	0.186500	0.500000	0.958000
P51	P5	0.201800	0.042000	0.042500
P61	P6	0.831000	0.940000	0.592100
O291	O29	0.230400	0.086000	0.121300
O301	O30	0.892100	0.992000	0.620800
O311	O31	0.240300	0.174000	0.029000
O321	O32	0.796500	0.080000	0.525600
O331	O33	0.145500	0.163000	0.007900
O341	O34	0.821600	0.065000	0.638700
O351	O35	0.202900	0.782000	0.037600
O361	O36	0.826100	0.667000	0.587400
N131	N13	0.245800	0.853000	0.284700
N141	N14	0.040200	0.848000	0.790300
C371	C37	0.253600	0.700000	0.342200
C381	C38	0.090800	0.753000	0.846400
O371	O37	0.295900	0.726000	0.400600
O381	O38	0.134000	0.817000	0.861500
N151	N15	0.214000	0.544000	0.316900
N161	N16	0.096300	0.549000	0.886000
C391	C39	0.168600	0.468000	0.253300
C401	C40	0.043600	0.482000	0.863900
N171	N17	0.134000	0.287000	0.241000
N181	N18	0.044100	0.281000	0.899600
C411	C41	0.160400	0.635000	0.196900
C421	C42	0.989900	0.585000	0.809600
C431	C43	0.199100	0.820000	0.218100
C441	C44	0.983500	0.789000	0.767700
C451	C45	0.290600	0.007000	0.308500
C461	C46	0.046300	0.071000	0.752600
C471	C47	0.341600	0.906000	0.322500
C481	C48	0.048100	0.956000	0.694500
C491	C49	0.325100	0.949000	0.255000
C501	C50	0.991700	0.032000	0.634300
C511	C51	0.303300	0.224000	0.235000
C521	C52	0.968900	0.239000	0.649600
O391	O39	0.265100	0.216000	0.254900
O401	O40	0.998200	0.202000	0.721800
O411	O41	0.373700	0.953000	0.254800
O421	O42	0.995000	0.042000	0.574300
C531	C53	0.262400	0.296000	0.157100
C541	C54	0.907500	0.218000	0.615800
Cd71	Cd7	0.736000	0.885000	0.423200
Cd81	Cd8	0.313500	0.000000	0.042000
P71	P7	0.298200	0.542000	0.957500
P81	P8	0.669000	0.440000	0.407900
O431	O43	0.269600	0.586000	0.878700
O441	O44	0.607900	0.492000	0.379200
O451	O45	0.259700	0.674000	0.971000
O461	O46	0.703500	0.580000	0.474400
O471	O47	0.354500	0.663000	0.992100
O481	O48	0.678400	0.565000	0.361300
O491	O49	0.297100	0.282000	0.962400
O501	O50	0.673900	0.167000	0.412600
N191	N19	0.254200	0.353000	0.715300
N201	N20	0.459800	0.348000	0.209700
C551	C55	0.246400	0.200000	0.657800
C561	C56	0.409200	0.253000	0.153600
O511	O51	0.204100	0.226000	0.599400
O521	O52	0.366000	0.317000	0.138500
N211	N21	0.286000	0.044000	0.683100
N221	N22	0.403700	0.049000	0.114000
C571	C57	0.331400	0.968000	0.746700
C581	C58	0.456400	0.982000	0.136100
N231	N23	0.366000	0.787000	0.759000
N241	N24	0.455900	0.781000	0.100400
C591	C59	0.339600	0.135000	0.803100
C601	C60	0.510100	0.085000	0.190400
C611	C61	0.300900	0.320000	0.781900
C621	C62	0.516500	0.289000	0.232300
C631	C63	0.209400	0.507000	0.691500
C641	C64	0.453700	0.571000	0.247400
C651	C65	0.158400	0.406000	0.677500
C661	C66	0.451900	0.456000	0.305500
C671	C67	0.174900	0.449000	0.745000
C681	C68	0.508300	0.532000	0.365700
C691	C69	0.196700	0.724000	0.765000
C701	C70	0.531100	0.739000	0.350400
O531	O53	0.234900	0.716000	0.745100
O541	O54	0.501800	0.702000	0.278200
O551	O55	0.126300	0.453000	0.745200
O561	O56	0.505000	0.542000	0.425700
C711	C71	0.237600	0.796000	0.842900
C721	C72	0.592500	0.718000	0.384200
