data_COCMOY_clean_PM
_symmetry_space_group_name_H-M	'P1'
_cell_length_a	18.826600
_cell_length_b	18.826600
_cell_length_c	25.463800
_cell_angle_alpha	90.000000
_cell_angle_beta	90.000000
_cell_angle_gamma	90.000000
_symmetry_Int_Tables_number 1

loop_
_symmetry_equiv_pos_as_xyz
'x,y,z'

loop_
_atom_site_label
_atom_site_type_symbol
_atom_site_fract_x
_atom_site_fract_y
_atom_site_fract_z
Mn11	Mn1	0.500000	0.500000	0.392160
Mn21	Mn2	0.000000	0.000000	0.107840
Mn31	Mn3	0.601400	0.398600	0.500000
Mn41	Mn4	0.898600	0.898600	0.000000
Mn51	Mn5	0.000000	0.000000	0.892160
Mn61	Mn6	0.101400	0.101400	0.000000
Mn71	Mn7	0.398600	0.601400	0.500000
Mn81	Mn8	0.500000	0.500000	0.607840
Si11	Si1	0.000000	0.500000	0.750000
Si21	Si2	0.500000	0.000000	0.250000
Si31	Si3	0.000000	0.500000	0.250000
Si41	Si4	0.500000	0.000000	0.750000
H11	H1	0.755200	0.563000	0.292700
H21	H2	0.066100	0.350400	0.898600
H31	H3	0.568300	0.860900	0.245200
H41	H4	0.068300	0.639100	0.745200
H51	H5	0.149600	0.566100	0.601400
H61	H6	0.244800	0.437000	0.292700
H71	H7	0.955000	0.440500	0.649500
H81	H8	0.566100	0.149600	0.601400
H91	H9	0.933900	0.649600	0.898600
H101	H10	0.255200	0.937000	0.207300
H111	H11	0.059500	0.455000	0.850500
H121	H12	0.649600	0.933900	0.101400
H131	H13	0.568300	0.860900	0.754800
H141	H14	0.360900	0.931700	0.254800
H151	H15	0.437000	0.244800	0.707300
H161	H16	0.933900	0.649600	0.101400
H171	H17	0.649600	0.933900	0.898600
H181	H18	0.068300	0.639100	0.254800
H191	H19	0.455000	0.059500	0.149500
H201	H20	0.566100	0.149600	0.398600
H211	H21	0.066100	0.350400	0.101400
H221	H22	0.955000	0.440500	0.350500
H231	H23	0.440500	0.955000	0.649500
H241	H24	0.755200	0.563000	0.707300
H251	H25	0.559500	0.045000	0.649500
H261	H26	0.850400	0.433900	0.601400
H271	H27	0.744800	0.063000	0.792700
H281	H28	0.940500	0.545000	0.850500
H291	H29	0.937000	0.255200	0.792700
H301	H30	0.139100	0.431700	0.245200
H311	H31	0.744800	0.063000	0.207300
H321	H32	0.545000	0.940500	0.149500
H331	H33	0.639100	0.068300	0.254800
H341	H34	0.433900	0.850400	0.601400
H351	H35	0.059500	0.455000	0.149500
H361	H36	0.850400	0.433900	0.398600
H371	H37	0.255200	0.937000	0.792700
H381	H38	0.931700	0.360900	0.745200
H391	H39	0.563000	0.755200	0.707300
H401	H40	0.063000	0.744800	0.792700
H411	H41	0.931700	0.360900	0.254800
H421	H42	0.350400	0.066100	0.898600
H431	H43	0.360900	0.931700	0.745200
H441	H44	0.937000	0.255200	0.207300
H451	H45	0.350400	0.066100	0.101400
H461	H46	0.563000	0.755200	0.292700
H471	H47	0.139100	0.431700	0.754800
H481	H48	0.440500	0.955000	0.350500
H491	H49	0.433900	0.850400	0.398600
H501	H50	0.559500	0.045000	0.350500
H511	H51	0.860900	0.568300	0.754800
H521	H52	0.545000	0.940500	0.850500
H531	H53	0.063000	0.744800	0.207300
H541	H54	0.860900	0.568300	0.245200
H551	H55	0.149600	0.566100	0.398600
H561	H56	0.431700	0.139100	0.245200
H571	H57	0.244800	0.437000	0.707300
H581	H58	0.437000	0.244800	0.292700
H591	H59	0.455000	0.059500	0.850500
H601	H60	0.940500	0.545000	0.149500
H611	H61	0.639100	0.068300	0.745200
H621	H62	0.045000	0.559500	0.649500
H631	H63	0.045000	0.559500	0.350500
H641	H64	0.431700	0.139100	0.754800
C11	C1	0.007500	0.226600	0.881100
C21	C2	0.585800	0.965100	0.161700
C31	C3	0.726600	0.492500	0.618900
C41	C4	0.273400	0.507500	0.381100
C51	C5	0.147700	0.538400	0.367400
C61	C6	0.358900	0.959600	0.223700
C71	C7	0.462000	0.204100	0.695300
C81	C8	0.085800	0.534900	0.661700
C91	C9	0.919000	0.503100	0.708100
C101	C10	0.961600	0.647700	0.132600
C111	C11	0.462000	0.204100	0.304700
C121	C12	0.792800	0.499100	0.649500
C131	C13	0.352300	0.038400	0.132600
C141	C14	0.585800	0.965100	0.838300
C151	C15	0.465100	0.914200	0.338300
C161	C16	0.996900	0.419000	0.791900
C171	C17	0.414200	0.034900	0.838300
C181	C18	0.273400	0.507500	0.618900
C191	C19	0.992500	0.773400	0.118900
C201	C20	0.141100	0.459600	0.276300
C211	C21	0.858900	0.540400	0.276300
C221	C22	0.852300	0.461600	0.632600
C231	C23	0.773400	0.992500	0.881100
C241	C24	0.965100	0.585800	0.838300
C251	C25	0.204100	0.462000	0.304700
C261	C26	0.496900	0.081000	0.291900
C271	C27	0.204100	0.462000	0.695300
C281	C28	0.292800	0.000900	0.149500
C291	C29	0.961600	0.647700	0.867400
C301	C30	0.207200	0.500900	0.649500
C311	C31	0.965100	0.585800	0.161700
C321	C32	0.496900	0.081000	0.708100
C331	C33	0.538400	0.147700	0.632600
C341	C34	0.704100	0.038000	0.195300
C351	C35	0.492500	0.726600	0.618900
C361	C36	0.038400	0.352300	0.867400
C371	C37	0.419000	0.996900	0.208100
C381	C38	0.000900	0.292800	0.149500
C391	C39	0.534900	0.085800	0.661700
C401	C40	0.500900	0.207200	0.649500
C411	C41	0.040400	0.641100	0.776300
C421	C42	0.358900	0.959600	0.776300
C431	C43	0.085800	0.534900	0.338300
C441	C44	0.858900	0.540400	0.723700
C451	C45	0.226600	0.007500	0.881100
C461	C46	0.141100	0.459600	0.723700
C471	C47	0.007500	0.226600	0.118900
C481	C48	0.461600	0.852300	0.367400
C491	C49	0.038400	0.352300	0.132600
C501	C50	0.914200	0.465100	0.338300
C511	C51	0.292800	0.000900	0.850500
C521	C52	0.726600	0.492500	0.381100
C531	C53	0.999100	0.707200	0.850500
C541	C54	0.500900	0.207200	0.350500
C551	C55	0.641100	0.040400	0.776300
C561	C56	0.038000	0.704100	0.804700
C571	C57	0.581000	0.003100	0.791900
C581	C58	0.414200	0.034900	0.161700
C591	C59	0.034900	0.414200	0.838300
C601	C60	0.459600	0.141100	0.723700
C611	C61	0.081000	0.496900	0.291900
C621	C62	0.704100	0.038000	0.804700
C631	C63	0.503100	0.919000	0.708100
C641	C64	0.540400	0.858900	0.276300
C651	C65	0.499100	0.792800	0.649500
C661	C66	0.226600	0.007500	0.118900
C671	C67	0.459600	0.141100	0.276300
C681	C68	0.207200	0.500900	0.350500
C691	C69	0.003100	0.581000	0.791900
C701	C70	0.795900	0.538000	0.304700
C711	C71	0.507500	0.273400	0.618900
C721	C72	0.538400	0.147700	0.367400
C731	C73	0.795900	0.538000	0.695300
C741	C74	0.534900	0.085800	0.338300
C751	C75	0.540400	0.858900	0.723700
C761	C76	0.034900	0.414200	0.161700
C771	C77	0.503100	0.919000	0.291900
C781	C78	0.914200	0.465100	0.661700
C791	C79	0.538000	0.795900	0.695300
C801	C80	0.962000	0.295900	0.195300
C811	C81	0.773400	0.992500	0.118900
C821	C82	0.081000	0.496900	0.708100
C831	C83	0.581000	0.003100	0.208100
C841	C84	0.038000	0.704100	0.195300
C851	C85	0.352300	0.038400	0.867400
C861	C86	0.538000	0.795900	0.304700
C871	C87	0.919000	0.503100	0.291900
C881	C88	0.999100	0.707200	0.149500
C891	C89	0.295900	0.962000	0.804700
C901	C90	0.792800	0.499100	0.350500
C911	C91	0.461600	0.852300	0.632600
C921	C92	0.507500	0.273400	0.381100
C931	C93	0.647700	0.961600	0.132600
C941	C94	0.959600	0.358900	0.223700
C951	C95	0.000900	0.292800	0.850500
C961	C96	0.003100	0.581000	0.208100
C971	C97	0.147700	0.538400	0.632600
C981	C98	0.641100	0.040400	0.223700
C991	C99	0.295900	0.962000	0.195300
C1001	C100	0.040400	0.641100	0.223700
C1011	C101	0.492500	0.726600	0.381100
C1021	C102	0.707200	0.999100	0.850500
C1031	C103	0.707200	0.999100	0.149500
C1041	C104	0.962000	0.295900	0.804700
C1051	C105	0.419000	0.996900	0.791900
C1061	C106	0.959600	0.358900	0.776300
C1071	C107	0.852300	0.461600	0.367400
C1081	C108	0.499100	0.792800	0.350500
C1091	C109	0.992500	0.773400	0.881100
C1101	C110	0.647700	0.961600	0.867400
C1111	C111	0.996900	0.419000	0.208100
C1121	C112	0.465100	0.914200	0.661700
N11	N1	0.482900	0.335600	0.637610
N21	N2	0.042100	0.220400	0.074980
N31	N3	0.496250	0.617200	0.600600
N41	N4	0.720400	0.457900	0.425020
N51	N5	0.720400	0.457900	0.574980
N61	N6	0.517100	0.664400	0.637610
N71	N7	0.539400	0.348700	0.436750
N81	N8	0.151300	0.039400	0.063250
N91	N9	0.779600	0.957900	0.925020
N101	N10	0.151300	0.039400	0.936750
N111	N11	0.957900	0.779600	0.925020
N121	N12	0.003750	0.117200	0.100600
N131	N13	0.664400	0.517100	0.362390
N141	N14	0.617200	0.496250	0.600600
N151	N15	0.482900	0.335600	0.362390
N161	N16	0.503750	0.382800	0.399400
N171	N17	0.835600	0.017100	0.137610
N181	N18	0.457900	0.720400	0.574980
N191	N19	0.517100	0.664400	0.362390
N201	N20	0.279600	0.542100	0.425020
N211	N21	0.996250	0.882800	0.899400
N221	N22	0.779600	0.957900	0.074980
N231	N23	0.017100	0.835600	0.137610
N241	N24	0.542100	0.279600	0.425020
N251	N25	0.460600	0.651300	0.436750
N261	N26	0.279600	0.542100	0.574980
N271	N27	0.164400	0.982900	0.137610
N281	N28	0.960600	0.848700	0.936750
N291	N29	0.220400	0.042100	0.925020
N301	N30	0.117200	0.003750	0.100600
N311	N31	0.651300	0.460600	0.563250
N321	N32	0.164400	0.982900	0.862390
N331	N33	0.542100	0.279600	0.574980
N341	N34	0.848700	0.960600	0.936750
N351	N35	0.017100	0.835600	0.862390
N361	N36	0.039400	0.151300	0.063250
N371	N37	0.348700	0.539400	0.436750
N381	N38	0.539400	0.348700	0.563250
N391	N39	0.848700	0.960600	0.063250
N401	N40	0.220400	0.042100	0.074980
N411	N41	0.382800	0.503750	0.600600
N421	N42	0.496250	0.617200	0.399400
N431	N43	0.957900	0.779600	0.074980
N441	N44	0.457900	0.720400	0.425020
N451	N45	0.335600	0.482900	0.637610
N461	N46	0.117200	0.003750	0.899400
N471	N47	0.042100	0.220400	0.925020
N481	N48	0.003750	0.117200	0.899400
N491	N49	0.882800	0.996250	0.100600
N501	N50	0.982900	0.164400	0.862390
N511	N51	0.960600	0.848700	0.063250
N521	N52	0.617200	0.496250	0.399400
N531	N53	0.996250	0.882800	0.100600
N541	N54	0.503750	0.382800	0.600600
N551	N55	0.039400	0.151300	0.936750
N561	N56	0.651300	0.460600	0.436750
N571	N57	0.348700	0.539400	0.563250
N581	N58	0.664400	0.517100	0.637610
N591	N59	0.982900	0.164400	0.137610
N601	N60	0.460600	0.651300	0.563250
N611	N61	0.382800	0.503750	0.399400
N621	N62	0.335600	0.482900	0.362390
N631	N63	0.835600	0.017100	0.862390
N641	N64	0.882800	0.996250	0.899400
Cl11	Cl1	0.500000	0.500000	0.500000
Cl21	Cl2	0.000000	0.000000	0.000000
