data_CODFEH_clean_PM
_symmetry_space_group_name_H-M	'P1'
_cell_length_a	7.953900
_cell_length_b	7.953900
_cell_length_c	13.189000
_cell_angle_alpha	90.000000
_cell_angle_beta	90.000000
_cell_angle_gamma	90.000000
_symmetry_Int_Tables_number 1

loop_
_symmetry_equiv_pos_as_xyz
'x,y,z'

loop_
_atom_site_label
_atom_site_type_symbol
_atom_site_fract_x
_atom_site_fract_y
_atom_site_fract_z
Mn11	Mn1	0.535100	0.135380	0.842230
Mn21	Mn2	0.464900	0.864620	0.342230
Mn31	Mn3	0.864620	0.535100	0.092230
Mn41	Mn4	0.135380	0.464900	0.592230
H11	H1	0.611000	0.084500	0.650700
H21	H2	0.708400	0.846000	0.635000
H31	H3	0.389000	0.752200	0.709400
H41	H4	0.523200	0.616000	0.681600
H51	H5	0.389000	0.915500	0.150700
H61	H6	0.291600	0.154000	0.135000
H71	H7	0.611000	0.247800	0.209400
H81	H8	0.476800	0.384000	0.181600
H91	H9	0.915500	0.611000	0.900700
H101	H10	0.154000	0.708400	0.885000
H111	H11	0.247800	0.389000	0.959400
H121	H12	0.384000	0.523200	0.931600
H131	H13	0.084500	0.389000	0.400700
H141	H14	0.846000	0.291600	0.385000
H151	H15	0.752200	0.611000	0.459400
H161	H16	0.616000	0.476800	0.431600
C11	C1	0.707400	0.810100	0.790400
C21	C2	0.623600	0.853000	0.688700
C31	C3	0.483700	0.728200	0.665400
C41	C4	0.423700	0.729900	0.557200
C51	C5	0.292600	0.189900	0.290400
C61	C6	0.376400	0.147000	0.188700
C71	C7	0.516300	0.271800	0.165400
C81	C8	0.576300	0.270100	0.057200
C91	C9	0.189900	0.707400	0.040400
C101	C10	0.147000	0.623600	0.938700
C111	C11	0.271800	0.483700	0.915400
C121	C12	0.270100	0.423700	0.807200
C131	C13	0.810100	0.292600	0.540400
C141	C14	0.853000	0.376400	0.438700
C151	C15	0.728200	0.516300	0.415400
C161	C16	0.729900	0.576300	0.307200
O11	O1	0.791900	0.680300	0.791600
O21	O2	0.682600	0.904300	0.864320
O31	O3	0.321600	0.620900	0.529410
O41	O4	0.483700	0.836900	0.499400
O51	O5	0.559000	0.020400	0.691640
O61	O6	0.208100	0.319700	0.291600
O71	O7	0.317400	0.095700	0.364320
O81	O8	0.678400	0.379100	0.029410
O91	O9	0.516300	0.163100	0.999400
O101	O10	0.441000	0.979600	0.191640
O111	O11	0.319700	0.791900	0.041600
O121	O12	0.095700	0.682600	0.114320
O131	O13	0.379100	0.321600	0.779410
O141	O14	0.163100	0.483700	0.749400
O151	O15	0.979600	0.559000	0.941640
O161	O16	0.680300	0.208100	0.541600
O171	O17	0.904300	0.317400	0.614320
O181	O18	0.620900	0.678400	0.279410
O191	O19	0.836900	0.516300	0.249400
O201	O20	0.020400	0.441000	0.441640
