data_CODSUL_clean_PM
_symmetry_space_group_name_H-M	'P1'
_cell_length_a	12.156000
_cell_length_b	18.590000
_cell_length_c	21.024000
_cell_angle_alpha	74.050000
_cell_angle_beta	75.940000
_cell_angle_gamma	75.580000
_symmetry_Int_Tables_number 1

loop_
_symmetry_equiv_pos_as_xyz
'x,y,z'

loop_
_atom_site_label
_atom_site_type_symbol
_atom_site_fract_x
_atom_site_fract_y
_atom_site_fract_z
Cd11	Cd1	0.637540	0.337000	0.955740
Cd21	Cd2	0.337270	0.083740	0.689530
Cd31	Cd3	0.050350	0.660860	0.642530
Cd41	Cd4	0.949650	0.339140	0.357470
Cd51	Cd5	0.662730	0.916260	0.310470
Cd61	Cd6	0.362460	0.663000	0.044260
H11	H1	0.355600	0.070000	0.203400
H21	H2	0.034800	0.175500	0.446200
H31	H3	0.017100	0.774200	0.190100
H41	H4	0.719400	0.120700	0.839800
H51	H5	0.421100	0.247500	0.416500
H61	H6	0.451100	0.313900	0.302300
H71	H7	0.713800	0.618000	0.648700
H81	H8	0.998100	0.770400	0.025400
H91	H9	0.618800	0.006300	0.655500
H101	H10	0.206700	0.854400	0.683700
H111	H11	0.836300	0.104400	0.694100
H121	H12	0.906900	0.453200	0.776300
H131	H13	0.240600	0.658900	0.826100
H141	H14	0.173700	0.535900	0.349800
H151	H15	0.552500	0.232200	0.383400
H161	H16	0.065900	0.203000	0.104200
H171	H17	0.548100	0.410900	0.698600
H181	H18	0.715200	0.824800	0.115100
H191	H19	0.606700	0.972400	0.155100
H201	H20	0.286200	0.382000	0.351300
H211	H21	0.907700	0.162900	0.475500
H221	H22	0.175700	0.249700	0.990100
H231	H23	0.113400	0.527900	0.546800
H241	H24	0.841800	0.912600	0.775200
H251	H25	0.314800	0.271600	0.783300
H261	H26	0.254700	0.779300	0.270800
H271	H27	0.001900	0.229600	0.974600
H281	H28	0.811600	0.651300	0.334400
H291	H29	0.838800	0.713500	0.084800
H301	H30	0.268600	0.922300	0.579200
H311	H31	0.538700	0.779300	0.390800
H321	H32	0.381200	0.993700	0.344500
H331	H33	0.618500	0.380900	0.797800
H341	H34	0.731400	0.077700	0.420800
H351	H35	0.650900	0.162000	0.157100
H361	H36	0.550000	0.265600	0.615600
H371	H37	0.393300	0.027600	0.844900
H381	H38	0.954900	0.821600	0.717400
H391	H39	0.578900	0.752500	0.583500
H401	H40	0.942100	0.203100	0.094400
H411	H41	0.638900	0.042700	0.935400
H421	H42	0.559100	0.853900	0.976100
H431	H43	0.366300	0.220300	0.045500
H441	H44	0.965200	0.824500	0.553800
H451	H45	0.769200	0.878000	0.435300
H461	H46	0.544200	0.112700	0.374700
H471	H47	0.455800	0.887300	0.625300
H481	H48	0.002700	0.129200	0.520400
H491	H49	0.227500	0.334500	0.419300
H501	H50	0.995100	0.142000	0.621700
H511	H51	0.793300	0.145600	0.316300
H521	H52	0.997300	0.870800	0.479600
H531	H53	0.405700	0.808600	0.412400
H541	H54	0.860600	0.112100	0.910100
H551	H55	0.837100	0.531200	0.541300
H561	H56	0.600200	0.642700	0.310400
H571	H57	0.824300	0.750300	0.009900
H581	H58	0.548900	0.686100	0.697700
H591	H59	0.139400	0.887900	0.089900
H601	H60	0.739800	0.887400	0.509800
H611	H61	0.280600	0.879300	0.160200
H621	H62	0.826300	0.464100	0.650200
H631	H63	0.501100	0.203800	0.038300
H641	H64	0.841500	0.928600	0.112200
H651	H65	0.931800	0.809900	0.084500
H661	H66	0.461300	0.220700	0.609200
H671	H67	0.349100	0.838000	0.842900
H681	H68	0.134800	0.667300	0.323500
H691	H69	0.772500	0.665500	0.580700
H701	H70	0.793100	0.147500	0.012200
H711	H71	0.448200	0.142800	0.239300
H721	H72	0.451900	0.589100	0.301400
H731	H73	0.219300	0.944700	0.887900
H741	H74	0.502100	0.236200	0.280500
H751	H75	0.848800	0.607700	0.630200
H761	H76	0.780700	0.055300	0.112100
H771	H77	0.307000	0.147000	0.959100
H781	H78	0.591000	0.871400	0.604000
H791	H79	0.158500	0.071400	0.887800
H801	H80	0.284800	0.175200	0.884900
H811	H81	0.798100	0.141200	0.624400
H821	H82	0.594300	0.191400	0.587600
H831	H83	0.134800	0.980500	0.509300
H841	H84	0.952200	0.198500	0.669900
H851	H85	0.151200	0.392300	0.369800
H861	H86	0.045100	0.178400	0.282600
H871	H87	0.745300	0.220700	0.729200
H881	H88	0.551800	0.857200	0.760700
H891	H89	0.011700	0.849100	0.841400
H901	H90	0.399800	0.357300	0.689600
H911	H91	0.988300	0.150900	0.158600
H921	H92	0.409000	0.128600	0.396000
H931	H93	0.260200	0.112600	0.490200
H941	H94	0.734200	0.810500	0.494600
H951	H95	0.865200	0.332700	0.676500
H961	H96	0.450000	0.734400	0.384400
H971	H97	0.188400	0.348700	0.665600
H981	H98	0.206900	0.852500	0.987800
H991	H99	0.361100	0.957300	0.064600
H1001	H100	0.298900	0.746800	0.339300
H1011	H101	0.158200	0.087400	0.224800
H1021	H102	0.093100	0.546800	0.223700
H1031	H103	0.068200	0.190100	0.915500
H1041	H104	0.644400	0.930000	0.796600
H1051	H105	0.004900	0.858000	0.378300
H1061	H106	0.497900	0.763800	0.719500
H1071	H107	0.201900	0.858800	0.375600
H1081	H108	0.381500	0.619100	0.202200
H1091	H109	0.701100	0.253200	0.660700
H1101	H110	0.865200	0.019500	0.490700
H1111	H111	0.092300	0.837100	0.524500
H1121	H112	0.440900	0.146100	0.023900
H1131	H113	0.162900	0.468800	0.458700
H1141	H114	0.811500	0.983500	0.603600
H1151	H115	0.483100	0.992900	0.938100
H1161	H116	0.230800	0.122000	0.564700
H1171	H117	0.057900	0.796900	0.905600
H1181	H118	0.161200	0.286500	0.915200
H1191	H119	0.633700	0.779700	0.954500
H1201	H120	0.685200	0.728400	0.216700
H1211	H121	0.759400	0.341100	0.173900
H1221	H122	0.163700	0.895600	0.305900
H1231	H123	0.188500	0.016500	0.396400
H1241	H124	0.047800	0.801500	0.330100
H1251	H125	0.516900	0.007100	0.061900
H1261	H126	0.886600	0.472100	0.453200
H1271	H127	0.982900	0.225800	0.809900
H1281	H128	0.934100	0.797000	0.895800
H1291	H129	0.447500	0.767800	0.616600
H1301	H130	0.498900	0.796200	0.961700
H1311	H131	0.265800	0.189500	0.505400
H1321	H132	0.693000	0.853000	0.040900
C11	C1	0.227800	0.295600	0.339200
C21	C2	0.441300	0.945100	0.431900
C31	C3	0.956000	0.408700	0.766900
C41	C4	0.498000	0.688100	0.148700
C51	C5	0.277700	0.860500	0.759500
C61	C6	0.990600	0.827800	0.888700
C71	C7	0.312400	0.817200	0.820200
C81	C8	0.882100	0.443400	0.497300
C91	C9	0.874700	0.828500	0.726100
C101	C10	0.910600	0.512200	0.317600
C111	C11	0.449300	0.240800	0.947900
C121	C12	0.557300	0.360800	0.795100
C131	C13	0.721100	0.865000	0.478700
C141	C14	0.785000	0.249200	0.251600
C151	C15	0.681200	0.296300	0.085500
C161	C16	0.687600	0.182800	0.179800
C171	C17	0.296000	0.940800	0.733700
C181	C18	0.463800	0.784100	0.380900
C191	C19	0.424900	0.344900	0.730300
C201	C20	0.821400	0.152100	0.661200
C211	C21	0.699500	0.796300	0.716100
C221	C22	0.245100	0.992700	0.422400
C231	C23	0.173300	0.665000	0.141900
C241	C24	0.044000	0.591300	0.233100
C251	C25	0.710900	0.808000	0.076100
C261	C26	0.640400	0.020200	0.608900
C271	C27	0.058200	0.110300	0.075700
C281	C28	0.446300	0.260400	0.313800
C291	C29	0.479500	0.138100	0.403200
C301	C30	0.704000	0.059200	0.266300
C311	C31	0.575100	0.655100	0.269700
C321	C32	0.707700	0.255800	0.153900
C331	C33	0.024500	0.828700	0.514100
C341	C34	0.900300	0.323400	0.578800
C351	C35	0.754900	0.007300	0.577600
C361	C36	0.687900	0.893300	0.773200
C371	C37	0.458100	0.046400	0.843500
C381	C38	0.359600	0.979800	0.391100
C391	C39	0.933000	0.182700	0.634300
C401	C40	0.600200	0.123800	0.785100
C411	C41	0.000000	0.273000	0.785900
C421	C42	0.292300	0.744200	0.846100
C431	C43	0.941800	0.889700	0.924300
C441	C44	0.130300	0.639900	0.368000
C451	C45	0.067000	0.817300	0.365700
C461	C46	0.222700	0.356400	0.372800
C471	C47	0.053900	0.755700	0.489500
C481	C48	0.502000	0.311900	0.851300
C491	C49	0.124100	0.346300	0.700200
C501	C50	0.975500	0.171300	0.485900
C511	C51	0.606300	0.055700	0.897100
C521	C52	0.278800	0.793100	0.305800
C531	C53	0.125300	0.171500	0.273900
C541	C54	0.536200	0.215900	0.619100
C551	C55	0.808500	0.040400	0.071500
C561	C56	0.553700	0.739600	0.686200
C571	C57	0.846700	0.437800	0.615900
C581	C58	0.926400	0.802700	0.041500
C591	C59	0.193400	0.117300	0.239600
C601	C60	0.772200	0.704400	0.660800
C611	C61	0.318800	0.703700	0.914500
C621	C62	0.399800	0.876200	0.214900
C631	C63	0.806600	0.882700	0.760400
C641	C64	0.372900	0.294400	0.785900
C651	C65	0.171700	0.204900	0.716700
C661	C66	0.442700	0.639200	0.204900
C671	C67	0.815100	0.096100	0.011100
C681	C68	0.368000	0.149800	0.248400
C691	C69	0.721200	0.206900	0.694200
C701	C70	0.495600	0.905100	0.213700
C711	C71	0.599400	0.894000	0.473100
C721	C72	0.191500	0.959600	0.928500
C731	C73	0.825800	0.761600	0.052100
C741	C74	0.346300	0.897100	0.159000
C751	C75	0.786900	0.028600	0.509600
C761	C76	0.181200	0.215600	0.295400
C771	C77	0.876200	0.944200	0.011700
C781	C78	0.073600	0.197300	0.958500
C791	C79	0.158100	0.034800	0.928200
C801	C80	0.751800	0.290400	0.190300
C811	C81	0.095600	0.635200	0.488900
C821	C82	0.089400	0.487800	0.682400
C831	C83	0.770600	0.173600	0.276000
C841	C84	0.165000	0.716500	0.709100
C851	C85	0.818800	0.784400	0.704600
C861	C86	0.291200	0.937000	0.532700
C871	C87	0.096200	0.276200	0.734300
C881	C88	0.826700	0.335000	0.858100
C891	C89	0.184900	0.903900	0.988900
C901	C90	0.943700	0.586100	0.282900
C911	C91	0.722300	0.139500	0.240500
C921	C92	0.875900	0.653700	0.299800
C931	C93	0.178600	0.847900	0.338800
C941	C94	0.459300	0.830500	0.311800
C951	C95	0.632000	0.850200	0.751600
C961	C96	0.215000	0.750800	0.748400
C971	C97	0.946100	0.244300	0.510500
C981	C98	0.312100	0.106700	0.226800
C991	C99	0.278900	0.135000	0.521300
C1001	C100	0.777300	0.643600	0.627200
C1011	C101	0.000000	0.727000	0.214100
C1021	C102	0.511500	0.026300	0.899200
C1031	C103	0.071000	0.661100	0.197800
C1041	C104	0.438400	0.199000	0.020400
C1051	C105	0.515700	0.377400	0.736000
C1061	C106	0.408300	0.925800	0.500200
C1071	C107	0.413300	0.281200	0.843400
C1081	C108	0.558700	0.054900	0.568100
C1091	C109	0.009400	0.172200	0.111300
C1101	C110	0.627100	0.705600	0.214100
C1111	C111	0.653700	0.102900	0.841000
C1121	C112	0.853100	0.478200	0.550200
C1131	C113	0.289100	0.192000	0.923900
C1141	C114	0.591700	0.074200	0.499800
C1151	C115	0.541900	0.953600	0.156500
C1161	C116	0.484300	0.622600	0.264000
C1171	C117	0.504400	0.094900	0.786300
C1181	C118	0.229400	0.826400	0.724000
C1191	C119	0.708800	0.063000	0.467300
C1201	C120	0.903800	0.723800	0.265700
C1211	C121	0.153300	0.562200	0.384100
C1221	C122	0.853700	0.075500	0.950400
C1231	C123	0.561600	0.801000	0.979600
C1241	C124	0.869700	0.360100	0.632000
C1251	C125	0.841900	0.965200	0.071800
C1261	C126	0.099700	0.676600	0.421200
C1271	C127	0.828300	0.795100	0.283300
C1281	C128	0.300500	0.203700	0.283900
C1291	C129	0.882000	0.998600	0.951300
C1301	C130	0.550700	0.759200	0.052100
C1311	C131	0.835000	0.283500	0.290900
C1321	C132	0.488500	0.973700	0.100800
C1331	C133	0.056300	0.413900	0.717100
C1341	C134	0.540700	0.169500	0.688200
C1351	C135	0.586700	0.718800	0.156600
C1361	C136	0.477200	0.223400	0.383300
C1371	C137	0.400600	0.106000	0.526900
C1381	C138	0.146300	0.924500	0.049600
C1391	C139	0.123800	0.055800	0.988300
C1401	C140	0.393700	0.944300	0.102900
C1411	C141	0.248200	0.709600	0.809700
C1421	C142	0.118000	0.001400	0.048700
C1431	C143	0.213100	0.971400	0.490400
C1441	C144	0.522800	0.776600	0.616700
C1451	C145	0.929000	0.338900	0.802200
C1461	C146	0.904400	0.364800	0.511100
C1471	C147	0.174200	0.238400	0.947900
C1481	C148	0.117900	0.556600	0.502700
C1491	C149	0.520500	0.861900	0.596800
C1501	C150	0.146900	0.521800	0.449800
N11	N1	0.925800	0.246900	0.576400
N21	N2	0.479300	0.713200	0.084200
N31	N3	0.074200	0.753100	0.423600
N41	N4	0.862200	0.725500	0.669800
N51	N5	0.379000	0.827800	0.277000
N61	N6	0.509900	0.893700	0.525700
N71	N7	0.924900	0.962600	0.897400
N81	N8	0.381500	0.235600	0.906000
N91	N9	0.935200	0.312300	0.469700
N101	N10	0.520700	0.286800	0.915800
N111	N11	0.439400	0.074900	0.584800
N121	N12	0.064800	0.687700	0.530300
N131	N13	0.531800	0.875100	0.275800
N141	N14	0.560600	0.925100	0.415200
N151	N15	0.490100	0.106300	0.474300
N161	N16	0.468200	0.124900	0.724200
N171	N17	0.330400	0.253900	0.311300
N181	N18	0.618500	0.764400	0.094000
N191	N19	0.621000	0.172200	0.723000
N201	N20	0.137800	0.274500	0.330200
N211	N21	0.075100	0.037400	0.102600
N221	N22	0.669600	0.746100	0.688700
N231	N23	0.085800	0.125100	0.005000
N241	N24	0.914200	0.874900	0.995000
O11	O1	0.233300	0.209700	0.658400
O21	O2	0.629100	0.266400	0.058900
O31	O3	0.370900	0.733600	0.941100
O41	O4	0.009500	0.546300	0.684700
O51	O5	0.809000	0.509800	0.347000
O61	O6	0.990500	0.453700	0.315300
O71	O7	0.144700	0.753600	0.651400
O81	O8	0.246100	0.982900	0.686700
O91	O9	0.760700	0.396200	0.868000
O101	O10	0.855300	0.246400	0.348600
O111	O11	0.239300	0.603800	0.132000
O121	O12	0.191000	0.490200	0.653000
O131	O13	0.862300	0.347700	0.265700
O141	O14	0.640100	0.036500	0.241600
O151	O15	0.359900	0.963500	0.758400
O161	O16	0.808200	0.272300	0.893300
O171	O17	0.753900	0.017100	0.313300
O181	O18	0.137700	0.652300	0.734300
O191	O19	0.766700	0.790300	0.341600
O201	O20	0.174600	0.143000	0.760200
O211	O21	0.288500	0.644500	0.943800
O221	O22	0.711500	0.355500	0.056200
O231	O23	0.825400	0.857000	0.239800
O241	O24	0.191800	0.727700	0.106700
