data_COGKEP_clean_PM
_symmetry_space_group_name_H-M	'P1'
_cell_length_a	13.539300
_cell_length_b	13.539300
_cell_length_c	15.044300
_cell_angle_alpha	90.000000
_cell_angle_beta	90.000000
_cell_angle_gamma	120.000000
_symmetry_Int_Tables_number 1

loop_
_symmetry_equiv_pos_as_xyz
'x,y,z'

loop_
_atom_site_label
_atom_site_type_symbol
_atom_site_fract_x
_atom_site_fract_y
_atom_site_fract_z
Zn11	Zn1	0.088800	0.637930	0.079000
P11	P1	0.128500	0.440930	0.056750
O11	O1	0.186200	0.566500	0.087100
O21	O2	0.194200	0.782300	0.027000
O31	O3	0.033600	0.641600	0.199000
O41	O4	0.945300	0.573500	0.023800
Zn21	Zn2	0.755470	0.971260	0.412330
P21	P2	0.795170	0.774260	0.390080
O51	O5	0.852870	0.899830	0.420430
O61	O6	0.860870	0.115630	0.360330
O71	O7	0.700270	0.974930	0.532330
O81	O8	0.611970	0.906830	0.357130
Zn31	Zn3	0.422130	0.304600	0.745670
P31	P3	0.461830	0.107600	0.723420
O91	O9	0.519530	0.233170	0.753770
O101	O10	0.527530	0.448970	0.693670
O111	O11	0.366930	0.308270	0.865670
O121	O12	0.278630	0.240170	0.690470
Zn41	Zn4	0.362070	0.450870	0.079000
P41	P4	0.559070	0.687570	0.056750
O131	O13	0.433500	0.619700	0.087100
O141	O14	0.217700	0.411900	0.027000
O151	O15	0.358400	0.392000	0.199000
O161	O16	0.426500	0.371800	0.023800
Zn51	Zn5	0.028740	0.784200	0.412330
P51	P5	0.225740	0.020900	0.390080
O171	O17	0.100170	0.953030	0.420430
O181	O18	0.884370	0.745230	0.360330
O191	O19	0.025070	0.725330	0.532330
O201	O20	0.093170	0.705130	0.357130
Zn61	Zn6	0.695400	0.117540	0.745670
P61	P6	0.892400	0.354240	0.723420
O211	O21	0.766830	0.286370	0.753770
O221	O22	0.551030	0.078570	0.693670
O231	O23	0.691730	0.058670	0.865670
O241	O24	0.759830	0.038470	0.690470
Zn71	Zn7	0.549130	0.911200	0.079000
P71	P7	0.312430	0.871500	0.056750
O251	O25	0.380300	0.813800	0.087100
O261	O26	0.588100	0.805800	0.027000
O271	O27	0.608000	0.966400	0.199000
O281	O28	0.628200	0.054700	0.023800
Zn81	Zn8	0.215800	0.244530	0.412330
P81	P8	0.979100	0.204830	0.390080
O291	O29	0.046970	0.147130	0.420430
O301	O30	0.254770	0.139130	0.360330
O311	O31	0.274670	0.299730	0.532330
O321	O32	0.294870	0.388030	0.357130
Zn91	Zn9	0.882460	0.577870	0.745670
P91	P9	0.645760	0.538170	0.723420
O331	O33	0.713630	0.480470	0.753770
O341	O34	0.921430	0.472470	0.693670
O351	O35	0.941330	0.633070	0.865670
O361	O36	0.961530	0.721370	0.690470
Zn101	Zn10	0.911200	0.362070	0.921000
P101	P10	0.871500	0.559070	0.943250
O371	O37	0.813800	0.433500	0.912900
O381	O38	0.805800	0.217700	0.973000
O391	O39	0.966400	0.358400	0.801000
O401	O40	0.054700	0.426500	0.976200
Zn111	Zn11	0.577870	0.695400	0.254330
P111	P11	0.538170	0.892400	0.276580
O411	O41	0.480470	0.766830	0.246230
O421	O42	0.472470	0.551030	0.306330
O431	O43	0.633070	0.691730	0.134330
O441	O44	0.721370	0.759830	0.309530
Zn121	Zn12	0.244530	0.028740	0.587670
P121	P12	0.204830	0.225740	0.609920
O451	O45	0.147130	0.100170	0.579570
O461	O46	0.139130	0.884370	0.639670
O471	O47	0.299730	0.025070	0.467670
O481	O48	0.388030	0.093170	0.642870
Zn131	Zn13	0.637930	0.549130	0.921000
P131	P13	0.440930	0.312430	0.943250
O491	O49	0.566500	0.380300	0.912900
O501	O50	0.782300	0.588100	0.973000
O511	O51	0.641600	0.608000	0.801000
O521	O52	0.573500	0.628200	0.976200
Zn141	Zn14	0.304600	0.882460	0.254330
P141	P14	0.107600	0.645760	0.276580
O531	O53	0.233170	0.713630	0.246230
O541	O54	0.448970	0.921430	0.306330
O551	O55	0.308270	0.941330	0.134330
O561	O56	0.240170	0.961530	0.309530
Zn151	Zn15	0.971260	0.215800	0.587670
P151	P15	0.774260	0.979100	0.609920
O571	O57	0.899830	0.046970	0.579570
O581	O58	0.115630	0.254770	0.639670
O591	O59	0.974930	0.274670	0.467670
O601	O60	0.906830	0.294870	0.642870
Zn161	Zn16	0.450870	0.088800	0.921000
P161	P16	0.687570	0.128500	0.943250
O611	O61	0.619700	0.186200	0.912900
O621	O62	0.411900	0.194200	0.973000
O631	O63	0.392000	0.033600	0.801000
O641	O64	0.371800	0.945300	0.976200
Zn171	Zn17	0.117540	0.422130	0.254330
P171	P17	0.354240	0.461830	0.276580
O651	O65	0.286370	0.519530	0.246230
O661	O66	0.078570	0.527530	0.306330
O671	O67	0.058670	0.366930	0.134330
O681	O68	0.038470	0.278630	0.309530
Zn181	Zn18	0.784200	0.755470	0.587670
P181	P18	0.020900	0.795170	0.609920
O691	O69	0.953030	0.852870	0.579570
O701	O70	0.745230	0.860870	0.639670
O711	O71	0.725330	0.700270	0.467670
O721	O72	0.705130	0.611970	0.642870
Co11	Co1	0.333330	0.666670	0.166670
Co21	Co2	0.000000	0.000000	0.500000
Co31	Co3	0.666670	0.333330	0.833330
