data_COKMEW_clean_PM
_symmetry_space_group_name_H-M	'P1'
_cell_length_a	26.034900
_cell_length_b	26.034900
_cell_length_c	6.850800
_cell_angle_alpha	90.000000
_cell_angle_beta	90.000000
_cell_angle_gamma	120.000000
_symmetry_Int_Tables_number 1

loop_
_symmetry_equiv_pos_as_xyz
'x,y,z'

loop_
_atom_site_label
_atom_site_type_symbol
_atom_site_fract_x
_atom_site_fract_y
_atom_site_fract_z
Fe11	Fe1	0.384390	0.353090	0.140000
O11	O1	0.325630	0.293580	0.362300
O21	O2	0.302030	0.229250	0.603100
O31	O3	0.353720	0.272670	0.011700
C11	C1	0.317410	0.245990	0.420000
C21	C2	0.327790	0.203960	0.289300
C31	C3	0.344790	0.223650	0.091600
C41	C4	0.350130	0.182390	0.976100
H11	H1	0.360900	0.193400	0.827400
Fe21	Fe2	0.051060	0.686420	0.473330
O41	O4	0.992300	0.626910	0.695630
O51	O5	0.968700	0.562580	0.936430
O61	O6	0.020390	0.606000	0.345030
C51	C5	0.984080	0.579320	0.753330
C61	C6	0.994460	0.537290	0.622630
C71	C7	0.011460	0.556980	0.424930
C81	C8	0.016800	0.515720	0.309430
H21	H2	0.027570	0.526730	0.160730
Fe31	Fe3	0.717720	0.019760	0.806670
O71	O7	0.658960	0.960250	0.028970
O81	O8	0.635360	0.895920	0.269770
O91	O9	0.687050	0.939340	0.678370
C91	C9	0.650740	0.912660	0.086670
C101	C10	0.661120	0.870630	0.955970
C111	C11	0.678120	0.890320	0.758270
C121	C12	0.683460	0.849060	0.642770
H31	H3	0.694230	0.860070	0.494070
Fe41	Fe4	0.646910	0.031300	0.140000
O101	O10	0.706420	0.032050	0.362300
O111	O11	0.770750	0.072780	0.603100
O121	O12	0.727330	0.081050	0.011700
C131	C13	0.754010	0.071420	0.420000
C141	C14	0.796040	0.123830	0.289300
C151	C15	0.776350	0.121140	0.091600
C161	C16	0.817610	0.167740	0.976100
H41	H4	0.806600	0.167500	0.827400
Fe51	Fe5	0.313580	0.364630	0.473330
O131	O13	0.373090	0.365380	0.695630
O141	O14	0.437420	0.406110	0.936430
O151	O15	0.394000	0.414380	0.345030
C171	C17	0.420680	0.404750	0.753330
C181	C18	0.462710	0.457160	0.622630
C191	C19	0.443020	0.454470	0.424930
C201	C20	0.484280	0.501070	0.309430
H51	H5	0.473270	0.500830	0.160730
Fe61	Fe6	0.980240	0.697970	0.806670
O161	O16	0.039750	0.698720	0.028970
O171	O17	0.104080	0.739450	0.269770
O181	O18	0.060660	0.747720	0.678370
C211	C21	0.087340	0.738090	0.086670
C221	C22	0.129370	0.790500	0.955970
C231	C23	0.109680	0.787810	0.758270
C241	C24	0.150940	0.834410	0.642770
H61	H6	0.139930	0.834170	0.494070
Fe71	Fe7	0.968700	0.615610	0.140000
O191	O19	0.967950	0.674370	0.362300
O201	O20	0.927220	0.697970	0.603100
O211	O21	0.918950	0.646280	0.011700
C251	C25	0.928580	0.682590	0.420000
C261	C26	0.876170	0.672210	0.289300
C271	C27	0.878860	0.655210	0.091600
C281	C28	0.832260	0.649870	0.976100
H71	H7	0.832500	0.639100	0.827400
Fe81	Fe8	0.635370	0.948940	0.473330
O221	O22	0.634620	0.007700	0.695630
O231	O23	0.593890	0.031300	0.936430
O241	O24	0.585620	0.979610	0.345030
C291	C29	0.595250	0.015920	0.753330
C301	C30	0.542840	0.005540	0.622630
C311	C31	0.545530	0.988540	0.424930
C321	C32	0.498930	0.983200	0.309430
H81	H8	0.499170	0.972430	0.160730
Fe91	Fe9	0.302030	0.282280	0.806670
O251	O25	0.301280	0.341040	0.028970
O261	O26	0.260550	0.364640	0.269770
O271	O27	0.252280	0.312950	0.678370
C331	C33	0.261910	0.349260	0.086670
C341	C34	0.209500	0.338880	0.955970
C351	C35	0.212190	0.321880	0.758270
C361	C36	0.165590	0.316540	0.642770
H91	H9	0.165830	0.305770	0.494070
Fe101	Fe10	0.615610	0.646910	0.860000
O281	O28	0.674370	0.706420	0.637700
O291	O29	0.697970	0.770750	0.396900
O301	O30	0.646280	0.727330	0.988300
C371	C37	0.682590	0.754010	0.580000
C381	C38	0.672210	0.796040	0.710700
C391	C39	0.655210	0.776350	0.908400
C401	C40	0.649870	0.817610	0.023900
H101	H10	0.639100	0.806600	0.172600
Fe111	Fe11	0.282280	0.980240	0.193330
O311	O31	0.341040	0.039750	0.971030
O321	O32	0.364640	0.104080	0.730230
O331	O33	0.312950	0.060660	0.321630
C411	C41	0.349260	0.087340	0.913330
C421	C42	0.338880	0.129370	0.044030
C431	C43	0.321880	0.109680	0.241730
C441	C44	0.316540	0.150940	0.357230
H111	H11	0.305770	0.139930	0.505930
Fe121	Fe12	0.948940	0.313580	0.526670
O341	O34	0.007700	0.373090	0.304370
O351	O35	0.031300	0.437420	0.063570
O361	O36	0.979610	0.394000	0.654970
C451	C45	0.015920	0.420680	0.246670
C461	C46	0.005540	0.462710	0.377370
C471	C47	0.988540	0.443020	0.575070
C481	C48	0.983200	0.484280	0.690570
H121	H12	0.972430	0.473270	0.839270
Fe131	Fe13	0.353090	0.968700	0.860000
O371	O37	0.293580	0.967950	0.637700
O381	O38	0.229250	0.927220	0.396900
O391	O39	0.272670	0.918950	0.988300
C491	C49	0.245990	0.928580	0.580000
C501	C50	0.203960	0.876170	0.710700
C511	C51	0.223650	0.878860	0.908400
C521	C52	0.182390	0.832260	0.023900
H131	H13	0.193400	0.832500	0.172600
Fe141	Fe14	0.019760	0.302030	0.193330
O401	O40	0.960250	0.301280	0.971030
O411	O41	0.895920	0.260550	0.730230
O421	O42	0.939340	0.252280	0.321630
C531	C53	0.912660	0.261910	0.913330
C541	C54	0.870630	0.209500	0.044030
C551	C55	0.890320	0.212190	0.241730
C561	C56	0.849060	0.165590	0.357230
H141	H14	0.860070	0.165830	0.505930
Fe151	Fe15	0.686420	0.635370	0.526670
O431	O43	0.626910	0.634620	0.304370
O441	O44	0.562580	0.593890	0.063570
O451	O45	0.606000	0.585620	0.654970
C571	C57	0.579320	0.595250	0.246670
C581	C58	0.537290	0.542840	0.377370
C591	C59	0.556980	0.545530	0.575070
C601	C60	0.515720	0.498930	0.690570
H151	H15	0.526730	0.499170	0.839270
Fe161	Fe16	0.031300	0.384390	0.860000
O461	O46	0.032050	0.325630	0.637700
O471	O47	0.072780	0.302030	0.396900
O481	O48	0.081050	0.353720	0.988300
C611	C61	0.071420	0.317410	0.580000
C621	C62	0.123830	0.327790	0.710700
C631	C63	0.121140	0.344790	0.908400
C641	C64	0.167740	0.350130	0.023900
H161	H16	0.167500	0.360900	0.172600
Fe171	Fe17	0.697970	0.717720	0.193330
O491	O49	0.698720	0.658960	0.971030
O501	O50	0.739450	0.635360	0.730230
O511	O51	0.747720	0.687050	0.321630
C651	C65	0.738090	0.650740	0.913330
C661	C66	0.790500	0.661120	0.044030
C671	C67	0.787810	0.678120	0.241730
C681	C68	0.834410	0.683460	0.357230
H171	H17	0.834170	0.694230	0.505930
Fe181	Fe18	0.364630	0.051060	0.526670
O521	O52	0.365380	0.992300	0.304370
O531	O53	0.406110	0.968700	0.063570
O541	O54	0.414380	0.020390	0.654970
C691	C69	0.404750	0.984080	0.246670
C701	C70	0.457160	0.994460	0.377370
C711	C71	0.454470	0.011460	0.575070
C721	C72	0.501070	0.016800	0.690570
H181	H18	0.500830	0.027570	0.839270
