data_COKMIA_clean_PM
_symmetry_space_group_name_H-M	'P1'
_cell_length_a	25.897700
_cell_length_b	25.897700
_cell_length_c	6.846000
_cell_angle_alpha	90.000000
_cell_angle_beta	90.000000
_cell_angle_gamma	120.000000
_symmetry_Int_Tables_number 1

loop_
_symmetry_equiv_pos_as_xyz
'x,y,z'

loop_
_atom_site_label
_atom_site_type_symbol
_atom_site_fract_x
_atom_site_fract_y
_atom_site_fract_z
Co11	Co1	0.381600	0.348800	0.133000
O11	O1	0.326000	0.297300	0.372000
O21	O2	0.302200	0.227500	0.601100
O31	O3	0.356200	0.274000	0.004700
C11	C1	0.316500	0.247000	0.427500
C21	C2	0.330200	0.208200	0.287900
C31	C3	0.347300	0.225500	0.089100
C41	C4	0.351700	0.180900	0.972100
H11	H1	0.361600	0.192800	0.826000
Co21	Co2	0.048270	0.682130	0.466330
O41	O4	0.992670	0.630630	0.705330
O51	O5	0.968870	0.560830	0.934430
O61	O6	0.022870	0.607330	0.338030
C51	C5	0.983170	0.580330	0.760830
C61	C6	0.996870	0.541530	0.621230
C71	C7	0.013970	0.558830	0.422430
C81	C8	0.018370	0.514230	0.305430
H21	H2	0.028270	0.526130	0.159330
Co31	Co3	0.714930	0.015470	0.799670
O71	O7	0.659330	0.963970	0.038670
O81	O8	0.635530	0.894170	0.267770
O91	O9	0.689530	0.940670	0.671370
C91	C9	0.649830	0.913670	0.094170
C101	C10	0.663530	0.874870	0.954570
C111	C11	0.680630	0.892170	0.755770
C121	C12	0.685030	0.847570	0.638770
H31	H3	0.694930	0.859470	0.492670
Co41	Co4	0.651200	0.032800	0.133000
O101	O10	0.702700	0.028700	0.372000
O111	O11	0.772500	0.074700	0.601100
O121	O12	0.726000	0.082200	0.004700
C131	C13	0.753000	0.069500	0.427500
C141	C14	0.791800	0.122000	0.287900
C151	C15	0.774500	0.121800	0.089100
C161	C16	0.819100	0.170800	0.972100
H41	H4	0.807200	0.168800	0.826000
Co51	Co5	0.317870	0.366130	0.466330
O131	O13	0.369370	0.362030	0.705330
O141	O14	0.439170	0.408030	0.934430
O151	O15	0.392670	0.415530	0.338030
C171	C17	0.419670	0.402830	0.760830
C181	C18	0.458470	0.455330	0.621230
C191	C19	0.441170	0.455130	0.422430
C201	C20	0.485770	0.504130	0.305430
H51	H5	0.473870	0.502130	0.159330
Co61	Co6	0.984530	0.699470	0.799670
O161	O16	0.036030	0.695370	0.038670
O171	O17	0.105830	0.741370	0.267770
O181	O18	0.059330	0.748870	0.671370
C211	C21	0.086330	0.736170	0.094170
C221	C22	0.125130	0.788670	0.954570
C231	C23	0.107830	0.788470	0.755770
C241	C24	0.152430	0.837470	0.638770
H61	H6	0.140530	0.835470	0.492670
Co71	Co7	0.967200	0.618400	0.133000
O191	O19	0.971300	0.674000	0.372000
O201	O20	0.925300	0.697800	0.601100
O211	O21	0.917800	0.643800	0.004700
C251	C25	0.930500	0.683500	0.427500
C261	C26	0.878000	0.669800	0.287900
C271	C27	0.878200	0.652700	0.089100
C281	C28	0.829200	0.648300	0.972100
H71	H7	0.831200	0.638400	0.826000
Co81	Co8	0.633870	0.951730	0.466330
O221	O22	0.637970	0.007330	0.705330
O231	O23	0.591970	0.031130	0.934430
O241	O24	0.584470	0.977130	0.338030
C291	C29	0.597170	0.016830	0.760830
C301	C30	0.544670	0.003130	0.621230
C311	C31	0.544870	0.986030	0.422430
C321	C32	0.495870	0.981630	0.305430
H81	H8	0.497870	0.971730	0.159330
Co91	Co9	0.300530	0.285070	0.799670
O251	O25	0.304630	0.340670	0.038670
O261	O26	0.258630	0.364470	0.267770
O271	O27	0.251130	0.310470	0.671370
C331	C33	0.263830	0.350170	0.094170
C341	C34	0.211330	0.336470	0.954570
C351	C35	0.211530	0.319370	0.755770
C361	C36	0.162530	0.314970	0.638770
H91	H9	0.164530	0.305070	0.492670
Co101	Co10	0.618400	0.651200	0.867000
O281	O28	0.674000	0.702700	0.628000
O291	O29	0.697800	0.772500	0.398900
O301	O30	0.643800	0.726000	0.995300
C371	C37	0.683500	0.753000	0.572500
C381	C38	0.669800	0.791800	0.712100
C391	C39	0.652700	0.774500	0.910900
C401	C40	0.648300	0.819100	0.027900
H101	H10	0.638400	0.807200	0.174000
Co111	Co11	0.285070	0.984530	0.200330
O311	O31	0.340670	0.036030	0.961330
O321	O32	0.364470	0.105830	0.732230
O331	O33	0.310470	0.059330	0.328630
C411	C41	0.350170	0.086330	0.905830
C421	C42	0.336470	0.125130	0.045430
C431	C43	0.319370	0.107830	0.244230
C441	C44	0.314970	0.152430	0.361230
H111	H11	0.305070	0.140530	0.507330
Co121	Co12	0.951730	0.317870	0.533670
O341	O34	0.007330	0.369370	0.294670
O351	O35	0.031130	0.439170	0.065570
O361	O36	0.977130	0.392670	0.661970
C451	C45	0.016830	0.419670	0.239170
C461	C46	0.003130	0.458470	0.378770
C471	C47	0.986030	0.441170	0.577570
C481	C48	0.981630	0.485770	0.694570
H121	H12	0.971730	0.473870	0.840670
Co131	Co13	0.348800	0.967200	0.867000
O371	O37	0.297300	0.971300	0.628000
O381	O38	0.227500	0.925300	0.398900
O391	O39	0.274000	0.917800	0.995300
C491	C49	0.247000	0.930500	0.572500
C501	C50	0.208200	0.878000	0.712100
C511	C51	0.225500	0.878200	0.910900
C521	C52	0.180900	0.829200	0.027900
H131	H13	0.192800	0.831200	0.174000
Co141	Co14	0.015470	0.300530	0.200330
O401	O40	0.963970	0.304630	0.961330
O411	O41	0.894170	0.258630	0.732230
O421	O42	0.940670	0.251130	0.328630
C531	C53	0.913670	0.263830	0.905830
C541	C54	0.874870	0.211330	0.045430
C551	C55	0.892170	0.211530	0.244230
C561	C56	0.847570	0.162530	0.361230
H141	H14	0.859470	0.164530	0.507330
Co151	Co15	0.682130	0.633870	0.533670
O431	O43	0.630630	0.637970	0.294670
O441	O44	0.560830	0.591970	0.065570
O451	O45	0.607330	0.584470	0.661970
C571	C57	0.580330	0.597170	0.239170
C581	C58	0.541530	0.544670	0.378770
C591	C59	0.558830	0.544870	0.577570
C601	C60	0.514230	0.495870	0.694570
H151	H15	0.526130	0.497870	0.840670
Co161	Co16	0.032800	0.381600	0.867000
O461	O46	0.028700	0.326000	0.628000
O471	O47	0.074700	0.302200	0.398900
O481	O48	0.082200	0.356200	0.995300
C611	C61	0.069500	0.316500	0.572500
C621	C62	0.122000	0.330200	0.712100
C631	C63	0.121800	0.347300	0.910900
C641	C64	0.170800	0.351700	0.027900
H161	H16	0.168800	0.361600	0.174000
Co171	Co17	0.699470	0.714930	0.200330
O491	O49	0.695370	0.659330	0.961330
O501	O50	0.741370	0.635530	0.732230
O511	O51	0.748870	0.689530	0.328630
C651	C65	0.736170	0.649830	0.905830
C661	C66	0.788670	0.663530	0.045430
C671	C67	0.788470	0.680630	0.244230
C681	C68	0.837470	0.685030	0.361230
H171	H17	0.835470	0.694930	0.507330
Co181	Co18	0.366130	0.048270	0.533670
O521	O52	0.362030	0.992670	0.294670
O531	O53	0.408030	0.968870	0.065570
O541	O54	0.415530	0.022870	0.661970
C691	C69	0.402830	0.983170	0.239170
C701	C70	0.455330	0.996870	0.378770
C711	C71	0.455130	0.013970	0.577570
C721	C72	0.504130	0.018370	0.694570
H181	H18	0.502130	0.028270	0.840670
