data_COKMUM_clean_PM
_symmetry_space_group_name_H-M	'P1'
_cell_length_a	26.326200
_cell_length_b	26.326200
_cell_length_c	7.044000
_cell_angle_alpha	90.000000
_cell_angle_beta	90.000000
_cell_angle_gamma	120.000000
_symmetry_Int_Tables_number 1

loop_
_symmetry_equiv_pos_as_xyz
'x,y,z'

loop_
_atom_site_label
_atom_site_type_symbol
_atom_site_fract_x
_atom_site_fract_y
_atom_site_fract_z
Mn11	Mn1	0.385600	0.360900	0.142000
O11	O1	0.329200	0.294500	0.361500
O21	O2	0.300700	0.227800	0.588900
O31	O3	0.357200	0.276800	0.010700
C11	C1	0.320200	0.245700	0.419300
C21	C2	0.328800	0.205300	0.287600
C31	C3	0.345300	0.223500	0.089800
C41	C4	0.352400	0.183200	0.979000
H11	H1	0.360900	0.191900	0.838800
Mn21	Mn2	0.052270	0.694230	0.475330
O41	O4	0.995870	0.627830	0.694830
O51	O5	0.967370	0.561130	0.922230
O61	O6	0.023870	0.610130	0.344030
C51	C5	0.986870	0.579030	0.752630
C61	C6	0.995470	0.538630	0.620930
C71	C7	0.011970	0.556830	0.423130
C81	C8	0.019070	0.516530	0.312330
H21	H2	0.027570	0.525230	0.172130
Mn31	Mn3	0.718930	0.027570	0.808670
O71	O7	0.662530	0.961170	0.028170
O81	O8	0.634030	0.894470	0.255570
O91	O9	0.690530	0.943470	0.677370
C91	C9	0.653530	0.912370	0.085970
C101	C10	0.662130	0.871970	0.954270
C111	C11	0.678630	0.890170	0.756470
C121	C12	0.685730	0.849870	0.645670
H31	H3	0.694230	0.858570	0.505470
Mn41	Mn4	0.639100	0.024700	0.142000
O101	O10	0.705500	0.034700	0.361500
O111	O11	0.772200	0.072900	0.588900
O121	O12	0.723200	0.080400	0.010700
C131	C13	0.754300	0.074500	0.419300
C141	C14	0.794700	0.123500	0.287600
C151	C15	0.776500	0.121800	0.089800
C161	C16	0.816800	0.169200	0.979000
H41	H4	0.808100	0.169000	0.838800
Mn51	Mn5	0.305770	0.358030	0.475330
O131	O13	0.372170	0.368030	0.694830
O141	O14	0.438870	0.406230	0.922230
O151	O15	0.389870	0.413730	0.344030
C171	C17	0.420970	0.407830	0.752630
C181	C18	0.461370	0.456830	0.620930
C191	C19	0.443170	0.455130	0.423130
C201	C20	0.483470	0.502530	0.312330
H51	H5	0.474770	0.502330	0.172130
Mn61	Mn6	0.972430	0.691370	0.808670
O161	O16	0.038830	0.701370	0.028170
O171	O17	0.105530	0.739570	0.255570
O181	O18	0.056530	0.747070	0.677370
C211	C21	0.087630	0.741170	0.085970
C221	C22	0.128030	0.790170	0.954270
C231	C23	0.109830	0.788470	0.756470
C241	C24	0.150130	0.835870	0.645670
H61	H6	0.141430	0.835670	0.505470
Mn71	Mn7	0.975300	0.614400	0.142000
O191	O19	0.965300	0.670800	0.361500
O201	O20	0.927100	0.699300	0.588900
O211	O21	0.919600	0.642800	0.010700
C251	C25	0.925500	0.679800	0.419300
C261	C26	0.876500	0.671200	0.287600
C271	C27	0.878200	0.654700	0.089800
C281	C28	0.830800	0.647600	0.979000
H71	H7	0.831000	0.639100	0.838800
Mn81	Mn8	0.641970	0.947730	0.475330
O221	O22	0.631970	0.004130	0.694830
O231	O23	0.593770	0.032630	0.922230
O241	O24	0.586270	0.976130	0.344030
C291	C29	0.592170	0.013130	0.752630
C301	C30	0.543170	0.004530	0.620930
C311	C31	0.544870	0.988030	0.423130
C321	C32	0.497470	0.980930	0.312330
H81	H8	0.497670	0.972430	0.172130
Mn91	Mn9	0.308630	0.281070	0.808670
O251	O25	0.298630	0.337470	0.028170
O261	O26	0.260430	0.365970	0.255570
O271	O27	0.252930	0.309470	0.677370
C331	C33	0.258830	0.346470	0.085970
C341	C34	0.209830	0.337870	0.954270
C351	C35	0.211530	0.321370	0.756470
C361	C36	0.164130	0.314270	0.645670
H91	H9	0.164330	0.305770	0.505470
Mn101	Mn10	0.614400	0.639100	0.858000
O281	O28	0.670800	0.705500	0.638500
O291	O29	0.699300	0.772200	0.411100
O301	O30	0.642800	0.723200	0.989300
C371	C37	0.679800	0.754300	0.580700
C381	C38	0.671200	0.794700	0.712400
C391	C39	0.654700	0.776500	0.910200
C401	C40	0.647600	0.816800	0.021000
H101	H10	0.639100	0.808100	0.161200
Mn111	Mn11	0.281070	0.972430	0.191330
O311	O31	0.337470	0.038830	0.971830
O321	O32	0.365970	0.105530	0.744430
O331	O33	0.309470	0.056530	0.322630
C411	C41	0.346470	0.087630	0.914030
C421	C42	0.337870	0.128030	0.045730
C431	C43	0.321370	0.109830	0.243530
C441	C44	0.314270	0.150130	0.354330
H111	H11	0.305770	0.141430	0.494530
Mn121	Mn12	0.947730	0.305770	0.524670
O341	O34	0.004130	0.372170	0.305170
O351	O35	0.032630	0.438870	0.077770
O361	O36	0.976130	0.389870	0.655970
C451	C45	0.013130	0.420970	0.247370
C461	C46	0.004530	0.461370	0.379070
C471	C47	0.988030	0.443170	0.576870
C481	C48	0.980930	0.483470	0.687670
H121	H12	0.972430	0.474770	0.827870
Mn131	Mn13	0.360900	0.975300	0.858000
O371	O37	0.294500	0.965300	0.638500
O381	O38	0.227800	0.927100	0.411100
O391	O39	0.276800	0.919600	0.989300
C491	C49	0.245700	0.925500	0.580700
C501	C50	0.205300	0.876500	0.712400
C511	C51	0.223500	0.878200	0.910200
C521	C52	0.183200	0.830800	0.021000
H131	H13	0.191900	0.831000	0.161200
Mn141	Mn14	0.027570	0.308630	0.191330
O401	O40	0.961170	0.298630	0.971830
O411	O41	0.894470	0.260430	0.744430
O421	O42	0.943470	0.252930	0.322630
C531	C53	0.912370	0.258830	0.914030
C541	C54	0.871970	0.209830	0.045730
C551	C55	0.890170	0.211530	0.243530
C561	C56	0.849870	0.164130	0.354330
H141	H14	0.858570	0.164330	0.494530
Mn151	Mn15	0.694230	0.641970	0.524670
O431	O43	0.627830	0.631970	0.305170
O441	O44	0.561130	0.593770	0.077770
O451	O45	0.610130	0.586270	0.655970
C571	C57	0.579030	0.592170	0.247370
C581	C58	0.538630	0.543170	0.379070
C591	C59	0.556830	0.544870	0.576870
C601	C60	0.516530	0.497470	0.687670
H151	H15	0.525230	0.497670	0.827870
Mn161	Mn16	0.024700	0.385600	0.858000
O461	O46	0.034700	0.329200	0.638500
O471	O47	0.072900	0.300700	0.411100
O481	O48	0.080400	0.357200	0.989300
C611	C61	0.074500	0.320200	0.580700
C621	C62	0.123500	0.328800	0.712400
C631	C63	0.121800	0.345300	0.910200
C641	C64	0.169200	0.352400	0.021000
H161	H16	0.169000	0.360900	0.161200
Mn171	Mn17	0.691370	0.718930	0.191330
O491	O49	0.701370	0.662530	0.971830
O501	O50	0.739570	0.634030	0.744430
O511	O51	0.747070	0.690530	0.322630
C651	C65	0.741170	0.653530	0.914030
C661	C66	0.790170	0.662130	0.045730
C671	C67	0.788470	0.678630	0.243530
C681	C68	0.835870	0.685730	0.354330
H171	H17	0.835670	0.694230	0.494530
Mn181	Mn18	0.358030	0.052270	0.524670
O521	O52	0.368030	0.995870	0.305170
O531	O53	0.406230	0.967370	0.077770
O541	O54	0.413730	0.023870	0.655970
C691	C69	0.407830	0.986870	0.247370
C701	C70	0.456830	0.995470	0.379070
C711	C71	0.455130	0.011970	0.576870
C721	C72	0.502530	0.019070	0.687670
H181	H18	0.502330	0.027570	0.827870
