data_COKPEZ_clean_PM
_symmetry_space_group_name_H-M	'P1'
_cell_length_a	25.872800
_cell_length_b	25.872800
_cell_length_c	6.870000
_cell_angle_alpha	90.000000
_cell_angle_beta	90.000000
_cell_angle_gamma	120.000000
_symmetry_Int_Tables_number 1

loop_
_symmetry_equiv_pos_as_xyz
'x,y,z'

loop_
_atom_site_label
_atom_site_type_symbol
_atom_site_fract_x
_atom_site_fract_y
_atom_site_fract_z
Mg11	Mg1	0.380400	0.351500	0.138200
O11	O1	0.325220	0.295560	0.362000
O21	O2	0.302840	0.228800	0.597600
O31	O3	0.353900	0.274400	0.002300
C11	C1	0.315820	0.246590	0.423900
C21	C2	0.328940	0.208680	0.285800
C31	C3	0.345930	0.223890	0.091900
C41	C4	0.352650	0.182510	0.972800
H11	H1	0.360600	0.190400	0.826300
Mg21	Mg2	0.047070	0.684830	0.471530
O41	O4	0.991890	0.628890	0.695330
O51	O5	0.969510	0.562130	0.930930
O61	O6	0.020570	0.607730	0.335630
C51	C5	0.982490	0.579920	0.757230
C61	C6	0.995610	0.542010	0.619130
C71	C7	0.012600	0.557220	0.425230
C81	C8	0.019320	0.515840	0.306130
H21	H2	0.027270	0.523730	0.159630
Mg31	Mg3	0.713730	0.018170	0.804870
O71	O7	0.658550	0.962230	0.028670
O81	O8	0.636170	0.895470	0.264270
O91	O9	0.687230	0.941070	0.668970
C91	C9	0.649150	0.913260	0.090570
C101	C10	0.662270	0.875350	0.952470
C111	C11	0.679260	0.890560	0.758570
C121	C12	0.685980	0.849180	0.639470
H31	H3	0.693930	0.857070	0.492970
Mg41	Mg4	0.648500	0.028900	0.138200
O101	O10	0.704440	0.029660	0.362000
O111	O11	0.771200	0.074040	0.597600
O121	O12	0.725600	0.079500	0.002300
C131	C13	0.753410	0.069230	0.423900
C141	C14	0.791320	0.120260	0.285800
C151	C15	0.776110	0.122040	0.091900
C161	C16	0.817490	0.170140	0.972800
H41	H4	0.809600	0.170200	0.826300
Mg51	Mg5	0.315170	0.362230	0.471530
O131	O13	0.371110	0.362990	0.695330
O141	O14	0.437870	0.407370	0.930930
O151	O15	0.392270	0.412830	0.335630
C171	C17	0.420080	0.402560	0.757230
C181	C18	0.457990	0.453590	0.619130
C191	C19	0.442780	0.455370	0.425230
C201	C20	0.484160	0.503470	0.306130
H51	H5	0.476270	0.503530	0.159630
Mg61	Mg6	0.981830	0.695570	0.804870
O161	O16	0.037770	0.696330	0.028670
O171	O17	0.104530	0.740710	0.264270
O181	O18	0.058930	0.746170	0.668970
C211	C21	0.086740	0.735900	0.090570
C221	C22	0.124650	0.786930	0.952470
C231	C23	0.109440	0.788710	0.758570
C241	C24	0.150820	0.836810	0.639470
H61	H6	0.142930	0.836870	0.492970
Mg71	Mg7	0.971100	0.619600	0.138200
O191	O19	0.970340	0.674780	0.362000
O201	O20	0.925960	0.697160	0.597600
O211	O21	0.920500	0.646100	0.002300
C251	C25	0.930770	0.684180	0.423900
C261	C26	0.879740	0.671060	0.285800
C271	C27	0.877960	0.654070	0.091900
C281	C28	0.829860	0.647350	0.972800
H71	H7	0.829800	0.639400	0.826300
Mg81	Mg8	0.637770	0.952930	0.471530
O221	O22	0.637010	0.008110	0.695330
O231	O23	0.592630	0.030490	0.930930
O241	O24	0.587170	0.979430	0.335630
C291	C29	0.597440	0.017510	0.757230
C301	C30	0.546410	0.004390	0.619130
C311	C31	0.544630	0.987400	0.425230
C321	C32	0.496530	0.980680	0.306130
H81	H8	0.496470	0.972730	0.159630
Mg91	Mg9	0.304430	0.286270	0.804870
O251	O25	0.303670	0.341450	0.028670
O261	O26	0.259290	0.363830	0.264270
O271	O27	0.253830	0.312770	0.668970
C331	C33	0.264100	0.350850	0.090570
C341	C34	0.213070	0.337730	0.952470
C351	C35	0.211290	0.320740	0.758570
C361	C36	0.163190	0.314020	0.639470
H91	H9	0.163130	0.306070	0.492970
Mg101	Mg10	0.619600	0.648500	0.861800
O281	O28	0.674780	0.704440	0.638000
O291	O29	0.697160	0.771200	0.402400
O301	O30	0.646100	0.725600	0.997700
C371	C37	0.684180	0.753410	0.576100
C381	C38	0.671060	0.791320	0.714200
C391	C39	0.654070	0.776110	0.908100
C401	C40	0.647350	0.817490	0.027200
H101	H10	0.639400	0.809600	0.173700
Mg111	Mg11	0.286270	0.981830	0.195130
O311	O31	0.341450	0.037770	0.971330
O321	O32	0.363830	0.104530	0.735730
O331	O33	0.312770	0.058930	0.331030
C411	C41	0.350850	0.086740	0.909430
C421	C42	0.337730	0.124650	0.047530
C431	C43	0.320740	0.109440	0.241430
C441	C44	0.314020	0.150820	0.360530
H111	H11	0.306070	0.142930	0.507030
Mg121	Mg12	0.952930	0.315170	0.528470
O341	O34	0.008110	0.371110	0.304670
O351	O35	0.030490	0.437870	0.069070
O361	O36	0.979430	0.392270	0.664370
C451	C45	0.017510	0.420080	0.242770
C461	C46	0.004390	0.457990	0.380870
C471	C47	0.987400	0.442780	0.574770
C481	C48	0.980680	0.484160	0.693870
H121	H12	0.972730	0.476270	0.840370
Mg131	Mg13	0.351500	0.971100	0.861800
O371	O37	0.295560	0.970340	0.638000
O381	O38	0.228800	0.925960	0.402400
O391	O39	0.274400	0.920500	0.997700
C491	C49	0.246590	0.930770	0.576100
C501	C50	0.208680	0.879740	0.714200
C511	C51	0.223890	0.877960	0.908100
C521	C52	0.182510	0.829860	0.027200
H131	H13	0.190400	0.829800	0.173700
Mg141	Mg14	0.018170	0.304430	0.195130
O401	O40	0.962230	0.303670	0.971330
O411	O41	0.895470	0.259290	0.735730
O421	O42	0.941070	0.253830	0.331030
C531	C53	0.913260	0.264100	0.909430
C541	C54	0.875350	0.213070	0.047530
C551	C55	0.890560	0.211290	0.241430
C561	C56	0.849180	0.163190	0.360530
H141	H14	0.857070	0.163130	0.507030
Mg151	Mg15	0.684830	0.637770	0.528470
O431	O43	0.628890	0.637010	0.304670
O441	O44	0.562130	0.592630	0.069070
O451	O45	0.607730	0.587170	0.664370
C571	C57	0.579920	0.597440	0.242770
C581	C58	0.542010	0.546410	0.380870
C591	C59	0.557220	0.544630	0.574770
C601	C60	0.515840	0.496530	0.693870
H151	H15	0.523730	0.496470	0.840370
Mg161	Mg16	0.028900	0.380400	0.861800
O461	O46	0.029660	0.325220	0.638000
O471	O47	0.074040	0.302840	0.402400
O481	O48	0.079500	0.353900	0.997700
C611	C61	0.069230	0.315820	0.576100
C621	C62	0.120260	0.328940	0.714200
C631	C63	0.122040	0.345930	0.908100
C641	C64	0.170140	0.352650	0.027200
H161	H16	0.170200	0.360600	0.173700
Mg171	Mg17	0.695570	0.713730	0.195130
O491	O49	0.696330	0.658550	0.971330
O501	O50	0.740710	0.636170	0.735730
O511	O51	0.746170	0.687230	0.331030
C651	C65	0.735900	0.649150	0.909430
C661	C66	0.786930	0.662270	0.047530
C671	C67	0.788710	0.679260	0.241430
C681	C68	0.836810	0.685980	0.360530
H171	H17	0.836870	0.693930	0.507030
Mg181	Mg18	0.362230	0.047070	0.528470
O521	O52	0.362990	0.991890	0.304670
O531	O53	0.407370	0.969510	0.069070
O541	O54	0.412830	0.020570	0.664370
C691	C69	0.402560	0.982490	0.242770
C701	C70	0.453590	0.995610	0.380870
C711	C71	0.455370	0.012600	0.574770
C721	C72	0.503470	0.019320	0.693870
H181	H18	0.503530	0.027270	0.840370
