data_COKPOJ_clean_PM
_symmetry_space_group_name_H-M	'P1'
_cell_length_a	25.873500
_cell_length_b	25.873500
_cell_length_c	6.848600
_cell_angle_alpha	90.000000
_cell_angle_beta	90.000000
_cell_angle_gamma	120.000000
_symmetry_Int_Tables_number 1

loop_
_symmetry_equiv_pos_as_xyz
'x,y,z'

loop_
_atom_site_label
_atom_site_type_symbol
_atom_site_fract_x
_atom_site_fract_y
_atom_site_fract_z
Co11	Co1	0.378600	0.349000	0.151000
O11	O1	0.328700	0.295900	0.363700
O21	O2	0.302600	0.229100	0.598700
O31	O3	0.357700	0.275800	0.002200
C11	C1	0.319100	0.247600	0.428600
C21	C2	0.328200	0.206900	0.289800
C31	C3	0.346500	0.223900	0.090800
C41	C4	0.350600	0.181600	0.975600
H11	H1	0.357700	0.191300	0.832000
Co21	Co2	0.045270	0.682330	0.484330
O41	O4	0.995370	0.629230	0.697030
O51	O5	0.969270	0.562430	0.932030
O61	O6	0.024370	0.609130	0.335530
C51	C5	0.985770	0.580930	0.761930
C61	C6	0.994870	0.540230	0.623130
C71	C7	0.013170	0.557230	0.424130
C81	C8	0.017270	0.514930	0.308930
H21	H2	0.024370	0.524630	0.165330
Co31	Co3	0.711930	0.015670	0.817670
O71	O7	0.662030	0.962570	0.030370
O81	O8	0.635930	0.895770	0.265370
O91	O9	0.691030	0.942470	0.668870
C91	C9	0.652430	0.914270	0.095270
C101	C10	0.661530	0.873570	0.956470
C111	C11	0.679830	0.890570	0.757470
C121	C12	0.683930	0.848270	0.642270
H31	H3	0.691030	0.857970	0.498670
Co41	Co4	0.651000	0.029600	0.151000
O101	O10	0.704100	0.032800	0.363700
O111	O11	0.770900	0.073500	0.598700
O121	O12	0.724200	0.081900	0.002200
C131	C13	0.752400	0.071500	0.428600
C141	C14	0.793100	0.121300	0.289800
C151	C15	0.776100	0.122600	0.090800
C161	C16	0.818400	0.169000	0.975600
H41	H4	0.808700	0.166400	0.832000
Co51	Co5	0.317670	0.362930	0.484330
O131	O13	0.370770	0.366130	0.697030
O141	O14	0.437570	0.406830	0.932030
O151	O15	0.390870	0.415230	0.335530
C171	C17	0.419070	0.404830	0.761930
C181	C18	0.459770	0.454630	0.623130
C191	C19	0.442770	0.455930	0.424130
C201	C20	0.485070	0.502330	0.308930
H51	H5	0.475370	0.499730	0.165330
Co61	Co6	0.984330	0.696270	0.817670
O161	O16	0.037430	0.699470	0.030370
O171	O17	0.104230	0.740170	0.265370
O181	O18	0.057530	0.748570	0.668870
C211	C21	0.085730	0.738170	0.095270
C221	C22	0.126430	0.787970	0.956470
C231	C23	0.109430	0.789270	0.757470
C241	C24	0.151730	0.835670	0.642270
H61	H6	0.142030	0.833070	0.498670
Co71	Co7	0.970400	0.621400	0.151000
O191	O19	0.967200	0.671300	0.363700
O201	O20	0.926500	0.697400	0.598700
O211	O21	0.918100	0.642300	0.002200
C251	C25	0.928500	0.680900	0.428600
C261	C26	0.878700	0.671800	0.289800
C271	C27	0.877400	0.653500	0.090800
C281	C28	0.831000	0.649400	0.975600
H71	H7	0.833600	0.642300	0.832000
Co81	Co8	0.637070	0.954730	0.484330
O221	O22	0.633870	0.004630	0.697030
O231	O23	0.593170	0.030730	0.932030
O241	O24	0.584770	0.975630	0.335530
C291	C29	0.595170	0.014230	0.761930
C301	C30	0.545370	0.005130	0.623130
C311	C31	0.544070	0.986830	0.424130
C321	C32	0.497670	0.982730	0.308930
H81	H8	0.500270	0.975630	0.165330
Co91	Co9	0.303730	0.288070	0.817670
O251	O25	0.300530	0.337970	0.030370
O261	O26	0.259830	0.364070	0.265370
O271	O27	0.251430	0.308970	0.668870
C331	C33	0.261830	0.347570	0.095270
C341	C34	0.212030	0.338470	0.956470
C351	C35	0.210730	0.320170	0.757470
C361	C36	0.164330	0.316070	0.642270
H91	H9	0.166930	0.308970	0.498670
Co101	Co10	0.621400	0.651000	0.849000
O281	O28	0.671300	0.704100	0.636300
O291	O29	0.697400	0.770900	0.401300
O301	O30	0.642300	0.724200	0.997800
C371	C37	0.680900	0.752400	0.571400
C381	C38	0.671800	0.793100	0.710200
C391	C39	0.653500	0.776100	0.909200
C401	C40	0.649400	0.818400	0.024400
H101	H10	0.642300	0.808700	0.168000
Co111	Co11	0.288070	0.984330	0.182330
O311	O31	0.337970	0.037430	0.969630
O321	O32	0.364070	0.104230	0.734630
O331	O33	0.308970	0.057530	0.331130
C411	C41	0.347570	0.085730	0.904730
C421	C42	0.338470	0.126430	0.043530
C431	C43	0.320170	0.109430	0.242530
C441	C44	0.316070	0.151730	0.357730
H111	H11	0.308970	0.142030	0.501330
Co121	Co12	0.954730	0.317670	0.515670
O341	O34	0.004630	0.370770	0.302970
O351	O35	0.030730	0.437570	0.067970
O361	O36	0.975630	0.390870	0.664470
C451	C45	0.014230	0.419070	0.238070
C461	C46	0.005130	0.459770	0.376870
C471	C47	0.986830	0.442770	0.575870
C481	C48	0.982730	0.485070	0.691070
H121	H12	0.975630	0.475370	0.834670
Co131	Co13	0.349000	0.970400	0.849000
O371	O37	0.295900	0.967200	0.636300
O381	O38	0.229100	0.926500	0.401300
O391	O39	0.275800	0.918100	0.997800
C491	C49	0.247600	0.928500	0.571400
C501	C50	0.206900	0.878700	0.710200
C511	C51	0.223900	0.877400	0.909200
C521	C52	0.181600	0.831000	0.024400
H131	H13	0.191300	0.833600	0.168000
Co141	Co14	0.015670	0.303730	0.182330
O401	O40	0.962570	0.300530	0.969630
O411	O41	0.895770	0.259830	0.734630
O421	O42	0.942470	0.251430	0.331130
C531	C53	0.914270	0.261830	0.904730
C541	C54	0.873570	0.212030	0.043530
C551	C55	0.890570	0.210730	0.242530
C561	C56	0.848270	0.164330	0.357730
H141	H14	0.857970	0.166930	0.501330
Co151	Co15	0.682330	0.637070	0.515670
O431	O43	0.629230	0.633870	0.302970
O441	O44	0.562430	0.593170	0.067970
O451	O45	0.609130	0.584770	0.664470
C571	C57	0.580930	0.595170	0.238070
C581	C58	0.540230	0.545370	0.376870
C591	C59	0.557230	0.544070	0.575870
C601	C60	0.514930	0.497670	0.691070
H151	H15	0.524630	0.500270	0.834670
Co161	Co16	0.029600	0.378600	0.849000
O461	O46	0.032800	0.328700	0.636300
O471	O47	0.073500	0.302600	0.401300
O481	O48	0.081900	0.357700	0.997800
C611	C61	0.071500	0.319100	0.571400
C621	C62	0.121300	0.328200	0.710200
C631	C63	0.122600	0.346500	0.909200
C641	C64	0.169000	0.350600	0.024400
H161	H16	0.166400	0.357700	0.168000
Co171	Co17	0.696270	0.711930	0.182330
O491	O49	0.699470	0.662030	0.969630
O501	O50	0.740170	0.635930	0.734630
O511	O51	0.748570	0.691030	0.331130
C651	C65	0.738170	0.652430	0.904730
C661	C66	0.787970	0.661530	0.043530
C671	C67	0.789270	0.679830	0.242530
C681	C68	0.835670	0.683930	0.357730
H171	H17	0.833070	0.691030	0.501330
Co181	Co18	0.362930	0.045270	0.515670
O521	O52	0.366130	0.995370	0.302970
O531	O53	0.406830	0.969270	0.067970
O541	O54	0.415230	0.024370	0.664470
C691	C69	0.404830	0.985770	0.238070
C701	C70	0.454630	0.994870	0.376870
C711	C71	0.455930	0.013170	0.575870
C721	C72	0.502330	0.017270	0.691070
H181	H18	0.499730	0.024370	0.834670
