data_COKPID_clean_PM
_symmetry_space_group_name_H-M	'P1'
_cell_length_a	26.001000
_cell_length_b	26.001000
_cell_length_c	6.860700
_cell_angle_alpha	90.000000
_cell_angle_beta	90.000000
_cell_angle_gamma	120.000000
_symmetry_Int_Tables_number 1

loop_
_symmetry_equiv_pos_as_xyz
'x,y,z'

loop_
_atom_site_label
_atom_site_type_symbol
_atom_site_fract_x
_atom_site_fract_y
_atom_site_fract_z
Fe11	Fe1	0.385560	0.352940	0.142700
O11	O1	0.325530	0.293200	0.352100
O21	O2	0.303310	0.226150	0.600000
O31	O3	0.353400	0.270770	0.007800
C11	C1	0.316070	0.244720	0.422800
C21	C2	0.325410	0.203600	0.290900
C31	C3	0.342900	0.220860	0.096100
C41	C4	0.351420	0.182840	0.975200
H11	H1	0.360600	0.195400	0.828700
Fe21	Fe2	0.052230	0.686270	0.476030
O41	O4	0.992200	0.626530	0.685430
O51	O5	0.969980	0.559480	0.933330
O61	O6	0.020070	0.604100	0.341130
C51	C5	0.982740	0.578050	0.756130
C61	C6	0.992080	0.536930	0.624230
C71	C7	0.009570	0.554190	0.429430
C81	C8	0.018090	0.516170	0.308530
H21	H2	0.027270	0.528730	0.162030
Fe31	Fe3	0.718890	0.019610	0.809370
O71	O7	0.658860	0.959870	0.018770
O81	O8	0.636640	0.892820	0.266670
O91	O9	0.686730	0.937440	0.674470
C91	C9	0.649400	0.911390	0.089470
C101	C10	0.658740	0.870270	0.957570
C111	C11	0.676230	0.887530	0.762770
C121	C12	0.684750	0.849510	0.641870
H31	H3	0.693930	0.862070	0.495370
Fe41	Fe4	0.647060	0.032620	0.142700
O101	O10	0.706800	0.032330	0.352100
O111	O11	0.773850	0.077160	0.600000
O121	O12	0.729230	0.082630	0.007800
C131	C13	0.755280	0.071350	0.422800
C141	C14	0.796400	0.121810	0.290900
C151	C15	0.779140	0.122040	0.096100
C161	C16	0.817160	0.168580	0.975200
H41	H4	0.804600	0.165200	0.828700
Fe51	Fe5	0.313730	0.365950	0.476030
O131	O13	0.373470	0.365660	0.685430
O141	O14	0.440520	0.410490	0.933330
O151	O15	0.395900	0.415960	0.341130
C171	C17	0.421950	0.404680	0.756130
C181	C18	0.463070	0.455140	0.624230
C191	C19	0.445810	0.455370	0.429430
C201	C20	0.483830	0.501910	0.308530
H51	H5	0.471270	0.498530	0.162030
Fe61	Fe6	0.980390	0.699290	0.809370
O161	O16	0.040130	0.699000	0.018770
O171	O17	0.107180	0.743830	0.266670
O181	O18	0.062560	0.749300	0.674470
C211	C21	0.088610	0.738020	0.089470
C221	C22	0.129730	0.788480	0.957570
C231	C23	0.112470	0.788710	0.762770
C241	C24	0.150490	0.835250	0.641870
H61	H6	0.137930	0.831870	0.495370
Fe71	Fe7	0.967380	0.614440	0.142700
O191	O19	0.967670	0.674470	0.352100
O201	O20	0.922840	0.696690	0.600000
O211	O21	0.917370	0.646600	0.007800
C251	C25	0.928650	0.683930	0.422800
C261	C26	0.878190	0.674590	0.290900
C271	C27	0.877960	0.657100	0.096100
C281	C28	0.831420	0.648580	0.975200
H71	H7	0.834800	0.639400	0.828700
Fe81	Fe8	0.634050	0.947770	0.476030
O221	O22	0.634340	0.007800	0.685430
O231	O23	0.589510	0.030020	0.933330
O241	O24	0.584040	0.979930	0.341130
C291	C29	0.595320	0.017260	0.756130
C301	C30	0.544860	0.007920	0.624230
C311	C31	0.544630	0.990430	0.429430
C321	C32	0.498090	0.981910	0.308530
H81	H8	0.501470	0.972730	0.162030
Fe91	Fe9	0.300710	0.281110	0.809370
O251	O25	0.301000	0.341140	0.018770
O261	O26	0.256170	0.363360	0.266670
O271	O27	0.250700	0.313270	0.674470
C331	C33	0.261980	0.350600	0.089470
C341	C34	0.211520	0.341260	0.957570
C351	C35	0.211290	0.323770	0.762770
C361	C36	0.164750	0.315250	0.641870
H91	H9	0.168130	0.306070	0.495370
Fe101	Fe10	0.614440	0.647060	0.857300
O281	O28	0.674470	0.706800	0.647900
O291	O29	0.696690	0.773850	0.400000
O301	O30	0.646600	0.729230	0.992200
C371	C37	0.683930	0.755280	0.577200
C381	C38	0.674590	0.796400	0.709100
C391	C39	0.657100	0.779140	0.903900
C401	C40	0.648580	0.817160	0.024800
H101	H10	0.639400	0.804600	0.171300
Fe111	Fe11	0.281110	0.980390	0.190630
O311	O31	0.341140	0.040130	0.981230
O321	O32	0.363360	0.107180	0.733330
O331	O33	0.313270	0.062560	0.325530
C411	C41	0.350600	0.088610	0.910530
C421	C42	0.341260	0.129730	0.042430
C431	C43	0.323770	0.112470	0.237230
C441	C44	0.315250	0.150490	0.358130
H111	H11	0.306070	0.137930	0.504630
Fe121	Fe12	0.947770	0.313730	0.523970
O341	O34	0.007800	0.373470	0.314570
O351	O35	0.030020	0.440520	0.066670
O361	O36	0.979930	0.395900	0.658870
C451	C45	0.017260	0.421950	0.243870
C461	C46	0.007920	0.463070	0.375770
C471	C47	0.990430	0.445810	0.570570
C481	C48	0.981910	0.483830	0.691470
H121	H12	0.972730	0.471270	0.837970
Fe131	Fe13	0.352940	0.967380	0.857300
O371	O37	0.293200	0.967670	0.647900
O381	O38	0.226150	0.922840	0.400000
O391	O39	0.270770	0.917370	0.992200
C491	C49	0.244720	0.928650	0.577200
C501	C50	0.203600	0.878190	0.709100
C511	C51	0.220860	0.877960	0.903900
C521	C52	0.182840	0.831420	0.024800
H131	H13	0.195400	0.834800	0.171300
Fe141	Fe14	0.019610	0.300710	0.190630
O401	O40	0.959870	0.301000	0.981230
O411	O41	0.892820	0.256170	0.733330
O421	O42	0.937440	0.250700	0.325530
C531	C53	0.911390	0.261980	0.910530
C541	C54	0.870270	0.211520	0.042430
C551	C55	0.887530	0.211290	0.237230
C561	C56	0.849510	0.164750	0.358130
H141	H14	0.862070	0.168130	0.504630
Fe151	Fe15	0.686270	0.634050	0.523970
O431	O43	0.626530	0.634340	0.314570
O441	O44	0.559480	0.589510	0.066670
O451	O45	0.604100	0.584040	0.658870
C571	C57	0.578050	0.595320	0.243870
C581	C58	0.536930	0.544860	0.375770
C591	C59	0.554190	0.544630	0.570570
C601	C60	0.516170	0.498090	0.691470
H151	H15	0.528730	0.501470	0.837970
Fe161	Fe16	0.032620	0.385560	0.857300
O461	O46	0.032330	0.325530	0.647900
O471	O47	0.077160	0.303310	0.400000
O481	O48	0.082630	0.353400	0.992200
C611	C61	0.071350	0.316070	0.577200
C621	C62	0.121810	0.325410	0.709100
C631	C63	0.122040	0.342900	0.903900
C641	C64	0.168580	0.351420	0.024800
H161	H16	0.165200	0.360600	0.171300
Fe171	Fe17	0.699290	0.718890	0.190630
O491	O49	0.699000	0.658860	0.981230
O501	O50	0.743830	0.636640	0.733330
O511	O51	0.749300	0.686730	0.325530
C651	C65	0.738020	0.649400	0.910530
C661	C66	0.788480	0.658740	0.042430
C671	C67	0.788710	0.676230	0.237230
C681	C68	0.835250	0.684750	0.358130
H171	H17	0.831870	0.693930	0.504630
Fe181	Fe18	0.365950	0.052230	0.523970
O521	O52	0.365660	0.992200	0.314570
O531	O53	0.410490	0.969980	0.066670
O541	O54	0.415960	0.020070	0.658870
C691	C69	0.404680	0.982740	0.243870
C701	C70	0.455140	0.992080	0.375770
C711	C71	0.455370	0.009570	0.570570
C721	C72	0.501910	0.018090	0.691470
H181	H18	0.498530	0.027270	0.837970
