data_COKQOK_clean_PM
_symmetry_space_group_name_H-M	'P1'
_cell_length_a	25.887000
_cell_length_b	25.887000
_cell_length_c	6.821000
_cell_angle_alpha	90.000000
_cell_angle_beta	90.000000
_cell_angle_gamma	120.000000
_symmetry_Int_Tables_number 1

loop_
_symmetry_equiv_pos_as_xyz
'x,y,z'

loop_
_atom_site_label
_atom_site_type_symbol
_atom_site_fract_x
_atom_site_fract_y
_atom_site_fract_z
Zn11	Zn1	0.383600	0.352400	0.135500
O11	O1	0.327100	0.294400	0.361800
O21	O2	0.303300	0.228300	0.607700
O31	O3	0.354200	0.273800	0.002600
C11	C1	0.316000	0.244700	0.429500
C21	C2	0.325900	0.206400	0.283300
C31	C3	0.341200	0.220200	0.093900
C41	C4	0.349300	0.180700	0.972300
H11	H1	0.363700	0.194000	0.847000
Zn21	Zn2	0.050270	0.685730	0.468830
O41	O4	0.993770	0.627730	0.695130
O51	O5	0.969970	0.561630	0.941030
O61	O6	0.020870	0.607130	0.335930
C51	C5	0.982670	0.578030	0.762830
C61	C6	0.992570	0.539730	0.616630
C71	C7	0.007870	0.553530	0.427230
C81	C8	0.015970	0.514030	0.305630
H21	H2	0.030370	0.527330	0.180330
Zn31	Zn3	0.716930	0.019070	0.802170
O71	O7	0.660430	0.961070	0.028470
O81	O8	0.636630	0.894970	0.274370
O91	O9	0.687530	0.940470	0.669270
C91	C9	0.649330	0.911370	0.096170
C101	C10	0.659230	0.873070	0.949970
C111	C11	0.674530	0.886870	0.760570
C121	C12	0.682630	0.847370	0.638970
H31	H3	0.697030	0.860670	0.513670
Zn41	Zn4	0.647600	0.031200	0.135500
O101	O10	0.705600	0.032700	0.361800
O111	O11	0.771700	0.075000	0.607700
O121	O12	0.726200	0.080400	0.002600
C131	C13	0.755300	0.071300	0.429500
C141	C14	0.793600	0.119500	0.283300
C151	C15	0.779800	0.121000	0.093900
C161	C16	0.819300	0.168600	0.972300
H41	H4	0.806000	0.169700	0.847000
Zn51	Zn5	0.314270	0.364530	0.468830
O131	O13	0.372270	0.366030	0.695130
O141	O14	0.438370	0.408330	0.941030
O151	O15	0.392870	0.413730	0.335930
C171	C17	0.421970	0.404630	0.762830
C181	C18	0.460270	0.452830	0.616630
C191	C19	0.446470	0.454330	0.427230
C201	C20	0.485970	0.501930	0.305630
H51	H5	0.472670	0.503030	0.180330
Zn61	Zn6	0.980930	0.697870	0.802170
O161	O16	0.038930	0.699370	0.028470
O171	O17	0.105030	0.741670	0.274370
O181	O18	0.059530	0.747070	0.669270
C211	C21	0.088630	0.737970	0.096170
C221	C22	0.126930	0.786170	0.949970
C231	C23	0.113130	0.787670	0.760570
C241	C24	0.152630	0.835270	0.638970
H61	H6	0.139330	0.836370	0.513670
Zn71	Zn7	0.968800	0.616400	0.135500
O191	O19	0.967300	0.672900	0.361800
O201	O20	0.925000	0.696700	0.607700
O211	O21	0.919600	0.645800	0.002600
C251	C25	0.928700	0.684000	0.429500
C261	C26	0.880500	0.674100	0.283300
C271	C27	0.879000	0.658800	0.093900
C281	C28	0.831400	0.650700	0.972300
H71	H7	0.830300	0.636300	0.847000
Zn81	Zn8	0.635470	0.949730	0.468830
O221	O22	0.633970	0.006230	0.695130
O231	O23	0.591670	0.030030	0.941030
O241	O24	0.586270	0.979130	0.335930
C291	C29	0.595370	0.017330	0.762830
C301	C30	0.547170	0.007430	0.616630
C311	C31	0.545670	0.992130	0.427230
C321	C32	0.498070	0.984030	0.305630
H81	H8	0.496970	0.969630	0.180330
Zn91	Zn9	0.302130	0.283070	0.802170
O251	O25	0.300630	0.339570	0.028470
O261	O26	0.258330	0.363370	0.274370
O271	O27	0.252930	0.312470	0.669270
C331	C33	0.262030	0.350670	0.096170
C341	C34	0.213830	0.340770	0.949970
C351	C35	0.212330	0.325470	0.760570
C361	C36	0.164730	0.317370	0.638970
H91	H9	0.163630	0.302970	0.513670
Zn101	Zn10	0.616400	0.647600	0.864500
O281	O28	0.672900	0.705600	0.638200
O291	O29	0.696700	0.771700	0.392300
O301	O30	0.645800	0.726200	0.997400
C371	C37	0.684000	0.755300	0.570500
C381	C38	0.674100	0.793600	0.716700
C391	C39	0.658800	0.779800	0.906100
C401	C40	0.650700	0.819300	0.027700
H101	H10	0.636300	0.806000	0.153000
Zn111	Zn11	0.283070	0.980930	0.197830
O311	O31	0.339570	0.038930	0.971530
O321	O32	0.363370	0.105030	0.725630
O331	O33	0.312470	0.059530	0.330730
C411	C41	0.350670	0.088630	0.903830
C421	C42	0.340770	0.126930	0.050030
C431	C43	0.325470	0.113130	0.239430
C441	C44	0.317370	0.152630	0.361030
H111	H11	0.302970	0.139330	0.486330
Zn121	Zn12	0.949730	0.314270	0.531170
O341	O34	0.006230	0.372270	0.304870
O351	O35	0.030030	0.438370	0.058970
O361	O36	0.979130	0.392870	0.664070
C451	C45	0.017330	0.421970	0.237170
C461	C46	0.007430	0.460270	0.383370
C471	C47	0.992130	0.446470	0.572770
C481	C48	0.984030	0.485970	0.694370
H121	H12	0.969630	0.472670	0.819670
Zn131	Zn13	0.352400	0.968800	0.864500
O371	O37	0.294400	0.967300	0.638200
O381	O38	0.228300	0.925000	0.392300
O391	O39	0.273800	0.919600	0.997400
C491	C49	0.244700	0.928700	0.570500
C501	C50	0.206400	0.880500	0.716700
C511	C51	0.220200	0.879000	0.906100
C521	C52	0.180700	0.831400	0.027700
H131	H13	0.194000	0.830300	0.153000
Zn141	Zn14	0.019070	0.302130	0.197830
O401	O40	0.961070	0.300630	0.971530
O411	O41	0.894970	0.258330	0.725630
O421	O42	0.940470	0.252930	0.330730
C531	C53	0.911370	0.262030	0.903830
C541	C54	0.873070	0.213830	0.050030
C551	C55	0.886870	0.212330	0.239430
C561	C56	0.847370	0.164730	0.361030
H141	H14	0.860670	0.163630	0.486330
Zn151	Zn15	0.685730	0.635470	0.531170
O431	O43	0.627730	0.633970	0.304870
O441	O44	0.561630	0.591670	0.058970
O451	O45	0.607130	0.586270	0.664070
C571	C57	0.578030	0.595370	0.237170
C581	C58	0.539730	0.547170	0.383370
C591	C59	0.553530	0.545670	0.572770
C601	C60	0.514030	0.498070	0.694370
H151	H15	0.527330	0.496970	0.819670
Zn161	Zn16	0.031200	0.383600	0.864500
O461	O46	0.032700	0.327100	0.638200
O471	O47	0.075000	0.303300	0.392300
O481	O48	0.080400	0.354200	0.997400
C611	C61	0.071300	0.316000	0.570500
C621	C62	0.119500	0.325900	0.716700
C631	C63	0.121000	0.341200	0.906100
C641	C64	0.168600	0.349300	0.027700
H161	H16	0.169700	0.363700	0.153000
Zn171	Zn17	0.697870	0.716930	0.197830
O491	O49	0.699370	0.660430	0.971530
O501	O50	0.741670	0.636630	0.725630
O511	O51	0.747070	0.687530	0.330730
C651	C65	0.737970	0.649330	0.903830
C661	C66	0.786170	0.659230	0.050030
C671	C67	0.787670	0.674530	0.239430
C681	C68	0.835270	0.682630	0.361030
H171	H17	0.836370	0.697030	0.486330
Zn181	Zn18	0.364530	0.050270	0.531170
O521	O52	0.366030	0.993770	0.304870
O531	O53	0.408330	0.969970	0.058970
O541	O54	0.413730	0.020870	0.664070
C691	C69	0.404630	0.982670	0.237170
C701	C70	0.452830	0.992570	0.383370
C711	C71	0.454330	0.007870	0.572770
C721	C72	0.501930	0.015970	0.694370
H181	H18	0.503030	0.030370	0.819670
