data_COKQEA_clean_PM
_symmetry_space_group_name_H-M	'P1'
_cell_length_a	25.994000
_cell_length_b	25.994000
_cell_length_c	6.812700
_cell_angle_alpha	90.000000
_cell_angle_beta	90.000000
_cell_angle_gamma	120.000000
_symmetry_Int_Tables_number 1

loop_
_symmetry_equiv_pos_as_xyz
'x,y,z'

loop_
_atom_site_label
_atom_site_type_symbol
_atom_site_fract_x
_atom_site_fract_y
_atom_site_fract_z
Co11	Co1	0.949470	0.634670	0.018660
O11	O1	0.895300	0.633500	0.235000
O21	O2	0.940700	0.690200	0.830900
O31	O3	0.007300	0.636700	0.803000
C11	C1	0.989000	0.544500	0.076000
C21	C2	0.015700	0.595400	0.741200
C31	C3	0.983500	0.497800	0.191600
C41	C4	0.005700	0.546500	0.880600
H11	H1	0.972000	0.495900	0.325000
Co21	Co2	0.616140	0.968000	0.351990
O41	O4	0.561970	0.966830	0.568330
O51	O5	0.607370	0.023530	0.164230
O61	O6	0.673970	0.970030	0.136330
C51	C5	0.655670	0.877830	0.409330
C61	C6	0.682370	0.928730	0.074530
C71	C7	0.650170	0.831130	0.524930
C81	C8	0.672370	0.879830	0.213930
H21	H2	0.638670	0.829230	0.658330
Co31	Co3	0.282800	0.301340	0.685330
O71	O7	0.228630	0.300170	0.901670
O81	O8	0.274030	0.356870	0.497570
O91	O9	0.340630	0.303370	0.469670
C91	C9	0.322330	0.211170	0.742670
C101	C10	0.349030	0.262070	0.407870
C111	C11	0.316830	0.164470	0.858270
C121	C12	0.339030	0.213170	0.547270
H31	H3	0.305330	0.162570	0.991670
Co41	Co4	0.365330	0.314800	0.018660
O101	O10	0.366500	0.261800	0.235000
O111	O11	0.309800	0.250500	0.830900
O121	O12	0.363300	0.370600	0.803000
C131	C13	0.455500	0.444500	0.076000
C141	C14	0.404600	0.420300	0.741200
C151	C15	0.502200	0.485700	0.191600
C161	C16	0.453500	0.459200	0.880600
H41	H4	0.504100	0.476100	0.325000
Co51	Co5	0.032000	0.648130	0.351990
O131	O13	0.033170	0.595130	0.568330
O141	O14	0.976470	0.583830	0.164230
O151	O15	0.029970	0.703930	0.136330
C171	C17	0.122170	0.777830	0.409330
C181	C18	0.071270	0.753630	0.074530
C191	C19	0.168870	0.819030	0.524930
C201	C20	0.120170	0.792530	0.213930
H51	H5	0.170770	0.809430	0.658330
Co61	Co6	0.698660	0.981470	0.685330
O161	O16	0.699830	0.928470	0.901670
O171	O17	0.643130	0.917170	0.497570
O181	O18	0.696630	0.037270	0.469670
C211	C21	0.788830	0.111170	0.742670
C221	C22	0.737930	0.086970	0.407870
C231	C23	0.835530	0.152370	0.858270
C241	C24	0.786830	0.125870	0.547270
H61	H6	0.837430	0.142770	0.991670
Co71	Co7	0.685200	0.050530	0.018660
O191	O19	0.738200	0.104700	0.235000
O201	O20	0.749500	0.059300	0.830900
O211	O21	0.629400	0.992700	0.803000
C251	C25	0.555500	0.011000	0.076000
C261	C26	0.579700	0.984300	0.741200
C271	C27	0.514300	0.016500	0.191600
C281	C28	0.540800	0.994300	0.880600
H71	H7	0.523900	0.028000	0.325000
Co81	Co8	0.351870	0.383860	0.351990
O221	O22	0.404870	0.438030	0.568330
O231	O23	0.416170	0.392630	0.164230
O241	O24	0.296070	0.326030	0.136330
C291	C29	0.222170	0.344330	0.409330
C301	C30	0.246370	0.317630	0.074530
C311	C31	0.180970	0.349830	0.524930
C321	C32	0.207470	0.327630	0.213930
H81	H8	0.190570	0.361330	0.658330
Co91	Co9	0.018530	0.717200	0.685330
O251	O25	0.071530	0.771370	0.901670
O261	O26	0.082830	0.725970	0.497570
O271	O27	0.962730	0.659370	0.469670
C331	C33	0.888830	0.677670	0.742670
C341	C34	0.913030	0.650970	0.407870
C351	C35	0.847630	0.683170	0.858270
C361	C36	0.874130	0.660970	0.547270
H91	H9	0.857230	0.694670	0.991670
Co101	Co10	0.050530	0.365330	0.981340
O281	O28	0.104700	0.366500	0.765000
O291	O29	0.059300	0.309800	0.169100
O301	O30	0.992700	0.363300	0.197000
C371	C37	0.011000	0.455500	0.924000
C381	C38	0.984300	0.404600	0.258800
C391	C39	0.016500	0.502200	0.808400
C401	C40	0.994300	0.453500	0.119400
H101	H10	0.028000	0.504100	0.675000
Co111	Co11	0.717200	0.698660	0.314670
O311	O31	0.771370	0.699830	0.098330
O321	O32	0.725970	0.643130	0.502430
O331	O33	0.659370	0.696630	0.530330
C411	C41	0.677670	0.788830	0.257330
C421	C42	0.650970	0.737930	0.592130
C431	C43	0.683170	0.835530	0.141730
C441	C44	0.660970	0.786830	0.452730
H111	H11	0.694670	0.837430	0.008330
Co121	Co12	0.383860	0.032000	0.648010
O341	O34	0.438030	0.033170	0.431670
O351	O35	0.392630	0.976470	0.835770
O361	O36	0.326030	0.029970	0.863670
C451	C45	0.344330	0.122170	0.590670
C461	C46	0.317630	0.071270	0.925470
C471	C47	0.349830	0.168870	0.475070
C481	C48	0.327630	0.120170	0.786070
H121	H12	0.361330	0.170770	0.341670
Co131	Co13	0.634670	0.685200	0.981340
O371	O37	0.633500	0.738200	0.765000
O381	O38	0.690200	0.749500	0.169100
O391	O39	0.636700	0.629400	0.197000
C491	C49	0.544500	0.555500	0.924000
C501	C50	0.595400	0.579700	0.258800
C511	C51	0.497800	0.514300	0.808400
C521	C52	0.546500	0.540800	0.119400
H131	H13	0.495900	0.523900	0.675000
Co141	Co14	0.301340	0.018530	0.314670
O401	O40	0.300170	0.071530	0.098330
O411	O41	0.356870	0.082830	0.502430
O421	O42	0.303370	0.962730	0.530330
C531	C53	0.211170	0.888830	0.257330
C541	C54	0.262070	0.913030	0.592130
C551	C55	0.164470	0.847630	0.141730
C561	C56	0.213170	0.874130	0.452730
H141	H14	0.162570	0.857230	0.008330
Co151	Co15	0.968000	0.351870	0.648010
O431	O43	0.966830	0.404870	0.431670
O441	O44	0.023530	0.416170	0.835770
O451	O45	0.970030	0.296070	0.863670
C571	C57	0.877830	0.222170	0.590670
C581	C58	0.928730	0.246370	0.925470
C591	C59	0.831130	0.180970	0.475070
C601	C60	0.879830	0.207470	0.786070
H151	H15	0.829230	0.190570	0.341670
Co161	Co16	0.314800	0.949470	0.981340
O461	O46	0.261800	0.895300	0.765000
O471	O47	0.250500	0.940700	0.169100
O481	O48	0.370600	0.007300	0.197000
C611	C61	0.444500	0.989000	0.924000
C621	C62	0.420300	0.015700	0.258800
C631	C63	0.485700	0.983500	0.808400
C641	C64	0.459200	0.005700	0.119400
H161	H16	0.476100	0.972000	0.675000
Co171	Co17	0.981470	0.282800	0.314670
O491	O49	0.928470	0.228630	0.098330
O501	O50	0.917170	0.274030	0.502430
O511	O51	0.037270	0.340630	0.530330
C651	C65	0.111170	0.322330	0.257330
C661	C66	0.086970	0.349030	0.592130
C671	C67	0.152370	0.316830	0.141730
C681	C68	0.125870	0.339030	0.452730
H171	H17	0.142770	0.305330	0.008330
Co181	Co18	0.648130	0.616140	0.648010
O521	O52	0.595130	0.561970	0.431670
O531	O53	0.583830	0.607370	0.835770
O541	O54	0.703930	0.673970	0.863670
C691	C69	0.777830	0.655670	0.590670
C701	C70	0.753630	0.682370	0.925470
C711	C71	0.819030	0.650170	0.475070
C721	C72	0.792530	0.672370	0.786070
H181	H18	0.809430	0.638670	0.341670
