data_COKROL_clean_PM
_symmetry_space_group_name_H-M	'P1'
_cell_length_a	7.633300
_cell_length_b	24.133200
_cell_length_c	30.529100
_cell_angle_alpha	90.000000
_cell_angle_beta	93.505000
_cell_angle_gamma	90.000000
_symmetry_Int_Tables_number 1

loop_
_symmetry_equiv_pos_as_xyz
'x,y,z'

loop_
_atom_site_label
_atom_site_type_symbol
_atom_site_fract_x
_atom_site_fract_y
_atom_site_fract_z
O11	O1	0.538900	0.914410	0.194530
O21	O2	0.756400	0.878860	0.233270
O31	O3	0.090200	0.270800	0.204500
O41	O4	0.835300	0.308500	0.197770
N11	N1	0.281100	0.949560	0.001320
N21	N2	0.445000	0.033460	0.060240
C11	C1	0.940800	0.272300	0.187500
C21	C2	0.759500	0.146400	0.096500
C31	C3	0.988100	0.183100	0.146200
H11	H1	0.100300	0.179400	0.160400
C41	C4	0.885400	0.230100	0.154100
C51	C5	0.310200	0.016000	0.085610
C61	C6	0.725700	0.234500	0.132100
H21	H2	0.656600	0.265900	0.136800
C71	C7	0.924000	0.142200	0.117700
H31	H3	0.993700	0.111000	0.112700
C81	C8	0.537100	0.074100	0.082130
C91	C9	0.824700	0.929000	0.169510
C101	C10	0.061600	0.961100	0.108770
C111	C11	0.173300	0.944500	0.036090
C121	C12	0.885100	0.973900	0.102160
H41	H4	0.844800	0.993100	0.076700
C131	C13	0.003200	0.916900	0.176630
H51	H5	0.044200	0.897600	0.202000
C141	C14	0.767200	0.958400	0.132930
H61	H6	0.648100	0.968000	0.128600
C151	C15	0.686600	0.101700	0.067710
C161	C16	0.661200	0.194200	0.103200
H71	H7	0.551300	0.199000	0.088100
C171	C17	0.460700	0.083100	0.123550
H81	H8	0.498600	0.108700	0.145300
C181	C18	0.188100	0.975300	0.074530
C191	C19	0.232700	0.909200	0.971680
C201	C20	0.323800	0.047500	0.125070
H91	H9	0.249600	0.044300	0.148400
C211	C21	0.084700	0.879100	0.986700
H101	H10	0.024100	0.849900	0.972000
C221	C22	0.050600	0.900800	0.025700
H111	H11	0.960800	0.889200	0.043400
C231	C23	0.119200	0.933500	0.146020
H121	H12	0.239400	0.925700	0.150900
C241	C24	0.697300	0.907400	0.201370
O51	O5	0.038900	0.414410	0.194530
O61	O6	0.256400	0.378860	0.233270
O71	O7	0.590200	0.770800	0.204500
O81	O8	0.335300	0.808500	0.197770
N31	N3	0.781100	0.449560	0.001320
N41	N4	0.945000	0.533460	0.060240
C251	C25	0.440800	0.772300	0.187500
C261	C26	0.259500	0.646400	0.096500
C271	C27	0.488100	0.683100	0.146200
H131	H13	0.600300	0.679400	0.160400
C281	C28	0.385400	0.730100	0.154100
C291	C29	0.810200	0.516000	0.085610
C301	C30	0.225700	0.734500	0.132100
H141	H14	0.156600	0.765900	0.136800
C311	C31	0.424000	0.642200	0.117700
H151	H15	0.493700	0.611000	0.112700
C321	C32	0.037100	0.574100	0.082130
C331	C33	0.324700	0.429000	0.169510
C341	C34	0.561600	0.461100	0.108770
C351	C35	0.673300	0.444500	0.036090
C361	C36	0.385100	0.473900	0.102160
H161	H16	0.344800	0.493100	0.076700
C371	C37	0.503200	0.416900	0.176630
H171	H17	0.544200	0.397600	0.202000
C381	C38	0.267200	0.458400	0.132930
H181	H18	0.148100	0.468000	0.128600
C391	C39	0.186600	0.601700	0.067710
C401	C40	0.161200	0.694200	0.103200
H191	H19	0.051300	0.699000	0.088100
C411	C41	0.960700	0.583100	0.123550
H201	H20	0.998600	0.608700	0.145300
C421	C42	0.688100	0.475300	0.074530
C431	C43	0.732700	0.409200	0.971680
C441	C44	0.823800	0.547500	0.125070
H211	H21	0.749600	0.544300	0.148400
C451	C45	0.584700	0.379100	0.986700
H221	H22	0.524100	0.349900	0.972000
C461	C46	0.550600	0.400800	0.025700
H231	H23	0.460800	0.389200	0.043400
C471	C47	0.619200	0.433500	0.146020
H241	H24	0.739400	0.425700	0.150900
C481	C48	0.197300	0.407400	0.201370
O91	O9	0.461100	0.914410	0.305470
O101	O10	0.243600	0.878860	0.266730
O111	O11	0.909800	0.270800	0.295500
O121	O12	0.164700	0.308500	0.302230
N51	N5	0.718900	0.949560	0.498680
N61	N6	0.555000	0.033460	0.439760
C491	C49	0.059200	0.272300	0.312500
C501	C50	0.240500	0.146400	0.403500
C511	C51	0.011900	0.183100	0.353800
H251	H25	0.899700	0.179400	0.339600
C521	C52	0.114600	0.230100	0.345900
C531	C53	0.689800	0.016000	0.414390
C541	C54	0.274300	0.234500	0.367900
H261	H26	0.343400	0.265900	0.363200
C551	C55	0.076000	0.142200	0.382300
H271	H27	0.006300	0.111000	0.387300
C561	C56	0.462900	0.074100	0.417870
C571	C57	0.175300	0.929000	0.330490
C581	C58	0.938400	0.961100	0.391230
C591	C59	0.826700	0.944500	0.463910
C601	C60	0.114900	0.973900	0.397840
H281	H28	0.155200	0.993100	0.423300
C611	C61	0.996800	0.916900	0.323370
H291	H29	0.955800	0.897600	0.298000
C621	C62	0.232800	0.958400	0.367070
H301	H30	0.351900	0.968000	0.371400
C631	C63	0.313400	0.101700	0.432290
C641	C64	0.338800	0.194200	0.396800
H311	H31	0.448700	0.199000	0.411900
C651	C65	0.539300	0.083100	0.376450
H321	H32	0.501400	0.108700	0.354700
C661	C66	0.811900	0.975300	0.425470
C671	C67	0.767300	0.909200	0.528320
C681	C68	0.676200	0.047500	0.374930
H331	H33	0.750400	0.044300	0.351600
C691	C69	0.915300	0.879100	0.513300
H341	H34	0.975900	0.849900	0.528000
C701	C70	0.949400	0.900800	0.474300
H351	H35	0.039200	0.889200	0.456600
C711	C71	0.880800	0.933500	0.353980
H361	H36	0.760600	0.925700	0.349100
C721	C72	0.302700	0.907400	0.298630
O131	O13	0.961100	0.414410	0.305470
O141	O14	0.743600	0.378860	0.266730
O151	O15	0.409800	0.770800	0.295500
O161	O16	0.664700	0.808500	0.302230
N71	N7	0.218900	0.449560	0.498680
N81	N8	0.055000	0.533460	0.439760
C731	C73	0.559200	0.772300	0.312500
C741	C74	0.740500	0.646400	0.403500
C751	C75	0.511900	0.683100	0.353800
H371	H37	0.399700	0.679400	0.339600
C761	C76	0.614600	0.730100	0.345900
C771	C77	0.189800	0.516000	0.414390
C781	C78	0.774300	0.734500	0.367900
H381	H38	0.843400	0.765900	0.363200
C791	C79	0.576000	0.642200	0.382300
H391	H39	0.506300	0.611000	0.387300
C801	C80	0.962900	0.574100	0.417870
C811	C81	0.675300	0.429000	0.330490
C821	C82	0.438400	0.461100	0.391230
C831	C83	0.326700	0.444500	0.463910
C841	C84	0.614900	0.473900	0.397840
H401	H40	0.655200	0.493100	0.423300
C851	C85	0.496800	0.416900	0.323370
H411	H41	0.455800	0.397600	0.298000
C861	C86	0.732800	0.458400	0.367070
H421	H42	0.851900	0.468000	0.371400
C871	C87	0.813400	0.601700	0.432290
C881	C88	0.838800	0.694200	0.396800
H431	H43	0.948700	0.699000	0.411900
C891	C89	0.039300	0.583100	0.376450
H441	H44	0.001400	0.608700	0.354700
C901	C90	0.311900	0.475300	0.425470
C911	C91	0.267300	0.409200	0.528320
C921	C92	0.176200	0.547500	0.374930
H451	H45	0.250400	0.544300	0.351600
C931	C93	0.415300	0.379100	0.513300
H461	H46	0.475900	0.349900	0.528000
C941	C94	0.449400	0.400800	0.474300
H471	H47	0.539200	0.389200	0.456600
C951	C95	0.380800	0.433500	0.353980
H481	H48	0.260600	0.425700	0.349100
C961	C96	0.802700	0.407400	0.298630
O171	O17	0.461100	0.085590	0.805470
O181	O18	0.243600	0.121140	0.766730
O191	O19	0.909800	0.729200	0.795500
O201	O20	0.164700	0.691500	0.802230
N91	N9	0.718900	0.050440	0.998680
N101	N10	0.555000	0.966540	0.939760
C971	C97	0.059200	0.727700	0.812500
C981	C98	0.240500	0.853600	0.903500
C991	C99	0.011900	0.816900	0.853800
H491	H49	0.899700	0.820600	0.839600
C1001	C100	0.114600	0.769900	0.845900
C1011	C101	0.689800	0.984000	0.914390
C1021	C102	0.274300	0.765500	0.867900
H501	H50	0.343400	0.734100	0.863200
C1031	C103	0.076000	0.857800	0.882300
H511	H51	0.006300	0.889000	0.887300
C1041	C104	0.462900	0.925900	0.917870
C1051	C105	0.175300	0.071000	0.830490
C1061	C106	0.938400	0.038900	0.891230
C1071	C107	0.826700	0.055500	0.963910
C1081	C108	0.114900	0.026100	0.897840
H521	H52	0.155200	0.006900	0.923300
C1091	C109	0.996800	0.083100	0.823370
H531	H53	0.955800	0.102400	0.798000
C1101	C110	0.232800	0.041600	0.867070
H541	H54	0.351900	0.032000	0.871400
C1111	C111	0.313400	0.898300	0.932290
C1121	C112	0.338800	0.805800	0.896800
H551	H55	0.448700	0.801000	0.911900
C1131	C113	0.539300	0.916900	0.876450
H561	H56	0.501400	0.891300	0.854700
C1141	C114	0.811900	0.024700	0.925470
C1151	C115	0.767300	0.090800	0.028320
C1161	C116	0.676200	0.952500	0.874930
H571	H57	0.750400	0.955700	0.851600
C1171	C117	0.915300	0.120900	0.013300
H581	H58	0.975900	0.150100	0.028000
C1181	C118	0.949400	0.099200	0.974300
H591	H59	0.039200	0.110800	0.956600
C1191	C119	0.880800	0.066500	0.853980
H601	H60	0.760600	0.074300	0.849100
C1201	C120	0.302700	0.092600	0.798630
O211	O21	0.961100	0.585590	0.805470
O221	O22	0.743600	0.621140	0.766730
O231	O23	0.409800	0.229200	0.795500
O241	O24	0.664700	0.191500	0.802230
N111	N11	0.218900	0.550440	0.998680
N121	N12	0.055000	0.466540	0.939760
C1211	C121	0.559200	0.227700	0.812500
C1221	C122	0.740500	0.353600	0.903500
C1231	C123	0.511900	0.316900	0.853800
H611	H61	0.399700	0.320600	0.839600
C1241	C124	0.614600	0.269900	0.845900
C1251	C125	0.189800	0.484000	0.914390
C1261	C126	0.774300	0.265500	0.867900
H621	H62	0.843400	0.234100	0.863200
C1271	C127	0.576000	0.357800	0.882300
H631	H63	0.506300	0.389000	0.887300
C1281	C128	0.962900	0.425900	0.917870
C1291	C129	0.675300	0.571000	0.830490
C1301	C130	0.438400	0.538900	0.891230
C1311	C131	0.326700	0.555500	0.963910
C1321	C132	0.614900	0.526100	0.897840
H641	H64	0.655200	0.506900	0.923300
C1331	C133	0.496800	0.583100	0.823370
H651	H65	0.455800	0.602400	0.798000
C1341	C134	0.732800	0.541600	0.867070
H661	H66	0.851900	0.532000	0.871400
C1351	C135	0.813400	0.398300	0.932290
C1361	C136	0.838800	0.305800	0.896800
H671	H67	0.948700	0.301000	0.911900
C1371	C137	0.039300	0.416900	0.876450
H681	H68	0.001400	0.391300	0.854700
C1381	C138	0.311900	0.524700	0.925470
C1391	C139	0.267300	0.590800	0.028320
C1401	C140	0.176200	0.452500	0.874930
H691	H69	0.250400	0.455700	0.851600
C1411	C141	0.415300	0.620900	0.013300
H701	H70	0.475900	0.650100	0.028000
C1421	C142	0.449400	0.599200	0.974300
H711	H71	0.539200	0.610800	0.956600
C1431	C143	0.380800	0.566500	0.853980
H721	H72	0.260600	0.574300	0.849100
C1441	C144	0.802700	0.592600	0.798630
O251	O25	0.538900	0.085590	0.694530
O261	O26	0.756400	0.121140	0.733270
O271	O27	0.090200	0.729200	0.704500
O281	O28	0.835300	0.691500	0.697770
N131	N13	0.281100	0.050440	0.501320
N141	N14	0.445000	0.966540	0.560240
C1451	C145	0.940800	0.727700	0.687500
C1461	C146	0.759500	0.853600	0.596500
C1471	C147	0.988100	0.816900	0.646200
H731	H73	0.100300	0.820600	0.660400
C1481	C148	0.885400	0.769900	0.654100
C1491	C149	0.310200	0.984000	0.585610
C1501	C150	0.725700	0.765500	0.632100
H741	H74	0.656600	0.734100	0.636800
C1511	C151	0.924000	0.857800	0.617700
H751	H75	0.993700	0.889000	0.612700
C1521	C152	0.537100	0.925900	0.582130
C1531	C153	0.824700	0.071000	0.669510
C1541	C154	0.061600	0.038900	0.608770
C1551	C155	0.173300	0.055500	0.536090
C1561	C156	0.885100	0.026100	0.602160
H761	H76	0.844800	0.006900	0.576700
C1571	C157	0.003200	0.083100	0.676630
H771	H77	0.044200	0.102400	0.702000
C1581	C158	0.767200	0.041600	0.632930
H781	H78	0.648100	0.032000	0.628600
C1591	C159	0.686600	0.898300	0.567710
C1601	C160	0.661200	0.805800	0.603200
H791	H79	0.551300	0.801000	0.588100
C1611	C161	0.460700	0.916900	0.623550
H801	H80	0.498600	0.891300	0.645300
C1621	C162	0.188100	0.024700	0.574530
C1631	C163	0.232700	0.090800	0.471680
C1641	C164	0.323800	0.952500	0.625070
H811	H81	0.249600	0.955700	0.648400
C1651	C165	0.084700	0.120900	0.486700
H821	H82	0.024100	0.150100	0.472000
C1661	C166	0.050600	0.099200	0.525700
H831	H83	0.960800	0.110800	0.543400
C1671	C167	0.119200	0.066500	0.646020
H841	H84	0.239400	0.074300	0.650900
C1681	C168	0.697300	0.092600	0.701370
O291	O29	0.038900	0.585590	0.694530
O301	O30	0.256400	0.621140	0.733270
O311	O31	0.590200	0.229200	0.704500
O321	O32	0.335300	0.191500	0.697770
N151	N15	0.781100	0.550440	0.501320
N161	N16	0.945000	0.466540	0.560240
C1691	C169	0.440800	0.227700	0.687500
C1701	C170	0.259500	0.353600	0.596500
C1711	C171	0.488100	0.316900	0.646200
H851	H85	0.600300	0.320600	0.660400
C1721	C172	0.385400	0.269900	0.654100
C1731	C173	0.810200	0.484000	0.585610
C1741	C174	0.225700	0.265500	0.632100
H861	H86	0.156600	0.234100	0.636800
C1751	C175	0.424000	0.357800	0.617700
H871	H87	0.493700	0.389000	0.612700
C1761	C176	0.037100	0.425900	0.582130
C1771	C177	0.324700	0.571000	0.669510
C1781	C178	0.561600	0.538900	0.608770
C1791	C179	0.673300	0.555500	0.536090
C1801	C180	0.385100	0.526100	0.602160
H881	H88	0.344800	0.506900	0.576700
C1811	C181	0.503200	0.583100	0.676630
H891	H89	0.544200	0.602400	0.702000
C1821	C182	0.267200	0.541600	0.632930
H901	H90	0.148100	0.532000	0.628600
C1831	C183	0.186600	0.398300	0.567710
C1841	C184	0.161200	0.305800	0.603200
H911	H91	0.051300	0.301000	0.588100
C1851	C185	0.960700	0.416900	0.623550
H921	H92	0.998600	0.391300	0.645300
C1861	C186	0.688100	0.524700	0.574530
C1871	C187	0.732700	0.590800	0.471680
C1881	C188	0.823800	0.452500	0.625070
H931	H93	0.749600	0.455700	0.648400
C1891	C189	0.584700	0.620900	0.486700
H941	H94	0.524100	0.650100	0.472000
C1901	C190	0.550600	0.599200	0.525700
H951	H95	0.460800	0.610800	0.543400
C1911	C191	0.619200	0.566500	0.646020
H961	H96	0.739400	0.574300	0.650900
C1921	C192	0.197300	0.592600	0.701370
In11	In1	0.500000	0.848830	0.250000
In21	In2	0.000000	0.348830	0.250000
In31	In3	0.500000	0.151170	0.750000
In41	In4	0.000000	0.651170	0.750000
In51	In5	0.500000	0.000000	0.000000
In61	In6	0.000000	0.500000	0.000000
In71	In7	0.500000	0.000000	0.500000
In81	In8	0.000000	0.500000	0.500000
