data_COLPEA_clean_PM
_symmetry_space_group_name_H-M	'P1'
_cell_length_a	17.554000
_cell_length_b	28.815000
_cell_length_c	8.420900
_cell_angle_alpha	90.000000
_cell_angle_beta	108.753000
_cell_angle_gamma	90.000000
_symmetry_Int_Tables_number 1

loop_
_symmetry_equiv_pos_as_xyz
'x,y,z'

loop_
_atom_site_label
_atom_site_type_symbol
_atom_site_fract_x
_atom_site_fract_y
_atom_site_fract_z
Co11	Co1	0.322400	0.216970	0.344760
Cl11	Cl1	0.146130	0.000080	0.605070
O11	O1	0.194010	0.294190	0.929800
O21	O2	0.018380	0.283840	0.817700
O31	O3	0.290940	0.264640	0.145800
O41	O4	0.941420	0.254440	0.958900
N11	N1	0.193100	0.201230	0.215000
N21	N2	0.060500	0.199950	0.148900
C11	C1	0.141200	0.052760	0.498800
C21	C2	0.200800	0.107030	0.358500
H11	H1	0.242400	0.115600	0.318600
C31	C3	0.133800	0.136060	0.332300
C41	C4	0.205000	0.065380	0.444100
H21	H2	0.249800	0.046300	0.464500
C51	C5	0.007800	0.260430	0.935900
C61	C6	0.078100	0.235540	0.057700
C71	C7	0.074300	0.080570	0.471600
H31	H3	0.031900	0.071200	0.507700
C81	C8	0.130100	0.179560	0.238400
C91	C9	0.218400	0.266960	0.054200
C101	C10	0.071000	0.122790	0.389400
H41	H4	0.026700	0.142200	0.372700
C111	C11	0.160600	0.236020	0.100100
Co21	Co2	0.105030	0.289410	0.699930
Cl21	Cl2	0.867890	0.092900	0.919930
O51	O5	0.284790	0.264170	0.490100
O61	O6	0.357170	0.170930	0.543800
O71	O7	0.351740	0.117680	0.731800
O81	O8	0.192190	0.297580	0.579700
N31	N3	0.145700	0.217040	0.682800
C121	C12	0.255200	0.176540	0.674500
C131	C13	0.078200	0.154980	0.795800
C141	C14	0.024200	0.097140	0.938700
H51	H5	0.031200	0.071400	0.008600
N41	N4	0.210500	0.149840	0.749200
C151	C15	0.948700	0.117090	0.870200
C161	C16	0.001300	0.173310	0.726300
H61	H6	0.993200	0.198200	0.652400
C171	C17	0.936100	0.154930	0.765600
H71	H7	0.885200	0.168000	0.722000
C181	C18	0.145000	0.174760	0.748500
C191	C19	0.232700	0.262320	0.562100
C201	C20	0.214200	0.218190	0.635300
C211	C21	0.327900	0.153780	0.648600
C221	C22	0.089400	0.116300	0.901000
H81	H8	0.140300	0.103300	0.946000
Co31	Co3	0.954150	0.572460	0.766180
Cl31	Cl3	0.367600	0.592710	0.419780
O91	O9	0.902620	0.469810	0.401900
O101	O10	0.994300	0.617520	0.617600
H91	H9	0.039900	0.626400	0.669800
O111	O11	0.005160	0.387220	0.476000
O121	O12	0.088080	0.362890	0.723500
O131	O13	0.898500	0.532750	0.550400
N51	N5	0.042100	0.515840	0.780700
C231	C23	0.169100	0.518730	0.022800
C241	C24	0.282700	0.516530	0.276800
H101	H10	0.318200	0.500000	0.364600
N61	N6	0.110600	0.449860	0.848400
C251	C25	0.048200	0.440710	0.703100
C261	C26	0.290900	0.564350	0.264900
C271	C27	0.240300	0.589710	0.134500
H111	H11	0.246500	0.621700	0.128600
C281	C28	0.180200	0.566580	0.012700
H121	H12	0.146500	0.583100	0.922600
C291	C29	0.221700	0.493940	0.157300
H131	H13	0.215200	0.462100	0.165600
C301	C30	0.106100	0.495410	0.889900
C311	C31	0.931400	0.495250	0.529900
C321	C32	0.006300	0.482430	0.663200
C331	C33	0.046100	0.393770	0.627200
Co41	Co4	0.822400	0.716970	0.344760
Cl41	Cl4	0.646130	0.500080	0.605070
O141	O14	0.694010	0.794190	0.929800
O151	O15	0.518380	0.783840	0.817700
O161	O16	0.790940	0.764640	0.145800
O171	O17	0.441420	0.754440	0.958900
N71	N7	0.693100	0.701230	0.215000
N81	N8	0.560500	0.699950	0.148900
C341	C34	0.641200	0.552760	0.498800
C351	C35	0.700800	0.607030	0.358500
H141	H14	0.742400	0.615600	0.318600
C361	C36	0.633800	0.636060	0.332300
C371	C37	0.705000	0.565380	0.444100
H151	H15	0.749800	0.546300	0.464500
C381	C38	0.507800	0.760430	0.935900
C391	C39	0.578100	0.735540	0.057700
C401	C40	0.574300	0.580570	0.471600
H161	H16	0.531900	0.571200	0.507700
C411	C41	0.630100	0.679560	0.238400
C421	C42	0.718400	0.766960	0.054200
C431	C43	0.571000	0.622790	0.389400
H171	H17	0.526700	0.642200	0.372700
C441	C44	0.660600	0.736020	0.100100
Co51	Co5	0.605030	0.789410	0.699930
Cl51	Cl5	0.367890	0.592900	0.919930
O181	O18	0.784790	0.764170	0.490100
O191	O19	0.857170	0.670930	0.543800
O201	O20	0.851740	0.617680	0.731800
O211	O21	0.692190	0.797580	0.579700
N91	N9	0.645700	0.717040	0.682800
C451	C45	0.755200	0.676540	0.674500
C461	C46	0.578200	0.654980	0.795800
C471	C47	0.524200	0.597140	0.938700
H181	H18	0.531200	0.571400	0.008600
N101	N10	0.710500	0.649840	0.749200
C481	C48	0.448700	0.617090	0.870200
C491	C49	0.501300	0.673310	0.726300
H191	H19	0.493200	0.698200	0.652400
C501	C50	0.436100	0.654930	0.765600
H201	H20	0.385200	0.668000	0.722000
C511	C51	0.645000	0.674760	0.748500
C521	C52	0.732700	0.762320	0.562100
C531	C53	0.714200	0.718190	0.635300
C541	C54	0.827900	0.653780	0.648600
C551	C55	0.589400	0.616300	0.901000
H211	H21	0.640300	0.603300	0.946000
Co61	Co6	0.454150	0.072460	0.766180
Cl61	Cl6	0.867600	0.092710	0.419780
O221	O22	0.402620	0.969810	0.401900
O231	O23	0.494300	0.117520	0.617600
H221	H22	0.539900	0.126400	0.669800
O241	O24	0.505160	0.887220	0.476000
O251	O25	0.588080	0.862890	0.723500
O261	O26	0.398500	0.032750	0.550400
N111	N11	0.542100	0.015840	0.780700
C561	C56	0.669100	0.018730	0.022800
C571	C57	0.782700	0.016530	0.276800
H231	H23	0.818200	0.000000	0.364600
N121	N12	0.610600	0.949860	0.848400
C581	C58	0.548200	0.940710	0.703100
C591	C59	0.790900	0.064350	0.264900
C601	C60	0.740300	0.089710	0.134500
H241	H24	0.746500	0.121700	0.128600
C611	C61	0.680200	0.066580	0.012700
H251	H25	0.646500	0.083100	0.922600
C621	C62	0.721700	0.993940	0.157300
H261	H26	0.715200	0.962100	0.165600
C631	C63	0.606100	0.995410	0.889900
C641	C64	0.431400	0.995250	0.529900
C651	C65	0.506300	0.982430	0.663200
C661	C66	0.546100	0.893770	0.627200
Co71	Co7	0.322400	0.783030	0.844760
Cl71	Cl7	0.146130	0.999920	0.105070
O271	O27	0.194010	0.705810	0.429800
O281	O28	0.018380	0.716160	0.317700
O291	O29	0.290940	0.735360	0.645800
O301	O30	0.941420	0.745560	0.458900
N131	N13	0.193100	0.798770	0.715000
N141	N14	0.060500	0.800050	0.648900
C671	C67	0.141200	0.947240	0.998800
C681	C68	0.200800	0.892970	0.858500
H271	H27	0.242400	0.884400	0.818600
C691	C69	0.133800	0.863940	0.832300
C701	C70	0.205000	0.934620	0.944100
H281	H28	0.249800	0.953700	0.964500
C711	C71	0.007800	0.739570	0.435900
C721	C72	0.078100	0.764460	0.557700
C731	C73	0.074300	0.919430	0.971600
H291	H29	0.031900	0.928800	0.007700
C741	C74	0.130100	0.820440	0.738400
C751	C75	0.218400	0.733040	0.554200
C761	C76	0.071000	0.877210	0.889400
H301	H30	0.026700	0.857800	0.872700
C771	C77	0.160600	0.763980	0.600100
Co81	Co8	0.105030	0.710590	0.199930
Cl81	Cl8	0.867890	0.907100	0.419930
O311	O31	0.284790	0.735830	0.990100
O321	O32	0.357170	0.829070	0.043800
O331	O33	0.351740	0.882320	0.231800
O341	O34	0.192190	0.702420	0.079700
N151	N15	0.145700	0.782960	0.182800
C781	C78	0.255200	0.823460	0.174500
C791	C79	0.078200	0.845020	0.295800
C801	C80	0.024200	0.902860	0.438700
H311	H31	0.031200	0.928600	0.508600
N161	N16	0.210500	0.850160	0.249200
C811	C81	0.948700	0.882910	0.370200
C821	C82	0.001300	0.826690	0.226300
H321	H32	0.993200	0.801800	0.152400
C831	C83	0.936100	0.845070	0.265600
H331	H33	0.885200	0.832000	0.222000
C841	C84	0.145000	0.825240	0.248500
C851	C85	0.232700	0.737680	0.062100
C861	C86	0.214200	0.781810	0.135300
C871	C87	0.327900	0.846220	0.148600
C881	C88	0.089400	0.883700	0.401000
H341	H34	0.140300	0.896700	0.446000
Co91	Co9	0.954150	0.427540	0.266180
Cl91	Cl9	0.367600	0.407290	0.919780
O351	O35	0.902620	0.530190	0.901900
O361	O36	0.994300	0.382480	0.117600
H351	H35	0.039900	0.373600	0.169800
O371	O37	0.005160	0.612780	0.976000
O381	O38	0.088080	0.637110	0.223500
O391	O39	0.898500	0.467250	0.050400
N171	N17	0.042100	0.484160	0.280700
C891	C89	0.169100	0.481270	0.522800
C901	C90	0.282700	0.483470	0.776800
H361	H36	0.318200	0.500000	0.864600
N181	N18	0.110600	0.550140	0.348400
C911	C91	0.048200	0.559290	0.203100
C921	C92	0.290900	0.435650	0.764900
C931	C93	0.240300	0.410290	0.634500
H371	H37	0.246500	0.378300	0.628600
C941	C94	0.180200	0.433420	0.512700
H381	H38	0.146500	0.416900	0.422600
C951	C95	0.221700	0.506060	0.657300
H391	H39	0.215200	0.537900	0.665600
C961	C96	0.106100	0.504590	0.389900
C971	C97	0.931400	0.504750	0.029900
C981	C98	0.006300	0.517570	0.163200
C991	C99	0.046100	0.606230	0.127200
Co101	Co10	0.822400	0.283030	0.844760
Cl101	Cl10	0.646130	0.499920	0.105070
O401	O40	0.694010	0.205810	0.429800
O411	O41	0.518380	0.216160	0.317700
O421	O42	0.790940	0.235360	0.645800
O431	O43	0.441420	0.245560	0.458900
N191	N19	0.693100	0.298770	0.715000
N201	N20	0.560500	0.300050	0.648900
C1001	C100	0.641200	0.447240	0.998800
C1011	C101	0.700800	0.392970	0.858500
H401	H40	0.742400	0.384400	0.818600
C1021	C102	0.633800	0.363940	0.832300
C1031	C103	0.705000	0.434620	0.944100
H411	H41	0.749800	0.453700	0.964500
C1041	C104	0.507800	0.239570	0.435900
C1051	C105	0.578100	0.264460	0.557700
C1061	C106	0.574300	0.419430	0.971600
H421	H42	0.531900	0.428800	0.007700
C1071	C107	0.630100	0.320440	0.738400
C1081	C108	0.718400	0.233040	0.554200
C1091	C109	0.571000	0.377210	0.889400
H431	H43	0.526700	0.357800	0.872700
C1101	C110	0.660600	0.263980	0.600100
Co111	Co11	0.605030	0.210590	0.199930
Cl111	Cl11	0.367890	0.407100	0.419930
O441	O44	0.784790	0.235830	0.990100
O451	O45	0.857170	0.329070	0.043800
O461	O46	0.851740	0.382320	0.231800
O471	O47	0.692190	0.202420	0.079700
N211	N21	0.645700	0.282960	0.182800
C1111	C111	0.755200	0.323460	0.174500
C1121	C112	0.578200	0.345020	0.295800
C1131	C113	0.524200	0.402860	0.438700
H441	H44	0.531200	0.428600	0.508600
N221	N22	0.710500	0.350160	0.249200
C1141	C114	0.448700	0.382910	0.370200
C1151	C115	0.501300	0.326690	0.226300
H451	H45	0.493200	0.301800	0.152400
C1161	C116	0.436100	0.345070	0.265600
H461	H46	0.385200	0.332000	0.222000
C1171	C117	0.645000	0.325240	0.248500
C1181	C118	0.732700	0.237680	0.062100
C1191	C119	0.714200	0.281810	0.135300
C1201	C120	0.827900	0.346220	0.148600
C1211	C121	0.589400	0.383700	0.401000
H471	H47	0.640300	0.396700	0.446000
Co121	Co12	0.454150	0.927540	0.266180
Cl121	Cl12	0.867600	0.907290	0.919780
O481	O48	0.402620	0.030190	0.901900
O491	O49	0.494300	0.882480	0.117600
H481	H48	0.539900	0.873600	0.169800
O501	O50	0.505160	0.112780	0.976000
O511	O51	0.588080	0.137110	0.223500
O521	O52	0.398500	0.967250	0.050400
N231	N23	0.542100	0.984160	0.280700
C1221	C122	0.669100	0.981270	0.522800
C1231	C123	0.782700	0.983470	0.776800
H491	H49	0.818200	0.000000	0.864600
N241	N24	0.610600	0.050140	0.348400
C1241	C124	0.548200	0.059290	0.203100
C1251	C125	0.790900	0.935650	0.764900
C1261	C126	0.740300	0.910290	0.634500
H501	H50	0.746500	0.878300	0.628600
C1271	C127	0.680200	0.933420	0.512700
H511	H51	0.646500	0.916900	0.422600
C1281	C128	0.721700	0.006060	0.657300
H521	H52	0.715200	0.037900	0.665600
C1291	C129	0.606100	0.004590	0.389900
C1301	C130	0.431400	0.004750	0.029900
C1311	C131	0.506300	0.017570	0.163200
C1321	C132	0.546100	0.106230	0.127200
