data_COMGUH_clean_PM
_symmetry_space_group_name_H-M	'P1'
_cell_length_a	8.649000
_cell_length_b	14.763000
_cell_length_c	16.033000
_cell_angle_alpha	104.344000
_cell_angle_beta	97.349000
_cell_angle_gamma	105.907000
_symmetry_Int_Tables_number 1

loop_
_symmetry_equiv_pos_as_xyz
'x,y,z'

loop_
_atom_site_label
_atom_site_type_symbol
_atom_site_fract_x
_atom_site_fract_y
_atom_site_fract_z
Na11	Na1	0.231300	0.235300	0.868300
Na21	Na2	0.394900	0.124600	0.648100
Na31	Na3	0.768700	0.764700	0.131700
Na41	Na4	0.605100	0.875400	0.351900
Cd11	Cd1	0.236210	0.534580	0.001840
Cd21	Cd2	0.672010	0.187310	0.860710
Cd31	Cd3	0.255840	0.958020	0.432620
Cd41	Cd4	0.763790	0.465420	0.998160
Cd51	Cd5	0.327990	0.812690	0.139290
Cd61	Cd6	0.744160	0.041980	0.567380
H11	H1	0.352000	0.568800	0.751000
H21	H2	0.545300	0.438100	0.559700
H31	H3	0.596500	0.337200	0.641200
H41	H4	0.350600	0.690300	0.523400
H51	H5	0.617100	0.692800	0.750400
H61	H6	0.684000	0.862800	0.800300
H71	H7	0.856400	0.516500	0.717900
H81	H8	0.157100	0.761500	0.683900
H91	H9	0.273600	0.814900	0.833200
H101	H10	0.866800	0.761200	0.616000
H111	H11	0.977100	0.553300	0.447800
H121	H12	0.972400	0.638400	0.342600
H131	H13	0.648000	0.431200	0.249000
H141	H14	0.454700	0.561900	0.440300
H151	H15	0.403500	0.662800	0.358800
H161	H16	0.649400	0.309700	0.476600
H171	H17	0.382900	0.307200	0.249600
H181	H18	0.316000	0.137200	0.199700
H191	H19	0.143600	0.483500	0.282100
H201	H20	0.842900	0.238500	0.316100
H211	H21	0.726400	0.185100	0.166800
H221	H22	0.133200	0.238800	0.384000
H231	H23	0.022900	0.446700	0.552200
H241	H24	0.027600	0.361600	0.657400
C11	C1	0.368300	0.474000	0.863000
C21	C2	0.432300	0.462400	0.777800
C31	C3	0.403600	0.522900	0.729800
C41	C4	0.451700	0.516000	0.648200
C51	C5	0.519000	0.445300	0.614900
C61	C6	0.548100	0.384300	0.663800
C71	C7	0.507300	0.391100	0.745900
C81	C8	0.557000	0.329100	0.799300
C91	C9	0.398900	0.875300	0.545200
C101	C10	0.462400	0.827500	0.608600
C111	C11	0.417100	0.725200	0.578800
C121	C12	0.474000	0.675700	0.634400
C131	C13	0.576000	0.726400	0.715700
C141	C14	0.616500	0.828200	0.745100
C151	C15	0.556600	0.880000	0.692200
C161	C16	0.606600	0.990700	0.725900
C171	C17	0.932700	0.552100	0.887700
C181	C18	0.006600	0.612200	0.831100
C191	C19	0.938700	0.577200	0.741300
C201	C20	0.995000	0.633900	0.686200
C211	C21	0.119900	0.723700	0.720200
C221	C22	0.188200	0.755600	0.810100
C231	C23	0.133800	0.702500	0.865800
C241	C24	0.208900	0.742600	0.962100
C251	C25	0.851200	0.884700	0.526100
C261	C26	0.885800	0.789900	0.499900
C271	C27	0.888600	0.737000	0.561000
C281	C28	0.922800	0.650600	0.540800
C291	C29	0.953600	0.612500	0.460600
C301	C30	0.949500	0.663400	0.397200
C311	C31	0.911500	0.750900	0.415700
C321	C32	0.913400	0.797000	0.344000
C331	C33	0.631700	0.526000	0.137000
C341	C34	0.567700	0.537600	0.222200
C351	C35	0.596400	0.477100	0.270200
C361	C36	0.548300	0.484000	0.351800
C371	C37	0.481000	0.554700	0.385100
C381	C38	0.451900	0.615700	0.336200
C391	C39	0.492700	0.608900	0.254100
C401	C40	0.443000	0.670900	0.200700
C411	C41	0.601100	0.124700	0.454800
C421	C42	0.537600	0.172500	0.391400
C431	C43	0.582900	0.274800	0.421200
C441	C44	0.526000	0.324300	0.365600
C451	C45	0.424000	0.273600	0.284300
C461	C46	0.383500	0.171800	0.254900
C471	C47	0.443400	0.120000	0.307800
C481	C48	0.393400	0.009300	0.274100
C491	C49	0.067300	0.447900	0.112300
C501	C50	0.993400	0.387800	0.168900
C511	C51	0.061300	0.422800	0.258700
C521	C52	0.005000	0.366100	0.313800
C531	C53	0.880100	0.276300	0.279800
C541	C54	0.811800	0.244400	0.189900
C551	C55	0.866200	0.297500	0.134200
C561	C56	0.791100	0.257400	0.037900
C571	C57	0.148800	0.115300	0.473900
C581	C58	0.114200	0.210100	0.500100
C591	C59	0.111400	0.263000	0.439000
C601	C60	0.077200	0.349400	0.459200
C611	C61	0.046400	0.387500	0.539400
C621	C62	0.050500	0.336600	0.602800
C631	C63	0.088500	0.249100	0.584300
C641	C64	0.086600	0.203000	0.656000
O11	O1	0.411800	0.562200	0.914000
O21	O2	0.269100	0.404900	0.877100
O31	O3	0.566000	0.354200	0.881000
O41	O4	0.583800	0.253300	0.758400
O51	O5	0.421600	0.574600	0.598200
O61	O6	0.475100	0.891100	0.486100
O71	O7	0.265500	0.892000	0.549800
O81	O8	0.586600	0.038300	0.673200
O91	O9	0.664600	0.030200	0.808200
O101	O10	0.979300	0.480600	0.896900
O111	O11	0.819700	0.573700	0.921300
O121	O12	0.187700	0.682900	0.008300
O131	O13	0.280100	0.831700	0.996200
O141	O14	0.919600	0.592300	0.598600
O151	O15	0.851500	0.922900	0.604800
O161	O16	0.822900	0.926200	0.467700
O171	O17	0.059100	0.840000	0.331100
O181	O18	0.785800	0.786900	0.292200
O191	O19	0.935100	0.247100	0.832800
O201	O20	0.390100	0.117100	0.862000
O211	O21	0.588200	0.437800	0.086000
O221	O22	0.730900	0.595100	0.122900
O231	O23	0.434000	0.645800	0.119000
O241	O24	0.416200	0.746700	0.241600
O251	O25	0.578400	0.425400	0.401800
O261	O26	0.524900	0.108900	0.513900
O271	O27	0.734500	0.108000	0.450200
O281	O28	0.413400	0.961700	0.326800
O291	O29	0.335400	0.969800	0.191800
O301	O30	0.020700	0.519400	0.103100
O311	O31	0.180300	0.426300	0.078700
O321	O32	0.812300	0.317100	0.991700
O331	O33	0.719900	0.168300	0.003800
O341	O34	0.080400	0.407700	0.401400
O351	O35	0.148500	0.077100	0.395200
O361	O36	0.177100	0.073800	0.532300
O371	O37	0.940900	0.160000	0.668900
O381	O38	0.214200	0.213100	0.707800
O391	O39	0.064900	0.752900	0.167200
O401	O40	0.609900	0.882900	0.138000
