data_COMZAH_clean_PM
_symmetry_space_group_name_H-M	'P1'
_cell_length_a	23.266700
_cell_length_b	15.235200
_cell_length_c	16.834700
_cell_angle_alpha	90.000000
_cell_angle_beta	90.000000
_cell_angle_gamma	90.000000
_symmetry_Int_Tables_number 1

loop_
_symmetry_equiv_pos_as_xyz
'x,y,z'

loop_
_atom_site_label
_atom_site_type_symbol
_atom_site_fract_x
_atom_site_fract_y
_atom_site_fract_z
Zn11	Zn1	0.011730	0.583420	0.243600
O11	O1	0.952800	0.668900	0.265700
O21	O2	0.903900	0.623500	0.162800
O31	O3	0.598100	0.349400	0.176000
O41	O4	0.575300	0.344000	0.301200
O51	O5	0.788100	0.025700	0.360200
N11	N1	0.768000	0.976600	0.238000
H11	H1	0.748200	0.986000	0.195700
N21	N2	0.007900	0.998300	0.839400
N31	N3	0.007600	0.492100	0.154000
C11	C1	0.646100	0.245700	0.257800
C21	C2	0.674300	0.209000	0.195400
H21	H2	0.668100	0.230400	0.144400
C31	C3	0.712000	0.140100	0.207100
H31	H3	0.731300	0.116100	0.163900
C41	C4	0.721100	0.107700	0.279500
C51	C5	0.695200	0.145800	0.343500
H41	H4	0.703100	0.125800	0.394500
C61	C6	0.657200	0.214200	0.332300
H51	H5	0.638900	0.239200	0.376000
C71	C7	0.804400	0.901900	0.238800
C81	C8	0.796700	0.844500	0.177400
H61	H6	0.768300	0.854500	0.139600
C91	C9	0.832300	0.769900	0.171900
H71	H7	0.826100	0.730100	0.130900
C101	C10	0.874700	0.754600	0.224200
C111	C11	0.885400	0.816300	0.279100
H81	H8	0.916400	0.809700	0.313500
C121	C12	0.849900	0.891000	0.285100
H91	H9	0.858600	0.933900	0.322500
C131	C13	0.603800	0.319600	0.240900
C141	C14	0.912600	0.673600	0.221200
C151	C15	0.762400	0.031500	0.295400
C161	C16	0.046200	0.486400	0.099000
H101	H10	0.075700	0.527700	0.097600
C171	C17	0.045100	0.420200	0.041600
H111	H11	0.073300	0.418800	0.002400
C181	C18	0.003200	0.357800	0.042500
C191	C19	0.962800	0.364200	0.100900
H121	H12	0.933100	0.323400	0.103300
C201	C20	0.965600	0.431100	0.156800
H131	H13	0.938100	0.433900	0.196800
C211	C21	0.001800	0.284100	0.982300
H141	H14	0.035500	0.287900	0.948600
H151	H15	0.968100	0.290600	0.948900
C221	C22	0.000300	0.194300	0.022200
H161	H16	0.033100	0.188200	0.057500
H171	H17	0.965600	0.188700	0.053600
C231	C23	0.002000	0.122600	0.959100
C241	C24	0.054200	0.096500	0.927800
H181	H18	0.088200	0.120600	0.946900
C251	C25	0.055700	0.034600	0.868100
H191	H19	0.091000	0.017800	0.847200
C261	C26	0.959200	0.019800	0.873800
H201	H20	0.926000	0.991100	0.857000
C271	C27	0.953600	0.081500	0.932700
H211	H21	0.917800	0.094900	0.954100
Zn21	Zn2	0.511730	0.416580	0.256400
O61	O6	0.452800	0.331100	0.234300
O71	O7	0.403900	0.376500	0.337200
O81	O8	0.098100	0.650600	0.324000
O91	O9	0.075300	0.656000	0.198800
O101	O10	0.288100	0.974300	0.139800
N41	N4	0.268000	0.023400	0.262000
H221	H22	0.248200	0.014000	0.304300
N51	N5	0.507900	0.001700	0.660600
N61	N6	0.507600	0.507900	0.346000
C281	C28	0.146100	0.754300	0.242200
C291	C29	0.174300	0.791000	0.304600
H231	H23	0.168100	0.769600	0.355600
C301	C30	0.212000	0.859900	0.292900
H241	H24	0.231300	0.883900	0.336100
C311	C31	0.221100	0.892300	0.220500
C321	C32	0.195200	0.854200	0.156500
H251	H25	0.203100	0.874200	0.105500
C331	C33	0.157200	0.785800	0.167700
H261	H26	0.138900	0.760800	0.124000
C341	C34	0.304400	0.098100	0.261200
C351	C35	0.296700	0.155500	0.322600
H271	H27	0.268300	0.145500	0.360400
C361	C36	0.332300	0.230100	0.328100
H281	H28	0.326100	0.269900	0.369100
C371	C37	0.374700	0.245400	0.275800
C381	C38	0.385400	0.183700	0.220900
H291	H29	0.416400	0.190300	0.186500
C391	C39	0.349900	0.109000	0.214900
H301	H30	0.358600	0.066100	0.177500
C401	C40	0.103800	0.680400	0.259100
C411	C41	0.412600	0.326400	0.278800
C421	C42	0.262400	0.968500	0.204600
C431	C43	0.546200	0.513600	0.401000
H311	H31	0.575700	0.472300	0.402400
C441	C44	0.545100	0.579800	0.458400
H321	H32	0.573300	0.581200	0.497600
C451	C45	0.503200	0.642200	0.457500
C461	C46	0.462800	0.635800	0.399100
H331	H33	0.433100	0.676600	0.396700
C471	C47	0.465600	0.568900	0.343200
H341	H34	0.438100	0.566100	0.303200
C481	C48	0.501800	0.715900	0.517700
H351	H35	0.535500	0.712100	0.551400
H361	H36	0.468100	0.709400	0.551100
C491	C49	0.500300	0.805700	0.477800
H371	H37	0.533100	0.811800	0.442500
H381	H38	0.465600	0.811300	0.446400
C501	C50	0.502000	0.877400	0.540900
C511	C51	0.554200	0.903500	0.572200
H391	H39	0.588200	0.879400	0.553100
C521	C52	0.555700	0.965400	0.631900
H401	H40	0.591000	0.982200	0.652800
C531	C53	0.459200	0.980200	0.626200
H411	H41	0.426000	0.008900	0.643000
C541	C54	0.453600	0.918500	0.567300
H421	H42	0.417800	0.905100	0.545900
Zn31	Zn3	0.511730	0.083420	0.756400
O111	O11	0.452800	0.168900	0.734300
O121	O12	0.403900	0.123500	0.837200
O131	O13	0.098100	0.849400	0.824000
O141	O14	0.075300	0.844000	0.698800
O151	O15	0.288100	0.525700	0.639800
N71	N7	0.268000	0.476600	0.762000
H431	H43	0.248200	0.486000	0.804300
N81	N8	0.507900	0.498300	0.160600
N91	N9	0.507600	0.992100	0.846000
C551	C55	0.146100	0.745700	0.742200
C561	C56	0.174300	0.709000	0.804600
H441	H44	0.168100	0.730400	0.855600
C571	C57	0.212000	0.640100	0.792900
H451	H45	0.231300	0.616100	0.836100
C581	C58	0.221100	0.607700	0.720500
C591	C59	0.195200	0.645800	0.656500
H461	H46	0.203100	0.625800	0.605500
C601	C60	0.157200	0.714200	0.667700
H471	H47	0.138900	0.739200	0.624000
C611	C61	0.304400	0.401900	0.761200
C621	C62	0.296700	0.344500	0.822600
H481	H48	0.268300	0.354500	0.860400
C631	C63	0.332300	0.269900	0.828100
H491	H49	0.326100	0.230100	0.869100
C641	C64	0.374700	0.254600	0.775800
C651	C65	0.385400	0.316300	0.720900
H501	H50	0.416400	0.309700	0.686500
C661	C66	0.349900	0.391000	0.714900
H511	H51	0.358600	0.433900	0.677500
C671	C67	0.103800	0.819600	0.759100
C681	C68	0.412600	0.173600	0.778800
C691	C69	0.262400	0.531500	0.704600
C701	C70	0.546200	0.986400	0.901000
H521	H52	0.575700	0.027700	0.902400
C711	C71	0.545100	0.920200	0.958400
H531	H53	0.573300	0.918800	0.997600
C721	C72	0.503200	0.857800	0.957500
C731	C73	0.462800	0.864200	0.899100
H541	H54	0.433100	0.823400	0.896700
C741	C74	0.465600	0.931100	0.843200
H551	H55	0.438100	0.933900	0.803200
C751	C75	0.501800	0.784100	0.017700
H561	H56	0.535500	0.787900	0.051400
H571	H57	0.468100	0.790600	0.051100
C761	C76	0.500300	0.694300	0.977800
H581	H58	0.533100	0.688200	0.942500
H591	H59	0.465600	0.688700	0.946400
C771	C77	0.502000	0.622600	0.040900
C781	C78	0.554200	0.596500	0.072200
H601	H60	0.588200	0.620600	0.053100
C791	C79	0.555700	0.534600	0.131900
H611	H61	0.591000	0.517800	0.152800
C801	C80	0.459200	0.519800	0.126200
H621	H62	0.426000	0.491100	0.143000
C811	C81	0.453600	0.581500	0.067300
H631	H63	0.417800	0.594900	0.045900
Zn41	Zn4	0.011730	0.916580	0.743600
O161	O16	0.952800	0.831100	0.765700
O171	O17	0.903900	0.876500	0.662800
O181	O18	0.598100	0.150600	0.676000
O191	O19	0.575300	0.156000	0.801200
O201	O20	0.788100	0.474300	0.860200
N101	N10	0.768000	0.523400	0.738000
H641	H64	0.748200	0.514000	0.695700
N111	N11	0.007900	0.501700	0.339400
N121	N12	0.007600	0.007900	0.654000
C821	C82	0.646100	0.254300	0.757800
C831	C83	0.674300	0.291000	0.695400
H651	H65	0.668100	0.269600	0.644400
C841	C84	0.712000	0.359900	0.707100
H661	H66	0.731300	0.383900	0.663900
C851	C85	0.721100	0.392300	0.779500
C861	C86	0.695200	0.354200	0.843500
H671	H67	0.703100	0.374200	0.894500
C871	C87	0.657200	0.285800	0.832300
H681	H68	0.638900	0.260800	0.876000
C881	C88	0.804400	0.598100	0.738800
C891	C89	0.796700	0.655500	0.677400
H691	H69	0.768300	0.645500	0.639600
C901	C90	0.832300	0.730100	0.671900
H701	H70	0.826100	0.769900	0.630900
C911	C91	0.874700	0.745400	0.724200
C921	C92	0.885400	0.683700	0.779100
H711	H71	0.916400	0.690300	0.813500
C931	C93	0.849900	0.609000	0.785100
H721	H72	0.858600	0.566100	0.822500
C941	C94	0.603800	0.180400	0.740900
C951	C95	0.912600	0.826400	0.721200
C961	C96	0.762400	0.468500	0.795400
C971	C97	0.046200	0.013600	0.599000
H731	H73	0.075700	0.972300	0.597600
C981	C98	0.045100	0.079800	0.541600
H741	H74	0.073300	0.081200	0.502400
C991	C99	0.003200	0.142200	0.542500
C1001	C100	0.962800	0.135800	0.600900
H751	H75	0.933100	0.176600	0.603300
C1011	C101	0.965600	0.068900	0.656800
H761	H76	0.938100	0.066100	0.696800
C1021	C102	0.001800	0.215900	0.482300
H771	H77	0.035500	0.212100	0.448600
H781	H78	0.968100	0.209400	0.448900
C1031	C103	0.000300	0.305700	0.522200
H791	H79	0.033100	0.311800	0.557500
H801	H80	0.965600	0.311300	0.553600
C1041	C104	0.002000	0.377400	0.459100
C1051	C105	0.054200	0.403500	0.427800
H811	H81	0.088200	0.379400	0.446900
C1061	C106	0.055700	0.465400	0.368100
H821	H82	0.091000	0.482200	0.347200
C1071	C107	0.959200	0.480200	0.373800
H831	H83	0.926000	0.508900	0.357000
C1081	C108	0.953600	0.418500	0.432700
H841	H84	0.917800	0.405100	0.454100
Zn51	Zn5	0.488270	0.916580	0.243600
O211	O21	0.547200	0.831100	0.265700
O221	O22	0.596100	0.876500	0.162800
O231	O23	0.901900	0.150600	0.176000
O241	O24	0.924700	0.156000	0.301200
O251	O25	0.711900	0.474300	0.360200
N131	N13	0.732000	0.523400	0.238000
H851	H85	0.751800	0.514000	0.195700
N141	N14	0.492100	0.501700	0.839400
N151	N15	0.492400	0.007900	0.154000
C1091	C109	0.853900	0.254300	0.257800
C1101	C110	0.825700	0.291000	0.195400
H861	H86	0.831900	0.269600	0.144400
C1111	C111	0.788000	0.359900	0.207100
H871	H87	0.768700	0.383900	0.163900
C1121	C112	0.778900	0.392300	0.279500
C1131	C113	0.804800	0.354200	0.343500
H881	H88	0.796900	0.374200	0.394500
C1141	C114	0.842800	0.285800	0.332300
H891	H89	0.861100	0.260800	0.376000
C1151	C115	0.695600	0.598100	0.238800
C1161	C116	0.703300	0.655500	0.177400
H901	H90	0.731700	0.645500	0.139600
C1171	C117	0.667700	0.730100	0.171900
H911	H91	0.673900	0.769900	0.130900
C1181	C118	0.625300	0.745400	0.224200
C1191	C119	0.614600	0.683700	0.279100
H921	H92	0.583600	0.690300	0.313500
C1201	C120	0.650100	0.609000	0.285100
H931	H93	0.641400	0.566100	0.322500
C1211	C121	0.896200	0.180400	0.240900
C1221	C122	0.587400	0.826400	0.221200
C1231	C123	0.737600	0.468500	0.295400
C1241	C124	0.453800	0.013600	0.099000
H941	H94	0.424300	0.972300	0.097600
C1251	C125	0.454900	0.079800	0.041600
H951	H95	0.426700	0.081200	0.002400
C1261	C126	0.496800	0.142200	0.042500
C1271	C127	0.537200	0.135800	0.100900
H961	H96	0.566900	0.176600	0.103300
C1281	C128	0.534400	0.068900	0.156800
H971	H97	0.561900	0.066100	0.196800
C1291	C129	0.498200	0.215900	0.982300
H981	H98	0.464500	0.212100	0.948600
H991	H99	0.531900	0.209400	0.948900
C1301	C130	0.499700	0.305700	0.022200
H1001	H100	0.466900	0.311800	0.057500
H1011	H101	0.534400	0.311300	0.053600
C1311	C131	0.498000	0.377400	0.959100
C1321	C132	0.445800	0.403500	0.927800
H1021	H102	0.411800	0.379400	0.946900
C1331	C133	0.444300	0.465400	0.868100
H1031	H103	0.409000	0.482200	0.847200
C1341	C134	0.540800	0.480200	0.873800
H1041	H104	0.574000	0.508900	0.857000
C1351	C135	0.546400	0.418500	0.932700
H1051	H105	0.582200	0.405100	0.954100
Zn61	Zn6	0.988270	0.083420	0.256400
O261	O26	0.047200	0.168900	0.234300
O271	O27	0.096100	0.123500	0.337200
O281	O28	0.401900	0.849400	0.324000
O291	O29	0.424700	0.844000	0.198800
O301	O30	0.211900	0.525700	0.139800
N161	N16	0.232000	0.476600	0.262000
H1061	H106	0.251800	0.486000	0.304300
N171	N17	0.992100	0.498300	0.660600
N181	N18	0.992400	0.992100	0.346000
C1361	C136	0.353900	0.745700	0.242200
C1371	C137	0.325700	0.709000	0.304600
H1071	H107	0.331900	0.730400	0.355600
C1381	C138	0.288000	0.640100	0.292900
H1081	H108	0.268700	0.616100	0.336100
C1391	C139	0.278900	0.607700	0.220500
C1401	C140	0.304800	0.645800	0.156500
H1091	H109	0.296900	0.625800	0.105500
C1411	C141	0.342800	0.714200	0.167700
H1101	H110	0.361100	0.739200	0.124000
C1421	C142	0.195600	0.401900	0.261200
C1431	C143	0.203300	0.344500	0.322600
H1111	H111	0.231700	0.354500	0.360400
C1441	C144	0.167700	0.269900	0.328100
H1121	H112	0.173900	0.230100	0.369100
C1451	C145	0.125300	0.254600	0.275800
C1461	C146	0.114600	0.316300	0.220900
H1131	H113	0.083600	0.309700	0.186500
C1471	C147	0.150100	0.391000	0.214900
H1141	H114	0.141400	0.433900	0.177500
C1481	C148	0.396200	0.819600	0.259100
C1491	C149	0.087400	0.173600	0.278800
C1501	C150	0.237600	0.531500	0.204600
C1511	C151	0.953800	0.986400	0.401000
H1151	H115	0.924300	0.027700	0.402400
C1521	C152	0.954900	0.920200	0.458400
H1161	H116	0.926700	0.918800	0.497600
C1531	C153	0.996800	0.857800	0.457500
C1541	C154	0.037200	0.864200	0.399100
H1171	H117	0.066900	0.823400	0.396700
C1551	C155	0.034400	0.931100	0.343200
H1181	H118	0.061900	0.933900	0.303200
C1561	C156	0.998200	0.784100	0.517700
H1191	H119	0.964500	0.787900	0.551400
H1201	H120	0.031900	0.790600	0.551100
C1571	C157	0.999700	0.694300	0.477800
H1211	H121	0.966900	0.688200	0.442500
H1221	H122	0.034400	0.688700	0.446400
C1581	C158	0.998000	0.622600	0.540900
C1591	C159	0.945800	0.596500	0.572200
H1231	H123	0.911800	0.620600	0.553100
C1601	C160	0.944300	0.534600	0.631900
H1241	H124	0.909000	0.517800	0.652800
C1611	C161	0.040800	0.519800	0.626200
H1251	H125	0.074000	0.491100	0.643000
C1621	C162	0.046400	0.581500	0.567300
H1261	H126	0.082200	0.594900	0.545900
Zn71	Zn7	0.988270	0.416580	0.756400
O311	O31	0.047200	0.331100	0.734300
O321	O32	0.096100	0.376500	0.837200
O331	O33	0.401900	0.650600	0.824000
O341	O34	0.424700	0.656000	0.698800
O351	O35	0.211900	0.974300	0.639800
N191	N19	0.232000	0.023400	0.762000
H1271	H127	0.251800	0.014000	0.804300
N201	N20	0.992100	0.001700	0.160600
N211	N21	0.992400	0.507900	0.846000
C1631	C163	0.353900	0.754300	0.742200
C1641	C164	0.325700	0.791000	0.804600
H1281	H128	0.331900	0.769600	0.855600
C1651	C165	0.288000	0.859900	0.792900
H1291	H129	0.268700	0.883900	0.836100
C1661	C166	0.278900	0.892300	0.720500
C1671	C167	0.304800	0.854200	0.656500
H1301	H130	0.296900	0.874200	0.605500
C1681	C168	0.342800	0.785800	0.667700
H1311	H131	0.361100	0.760800	0.624000
C1691	C169	0.195600	0.098100	0.761200
C1701	C170	0.203300	0.155500	0.822600
H1321	H132	0.231700	0.145500	0.860400
C1711	C171	0.167700	0.230100	0.828100
H1331	H133	0.173900	0.269900	0.869100
C1721	C172	0.125300	0.245400	0.775800
C1731	C173	0.114600	0.183700	0.720900
H1341	H134	0.083600	0.190300	0.686500
C1741	C174	0.150100	0.109000	0.714900
H1351	H135	0.141400	0.066100	0.677500
C1751	C175	0.396200	0.680400	0.759100
C1761	C176	0.087400	0.326400	0.778800
C1771	C177	0.237600	0.968500	0.704600
C1781	C178	0.953800	0.513600	0.901000
H1361	H136	0.924300	0.472300	0.902400
C1791	C179	0.954900	0.579800	0.958400
H1371	H137	0.926700	0.581200	0.997600
C1801	C180	0.996800	0.642200	0.957500
C1811	C181	0.037200	0.635800	0.899100
H1381	H138	0.066900	0.676600	0.896700
C1821	C182	0.034400	0.568900	0.843200
H1391	H139	0.061900	0.566100	0.803200
C1831	C183	0.998200	0.715900	0.017700
H1401	H140	0.964500	0.712100	0.051400
H1411	H141	0.031900	0.709400	0.051100
C1841	C184	0.999700	0.805700	0.977800
H1421	H142	0.966900	0.811800	0.942500
H1431	H143	0.034400	0.811300	0.946400
C1851	C185	0.998000	0.877400	0.040900
C1861	C186	0.945800	0.903500	0.072200
H1441	H144	0.911800	0.879400	0.053100
C1871	C187	0.944300	0.965400	0.131900
H1451	H145	0.909000	0.982200	0.152800
C1881	C188	0.040800	0.980200	0.126200
H1461	H146	0.074000	0.008900	0.143000
C1891	C189	0.046400	0.918500	0.067300
H1471	H147	0.082200	0.905100	0.045900
Zn81	Zn8	0.488270	0.583420	0.743600
O361	O36	0.547200	0.668900	0.765700
O371	O37	0.596100	0.623500	0.662800
O381	O38	0.901900	0.349400	0.676000
O391	O39	0.924700	0.344000	0.801200
O401	O40	0.711900	0.025700	0.860200
N221	N22	0.732000	0.976600	0.738000
H1481	H148	0.751800	0.986000	0.695700
N231	N23	0.492100	0.998300	0.339400
N241	N24	0.492400	0.492100	0.654000
C1901	C190	0.853900	0.245700	0.757800
C1911	C191	0.825700	0.209000	0.695400
H1491	H149	0.831900	0.230400	0.644400
C1921	C192	0.788000	0.140100	0.707100
H1501	H150	0.768700	0.116100	0.663900
C1931	C193	0.778900	0.107700	0.779500
C1941	C194	0.804800	0.145800	0.843500
H1511	H151	0.796900	0.125800	0.894500
C1951	C195	0.842800	0.214200	0.832300
H1521	H152	0.861100	0.239200	0.876000
C1961	C196	0.695600	0.901900	0.738800
C1971	C197	0.703300	0.844500	0.677400
H1531	H153	0.731700	0.854500	0.639600
C1981	C198	0.667700	0.769900	0.671900
H1541	H154	0.673900	0.730100	0.630900
C1991	C199	0.625300	0.754600	0.724200
C2001	C200	0.614600	0.816300	0.779100
H1551	H155	0.583600	0.809700	0.813500
C2011	C201	0.650100	0.891000	0.785100
H1561	H156	0.641400	0.933900	0.822500
C2021	C202	0.896200	0.319600	0.740900
C2031	C203	0.587400	0.673600	0.721200
C2041	C204	0.737600	0.031500	0.795400
C2051	C205	0.453800	0.486400	0.599000
H1571	H157	0.424300	0.527700	0.597600
C2061	C206	0.454900	0.420200	0.541600
H1581	H158	0.426700	0.418800	0.502400
C2071	C207	0.496800	0.357800	0.542500
C2081	C208	0.537200	0.364200	0.600900
H1591	H159	0.566900	0.323400	0.603300
C2091	C209	0.534400	0.431100	0.656800
H1601	H160	0.561900	0.433900	0.696800
C2101	C210	0.498200	0.284100	0.482300
H1611	H161	0.464500	0.287900	0.448600
H1621	H162	0.531900	0.290600	0.448900
C2111	C211	0.499700	0.194300	0.522200
H1631	H163	0.466900	0.188200	0.557500
H1641	H164	0.534400	0.188700	0.553600
C2121	C212	0.498000	0.122600	0.459100
C2131	C213	0.445800	0.096500	0.427800
H1651	H165	0.411800	0.120600	0.446900
C2141	C214	0.444300	0.034600	0.368100
H1661	H166	0.409000	0.017800	0.347200
C2151	C215	0.540800	0.019800	0.373800
H1671	H167	0.574000	0.991100	0.357000
C2161	C216	0.546400	0.081500	0.432700
H1681	H168	0.582200	0.094900	0.454100
