data_COPXOV_clean_PM
_symmetry_space_group_name_H-M	'P1'
_cell_length_a	13.399700
_cell_length_b	13.669900
_cell_length_c	46.339000
_cell_angle_alpha	97.663300
_cell_angle_beta	90.000000
_cell_angle_gamma	119.348000
_symmetry_Int_Tables_number 1

loop_
_symmetry_equiv_pos_as_xyz
'x,y,z'

loop_
_atom_site_label
_atom_site_type_symbol
_atom_site_fract_x
_atom_site_fract_y
_atom_site_fract_z
Co11	Co1	0.352200	0.642840	0.880000
Co21	Co2	0.318880	0.643440	0.789880
Co31	Co3	0.013100	0.964100	0.956220
Co41	Co4	0.709360	0.357160	0.620000
Co51	Co5	0.675440	0.356560	0.710120
Co61	Co6	0.049000	0.035900	0.543780
Co71	Co7	0.647800	0.357160	0.120000
Co81	Co8	0.681120	0.356560	0.210120
Co91	Co9	0.986900	0.035900	0.043770
Co101	Co10	0.290640	0.642840	0.380000
Co111	Co11	0.324560	0.643440	0.289880
Co121	Co12	0.951000	0.964100	0.456220
H11	H1	0.643700	0.770400	0.947300
H21	H2	0.667200	0.917600	0.029900
H31	H3	0.362800	0.743800	0.984400
H41	H4	0.568900	0.912800	0.071600
H51	H5	0.589700	0.008800	0.053300
H61	H6	0.494200	0.972400	0.075500
H71	H7	0.328900	0.761000	0.064900
H81	H8	0.318200	0.692800	0.033900
H91	H9	0.417900	0.720600	0.056900
H101	H10	0.412700	0.967800	0.019200
H111	H11	0.306300	0.845000	0.016000
H121	H12	0.340100	0.925800	0.046000
H131	H13	0.576400	0.544600	0.865600
H141	H14	0.739400	0.414200	0.815900
H151	H15	0.502900	0.466200	0.778900
H161	H16	0.623000	0.316200	0.877100
H171	H17	0.724600	0.326800	0.858500
H181	H18	0.744500	0.359400	0.892600
H191	H19	0.904900	0.547200	0.885900
H201	H20	0.879600	0.507400	0.852100
H211	H21	0.886300	0.621800	0.865900
H221	H22	0.730600	0.607600	0.899700
H231	H23	0.626500	0.486800	0.901500
H241	H24	0.747200	0.523400	0.916300
H251	H25	0.182900	0.840400	0.889600
H261	H26	0.951800	0.896400	0.850800
H271	H27	0.094800	0.737000	0.803800
H281	H28	0.925500	0.917400	0.772900
H291	H29	0.974700	0.969600	0.805300
H301	H30	0.053100	0.954400	0.782100
H311	H31	0.765000	0.740200	0.785000
H321	H32	0.787100	0.680200	0.808800
H331	H33	0.802900	0.802200	0.817300
H341	H34	0.021000	0.766400	0.762400
H351	H35	0.932200	0.658800	0.775300
H361	H36	0.889200	0.713200	0.754200
H371	H37	0.613300	0.750800	0.886100
H381	H38	0.781200	0.915800	0.884600
H391	H39	0.596400	0.057200	0.864000
H401	H40	0.433500	0.889600	0.866800
H411	H41	0.800000	0.173400	0.868000
H421	H42	0.935300	0.088800	0.883300
H431	H43	0.143200	0.218000	0.881400
H441	H44	0.294900	0.397000	0.881200
H451	H45	0.089800	0.521000	0.879200
H461	H46	0.933500	0.346600	0.878600
H471	H47	0.057600	0.532000	0.781100
H481	H48	0.889800	0.365800	0.781600
H491	H49	0.075500	0.231800	0.807200
H501	H50	0.237700	0.399800	0.804900
H511	H51	0.873200	0.110600	0.800300
H521	H52	0.737400	0.194400	0.784600
H531	H53	0.529900	0.065000	0.787100
H541	H54	0.378900	0.886600	0.788400
H551	H55	0.583300	0.763000	0.790300
H561	H56	0.739600	0.938200	0.790200
H571	H57	0.846700	0.717000	0.968100
H581	H58	0.841700	0.549800	0.971200
H591	H59	0.168000	0.690400	0.950100
H601	H60	0.165600	0.855000	0.949400
H611	H61	0.926200	0.430000	0.965800
H621	H62	0.149200	0.517400	0.952900
H631	H63	0.888800	0.258400	0.954200
H641	H64	0.870600	0.083600	0.954200
H651	H65	0.201500	0.212200	0.959000
H661	H66	0.228400	0.390200	0.958000
H671	H67	0.873300	0.229600	0.552700
H681	H68	0.749600	0.082400	0.470100
H691	H69	0.619000	0.256200	0.515600
H701	H70	0.656100	0.087200	0.428400
H711	H71	0.580900	0.991200	0.446700
H721	H72	0.521800	0.027600	0.424500
H731	H73	0.567900	0.239000	0.435100
H741	H74	0.625400	0.307200	0.466100
H751	H75	0.697300	0.279400	0.443100
H761	H76	0.444900	0.032200	0.480800
H771	H77	0.461300	0.155000	0.484000
H781	H78	0.414300	0.074200	0.454000
H791	H79	0.031800	0.455400	0.634400
H801	H80	0.325200	0.585800	0.684100
H811	H81	0.036700	0.533800	0.721100
H821	H82	0.306800	0.683800	0.622900
H831	H83	0.397800	0.673200	0.641500
H841	H84	0.385100	0.640600	0.607400
H851	H85	0.357700	0.452800	0.614100
H861	H86	0.372200	0.492600	0.647900
H871	H87	0.264500	0.378200	0.634100
H881	H88	0.123000	0.392400	0.600300
H891	H89	0.139700	0.513200	0.598500
H901	H90	0.223800	0.476600	0.583700
H911	H91	0.342500	0.159600	0.610400
H921	H92	0.055400	0.103600	0.649200
H931	H93	0.357800	0.263000	0.696200
H941	H94	0.008100	0.082600	0.727100
H951	H95	0.005100	0.030400	0.694700
H961	H96	0.098700	0.045600	0.717900
H971	H97	0.024800	0.259800	0.715000
H981	H98	0.106900	0.319800	0.691200
H991	H99	0.000700	0.197800	0.682700
H1001	H100	0.254600	0.233600	0.737600
H1011	H101	0.273400	0.341200	0.724700
H1021	H102	0.176000	0.286800	0.745800
H1031	H103	0.862500	0.249200	0.613900
H1041	H104	0.865400	0.084200	0.615400
H1051	H105	0.539200	0.942800	0.636000
H1061	H106	0.543900	0.110400	0.633200
H1071	H107	0.626600	0.826600	0.632000
H1081	H108	0.846500	0.911200	0.616700
H1091	H109	0.925200	0.782000	0.618600
H1101	H110	0.897900	0.603000	0.618800
H1111	H111	0.568800	0.479000	0.620800
H1121	H112	0.586900	0.653400	0.621400
H1131	H113	0.525600	0.468000	0.718900
H1141	H114	0.524000	0.634200	0.718400
H1151	H115	0.843700	0.768200	0.692800
H1161	H116	0.837900	0.600200	0.695100
H1171	H117	0.762600	0.889400	0.699700
H1181	H118	0.543000	0.805600	0.715400
H1191	H119	0.464900	0.935000	0.712900
H1201	H120	0.492300	0.113400	0.711600
H1211	H121	0.820300	0.237000	0.709700
H1221	H122	0.801400	0.061800	0.709800
H1231	H123	0.129700	0.283000	0.531900
H1241	H124	0.291900	0.450200	0.528800
H1251	H125	0.477600	0.309600	0.549900
H1261	H126	0.310600	0.145000	0.550600
H1271	H127	0.496200	0.570000	0.534200
H1281	H128	0.631800	0.482600	0.547100
H1291	H129	0.630400	0.741600	0.545800
H1301	H130	0.787000	0.916400	0.545800
H1311	H131	0.989300	0.787800	0.541000
H1321	H132	0.838200	0.609800	0.542000
H1331	H133	0.356300	0.229600	0.052700
H1341	H134	0.332800	0.082400	0.970100
H1351	H135	0.637200	0.256200	0.015600
H1361	H136	0.431100	0.087200	0.928400
H1371	H137	0.410300	0.991200	0.946700
H1381	H138	0.505800	0.027600	0.924500
H1391	H139	0.671100	0.239000	0.935100
H1401	H140	0.681800	0.307200	0.966100
H1411	H141	0.582100	0.279400	0.943100
H1421	H142	0.587300	0.032200	0.980800
H1431	H143	0.693700	0.155000	0.984000
H1441	H144	0.659900	0.074200	0.954000
H1451	H145	0.423600	0.455400	0.134400
H1461	H146	0.260600	0.585800	0.184100
H1471	H147	0.497100	0.533800	0.221100
H1481	H148	0.377000	0.683800	0.122900
H1491	H149	0.275400	0.673200	0.141500
H1501	H150	0.255500	0.640600	0.107400
H1511	H151	0.095100	0.452800	0.114100
H1521	H152	0.120400	0.492600	0.147900
H1531	H153	0.113700	0.378200	0.134100
H1541	H154	0.269400	0.392400	0.100300
H1551	H155	0.373500	0.513200	0.098500
H1561	H156	0.252800	0.476600	0.083700
H1571	H157	0.817100	0.159600	0.110400
H1581	H158	0.048200	0.103600	0.149200
H1591	H159	0.905200	0.263000	0.196200
H1601	H160	0.074500	0.082600	0.227100
H1611	H161	0.025300	0.030400	0.194700
H1621	H162	0.946900	0.045600	0.217900
H1631	H163	0.235000	0.259800	0.215000
H1641	H164	0.212900	0.319800	0.191200
H1651	H165	0.197100	0.197800	0.182700
H1661	H166	0.979000	0.233600	0.237600
H1671	H167	0.067800	0.341200	0.224700
H1681	H168	0.110800	0.286800	0.245800
H1691	H169	0.386700	0.249200	0.113900
H1701	H170	0.218800	0.084200	0.115400
H1711	H171	0.403600	0.942800	0.136000
H1721	H172	0.566500	0.110400	0.133200
H1731	H173	0.200000	0.826600	0.132000
H1741	H174	0.064700	0.911200	0.116700
H1751	H175	0.856800	0.782000	0.118600
H1761	H176	0.705100	0.603000	0.118800
H1771	H177	0.910200	0.479000	0.120800
H1781	H178	0.066500	0.653400	0.121400
H1791	H179	0.942400	0.468000	0.218900
H1801	H180	0.110200	0.634200	0.218400
H1811	H181	0.924500	0.768200	0.192800
H1821	H182	0.762300	0.600200	0.195100
H1831	H183	0.126800	0.889400	0.199700
H1841	H184	0.262600	0.805600	0.215400
H1851	H185	0.470100	0.935000	0.212900
H1861	H186	0.621100	0.113400	0.211600
H1871	H187	0.416700	0.237000	0.209700
H1881	H188	0.260400	0.061800	0.209800
H1891	H189	0.153300	0.283000	0.031900
H1901	H190	0.158300	0.450200	0.028800
H1911	H191	0.832000	0.309600	0.049900
H1921	H192	0.834400	0.145000	0.050600
H1931	H193	0.073800	0.570000	0.034200
H1941	H194	0.850800	0.482600	0.047100
H1951	H195	0.111200	0.741600	0.045800
H1961	H196	0.129400	0.916400	0.045800
H1971	H197	0.798500	0.787800	0.041000
H1981	H198	0.771600	0.609800	0.042000
H1991	H199	0.126700	0.770400	0.447300
H2001	H200	0.250400	0.917600	0.529900
H2011	H201	0.381000	0.743800	0.484400
H2021	H202	0.343900	0.912800	0.571600
H2031	H203	0.419100	0.008800	0.553300
H2041	H204	0.478200	0.972400	0.575500
H2051	H205	0.432100	0.761000	0.564900
H2061	H206	0.374600	0.692800	0.533900
H2071	H207	0.302700	0.720600	0.556900
H2081	H208	0.555100	0.967800	0.519200
H2091	H209	0.538700	0.845000	0.516000
H2101	H210	0.585700	0.925800	0.546000
H2111	H211	0.968200	0.544600	0.365600
H2121	H212	0.674800	0.414200	0.315900
H2131	H213	0.963300	0.466200	0.278900
H2141	H214	0.693200	0.316200	0.377100
H2151	H215	0.602200	0.326800	0.358500
H2161	H216	0.614900	0.359400	0.392600
H2171	H217	0.642300	0.547200	0.385900
H2181	H218	0.627800	0.507400	0.352100
H2191	H219	0.735500	0.621800	0.365900
H2201	H220	0.877000	0.607600	0.399700
H2211	H221	0.860300	0.486800	0.401500
H2221	H222	0.776200	0.523400	0.416300
H2231	H223	0.657500	0.840400	0.389600
H2241	H224	0.944600	0.896400	0.350800
H2251	H225	0.642200	0.737000	0.303800
H2261	H226	0.991900	0.917400	0.272900
H2271	H227	0.994900	0.969600	0.305300
H2281	H228	0.901300	0.954400	0.282100
H2291	H229	0.975200	0.740200	0.285000
H2301	H230	0.893100	0.680200	0.308800
H2311	H231	0.999300	0.802200	0.317300
H2321	H232	0.745400	0.766400	0.262400
H2331	H233	0.726600	0.658800	0.275300
H2341	H234	0.824000	0.713200	0.254200
H2351	H235	0.137500	0.750800	0.386100
H2361	H236	0.134600	0.915800	0.384600
H2371	H237	0.460800	0.057200	0.364000
H2381	H238	0.456100	0.889600	0.366800
H2391	H239	0.373400	0.173400	0.368000
H2401	H240	0.153500	0.088800	0.383300
H2411	H241	0.074800	0.218000	0.381400
H2421	H242	0.102100	0.397000	0.381200
H2431	H243	0.431200	0.521000	0.379200
H2441	H244	0.413100	0.346600	0.378600
H2451	H245	0.474400	0.532000	0.281100
H2461	H246	0.476000	0.365800	0.281600
H2471	H247	0.156300	0.231800	0.307200
H2481	H248	0.162100	0.399800	0.304900
H2491	H249	0.237400	0.110600	0.300300
H2501	H250	0.457000	0.194400	0.284600
H2511	H251	0.535100	0.065000	0.287100
H2521	H252	0.507700	0.886600	0.288400
H2531	H253	0.179700	0.763000	0.290300
H2541	H254	0.198600	0.938200	0.290200
H2551	H255	0.870300	0.717000	0.468100
H2561	H256	0.708100	0.549800	0.471200
H2571	H257	0.522400	0.690400	0.450100
H2581	H258	0.689400	0.855000	0.449400
H2591	H259	0.503800	0.430000	0.465800
H2601	H260	0.368200	0.517400	0.452900
H2611	H261	0.369600	0.258400	0.454200
H2621	H262	0.213000	0.083600	0.454200
H2631	H263	0.010700	0.212200	0.459000
H2641	H264	0.161800	0.390200	0.458000
C11	C1	0.491660	0.745320	0.961640
C21	C2	0.609300	0.787400	0.963190
C31	C3	0.675580	0.854960	0.988440
C41	C4	0.622560	0.875320	0.012700
C51	C5	0.504890	0.833980	0.011830
C61	C6	0.441550	0.770500	0.985770
C71	C7	0.423010	0.684620	0.933100
C81	C8	0.804350	0.911100	0.989490
C91	C9	0.446500	0.858200	0.038090
C101	C10	0.532600	0.946000	0.061770
C111	C11	0.371000	0.748200	0.049490
C121	C12	0.369200	0.903400	0.028990
C131	C13	0.529330	0.514860	0.822490
C141	C14	0.589660	0.517320	0.847410
C151	C15	0.669410	0.479420	0.845430
C161	C16	0.685000	0.437800	0.817820
C171	C17	0.622410	0.430220	0.792910
C181	C18	0.544670	0.469940	0.795430
C191	C19	0.447830	0.560860	0.825410
C201	C20	0.641110	0.386220	0.763260
C211	C21	0.737400	0.483400	0.872660
C221	C22	0.704200	0.359800	0.875480
C231	C23	0.863300	0.545400	0.868800
C241	C24	0.707900	0.529400	0.899920
C251	C25	0.148570	0.779140	0.846610
C261	C26	0.140120	0.834040	0.872940
C271	C27	0.067340	0.879880	0.874490
C281	C28	0.002210	0.867820	0.849460
C291	C29	0.010180	0.814560	0.822540
C301	C30	0.085970	0.771540	0.821600
C311	C31	0.225260	0.727320	0.844780
C321	C32	0.052350	0.933500	0.903450
C331	C33	0.938300	0.804400	0.795370
C341	C34	0.976400	0.922200	0.788270
C351	C35	0.811400	0.751800	0.802260
C361	C36	0.945900	0.728800	0.769440
C371	C37	0.609870	0.813740	0.881830
C381	C38	0.711520	0.912840	0.880800
C391	C39	0.709930	0.008060	0.874180
C401	C40	0.602340	0.996280	0.868750
C411	C41	0.504260	0.894720	0.870410
C421	C42	0.812300	0.116600	0.873320
C431	C43	0.920380	0.145160	0.879030
C441	C44	0.018830	0.259060	0.879140
C451	C45	0.129650	0.278100	0.880570
C461	C46	0.220930	0.386660	0.880790
C471	C47	0.101010	0.459220	0.879500
C481	C48	0.006450	0.354300	0.879030
C491	C49	0.060990	0.469980	0.786060
C501	C50	0.959570	0.370540	0.786510
C511	C51	0.962330	0.277660	0.794280
C521	C52	0.069690	0.291580	0.801460
C531	C53	0.166900	0.393200	0.800150
C541	C54	0.860390	0.167180	0.795050
C551	C55	0.752620	0.138640	0.789180
C561	C56	0.654890	0.024380	0.789420
C571	C57	0.543700	0.005200	0.788200
C581	C58	0.452900	0.897000	0.788590
C591	C59	0.571990	0.824780	0.789850
C601	C60	0.666710	0.930420	0.789880
C611	C61	0.912400	0.711800	0.964610
C621	C62	0.908450	0.610500	0.966280
C631	C63	0.003770	0.598540	0.960610
C641	C64	0.101530	0.693660	0.954050
C651	C65	0.098830	0.791860	0.953430
C661	C66	0.996460	0.487720	0.961400
C671	C67	0.077250	0.460500	0.956580
C681	C68	0.061380	0.346560	0.956700
C691	C69	0.954300	0.251400	0.955230
C701	C70	0.944020	0.146240	0.955250
C711	C71	0.137270	0.221340	0.957890
C721	C72	0.154330	0.329260	0.957590
C731	C73	0.746340	0.254680	0.538360
C741	C74	0.821900	0.212600	0.536810
C751	C75	0.820620	0.145040	0.511560
C761	C76	0.747240	0.124680	0.487300
C771	C77	0.670910	0.166020	0.488170
C781	C78	0.671050	0.229500	0.514230
C791	C79	0.738390	0.315380	0.566900
C801	C80	0.893250	0.088900	0.510510
C811	C81	0.588300	0.141800	0.461910
C821	C82	0.586600	0.054000	0.438230
C831	C83	0.622800	0.251800	0.450510
C841	C84	0.465800	0.096600	0.471010
C851	C85	0.014470	0.485140	0.677510
C861	C86	0.072340	0.482680	0.652590
C871	C87	0.189990	0.520580	0.654570
C881	C88	0.247200	0.562200	0.682180
C891	C89	0.192190	0.569780	0.707090
C901	C90	0.074730	0.530060	0.704570
C911	C91	0.886970	0.439140	0.674590
C921	C92	0.254890	0.613780	0.736740
C931	C93	0.254000	0.516600	0.627340
C941	C94	0.344400	0.640200	0.624520
C951	C95	0.317900	0.454600	0.631200
C961	C96	0.178500	0.470600	0.600080
C971	C97	0.369430	0.220860	0.653390
C981	C98	0.306080	0.165960	0.627060
C991	C99	0.187460	0.120120	0.625510
C1001	C100	0.134390	0.132180	0.650540
C1011	C101	0.195620	0.185440	0.677460
C1021	C102	0.314430	0.228460	0.678400
C1031	C103	0.497940	0.272680	0.655220
C1041	C104	0.118850	0.066500	0.596550
C1051	C105	0.133900	0.195600	0.704630
C1061	C106	0.054200	0.077800	0.711730
C1071	C107	0.059600	0.248200	0.697740
C1081	C108	0.217100	0.271200	0.730560
C1091	C109	0.796130	0.186260	0.618170
C1101	C110	0.798680	0.087160	0.619200
C1111	C111	0.701870	0.991940	0.625820
C1121	C112	0.606060	0.003720	0.631250
C1131	C113	0.609540	0.105280	0.629590
C1141	C114	0.695700	0.883400	0.626680
C1151	C115	0.775220	0.854840	0.620970
C1161	C116	0.759770	0.740940	0.620860
C1171	C117	0.851550	0.721900	0.619430
C1181	C118	0.834270	0.613340	0.619210
C1191	C119	0.641790	0.540780	0.620500
C1201	C120	0.652150	0.645700	0.620970
C1211	C121	0.591010	0.530020	0.713940
C1221	C122	0.589030	0.629460	0.713490
C1231	C123	0.684670	0.722340	0.705720
C1241	C124	0.778110	0.708420	0.698540
C1251	C125	0.773700	0.606800	0.699850
C1261	C126	0.693210	0.832820	0.704950
C1271	C127	0.613980	0.861360	0.710820
C1281	C128	0.630510	0.975620	0.710580
C1291	C129	0.538500	0.994800	0.711800
C1301	C130	0.555900	0.103000	0.711410
C1311	C131	0.747210	0.175220	0.710150
C1321	C132	0.736290	0.069580	0.710120
C1331	C133	0.200600	0.288200	0.535390
C1341	C134	0.297950	0.389500	0.533720
C1351	C135	0.405230	0.401460	0.539390
C1361	C136	0.407870	0.306340	0.545950
C1371	C137	0.306970	0.208140	0.546570
C1381	C138	0.508740	0.512280	0.538600
C1391	C139	0.616750	0.539500	0.543420
C1401	C140	0.714820	0.653440	0.543300
C1411	C141	0.702900	0.748600	0.544770
C1421	C142	0.797780	0.853760	0.544750
C1431	C143	0.915930	0.778660	0.542110
C1441	C144	0.825070	0.670740	0.542410
C1451	C145	0.508340	0.254680	0.038360
C1461	C146	0.390700	0.212600	0.036810
C1471	C147	0.324420	0.145040	0.011560
C1481	C148	0.377440	0.124680	0.987300
C1491	C149	0.495110	0.166020	0.988170
C1501	C150	0.558450	0.229500	0.014230
C1511	C151	0.576990	0.315380	0.066900
C1521	C152	0.195650	0.088900	0.010510
C1531	C153	0.553500	0.141800	0.961910
C1541	C154	0.467400	0.054000	0.938230
C1551	C155	0.629000	0.251800	0.950510
C1561	C156	0.630800	0.096600	0.971010
C1571	C157	0.470670	0.485140	0.177510
C1581	C158	0.410340	0.482680	0.152590
C1591	C159	0.330590	0.520580	0.154570
C1601	C160	0.315000	0.562200	0.182180
C1611	C161	0.377590	0.569780	0.207090
C1621	C162	0.455330	0.530060	0.204570
C1631	C163	0.552170	0.439140	0.174590
C1641	C164	0.358890	0.613780	0.236740
C1651	C165	0.262600	0.516600	0.127340
C1661	C166	0.295800	0.640200	0.124520
C1671	C167	0.136700	0.454600	0.131200
C1681	C168	0.292100	0.470600	0.100080
C1691	C169	0.851430	0.220860	0.153390
C1701	C170	0.859880	0.165960	0.127060
C1711	C171	0.932660	0.120120	0.125510
C1721	C172	0.997790	0.132180	0.150540
C1731	C173	0.989820	0.185440	0.177460
C1741	C174	0.914030	0.228460	0.178400
C1751	C175	0.774740	0.272680	0.155220
C1761	C176	0.947650	0.066500	0.096550
C1771	C177	0.061700	0.195600	0.204630
C1781	C178	0.023600	0.077800	0.211730
C1791	C179	0.188600	0.248200	0.197740
C1801	C180	0.054100	0.271200	0.230560
C1811	C181	0.390130	0.186260	0.118170
C1821	C182	0.288480	0.087160	0.119200
C1831	C183	0.290070	0.991940	0.125820
C1841	C184	0.397660	0.003720	0.131250
C1851	C185	0.495740	0.105280	0.129590
C1861	C186	0.187700	0.883400	0.126680
C1871	C187	0.079620	0.854840	0.120970
C1881	C188	0.981170	0.740940	0.120860
C1891	C189	0.870350	0.721900	0.119430
C1901	C190	0.779070	0.613340	0.119210
C1911	C191	0.898990	0.540780	0.120500
C1921	C192	0.993550	0.645700	0.120970
C1931	C193	0.939010	0.530020	0.213940
C1941	C194	0.040430	0.629460	0.213490
C1951	C195	0.037670	0.722340	0.205720
C1961	C196	0.930310	0.708420	0.198540
C1971	C197	0.833100	0.606800	0.199850
C1981	C198	0.139610	0.832820	0.204950
C1991	C199	0.247380	0.861360	0.210820
C2001	C200	0.345110	0.975620	0.210580
C2011	C201	0.456300	0.994800	0.211800
C2021	C202	0.547100	0.103000	0.211410
C2031	C203	0.428010	0.175220	0.210150
C2041	C204	0.333290	0.069580	0.210120
C2051	C205	0.087600	0.288200	0.035390
C2061	C206	0.091550	0.389500	0.033720
C2071	C207	0.996230	0.401460	0.039390
C2081	C208	0.898470	0.306340	0.045950
C2091	C209	0.901170	0.208140	0.046570
C2101	C210	0.003540	0.512280	0.038600
C2111	C211	0.922750	0.539500	0.043420
C2121	C212	0.938620	0.653440	0.043300
C2131	C213	0.045700	0.748600	0.044770
C2141	C214	0.055980	0.853760	0.044750
C2151	C215	0.862730	0.778660	0.042110
C2161	C216	0.845670	0.670740	0.042410
C2171	C217	0.253660	0.745320	0.461640
C2181	C218	0.178100	0.787400	0.463190
C2191	C219	0.179380	0.854960	0.488440
C2201	C220	0.252760	0.875320	0.512700
C2211	C221	0.329090	0.833980	0.511830
C2221	C222	0.328950	0.770500	0.485770
C2231	C223	0.261610	0.684620	0.433100
C2241	C224	0.106750	0.911100	0.489490
C2251	C225	0.411700	0.858200	0.538090
C2261	C226	0.413400	0.946000	0.561770
C2271	C227	0.377200	0.748200	0.549490
C2281	C228	0.534200	0.903400	0.528990
C2291	C229	0.985530	0.514860	0.322490
C2301	C230	0.927660	0.517320	0.347410
C2311	C231	0.810010	0.479420	0.345430
C2321	C232	0.752800	0.437800	0.317820
C2331	C233	0.807810	0.430220	0.292910
C2341	C234	0.925270	0.469940	0.295430
C2351	C235	0.113030	0.560860	0.325410
C2361	C236	0.745110	0.386220	0.263260
C2371	C237	0.746000	0.483400	0.372660
C2381	C238	0.655600	0.359800	0.375480
C2391	C239	0.682100	0.545400	0.368800
C2401	C240	0.821500	0.529400	0.399920
C2411	C241	0.630570	0.779140	0.346610
C2421	C242	0.693920	0.834040	0.372940
C2431	C243	0.812540	0.879880	0.374490
C2441	C244	0.865610	0.867820	0.349460
C2451	C245	0.804380	0.814560	0.322540
C2461	C246	0.685570	0.771540	0.321600
C2471	C247	0.502060	0.727320	0.344780
C2481	C248	0.881150	0.933500	0.403450
C2491	C249	0.866100	0.804400	0.295370
C2501	C250	0.945800	0.922200	0.288270
C2511	C251	0.940400	0.751800	0.302260
C2521	C252	0.782900	0.728800	0.269440
C2531	C253	0.203870	0.813740	0.381830
C2541	C254	0.201320	0.912840	0.380800
C2551	C255	0.298130	0.008060	0.374180
C2561	C256	0.393940	0.996280	0.368750
C2571	C257	0.390460	0.894720	0.370410
C2581	C258	0.304300	0.116600	0.373320
C2591	C259	0.224780	0.145160	0.379030
C2601	C260	0.240230	0.259060	0.379140
C2611	C261	0.148450	0.278100	0.380570
C2621	C262	0.165730	0.386660	0.380790
C2631	C263	0.358210	0.459220	0.379500
C2641	C264	0.347850	0.354300	0.379030
C2651	C265	0.408990	0.469980	0.286060
C2661	C266	0.410970	0.370540	0.286510
C2671	C267	0.315330	0.277660	0.294280
C2681	C268	0.221890	0.291580	0.301460
C2691	C269	0.226300	0.393200	0.300150
C2701	C270	0.306790	0.167180	0.295050
C2711	C271	0.386020	0.138640	0.289180
C2721	C272	0.369490	0.024380	0.289420
C2731	C273	0.461500	0.005200	0.288200
C2741	C274	0.444100	0.897000	0.288590
C2751	C275	0.252790	0.824780	0.289850
C2761	C276	0.263710	0.930420	0.289880
C2771	C277	0.799400	0.711800	0.464610
C2781	C278	0.702050	0.610500	0.466280
C2791	C279	0.594770	0.598540	0.460610
C2801	C280	0.592130	0.693660	0.454050
C2811	C281	0.693030	0.791860	0.453430
C2821	C282	0.491260	0.487720	0.461400
C2831	C283	0.383250	0.460500	0.456580
C2841	C284	0.285180	0.346560	0.456700
C2851	C285	0.297100	0.251400	0.455230
C2861	C286	0.202220	0.146240	0.455250
C2871	C287	0.084070	0.221340	0.457890
C2881	C288	0.174930	0.329260	0.457590
N11	N1	0.506290	0.803380	0.876970
N21	N2	0.208140	0.477280	0.880430
N31	N3	0.165390	0.482580	0.792490
N41	N4	0.465750	0.807300	0.789220
N51	N5	0.005820	0.803240	0.958240
N61	N6	0.033570	0.129140	0.956650
N71	N7	0.702910	0.196620	0.623030
N81	N8	0.730860	0.522720	0.619570
N91	N9	0.682810	0.517420	0.707510
N101	N10	0.658450	0.192700	0.710780
N111	N11	0.202580	0.196760	0.541760
N121	N12	0.904430	0.870860	0.543350
N131	N13	0.493710	0.196620	0.123030
N141	N14	0.791860	0.522720	0.119570
N151	N15	0.834610	0.517420	0.207510
N161	N16	0.534250	0.192700	0.210780
N171	N17	0.994180	0.196760	0.041760
N181	N18	0.966430	0.870860	0.043350
N191	N19	0.297090	0.803380	0.376970
N201	N20	0.269140	0.477280	0.380430
N211	N21	0.317190	0.482580	0.292490
N221	N22	0.341550	0.807300	0.289220
N231	N23	0.797420	0.803240	0.458240
N241	N24	0.095570	0.129140	0.456650
O11	O1	0.453610	0.628060	0.915360
O21	O2	0.340290	0.697860	0.926080
O31	O3	0.848340	0.895540	0.966680
O41	O4	0.858980	0.972420	0.012600
O51	O5	0.411880	0.569180	0.849770
O61	O6	0.421710	0.586280	0.802570
O71	O7	0.558970	0.336740	0.744060
O81	O8	0.739590	0.403980	0.757440
O91	O9	0.262230	0.717360	0.820590
O101	O10	0.247710	0.700100	0.867610
O111	O11	0.136520	0.987080	0.922040
O121	O12	0.955220	0.918040	0.909160
O131	O13	0.825550	0.371940	0.584640
O141	O14	0.642430	0.302140	0.573920
O151	O15	0.952800	0.104460	0.533320
O161	O16	0.886560	0.027580	0.487400
O171	O17	0.842700	0.430820	0.650230
O181	O18	0.835430	0.413720	0.697430
O191	O19	0.222230	0.663260	0.755940
O201	O20	0.335610	0.596020	0.742560
O211	O21	0.544870	0.282640	0.679410
O221	O22	0.547610	0.299900	0.632390
O231	O23	0.149440	0.012920	0.577960
O241	O24	0.037180	0.081960	0.590840
O251	O25	0.546390	0.371940	0.084640
O261	O26	0.659710	0.302140	0.073920
O271	O27	0.151660	0.104460	0.033320
O281	O28	0.141020	0.027580	0.987400
O291	O29	0.588120	0.430820	0.150230
O301	O30	0.578290	0.413720	0.197430
O311	O31	0.441030	0.663260	0.255940
O321	O32	0.260410	0.596020	0.242560
O331	O33	0.737770	0.282640	0.179410
O341	O34	0.752290	0.299900	0.132390
O351	O35	0.863480	0.012920	0.077960
O361	O36	0.044780	0.081960	0.090840
O371	O37	0.174450	0.628060	0.415360
O381	O38	0.357570	0.697860	0.426080
O391	O39	0.047200	0.895540	0.466680
O401	O40	0.113440	0.972420	0.512600
O411	O41	0.157300	0.569180	0.349770
O421	O42	0.164570	0.586280	0.302570
O431	O43	0.777770	0.336740	0.244060
O441	O44	0.664390	0.403980	0.257440
O451	O45	0.455130	0.717360	0.320590
O461	O46	0.452390	0.700100	0.367610
O471	O47	0.850560	0.987080	0.422040
O481	O48	0.962820	0.918040	0.409160
