data_COQHUN_clean_PM
_symmetry_space_group_name_H-M	'P1'
_cell_length_a	12.398900
_cell_length_b	33.418000
_cell_length_c	12.944500
_cell_angle_alpha	90.000000
_cell_angle_beta	98.312000
_cell_angle_gamma	90.000000
_symmetry_Int_Tables_number 1

loop_
_symmetry_equiv_pos_as_xyz
'x,y,z'

loop_
_atom_site_label
_atom_site_type_symbol
_atom_site_fract_x
_atom_site_fract_y
_atom_site_fract_z
Mn11	Mn1	0.299430	0.430720	0.893930
N11	N1	0.113300	0.367900	0.804500
O11	O1	0.305100	0.423840	0.055600
O21	O2	0.445100	0.378350	0.913000
O31	O3	0.473200	0.443270	0.907100
O41	O4	0.229900	0.486710	0.851000
O51	O5	0.369500	0.527160	0.903100
N21	N2	0.299700	0.411760	0.724500
O61	O6	0.397000	0.478760	0.108300
N31	N3	0.239200	0.379560	0.684800
N41	N4	0.137600	0.400290	0.869200
N51	N5	0.930700	0.714680	0.681100
C11	C1	0.300600	0.421150	0.441600
N61	N6	0.868700	0.706220	0.758500
C21	C2	0.043500	0.412100	0.898100
C31	C3	0.842100	0.390610	0.864200
C41	C4	0.328400	0.430850	0.642300
C51	C5	0.346000	0.447800	0.123400
C61	C6	0.958200	0.386580	0.851700
C71	C7	0.331100	0.438870	0.235000
C81	C8	0.273000	0.520660	0.864700
C91	C9	0.625400	0.400690	0.894100
C101	C10	0.684800	0.432760	0.865500
H11	H1	0.651600	0.458400	0.855800
C111	C11	0.508800	0.407270	0.907100
C121	C12	0.200800	0.351510	0.756800
H21	H2	0.175700	0.326700	0.718800
H31	H3	0.261900	0.344400	0.811700
C131	C13	0.014400	0.687590	0.680900
C141	C14	0.091000	0.552240	0.797800
H41	H4	0.059600	0.526300	0.791100
C151	C15	0.791500	0.427870	0.851000
H51	H5	0.831500	0.450200	0.831600
C161	C16	0.201800	0.556690	0.832300
C171	C17	0.285300	0.410890	0.549500
C181	C18	0.006200	0.358880	0.793600
C191	C19	0.002500	0.660440	0.757200
C201	C20	0.026500	0.585790	0.773300
H61	H6	0.950600	0.582600	0.750400
C211	C21	0.071200	0.624050	0.781600
C221	C22	0.040300	0.446900	0.971400
H71	H7	0.026500	0.471600	0.931000
H81	H8	0.110400	0.449000	0.017100
H91	H9	0.981900	0.442700	0.013900
C231	C23	0.913100	0.672140	0.805600
C241	C24	0.672600	0.362920	0.907600
H101	H10	0.631200	0.340700	0.925000
C251	C25	0.782300	0.358240	0.895000
H111	H11	0.816400	0.332900	0.907300
C261	C26	0.228200	0.378560	0.579700
C271	C27	0.330600	0.399240	0.268900
H121	H12	0.339200	0.378200	0.221500
C281	C28	0.315700	0.469180	0.304500
H131	H13	0.316100	0.496300	0.282300
C291	C29	0.247900	0.594330	0.840400
H141	H14	0.323900	0.597300	0.862600
C301	C30	0.317900	0.390320	0.370200
H151	H15	0.320800	0.363200	0.392600
C311	C31	0.874400	0.654390	0.898700
H161	H16	0.809800	0.668900	0.913800
H171	H17	0.932100	0.656300	0.958800
H181	H18	0.855800	0.626200	0.885100
C321	C32	0.299800	0.460430	0.406400
H191	H19	0.288100	0.481600	0.452500
C331	C33	0.182300	0.628240	0.815900
H201	H20	0.214000	0.654200	0.822700
C341	C34	0.397000	0.467970	0.655700
H211	H21	0.432600	0.469900	0.728200
H221	H22	0.350600	0.491500	0.638600
H231	H23	0.452500	0.466800	0.609100
C351	C35	0.094200	0.691150	0.606100
H241	H24	0.145400	0.712900	0.628300
H251	H25	0.055500	0.696900	0.536300
H261	H26	0.134400	0.666000	0.604600
C361	C36	0.956800	0.325360	0.726600
H271	H27	0.985900	0.299800	0.755700
H281	H28	0.974500	0.328500	0.655700
H291	H29	0.877500	0.325700	0.724600
C371	C37	0.159500	0.348000	0.516800
H301	H30	0.086000	0.348200	0.536300
H311	H31	0.192000	0.321500	0.530500
H321	H32	0.155400	0.354300	0.442400
Mn21	Mn2	0.700570	0.930720	0.106070
N71	N7	0.886700	0.867900	0.195500
O71	O7	0.694900	0.923840	0.944400
O81	O8	0.554900	0.878350	0.087000
O91	O9	0.526800	0.943270	0.092900
O101	O10	0.770100	0.986710	0.149000
O111	O11	0.630500	0.027160	0.096900
N81	N8	0.700300	0.911760	0.275500
O121	O12	0.603000	0.978760	0.891700
N91	N9	0.760800	0.879560	0.315200
N101	N10	0.862400	0.900290	0.130800
N111	N11	0.069300	0.214680	0.318900
C381	C38	0.699400	0.921150	0.558400
N121	N12	0.131300	0.206220	0.241500
C391	C39	0.956500	0.912100	0.101900
C401	C40	0.157900	0.890610	0.135800
C411	C41	0.671600	0.930850	0.357700
C421	C42	0.654000	0.947800	0.876600
C431	C43	0.041800	0.886580	0.148300
C441	C44	0.668900	0.938870	0.765000
C451	C45	0.727000	0.020660	0.135300
C461	C46	0.374600	0.900690	0.105900
C471	C47	0.315200	0.932760	0.134500
H331	H33	0.348400	0.958400	0.144200
C481	C48	0.491200	0.907270	0.092900
C491	C49	0.799200	0.851510	0.243200
H341	H34	0.824300	0.826700	0.281200
H351	H35	0.738100	0.844400	0.188300
C501	C50	0.985600	0.187590	0.319100
C511	C51	0.909000	0.052240	0.202200
H361	H36	0.940400	0.026300	0.208900
C521	C52	0.208500	0.927870	0.149000
H371	H37	0.168500	0.950200	0.168400
C531	C53	0.798200	0.056690	0.167700
C541	C54	0.714700	0.910890	0.450500
C551	C55	0.993800	0.858880	0.206400
C561	C56	0.997500	0.160440	0.242800
C571	C57	0.973500	0.085790	0.226700
H381	H38	0.049400	0.082600	0.249600
C581	C58	0.928800	0.124050	0.218400
C591	C59	0.959700	0.946900	0.028600
H391	H39	0.973500	0.971600	0.069000
H401	H40	0.889600	0.949000	0.982900
H411	H41	0.018100	0.942700	0.986100
C601	C60	0.086900	0.172140	0.194400
C611	C61	0.327400	0.862920	0.092400
H421	H42	0.368800	0.840700	0.075000
C621	C62	0.217700	0.858240	0.105000
H431	H43	0.183600	0.832900	0.092700
C631	C63	0.771800	0.878560	0.420300
C641	C64	0.669400	0.899240	0.731100
H441	H44	0.660800	0.878200	0.778500
C651	C65	0.684300	0.969180	0.695500
H451	H45	0.683900	0.996300	0.717700
C661	C66	0.752100	0.094330	0.159600
H461	H46	0.676100	0.097300	0.137400
C671	C67	0.682100	0.890320	0.629800
H471	H47	0.679200	0.863200	0.607400
C681	C68	0.125600	0.154390	0.101300
H481	H48	0.190200	0.168900	0.086200
H491	H49	0.067900	0.156300	0.041200
H501	H50	0.144200	0.126200	0.114900
C691	C69	0.700200	0.960430	0.593600
H511	H51	0.711900	0.981600	0.547500
C701	C70	0.817700	0.128240	0.184100
H521	H52	0.786000	0.154200	0.177300
C711	C71	0.603000	0.967970	0.344300
H531	H53	0.567400	0.969900	0.271800
H541	H54	0.649400	0.991500	0.361400
H551	H55	0.547500	0.966800	0.390900
C721	C72	0.905800	0.191150	0.393900
H561	H56	0.854600	0.212900	0.371700
H571	H57	0.944500	0.196900	0.463700
H581	H58	0.865600	0.166000	0.395400
C731	C73	0.043200	0.825360	0.273400
H591	H59	0.014100	0.799800	0.244300
H601	H60	0.025500	0.828500	0.344300
H611	H61	0.122500	0.825700	0.275400
C741	C74	0.840500	0.848000	0.483200
H621	H62	0.914000	0.848200	0.463700
H631	H63	0.808000	0.821500	0.469500
H641	H64	0.844600	0.854300	0.557600
Mn31	Mn3	0.700570	0.569280	0.106070
N131	N13	0.886700	0.632100	0.195500
O131	O13	0.694900	0.576160	0.944400
O141	O14	0.554900	0.621650	0.087000
O151	O15	0.526800	0.556730	0.092900
O161	O16	0.770100	0.513290	0.149000
O171	O17	0.630500	0.472840	0.096900
N141	N14	0.700300	0.588240	0.275500
O181	O18	0.603000	0.521240	0.891700
N151	N15	0.760800	0.620440	0.315200
N161	N16	0.862400	0.599710	0.130800
N171	N17	0.069300	0.285320	0.318900
C751	C75	0.699400	0.578850	0.558400
N181	N18	0.131300	0.293780	0.241500
C761	C76	0.956500	0.587900	0.101900
C771	C77	0.157900	0.609390	0.135800
C781	C78	0.671600	0.569150	0.357700
C791	C79	0.654000	0.552200	0.876600
C801	C80	0.041800	0.613420	0.148300
C811	C81	0.668900	0.561130	0.765000
C821	C82	0.727000	0.479340	0.135300
C831	C83	0.374600	0.599310	0.105900
C841	C84	0.315200	0.567240	0.134500
H651	H65	0.348400	0.541600	0.144200
C851	C85	0.491200	0.592730	0.092900
C861	C86	0.799200	0.648490	0.243200
H661	H66	0.824300	0.673300	0.281200
H671	H67	0.738100	0.655600	0.188300
C871	C87	0.985600	0.312410	0.319100
C881	C88	0.909000	0.447760	0.202200
H681	H68	0.940400	0.473700	0.208900
C891	C89	0.208500	0.572130	0.149000
H691	H69	0.168500	0.549800	0.168400
C901	C90	0.798200	0.443310	0.167700
C911	C91	0.714700	0.589110	0.450500
C921	C92	0.993800	0.641120	0.206400
C931	C93	0.997500	0.339560	0.242800
C941	C94	0.973500	0.414210	0.226700
H701	H70	0.049400	0.417400	0.249600
C951	C95	0.928800	0.375950	0.218400
C961	C96	0.959700	0.553100	0.028600
H711	H71	0.973500	0.528400	0.069000
H721	H72	0.889600	0.551000	0.982900
H731	H73	0.018100	0.557300	0.986100
C971	C97	0.086900	0.327860	0.194400
C981	C98	0.327400	0.637080	0.092400
H741	H74	0.368800	0.659300	0.075000
C991	C99	0.217700	0.641760	0.105000
H751	H75	0.183600	0.667100	0.092700
C1001	C100	0.771800	0.621440	0.420300
C1011	C101	0.669400	0.600760	0.731100
H761	H76	0.660800	0.621800	0.778500
C1021	C102	0.684300	0.530820	0.695500
H771	H77	0.683900	0.503700	0.717700
C1031	C103	0.752100	0.405670	0.159600
H781	H78	0.676100	0.402700	0.137400
C1041	C104	0.682100	0.609680	0.629800
H791	H79	0.679200	0.636800	0.607400
C1051	C105	0.125600	0.345610	0.101300
H801	H80	0.190200	0.331100	0.086200
H811	H81	0.067900	0.343700	0.041200
H821	H82	0.144200	0.373800	0.114900
C1061	C106	0.700200	0.539570	0.593600
H831	H83	0.711900	0.518400	0.547500
C1071	C107	0.817700	0.371760	0.184100
H841	H84	0.786000	0.345800	0.177300
C1081	C108	0.603000	0.532030	0.344300
H851	H85	0.567400	0.530100	0.271800
H861	H86	0.649400	0.508500	0.361400
H871	H87	0.547500	0.533200	0.390900
C1091	C109	0.905800	0.308850	0.393900
H881	H88	0.854600	0.287100	0.371700
H891	H89	0.944500	0.303100	0.463700
H901	H90	0.865600	0.334000	0.395400
C1101	C110	0.043200	0.674640	0.273400
H911	H91	0.014100	0.700200	0.244300
H921	H92	0.025500	0.671500	0.344300
H931	H93	0.122500	0.674300	0.275400
C1111	C111	0.840500	0.652000	0.483200
H941	H94	0.914000	0.651800	0.463700
H951	H95	0.808000	0.678500	0.469500
H961	H96	0.844600	0.645700	0.557600
Mn41	Mn4	0.299430	0.069280	0.893930
N191	N19	0.113300	0.132100	0.804500
O191	O19	0.305100	0.076160	0.055600
O201	O20	0.445100	0.121650	0.913000
O211	O21	0.473200	0.056730	0.907100
O221	O22	0.229900	0.013290	0.851000
O231	O23	0.369500	0.972840	0.903100
N201	N20	0.299700	0.088240	0.724500
O241	O24	0.397000	0.021240	0.108300
N211	N21	0.239200	0.120440	0.684800
N221	N22	0.137600	0.099710	0.869200
N231	N23	0.930700	0.785320	0.681100
C1121	C112	0.300600	0.078850	0.441600
N241	N24	0.868700	0.793780	0.758500
C1131	C113	0.043500	0.087900	0.898100
C1141	C114	0.842100	0.109390	0.864200
C1151	C115	0.328400	0.069150	0.642300
C1161	C116	0.346000	0.052200	0.123400
C1171	C117	0.958200	0.113420	0.851700
C1181	C118	0.331100	0.061130	0.235000
C1191	C119	0.273000	0.979340	0.864700
C1201	C120	0.625400	0.099310	0.894100
C1211	C121	0.684800	0.067240	0.865500
H971	H97	0.651600	0.041600	0.855800
C1221	C122	0.508800	0.092730	0.907100
C1231	C123	0.200800	0.148490	0.756800
H981	H98	0.175700	0.173300	0.718800
H991	H99	0.261900	0.155600	0.811700
C1241	C124	0.014400	0.812410	0.680900
C1251	C125	0.091000	0.947760	0.797800
H1001	H100	0.059600	0.973700	0.791100
C1261	C126	0.791500	0.072130	0.851000
H1011	H101	0.831500	0.049800	0.831600
C1271	C127	0.201800	0.943310	0.832300
C1281	C128	0.285300	0.089110	0.549500
C1291	C129	0.006200	0.141120	0.793600
C1301	C130	0.002500	0.839560	0.757200
C1311	C131	0.026500	0.914210	0.773300
H1021	H102	0.950600	0.917400	0.750400
C1321	C132	0.071200	0.875950	0.781600
C1331	C133	0.040300	0.053100	0.971400
H1031	H103	0.026500	0.028400	0.931000
H1041	H104	0.110400	0.051000	0.017100
H1051	H105	0.981900	0.057300	0.013900
C1341	C134	0.913100	0.827860	0.805600
C1351	C135	0.672600	0.137080	0.907600
H1061	H106	0.631200	0.159300	0.925000
C1361	C136	0.782300	0.141760	0.895000
H1071	H107	0.816400	0.167100	0.907300
C1371	C137	0.228200	0.121440	0.579700
C1381	C138	0.330600	0.100760	0.268900
H1081	H108	0.339200	0.121800	0.221500
C1391	C139	0.315700	0.030820	0.304500
H1091	H109	0.316100	0.003700	0.282300
C1401	C140	0.247900	0.905670	0.840400
H1101	H110	0.323900	0.902700	0.862600
C1411	C141	0.317900	0.109680	0.370200
H1111	H111	0.320800	0.136800	0.392600
C1421	C142	0.874400	0.845610	0.898700
H1121	H112	0.809800	0.831100	0.913800
H1131	H113	0.932100	0.843700	0.958800
H1141	H114	0.855800	0.873800	0.885100
C1431	C143	0.299800	0.039570	0.406400
H1151	H115	0.288100	0.018400	0.452500
C1441	C144	0.182300	0.871760	0.815900
H1161	H116	0.214000	0.845800	0.822700
C1451	C145	0.397000	0.032030	0.655700
H1171	H117	0.432600	0.030100	0.728200
H1181	H118	0.350600	0.008500	0.638600
H1191	H119	0.452500	0.033200	0.609100
C1461	C146	0.094200	0.808850	0.606100
H1201	H120	0.145400	0.787100	0.628300
H1211	H121	0.055500	0.803100	0.536300
H1221	H122	0.134400	0.834000	0.604600
C1471	C147	0.956800	0.174640	0.726600
H1231	H123	0.985900	0.200200	0.755700
H1241	H124	0.974500	0.171500	0.655700
H1251	H125	0.877500	0.174300	0.724600
C1481	C148	0.159500	0.152000	0.516800
H1261	H126	0.086000	0.151800	0.536300
H1271	H127	0.192000	0.178500	0.530500
H1281	H128	0.155400	0.145700	0.442400
Mn51	Mn5	0.500000	0.500000	0.000000
Mn61	Mn6	0.500000	0.000000	0.000000
Co11	Co1	0.754740	0.750000	0.800740
C1491	C149	0.907000	0.750000	0.620200
H1291	H129	0.829000	0.750000	0.589900
H1301	H130	0.950600	0.750000	0.561900
Co21	Co2	0.245260	0.250000	0.199260
C1501	C150	0.093000	0.250000	0.379800
H1311	H131	0.171000	0.250000	0.410100
H1321	H132	0.049400	0.250000	0.438100
