data_COQNIF_clean_PM
_symmetry_space_group_name_H-M	'P1'
_cell_length_a	12.746000
_cell_length_b	12.746000
_cell_length_c	9.140000
_cell_angle_alpha	90.000000
_cell_angle_beta	90.000000
_cell_angle_gamma	120.000000
_symmetry_Int_Tables_number 1

loop_
_symmetry_equiv_pos_as_xyz
'x,y,z'

loop_
_atom_site_label
_atom_site_type_symbol
_atom_site_fract_x
_atom_site_fract_y
_atom_site_fract_z
Al11	Al1	0.673200	0.530400	0.417200
P11	P1	0.455300	0.321700	0.617600
O11	O1	0.559700	0.421400	0.530200
O21	O2	0.399800	0.207800	0.522900
O31	O3	0.360300	0.359300	0.641700
O41	O4	0.680900	0.452500	0.260000
O51	O5	0.500500	0.305100	0.761700
Al21	Al2	0.469600	0.142800	0.417200
P21	P2	0.678300	0.133600	0.617600
O61	O6	0.578600	0.138300	0.530200
O71	O7	0.792200	0.192000	0.522900
O81	O8	0.640700	0.001000	0.641700
O91	O9	0.547500	0.228400	0.260000
O101	O10	0.694900	0.195400	0.761700
Al31	Al3	0.857200	0.326800	0.417200
P31	P3	0.866400	0.544700	0.617600
O111	O11	0.861700	0.440300	0.530200
O121	O12	0.808000	0.600200	0.522900
O131	O13	0.999000	0.639700	0.641700
O141	O14	0.771600	0.319100	0.260000
O151	O15	0.804600	0.499500	0.761700
Al41	Al4	0.326800	0.469600	0.582800
P41	P4	0.544700	0.678300	0.382400
O161	O16	0.440300	0.578600	0.469800
O171	O17	0.600200	0.792200	0.477100
O181	O18	0.639700	0.640700	0.358300
O191	O19	0.319100	0.547500	0.740000
O201	O20	0.499500	0.694900	0.238300
Al51	Al5	0.530400	0.857200	0.582800
P51	P5	0.321700	0.866400	0.382400
O211	O21	0.421400	0.861700	0.469800
O221	O22	0.207800	0.808000	0.477100
O231	O23	0.359300	0.999000	0.358300
O241	O24	0.452500	0.771600	0.740000
O251	O25	0.305100	0.804600	0.238300
Al61	Al6	0.142800	0.673200	0.582800
P61	P6	0.133600	0.455300	0.382400
O261	O26	0.138300	0.559700	0.469800
O271	O27	0.192000	0.399800	0.477100
O281	O28	0.001000	0.360300	0.358300
O291	O29	0.228400	0.680900	0.740000
O301	O30	0.195400	0.500500	0.238300
Mn11	Mn1	0.666670	0.333330	0.821700
P71	P7	0.666670	0.333330	0.201900
O311	O31	0.666670	0.333330	0.040900
Mn21	Mn2	0.333330	0.666670	0.178300
P81	P8	0.333330	0.666670	0.798100
O321	O32	0.333330	0.666670	0.959100
