data_COSMII_clean_PM
_symmetry_space_group_name_H-M	'P1'
_cell_length_a	14.122700
_cell_length_b	18.739100
_cell_length_c	18.739100
_cell_angle_alpha	66.087800
_cell_angle_beta	75.450600
_cell_angle_gamma	104.549000
_symmetry_Int_Tables_number 1

loop_
_symmetry_equiv_pos_as_xyz
'x,y,z'

loop_
_atom_site_label
_atom_site_type_symbol
_atom_site_fract_x
_atom_site_fract_y
_atom_site_fract_z
In11	In1	0.167260	0.487780	0.433890
In21	In2	0.179480	0.512220	0.921670
In31	In3	0.601150	0.433890	0.078330
In41	In4	0.101150	0.921670	0.566110
In51	In5	0.679480	0.078330	0.487780
In61	In6	0.667260	0.566110	0.512220
H11	H1	0.398800	0.587800	0.074700
H21	H2	0.425400	0.008800	0.552500
H31	H3	0.635400	0.247000	0.641900
H41	H4	0.898800	0.925300	0.412200
H51	H5	0.656200	0.848400	0.317300
H61	H6	0.135400	0.358100	0.753000
H71	H7	0.883800	0.235300	0.444500
H81	H8	0.710400	0.908900	0.791900
H91	H9	0.328300	0.444500	0.320200
H101	H10	0.277300	0.641900	0.111100
H111	H11	0.473500	0.074700	0.337500
H121	H12	0.210400	0.208100	0.091100
H131	H13	0.383800	0.555500	0.764700
H141	H14	0.477900	0.561300	0.447500
H151	H15	0.648500	0.320200	0.235300
H161	H16	0.307800	0.151600	0.165700
H171	H17	0.777300	0.888900	0.358100
H181	H18	0.311000	0.412200	0.662500
H191	H19	0.156200	0.682700	0.151600
H201	H20	0.973500	0.317300	0.834300
H211	H21	0.916600	0.991200	0.561300
H221	H22	0.925400	0.447500	0.991200
H231	H23	0.811000	0.337500	0.587800
H241	H24	0.888400	0.753000	0.888900
H251	H25	0.801500	0.299200	0.908900
H261	H26	0.807800	0.834300	0.848400
H271	H27	0.828300	0.679800	0.555500
H281	H28	0.502300	0.791900	0.299200
H291	H29	0.002300	0.700800	0.208100
H301	H30	0.416600	0.438700	0.008800
H311	H31	0.973500	0.662500	0.925300
H321	H32	0.473500	0.165700	0.682700
H331	H33	0.977900	0.552500	0.438700
H341	H34	0.148500	0.764700	0.679800
H351	H35	0.388400	0.111100	0.247000
H361	H36	0.301500	0.091100	0.700800
C11	C1	0.738100	0.369000	0.000000
C21	C2	0.732800	0.763000	0.426000
C31	C3	0.124000	0.644000	0.823100
C41	C4	0.232800	0.574000	0.237000
C51	C5	0.369100	0.631000	0.369000
C61	C6	0.238100	0.000000	0.631000
C71	C7	0.892680	0.958170	0.620130
C81	C8	0.687300	0.245500	0.601100
C91	C9	0.069000	0.703000	0.805600
C101	C10	0.158800	0.426000	0.811000
C111	C11	0.860400	0.334100	0.909900
C121	C12	0.480000	0.532900	0.644000
C131	C13	0.491700	0.131500	0.299500
C141	C14	0.469800	0.237000	0.189000
C151	C15	0.846700	0.374200	0.955700
C161	C16	0.360200	0.569000	0.131500
C171	C17	0.187300	0.398900	0.754500
C181	C18	0.238100	0.369000	0.000000
C191	C19	0.147650	0.600250	0.265800
C201	C20	0.441800	0.153400	0.245500
C211	C21	0.095300	0.762000	0.723000
C221	C22	0.913450	0.866050	0.734200
C231	C23	0.413450	0.265800	0.133950
C241	C24	0.288400	0.601100	0.153400
C251	C25	0.526300	0.756000	0.334100
C261	C26	0.788400	0.846600	0.398900
C271	C27	0.802400	0.955700	0.670100
C281	C28	0.827400	0.864600	0.789900
C291	C29	0.969800	0.811000	0.763000
C301	C30	0.770300	0.909900	0.756000
C311	C31	0.366000	0.491400	0.703000
C321	C32	0.866000	0.297000	0.508600
C331	C33	0.012810	0.578300	0.379870
C341	C34	0.047400	0.399750	0.866050
C351	C35	0.462800	0.135400	0.654500
C361	C36	0.738100	0.000000	0.631000
C371	C37	0.791200	0.299500	0.569000
C381	C38	0.333300	0.515000	0.762000
C391	C39	0.346700	0.044300	0.625800
C401	C40	0.818300	0.723000	0.515000
C411	C41	0.026300	0.665900	0.244000
C421	C42	0.447100	0.467100	0.176900
C431	C43	0.980000	0.356000	0.467100
C441	C44	0.569000	0.194400	0.297000
C451	C45	0.392680	0.379870	0.041830
C461	C46	0.117300	0.654500	0.210100
C471	C47	0.869100	0.631000	0.369000
C481	C48	0.472500	0.670100	0.374200
C491	C49	0.547400	0.133950	0.600250
C501	C50	0.374600	0.508600	0.194400
C511	C51	0.991700	0.700500	0.868500
C521	C52	0.617300	0.789900	0.345500
C531	C53	0.647650	0.734200	0.399750
C541	C54	0.947100	0.823100	0.532900
C551	C55	0.270300	0.244000	0.090100
C561	C56	0.658800	0.189000	0.574000
C571	C57	0.360400	0.090100	0.665900
C581	C58	0.972500	0.625800	0.329900
C591	C59	0.624000	0.176900	0.356000
C601	C60	0.941800	0.754500	0.846600
C611	C61	0.874600	0.805600	0.491400
C621	C62	0.302400	0.329900	0.044300
C631	C63	0.860200	0.868500	0.431000
C641	C64	0.434510	0.041830	0.578300
C651	C65	0.291200	0.431000	0.700500
C661	C66	0.934510	0.421700	0.958170
C671	C67	0.318300	0.485000	0.277000
C681	C68	0.512810	0.620130	0.421700
C691	C69	0.962800	0.345500	0.864600
C701	C70	0.833300	0.238000	0.485000
C711	C71	0.327400	0.210100	0.135400
C721	C72	0.595300	0.277000	0.238000
N11	N1	0.032410	0.433170	0.915940
N21	N2	0.532410	0.084060	0.566830
N31	N3	0.547280	0.297890	0.184250
N41	N4	0.047280	0.815750	0.702110
N51	N5	0.749390	0.702110	0.482140
N61	N6	0.448350	0.349110	0.084060
N71	N7	0.099240	0.566830	0.349110
N81	N8	0.948350	0.915940	0.650890
N91	N9	0.731530	0.184250	0.517860
N101	N10	0.599240	0.650890	0.433170
N111	N11	0.249390	0.517860	0.297890
N121	N12	0.231530	0.482140	0.815750
O11	O1	0.039500	0.363900	0.403300
O21	O2	0.159200	0.997200	0.677700
O31	O3	0.010550	0.900450	0.497900
O41	O4	0.770150	0.029810	0.552060
O51	O5	0.110100	0.601650	0.900450
O61	O6	0.008450	0.398350	0.502100
O71	O7	0.662000	0.002800	0.674900
O81	O8	0.162000	0.325100	0.997200
O91	O9	0.322210	0.552060	0.418130
O101	O10	0.539500	0.596700	0.636100
O111	O11	0.510550	0.502100	0.099550
O121	O12	0.610100	0.099550	0.398350
O131	O13	0.740340	0.418130	0.029810
O141	O14	0.836900	0.677700	0.325100
O151	O15	0.442800	0.403300	0.232800
O161	O16	0.270150	0.447940	0.970190
O171	O17	0.942800	0.767200	0.596700
O181	O18	0.675600	0.232800	0.363900
O191	O19	0.175600	0.636100	0.767200
O201	O20	0.240340	0.970190	0.581870
O211	O21	0.336900	0.674900	0.322300
O221	O22	0.822210	0.581870	0.447940
O231	O23	0.508450	0.497900	0.601650
O241	O24	0.659200	0.322300	0.002800
