data_COTXEQ_clean_PM
_symmetry_space_group_name_H-M	'P1'
_cell_length_a	15.866400
_cell_length_b	15.866400
_cell_length_c	21.798600
_cell_angle_alpha	90.000000
_cell_angle_beta	90.000000
_cell_angle_gamma	90.000000
_symmetry_Int_Tables_number 1

loop_
_symmetry_equiv_pos_as_xyz
'x,y,z'

loop_
_atom_site_label
_atom_site_type_symbol
_atom_site_fract_x
_atom_site_fract_y
_atom_site_fract_z
C11	C1	0.756000	0.962900	0.786200
H11	H1	0.760300	0.994100	0.822200
C21	C2	0.691300	0.904500	0.781600
H21	H2	0.654300	0.896900	0.814200
C31	C3	0.681500	0.856800	0.728100
C41	C4	0.738300	0.875300	0.680200
H31	H3	0.733400	0.848000	0.642700
C51	C5	0.801400	0.934100	0.689300
H41	H4	0.838300	0.944700	0.657100
C61	C6	0.616400	0.790400	0.722600
C71	C7	0.547200	0.785400	0.762000
H51	H5	0.540400	0.825900	0.792500
C81	C8	0.489000	0.721500	0.756600
H61	H6	0.442700	0.720300	0.782800
C91	C9	0.498300	0.659300	0.712800
H71	H7	0.458000	0.617100	0.709000
C101	C10	0.568800	0.660000	0.674200
C111	C11	0.626900	0.725800	0.678900
H81	H8	0.673300	0.727000	0.652800
C121	C12	0.576800	0.591700	0.629340
C131	C13	0.628500	0.497200	0.566970
C141	C14	0.691100	0.441200	0.537050
C151	C15	0.721700	0.457300	0.477900
H91	H9	0.703100	0.503900	0.455900
C161	C16	0.780700	0.401900	0.452600
H101	H10	0.800300	0.410900	0.413000
C171	C17	0.810300	0.333700	0.486100
H111	H11	0.849400	0.297400	0.468600
C181	C18	0.782000	0.319000	0.545700
C191	C19	0.720700	0.374100	0.569700
H121	H12	0.699900	0.364400	0.609000
C201	C20	0.812300	0.246800	0.582800
C211	C21	0.769300	0.221100	0.635400
H131	H13	0.718000	0.245800	0.645500
C221	C22	0.802700	0.159400	0.672400
H141	H14	0.772400	0.143400	0.707000
C231	C23	0.915000	0.139800	0.608900
H151	H15	0.963600	0.110300	0.598400
C241	C24	0.885800	0.202100	0.568800
H161	H16	0.915200	0.213800	0.532900
N11	N1	0.812600	0.976800	0.741930
N21	N2	0.512900	0.552300	0.604430
N31	N3	0.545800	0.492200	0.565050
N41	N4	0.650100	0.558800	0.606940
N51	N5	0.732700	0.581600	0.624800
N61	N6	0.876800	0.120500	0.661500
H171	H17	0.761200	0.533400	0.620800
H181	H18	0.741900	0.615000	0.591000
C251	C25	0.244000	0.037100	0.286200
H191	H19	0.239700	0.005900	0.322200
C261	C26	0.308700	0.095500	0.281600
H201	H20	0.345700	0.103100	0.314200
C271	C27	0.318500	0.143200	0.228100
C281	C28	0.261700	0.124700	0.180200
H211	H21	0.266600	0.152000	0.142700
C291	C29	0.198600	0.065900	0.189300
H221	H22	0.161700	0.055300	0.157100
C301	C30	0.383600	0.209600	0.222600
C311	C31	0.452800	0.214600	0.262000
H231	H23	0.459600	0.174100	0.292500
C321	C32	0.511000	0.278500	0.256600
H241	H24	0.557300	0.279700	0.282800
C331	C33	0.501700	0.340700	0.212800
H251	H25	0.542000	0.382900	0.209000
C341	C34	0.431200	0.340000	0.174200
C351	C35	0.373100	0.274200	0.178900
H261	H26	0.326700	0.273000	0.152800
C361	C36	0.423200	0.408300	0.129340
C371	C37	0.371500	0.502800	0.066970
C381	C38	0.308900	0.558800	0.037050
C391	C39	0.278300	0.542700	0.977900
H271	H27	0.296900	0.496100	0.955900
C401	C40	0.219300	0.598100	0.952600
H281	H28	0.199700	0.589100	0.913000
C411	C41	0.189700	0.666300	0.986100
H291	H29	0.150600	0.702600	0.968600
C421	C42	0.218000	0.681000	0.045700
C431	C43	0.279300	0.625900	0.069700
H301	H30	0.300100	0.635600	0.109000
C441	C44	0.187700	0.753200	0.082800
C451	C45	0.230700	0.778900	0.135400
H311	H31	0.282000	0.754200	0.145500
C461	C46	0.197300	0.840600	0.172400
H321	H32	0.227600	0.856600	0.207000
C471	C47	0.085000	0.860200	0.108900
H331	H33	0.036400	0.889700	0.098400
C481	C48	0.114200	0.797900	0.068800
H341	H34	0.084800	0.786200	0.032900
N71	N7	0.187400	0.023200	0.241930
N81	N8	0.487100	0.447700	0.104430
N91	N9	0.454200	0.507800	0.065050
N101	N10	0.349900	0.441200	0.106940
N111	N11	0.267300	0.418400	0.124800
N121	N12	0.123200	0.879500	0.161500
H351	H35	0.238800	0.466600	0.120800
H361	H36	0.258100	0.385000	0.091000
C491	C49	0.537100	0.256000	0.536200
H371	H37	0.505900	0.260300	0.572200
C501	C50	0.595500	0.191300	0.531600
H381	H38	0.603100	0.154300	0.564200
C511	C51	0.643200	0.181500	0.478100
C521	C52	0.624700	0.238300	0.430200
H391	H39	0.652000	0.233400	0.392700
C531	C53	0.565900	0.301400	0.439300
H401	H40	0.555300	0.338300	0.407100
C541	C54	0.709600	0.116400	0.472600
C551	C55	0.714600	0.047200	0.512000
H411	H41	0.674100	0.040400	0.542500
C561	C56	0.778500	0.989000	0.506600
H421	H42	0.779700	0.942700	0.532800
C571	C57	0.840700	0.998300	0.462800
H431	H43	0.882900	0.958000	0.459000
C581	C58	0.840000	0.068800	0.424200
C591	C59	0.774200	0.126900	0.428900
H441	H44	0.773000	0.173300	0.402800
C601	C60	0.908300	0.076800	0.379340
C611	C61	0.002800	0.128500	0.316970
C621	C62	0.058800	0.191100	0.287050
C631	C63	0.042700	0.221700	0.227900
H451	H45	0.996100	0.203100	0.205900
C641	C64	0.098100	0.280700	0.202600
H461	H46	0.089100	0.300300	0.163000
C651	C65	0.166300	0.310300	0.236100
H471	H47	0.202600	0.349400	0.218600
C661	C66	0.181000	0.282000	0.295700
C671	C67	0.125900	0.220700	0.319700
H481	H48	0.135600	0.199900	0.359000
C681	C68	0.253200	0.312300	0.332800
C691	C69	0.278900	0.269300	0.385400
H491	H49	0.254200	0.218000	0.395500
C701	C70	0.340600	0.302700	0.422400
H501	H50	0.356600	0.272400	0.457000
C711	C71	0.360200	0.415000	0.358900
H511	H51	0.389700	0.463600	0.348400
C721	C72	0.297900	0.385800	0.318800
H521	H52	0.286200	0.415200	0.282900
N131	N13	0.523200	0.312600	0.491930
N141	N14	0.947700	0.012900	0.354430
N151	N15	0.007800	0.045800	0.315050
N161	N16	0.941200	0.150100	0.356940
N171	N17	0.918400	0.232700	0.374800
N181	N18	0.379500	0.376800	0.411500
H531	H53	0.966600	0.261200	0.370800
H541	H54	0.885000	0.241900	0.341000
C731	C73	0.462900	0.744000	0.036200
H551	H55	0.494100	0.739700	0.072200
C741	C74	0.404500	0.808700	0.031600
H561	H56	0.396900	0.845700	0.064200
C751	C75	0.356800	0.818500	0.978100
C761	C76	0.375300	0.761700	0.930200
H571	H57	0.348000	0.766600	0.892700
C771	C77	0.434100	0.698600	0.939300
H581	H58	0.444700	0.661700	0.907100
C781	C78	0.290400	0.883600	0.972600
C791	C79	0.285400	0.952800	0.012000
H591	H59	0.325900	0.959600	0.042500
C801	C80	0.221500	0.011000	0.006600
H601	H60	0.220300	0.057300	0.032800
C811	C81	0.159300	0.001700	0.962800
H611	H61	0.117100	0.042000	0.959000
C821	C82	0.160000	0.931200	0.924200
C831	C83	0.225800	0.873100	0.928900
H621	H62	0.227000	0.826700	0.902800
C841	C84	0.091700	0.923200	0.879340
C851	C85	0.997200	0.871500	0.816970
C861	C86	0.941200	0.808900	0.787050
C871	C87	0.957300	0.778300	0.727900
H631	H63	0.003900	0.796900	0.705900
C881	C88	0.901900	0.719300	0.702600
H641	H64	0.910900	0.699700	0.663000
C891	C89	0.833700	0.689700	0.736100
H651	H65	0.797400	0.650600	0.718600
C901	C90	0.819000	0.718000	0.795700
C911	C91	0.874100	0.779300	0.819700
H661	H66	0.864400	0.800100	0.859000
C921	C92	0.746800	0.687700	0.832800
C931	C93	0.721100	0.730700	0.885400
H671	H67	0.745800	0.782000	0.895500
C941	C94	0.659400	0.697300	0.922400
H681	H68	0.643400	0.727600	0.957000
C951	C95	0.639800	0.585000	0.858900
H691	H69	0.610300	0.536400	0.848400
C961	C96	0.702100	0.614200	0.818800
H701	H70	0.713800	0.584800	0.782900
N191	N19	0.476800	0.687400	0.991930
N201	N20	0.052300	0.987100	0.854430
N211	N21	0.992200	0.954200	0.815050
N221	N22	0.058800	0.849900	0.856940
N231	N23	0.081600	0.767300	0.874800
N241	N24	0.620500	0.623200	0.911500
H711	H71	0.033400	0.738800	0.870800
H721	H72	0.115000	0.758100	0.841000
C971	C97	0.744000	0.462900	0.963800
H731	H73	0.739700	0.494100	0.927800
C981	C98	0.808700	0.404500	0.968400
H741	H74	0.845700	0.396900	0.935800
C991	C99	0.818500	0.356800	0.021900
C1001	C100	0.761700	0.375300	0.069800
H751	H75	0.766600	0.348000	0.107300
C1011	C101	0.698600	0.434100	0.060700
H761	H76	0.661700	0.444700	0.092900
C1021	C102	0.883600	0.290400	0.027400
C1031	C103	0.952800	0.285400	0.988000
H771	H77	0.959600	0.325900	0.957500
C1041	C104	0.011000	0.221500	0.993400
H781	H78	0.057300	0.220300	0.967200
C1051	C105	0.001700	0.159300	0.037200
H791	H79	0.042000	0.117100	0.041000
C1061	C106	0.931200	0.160000	0.075800
C1071	C107	0.873100	0.225800	0.071100
H801	H80	0.826700	0.227000	0.097200
C1081	C108	0.923200	0.091700	0.120660
C1091	C109	0.871500	0.997200	0.183030
C1101	C110	0.808900	0.941200	0.212950
C1111	C111	0.778300	0.957300	0.272100
H811	H81	0.796900	0.003900	0.294100
C1121	C112	0.719300	0.901900	0.297400
H821	H82	0.699700	0.910900	0.337000
C1131	C113	0.689700	0.833700	0.263900
H831	H83	0.650600	0.797400	0.281400
C1141	C114	0.718000	0.819000	0.204300
C1151	C115	0.779300	0.874100	0.180300
H841	H84	0.800100	0.864400	0.141000
C1161	C116	0.687700	0.746800	0.167200
C1171	C117	0.730700	0.721100	0.114600
H851	H85	0.782000	0.745800	0.104500
C1181	C118	0.697300	0.659400	0.077600
H861	H86	0.727600	0.643400	0.043000
C1191	C119	0.585000	0.639800	0.141100
H871	H87	0.536400	0.610300	0.151600
C1201	C120	0.614200	0.702100	0.181200
H881	H88	0.584800	0.713800	0.217100
N251	N25	0.687400	0.476800	0.008070
N261	N26	0.987100	0.052300	0.145570
N271	N27	0.954200	0.992200	0.184950
N281	N28	0.849900	0.058800	0.143060
N291	N29	0.767300	0.081600	0.125200
N301	N30	0.623200	0.620500	0.088500
H891	H89	0.738800	0.033400	0.129200
H901	H90	0.758100	0.115000	0.159000
C1211	C121	0.256000	0.537100	0.463800
H911	H91	0.260300	0.505900	0.427800
C1221	C122	0.191300	0.595500	0.468400
H921	H92	0.154300	0.603100	0.435800
C1231	C123	0.181500	0.643200	0.521900
C1241	C124	0.238300	0.624700	0.569800
H931	H93	0.233400	0.652000	0.607300
C1251	C125	0.301400	0.565900	0.560700
H941	H94	0.338300	0.555300	0.592900
C1261	C126	0.116400	0.709600	0.527400
C1271	C127	0.047200	0.714600	0.488000
H951	H95	0.040400	0.674100	0.457500
C1281	C128	0.989000	0.778500	0.493400
H961	H96	0.942700	0.779700	0.467200
C1291	C129	0.998300	0.840700	0.537200
H971	H97	0.958000	0.882900	0.541000
C1301	C130	0.068800	0.840000	0.575800
C1311	C131	0.126900	0.774200	0.571100
H981	H98	0.173300	0.773000	0.597200
C1321	C132	0.076800	0.908300	0.620660
C1331	C133	0.128500	0.002800	0.683030
C1341	C134	0.191100	0.058800	0.712950
C1351	C135	0.221700	0.042700	0.772100
H991	H99	0.203100	0.996100	0.794100
C1361	C136	0.280700	0.098100	0.797400
H1001	H100	0.300300	0.089100	0.837000
C1371	C137	0.310300	0.166300	0.763900
H1011	H101	0.349400	0.202600	0.781400
C1381	C138	0.282000	0.181000	0.704300
C1391	C139	0.220700	0.125900	0.680300
H1021	H102	0.199900	0.135600	0.641000
C1401	C140	0.312300	0.253200	0.667200
C1411	C141	0.269300	0.278900	0.614600
H1031	H103	0.218000	0.254200	0.604500
C1421	C142	0.302700	0.340600	0.577600
H1041	H104	0.272400	0.356600	0.543000
C1431	C143	0.415000	0.360200	0.641100
H1051	H105	0.463600	0.389700	0.651600
C1441	C144	0.385800	0.297900	0.681200
H1061	H106	0.415200	0.286200	0.717100
N311	N31	0.312600	0.523200	0.508070
N321	N32	0.012900	0.947700	0.645570
N331	N33	0.045800	0.007800	0.684950
N341	N34	0.150100	0.941200	0.643060
N351	N35	0.232700	0.918400	0.625200
N361	N36	0.376800	0.379500	0.588500
H1071	H107	0.261200	0.966600	0.629200
H1081	H108	0.241900	0.885000	0.659000
C1451	C145	0.962900	0.756000	0.213800
H1091	H109	0.994100	0.760300	0.177800
C1461	C146	0.904500	0.691300	0.218400
H1101	H110	0.896900	0.654300	0.185800
C1471	C147	0.856800	0.681500	0.271900
C1481	C148	0.875300	0.738300	0.319800
H1111	H111	0.848000	0.733400	0.357300
C1491	C149	0.934100	0.801400	0.310700
H1121	H112	0.944700	0.838300	0.342900
C1501	C150	0.790400	0.616400	0.277400
C1511	C151	0.785400	0.547200	0.238000
H1131	H113	0.825900	0.540400	0.207500
C1521	C152	0.721500	0.489000	0.243400
H1141	H114	0.720300	0.442700	0.217200
C1531	C153	0.659300	0.498300	0.287200
H1151	H115	0.617100	0.458000	0.291000
C1541	C154	0.660000	0.568800	0.325800
C1551	C155	0.725800	0.626900	0.321100
H1161	H116	0.727000	0.673300	0.347200
C1561	C156	0.591700	0.576800	0.370660
C1571	C157	0.497200	0.628500	0.433030
C1581	C158	0.441200	0.691100	0.462950
C1591	C159	0.457300	0.721700	0.522100
H1171	H117	0.503900	0.703100	0.544100
C1601	C160	0.401900	0.780700	0.547400
H1181	H118	0.410900	0.800300	0.587000
C1611	C161	0.333700	0.810300	0.513900
H1191	H119	0.297400	0.849400	0.531400
C1621	C162	0.319000	0.782000	0.454300
C1631	C163	0.374100	0.720700	0.430300
H1201	H120	0.364400	0.699900	0.391000
C1641	C164	0.246800	0.812300	0.417200
C1651	C165	0.221100	0.769300	0.364600
H1211	H121	0.245800	0.718000	0.354500
C1661	C166	0.159400	0.802700	0.327600
H1221	H122	0.143400	0.772400	0.293000
C1671	C167	0.139800	0.915000	0.391100
H1231	H123	0.110300	0.963600	0.401600
C1681	C168	0.202100	0.885800	0.431200
H1241	H124	0.213800	0.915200	0.467100
N371	N37	0.976800	0.812600	0.258070
N381	N38	0.552300	0.512900	0.395570
N391	N39	0.492200	0.545800	0.434950
N401	N40	0.558800	0.650100	0.393060
N411	N41	0.581600	0.732700	0.375200
N421	N42	0.120500	0.876800	0.338500
H1251	H125	0.533400	0.761200	0.379200
H1261	H126	0.615000	0.741900	0.409000
C1691	C169	0.037100	0.244000	0.713800
H1271	H127	0.005900	0.239700	0.677800
C1701	C170	0.095500	0.308700	0.718400
H1281	H128	0.103100	0.345700	0.685800
C1711	C171	0.143200	0.318500	0.771900
C1721	C172	0.124700	0.261700	0.819800
H1291	H129	0.152000	0.266600	0.857300
C1731	C173	0.065900	0.198600	0.810700
H1301	H130	0.055300	0.161700	0.842900
C1741	C174	0.209600	0.383600	0.777400
C1751	C175	0.214600	0.452800	0.738000
H1311	H131	0.174100	0.459600	0.707500
C1761	C176	0.278500	0.511000	0.743400
H1321	H132	0.279700	0.557300	0.717200
C1771	C177	0.340700	0.501700	0.787200
H1331	H133	0.382900	0.542000	0.791000
C1781	C178	0.340000	0.431200	0.825800
C1791	C179	0.274200	0.373100	0.821100
H1341	H134	0.273000	0.326700	0.847200
C1801	C180	0.408300	0.423200	0.870660
C1811	C181	0.502800	0.371500	0.933030
C1821	C182	0.558800	0.308900	0.962950
C1831	C183	0.542700	0.278300	0.022100
H1351	H135	0.496100	0.296900	0.044100
C1841	C184	0.598100	0.219300	0.047400
H1361	H136	0.589100	0.199700	0.087000
C1851	C185	0.666300	0.189700	0.013900
H1371	H137	0.702600	0.150600	0.031400
C1861	C186	0.681000	0.218000	0.954300
C1871	C187	0.625900	0.279300	0.930300
H1381	H138	0.635600	0.300100	0.891000
C1881	C188	0.753200	0.187700	0.917200
C1891	C189	0.778900	0.230700	0.864600
H1391	H139	0.754200	0.282000	0.854500
C1901	C190	0.840600	0.197300	0.827600
H1401	H140	0.856600	0.227600	0.793000
C1911	C191	0.860200	0.085000	0.891100
H1411	H141	0.889700	0.036400	0.901600
C1921	C192	0.797900	0.114200	0.931200
H1421	H142	0.786200	0.084800	0.967100
N431	N43	0.023200	0.187400	0.758070
N441	N44	0.447700	0.487100	0.895570
N451	N45	0.507800	0.454200	0.934950
N461	N46	0.441200	0.349900	0.893060
N471	N47	0.418400	0.267300	0.875200
N481	N48	0.879500	0.123200	0.838500
H1431	H143	0.466600	0.238800	0.879200
H1441	H144	0.385000	0.258100	0.909000
Cd11	Cd1	0.440920	0.440920	0.500000
Cd21	Cd2	0.559080	0.559080	0.000000
Cd31	Cd3	0.059080	0.940920	0.250000
Cd41	Cd4	0.940920	0.059080	0.750000
