data_COVPAG_clean_PM
_symmetry_space_group_name_H-M	'P1'
_cell_length_a	19.764000
_cell_length_b	19.948000
_cell_length_c	12.039000
_cell_angle_alpha	90.000000
_cell_angle_beta	90.000000
_cell_angle_gamma	90.000000
_symmetry_Int_Tables_number 1

loop_
_symmetry_equiv_pos_as_xyz
'x,y,z'

loop_
_atom_site_label
_atom_site_type_symbol
_atom_site_fract_x
_atom_site_fract_y
_atom_site_fract_z
Zn11	Zn1	0.258210	0.992030	0.030760
K11	K1	0.196220	0.944070	0.285400
O11	O1	0.285900	0.916500	0.126700
O21	O2	0.124800	0.942600	0.097000
O31	O3	0.318700	0.859900	0.977700
O41	O4	0.294900	0.612600	0.987500
O51	O5	0.177800	0.962400	0.939100
O61	O6	0.267900	0.562000	0.144700
C11	C1	0.305000	0.741600	0.323700
H11	H1	0.309300	0.742800	0.400600
C21	C2	0.301300	0.738100	0.092500
H21	H2	0.301700	0.736700	0.015300
C31	C3	0.298100	0.678500	0.152200
C41	C4	0.303900	0.798900	0.146200
C51	C5	0.304400	0.801900	0.262000
H31	H3	0.304400	0.843100	0.298100
C61	C6	0.060600	0.938400	0.814500
H41	H4	0.101400	0.937800	0.775900
C71	C7	0.060400	0.942500	0.928800
C81	C8	0.286400	0.613800	0.090300
C91	C9	0.301500	0.864000	0.077400
C101	C10	0.124800	0.946300	0.995800
C111	C11	0.299100	0.679700	0.268100
H51	H5	0.295900	0.640000	0.308300
O71	O7	0.323000	0.017200	0.909600
O81	O8	0.375000	0.046700	0.061100
C121	C12	0.375300	0.037400	0.962400
C131	C13	0.438000	0.047400	0.891600
C141	C14	0.439500	0.052500	0.776700
H61	H6	0.398900	0.053600	0.737700
K21	K2	0.358000	0.900660	0.772800
Zn21	Zn2	0.758210	0.492030	0.030760
K31	K3	0.696220	0.444070	0.285400
O91	O9	0.785900	0.416500	0.126700
O101	O10	0.624800	0.442600	0.097000
O111	O11	0.818700	0.359900	0.977700
O121	O12	0.794900	0.112600	0.987500
O131	O13	0.677800	0.462400	0.939100
O141	O14	0.767900	0.062000	0.144700
C151	C15	0.805000	0.241600	0.323700
H71	H7	0.809300	0.242800	0.400600
C161	C16	0.801300	0.238100	0.092500
H81	H8	0.801700	0.236700	0.015300
C171	C17	0.798100	0.178500	0.152200
C181	C18	0.803900	0.298900	0.146200
C191	C19	0.804400	0.301900	0.262000
H91	H9	0.804400	0.343100	0.298100
C201	C20	0.560600	0.438400	0.814500
H101	H10	0.601400	0.437800	0.775900
C211	C21	0.560400	0.442500	0.928800
C221	C22	0.786400	0.113800	0.090300
C231	C23	0.801500	0.364000	0.077400
C241	C24	0.624800	0.446300	0.995800
C251	C25	0.799100	0.179700	0.268100
H111	H11	0.795900	0.140000	0.308300
O151	O15	0.823000	0.517200	0.909600
O161	O16	0.875000	0.546700	0.061100
C261	C26	0.875300	0.537400	0.962400
C271	C27	0.938000	0.547400	0.891600
C281	C28	0.939500	0.552500	0.776700
H121	H12	0.898900	0.553600	0.737700
K41	K4	0.858000	0.400660	0.772800
Zn31	Zn3	0.741790	0.007970	0.530760
K51	K5	0.803780	0.055930	0.785400
O171	O17	0.714100	0.083500	0.626700
O181	O18	0.875200	0.057400	0.597000
O191	O19	0.681300	0.140100	0.477700
O201	O20	0.705100	0.387400	0.487500
O211	O21	0.822200	0.037600	0.439100
O221	O22	0.732100	0.438000	0.644700
C291	C29	0.695000	0.258400	0.823700
H131	H13	0.690700	0.257200	0.900600
C301	C30	0.698700	0.261900	0.592500
H141	H14	0.698300	0.263300	0.515300
C311	C31	0.701900	0.321500	0.652200
C321	C32	0.696100	0.201100	0.646200
C331	C33	0.695600	0.198100	0.762000
H151	H15	0.695600	0.156900	0.798100
C341	C34	0.939400	0.061600	0.314500
H161	H16	0.898600	0.062200	0.275900
C351	C35	0.939600	0.057500	0.428800
C361	C36	0.713600	0.386200	0.590300
C371	C37	0.698500	0.136000	0.577400
C381	C38	0.875200	0.053700	0.495800
C391	C39	0.700900	0.320300	0.768100
H171	H17	0.704100	0.360000	0.808300
O231	O23	0.677000	0.982800	0.409600
O241	O24	0.625000	0.953300	0.561100
C401	C40	0.624700	0.962600	0.462400
C411	C41	0.562000	0.952600	0.391600
C421	C42	0.560500	0.947500	0.276700
H181	H18	0.601100	0.946400	0.237700
K61	K6	0.642000	0.099340	0.272800
Zn41	Zn4	0.241790	0.507970	0.530760
K71	K7	0.303780	0.555930	0.785400
O251	O25	0.214100	0.583500	0.626700
O261	O26	0.375200	0.557400	0.597000
O271	O27	0.181300	0.640100	0.477700
O281	O28	0.205100	0.887400	0.487500
O291	O29	0.322200	0.537600	0.439100
O301	O30	0.232100	0.938000	0.644700
C431	C43	0.195000	0.758400	0.823700
H191	H19	0.190700	0.757200	0.900600
C441	C44	0.198700	0.761900	0.592500
H201	H20	0.198300	0.763300	0.515300
C451	C45	0.201900	0.821500	0.652200
C461	C46	0.196100	0.701100	0.646200
C471	C47	0.195600	0.698100	0.762000
H211	H21	0.195600	0.656900	0.798100
C481	C48	0.439400	0.561600	0.314500
H221	H22	0.398600	0.562200	0.275900
C491	C49	0.439600	0.557500	0.428800
C501	C50	0.213600	0.886200	0.590300
C511	C51	0.198500	0.636000	0.577400
C521	C52	0.375200	0.553700	0.495800
C531	C53	0.200900	0.820300	0.768100
H231	H23	0.204100	0.860000	0.808300
O311	O31	0.177000	0.482800	0.409600
O321	O32	0.125000	0.453300	0.561100
C541	C54	0.124700	0.462600	0.462400
C551	C55	0.062000	0.452600	0.391600
C561	C56	0.060500	0.447500	0.276700
H241	H24	0.101100	0.446400	0.237700
K81	K8	0.142000	0.599340	0.272800
Zn51	Zn5	0.258210	0.007970	0.530760
K91	K9	0.196220	0.055930	0.785400
O331	O33	0.285900	0.083500	0.626700
O341	O34	0.124800	0.057400	0.597000
O351	O35	0.318700	0.140100	0.477700
O361	O36	0.294900	0.387400	0.487500
O371	O37	0.177800	0.037600	0.439100
O381	O38	0.267900	0.438000	0.644700
C571	C57	0.305000	0.258400	0.823700
H251	H25	0.309300	0.257200	0.900600
C581	C58	0.301300	0.261900	0.592500
H261	H26	0.301700	0.263300	0.515300
C591	C59	0.298100	0.321500	0.652200
C601	C60	0.303900	0.201100	0.646200
C611	C61	0.304400	0.198100	0.762000
H271	H27	0.304400	0.156900	0.798100
C621	C62	0.060600	0.061600	0.314500
H281	H28	0.101400	0.062200	0.275900
C631	C63	0.060400	0.057500	0.428800
C641	C64	0.286400	0.386200	0.590300
C651	C65	0.301500	0.136000	0.577400
C661	C66	0.124800	0.053700	0.495800
C671	C67	0.299100	0.320300	0.768100
H291	H29	0.295900	0.360000	0.808300
O391	O39	0.323000	0.982800	0.409600
O401	O40	0.375000	0.953300	0.561100
C681	C68	0.375300	0.962600	0.462400
C691	C69	0.438000	0.952600	0.391600
C701	C70	0.439500	0.947500	0.276700
H301	H30	0.398900	0.946400	0.237700
K101	K10	0.358000	0.099340	0.272800
Zn61	Zn6	0.758210	0.507970	0.530760
K111	K11	0.696220	0.555930	0.785400
O411	O41	0.785900	0.583500	0.626700
O421	O42	0.624800	0.557400	0.597000
O431	O43	0.818700	0.640100	0.477700
O441	O44	0.794900	0.887400	0.487500
O451	O45	0.677800	0.537600	0.439100
O461	O46	0.767900	0.938000	0.644700
C711	C71	0.805000	0.758400	0.823700
H311	H31	0.809300	0.757200	0.900600
C721	C72	0.801300	0.761900	0.592500
H321	H32	0.801700	0.763300	0.515300
C731	C73	0.798100	0.821500	0.652200
C741	C74	0.803900	0.701100	0.646200
C751	C75	0.804400	0.698100	0.762000
H331	H33	0.804400	0.656900	0.798100
C761	C76	0.560600	0.561600	0.314500
H341	H34	0.601400	0.562200	0.275900
C771	C77	0.560400	0.557500	0.428800
C781	C78	0.786400	0.886200	0.590300
C791	C79	0.801500	0.636000	0.577400
C801	C80	0.624800	0.553700	0.495800
C811	C81	0.799100	0.820300	0.768100
H351	H35	0.795900	0.860000	0.808300
O471	O47	0.823000	0.482800	0.409600
O481	O48	0.875000	0.453300	0.561100
C821	C82	0.875300	0.462600	0.462400
C831	C83	0.938000	0.452600	0.391600
C841	C84	0.939500	0.447500	0.276700
H361	H36	0.898900	0.446400	0.237700
K121	K12	0.858000	0.599340	0.272800
Zn71	Zn7	0.741790	0.992030	0.030760
K131	K13	0.803780	0.944070	0.285400
O491	O49	0.714100	0.916500	0.126700
O501	O50	0.875200	0.942600	0.097000
O511	O51	0.681300	0.859900	0.977700
O521	O52	0.705100	0.612600	0.987500
O531	O53	0.822200	0.962400	0.939100
O541	O54	0.732100	0.562000	0.144700
C851	C85	0.695000	0.741600	0.323700
H371	H37	0.690700	0.742800	0.400600
C861	C86	0.698700	0.738100	0.092500
H381	H38	0.698300	0.736700	0.015300
C871	C87	0.701900	0.678500	0.152200
C881	C88	0.696100	0.798900	0.146200
C891	C89	0.695600	0.801900	0.262000
H391	H39	0.695600	0.843100	0.298100
C901	C90	0.939400	0.938400	0.814500
H401	H40	0.898600	0.937800	0.775900
C911	C91	0.939600	0.942500	0.928800
C921	C92	0.713600	0.613800	0.090300
C931	C93	0.698500	0.864000	0.077400
C941	C94	0.875200	0.946300	0.995800
C951	C95	0.700900	0.679700	0.268100
H411	H41	0.704100	0.640000	0.308300
O551	O55	0.677000	0.017200	0.909600
O561	O56	0.625000	0.046700	0.061100
C961	C96	0.624700	0.037400	0.962400
C971	C97	0.562000	0.047400	0.891600
C981	C98	0.560500	0.052500	0.776700
H421	H42	0.601100	0.053600	0.737700
K141	K14	0.642000	0.900660	0.772800
Zn81	Zn8	0.241790	0.492030	0.030760
K151	K15	0.303780	0.444070	0.285400
O571	O57	0.214100	0.416500	0.126700
O581	O58	0.375200	0.442600	0.097000
O591	O59	0.181300	0.359900	0.977700
O601	O60	0.205100	0.112600	0.987500
O611	O61	0.322200	0.462400	0.939100
O621	O62	0.232100	0.062000	0.144700
C991	C99	0.195000	0.241600	0.323700
H431	H43	0.190700	0.242800	0.400600
C1001	C100	0.198700	0.238100	0.092500
H441	H44	0.198300	0.236700	0.015300
C1011	C101	0.201900	0.178500	0.152200
C1021	C102	0.196100	0.298900	0.146200
C1031	C103	0.195600	0.301900	0.262000
H451	H45	0.195600	0.343100	0.298100
C1041	C104	0.439400	0.438400	0.814500
H461	H46	0.398600	0.437800	0.775900
C1051	C105	0.439600	0.442500	0.928800
C1061	C106	0.213600	0.113800	0.090300
C1071	C107	0.198500	0.364000	0.077400
C1081	C108	0.375200	0.446300	0.995800
C1091	C109	0.200900	0.179700	0.268100
H471	H47	0.204100	0.140000	0.308300
O631	O63	0.177000	0.517200	0.909600
O641	O64	0.125000	0.546700	0.061100
C1101	C110	0.124700	0.537400	0.962400
C1111	C111	0.062000	0.547400	0.891600
C1121	C112	0.060500	0.552500	0.776700
H481	H48	0.101100	0.553600	0.737700
K161	K16	0.142000	0.400660	0.772800
C1131	C113	0.000000	0.942500	0.985900
H491	H49	0.000000	0.942500	0.063200
C1141	C114	0.000000	0.935200	0.757400
H501	H50	0.000000	0.930800	0.680500
C1151	C115	0.500000	0.442500	0.985900
H511	H51	0.500000	0.442500	0.063200
C1161	C116	0.500000	0.435200	0.757400
H521	H52	0.500000	0.430800	0.680500
C1171	C117	0.000000	0.057500	0.485900
H531	H53	0.000000	0.057500	0.563200
C1181	C118	0.000000	0.064800	0.257400
H541	H54	0.000000	0.069200	0.180500
C1191	C119	0.500000	0.557500	0.485900
H551	H55	0.500000	0.557500	0.563200
C1201	C120	0.500000	0.564800	0.257400
H561	H56	0.500000	0.569200	0.180500
C1211	C121	0.500000	0.045700	0.951100
H571	H57	0.500000	0.043500	0.028300
C1221	C122	0.500000	0.056000	0.718400
H581	H58	0.500000	0.060600	0.641500
O651	O65	0.500000	0.876900	0.829000
C1231	C123	0.000000	0.545700	0.951100
H591	H59	0.000000	0.543500	0.028300
C1241	C124	0.000000	0.556000	0.718400
H601	H60	0.000000	0.560600	0.641500
O661	O66	0.000000	0.376900	0.829000
C1251	C125	0.500000	0.954300	0.451100
H611	H61	0.500000	0.956500	0.528300
C1261	C126	0.500000	0.944000	0.218400
H621	H62	0.500000	0.939400	0.141500
O671	O67	0.500000	0.123100	0.329000
C1271	C127	0.000000	0.454300	0.451100
H631	H63	0.000000	0.456500	0.528300
C1281	C128	0.000000	0.444000	0.218400
H641	H64	0.000000	0.439400	0.141500
O681	O68	0.000000	0.623100	0.329000
