data_COWMAD_clean_PM
_symmetry_space_group_name_H-M	'P1'
_cell_length_a	9.598300
_cell_length_b	13.878900
_cell_length_c	15.344300
_cell_angle_alpha	90.000000
_cell_angle_beta	93.451000
_cell_angle_gamma	90.000000
_symmetry_Int_Tables_number 1

loop_
_symmetry_equiv_pos_as_xyz
'x,y,z'

loop_
_atom_site_label
_atom_site_type_symbol
_atom_site_fract_x
_atom_site_fract_y
_atom_site_fract_z
Dy11	Dy1	0.042470	0.888720	0.914210
Dy21	Dy2	0.457530	0.388720	0.585790
Dy31	Dy3	0.957530	0.111280	0.085790
Dy41	Dy4	0.542470	0.611280	0.414210
H11	H1	0.395500	0.091100	0.743100
H21	H2	0.310300	0.162200	0.799000
H31	H3	0.515400	0.235200	0.855300
H41	H4	0.735800	0.188200	0.812200
H51	H5	0.668300	0.107100	0.752000
H61	H6	0.662700	0.110400	0.936300
H71	H7	0.552100	0.963400	0.825800
H81	H8	0.552200	0.961800	0.928100
H91	H9	0.409400	0.096600	0.925500
H101	H10	0.104500	0.591100	0.756900
H111	H11	0.189700	0.662200	0.701000
H121	H12	0.984600	0.735200	0.644700
H131	H13	0.764200	0.688200	0.687800
H141	H14	0.831700	0.607100	0.748000
H151	H15	0.837300	0.610400	0.563700
H161	H16	0.947900	0.463400	0.674200
H171	H17	0.947800	0.461800	0.571900
H181	H18	0.090600	0.596600	0.574500
H191	H19	0.604500	0.908900	0.256900
H201	H20	0.689700	0.837800	0.201000
H211	H21	0.484600	0.764800	0.144700
H221	H22	0.264200	0.811800	0.187800
H231	H23	0.331700	0.892900	0.248000
H241	H24	0.337300	0.889600	0.063700
H251	H25	0.447900	0.036600	0.174200
H261	H26	0.447800	0.038200	0.071900
H271	H27	0.590600	0.903400	0.074500
H281	H28	0.895500	0.408900	0.243100
H291	H29	0.810300	0.337800	0.299000
H301	H30	0.015400	0.264800	0.355300
H311	H31	0.235800	0.311800	0.312200
H321	H32	0.168300	0.392900	0.252000
H331	H33	0.162700	0.389600	0.436300
H341	H34	0.052100	0.536600	0.325800
H351	H35	0.052200	0.538200	0.428100
H361	H36	0.909400	0.403400	0.425500
C11	C1	0.397000	0.126500	0.797600
C21	C2	0.519600	0.197100	0.801800
C31	C3	0.659400	0.142500	0.806000
C41	C4	0.668100	0.072700	0.882600
C51	C5	0.546700	0.003500	0.877200
C61	C6	0.407900	0.056800	0.872700
C71	C7	0.280900	0.991100	0.877700
C81	C8	0.503700	0.265400	0.724400
C91	C9	0.805900	0.018700	0.888200
C101	C10	0.103000	0.626500	0.702400
C111	C11	0.980400	0.697100	0.698200
C121	C12	0.840600	0.642500	0.694000
C131	C13	0.831900	0.572700	0.617400
C141	C14	0.953300	0.503500	0.622800
C151	C15	0.092100	0.556800	0.627300
C161	C16	0.219100	0.491100	0.622300
C171	C17	0.996300	0.765400	0.775600
C181	C18	0.694100	0.518700	0.611800
C191	C19	0.603000	0.873500	0.202400
C201	C20	0.480400	0.802900	0.198200
C211	C21	0.340600	0.857500	0.194000
C221	C22	0.331900	0.927300	0.117400
C231	C23	0.453300	0.996500	0.122800
C241	C24	0.592100	0.943200	0.127300
C251	C25	0.719100	0.008900	0.122300
C261	C26	0.496300	0.734600	0.275600
C271	C27	0.194100	0.981300	0.111800
C281	C28	0.897000	0.373500	0.297600
C291	C29	0.019600	0.302900	0.301800
C301	C30	0.159400	0.357500	0.306000
C311	C31	0.168100	0.427300	0.382600
C321	C32	0.046700	0.496500	0.377200
C331	C33	0.907900	0.443200	0.372700
C341	C34	0.780900	0.508900	0.377700
C351	C35	0.003700	0.234600	0.224400
C361	C36	0.305900	0.481300	0.388200
O11	O1	0.295000	0.905500	0.897500
O21	O2	0.160900	0.029800	0.864700
O31	O3	0.893800	0.037500	0.950700
O41	O4	0.832600	0.955600	0.834800
O51	O5	0.422900	0.336200	0.732400
O61	O6	0.566100	0.252100	0.657800
O71	O7	0.205000	0.405500	0.602500
O81	O8	0.339100	0.529800	0.635300
O91	O9	0.606200	0.537500	0.549300
O101	O10	0.667400	0.455600	0.665200
O111	O11	0.077100	0.836200	0.767600
O121	O12	0.933900	0.752100	0.842200
O131	O13	0.705000	0.094500	0.102500
O141	O14	0.839100	0.970200	0.135300
O151	O15	0.106200	0.962500	0.049300
O161	O16	0.167400	0.044400	0.165200
O171	O17	0.577100	0.663800	0.267600
O181	O18	0.433900	0.747900	0.342200
O191	O19	0.795000	0.594500	0.397500
O201	O20	0.660900	0.470200	0.364700
O211	O21	0.393800	0.462500	0.450700
O221	O22	0.332600	0.544400	0.334800
O231	O23	0.922900	0.163800	0.232400
O241	O24	0.066100	0.247900	0.157800
