data_COWMIL_clean_PM
_symmetry_space_group_name_H-M	'P1'
_cell_length_a	9.573600
_cell_length_b	13.831700
_cell_length_c	15.344200
_cell_angle_alpha	90.000000
_cell_angle_beta	93.436000
_cell_angle_gamma	90.000000
_symmetry_Int_Tables_number 1

loop_
_symmetry_equiv_pos_as_xyz
'x,y,z'

loop_
_atom_site_label
_atom_site_type_symbol
_atom_site_fract_x
_atom_site_fract_y
_atom_site_fract_z
Ho11	Ho1	0.542700	0.388660	0.914390
Ho21	Ho2	0.957300	0.888660	0.585610
Ho31	Ho3	0.457300	0.611340	0.085610
Ho41	Ho4	0.042700	0.111340	0.414390
H11	H1	0.235900	0.688500	0.812400
H21	H2	0.169800	0.606900	0.752100
H31	H3	0.164200	0.611100	0.935000
H41	H4	0.050800	0.462800	0.826500
H51	H5	0.052000	0.462800	0.928800
H61	H6	0.909100	0.597700	0.925600
H71	H7	0.895200	0.590900	0.742800
H81	H8	0.810100	0.662900	0.798300
H91	H9	0.014300	0.735300	0.853800
H101	H10	0.264100	0.188500	0.687600
H111	H11	0.330200	0.106900	0.747900
H121	H12	0.335800	0.111100	0.565000
H131	H13	0.449200	0.962800	0.673500
H141	H14	0.448000	0.962800	0.571200
H151	H15	0.590900	0.097700	0.574400
H161	H16	0.604800	0.090900	0.757200
H171	H17	0.689900	0.162900	0.701700
H181	H18	0.485700	0.235300	0.646200
H191	H19	0.764100	0.311500	0.187600
H201	H20	0.830200	0.393100	0.247900
H211	H21	0.835800	0.388900	0.065000
H221	H22	0.949200	0.537200	0.173500
H231	H23	0.948000	0.537200	0.071200
H241	H24	0.090900	0.402300	0.074400
H251	H25	0.104800	0.409100	0.257200
H261	H26	0.189900	0.337100	0.201700
H271	H27	0.985700	0.264700	0.146200
H281	H28	0.735900	0.811500	0.312400
H291	H29	0.669800	0.893100	0.252100
H301	H30	0.664200	0.888900	0.435000
H311	H31	0.550800	0.037200	0.326500
H321	H32	0.552000	0.037200	0.428800
H331	H33	0.409100	0.902300	0.425600
H341	H34	0.395200	0.909100	0.242800
H351	H35	0.310100	0.837100	0.298300
H361	H36	0.514300	0.764700	0.353800
C11	C1	0.159800	0.642300	0.805900
C21	C2	0.169100	0.572900	0.881500
C31	C3	0.046300	0.503900	0.877500
C41	C4	0.907900	0.557500	0.872900
C51	C5	0.897000	0.627000	0.797100
C61	C6	0.018800	0.697100	0.800300
C71	C7	0.306800	0.518400	0.888000
C81	C8	0.781100	0.491400	0.877500
C91	C9	0.003200	0.765300	0.724800
C101	C10	0.340200	0.142300	0.694100
C111	C11	0.330900	0.072900	0.618500
C121	C12	0.453700	0.003900	0.622500
C131	C13	0.592100	0.057500	0.627100
C141	C14	0.603000	0.127000	0.702900
C151	C15	0.481200	0.197100	0.699700
C161	C16	0.193200	0.018400	0.612000
C171	C17	0.718900	0.991400	0.622500
C181	C18	0.496800	0.265300	0.775200
C191	C19	0.840200	0.357700	0.194100
C201	C20	0.830900	0.427100	0.118500
C211	C21	0.953700	0.496100	0.122500
C221	C22	0.092100	0.442500	0.127100
C231	C23	0.103000	0.373000	0.202900
C241	C24	0.981200	0.302900	0.199700
C251	C25	0.693200	0.481600	0.112000
C261	C26	0.218900	0.508600	0.122500
C271	C27	0.996800	0.234700	0.275200
C281	C28	0.659800	0.857700	0.305900
C291	C29	0.669100	0.927100	0.381500
C301	C30	0.546300	0.996100	0.377500
C311	C31	0.407900	0.942500	0.372900
C321	C32	0.397000	0.873000	0.297100
C331	C33	0.518800	0.802900	0.300300
C341	C34	0.806800	0.981600	0.388000
C351	C35	0.281100	0.008600	0.377500
C361	C36	0.503200	0.734700	0.224800
O11	O1	0.394400	0.537200	0.951500
O21	O2	0.334500	0.455100	0.835100
O31	O3	0.660000	0.530200	0.865200
O41	O4	0.794400	0.405300	0.898900
O51	O5	0.921700	0.836700	0.730400
O61	O6	0.065100	0.751100	0.657200
O71	O7	0.105600	0.037200	0.548500
O81	O8	0.165500	0.955100	0.664900
O91	O9	0.840000	0.030200	0.634800
O101	O10	0.705600	0.905300	0.601100
O111	O11	0.578300	0.336700	0.769600
O121	O12	0.434900	0.251100	0.842800
O131	O13	0.605600	0.462800	0.048500
O141	O14	0.665500	0.544900	0.164900
O151	O15	0.340000	0.469800	0.134800
O161	O16	0.205600	0.594700	0.101100
O171	O17	0.078300	0.163300	0.269600
O181	O18	0.934900	0.248900	0.342800
O191	O19	0.894400	0.962800	0.451500
O201	O20	0.834500	0.044900	0.335100
O211	O21	0.160000	0.969800	0.365200
O221	O22	0.294400	0.094700	0.398900
O231	O23	0.421700	0.663300	0.230400
O241	O24	0.565100	0.748900	0.157200
