data_COWMOR_clean_PM
_symmetry_space_group_name_H-M	'P1'
_cell_length_a	9.563100
_cell_length_b	13.874100
_cell_length_c	15.300000
_cell_angle_alpha	90.000000
_cell_angle_beta	93.382000
_cell_angle_gamma	90.000000
_symmetry_Int_Tables_number 1

loop_
_symmetry_equiv_pos_as_xyz
'x,y,z'

loop_
_atom_site_label
_atom_site_type_symbol
_atom_site_fract_x
_atom_site_fract_y
_atom_site_fract_z
Er11	Er1	0.542670	0.889050	0.914230
Er21	Er2	0.957330	0.389050	0.585770
Er31	Er3	0.457330	0.110950	0.085770
Er41	Er4	0.042670	0.610950	0.414230
H11	H1	0.237000	0.188700	0.811600
H21	H2	0.169400	0.107000	0.752000
H31	H3	0.013100	0.235000	0.855600
H41	H4	0.808900	0.165300	0.795100
H51	H5	0.895400	0.094700	0.738800
H61	H6	0.907100	0.095500	0.925000
H71	H7	0.052700	0.962700	0.928400
H81	H8	0.053300	0.963700	0.825900
H91	H9	0.164300	0.112300	0.936300
H101	H10	0.263000	0.688700	0.688400
H111	H11	0.330600	0.607000	0.748000
H121	H12	0.486900	0.735000	0.644400
H131	H13	0.691100	0.665300	0.704900
H141	H14	0.604600	0.594700	0.761200
H151	H15	0.592900	0.595500	0.575000
H161	H16	0.447300	0.462700	0.571600
H171	H17	0.446700	0.463700	0.674100
H181	H18	0.335700	0.612300	0.563700
H191	H19	0.763000	0.811300	0.188400
H201	H20	0.830600	0.893000	0.248000
H211	H21	0.986900	0.765000	0.144400
H221	H22	0.191100	0.834700	0.204900
H231	H23	0.104600	0.905300	0.261200
H241	H24	0.092900	0.904500	0.075000
H251	H25	0.947300	0.037300	0.071600
H261	H26	0.946700	0.036300	0.174100
H271	H27	0.835700	0.887700	0.063700
H281	H28	0.737000	0.311300	0.311600
H291	H29	0.669400	0.393000	0.252000
H301	H30	0.513100	0.265000	0.355600
H311	H31	0.308900	0.334700	0.295100
H321	H32	0.395400	0.405300	0.238800
H331	H33	0.407100	0.404500	0.425000
H341	H34	0.552700	0.537300	0.428400
H351	H35	0.553300	0.536300	0.325900
H361	H36	0.664300	0.387700	0.436300
C11	C1	0.160600	0.142800	0.805900
C21	C2	0.018900	0.197400	0.801700
C31	C3	0.895600	0.129200	0.793900
C41	C4	0.906200	0.055600	0.872200
C51	C5	0.046900	0.004200	0.877200
C61	C6	0.169600	0.074300	0.882600
C71	C7	0.306600	0.019500	0.888100
C81	C8	0.003700	0.265200	0.724800
C91	C9	0.780500	0.991200	0.877400
C101	C10	0.339400	0.642800	0.694100
C111	C11	0.481100	0.697400	0.698300
C121	C12	0.604400	0.629200	0.706100
C131	C13	0.593800	0.555600	0.627800
C141	C14	0.453100	0.504200	0.622800
C151	C15	0.330400	0.574300	0.617400
C161	C16	0.193400	0.519500	0.611900
C171	C17	0.496300	0.765200	0.775200
C181	C18	0.719500	0.491200	0.622600
C191	C19	0.839400	0.857200	0.194100
C201	C20	0.981100	0.802600	0.198300
C211	C21	0.104400	0.870800	0.206100
C221	C22	0.093800	0.944400	0.127800
C231	C23	0.953100	0.995800	0.122800
C241	C24	0.830400	0.925700	0.117400
C251	C25	0.693400	0.980500	0.111900
C261	C26	0.996300	0.734800	0.275200
C271	C27	0.219500	0.008800	0.122600
C281	C28	0.660600	0.357200	0.305900
C291	C29	0.518900	0.302600	0.301700
C301	C30	0.395600	0.370800	0.293900
C311	C31	0.406200	0.444400	0.372200
C321	C32	0.546900	0.495800	0.377200
C331	C33	0.669600	0.425700	0.382600
C341	C34	0.806600	0.480500	0.388100
C351	C35	0.503700	0.234800	0.224800
C361	C36	0.280500	0.508800	0.377400
O11	O1	0.336000	0.955700	0.834800
O21	O2	0.394200	0.037500	0.951700
O31	O3	0.067600	0.253700	0.656000
O41	O4	0.922300	0.336700	0.730400
O51	O5	0.793900	0.905700	0.898800
O61	O6	0.658800	0.029100	0.863500
O71	O7	0.164000	0.455700	0.665200
O81	O8	0.105800	0.537500	0.548300
O91	O9	0.432400	0.753700	0.844000
O101	O10	0.577700	0.836700	0.769600
O111	O11	0.706100	0.405700	0.601200
O121	O12	0.841200	0.529100	0.636500
O131	O13	0.664000	0.044300	0.165200
O141	O14	0.605800	0.962500	0.048300
O151	O15	0.932400	0.746300	0.344000
O161	O16	0.077700	0.663300	0.269600
O171	O17	0.206100	0.094300	0.101200
O181	O18	0.341200	0.970900	0.136500
O191	O19	0.836000	0.544300	0.334800
O201	O20	0.894200	0.462500	0.451700
O211	O21	0.567600	0.246300	0.156000
O221	O22	0.422300	0.163300	0.230400
O231	O23	0.293900	0.594300	0.398800
O241	O24	0.158800	0.470900	0.363500
