data_COWROX_clean_PM
_symmetry_space_group_name_H-M	'P1'
_cell_length_a	16.703300
_cell_length_b	20.019500
_cell_length_c	17.460200
_cell_angle_alpha	90.000000
_cell_angle_beta	100.423000
_cell_angle_gamma	90.000000
_symmetry_Int_Tables_number 1

loop_
_symmetry_equiv_pos_as_xyz
'x,y,z'

loop_
_atom_site_label
_atom_site_type_symbol
_atom_site_fract_x
_atom_site_fract_y
_atom_site_fract_z
Co11	Co1	0.975830	0.330100	0.748610
Co21	Co2	0.876690	0.374500	0.555760
Co31	Co3	0.090870	0.349180	0.942620
S11	S1	0.038060	0.724950	0.766860
S21	S2	0.042080	0.933090	0.845080
S31	S3	0.611280	0.484690	0.956870
O11	O1	0.015200	0.254600	0.828300
O21	O2	0.943300	0.415350	0.681000
O31	O3	0.494000	0.234900	0.155800
O41	O4	0.401800	0.862100	0.747600
O51	O5	0.649700	0.804940	0.758700
O61	O6	0.964900	0.386400	0.859100
O71	O7	0.454400	0.199500	0.035500
O81	O8	0.696000	0.819600	0.883700
O91	O9	0.975700	0.447900	0.570300
O101	O10	0.086400	0.248680	0.943200
O111	O11	0.335500	0.883000	0.631400
O121	O12	0.995600	0.397600	0.983600
O131	O13	0.087000	0.723500	0.841100
O141	O14	0.061400	0.764140	0.705900
O151	O15	0.973200	0.918600	0.789000
O161	O16	0.050100	0.904200	0.920400
O171	O17	0.614100	0.532950	0.016400
O181	O18	0.567000	0.496770	0.882300
C11	C1	0.973000	0.457100	0.641700
C21	C2	0.997900	0.521300	0.674800
C31	C3	0.004100	0.532900	0.753300
H11	H1	0.997500	0.497700	0.786300
C41	C4	0.019400	0.594500	0.782600
H21	H2	0.025000	0.602700	0.835700
C51	C5	0.026600	0.644400	0.731300
C61	C6	0.021900	0.633500	0.653100
H31	H3	0.027700	0.668700	0.619800
C71	C7	0.008700	0.571600	0.626000
H41	H4	0.007000	0.562900	0.573400
C81	C8	0.939700	0.747700	0.780700
C91	C9	0.923000	0.758900	0.854900
H51	H5	0.964300	0.753800	0.898000
C101	C10	0.846900	0.777300	0.865700
H61	H6	0.836500	0.785200	0.915400
C111	C11	0.787200	0.784000	0.802600
C121	C12	0.805600	0.773100	0.729100
H71	H7	0.764600	0.778300	0.685800
C131	C13	0.881500	0.755000	0.718000
H81	H8	0.892300	0.748000	0.668200
C141	C14	0.704100	0.804600	0.815700
C151	C15	0.050500	0.223000	0.882300
C161	C16	0.050200	0.151400	0.875100
C171	C17	0.017900	0.123400	0.805300
H91	H9	0.996800	0.150800	0.763500
C181	C18	0.016000	0.057400	0.795700
H101	H10	0.994300	0.038500	0.747800
C191	C19	0.046300	0.018800	0.857300
C201	C20	0.077600	0.044300	0.926200
H111	H11	0.097500	0.016600	0.968000
C211	C21	0.080000	0.111400	0.934500
H121	H12	0.102800	0.129900	0.982300
C221	C22	0.129500	0.915000	0.803000
C231	C23	0.128400	0.924200	0.725100
H131	H13	0.081000	0.939300	0.693600
C241	C24	0.196300	0.911600	0.692400
H141	H14	0.194000	0.917200	0.639200
C251	C25	0.266000	0.891100	0.737900
C261	C26	0.264300	0.881400	0.815600
H151	H15	0.311400	0.866200	0.847600
C271	C27	0.196400	0.893100	0.848800
H161	H16	0.197700	0.885800	0.901600
C281	C28	0.340500	0.877800	0.703500
C291	C29	0.946600	0.402200	0.922500
C301	C30	0.863900	0.426900	0.928400
C311	C31	0.849300	0.457600	0.996200
H171	H17	0.892500	0.465100	0.036900
C321	C32	0.772700	0.477000	0.003900
H181	H18	0.763600	0.498000	0.049000
C331	C33	0.711200	0.464900	0.944900
C341	C34	0.725400	0.435100	0.877000
H191	H19	0.682200	0.427600	0.836200
C351	C35	0.802600	0.416600	0.869500
H201	H20	0.812000	0.397000	0.823600
C361	C36	0.575200	0.412700	0.993400
C371	C37	0.583800	0.403000	0.072100
H211	H21	0.609300	0.435500	0.106100
C381	C38	0.555800	0.347000	0.100900
H221	H22	0.561900	0.340900	0.154400
C391	C39	0.519200	0.300300	0.051800
C401	C40	0.510800	0.310400	0.972400
H231	H23	0.485600	0.277800	0.938500
C411	C41	0.538300	0.366800	0.943000
H241	H24	0.531900	0.373500	0.889500
C421	C42	0.487200	0.239400	0.084200
Co41	Co4	0.524170	0.830100	0.751390
Co51	Co5	0.623310	0.874500	0.944240
Co61	Co6	0.409130	0.849180	0.557380
S41	S4	0.461940	0.224950	0.733140
S51	S5	0.457920	0.433090	0.654920
S61	S6	0.888720	0.984690	0.543130
O191	O19	0.484800	0.754600	0.671700
O201	O20	0.556700	0.915350	0.819000
O211	O21	0.006000	0.734900	0.344200
O221	O22	0.098200	0.362100	0.752400
O231	O23	0.850300	0.304940	0.741300
O241	O24	0.535100	0.886400	0.640900
O251	O25	0.045600	0.699500	0.464500
O261	O26	0.804000	0.319600	0.616300
O271	O27	0.524300	0.947900	0.929700
O281	O28	0.413600	0.748680	0.556800
O291	O29	0.164500	0.383000	0.868600
O301	O30	0.504400	0.897600	0.516400
O311	O31	0.413000	0.223500	0.658900
O321	O32	0.438600	0.264140	0.794100
O331	O33	0.526800	0.418600	0.711000
O341	O34	0.449900	0.404200	0.579600
O351	O35	0.885900	0.032950	0.483600
O361	O36	0.933000	0.996770	0.617700
C431	C43	0.527000	0.957100	0.858300
C441	C44	0.502100	0.021300	0.825200
C451	C45	0.495900	0.032900	0.746700
H251	H25	0.502500	0.997700	0.713700
C461	C46	0.480600	0.094500	0.717400
H261	H26	0.475000	0.102700	0.664300
C471	C47	0.473400	0.144400	0.768700
C481	C48	0.478100	0.133500	0.846900
H271	H27	0.472300	0.168700	0.880200
C491	C49	0.491300	0.071600	0.874000
H281	H28	0.493000	0.062900	0.926600
C501	C50	0.560300	0.247700	0.719300
C511	C51	0.577000	0.258900	0.645100
H291	H29	0.535700	0.253800	0.602000
C521	C52	0.653100	0.277300	0.634300
H301	H30	0.663500	0.285200	0.584600
C531	C53	0.712800	0.284000	0.697400
C541	C54	0.694400	0.273100	0.770900
H311	H31	0.735400	0.278300	0.814200
C551	C55	0.618500	0.255000	0.782000
H321	H32	0.607700	0.248000	0.831800
C561	C56	0.795900	0.304600	0.684300
C571	C57	0.449500	0.723000	0.617700
C581	C58	0.449800	0.651400	0.624900
C591	C59	0.482100	0.623400	0.694700
H331	H33	0.503200	0.650800	0.736500
C601	C60	0.484000	0.557400	0.704300
H341	H34	0.505700	0.538500	0.752200
C611	C61	0.453700	0.518800	0.642700
C621	C62	0.422400	0.544300	0.573800
H351	H35	0.402500	0.516600	0.532000
C631	C63	0.420000	0.611400	0.565500
H361	H36	0.397200	0.629900	0.517700
C641	C64	0.370500	0.415000	0.697000
C651	C65	0.371600	0.424200	0.774900
H371	H37	0.419000	0.439300	0.806400
C661	C66	0.303700	0.411600	0.807600
H381	H38	0.306000	0.417200	0.860800
C671	C67	0.234000	0.391100	0.762100
C681	C68	0.235700	0.381400	0.684400
H391	H39	0.188600	0.366200	0.652400
C691	C69	0.303600	0.393100	0.651200
H401	H40	0.302300	0.385800	0.598400
C701	C70	0.159500	0.377800	0.796500
C711	C71	0.553400	0.902200	0.577500
C721	C72	0.636100	0.926900	0.571600
C731	C73	0.650700	0.957600	0.503800
H411	H41	0.607500	0.965100	0.463100
C741	C74	0.727300	0.977000	0.496100
H421	H42	0.736400	0.998000	0.451000
C751	C75	0.788800	0.964900	0.555100
C761	C76	0.774600	0.935100	0.623000
H431	H43	0.817800	0.927600	0.663800
C771	C77	0.697400	0.916600	0.630500
H441	H44	0.688000	0.897000	0.676400
C781	C78	0.924800	0.912700	0.506600
C791	C79	0.916200	0.903000	0.427900
H451	H45	0.890700	0.935500	0.393900
C801	C80	0.944200	0.847000	0.399100
H461	H46	0.938100	0.840900	0.345600
C811	C81	0.980800	0.800300	0.448200
C821	C82	0.989200	0.810400	0.527600
H471	H47	0.014400	0.777800	0.561500
C831	C83	0.961700	0.866800	0.557000
H481	H48	0.968100	0.873500	0.610500
C841	C84	0.012800	0.739400	0.415800
Co71	Co7	0.024170	0.669900	0.251390
Co81	Co8	0.123310	0.625500	0.444240
Co91	Co9	0.909130	0.650820	0.057380
S71	S7	0.961940	0.275050	0.233140
S81	S8	0.957920	0.066910	0.154920
S91	S9	0.388720	0.515310	0.043130
O371	O37	0.984800	0.745400	0.171700
O381	O38	0.056700	0.584650	0.319000
O391	O39	0.506000	0.765100	0.844200
O401	O40	0.598200	0.137900	0.252400
O411	O41	0.350300	0.195060	0.241300
O421	O42	0.035100	0.613600	0.140900
O431	O43	0.545600	0.800500	0.964500
O441	O44	0.304000	0.180400	0.116300
O451	O45	0.024300	0.552100	0.429700
O461	O46	0.913600	0.751320	0.056800
O471	O47	0.664500	0.117000	0.368600
O481	O48	0.004400	0.602400	0.016400
O491	O49	0.913000	0.276500	0.158900
O501	O50	0.938600	0.235860	0.294100
O511	O51	0.026800	0.081400	0.211000
O521	O52	0.949900	0.095800	0.079600
O531	O53	0.385900	0.467050	0.983600
O541	O54	0.433000	0.503230	0.117700
C851	C85	0.027000	0.542900	0.358300
C861	C86	0.002100	0.478700	0.325200
C871	C87	0.995900	0.467100	0.246700
H491	H49	0.002500	0.502300	0.213700
C881	C88	0.980600	0.405500	0.217400
H501	H50	0.975000	0.397300	0.164300
C891	C89	0.973400	0.355600	0.268700
C901	C90	0.978100	0.366500	0.346900
H511	H51	0.972300	0.331300	0.380200
C911	C91	0.991300	0.428400	0.374000
H521	H52	0.993000	0.437100	0.426600
C921	C92	0.060300	0.252300	0.219300
C931	C93	0.077000	0.241100	0.145100
H531	H53	0.035700	0.246200	0.102000
C941	C94	0.153100	0.222700	0.134300
H541	H54	0.163500	0.214800	0.084600
C951	C95	0.212800	0.216000	0.197400
C961	C96	0.194400	0.226900	0.270900
H551	H55	0.235400	0.221700	0.314200
C971	C97	0.118500	0.245000	0.282000
H561	H56	0.107700	0.252000	0.331800
C981	C98	0.295900	0.195400	0.184300
C991	C99	0.949500	0.777000	0.117700
C1001	C100	0.949800	0.848600	0.124900
C1011	C101	0.982100	0.876600	0.194700
H571	H57	0.003200	0.849200	0.236500
C1021	C102	0.984000	0.942600	0.204300
H581	H58	0.005700	0.961500	0.252200
C1031	C103	0.953700	0.981200	0.142700
C1041	C104	0.922400	0.955700	0.073800
H591	H59	0.902500	0.983400	0.032000
C1051	C105	0.920000	0.888600	0.065500
H601	H60	0.897200	0.870100	0.017700
C1061	C106	0.870500	0.085000	0.197000
C1071	C107	0.871600	0.075800	0.274900
H611	H61	0.919000	0.060700	0.306400
C1081	C108	0.803700	0.088400	0.307600
H621	H62	0.806000	0.082800	0.360800
C1091	C109	0.734000	0.108900	0.262100
C1101	C110	0.735700	0.118600	0.184400
H631	H63	0.688600	0.133800	0.152400
C1111	C111	0.803600	0.106900	0.151200
H641	H64	0.802300	0.114200	0.098400
C1121	C112	0.659500	0.122200	0.296500
C1131	C113	0.053400	0.597800	0.077500
C1141	C114	0.136100	0.573100	0.071600
C1151	C115	0.150700	0.542400	0.003800
H651	H65	0.107500	0.534900	0.963100
C1161	C116	0.227300	0.523000	0.996100
H661	H66	0.236400	0.502000	0.951000
C1171	C117	0.288800	0.535100	0.055100
C1181	C118	0.274600	0.564900	0.123000
H671	H67	0.317800	0.572400	0.163800
C1191	C119	0.197400	0.583400	0.130500
H681	H68	0.188000	0.603000	0.176400
C1201	C120	0.424800	0.587300	0.006600
C1211	C121	0.416200	0.597000	0.927900
H691	H69	0.390700	0.564500	0.893900
C1221	C122	0.444200	0.653000	0.899100
H701	H70	0.438100	0.659100	0.845600
C1231	C123	0.480800	0.699700	0.948200
C1241	C124	0.489200	0.689600	0.027600
H711	H71	0.514400	0.722200	0.061500
C1251	C125	0.461700	0.633200	0.057000
H721	H72	0.468100	0.626500	0.110500
C1261	C126	0.512800	0.760600	0.915800
Co101	Co10	0.475830	0.169900	0.248610
Co111	Co11	0.376690	0.125500	0.055760
Co121	Co12	0.590870	0.150820	0.442620
S101	S10	0.538060	0.775050	0.266860
S111	S11	0.542080	0.566910	0.345080
S121	S12	0.111280	0.015310	0.456870
O551	O55	0.515200	0.245400	0.328300
O561	O56	0.443300	0.084650	0.181000
O571	O57	0.994000	0.265100	0.655800
O581	O58	0.901800	0.637900	0.247600
O591	O59	0.149700	0.695060	0.258700
O601	O60	0.464900	0.113600	0.359100
O611	O61	0.954400	0.300500	0.535500
O621	O62	0.196000	0.680400	0.383700
O631	O63	0.475700	0.052100	0.070300
O641	O64	0.586400	0.251320	0.443200
O651	O65	0.835500	0.617000	0.131400
O661	O66	0.495600	0.102400	0.483600
O671	O67	0.587000	0.776500	0.341100
O681	O68	0.561400	0.735860	0.205900
O691	O69	0.473200	0.581400	0.289000
O701	O70	0.550100	0.595800	0.420400
O711	O71	0.114100	0.967050	0.516400
O721	O72	0.067000	0.003230	0.382300
C1271	C127	0.473000	0.042900	0.141700
C1281	C128	0.497900	0.978700	0.174800
C1291	C129	0.504100	0.967100	0.253300
H731	H73	0.497500	0.002300	0.286300
C1301	C130	0.519400	0.905500	0.282600
H741	H74	0.525000	0.897300	0.335700
C1311	C131	0.526600	0.855600	0.231300
C1321	C132	0.521900	0.866500	0.153100
H751	H75	0.527700	0.831300	0.119800
C1331	C133	0.508700	0.928400	0.126000
H761	H76	0.507000	0.937100	0.073400
C1341	C134	0.439700	0.752300	0.280700
C1351	C135	0.423000	0.741100	0.354900
H771	H77	0.464300	0.746200	0.398000
C1361	C136	0.346900	0.722700	0.365700
H781	H78	0.336500	0.714800	0.415400
C1371	C137	0.287200	0.716000	0.302600
C1381	C138	0.305600	0.726900	0.229100
H791	H79	0.264600	0.721700	0.185800
C1391	C139	0.381500	0.745000	0.218000
H801	H80	0.392300	0.752000	0.168200
C1401	C140	0.204100	0.695400	0.315700
C1411	C141	0.550500	0.277000	0.382300
C1421	C142	0.550200	0.348600	0.375100
C1431	C143	0.517900	0.376600	0.305300
H811	H81	0.496800	0.349200	0.263500
C1441	C144	0.516000	0.442600	0.295700
H821	H82	0.494300	0.461500	0.247800
C1451	C145	0.546300	0.481200	0.357300
C1461	C146	0.577600	0.455700	0.426200
H831	H83	0.597500	0.483400	0.468000
C1471	C147	0.580000	0.388600	0.434500
H841	H84	0.602800	0.370100	0.482300
C1481	C148	0.629500	0.585000	0.303000
C1491	C149	0.628400	0.575800	0.225100
H851	H85	0.581000	0.560700	0.193600
C1501	C150	0.696300	0.588400	0.192400
H861	H86	0.694000	0.582800	0.139200
C1511	C151	0.766000	0.608900	0.237900
C1521	C152	0.764300	0.618600	0.315600
H871	H87	0.811400	0.633800	0.347600
C1531	C153	0.696400	0.606900	0.348800
H881	H88	0.697700	0.614200	0.401600
C1541	C154	0.840500	0.622200	0.203500
C1551	C155	0.446600	0.097800	0.422500
C1561	C156	0.363900	0.073100	0.428400
C1571	C157	0.349300	0.042400	0.496200
H891	H89	0.392500	0.034900	0.536900
C1581	C158	0.272700	0.023000	0.503900
H901	H90	0.263600	0.002000	0.549000
C1591	C159	0.211200	0.035100	0.444900
C1601	C160	0.225400	0.064900	0.377000
H911	H91	0.182200	0.072400	0.336200
C1611	C161	0.302600	0.083400	0.369500
H921	H92	0.312000	0.103000	0.323600
C1621	C162	0.075200	0.087300	0.493400
C1631	C163	0.083800	0.097000	0.572100
H931	H93	0.109300	0.064500	0.606100
C1641	C164	0.055800	0.153000	0.600900
H941	H94	0.061900	0.159100	0.654400
C1651	C165	0.019200	0.199700	0.551800
C1661	C166	0.010800	0.189600	0.472400
H951	H95	0.985600	0.222200	0.438500
C1671	C167	0.038300	0.133200	0.443000
H961	H96	0.031900	0.126500	0.389500
C1681	C168	0.987200	0.260600	0.584200
