data_COXHON_clean_PM
_symmetry_space_group_name_H-M	'P1'
_cell_length_a	15.586300
_cell_length_b	15.586300
_cell_length_c	15.586300
_cell_angle_alpha	90.000000
_cell_angle_beta	90.000000
_cell_angle_gamma	90.000000
_symmetry_Int_Tables_number 1

loop_
_symmetry_equiv_pos_as_xyz
'x,y,z'

loop_
_atom_site_label
_atom_site_type_symbol
_atom_site_fract_x
_atom_site_fract_y
_atom_site_fract_z
O11	O1	0.122920	0.010710	0.361030
O21	O2	0.622920	0.510710	0.861030
O31	O3	0.377080	0.989290	0.861030
O41	O4	0.877080	0.489290	0.361030
O51	O5	0.877080	0.510710	0.138970
O61	O6	0.377080	0.010710	0.638970
O71	O7	0.622920	0.489290	0.638970
O81	O8	0.122920	0.989290	0.138970
O91	O9	0.361030	0.122920	0.010710
O101	O10	0.861030	0.622920	0.510710
O111	O11	0.861030	0.377080	0.989290
O121	O12	0.361030	0.877080	0.489290
O131	O13	0.138970	0.877080	0.510710
O141	O14	0.638970	0.377080	0.010710
O151	O15	0.638970	0.622920	0.489290
O161	O16	0.138970	0.122920	0.989290
O171	O17	0.010710	0.361030	0.122920
O181	O18	0.510710	0.861030	0.622920
O191	O19	0.989290	0.861030	0.377080
O201	O20	0.489290	0.361030	0.877080
O211	O21	0.510710	0.138970	0.877080
O221	O22	0.010710	0.638970	0.377080
O231	O23	0.489290	0.638970	0.622920
O241	O24	0.989290	0.138970	0.122920
O251	O25	0.760710	0.372920	0.888970
O261	O26	0.260710	0.872920	0.388970
O271	O27	0.739290	0.627080	0.388970
O281	O28	0.239290	0.127080	0.888970
O291	O29	0.260710	0.127080	0.111030
O301	O30	0.760710	0.627080	0.611030
O311	O31	0.239290	0.872920	0.611030
O321	O32	0.739290	0.372920	0.111030
O331	O33	0.872920	0.611030	0.239290
O341	O34	0.372920	0.111030	0.739290
O351	O35	0.127080	0.111030	0.260710
O361	O36	0.627080	0.611030	0.760710
O371	O37	0.627080	0.388970	0.739290
O381	O38	0.127080	0.888970	0.239290
O391	O39	0.372920	0.888970	0.760710
O401	O40	0.872920	0.388970	0.260710
O411	O41	0.111030	0.260710	0.127080
O421	O42	0.611030	0.760710	0.627080
O431	O43	0.611030	0.239290	0.872920
O441	O44	0.111030	0.739290	0.372920
O451	O45	0.888970	0.760710	0.372920
O461	O46	0.388970	0.260710	0.872920
O471	O47	0.388970	0.739290	0.627080
O481	O48	0.888970	0.239290	0.127080
Fe11	Fe1	0.125000	0.875000	0.375000
Fe21	Fe2	0.375000	0.125000	0.875000
Fe31	Fe3	0.875000	0.375000	0.125000
Fe41	Fe4	0.375000	0.875000	0.625000
Fe51	Fe5	0.625000	0.625000	0.625000
Fe61	Fe6	0.875000	0.625000	0.375000
Fe71	Fe7	0.625000	0.375000	0.875000
Fe81	Fe8	0.125000	0.125000	0.125000
C11	C1	0.125000	0.035430	0.285430
C21	C2	0.625000	0.535430	0.785430
C31	C3	0.375000	0.964570	0.785430
C41	C4	0.875000	0.464570	0.285430
C51	C5	0.875000	0.535430	0.214570
C61	C6	0.375000	0.035430	0.714570
C71	C7	0.625000	0.464570	0.714570
C81	C8	0.125000	0.964570	0.214570
C91	C9	0.285430	0.125000	0.035430
C101	C10	0.785430	0.625000	0.535430
C111	C11	0.785430	0.375000	0.964570
C121	C12	0.285430	0.875000	0.464570
C131	C13	0.214570	0.875000	0.535430
C141	C14	0.714570	0.375000	0.035430
C151	C15	0.714570	0.625000	0.464570
C161	C16	0.214570	0.125000	0.964570
C171	C17	0.035430	0.285430	0.125000
C181	C18	0.535430	0.785430	0.625000
C191	C19	0.964570	0.785430	0.375000
C201	C20	0.464570	0.285430	0.875000
C211	C21	0.535430	0.214570	0.875000
C221	C22	0.035430	0.714570	0.375000
C231	C23	0.464570	0.714570	0.625000
C241	C24	0.964570	0.214570	0.125000
