data_COXXIX_clean_PM
_symmetry_space_group_name_H-M	'P1'
_cell_length_a	7.332900
_cell_length_b	14.372000
_cell_length_c	18.070000
_cell_angle_alpha	90.000000
_cell_angle_beta	90.869000
_cell_angle_gamma	90.000000
_symmetry_Int_Tables_number 1

loop_
_symmetry_equiv_pos_as_xyz
'x,y,z'

loop_
_atom_site_label
_atom_site_type_symbol
_atom_site_fract_x
_atom_site_fract_y
_atom_site_fract_z
Mn11	Mn1	0.270720	0.565150	0.796120
Mn21	Mn2	0.750140	0.194980	0.945350
Mn31	Mn3	0.229280	0.065150	0.703880
Mn41	Mn4	0.749860	0.694980	0.554650
Mn51	Mn5	0.729280	0.434850	0.203880
Mn61	Mn6	0.249860	0.805020	0.054650
Mn71	Mn7	0.770720	0.934850	0.296120
Mn81	Mn8	0.250140	0.305020	0.445350
Mo11	Mo1	0.756240	0.338430	0.666540
Mo21	Mo2	0.743760	0.838430	0.833460
Mo31	Mo3	0.243760	0.661570	0.333470
Mo41	Mo4	0.256240	0.161570	0.166540
C11	C1	0.963600	0.424190	0.717230
C21	C2	0.809400	0.287660	0.778480
C31	C3	0.565100	0.413020	0.734630
C41	C4	0.547100	0.234230	0.687260
C51	C5	0.910900	0.212090	0.654950
C61	C6	0.592600	0.316060	0.566870
C71	C7	0.961000	0.349830	0.582010
C81	C8	0.718200	0.476550	0.618510
C91	C9	0.536400	0.924190	0.782770
C101	C10	0.690600	0.787660	0.721520
C111	C11	0.934900	0.913020	0.765370
C121	C12	0.952900	0.734230	0.812740
C131	C13	0.589100	0.712090	0.845050
C141	C14	0.907400	0.816060	0.933130
C151	C15	0.539000	0.849830	0.917990
C161	C16	0.781800	0.976550	0.881490
C171	C17	0.036400	0.575810	0.282770
C181	C18	0.190600	0.712340	0.221520
C191	C19	0.434900	0.586980	0.265370
C201	C20	0.452900	0.765770	0.312740
C211	C21	0.089100	0.787910	0.345050
C221	C22	0.407400	0.683940	0.433130
C231	C23	0.039000	0.650170	0.417990
C241	C24	0.281800	0.523450	0.381490
C251	C25	0.463600	0.075810	0.217230
C261	C26	0.309400	0.212340	0.278480
C271	C27	0.065100	0.086980	0.234630
C281	C28	0.047100	0.265770	0.187260
C291	C29	0.410900	0.287910	0.154950
C301	C30	0.092600	0.183940	0.066870
C311	C31	0.461000	0.150170	0.082010
C321	C32	0.218200	0.023450	0.118510
N11	N1	0.068500	0.475070	0.742140
N21	N2	0.833000	0.259000	0.837580
N31	N3	0.474000	0.453560	0.774240
N41	N4	0.436300	0.179400	0.696540
N51	N5	0.004400	0.147640	0.651930
N61	N6	0.504000	0.305940	0.514380
N71	N7	0.074000	0.351220	0.537840
N81	N8	0.705300	0.550260	0.593850
N91	N9	0.431500	0.975070	0.757860
N101	N10	0.667000	0.759000	0.662420
N111	N11	0.026000	0.953560	0.725760
N121	N12	0.063700	0.679400	0.803460
N131	N13	0.495600	0.647640	0.848070
N141	N14	0.996000	0.805940	0.985620
N151	N15	0.426000	0.851220	0.962160
N161	N16	0.794700	0.050260	0.906150
N171	N17	0.931500	0.524930	0.257860
N181	N18	0.167000	0.741000	0.162420
N191	N19	0.526000	0.546440	0.225760
N201	N20	0.563700	0.820600	0.303460
N211	N21	0.995600	0.852360	0.348070
N221	N22	0.496000	0.694060	0.485620
N231	N23	0.926000	0.648780	0.462160
N241	N24	0.294700	0.449740	0.406150
N251	N25	0.568500	0.024930	0.242140
N261	N26	0.333000	0.241000	0.337580
N271	N27	0.974000	0.046440	0.274240
N281	N28	0.936300	0.320600	0.196540
N291	N29	0.504400	0.352360	0.151930
N301	N30	0.004000	0.194060	0.014380
N311	N31	0.574000	0.148780	0.037840
N321	N32	0.205300	0.949740	0.093850
