data_COYCID_clean_PM
_symmetry_space_group_name_H-M	'P1'
_cell_length_a	17.104200
_cell_length_b	18.305200
_cell_length_c	20.236000
_cell_angle_alpha	75.305000
_cell_angle_beta	86.882000
_cell_angle_gamma	67.409000
_symmetry_Int_Tables_number 1

loop_
_symmetry_equiv_pos_as_xyz
'x,y,z'

loop_
_atom_site_label
_atom_site_type_symbol
_atom_site_fract_x
_atom_site_fract_y
_atom_site_fract_z
Cu11	Cu1	0.078600	0.152040	0.677880
Cu21	Cu2	0.012780	0.301280	0.774570
Cu31	Cu3	0.197080	0.291560	0.668600
Cu41	Cu4	0.373740	0.695430	0.219730
Cu51	Cu5	0.526000	0.655950	0.081250
Cu61	Cu6	0.498600	0.182580	0.834810
Cu71	Cu7	0.921400	0.847960	0.322120
Cu81	Cu8	0.987220	0.698720	0.225430
Cu91	Cu9	0.802920	0.708440	0.331400
Cu101	Cu10	0.626260	0.304570	0.780270
Cu111	Cu11	0.474000	0.344050	0.918750
Cu121	Cu12	0.501400	0.817420	0.165190
Mo11	Mo1	0.035720	0.313750	0.641540
Mo21	Mo2	0.542290	0.655560	0.211610
Mo31	Mo3	0.964280	0.686250	0.358460
Mo41	Mo4	0.457710	0.344440	0.788390
H11	H1	0.089500	0.976600	0.689900
H21	H2	0.058300	0.919900	0.604900
H31	H3	0.949200	0.136800	0.470100
H41	H4	0.970700	0.190900	0.557000
H51	H5	0.223700	0.685700	0.302200
H61	H6	0.183600	0.606000	0.388400
H71	H7	0.431700	0.461000	0.432200
H81	H8	0.459400	0.557000	0.343200
H91	H9	0.163000	0.497400	0.446900
H101	H10	0.135200	0.408100	0.534300
H111	H11	0.344800	0.347800	0.629400
H121	H12	0.390000	0.426800	0.548500
H131	H13	0.339700	0.757600	0.062300
H141	H14	0.244100	0.853000	0.982900
H151	H15	0.432900	0.848400	0.850900
H161	H16	0.523500	0.751200	0.935000
H171	H17	0.162400	0.905700	0.877100
H181	H18	0.073200	0.009100	0.787400
H191	H19	0.250800	0.095600	0.737700
H201	H20	0.348300	0.989700	0.815400
H211	H21	0.707700	0.546700	0.089700
H221	H22	0.808300	0.477200	0.026000
H231	H23	0.618600	0.510000	0.894000
H241	H24	0.527100	0.576900	0.960900
H251	H25	0.874000	0.495700	0.916900
H261	H26	0.975400	0.430200	0.849000
H271	H27	0.842600	0.306300	0.821400
H281	H28	0.734100	0.375500	0.881800
H291	H29	0.310700	0.917500	0.153400
H301	H30	0.211300	0.013100	0.074500
H311	H31	0.390000	0.024200	0.942100
H321	H32	0.489400	0.912200	0.019300
H331	H33	0.130000	0.047300	0.969700
H341	H34	0.032000	0.150500	0.890100
H351	H35	0.189800	0.260200	0.827700
H361	H36	0.292700	0.162900	0.908700
H371	H37	0.910500	0.023400	0.310100
H381	H38	0.941700	0.080100	0.395100
H391	H39	0.050800	0.863200	0.529900
H401	H40	0.029300	0.809100	0.443000
H411	H41	0.776300	0.314300	0.697800
H421	H42	0.816400	0.394000	0.611600
H431	H43	0.568300	0.539000	0.567800
H441	H44	0.540600	0.443000	0.656800
H451	H45	0.837000	0.502600	0.553100
H461	H46	0.864800	0.591900	0.465700
H471	H47	0.655200	0.652200	0.370600
H481	H48	0.610000	0.573200	0.451500
H491	H49	0.660300	0.242400	0.937700
H501	H50	0.755900	0.147000	0.017100
H511	H51	0.567100	0.151600	0.149100
H521	H52	0.476500	0.248800	0.065000
H531	H53	0.837600	0.094300	0.122900
H541	H54	0.926800	0.990900	0.212600
H551	H55	0.749200	0.904400	0.262300
H561	H56	0.651700	0.010300	0.184600
H571	H57	0.292300	0.453300	0.910300
H581	H58	0.191700	0.522800	0.974000
H591	H59	0.381400	0.490000	0.106000
H601	H60	0.472900	0.423100	0.039100
H611	H61	0.126000	0.504300	0.083100
H621	H62	0.024600	0.569800	0.151000
H631	H63	0.157400	0.693700	0.178600
H641	H64	0.265900	0.624500	0.118200
H651	H65	0.689300	0.082500	0.846600
H661	H66	0.788700	0.986900	0.925500
H671	H67	0.610000	0.975800	0.057900
H681	H68	0.510600	0.087800	0.980700
H691	H69	0.870000	0.952700	0.030300
H701	H70	0.968000	0.849500	0.109900
H711	H71	0.810200	0.739800	0.172300
H721	H72	0.707300	0.837100	0.091300
C11	C1	0.065000	0.007300	0.646000
C21	C2	0.043500	0.977300	0.594200
C31	C3	0.004000	0.019800	0.531400
C41	C4	0.977000	0.103400	0.513000
C51	C5	0.996000	0.133200	0.564000
C61	C6	0.266900	0.637400	0.327700
C71	C7	0.242100	0.593200	0.380500
C81	C8	0.303000	0.528600	0.423100
C91	C9	0.387300	0.508000	0.407000
C101	C10	0.402000	0.563200	0.350000
C111	C11	0.281900	0.470700	0.482300
C121	C12	0.204200	0.465000	0.483300
C131	C13	0.188000	0.414000	0.536600
C141	C14	0.307500	0.379300	0.590400
C151	C15	0.336200	0.424400	0.543200
C161	C16	0.357500	0.775900	0.018100
C171	C17	0.301900	0.833300	0.971700
C181	C18	0.323600	0.867700	0.905300
C191	C19	0.411800	0.831100	0.893900
C201	C20	0.464900	0.772200	0.943700
C211	C21	0.266500	0.929800	0.853200
C221	C22	0.183700	0.941700	0.846600
C231	C23	0.128700	0.006000	0.795700
C241	C24	0.234500	0.054500	0.766400
C251	C25	0.292200	0.992300	0.811300
C261	C26	0.690400	0.541400	0.047900
C271	C27	0.750300	0.498500	0.011100
C281	C28	0.727300	0.485000	0.950000
C291	C29	0.639000	0.517700	0.933400
C301	C30	0.585800	0.558700	0.972600
C311	C31	0.792800	0.441700	0.908700
C321	C32	0.865500	0.457300	0.897100
C331	C33	0.926200	0.417700	0.856800
C341	C34	0.848600	0.346700	0.839900
C351	C35	0.784400	0.386300	0.877400
C361	C36	0.327900	0.937100	0.109300
C371	C37	0.269100	0.995700	0.063300
C381	C38	0.290100	0.030800	0.000800
C391	C39	0.372700	0.001000	0.984900
C401	C40	0.432700	0.935200	0.032500
C411	C41	0.224500	0.095000	0.948400
C421	C42	0.143500	0.090600	0.941800
C431	C43	0.086500	0.152000	0.893300
C441	C44	0.177400	0.216800	0.856900
C451	C45	0.239600	0.158500	0.905500
C461	C46	0.360100	0.168300	0.758600
C471	C47	0.206000	0.817000	0.143800
C481	C48	0.935000	0.992700	0.354000
C491	C49	0.956500	0.022700	0.405800
C501	C50	0.996000	0.980200	0.468600
C511	C51	0.023000	0.896600	0.487000
C521	C52	0.004000	0.866800	0.436000
C531	C53	0.733100	0.362600	0.672300
C541	C54	0.757900	0.406800	0.619500
C551	C55	0.697000	0.471400	0.576900
C561	C56	0.612700	0.492000	0.593000
C571	C57	0.598000	0.436800	0.650000
C581	C58	0.718100	0.529300	0.517700
C591	C59	0.795800	0.535000	0.516700
C601	C60	0.812000	0.586000	0.463400
C611	C61	0.692500	0.620700	0.409600
C621	C62	0.663800	0.575600	0.456800
C631	C63	0.642500	0.224100	0.981900
C641	C64	0.698100	0.166700	0.028300
C651	C65	0.676400	0.132300	0.094700
C661	C66	0.588200	0.168900	0.106100
C671	C67	0.535100	0.227800	0.056300
C681	C68	0.733500	0.070200	0.146800
C691	C69	0.816300	0.058300	0.153400
C701	C70	0.871300	0.994000	0.204300
C711	C71	0.765500	0.945500	0.233600
C721	C72	0.707800	0.007700	0.188700
C731	C73	0.309600	0.458600	0.952100
C741	C74	0.249700	0.501500	0.988900
C751	C75	0.272700	0.515000	0.050000
C761	C76	0.361000	0.482300	0.066600
C771	C77	0.414200	0.441300	0.027400
C781	C78	0.207200	0.558300	0.091300
C791	C79	0.134500	0.542700	0.102900
C801	C80	0.073800	0.582300	0.143200
C811	C81	0.151400	0.653300	0.160100
C821	C82	0.215600	0.613700	0.122600
C831	C83	0.672100	0.062900	0.890700
C841	C84	0.730900	0.004300	0.936700
C851	C85	0.709900	0.969200	0.999200
C861	C86	0.627300	0.999000	0.015100
C871	C87	0.567300	0.064800	0.967500
C881	C88	0.775500	0.905000	0.051600
C891	C89	0.856500	0.909400	0.058200
C901	C90	0.913500	0.848000	0.106700
C911	C91	0.822600	0.783200	0.143100
C921	C92	0.760400	0.841500	0.094500
C931	C93	0.639900	0.831700	0.241400
C941	C94	0.794000	0.183000	0.856200
S11	S1	0.962800	0.244400	0.708000
S21	S2	0.153000	0.219500	0.611200
S31	S3	0.077800	0.377400	0.707200
S41	S4	0.464800	0.599500	0.169000
S51	S5	0.452400	0.752200	0.259100
S61	S6	0.598800	0.717700	0.122200
S71	S7	0.441200	0.097900	0.802800
S81	S8	0.118100	0.887600	0.099100
S91	S9	0.037200	0.755600	0.292000
S101	S10	0.847000	0.780500	0.388800
S111	S11	0.922200	0.622600	0.292800
S121	S12	0.535200	0.400500	0.831000
S131	S13	0.547600	0.247800	0.740900
S141	S14	0.401200	0.282300	0.877800
S151	S15	0.558800	0.902100	0.197200
S161	S16	0.881900	0.112400	0.900900
N11	N1	0.042300	0.095100	0.616700
N21	N2	0.344300	0.622500	0.306500
N31	N3	0.237000	0.371200	0.592000
N41	N4	0.441200	0.741800	0.003700
N51	N5	0.154600	0.060000	0.760900
N61	N6	0.606400	0.577600	0.028500
N71	N7	0.918700	0.362000	0.828100
N81	N8	0.412600	0.904100	0.095300
N91	N9	0.100700	0.214600	0.849400
N101	N10	0.300800	0.223400	0.726400
N111	N11	0.263300	0.770600	0.174200
N121	N12	0.957700	0.904900	0.383300
N131	N13	0.655700	0.377500	0.693500
N141	N14	0.763000	0.628800	0.408000
N151	N15	0.558800	0.258200	0.996300
N161	N16	0.845400	0.940000	0.239100
N171	N17	0.393600	0.422400	0.971500
N181	N18	0.081300	0.638000	0.171900
N191	N19	0.587400	0.095900	0.904700
N201	N20	0.899300	0.785400	0.150600
N211	N21	0.699200	0.776600	0.273600
N221	N22	0.736700	0.229400	0.825800
