data_COYTIU_clean_PM
_symmetry_space_group_name_H-M	'P1'
_cell_length_a	12.134000
_cell_length_b	12.391000
_cell_length_c	12.720000
_cell_angle_alpha	90.000000
_cell_angle_beta	90.000000
_cell_angle_gamma	114.777000
_symmetry_Int_Tables_number 1

loop_
_symmetry_equiv_pos_as_xyz
'x,y,z'

loop_
_atom_site_label
_atom_site_type_symbol
_atom_site_fract_x
_atom_site_fract_y
_atom_site_fract_z
Ce11	Ce1	0.544900	0.853650	0.546610
Ce21	Ce2	0.455100	0.646350	0.046610
Ce31	Ce3	0.455100	0.146350	0.453390
Ce41	Ce4	0.544900	0.353650	0.953390
H11	H1	0.621000	0.673000	0.722000
H21	H2	0.067900	0.753500	0.645400
H31	H3	0.201600	0.574400	0.836400
H41	H4	0.905400	0.673100	0.716300
H51	H5	0.020500	0.451500	0.869000
H61	H6	0.379000	0.827000	0.222000
H71	H7	0.932100	0.746500	0.145400
H81	H8	0.798400	0.925600	0.336400
H91	H9	0.094600	0.826900	0.216300
H101	H10	0.979500	0.048500	0.369000
H111	H11	0.379000	0.327000	0.278000
H121	H12	0.932100	0.246500	0.354600
H131	H13	0.798400	0.425600	0.163600
H141	H14	0.094600	0.326900	0.283700
H151	H15	0.979500	0.548500	0.131000
H161	H16	0.621000	0.173000	0.778000
H171	H17	0.067900	0.253500	0.854600
H181	H18	0.201600	0.074400	0.663600
H191	H19	0.905400	0.173100	0.783700
H201	H20	0.020500	0.951500	0.631000
C11	C1	0.278500	0.894300	0.551200
C21	C2	0.434900	0.677200	0.767500
C31	C3	0.667000	0.556300	0.766000
C41	C4	0.801800	0.302700	0.954000
C51	C5	0.247900	0.794800	0.628400
C61	C6	0.132200	0.735000	0.669200
C71	C7	0.110700	0.647400	0.745300
C81	C8	0.210500	0.629100	0.781200
C91	C9	0.322600	0.692100	0.734700
C101	C10	0.774900	0.531500	0.790700
C111	C11	0.890700	0.604300	0.757200
C121	C12	0.985800	0.574300	0.784800
C131	C13	0.958300	0.474400	0.847800
C141	C14	0.838800	0.408200	0.879700
C151	C15	0.721500	0.605700	0.051200
C161	C16	0.565100	0.822800	0.267500
C171	C17	0.333000	0.943700	0.266000
C181	C18	0.198200	0.197300	0.454000
C191	C19	0.752100	0.705200	0.128400
C201	C20	0.867800	0.765000	0.169200
C211	C21	0.889300	0.852600	0.245300
C221	C22	0.789500	0.870900	0.281200
C231	C23	0.677400	0.807900	0.234700
C241	C24	0.225100	0.968500	0.290700
C251	C25	0.109300	0.895700	0.257200
C261	C26	0.014200	0.925700	0.284800
C271	C27	0.041700	0.025600	0.347800
C281	C28	0.161200	0.091800	0.379700
C291	C29	0.721500	0.105700	0.448800
C301	C30	0.565100	0.322800	0.232500
C311	C31	0.333000	0.443700	0.234000
C321	C32	0.198200	0.697300	0.046000
C331	C33	0.752100	0.205200	0.371600
C341	C34	0.867800	0.265000	0.330800
C351	C35	0.889300	0.352600	0.254700
C361	C36	0.789500	0.370900	0.218800
C371	C37	0.677400	0.307900	0.265300
C381	C38	0.225100	0.468500	0.209300
C391	C39	0.109300	0.395700	0.242800
C401	C40	0.014200	0.425700	0.215200
C411	C41	0.041700	0.525600	0.152200
C421	C42	0.161200	0.591800	0.120300
C431	C43	0.278500	0.394300	0.948800
C441	C44	0.434900	0.177200	0.732500
C451	C45	0.667000	0.056300	0.734000
C461	C46	0.801800	0.802700	0.546000
C471	C47	0.247900	0.294800	0.871600
C481	C48	0.132200	0.235000	0.830800
C491	C49	0.110700	0.147400	0.754700
C501	C50	0.210500	0.129100	0.718800
C511	C51	0.322600	0.192100	0.765300
C521	C52	0.774900	0.031500	0.709300
C531	C53	0.890700	0.104300	0.742800
C541	C54	0.985800	0.074300	0.715200
C551	C55	0.958300	0.974400	0.652200
C561	C56	0.838800	0.908200	0.620300
N11	N1	0.341180	0.770600	0.657330
N21	N2	0.748330	0.435100	0.849810
N31	N3	0.658820	0.729400	0.157330
N41	N4	0.251670	0.064900	0.349810
N51	N5	0.658820	0.229400	0.342670
N61	N6	0.251670	0.564900	0.150190
N71	N7	0.341180	0.270600	0.842670
N81	N8	0.748330	0.935100	0.650190
O11	O1	0.380980	0.925620	0.502570
O21	O2	0.210480	0.944010	0.540930
O31	O3	0.520070	0.712710	0.699330
O41	O4	0.438180	0.633560	0.853400
O51	O5	0.563320	0.480810	0.784080
O61	O6	0.694640	0.660900	0.727800
O71	O7	0.693340	0.263860	0.989010
O81	O8	0.878070	0.264700	0.974290
O91	O9	0.619020	0.574380	0.002570
O101	O10	0.789520	0.555990	0.040930
O111	O11	0.479930	0.787290	0.199330
O121	O12	0.561820	0.866440	0.353400
O131	O13	0.436680	0.019190	0.284080
O141	O14	0.305360	0.839100	0.227800
O151	O15	0.306660	0.236140	0.489010
O161	O16	0.121930	0.235300	0.474290
O171	O17	0.619020	0.074380	0.497430
O181	O18	0.789520	0.055990	0.459070
O191	O19	0.479930	0.287290	0.300670
O201	O20	0.561820	0.366440	0.146600
O211	O21	0.436680	0.519190	0.215920
O221	O22	0.305360	0.339100	0.272200
O231	O23	0.306660	0.736140	0.010990
O241	O24	0.121930	0.735300	0.025710
O251	O25	0.380980	0.425620	0.997430
O261	O26	0.210480	0.444010	0.959070
O271	O27	0.520070	0.212710	0.800670
O281	O28	0.438180	0.133560	0.646600
O291	O29	0.563320	0.980810	0.715920
O301	O30	0.694640	0.160900	0.772200
O311	O31	0.693340	0.763860	0.510990
O321	O32	0.878070	0.764700	0.525710
