data_COYTOA_clean_PM
_symmetry_space_group_name_H-M	'P1'
_cell_length_a	12.064800
_cell_length_b	12.378700
_cell_length_c	12.514800
_cell_angle_alpha	90.000000
_cell_angle_beta	90.000000
_cell_angle_gamma	115.069000
_symmetry_Int_Tables_number 1

loop_
_symmetry_equiv_pos_as_xyz
'x,y,z'

loop_
_atom_site_label
_atom_site_type_symbol
_atom_site_fract_x
_atom_site_fract_y
_atom_site_fract_z
Sm11	Sm1	0.040330	0.354830	0.550750
Sm21	Sm2	0.959670	0.145170	0.050750
Sm31	Sm3	0.959670	0.645170	0.449250
Sm41	Sm4	0.040330	0.854830	0.949250
H11	H1	0.129600	0.172200	0.717600
H21	H2	0.566300	0.248800	0.645600
H31	H3	0.699500	0.074900	0.838500
H41	H4	0.404500	0.172300	0.717700
H51	H5	0.512100	0.947800	0.870100
H61	H6	0.870400	0.327800	0.217600
H71	H7	0.433700	0.251200	0.145600
H81	H8	0.300500	0.425100	0.338500
H91	H9	0.595500	0.327700	0.217700
H101	H10	0.487900	0.552200	0.370100
H111	H11	0.870400	0.827800	0.282400
H121	H12	0.433700	0.751200	0.354400
H131	H13	0.300500	0.925100	0.161500
H141	H14	0.595500	0.827700	0.282300
H151	H15	0.487900	0.052200	0.129900
H161	H16	0.129600	0.672200	0.782400
H171	H17	0.566300	0.748800	0.854400
H181	H18	0.699500	0.574900	0.661500
H191	H19	0.404500	0.672300	0.782300
H201	H20	0.512100	0.447800	0.629900
C11	C1	0.775800	0.393700	0.552300
C21	C2	0.935100	0.179900	0.772800
C31	C3	0.164500	0.059200	0.768900
C41	C4	0.291600	0.800700	0.955400
C51	C5	0.746900	0.294800	0.629400
C61	C6	0.630100	0.232200	0.670200
C71	C7	0.607800	0.145400	0.746900
C81	C8	0.708700	0.129200	0.784100
C91	C9	0.821500	0.193900	0.739700
C101	C10	0.271900	0.033500	0.792200
C111	C11	0.388600	0.104500	0.758500
C121	C12	0.482200	0.073300	0.786100
C131	C13	0.451900	0.971700	0.849300
C141	C14	0.332300	0.907100	0.880700
C151	C15	0.224200	0.106300	0.052300
C161	C16	0.064900	0.320100	0.272800
C171	C17	0.835500	0.440800	0.268900
C181	C18	0.708400	0.699300	0.455400
C191	C19	0.253100	0.205200	0.129400
C201	C20	0.369900	0.267800	0.170200
C211	C21	0.392200	0.354600	0.246900
C221	C22	0.291300	0.370800	0.284100
C231	C23	0.178500	0.306100	0.239700
C241	C24	0.728100	0.466500	0.292200
C251	C25	0.611400	0.395500	0.258500
C261	C26	0.517800	0.426700	0.286100
C271	C27	0.548100	0.528300	0.349300
C281	C28	0.667700	0.592900	0.380700
C291	C29	0.224200	0.606300	0.447700
C301	C30	0.064900	0.820100	0.227200
C311	C31	0.835500	0.940800	0.231100
C321	C32	0.708400	0.199300	0.044600
C331	C33	0.253100	0.705200	0.370600
C341	C34	0.369900	0.767800	0.329800
C351	C35	0.392200	0.854600	0.253100
C361	C36	0.291300	0.870800	0.215900
C371	C37	0.178500	0.806100	0.260300
C381	C38	0.728100	0.966500	0.207800
C391	C39	0.611400	0.895500	0.241500
C401	C40	0.517800	0.926700	0.213900
C411	C41	0.548100	0.028300	0.150700
C421	C42	0.667700	0.092900	0.119300
C431	C43	0.775800	0.893700	0.947700
C441	C44	0.935100	0.679900	0.727200
C451	C45	0.164500	0.559200	0.731100
C461	C46	0.291600	0.300700	0.544600
C471	C47	0.746900	0.794800	0.870600
C481	C48	0.630100	0.732200	0.829800
C491	C49	0.607800	0.645400	0.753100
C501	C50	0.708700	0.629200	0.715900
C511	C51	0.821500	0.693900	0.760300
C521	C52	0.271900	0.533500	0.707800
C531	C53	0.388600	0.604500	0.741500
C541	C54	0.482200	0.573300	0.713900
C551	C55	0.451900	0.471700	0.650700
C561	C56	0.332300	0.407100	0.619300
N11	N1	0.841200	0.272800	0.660200
N21	N2	0.242800	0.936900	0.851800
N31	N3	0.158800	0.227200	0.160200
N41	N4	0.757200	0.563100	0.351800
N51	N5	0.158800	0.727200	0.339800
N61	N6	0.757200	0.063100	0.148200
N71	N7	0.841200	0.772800	0.839800
N81	N8	0.242800	0.436900	0.648200
O11	O1	0.881300	0.429200	0.504700
O21	O2	0.705300	0.438900	0.540500
O31	O3	0.021100	0.219500	0.704000
O41	O4	0.938700	0.135700	0.859800
O51	O5	0.060900	0.984500	0.785200
O61	O6	0.192500	0.164900	0.731800
O71	O7	0.181400	0.763100	0.987700
O81	O8	0.366300	0.761400	0.977800
O91	O9	0.118700	0.070800	0.004700
O101	O10	0.294700	0.061100	0.040500
O111	O11	0.978900	0.280500	0.204000
O121	O12	0.061300	0.364300	0.359800
O131	O13	0.939100	0.515500	0.285200
O141	O14	0.807500	0.335100	0.231800
O151	O15	0.818600	0.736900	0.487700
O161	O16	0.633700	0.738600	0.477800
O171	O17	0.118700	0.570800	0.495300
O181	O18	0.294700	0.561100	0.459500
O191	O19	0.978900	0.780500	0.296000
O201	O20	0.061300	0.864300	0.140200
O211	O21	0.939100	0.015500	0.214800
O221	O22	0.807500	0.835100	0.268200
O231	O23	0.818600	0.236900	0.012300
O241	O24	0.633700	0.238600	0.022200
O251	O25	0.881300	0.929200	0.995300
O261	O26	0.705300	0.938900	0.959500
O271	O27	0.021100	0.719500	0.796000
O281	O28	0.938700	0.635700	0.640200
O291	O29	0.060900	0.484500	0.714800
O301	O30	0.192500	0.664900	0.768200
O311	O31	0.181400	0.263100	0.512300
O321	O32	0.366300	0.261400	0.522200
