data_COYTEQ_clean_PM
_symmetry_space_group_name_H-M	'P1'
_cell_length_a	12.120000
_cell_length_b	12.360500
_cell_length_c	12.806700
_cell_angle_alpha	90.000000
_cell_angle_beta	90.000000
_cell_angle_gamma	114.974000
_symmetry_Int_Tables_number 1

loop_
_symmetry_equiv_pos_as_xyz
'x,y,z'

loop_
_atom_site_label
_atom_site_type_symbol
_atom_site_fract_x
_atom_site_fract_y
_atom_site_fract_z
La11	La1	0.548220	0.853700	0.455200
La21	La2	0.451780	0.646300	0.955200
La31	La3	0.451780	0.146300	0.544800
La41	La4	0.548220	0.353700	0.044800
H11	H1	0.633700	0.667800	0.284200
H21	H2	0.202700	0.576200	0.166100
H31	H3	0.071500	0.752300	0.353100
H41	H4	0.022100	0.453300	0.131600
H51	H5	0.905400	0.669800	0.283600
H61	H6	0.366300	0.832200	0.784200
H71	H7	0.797300	0.923800	0.666100
H81	H8	0.928500	0.747700	0.853100
H91	H9	0.977900	0.046700	0.631600
H101	H10	0.094600	0.830200	0.783600
H111	H11	0.366300	0.332200	0.715800
H121	H12	0.797300	0.423800	0.833900
H131	H13	0.928500	0.247700	0.646900
H141	H14	0.977900	0.546700	0.868400
H151	H15	0.094600	0.330200	0.716400
H161	H16	0.633700	0.167800	0.215800
H171	H17	0.202700	0.076200	0.333900
H181	H18	0.071500	0.252300	0.146900
H191	H19	0.022100	0.953300	0.368400
H201	H20	0.905400	0.169800	0.216400
C11	C1	0.436300	0.678100	0.235400
C21	C2	0.279500	0.893200	0.448000
C31	C3	0.808000	0.304900	0.046000
C41	C4	0.668600	0.554500	0.233400
C51	C5	0.325000	0.692100	0.267400
C61	C6	0.211900	0.629500	0.220200
C71	C7	0.113800	0.648500	0.255500
C81	C8	0.134900	0.734700	0.330300
C91	C9	0.250000	0.795300	0.371800
C101	C10	0.843400	0.410200	0.120500
C111	C11	0.960900	0.475400	0.152300
C121	C12	0.988500	0.574900	0.215900
C131	C13	0.891800	0.603100	0.242800
C141	C14	0.777400	0.531800	0.208600
C151	C15	0.563700	0.821900	0.735400
C161	C16	0.720500	0.606800	0.948000
C171	C17	0.192000	0.195100	0.546000
C181	C18	0.331400	0.945500	0.733400
C191	C19	0.675000	0.807900	0.767400
C201	C20	0.788100	0.870500	0.720200
C211	C21	0.886200	0.851500	0.755500
C221	C22	0.865100	0.765300	0.830300
C231	C23	0.750000	0.704700	0.871800
C241	C24	0.156600	0.089800	0.620500
C251	C25	0.039100	0.024600	0.652300
C261	C26	0.011500	0.925100	0.715900
C271	C27	0.108200	0.896900	0.742800
C281	C28	0.222600	0.968200	0.708600
C291	C29	0.563700	0.321900	0.764600
C301	C30	0.720500	0.106800	0.552000
C311	C31	0.192000	0.695100	0.954000
C321	C32	0.331400	0.445500	0.766600
C331	C33	0.675000	0.307900	0.732600
C341	C34	0.788100	0.370500	0.779800
C351	C35	0.886200	0.351500	0.744500
C361	C36	0.865100	0.265300	0.669700
C371	C37	0.750000	0.204700	0.628200
C381	C38	0.156600	0.589800	0.879500
C391	C39	0.039100	0.524600	0.847700
C401	C40	0.011500	0.425100	0.784100
C411	C41	0.108200	0.396900	0.757200
C421	C42	0.222600	0.468200	0.791400
C431	C43	0.436300	0.178100	0.264600
C441	C44	0.279500	0.393200	0.052000
C451	C45	0.808000	0.804900	0.454000
C461	C46	0.668600	0.054500	0.266600
C471	C47	0.325000	0.192100	0.232600
C481	C48	0.211900	0.129500	0.279800
C491	C49	0.113800	0.148500	0.244500
C501	C50	0.134900	0.234700	0.169700
C511	C51	0.250000	0.295300	0.128200
C521	C52	0.843400	0.910200	0.379500
C531	C53	0.960900	0.975400	0.347700
C541	C54	0.988500	0.074900	0.284100
C551	C55	0.891800	0.103100	0.257200
C561	C56	0.777400	0.031800	0.291400
N11	N1	0.342900	0.770000	0.343900
N21	N2	0.752600	0.437100	0.150100
N31	N3	0.657100	0.730000	0.843900
N41	N4	0.247400	0.062900	0.650100
N51	N5	0.657100	0.230000	0.656100
N61	N6	0.247400	0.562900	0.849900
N71	N7	0.342900	0.270000	0.156100
N81	N8	0.752600	0.937100	0.349900
O11	O1	0.521000	0.711000	0.303000
O21	O2	0.440000	0.635600	0.150500
O31	O3	0.381900	0.924700	0.497700
O41	O4	0.213700	0.945600	0.457500
O51	O5	0.698900	0.266700	0.010600
O61	O6	0.883500	0.267800	0.026500
O71	O7	0.566800	0.479900	0.214700
O81	O8	0.696200	0.659200	0.273300
O91	O9	0.479000	0.789000	0.803000
O101	O10	0.560000	0.864400	0.650500
O111	O11	0.618100	0.575300	0.997700
O121	O12	0.786300	0.554400	0.957500
O131	O13	0.301100	0.233300	0.510600
O141	O14	0.116500	0.232200	0.526500
O151	O15	0.433200	0.020100	0.714700
O161	O16	0.303800	0.840800	0.773300
O171	O17	0.479000	0.289000	0.697000
O181	O18	0.560000	0.364400	0.849500
O191	O19	0.618100	0.075300	0.502300
O201	O20	0.786300	0.054400	0.542500
O211	O21	0.301100	0.733300	0.989400
O221	O22	0.116500	0.732200	0.973500
O231	O23	0.433200	0.520100	0.785300
O241	O24	0.303800	0.340800	0.726700
O251	O25	0.521000	0.211000	0.197000
O261	O26	0.440000	0.135600	0.349500
O271	O27	0.381900	0.424700	0.002300
O281	O28	0.213700	0.445600	0.042500
O291	O29	0.698900	0.766700	0.489400
O301	O30	0.883500	0.767800	0.473500
O311	O31	0.566800	0.979900	0.285300
O321	O32	0.696200	0.159200	0.226700
