data_COYVAO_clean_PM
_symmetry_space_group_name_H-M	'P1'
_cell_length_a	12.102500
_cell_length_b	12.680500
_cell_length_c	21.695000
_cell_angle_alpha	82.759000
_cell_angle_beta	74.685000
_cell_angle_gamma	61.496700
_symmetry_Int_Tables_number 1

loop_
_symmetry_equiv_pos_as_xyz
'x,y,z'

loop_
_atom_site_label
_atom_site_type_symbol
_atom_site_fract_x
_atom_site_fract_y
_atom_site_fract_z
Dy11	Dy1	0.508480	0.260320	0.474280
Dy21	Dy2	0.231200	0.260320	0.025720
Dy31	Dy3	0.491520	0.739680	0.525720
Dy41	Dy4	0.768800	0.739680	0.974280
Dy51	Dy5	0.753080	0.493840	0.250000
Dy61	Dy6	0.246920	0.506160	0.750000
Dy71	Dy7	0.213340	0.573320	0.250000
Dy81	Dy8	0.786660	0.426680	0.750000
H11	H1	0.899000	0.129400	0.414800
H21	H2	0.121900	0.300800	0.380400
H31	H3	0.104100	0.959000	0.407100
H41	H4	0.169500	0.195600	0.482000
H51	H5	0.474100	0.120000	0.336200
H61	H6	0.473000	0.942800	0.345400
H71	H7	0.971600	0.129400	0.085200
H81	H8	0.577300	0.300800	0.119600
H91	H9	0.936900	0.959000	0.092900
H101	H10	0.634900	0.195600	0.018000
H111	H11	0.405900	0.120000	0.163800
H121	H12	0.584200	0.942800	0.154600
H131	H13	0.101000	0.870600	0.585200
H141	H14	0.878100	0.699200	0.619600
H151	H15	0.895900	0.041000	0.592900
H161	H16	0.830500	0.804400	0.518000
H171	H17	0.525900	0.880000	0.663800
H181	H18	0.527000	0.057200	0.654600
H191	H19	0.028400	0.870600	0.914800
H201	H20	0.422700	0.699200	0.880400
H211	H21	0.063100	0.041000	0.907100
H221	H22	0.365100	0.804400	0.982000
H231	H23	0.594100	0.880000	0.836200
H241	H24	0.415800	0.057200	0.845400
C11	C1	0.352800	0.364600	0.351900
C21	C2	0.582800	0.698400	0.362300
C31	C3	0.722000	0.284200	0.347000
C41	C4	0.842600	0.278600	0.359500
C51	C5	0.919700	0.191200	0.395200
C61	C6	0.030300	0.194600	0.402100
C71	C7	0.051200	0.292200	0.375000
C81	C8	0.966700	0.375400	0.340300
C91	C9	0.983500	0.481000	0.306400
C101	C10	0.276600	0.756800	0.456000
C111	C11	0.239500	0.889000	0.458600
C121	C12	0.148000	0.978000	0.430500
C131	C13	0.120700	0.097400	0.436400
C141	C14	0.187900	0.116200	0.473700
C151	C15	0.282100	0.019800	0.498200
C161	C16	0.383400	0.027400	0.524100
C171	C17	0.374100	0.285800	0.299800
C181	C18	0.438700	0.161400	0.300900
C191	C19	0.581500	0.779000	0.304100
C201	C20	0.516800	0.902400	0.305600
C211	C21	0.282600	0.364600	0.148100
C221	C22	0.718800	0.698400	0.137700
C231	C23	0.993800	0.284200	0.153000
C241	C24	0.878800	0.278600	0.140500
C251	C25	0.889100	0.191200	0.104800
C261	C26	0.775100	0.194600	0.097900
C271	C27	0.656600	0.292200	0.125000
C281	C28	0.657900	0.375400	0.159700
C291	C29	0.535500	0.481000	0.193600
C301	C30	0.966600	0.756800	0.044000
C311	C31	0.871500	0.889000	0.041400
C321	C32	0.874000	0.978000	0.069500
C331	C33	0.781900	0.097400	0.063600
C341	C34	0.695900	0.116200	0.026300
C351	C35	0.698100	0.019800	0.001800
C361	C36	0.589200	0.027400	0.975900
C371	C37	0.340100	0.285800	0.200200
C381	C38	0.399900	0.161400	0.199100
C391	C39	0.639500	0.779000	0.195900
C401	C40	0.580800	0.902400	0.194400
C411	C41	0.647200	0.635400	0.648100
C421	C42	0.417200	0.301600	0.637700
C431	C43	0.278000	0.715800	0.653000
C441	C44	0.157400	0.721400	0.640500
C451	C45	0.080300	0.808800	0.604800
C461	C46	0.969700	0.805400	0.597900
C471	C47	0.948800	0.707800	0.625000
C481	C48	0.033300	0.624600	0.659700
C491	C49	0.016500	0.519000	0.693600
C501	C50	0.723400	0.243200	0.544000
C511	C51	0.760500	0.111000	0.541400
C521	C52	0.852000	0.022000	0.569500
C531	C53	0.879300	0.902600	0.563600
C541	C54	0.812100	0.883800	0.526300
C551	C55	0.717900	0.980200	0.501800
C561	C56	0.616600	0.972600	0.475900
C571	C57	0.625900	0.714200	0.700200
C581	C58	0.561300	0.838600	0.699100
C591	C59	0.418500	0.221000	0.695900
C601	C60	0.483200	0.097600	0.694400
C611	C61	0.717400	0.635400	0.851900
C621	C62	0.281200	0.301600	0.862300
C631	C63	0.006200	0.715800	0.847000
C641	C64	0.121200	0.721400	0.859500
C651	C65	0.110900	0.808800	0.895200
C661	C66	0.224900	0.805400	0.902100
C671	C67	0.343400	0.707800	0.875000
C681	C68	0.342100	0.624600	0.840300
C691	C69	0.464500	0.519000	0.806400
C701	C70	0.033400	0.243200	0.956000
C711	C71	0.128500	0.111000	0.958600
C721	C72	0.126000	0.022000	0.930500
C731	C73	0.218100	0.902600	0.936400
C741	C74	0.304100	0.883800	0.973700
C751	C75	0.301900	0.980200	0.998200
C761	C76	0.410800	0.972600	0.024100
C771	C77	0.659900	0.714200	0.799800
C781	C78	0.600100	0.838600	0.800900
C791	C79	0.360500	0.221000	0.804100
C801	C80	0.419200	0.097600	0.805600
C811	C81	0.450900	0.098200	0.250000
C821	C82	0.515900	0.968200	0.250000
C831	C83	0.549100	0.901800	0.750000
C841	C84	0.484100	0.031800	0.750000
N11	N1	0.867000	0.367400	0.331600
N21	N2	0.300400	0.912000	0.493700
N31	N3	0.765600	0.367400	0.168400
N41	N4	0.787600	0.912000	0.006300
N51	N5	0.133000	0.632600	0.668400
N61	N6	0.699600	0.088000	0.506300
N71	N7	0.234400	0.632600	0.831600
N81	N8	0.212400	0.088000	0.993700
N91	N9	0.327500	0.345000	0.250000
N101	N10	0.641700	0.716600	0.250000
N111	N11	0.672500	0.655000	0.750000
N121	N12	0.358300	0.283400	0.750000
O11	O1	0.680400	0.351200	0.301700
O21	O2	0.674500	0.221800	0.381500
O31	O3	0.899900	0.548200	0.275300
O41	O4	0.076700	0.493800	0.311000
O51	O5	0.353300	0.685400	0.489800
O61	O6	0.226500	0.725000	0.423400
O71	O7	0.411100	0.945800	0.569500
O81	O8	0.431500	0.105000	0.502700
O91	O9	0.305400	0.474600	0.342200
O101	O10	0.381800	0.309800	0.402900
O111	O11	0.629300	0.588400	0.352400
O121	O12	0.535600	0.751800	0.413400
O131	O13	0.968400	0.351200	0.198300
O141	O14	0.103700	0.221800	0.118500
O151	O15	0.551900	0.548200	0.224700
O161	O16	0.429500	0.493800	0.189000
O171	O17	0.961300	0.685400	0.010200
O181	O18	0.048500	0.725000	0.076600
O191	O19	0.643100	0.945800	0.930500
O201	O20	0.463500	0.105000	0.997300
O211	O21	0.220000	0.474600	0.157800
O221	O22	0.308400	0.309800	0.097100
O231	O23	0.782300	0.588400	0.147600
O241	O24	0.712600	0.751800	0.086600
O251	O25	0.319600	0.648800	0.698300
O261	O26	0.325500	0.778200	0.618500
O271	O27	0.100100	0.451800	0.724700
O281	O28	0.923300	0.506200	0.689000
O291	O29	0.646700	0.314600	0.510200
O301	O30	0.773500	0.275000	0.576600
O311	O31	0.588900	0.054200	0.430500
O321	O32	0.568500	0.895000	0.497300
O331	O33	0.694600	0.525400	0.657800
O341	O34	0.618200	0.690200	0.597100
O351	O35	0.370700	0.411600	0.647600
O361	O36	0.464400	0.248200	0.586600
O371	O37	0.031600	0.648800	0.801700
O381	O38	0.896300	0.778200	0.881500
O391	O39	0.448100	0.451800	0.775300
O401	O40	0.570500	0.506200	0.811000
O411	O41	0.038700	0.314600	0.989800
O421	O42	0.951500	0.275000	0.923400
O431	O43	0.356900	0.054200	0.069500
O441	O44	0.536500	0.895000	0.002700
O451	O45	0.780000	0.525400	0.842200
O461	O46	0.691600	0.690200	0.902900
O471	O47	0.217700	0.411600	0.852400
O481	O48	0.287400	0.248200	0.913400
