data_COYVES01_clean_PM
_symmetry_space_group_name_H-M	'P1'
_cell_length_a	12.126000
_cell_length_b	12.678700
_cell_length_c	21.568000
_cell_angle_alpha	82.758700
_cell_angle_beta	74.717000
_cell_angle_gamma	61.431800
_symmetry_Int_Tables_number 1

loop_
_symmetry_equiv_pos_as_xyz
'x,y,z'

loop_
_atom_site_label
_atom_site_type_symbol
_atom_site_fract_x
_atom_site_fract_y
_atom_site_fract_z
Ho11	Ho1	0.770010	0.739180	0.474340
Ho21	Ho2	0.490810	0.739180	0.025660
Ho31	Ho3	0.229990	0.260820	0.525660
Ho41	Ho4	0.509190	0.260820	0.974340
Ho51	Ho5	0.785130	0.429740	0.250000
Ho61	Ho6	0.214870	0.570260	0.750000
Ho71	Ho7	0.246930	0.506140	0.250000
Ho81	Ho8	0.753070	0.493860	0.750000
H11	H1	0.028900	0.870000	0.414400
H21	H2	0.420000	0.702200	0.380400
H31	H3	0.064200	0.042200	0.405200
H41	H4	0.366200	0.806000	0.481000
H51	H5	0.594700	0.878400	0.335600
H61	H6	0.418200	0.060600	0.346100
H71	H7	0.101100	0.870000	0.085600
H81	H8	0.877800	0.702200	0.119600
H91	H9	0.893600	0.042200	0.094800
H101	H10	0.827800	0.806000	0.019000
H111	H11	0.526900	0.878400	0.164400
H121	H12	0.521200	0.060600	0.153900
H131	H13	0.971100	0.130000	0.585600
H141	H14	0.580000	0.297800	0.619600
H151	H15	0.935800	0.957800	0.594800
H161	H16	0.633800	0.194000	0.519000
H171	H17	0.405300	0.121600	0.664400
H181	H18	0.581800	0.939400	0.653900
H191	H19	0.898900	0.130000	0.914400
H201	H20	0.122200	0.297800	0.880400
H211	H21	0.106400	0.957800	0.905200
H221	H22	0.172200	0.194000	0.981000
H231	H23	0.473100	0.121600	0.835600
H241	H24	0.478800	0.939400	0.846100
C11	C1	0.717300	0.637400	0.352300
C21	C2	0.278700	0.304600	0.361400
C31	C3	0.004700	0.717000	0.347800
C41	C4	0.121600	0.721000	0.359900
C51	C5	0.111600	0.808800	0.394800
C61	C6	0.222800	0.808800	0.401600
C71	C7	0.341300	0.710200	0.374700
C81	C8	0.342100	0.625800	0.340300
C91	C9	0.462200	0.517600	0.304400
C101	C10	0.028700	0.246600	0.457000
C111	C11	0.126300	0.113400	0.458600
C121	C12	0.126200	0.023600	0.429700
C131	C13	0.216600	0.904200	0.436000
C141	C14	0.304400	0.885200	0.473400
C151	C15	0.299300	0.981400	0.498500
C161	C16	0.370400	0.000000	0.541800
C171	C17	0.658100	0.715800	0.299300
C181	C18	0.600100	0.837800	0.300000
C191	C19	0.358600	0.222800	0.303900
C201	C20	0.419400	0.101200	0.305900
C211	C21	0.645300	0.637400	0.147700
C221	C22	0.416700	0.304600	0.138600
C231	C23	0.278300	0.717000	0.152200
C241	C24	0.157400	0.721000	0.140100
C251	C25	0.079600	0.808800	0.105200
C261	C26	0.968400	0.808800	0.098400
C271	C27	0.948500	0.710200	0.125300
C281	C28	0.032100	0.625800	0.159700
C291	C29	0.020200	0.517600	0.195600
C301	C30	0.724700	0.246600	0.043000
C311	C31	0.760300	0.113400	0.041400
C321	C32	0.850200	0.023600	0.070300
C331	C33	0.879200	0.904200	0.064000
C341	C34	0.810400	0.885200	0.026600
C351	C35	0.719300	0.981400	0.001500
C361	C36	0.629600	0.000000	0.958200
C371	C37	0.626100	0.715800	0.200700
C381	C38	0.562100	0.837800	0.200000
C391	C39	0.418600	0.222800	0.196100
C401	C40	0.479400	0.101200	0.194100
C411	C41	0.282700	0.362600	0.647700
C421	C42	0.721300	0.695400	0.638600
C431	C43	0.995300	0.283000	0.652200
C441	C44	0.878400	0.279000	0.640100
C451	C45	0.888400	0.191200	0.605200
C461	C46	0.777200	0.191200	0.598400
C471	C47	0.658700	0.289800	0.625300
C481	C48	0.657900	0.374200	0.659700
C491	C49	0.537800	0.482400	0.695600
C501	C50	0.971300	0.753400	0.543000
C511	C51	0.873700	0.886600	0.541400
C521	C52	0.873800	0.976400	0.570300
C531	C53	0.783400	0.095800	0.564000
C541	C54	0.695600	0.114800	0.526600
C551	C55	0.700700	0.018600	0.501500
C561	C56	0.629600	0.000000	0.458200
C571	C57	0.341900	0.284200	0.700700
C581	C58	0.399900	0.162200	0.700000
C591	C59	0.641400	0.777200	0.696100
C601	C60	0.580600	0.898800	0.694100
C611	C61	0.354700	0.362600	0.852300
C621	C62	0.583300	0.695400	0.861400
C631	C63	0.721700	0.283000	0.847800
C641	C64	0.842600	0.279000	0.859900
C651	C65	0.920400	0.191200	0.894800
C661	C66	0.031600	0.191200	0.901600
C671	C67	0.051500	0.289800	0.874700
C681	C68	0.967900	0.374200	0.840300
C691	C69	0.979800	0.482400	0.804400
C701	C70	0.275300	0.753400	0.957000
C711	C71	0.239700	0.886600	0.958600
C721	C72	0.149800	0.976400	0.929700
C731	C73	0.120800	0.095800	0.936000
C741	C74	0.189600	0.114800	0.973400
C751	C75	0.280700	0.018600	0.998500
C761	C76	0.370400	0.000000	0.041800
C771	C77	0.373900	0.284200	0.799300
C781	C78	0.437900	0.162200	0.800000
C791	C79	0.581400	0.777200	0.803900
C801	C80	0.520600	0.898800	0.805900
C811	C81	0.548800	0.902400	0.250000
C821	C82	0.481200	0.037600	0.250000
C831	C83	0.451200	0.097600	0.750000
C841	C84	0.518800	0.962400	0.750000
N11	N1	0.234400	0.632800	0.330700
N21	N2	0.210800	0.089200	0.493800
N31	N3	0.132800	0.632800	0.169300
N41	N4	0.700000	0.089200	0.006200
N51	N5	0.765600	0.367200	0.669300
N61	N6	0.789200	0.910800	0.506200
N71	N7	0.867200	0.367200	0.830700
N81	N8	0.300000	0.910800	0.993800
N91	N9	0.672600	0.654800	0.250000
N101	N10	0.357600	0.284800	0.250000
N111	N11	0.327400	0.345200	0.750000
N121	N12	0.642400	0.715200	0.750000
O11	O1	0.031200	0.649600	0.302000
O21	O2	0.896100	0.777000	0.381900
O31	O3	0.448300	0.451400	0.274300
O41	O4	0.569200	0.509600	0.310000
O51	O5	0.041500	0.314600	0.489300
O61	O6	0.952700	0.278600	0.423000
O71	O7	0.398200	0.090600	0.533600
O81	O8	0.386700	0.906600	0.581500
O91	O9	0.778900	0.526800	0.342600
O101	O10	0.690500	0.690600	0.404100
O111	O11	0.218100	0.414000	0.352500
O121	O12	0.287700	0.250400	0.414800
O131	O13	0.319200	0.649600	0.198000
O141	O14	0.326900	0.777000	0.118100
O151	O15	0.100300	0.451400	0.225700
O161	O16	0.921200	0.509600	0.190000
O171	O17	0.643900	0.314600	0.010700
O181	O18	0.768700	0.278600	0.077000
O191	O19	0.511200	0.090600	0.966400
O201	O20	0.706700	0.906600	0.918500
O211	O21	0.694300	0.526800	0.157400
O221	O22	0.618900	0.690600	0.095900
O231	O23	0.367900	0.414000	0.147500
O241	O24	0.461900	0.250400	0.085200
O251	O25	0.968800	0.350400	0.698000
O261	O26	0.103900	0.223000	0.618100
O271	O27	0.551700	0.548600	0.725700
O281	O28	0.430800	0.490400	0.690000
O291	O29	0.958500	0.685400	0.510700
O301	O30	0.047300	0.721400	0.577000
O311	O31	0.601800	0.909400	0.466400
O321	O32	0.613300	0.093400	0.418500
O331	O33	0.221100	0.473200	0.657400
O341	O34	0.309500	0.309400	0.595900
O351	O35	0.781900	0.586000	0.647500
O361	O36	0.712300	0.749600	0.585200
O371	O37	0.680800	0.350400	0.802000
O381	O38	0.673100	0.223000	0.881900
O391	O39	0.899700	0.548600	0.774300
O401	O40	0.078800	0.490400	0.810000
O411	O41	0.356100	0.685400	0.989300
O421	O42	0.231300	0.721400	0.923000
O431	O43	0.488800	0.909400	0.033600
O441	O44	0.293300	0.093400	0.081500
O451	O45	0.305700	0.473200	0.842600
O461	O46	0.381100	0.309400	0.904100
O471	O47	0.632100	0.586000	0.852500
O481	O48	0.538100	0.749600	0.914800
