data_COZMUA_clean_PM
_symmetry_space_group_name_H-M	'P1'
_cell_length_a	15.509400
_cell_length_b	17.825100
_cell_length_c	24.221000
_cell_angle_alpha	90.000000
_cell_angle_beta	90.000000
_cell_angle_gamma	90.000000
_symmetry_Int_Tables_number 1

loop_
_symmetry_equiv_pos_as_xyz
'x,y,z'

loop_
_atom_site_label
_atom_site_type_symbol
_atom_site_fract_x
_atom_site_fract_y
_atom_site_fract_z
Co11	Co1	0.195550	0.708630	0.000000
Co21	Co2	0.804450	0.291370	0.000000
Co31	Co3	0.304450	0.208630	0.500000
Co41	Co4	0.695550	0.791370	0.500000
Co51	Co5	0.606680	0.974930	0.500000
Co61	Co6	0.393320	0.025070	0.500000
Co71	Co7	0.893320	0.474930	0.000000
Co81	Co8	0.106680	0.525070	0.000000
H11	H1	0.164600	0.890300	0.878600
H21	H2	0.134300	0.978400	0.813800
H31	H3	0.916600	0.872700	0.775900
H41	H4	0.948200	0.782000	0.840400
H51	H5	0.882000	0.851900	0.615300
H61	H6	0.982600	0.883500	0.679300
H71	H7	0.846500	0.067100	0.716400
H81	H8	0.751800	0.038800	0.645300
H91	H9	0.835400	0.109700	0.878600
H101	H10	0.865700	0.021600	0.813800
H111	H11	0.083400	0.127300	0.775900
H121	H12	0.051800	0.218000	0.840400
H131	H13	0.118000	0.148100	0.615300
H141	H14	0.017400	0.116500	0.679300
H151	H15	0.153500	0.932900	0.716400
H161	H16	0.248200	0.961200	0.645300
H171	H17	0.335400	0.390300	0.621400
H181	H18	0.365700	0.478400	0.686200
H191	H19	0.583400	0.372700	0.724100
H201	H20	0.551800	0.282000	0.659600
H211	H21	0.618000	0.351900	0.884700
H221	H22	0.517400	0.383500	0.820700
H231	H23	0.653500	0.567100	0.783600
H241	H24	0.748200	0.538800	0.854700
H251	H25	0.664600	0.609700	0.621400
H261	H26	0.634300	0.521600	0.686200
H271	H27	0.416600	0.627300	0.724100
H281	H28	0.448200	0.718000	0.659600
H291	H29	0.382000	0.648100	0.884700
H301	H30	0.482600	0.616500	0.820700
H311	H31	0.346500	0.432900	0.783600
H321	H32	0.251800	0.461200	0.854700
H331	H33	0.835400	0.109700	0.121400
H341	H34	0.865700	0.021600	0.186200
H351	H35	0.083400	0.127300	0.224100
H361	H36	0.051800	0.218000	0.159600
H371	H37	0.118000	0.148100	0.384700
H381	H38	0.017400	0.116500	0.320700
H391	H39	0.153500	0.932900	0.283600
H401	H40	0.248200	0.961200	0.354700
H411	H41	0.164600	0.890300	0.121400
H421	H42	0.134300	0.978400	0.186200
H431	H43	0.916600	0.872700	0.224100
H441	H44	0.948200	0.782000	0.159600
H451	H45	0.882000	0.851900	0.384700
H461	H46	0.982600	0.883500	0.320700
H471	H47	0.846500	0.067100	0.283600
H481	H48	0.751800	0.038800	0.354700
H491	H49	0.664600	0.609700	0.378600
H501	H50	0.634300	0.521600	0.313800
H511	H51	0.416600	0.627300	0.275900
H521	H52	0.448200	0.718000	0.340400
H531	H53	0.382000	0.648100	0.115300
H541	H54	0.482600	0.616500	0.179300
H551	H55	0.346500	0.432900	0.216400
H561	H56	0.251800	0.461200	0.145300
H571	H57	0.335400	0.390300	0.378600
H581	H58	0.365700	0.478400	0.313800
H591	H59	0.583400	0.372700	0.275900
H601	H60	0.551800	0.282000	0.340400
H611	H61	0.618000	0.351900	0.115300
H621	H62	0.517400	0.383500	0.179300
H631	H63	0.653500	0.567100	0.216400
H641	H64	0.748200	0.538800	0.145300
C11	C1	0.078300	0.768200	0.910630
C21	C2	0.059700	0.827070	0.867680
C31	C3	0.114200	0.886100	0.858000
C41	C4	0.096200	0.938700	0.818860
C51	C5	0.022200	0.935010	0.786160
C61	C6	0.967400	0.876300	0.796070
C71	C7	0.985800	0.822100	0.835460
C81	C8	0.743600	0.918200	0.580020
C91	C9	0.806300	0.939800	0.624970
C101	C10	0.875100	0.896000	0.635330
C111	C11	0.934900	0.914490	0.674260
C121	C12	0.926500	0.978180	0.706500
C131	C13	0.855100	0.024000	0.695480
C141	C14	0.796800	0.006200	0.653730
C151	C15	0.921700	0.231800	0.910630
C161	C16	0.940300	0.172930	0.867680
C171	C17	0.885800	0.113900	0.858000
C181	C18	0.903800	0.061300	0.818860
C191	C19	0.977800	0.064990	0.786160
C201	C20	0.032600	0.123700	0.796070
C211	C21	0.014200	0.177900	0.835460
C221	C22	0.256400	0.081800	0.580020
C231	C23	0.193700	0.060200	0.624970
C241	C24	0.124900	0.104000	0.635330
C251	C25	0.065100	0.085510	0.674260
C261	C26	0.073500	0.021820	0.706500
C271	C27	0.144900	0.976000	0.695480
C281	C28	0.203200	0.993800	0.653730
C291	C29	0.421700	0.268200	0.589370
C301	C30	0.440300	0.327070	0.632320
C311	C31	0.385800	0.386100	0.642000
C321	C32	0.403800	0.438700	0.681140
C331	C33	0.477800	0.435010	0.713840
C341	C34	0.532600	0.376300	0.703930
C351	C35	0.514200	0.322100	0.664540
C361	C36	0.756400	0.418200	0.919980
C371	C37	0.693700	0.439800	0.875030
C381	C38	0.624900	0.396000	0.864670
C391	C39	0.565100	0.414490	0.825740
C401	C40	0.573500	0.478180	0.793500
C411	C41	0.644900	0.524000	0.804520
C421	C42	0.703200	0.506200	0.846270
C431	C43	0.578300	0.731800	0.589370
C441	C44	0.559700	0.672930	0.632320
C451	C45	0.614200	0.613900	0.642000
C461	C46	0.596200	0.561300	0.681140
C471	C47	0.522200	0.564990	0.713840
C481	C48	0.467400	0.623700	0.703930
C491	C49	0.485800	0.677900	0.664540
C501	C50	0.243600	0.581800	0.919980
C511	C51	0.306300	0.560200	0.875030
C521	C52	0.375100	0.604000	0.864670
C531	C53	0.434900	0.585510	0.825740
C541	C54	0.426500	0.521820	0.793500
C551	C55	0.355100	0.476000	0.804520
C561	C56	0.296800	0.493800	0.846270
C571	C57	0.921700	0.231800	0.089370
C581	C58	0.940300	0.172930	0.132320
C591	C59	0.885800	0.113900	0.142000
C601	C60	0.903800	0.061300	0.181140
C611	C61	0.977800	0.064990	0.213840
C621	C62	0.032600	0.123700	0.203930
C631	C63	0.014200	0.177900	0.164540
C641	C64	0.256400	0.081800	0.419980
C651	C65	0.193700	0.060200	0.375030
C661	C66	0.124900	0.104000	0.364670
C671	C67	0.065100	0.085510	0.325740
C681	C68	0.073500	0.021820	0.293500
C691	C69	0.144900	0.976000	0.304520
C701	C70	0.203200	0.993800	0.346270
C711	C71	0.078300	0.768200	0.089370
C721	C72	0.059700	0.827070	0.132320
C731	C73	0.114200	0.886100	0.142000
C741	C74	0.096200	0.938700	0.181140
C751	C75	0.022200	0.935010	0.213840
C761	C76	0.967400	0.876300	0.203930
C771	C77	0.985800	0.822100	0.164540
C781	C78	0.743600	0.918200	0.419980
C791	C79	0.806300	0.939800	0.375030
C801	C80	0.875100	0.896000	0.364670
C811	C81	0.934900	0.914490	0.325740
C821	C82	0.926500	0.978180	0.293500
C831	C83	0.855100	0.024000	0.304520
C841	C84	0.796800	0.006200	0.346270
C851	C85	0.578300	0.731800	0.410630
C861	C86	0.559700	0.672930	0.367680
C871	C87	0.614200	0.613900	0.358000
C881	C88	0.596200	0.561300	0.318860
C891	C89	0.522200	0.564990	0.286160
C901	C90	0.467400	0.623700	0.296070
C911	C91	0.485800	0.677900	0.335460
C921	C92	0.243600	0.581800	0.080020
C931	C93	0.306300	0.560200	0.124970
C941	C94	0.375100	0.604000	0.135330
C951	C95	0.434900	0.585510	0.174260
C961	C96	0.426500	0.521820	0.206500
C971	C97	0.355100	0.476000	0.195480
C981	C98	0.296800	0.493800	0.153730
C991	C99	0.421700	0.268200	0.410630
C1001	C100	0.440300	0.327070	0.367680
C1011	C101	0.385800	0.386100	0.358000
C1021	C102	0.403800	0.438700	0.318860
C1031	C103	0.477800	0.435010	0.286160
C1041	C104	0.532600	0.376300	0.296070
C1051	C105	0.514200	0.322100	0.335460
C1061	C106	0.756400	0.418200	0.080020
C1071	C107	0.693700	0.439800	0.124970
C1081	C108	0.624900	0.396000	0.135330
C1091	C109	0.565100	0.414490	0.174260
C1101	C110	0.573500	0.478180	0.206500
C1111	C111	0.644900	0.524000	0.195480
C1121	C112	0.703200	0.506200	0.153730
C1131	C113	0.000000	0.000000	0.746320
C1141	C114	0.500000	0.500000	0.753680
C1151	C115	0.000000	0.000000	0.253680
C1161	C116	0.500000	0.500000	0.246320
O11	O1	0.144290	0.778420	0.939580
O21	O2	0.027700	0.714310	0.915030
O31	O3	0.751750	0.853910	0.561000
O41	O4	0.688500	0.966380	0.565950
O51	O5	0.855710	0.221580	0.939580
O61	O6	0.972300	0.285690	0.915030
O71	O7	0.248250	0.146090	0.561000
O81	O8	0.311500	0.033620	0.565950
O91	O9	0.355710	0.278420	0.560420
O101	O10	0.472300	0.214310	0.584970
O111	O11	0.748250	0.353910	0.939000
O121	O12	0.811500	0.466380	0.934050
O131	O13	0.644290	0.721580	0.560420
O141	O14	0.527700	0.785690	0.584970
O151	O15	0.251750	0.646090	0.939000
O161	O16	0.188500	0.533620	0.934050
O171	O17	0.855710	0.221580	0.060420
O181	O18	0.972300	0.285690	0.084970
O191	O19	0.248250	0.146090	0.439000
O201	O20	0.311500	0.033620	0.434050
O211	O21	0.144290	0.778420	0.060420
O221	O22	0.027700	0.714310	0.084970
O231	O23	0.751750	0.853910	0.439000
O241	O24	0.688500	0.966380	0.434050
O251	O25	0.644290	0.721580	0.439580
O261	O26	0.527700	0.785690	0.415030
O271	O27	0.251750	0.646090	0.061000
O281	O28	0.188500	0.533620	0.065950
O291	O29	0.355710	0.278420	0.439580
O301	O30	0.472300	0.214310	0.415030
O311	O31	0.748250	0.353910	0.061000
O321	O32	0.811500	0.466380	0.065950
O331	O33	0.077200	0.638690	0.000000
O341	O34	0.922800	0.361310	0.000000
O351	O35	0.422800	0.138690	0.500000
O361	O36	0.577200	0.861310	0.500000
O371	O37	0.500000	0.000000	0.558020
O381	O38	0.000000	0.500000	0.941980
O391	O39	0.500000	0.000000	0.441980
O401	O40	0.000000	0.500000	0.058020
