data_CUCKIV_charged_PM
_symmetry_space_group_name_H-M	'P1'
_cell_length_a	10.833000
_cell_length_b	14.170000
_cell_length_c	14.400000
_cell_angle_alpha	100.519000
_cell_angle_beta	90.000000
_cell_angle_gamma	90.000000
_symmetry_Int_Tables_number 1

loop_
_symmetry_equiv_pos_as_xyz
'x,y,z'

loop_
_atom_site_label
_atom_site_type_symbol
_atom_site_fract_x
_atom_site_fract_y
_atom_site_fract_z
Co11	Co1	0.711440	0.820610	0.699340
Co21	Co2	0.211440	0.679390	0.800660
Co31	Co3	0.288560	0.179390	0.300660
Co41	Co4	0.788560	0.320610	0.199340
Co51	Co5	0.500000	0.500000	0.500000
Co61	Co6	0.000000	0.000000	0.000000
H11	H1	0.666600	0.214500	0.494600
H21	H2	0.848800	0.013100	0.309700
H31	H3	0.588900	0.091500	0.546100
H41	H4	0.903000	0.955500	0.439400
H51	H5	0.166600	0.285500	0.005400
H61	H6	0.348800	0.486900	0.190300
H71	H7	0.088900	0.408500	0.953900
H81	H8	0.403000	0.544500	0.060600
H91	H9	0.333400	0.785500	0.505400
H101	H10	0.151200	0.986900	0.690300
H111	H11	0.411100	0.908500	0.453900
H121	H12	0.097000	0.044500	0.560600
H131	H13	0.833400	0.714500	0.994600
H141	H14	0.651200	0.513100	0.809700
H151	H15	0.911100	0.591500	0.046100
H161	H16	0.597000	0.455500	0.939400
C11	C1	0.721900	0.256000	0.374700
C21	C2	0.709400	0.194800	0.436800
C31	C3	0.759600	0.103400	0.415000
C41	C4	0.817200	0.076400	0.327700
C51	C5	0.828600	0.140600	0.268100
C61	C6	0.881100	0.122000	0.170900
C71	C7	0.677500	0.359100	0.387800
C81	C8	0.638200	0.978200	0.606100
C91	C9	0.648700	0.042200	0.544900
C101	C10	0.747100	0.034800	0.481200
C111	C11	0.834600	0.962100	0.481300
C121	C12	0.818500	0.900200	0.544100
C131	C13	0.898700	0.814800	0.552100
C141	C14	0.540100	0.977400	0.679700
C151	C15	0.221900	0.244000	0.125300
C161	C16	0.209400	0.305200	0.063200
C171	C17	0.259600	0.396600	0.085000
C181	C18	0.317200	0.423600	0.172300
C191	C19	0.328600	0.359400	0.231900
C201	C20	0.381100	0.378000	0.329100
C211	C21	0.177500	0.140900	0.112200
C221	C22	0.138200	0.521800	0.893900
C231	C23	0.148700	0.457800	0.955100
C241	C24	0.247100	0.465200	0.018800
C251	C25	0.334600	0.537900	0.018700
C261	C26	0.318500	0.599800	0.955900
C271	C27	0.398700	0.685200	0.947900
C281	C28	0.040100	0.522600	0.820300
C291	C29	0.278100	0.744000	0.625300
C301	C30	0.290600	0.805200	0.563200
C311	C31	0.240400	0.896600	0.585000
C321	C32	0.182800	0.923600	0.672300
C331	C33	0.171400	0.859400	0.731900
C341	C34	0.118900	0.878000	0.829100
C351	C35	0.322500	0.640900	0.612200
C361	C36	0.361800	0.021800	0.393900
C371	C37	0.351300	0.957800	0.455100
C381	C38	0.252900	0.965200	0.518800
C391	C39	0.165400	0.037900	0.518700
C401	C40	0.181500	0.099800	0.455900
C411	C41	0.101300	0.185200	0.447900
C421	C42	0.459900	0.022600	0.320300
C431	C43	0.778100	0.756000	0.874700
C441	C44	0.790600	0.694800	0.936800
C451	C45	0.740400	0.603400	0.915000
C461	C46	0.682800	0.576400	0.827700
C471	C47	0.671400	0.640600	0.768100
C481	C48	0.618900	0.622000	0.670900
C491	C49	0.822500	0.859100	0.887800
C501	C50	0.861800	0.478200	0.106100
C511	C51	0.851300	0.542200	0.044900
C521	C52	0.752900	0.534800	0.981200
C531	C53	0.665400	0.462100	0.981300
C541	C54	0.681500	0.400200	0.044100
C551	C55	0.601300	0.314800	0.052100
C561	C56	0.959900	0.477400	0.179700
N11	N1	0.723000	0.908400	0.604800
N21	N2	0.779700	0.229100	0.291000
N31	N3	0.223000	0.591600	0.895200
N41	N4	0.279700	0.270900	0.209000
N51	N5	0.277000	0.091600	0.395200
N61	N6	0.220300	0.770900	0.709000
N71	N7	0.777000	0.408400	0.104800
N81	N8	0.720300	0.729100	0.791000
O11	O1	0.887800	0.196100	0.131900
O21	O2	0.912800	0.039600	0.134500
O31	O3	0.695500	0.402300	0.321400
O41	O4	0.625600	0.391200	0.463800
O51	O5	0.982800	0.794400	0.495600
O61	O6	0.872100	0.770200	0.616200
O71	O7	0.458400	0.037900	0.686700
O81	O8	0.550800	0.912000	0.727000
O91	O9	0.607600	0.606200	0.449500
O101	O10	0.387800	0.303900	0.368100
O111	O11	0.412800	0.460400	0.365500
O121	O12	0.195500	0.097700	0.178600
O131	O13	0.125600	0.108800	0.036200
O141	O14	0.482800	0.705600	0.004400
O151	O15	0.372100	0.729800	0.883800
O161	O16	0.958400	0.462100	0.813300
O171	O17	0.050800	0.588000	0.773000
O181	O18	0.107600	0.893800	0.050500
O191	O19	0.112200	0.803900	0.868100
O201	O20	0.087200	0.960400	0.865500
O211	O21	0.304500	0.597700	0.678600
O221	O22	0.374400	0.608800	0.536200
O231	O23	0.017200	0.205600	0.504400
O241	O24	0.127900	0.229800	0.383800
O251	O25	0.541600	0.962100	0.313300
O261	O26	0.449200	0.088000	0.273000
O271	O27	0.392400	0.393800	0.550500
O281	O28	0.612200	0.696100	0.631900
O291	O29	0.587200	0.539600	0.634500
O301	O30	0.804500	0.902300	0.821400
O311	O31	0.874400	0.891200	0.963800
O321	O32	0.517200	0.294400	0.995600
O331	O33	0.627900	0.270200	0.116200
O341	O34	0.041600	0.537900	0.186700
O351	O35	0.949200	0.412000	0.227000
O361	O36	0.892400	0.106200	0.949500
