data_CUGLTM02_clean_PM
_symmetry_space_group_name_H-M	'P1'
_cell_length_a	7.232000
_cell_length_b	10.311000
_cell_length_c	11.058000
_cell_angle_alpha	90.000000
_cell_angle_beta	90.000000
_cell_angle_gamma	90.000000
_symmetry_Int_Tables_number 1

loop_
_symmetry_equiv_pos_as_xyz
'x,y,z'

loop_
_atom_site_label
_atom_site_type_symbol
_atom_site_fract_x
_atom_site_fract_y
_atom_site_fract_z
Cu11	Cu1	0.399690	0.566840	0.529130
Cu21	Cu2	0.100310	0.433160	0.029130
H11	H1	0.165800	0.221400	0.773900
H21	H2	0.310400	0.367200	0.866100
H31	H3	0.181900	0.461500	0.815400
H41	H4	0.020300	0.379900	0.651800
H51	H5	0.896300	0.257100	0.670900
H61	H6	0.844300	0.491000	0.800700
H71	H7	0.716400	0.368800	0.812900
H81	H8	0.334200	0.778600	0.273900
H91	H9	0.189600	0.632800	0.366100
H101	H10	0.318100	0.538500	0.315400
H111	H11	0.479700	0.620100	0.151800
H121	H12	0.603700	0.742900	0.170900
H131	H13	0.655700	0.509000	0.300700
H141	H14	0.783600	0.631200	0.312900
C11	C1	0.970400	0.215000	0.911600
C21	C2	0.080500	0.284300	0.809900
C31	C3	0.949400	0.331800	0.711300
C41	C4	0.792400	0.418000	0.757000
C51	C5	0.672500	0.468000	0.654900
C61	C6	0.529600	0.785000	0.411600
C71	C7	0.419500	0.715700	0.309900
C81	C8	0.550600	0.668200	0.211300
C91	C9	0.707600	0.582000	0.257000
C101	C10	0.827500	0.532000	0.154900
N11	N1	0.190700	0.390800	0.862700
N21	N2	0.309300	0.609200	0.362700
O11	O1	0.874500	0.121000	0.880900
O21	O2	0.981600	0.261900	0.016900
O31	O3	0.714800	0.449400	0.546100
O41	O4	0.524100	0.528500	0.683800
O51	O5	0.625500	0.879000	0.380900
O61	O6	0.518400	0.738100	0.516900
O71	O7	0.785200	0.550600	0.046100
O81	O8	0.975900	0.471500	0.183800
Cu31	Cu3	0.600310	0.066840	0.970870
Cu41	Cu4	0.899690	0.933160	0.470870
H151	H15	0.834200	0.721400	0.726100
H161	H16	0.689600	0.867200	0.633900
H171	H17	0.818100	0.961500	0.684600
H181	H18	0.979700	0.879900	0.848200
H191	H19	0.103700	0.757100	0.829100
H201	H20	0.155700	0.991000	0.699300
H211	H21	0.283600	0.868800	0.687100
H221	H22	0.665800	0.278600	0.226100
H231	H23	0.810400	0.132800	0.133900
H241	H24	0.681900	0.038500	0.184600
H251	H25	0.520300	0.120100	0.348200
H261	H26	0.396300	0.242900	0.329100
H271	H27	0.344300	0.009000	0.199300
H281	H28	0.216400	0.131200	0.187100
C111	C11	0.029600	0.715000	0.588400
C121	C12	0.919500	0.784300	0.690100
C131	C13	0.050600	0.831800	0.788700
C141	C14	0.207600	0.918000	0.743000
C151	C15	0.327500	0.968000	0.845100
C161	C16	0.470400	0.285000	0.088400
C171	C17	0.580500	0.215700	0.190100
C181	C18	0.449400	0.168200	0.288700
C191	C19	0.292400	0.082000	0.243000
C201	C20	0.172500	0.032000	0.345100
N31	N3	0.809300	0.890800	0.637300
N41	N4	0.690700	0.109200	0.137300
O91	O9	0.125500	0.621000	0.619100
O101	O10	0.018400	0.761900	0.483100
O111	O11	0.285200	0.949400	0.953900
O121	O12	0.475900	0.028500	0.816200
O131	O13	0.374500	0.379000	0.119100
O141	O14	0.481600	0.238100	0.983100
O151	O15	0.214800	0.050600	0.453900
O161	O16	0.024100	0.971500	0.316200
