data_CUGLTM01_clean_PM
_symmetry_space_group_name_H-M	'P1'
_cell_length_a	7.225500
_cell_length_b	10.305300
_cell_length_c	11.049900
_cell_angle_alpha	90.000000
_cell_angle_beta	90.000000
_cell_angle_gamma	90.000000
_symmetry_Int_Tables_number 1

loop_
_symmetry_equiv_pos_as_xyz
'x,y,z'

loop_
_atom_site_label
_atom_site_type_symbol
_atom_site_fract_x
_atom_site_fract_y
_atom_site_fract_z
Cu11	Cu1	0.100660	0.933200	0.529340
Cu21	Cu2	0.399340	0.066800	0.029340
H11	H1	0.162000	0.728000	0.278800
H21	H2	0.214600	0.949500	0.302100
H31	H3	0.300600	0.850100	0.373500
H41	H4	0.900800	0.760100	0.169500
H51	H5	0.008600	0.879200	0.154100
H61	H6	0.712300	0.868800	0.311300
H71	H7	0.835500	0.005700	0.306300
H81	H8	0.338000	0.272000	0.778800
H91	H9	0.285400	0.050500	0.802100
H101	H10	0.199400	0.149900	0.873500
H111	H11	0.599200	0.239900	0.669500
H121	H12	0.491400	0.120800	0.654100
H131	H13	0.787700	0.131200	0.811300
H141	H14	0.664500	0.994300	0.806300
C11	C1	0.971900	0.715300	0.409800
C21	C2	0.078900	0.784300	0.311000
C31	C3	0.949100	0.831200	0.213300
C41	C4	0.793200	0.918600	0.256900
C51	C5	0.672600	0.969100	0.154900
C61	C6	0.528100	0.284700	0.909800
C71	C7	0.421100	0.215700	0.811000
C81	C8	0.550900	0.168800	0.713300
C91	C9	0.706800	0.081400	0.756900
C101	C10	0.827400	0.030900	0.654900
N11	N1	0.190000	0.891600	0.362500
N21	N2	0.310000	0.108400	0.862500
O11	O1	0.980100	0.762100	0.517000
O21	O2	0.875900	0.620600	0.380500
O31	O3	0.525300	0.029000	0.184600
O41	O4	0.713800	0.949100	0.047100
O51	O5	0.519900	0.237900	0.017000
O61	O6	0.624100	0.379400	0.880500
O71	O7	0.974700	0.971000	0.684600
O81	O8	0.786200	0.050900	0.547100
Cu31	Cu3	0.899340	0.433200	0.970660
Cu41	Cu4	0.600660	0.566800	0.470660
H151	H15	0.838000	0.228000	0.221200
H161	H16	0.785400	0.449500	0.197900
H171	H17	0.699400	0.350100	0.126500
H181	H18	0.099200	0.260100	0.330500
H191	H19	0.991400	0.379200	0.345900
H201	H20	0.287700	0.368800	0.188700
H211	H21	0.164500	0.505700	0.193700
H221	H22	0.662000	0.772000	0.721200
H231	H23	0.714600	0.550500	0.697900
H241	H24	0.800600	0.649900	0.626500
H251	H25	0.400800	0.739900	0.830500
H261	H26	0.508600	0.620800	0.845900
H271	H27	0.212300	0.631200	0.688700
H281	H28	0.335500	0.494300	0.693700
C111	C11	0.028100	0.215300	0.090200
C121	C12	0.921100	0.284300	0.189000
C131	C13	0.050900	0.331200	0.286700
C141	C14	0.206800	0.418600	0.243100
C151	C15	0.327400	0.469100	0.345100
C161	C16	0.471900	0.784700	0.590200
C171	C17	0.578900	0.715700	0.689000
C181	C18	0.449100	0.668800	0.786700
C191	C19	0.293200	0.581400	0.743100
C201	C20	0.172600	0.530900	0.845100
N31	N3	0.810000	0.391600	0.137500
N41	N4	0.690000	0.608400	0.637500
O91	O9	0.019900	0.262100	0.983000
O101	O10	0.124100	0.120600	0.119500
O111	O11	0.474700	0.529000	0.315400
O121	O12	0.286200	0.449100	0.452900
O131	O13	0.480100	0.737900	0.483000
O141	O14	0.375900	0.879400	0.619500
O151	O15	0.025300	0.471000	0.815400
O161	O16	0.213800	0.550900	0.952900
