data_CUIMDZ01_clean_h_PM
_symmetry_space_group_name_H-M	'P1'
_cell_length_a	5.387000
_cell_length_b	16.012100
_cell_length_c	16.012100
_cell_angle_alpha	61.240400
_cell_angle_beta	83.561100
_cell_angle_gamma	96.438900
_symmetry_Int_Tables_number 1

loop_
_symmetry_equiv_pos_as_xyz
'x,y,z'

loop_
_atom_site_label
_atom_site_type_symbol
_atom_site_fract_x
_atom_site_fract_y
_atom_site_fract_z
Cu11	Cu1	0.816540	0.214080	0.572260
Cu21	Cu2	0.388800	0.572260	0.213660
Cu31	Cu3	0.602460	0.213660	0.214080
Cu41	Cu4	0.183460	0.785920	0.427740
Cu51	Cu5	0.611200	0.427740	0.786340
Cu61	Cu6	0.397540	0.786340	0.785920
C11	C1	0.647260	0.004930	0.651350
C21	C2	0.853770	0.029590	0.750980
C31	C3	0.735900	0.934760	0.797960
C41	C4	0.665590	0.210960	0.398890
C51	C5	0.960200	0.123920	0.451920
C61	C6	0.909370	0.122000	0.371490
C71	C7	0.298610	0.651350	0.343720
C81	C8	0.604750	0.750980	0.219430
C91	C9	0.533860	0.797960	0.267280
C101	C10	0.064480	0.398890	0.390150
C111	C11	0.412120	0.451920	0.424160
C121	C12	0.280860	0.371490	0.506510
C131	C13	0.642330	0.343720	0.004930
C141	C14	0.824180	0.219430	0.029590
C151	C15	0.801140	0.267280	0.934760
C161	C16	0.454630	0.390150	0.210960
C171	C17	0.836280	0.424160	0.123920
C181	C18	0.787370	0.506510	0.122000
C191	C19	0.352740	0.995070	0.348650
C201	C20	0.146230	0.970410	0.249020
C211	C21	0.264100	0.065240	0.202040
C221	C22	0.334410	0.789040	0.601110
C231	C23	0.039800	0.876080	0.548080
C241	C24	0.090630	0.878000	0.628510
C251	C25	0.701390	0.348650	0.656280
C261	C26	0.395250	0.249020	0.780570
C271	C27	0.466140	0.202040	0.732720
C281	C28	0.935520	0.601110	0.609850
C291	C29	0.587880	0.548080	0.575840
C301	C30	0.719140	0.628510	0.493490
C311	C31	0.357670	0.656280	0.995070
C321	C32	0.175820	0.780570	0.970410
C331	C33	0.198860	0.732720	0.065240
C341	C34	0.545370	0.609850	0.789040
C351	C35	0.163720	0.575840	0.876080
C361	C36	0.212630	0.493490	0.878000
N11	N1	0.802230	0.072630	0.659740
N21	N2	0.587320	0.922520	0.739760
N31	N3	0.808710	0.178610	0.469080
N41	N4	0.737780	0.180180	0.335740
N51	N5	0.461970	0.659740	0.267630
N61	N6	0.327080	0.739760	0.337720
N71	N7	0.277790	0.469080	0.352310
N81	N8	0.073520	0.335740	0.484080
N91	N9	0.729600	0.267630	0.072630
N101	N10	0.664800	0.337720	0.922520
N111	N11	0.630100	0.352310	0.178610
N121	N12	0.557600	0.484080	0.180180
N131	N13	0.197770	0.927370	0.340260
N141	N14	0.412680	0.077480	0.260240
N151	N15	0.191290	0.821390	0.530920
N161	N16	0.262220	0.819820	0.664260
N171	N17	0.538030	0.340260	0.732370
N181	N18	0.672920	0.260240	0.662280
N191	N19	0.722210	0.530920	0.647690
N201	N20	0.926480	0.664260	0.515920
N211	N21	0.270400	0.732370	0.927370
N221	N22	0.335200	0.662280	0.077480
N231	N23	0.369900	0.647690	0.821390
N241	N24	0.442400	0.515920	0.819820
H11	H1	0.591930	0.023570	0.578560
H21	H2	0.970100	0.058740	0.789860
H31	H3	0.772300	0.882410	0.872780
H41	H4	0.516970	0.255580	0.401160
H51	H5	0.109060	0.083440	0.491460
H61	H6	0.007080	0.076340	0.346170
H71	H7	0.170480	0.578560	0.397870
H81	H8	0.759960	0.789860	0.151400
H91	H9	0.645080	0.872780	0.244800
H101	H10	0.918130	0.401160	0.343250
H111	H11	0.600530	0.491460	0.425090
H121	H12	0.353260	0.346170	0.577490
H131	H13	0.568350	0.397870	0.023570
H141	H14	0.911360	0.151400	0.058740
H151	H15	0.889880	0.244800	0.882410
H161	H16	0.261390	0.343250	0.255580
H171	H17	0.025620	0.425090	0.083440
H181	H18	0.930740	0.577490	0.076340
H191	H19	0.408070	0.976430	0.421440
H201	H20	0.029900	0.941260	0.210140
H211	H21	0.227700	0.117590	0.127220
H221	H22	0.483030	0.744420	0.598840
H231	H23	0.890940	0.916560	0.508540
H241	H24	0.992920	0.923660	0.653830
H251	H25	0.829520	0.421440	0.602130
H261	H26	0.240040	0.210140	0.848600
H271	H27	0.354920	0.127220	0.755200
H281	H28	0.081870	0.598840	0.656750
H291	H29	0.399470	0.508540	0.574910
H301	H30	0.646740	0.653830	0.422510
H311	H31	0.431650	0.602130	0.976430
H321	H32	0.088640	0.848600	0.941260
H331	H33	0.110120	0.755200	0.117590
H341	H34	0.738610	0.656750	0.744420
H351	H35	0.974380	0.574910	0.916560
H361	H36	0.069260	0.422510	0.923660
