data_CUKXAJ_clean_PM
_symmetry_space_group_name_H-M	'P1'
_cell_length_a	20.745000
_cell_length_b	8.325500
_cell_length_c	17.343500
_cell_angle_alpha	90.000000
_cell_angle_beta	90.000000
_cell_angle_gamma	90.000000
_symmetry_Int_Tables_number 1

loop_
_symmetry_equiv_pos_as_xyz
'x,y,z'

loop_
_atom_site_label
_atom_site_type_symbol
_atom_site_fract_x
_atom_site_fract_y
_atom_site_fract_z
C11	C1	0.410900	0.101300	0.359900
C21	C2	0.376490	0.163800	0.429800
C31	C3	0.322460	0.265200	0.429600
C41	C4	0.294440	0.323200	0.354600
O11	O1	0.460040	0.175700	0.338230
O21	O2	0.392830	0.969200	0.330700
O31	O3	0.313630	0.261600	0.293010
O41	O4	0.254460	0.435300	0.357860
C51	C5	0.910900	0.601300	0.859900
C61	C6	0.876490	0.663800	0.929800
C71	C7	0.822460	0.765200	0.929600
C81	C8	0.794440	0.823200	0.854600
O51	O5	0.960040	0.675700	0.838230
O61	O6	0.892830	0.469200	0.830700
O71	O7	0.813630	0.761600	0.793010
O81	O8	0.754460	0.935300	0.857860
C91	C9	0.589100	0.898700	0.359900
C101	C10	0.623510	0.836200	0.429800
C111	C11	0.677540	0.734800	0.429600
C121	C12	0.705560	0.676800	0.354600
O91	O9	0.539960	0.824300	0.338230
O101	O10	0.607170	0.030800	0.330700
O111	O11	0.686370	0.738400	0.293010
O121	O12	0.745540	0.564700	0.357860
C131	C13	0.089100	0.398700	0.859900
C141	C14	0.123510	0.336200	0.929800
C151	C15	0.177540	0.234800	0.929600
C161	C16	0.205560	0.176800	0.854600
O131	O13	0.039960	0.324300	0.838230
O141	O14	0.107170	0.530800	0.830700
O151	O15	0.186370	0.238400	0.793010
O161	O16	0.245540	0.064700	0.857860
C171	C17	0.089100	0.601300	0.640100
C181	C18	0.123510	0.663800	0.570200
C191	C19	0.177540	0.765200	0.570400
C201	C20	0.205560	0.823200	0.645400
O171	O17	0.039960	0.675700	0.661770
O181	O18	0.107170	0.469200	0.669300
O191	O19	0.186370	0.761600	0.706990
O201	O20	0.245540	0.935300	0.642140
C211	C21	0.589100	0.101300	0.140100
C221	C22	0.623510	0.163800	0.070200
C231	C23	0.677540	0.265200	0.070400
C241	C24	0.705560	0.323200	0.145400
O211	O21	0.539960	0.175700	0.161770
O221	O22	0.607170	0.969200	0.169300
O231	O23	0.686370	0.261600	0.206990
O241	O24	0.745540	0.435300	0.142140
C251	C25	0.910900	0.398700	0.640100
C261	C26	0.876490	0.336200	0.570200
C271	C27	0.822460	0.234800	0.570400
C281	C28	0.794440	0.176800	0.645400
O251	O25	0.960040	0.324300	0.661770
O261	O26	0.892830	0.530800	0.669300
O271	O27	0.813630	0.238400	0.706990
O281	O28	0.754460	0.064700	0.642140
C291	C29	0.410900	0.898700	0.140100
C301	C30	0.376490	0.836200	0.070200
C311	C31	0.322460	0.734800	0.070400
C321	C32	0.294440	0.676800	0.145400
O291	O29	0.460040	0.824300	0.161770
O301	O30	0.392830	0.030800	0.169300
O311	O31	0.313630	0.738400	0.206990
O321	O32	0.254460	0.564700	0.142140
C331	C33	0.589100	0.898700	0.640100
C341	C34	0.623510	0.836200	0.570200
C351	C35	0.677540	0.734800	0.570400
C361	C36	0.705560	0.676800	0.645400
O331	O33	0.539960	0.824300	0.661770
O341	O34	0.607170	0.030800	0.669300
O351	O35	0.686370	0.738400	0.706990
O361	O36	0.745540	0.564700	0.642140
C371	C37	0.089100	0.398700	0.140100
C381	C38	0.123510	0.336200	0.070200
C391	C39	0.177540	0.234800	0.070400
C401	C40	0.205560	0.176800	0.145400
O371	O37	0.039960	0.324300	0.161770
O381	O38	0.107170	0.530800	0.169300
O391	O39	0.186370	0.238400	0.206990
O401	O40	0.245540	0.064700	0.142140
C411	C41	0.410900	0.101300	0.640100
C421	C42	0.376490	0.163800	0.570200
C431	C43	0.322460	0.265200	0.570400
C441	C44	0.294440	0.323200	0.645400
O411	O41	0.460040	0.175700	0.661770
O421	O42	0.392830	0.969200	0.669300
O431	O43	0.313630	0.261600	0.706990
O441	O44	0.254460	0.435300	0.642140
C451	C45	0.910900	0.601300	0.140100
C461	C46	0.876490	0.663800	0.070200
C471	C47	0.822460	0.765200	0.070400
C481	C48	0.794440	0.823200	0.145400
O451	O45	0.960040	0.675700	0.161770
O461	O46	0.892830	0.469200	0.169300
O471	O47	0.813630	0.761600	0.206990
O481	O48	0.754460	0.935300	0.142140
C491	C49	0.910900	0.398700	0.359900
C501	C50	0.876490	0.336200	0.429800
C511	C51	0.822460	0.234800	0.429600
C521	C52	0.794440	0.176800	0.354600
O491	O49	0.960040	0.324300	0.338230
O501	O50	0.892830	0.530800	0.330700
O511	O51	0.813630	0.238400	0.293010
O521	O52	0.754460	0.064700	0.357860
C531	C53	0.410900	0.898700	0.859900
C541	C54	0.376490	0.836200	0.929800
C551	C55	0.322460	0.734800	0.929600
C561	C56	0.294440	0.676800	0.854600
O531	O53	0.460040	0.824300	0.838230
O541	O54	0.392830	0.030800	0.830700
O551	O55	0.313630	0.738400	0.793010
O561	O56	0.254460	0.564700	0.857860
C571	C57	0.089100	0.601300	0.359900
C581	C58	0.123510	0.663800	0.429800
C591	C59	0.177540	0.765200	0.429600
C601	C60	0.205560	0.823200	0.354600
O571	O57	0.039960	0.675700	0.338230
O581	O58	0.107170	0.469200	0.330700
O591	O59	0.186370	0.761600	0.293010
O601	O60	0.245540	0.935300	0.357860
C611	C61	0.589100	0.101300	0.859900
C621	C62	0.623510	0.163800	0.929800
C631	C63	0.677540	0.265200	0.929600
C641	C64	0.705560	0.323200	0.854600
O611	O61	0.539960	0.175700	0.838230
O621	O62	0.607170	0.969200	0.830700
O631	O63	0.686370	0.261600	0.793010
O641	O64	0.745540	0.435300	0.857860
C651	C65	0.403200	0.117100	0.500000
H11	H1	0.439900	0.053000	0.500000
C661	C66	0.297400	0.316900	0.500000
H21	H2	0.262800	0.388100	0.500000
C671	C67	0.903200	0.617100	0.000000
H31	H3	0.939900	0.553000	0.000000
C681	C68	0.797400	0.816900	0.000000
H41	H4	0.762800	0.888100	0.000000
C691	C69	0.596800	0.882900	0.500000
H51	H5	0.560100	0.947000	0.500000
C701	C70	0.702600	0.683100	0.500000
H61	H6	0.737200	0.611900	0.500000
C711	C71	0.096800	0.382900	0.000000
H71	H7	0.060100	0.447000	0.000000
C721	C72	0.202600	0.183100	0.000000
H81	H8	0.237200	0.111900	0.000000
C731	C73	0.096800	0.617100	0.500000
H91	H9	0.060100	0.553000	0.500000
C741	C74	0.202600	0.816900	0.500000
H101	H10	0.237200	0.888100	0.500000
C751	C75	0.596800	0.117100	0.000000
H111	H11	0.560100	0.053000	0.000000
C761	C76	0.702600	0.316900	0.000000
H121	H12	0.737200	0.388100	0.000000
C771	C77	0.903200	0.382900	0.500000
H131	H13	0.939900	0.447000	0.500000
C781	C78	0.797400	0.183100	0.500000
H141	H14	0.762800	0.111900	0.500000
C791	C79	0.403200	0.882900	0.000000
H151	H15	0.439900	0.947000	0.000000
C801	C80	0.297400	0.683100	0.000000
H161	H16	0.262800	0.611900	0.000000
Cd11	Cd1	0.500000	0.000000	0.250000
Cd21	Cd2	0.000000	0.500000	0.750000
Cd31	Cd3	0.500000	0.000000	0.750000
Cd41	Cd4	0.000000	0.500000	0.250000
Cd51	Cd5	0.202490	0.500000	0.250000
Cd61	Cd6	0.797510	0.500000	0.250000
Cd71	Cd7	0.297510	0.000000	0.750000
Cd81	Cd8	0.702490	0.000000	0.750000
Cd91	Cd9	0.797510	0.500000	0.750000
Cd101	Cd10	0.202490	0.500000	0.750000
Cd111	Cd11	0.702490	0.000000	0.250000
Cd121	Cd12	0.297510	0.000000	0.250000
