data_CUMQOQ_clean_PM
_symmetry_space_group_name_H-M	'P1'
_cell_length_a	11.491000
_cell_length_b	12.094000
_cell_length_c	12.620000
_cell_angle_alpha	69.610000
_cell_angle_beta	64.150000
_cell_angle_gamma	72.460000
_symmetry_Int_Tables_number 1

loop_
_symmetry_equiv_pos_as_xyz
'x,y,z'

loop_
_atom_site_label
_atom_site_type_symbol
_atom_site_fract_x
_atom_site_fract_y
_atom_site_fract_z
S11	S1	0.845790	0.758100	0.103340
O11	O1	0.926800	0.836200	0.099600
O21	O2	0.925700	0.671300	0.038500
O31	O3	0.798300	0.680700	0.235300
O41	O4	0.728800	0.819000	0.081800
N11	N1	0.814400	0.099100	0.091200
N21	N2	0.187500	0.407700	0.408400
C11	C1	0.802000	0.171100	0.158500
H11	H1	0.880500	0.180700	0.161100
C21	C2	0.682600	0.231600	0.222800
H21	H2	0.679300	0.280800	0.269900
C31	C3	0.565600	0.221100	0.219000
C41	C4	0.579900	0.146400	0.148100
H31	H3	0.503800	0.135700	0.141800
C51	C5	0.702700	0.089500	0.088200
H41	H4	0.709300	0.039000	0.040800
C61	C6	0.435100	0.284600	0.285500
C71	C7	0.419000	0.350700	0.364300
H51	H5	0.493600	0.355300	0.377200
C81	C8	0.295800	0.408900	0.422900
H61	H6	0.713300	0.547400	0.522600
C91	C9	0.798400	0.655700	0.667200
H71	H7	0.875100	0.658100	0.678200
C101	C10	0.678700	0.717100	0.728600
H81	H8	0.673200	0.761600	0.781100
N31	N3	0.190700	0.505600	0.992000
C111	C11	0.302700	0.446600	0.926100
H91	H9	0.298800	0.406500	0.874400
C121	C12	0.424000	0.441100	0.927900
H101	H10	0.501500	0.395200	0.881100
C131	C13	0.434900	0.501700	0.998200
C141	C14	0.319400	0.567200	0.063000
H111	H11	0.321800	0.612100	0.111300
C151	C15	0.200900	0.567600	0.057500
H121	H12	0.122300	0.613900	0.102500
S21	S2	0.154210	0.241900	0.896660
O51	O5	0.073200	0.163800	0.900400
O61	O6	0.074300	0.328700	0.961500
O71	O7	0.201700	0.319300	0.764700
O81	O8	0.271200	0.181000	0.918200
N41	N4	0.185600	0.900900	0.908800
N51	N5	0.812500	0.592300	0.591600
C161	C16	0.198000	0.828900	0.841500
H131	H13	0.119500	0.819300	0.838900
C171	C17	0.317400	0.768400	0.777200
H141	H14	0.320700	0.719200	0.730100
C181	C18	0.434400	0.778900	0.781000
C191	C19	0.420100	0.853600	0.851900
H151	H15	0.496200	0.864300	0.858200
C201	C20	0.297300	0.910500	0.911800
H161	H16	0.290700	0.961000	0.959200
C211	C21	0.564900	0.715400	0.714500
C221	C22	0.581000	0.649300	0.635700
H171	H17	0.506400	0.644700	0.622800
C231	C23	0.704200	0.591100	0.577100
H181	H18	0.286700	0.452600	0.477400
C241	C24	0.201600	0.344300	0.332800
H191	H19	0.124900	0.341900	0.321800
C251	C25	0.321300	0.282900	0.271400
H201	H20	0.326800	0.238400	0.218900
N61	N6	0.809300	0.494400	0.008000
C261	C26	0.697300	0.553400	0.073900
H211	H21	0.701200	0.593500	0.125600
C271	C27	0.576000	0.558900	0.072100
H221	H22	0.498500	0.604800	0.118900
C281	C28	0.565100	0.498300	0.001800
C291	C29	0.680600	0.432800	0.937000
H231	H23	0.678200	0.387900	0.888700
C301	C30	0.799100	0.432400	0.942500
H241	H24	0.877700	0.386100	0.897500
Zn11	Zn1	0.000000	0.000000	0.000000
Zn21	Zn2	0.000000	0.500000	0.500000
Zn31	Zn3	0.000000	0.500000	0.000000
