data_CUNQOT_clean_PM
_symmetry_space_group_name_H-M	'P1'
_cell_length_a	5.566700
_cell_length_b	15.629700
_cell_length_c	9.540800
_cell_angle_alpha	90.000000
_cell_angle_beta	91.803900
_cell_angle_gamma	90.000000
_symmetry_Int_Tables_number 1

loop_
_symmetry_equiv_pos_as_xyz
'x,y,z'

loop_
_atom_site_label
_atom_site_type_symbol
_atom_site_fract_x
_atom_site_fract_y
_atom_site_fract_z
Mn11	Mn1	0.696140	0.668450	0.561260
P11	P1	0.185030	0.698310	0.353750
O11	O1	0.436200	0.721780	0.406200
O21	O2	0.989800	0.722220	0.452800
O31	O3	0.135600	0.734500	0.207800
O41	O4	0.182800	0.596870	0.335900
H11	H1	0.054500	0.577800	0.362000
O51	O5	0.743900	0.552170	0.428700
O61	O6	0.576100	0.426810	0.370200
C11	C1	0.592600	0.493750	0.441600
Mn21	Mn2	0.803860	0.168450	0.938740
P21	P2	0.314970	0.198310	0.146250
O71	O7	0.063800	0.221780	0.093800
O81	O8	0.510200	0.222220	0.047200
O91	O9	0.364400	0.234500	0.292200
O101	O10	0.317200	0.096870	0.164100
H21	H2	0.445500	0.077800	0.138000
O111	O11	0.756100	0.052170	0.071300
O121	O12	0.923900	0.926810	0.129800
C21	C2	0.907400	0.993750	0.058400
Mn31	Mn3	0.303860	0.331550	0.438740
P31	P3	0.814970	0.301690	0.646250
O131	O13	0.563800	0.278220	0.593800
O141	O14	0.010200	0.277780	0.547200
O151	O15	0.864400	0.265500	0.792200
O161	O16	0.817200	0.403130	0.664100
H31	H3	0.945500	0.422200	0.638000
O171	O17	0.256100	0.447830	0.571300
O181	O18	0.423900	0.573190	0.629800
C31	C3	0.407400	0.506250	0.558400
Mn41	Mn4	0.196140	0.831550	0.061260
P41	P4	0.685030	0.801690	0.853750
O191	O19	0.936200	0.778220	0.906200
O201	O20	0.489800	0.777780	0.952800
O211	O21	0.635600	0.765500	0.707800
O221	O22	0.682800	0.903130	0.835900
H41	H4	0.554500	0.922200	0.862000
O231	O23	0.243900	0.947830	0.928700
O241	O24	0.076100	0.073190	0.870200
C41	C4	0.092600	0.006250	0.941600
