data_CUPHUS_clean_PM
_symmetry_space_group_name_H-M	'P1'
_cell_length_a	18.097300
_cell_length_b	28.436900
_cell_length_c	28.501600
_cell_angle_alpha	90.000000
_cell_angle_beta	90.000000
_cell_angle_gamma	90.000000
_symmetry_Int_Tables_number 1

loop_
_symmetry_equiv_pos_as_xyz
'x,y,z'

loop_
_atom_site_label
_atom_site_type_symbol
_atom_site_fract_x
_atom_site_fract_y
_atom_site_fract_z
Cu11	Cu1	0.984390	0.243520	0.763920
Cu21	Cu2	0.741760	0.486140	0.503090
N11	N1	0.532500	0.293360	0.288970
N21	N2	0.939900	0.286530	0.715880
N31	N3	0.786600	0.436110	0.545020
N41	N4	0.964900	0.703380	0.687820
N51	N5	0.688800	0.436120	0.464960
N61	N6	0.938800	0.284400	0.814930
N71	N7	0.801700	0.462640	0.962430
N81	N8	0.792900	0.536390	0.541420
C11	C1	0.881200	0.350300	0.876700
C21	C2	0.897100	0.640500	0.626100
C31	C3	0.878700	0.344800	0.648100
C41	C4	0.601600	0.297600	0.360300
H11	H1	0.628600	0.281900	0.383300
C51	C5	0.980800	0.302800	0.849000
H21	H2	0.029900	0.293500	0.851500
C61	C6	0.623400	0.374700	0.400700
C71	C7	0.846400	0.376400	0.611900
C81	C8	0.836700	0.330200	0.841800
H31	H3	0.787400	0.338900	0.838700
C91	C9	0.772100	0.373700	0.600100
H41	H4	0.741500	0.351700	0.614400
C101	C10	0.894200	0.269500	0.683600
H51	H5	0.884500	0.237400	0.683500
C111	C11	0.618300	0.439900	0.453800
H61	H6	0.590300	0.463400	0.467900
C121	C12	0.818500	0.569800	0.616600
H71	H7	0.811700	0.569200	0.649000
C131	C13	0.853300	0.389600	0.906900
C141	C14	0.726700	0.400300	0.446600
H81	H8	0.775500	0.396100	0.455800
C151	C15	0.570700	0.273000	0.323300
H91	H9	0.577000	0.240600	0.322400
C161	C16	0.860400	0.297600	0.650000
H101	H10	0.826100	0.285000	0.629300
C171	C17	0.001900	0.684800	0.651600
H111	H11	0.051200	0.693200	0.647500
C181	C18	0.890300	0.408000	0.588400
H121	H12	0.940700	0.409700	0.594700
C191	C19	0.584000	0.410200	0.421900
H131	H13	0.534300	0.414300	0.414700
C201	C20	0.970200	0.653800	0.620000
H141	H14	0.997600	0.642100	0.594900
C211	C21	0.859200	0.660200	0.662500
H151	H15	0.809700	0.652900	0.667300
C221	C22	0.861200	0.604000	0.596200
C231	C23	0.744000	0.404400	0.566500
H161	H16	0.694100	0.402700	0.558900
C241	C24	0.868100	0.391100	0.954700
H171	H17	0.896400	0.367700	0.968700
C251	C25	0.927100	0.363000	0.682000
H181	H18	0.939100	0.394800	0.682200
C261	C26	0.858500	0.437300	0.555500
H191	H19	0.888500	0.458700	0.539900
C271	C27	0.696900	0.369400	0.414600
H201	H20	0.725500	0.345200	0.402300
C281	C28	0.895000	0.691300	0.692200
H211	H21	0.868100	0.704400	0.716700
C291	C29	0.551100	0.367300	0.327200
H221	H22	0.542700	0.399600	0.328100
C301	C30	0.523300	0.340600	0.290900
H231	H23	0.497400	0.355600	0.266900
C311	C31	0.870200	0.603700	0.547700
H241	H24	0.899800	0.626000	0.532900
C321	C32	0.956400	0.333200	0.715000
H251	H25	0.988600	0.345200	0.737400
C331	C33	0.591900	0.345700	0.362700
C341	C34	0.867100	0.297600	0.812200
H261	H26	0.837400	0.284000	0.789300
C351	C35	0.953100	0.335100	0.880500
H271	H27	0.983200	0.346700	0.904300
C361	C36	0.834200	0.569500	0.522200
H281	H28	0.839100	0.569800	0.489700
C371	C37	0.812100	0.425800	0.888100
H291	H29	0.800000	0.425700	0.856400
C381	C38	0.785800	0.536200	0.588300
H301	H30	0.757800	0.512700	0.602300
C391	C39	0.840600	0.427500	0.980700
H311	H31	0.849500	0.427700	0.012900
C401	C40	0.789100	0.461800	0.916100
H321	H32	0.763700	0.486700	0.902600
Cu31	Cu3	0.515610	0.756480	0.263920
Cu41	Cu4	0.758240	0.513860	0.003090
N91	N9	0.967500	0.706640	0.788970
N101	N10	0.560100	0.713470	0.215880
N111	N11	0.713400	0.563890	0.045020
N121	N12	0.535100	0.296620	0.187820
N131	N13	0.811200	0.563880	0.964960
N141	N14	0.561200	0.715600	0.314930
N151	N15	0.698300	0.537360	0.462430
N161	N16	0.707100	0.463610	0.041420
C411	C41	0.618800	0.649700	0.376700
C421	C42	0.602900	0.359500	0.126100
C431	C43	0.621300	0.655200	0.148100
C441	C44	0.898400	0.702400	0.860300
H331	H33	0.871400	0.718100	0.883300
C451	C45	0.519200	0.697200	0.349000
H341	H34	0.470100	0.706500	0.351500
C461	C46	0.876600	0.625300	0.900700
C471	C47	0.653600	0.623600	0.111900
C481	C48	0.663300	0.669800	0.341800
H351	H35	0.712600	0.661100	0.338700
C491	C49	0.727900	0.626300	0.100100
H361	H36	0.758500	0.648300	0.114400
C501	C50	0.605800	0.730500	0.183600
H371	H37	0.615500	0.762600	0.183500
C511	C51	0.881700	0.560100	0.953800
H381	H38	0.909700	0.536600	0.967900
C521	C52	0.681500	0.430200	0.116600
H391	H39	0.688300	0.430800	0.149000
C531	C53	0.646700	0.610400	0.406900
C541	C54	0.773300	0.599700	0.946600
H401	H40	0.724500	0.603900	0.955800
C551	C55	0.929300	0.727000	0.823300
H411	H41	0.923000	0.759400	0.822400
C561	C56	0.639600	0.702400	0.150000
H421	H42	0.673900	0.715000	0.129300
C571	C57	0.498100	0.315200	0.151600
H431	H43	0.448800	0.306800	0.147500
C581	C58	0.609700	0.592000	0.088400
H441	H44	0.559300	0.590300	0.094700
C591	C59	0.916000	0.589800	0.921900
H451	H45	0.965700	0.585700	0.914700
C601	C60	0.529800	0.346200	0.120000
H461	H46	0.502400	0.357900	0.094900
C611	C61	0.640800	0.339800	0.162500
H471	H47	0.690300	0.347100	0.167300
C621	C62	0.638800	0.396000	0.096200
C631	C63	0.756000	0.595600	0.066500
H481	H48	0.805900	0.597300	0.058900
C641	C64	0.631900	0.608900	0.454700
H491	H49	0.603600	0.632300	0.468700
C651	C65	0.572900	0.637000	0.182000
H501	H50	0.560900	0.605200	0.182200
C661	C66	0.641500	0.562700	0.055500
H511	H51	0.611500	0.541300	0.039900
C671	C67	0.803100	0.630600	0.914600
H521	H52	0.774500	0.654800	0.902300
C681	C68	0.605000	0.308700	0.192200
H531	H53	0.631900	0.295600	0.216700
C691	C69	0.948900	0.632700	0.827200
H541	H54	0.957300	0.600400	0.828100
C701	C70	0.976700	0.659400	0.790900
H551	H55	0.002600	0.644400	0.766900
C711	C71	0.629800	0.396300	0.047700
H561	H56	0.600200	0.374000	0.032900
C721	C72	0.543600	0.666800	0.215000
H571	H57	0.511400	0.654800	0.237400
C731	C73	0.908100	0.654300	0.862700
C741	C74	0.632900	0.702400	0.312200
H581	H58	0.662600	0.716000	0.289300
C751	C75	0.546900	0.664900	0.380500
H591	H59	0.516800	0.653300	0.404300
C761	C76	0.665800	0.430500	0.022200
H601	H60	0.660900	0.430200	0.989700
C771	C77	0.687900	0.574200	0.388100
H611	H61	0.700000	0.574300	0.356400
C781	C78	0.714200	0.463800	0.088300
H621	H62	0.742200	0.487300	0.102300
C791	C79	0.659400	0.572500	0.480700
H631	H63	0.650500	0.572300	0.512900
C801	C80	0.710900	0.538200	0.416100
H641	H64	0.736300	0.513300	0.402600
Cu51	Cu5	0.015610	0.743520	0.736080
Cu61	Cu6	0.258240	0.986140	0.996910
N171	N17	0.467500	0.793360	0.211030
N181	N18	0.060100	0.786530	0.784120
N191	N19	0.213400	0.936110	0.954980
N201	N20	0.035100	0.203380	0.812180
N211	N21	0.311200	0.936120	0.035040
N221	N22	0.061200	0.784400	0.685070
N231	N23	0.198300	0.962640	0.537570
N241	N24	0.207100	0.036390	0.958580
C811	C81	0.118800	0.850300	0.623300
C821	C82	0.102900	0.140500	0.873900
C831	C83	0.121300	0.844800	0.851900
C841	C84	0.398400	0.797600	0.139700
H651	H65	0.371400	0.781900	0.116700
C851	C85	0.019200	0.802800	0.651000
H661	H66	0.970100	0.793500	0.648500
C861	C86	0.376600	0.874700	0.099300
C871	C87	0.153600	0.876400	0.888100
C881	C88	0.163300	0.830200	0.658200
H671	H67	0.212600	0.838900	0.661300
C891	C89	0.227900	0.873700	0.899900
H681	H68	0.258500	0.851700	0.885600
C901	C90	0.105800	0.769500	0.816400
H691	H69	0.115500	0.737400	0.816500
C911	C91	0.381700	0.939900	0.046200
H701	H70	0.409700	0.963400	0.032100
C921	C92	0.181500	0.069800	0.883400
H711	H71	0.188300	0.069200	0.851000
C931	C93	0.146700	0.889600	0.593100
C941	C94	0.273300	0.900300	0.053400
H721	H72	0.224500	0.896100	0.044200
C951	C95	0.429300	0.773000	0.176700
H731	H73	0.423000	0.740600	0.177600
C961	C96	0.139600	0.797600	0.850000
H741	H74	0.173900	0.785000	0.870700
C971	C97	0.998100	0.184800	0.848400
H751	H75	0.948800	0.193200	0.852500
C981	C98	0.109700	0.908000	0.911600
H761	H76	0.059300	0.909700	0.905300
C991	C99	0.416000	0.910200	0.078100
H771	H77	0.465700	0.914300	0.085300
C1001	C100	0.029800	0.153800	0.880000
H781	H78	0.002400	0.142100	0.905100
C1011	C101	0.140800	0.160200	0.837500
H791	H79	0.190300	0.152900	0.832700
C1021	C102	0.138800	0.104000	0.903800
C1031	C103	0.256000	0.904400	0.933500
H801	H80	0.305900	0.902700	0.941100
C1041	C104	0.131900	0.891100	0.545300
H811	H81	0.103600	0.867700	0.531300
C1051	C105	0.072900	0.863000	0.818000
H821	H82	0.060900	0.894800	0.817800
C1061	C106	0.141500	0.937300	0.944500
H831	H83	0.111500	0.958700	0.960100
C1071	C107	0.303100	0.869400	0.085400
H841	H84	0.274500	0.845200	0.097700
C1081	C108	0.105000	0.191300	0.807800
H851	H85	0.131900	0.204400	0.783300
C1091	C109	0.448900	0.867300	0.172800
H861	H86	0.457300	0.899600	0.171900
C1101	C110	0.476700	0.840600	0.209100
H871	H87	0.502600	0.855600	0.233100
C1111	C111	0.129800	0.103700	0.952300
H881	H88	0.100200	0.126000	0.967100
C1121	C112	0.043600	0.833200	0.785000
H891	H89	0.011400	0.845200	0.762600
C1131	C113	0.408100	0.845700	0.137300
C1141	C114	0.132900	0.797600	0.687800
H901	H90	0.162600	0.784000	0.710700
C1151	C115	0.046900	0.835100	0.619500
H911	H91	0.016800	0.846700	0.595700
C1161	C116	0.165800	0.069500	0.977800
H921	H92	0.160900	0.069800	0.010300
C1171	C117	0.187900	0.925800	0.611900
H931	H93	0.200000	0.925700	0.643600
C1181	C118	0.214200	0.036200	0.911700
H941	H94	0.242200	0.012700	0.897700
C1191	C119	0.159400	0.927500	0.519300
H951	H95	0.150500	0.927700	0.487100
C1201	C120	0.210900	0.961800	0.583900
H961	H96	0.236300	0.986700	0.597400
Cu71	Cu7	0.484390	0.256480	0.236080
Cu81	Cu8	0.241760	0.013860	0.496910
N251	N25	0.032500	0.206640	0.711030
N261	N26	0.439900	0.213470	0.284120
N271	N27	0.286600	0.063890	0.454980
N281	N28	0.464900	0.796620	0.312180
N291	N29	0.188800	0.063880	0.535040
N301	N30	0.438800	0.215600	0.185070
N311	N31	0.301700	0.037360	0.037570
N321	N32	0.292900	0.963610	0.458580
C1211	C121	0.381200	0.149700	0.123300
C1221	C122	0.397100	0.859500	0.373900
C1231	C123	0.378700	0.155200	0.351900
C1241	C124	0.101600	0.202400	0.639700
H971	H97	0.128600	0.218100	0.616700
C1251	C125	0.480800	0.197200	0.151000
H981	H98	0.529900	0.206500	0.148500
C1261	C126	0.123400	0.125300	0.599300
C1271	C127	0.346400	0.123600	0.388100
C1281	C128	0.336700	0.169800	0.158200
H991	H99	0.287400	0.161100	0.161300
C1291	C129	0.272100	0.126300	0.399900
H1001	H100	0.241500	0.148300	0.385600
C1301	C130	0.394200	0.230500	0.316400
H1011	H101	0.384500	0.262600	0.316500
C1311	C131	0.118300	0.060100	0.546200
H1021	H102	0.090300	0.036600	0.532100
C1321	C132	0.318500	0.930200	0.383400
H1031	H103	0.311700	0.930800	0.351000
C1331	C133	0.353300	0.110400	0.093100
C1341	C134	0.226700	0.099700	0.553400
H1041	H104	0.275500	0.103900	0.544200
C1351	C135	0.070700	0.227000	0.676700
H1051	H105	0.077000	0.259400	0.677600
C1361	C136	0.360400	0.202400	0.350000
H1061	H106	0.326100	0.215000	0.370700
C1371	C137	0.501900	0.815200	0.348400
H1071	H107	0.551200	0.806800	0.352500
C1381	C138	0.390300	0.092000	0.411600
H1081	H108	0.440700	0.090300	0.405300
C1391	C139	0.084000	0.089800	0.578100
H1091	H109	0.034300	0.085700	0.585300
C1401	C140	0.470200	0.846200	0.380000
H1101	H110	0.497600	0.857900	0.405100
C1411	C141	0.359200	0.839800	0.337500
H1111	H111	0.309700	0.847100	0.332700
C1421	C142	0.361200	0.896000	0.403800
C1431	C143	0.244000	0.095600	0.433500
H1121	H112	0.194100	0.097300	0.441100
C1441	C144	0.368100	0.108900	0.045300
H1131	H113	0.396400	0.132300	0.031300
C1451	C145	0.427100	0.137000	0.318000
H1141	H114	0.439100	0.105200	0.317800
C1461	C146	0.358500	0.062700	0.444500
H1151	H115	0.388500	0.041300	0.460100
C1471	C147	0.196900	0.130600	0.585400
H1161	H116	0.225500	0.154800	0.597700
C1481	C148	0.395000	0.808700	0.307800
H1171	H117	0.368100	0.795600	0.283300
C1491	C149	0.051100	0.132700	0.672800
H1181	H118	0.042700	0.100400	0.671900
C1501	C150	0.023300	0.159400	0.709100
H1191	H119	0.997400	0.144400	0.733100
C1511	C151	0.370200	0.896300	0.452300
H1201	H120	0.399800	0.874000	0.467100
C1521	C152	0.456400	0.166800	0.285000
H1211	H121	0.488600	0.154800	0.262600
C1531	C153	0.091900	0.154300	0.637300
C1541	C154	0.367100	0.202400	0.187800
H1221	H122	0.337400	0.216000	0.210700
C1551	C155	0.453100	0.164900	0.119500
H1231	H123	0.483200	0.153300	0.095700
C1561	C156	0.334200	0.930500	0.477800
H1241	H124	0.339100	0.930200	0.510300
C1571	C157	0.312100	0.074200	0.111900
H1251	H125	0.300000	0.074300	0.143600
C1581	C158	0.285800	0.963800	0.411700
H1261	H126	0.257800	0.987300	0.397700
C1591	C159	0.340600	0.072500	0.019300
H1271	H127	0.349500	0.072300	0.987100
C1601	C160	0.289100	0.038200	0.083900
H1281	H128	0.263700	0.013300	0.097400
Cu91	Cu9	0.015610	0.756480	0.236080
Cu101	Cu10	0.258240	0.513860	0.496910
N331	N33	0.467500	0.706640	0.711030
N341	N34	0.060100	0.713470	0.284120
N351	N35	0.213400	0.563890	0.454980
N361	N36	0.035100	0.296620	0.312180
N371	N37	0.311200	0.563880	0.535040
N381	N38	0.061200	0.715600	0.185070
N391	N39	0.198300	0.537360	0.037570
N401	N40	0.207100	0.463610	0.458580
C1611	C161	0.118800	0.649700	0.123300
C1621	C162	0.102900	0.359500	0.373900
C1631	C163	0.121300	0.655200	0.351900
C1641	C164	0.398400	0.702400	0.639700
H1291	H129	0.371400	0.718100	0.616700
C1651	C165	0.019200	0.697200	0.151000
H1301	H130	0.970100	0.706500	0.148500
C1661	C166	0.376600	0.625300	0.599300
C1671	C167	0.153600	0.623600	0.388100
C1681	C168	0.163300	0.669800	0.158200
H1311	H131	0.212600	0.661100	0.161300
C1691	C169	0.227900	0.626300	0.399900
H1321	H132	0.258500	0.648300	0.385600
C1701	C170	0.105800	0.730500	0.316400
H1331	H133	0.115500	0.762600	0.316500
C1711	C171	0.381700	0.560100	0.546200
H1341	H134	0.409700	0.536600	0.532100
C1721	C172	0.181500	0.430200	0.383400
H1351	H135	0.188300	0.430800	0.351000
C1731	C173	0.146700	0.610400	0.093100
C1741	C174	0.273300	0.599700	0.553400
H1361	H136	0.224500	0.603900	0.544200
C1751	C175	0.429300	0.727000	0.676700
H1371	H137	0.423000	0.759400	0.677600
C1761	C176	0.139600	0.702400	0.350000
H1381	H138	0.173900	0.715000	0.370700
C1771	C177	0.998100	0.315200	0.348400
H1391	H139	0.948800	0.306800	0.352500
C1781	C178	0.109700	0.592000	0.411600
H1401	H140	0.059300	0.590300	0.405300
C1791	C179	0.416000	0.589800	0.578100
H1411	H141	0.465700	0.585700	0.585300
C1801	C180	0.029800	0.346200	0.380000
H1421	H142	0.002400	0.357900	0.405100
C1811	C181	0.140800	0.339800	0.337500
H1431	H143	0.190300	0.347100	0.332700
C1821	C182	0.138800	0.396000	0.403800
C1831	C183	0.256000	0.595600	0.433500
H1441	H144	0.305900	0.597300	0.441100
C1841	C184	0.131900	0.608900	0.045300
H1451	H145	0.103600	0.632300	0.031300
C1851	C185	0.072900	0.637000	0.318000
H1461	H146	0.060900	0.605200	0.317800
C1861	C186	0.141500	0.562700	0.444500
H1471	H147	0.111500	0.541300	0.460100
C1871	C187	0.303100	0.630600	0.585400
H1481	H148	0.274500	0.654800	0.597700
C1881	C188	0.105000	0.308700	0.307800
H1491	H149	0.131900	0.295600	0.283300
C1891	C189	0.448900	0.632700	0.672800
H1501	H150	0.457300	0.600400	0.671900
C1901	C190	0.476700	0.659400	0.709100
H1511	H151	0.502600	0.644400	0.733100
C1911	C191	0.129800	0.396300	0.452300
H1521	H152	0.100200	0.374000	0.467100
C1921	C192	0.043600	0.666800	0.285000
H1531	H153	0.011400	0.654800	0.262600
C1931	C193	0.408100	0.654300	0.637300
C1941	C194	0.132900	0.702400	0.187800
H1541	H154	0.162600	0.716000	0.210700
C1951	C195	0.046900	0.664900	0.119500
H1551	H155	0.016800	0.653300	0.095700
C1961	C196	0.165800	0.430500	0.477800
H1561	H156	0.160900	0.430200	0.510300
C1971	C197	0.187900	0.574200	0.111900
H1571	H157	0.200000	0.574300	0.143600
C1981	C198	0.214200	0.463800	0.411700
H1581	H158	0.242200	0.487300	0.397700
C1991	C199	0.159400	0.572500	0.019300
H1591	H159	0.150500	0.572300	0.987100
C2001	C200	0.210900	0.538200	0.083900
H1601	H160	0.236300	0.513300	0.097400
Cu111	Cu11	0.484390	0.243520	0.736080
Cu121	Cu12	0.241760	0.486140	0.996910
N411	N41	0.032500	0.293360	0.211030
N421	N42	0.439900	0.286530	0.784120
N431	N43	0.286600	0.436110	0.954980
N441	N44	0.464900	0.703380	0.812180
N451	N45	0.188800	0.436120	0.035040
N461	N46	0.438800	0.284400	0.685070
N471	N47	0.301700	0.462640	0.537570
N481	N48	0.292900	0.536390	0.958580
C2011	C201	0.381200	0.350300	0.623300
C2021	C202	0.397100	0.640500	0.873900
C2031	C203	0.378700	0.344800	0.851900
C2041	C204	0.101600	0.297600	0.139700
H1611	H161	0.128600	0.281900	0.116700
C2051	C205	0.480800	0.302800	0.651000
H1621	H162	0.529900	0.293500	0.648500
C2061	C206	0.123400	0.374700	0.099300
C2071	C207	0.346400	0.376400	0.888100
C2081	C208	0.336700	0.330200	0.658200
H1631	H163	0.287400	0.338900	0.661300
C2091	C209	0.272100	0.373700	0.899900
H1641	H164	0.241500	0.351700	0.885600
C2101	C210	0.394200	0.269500	0.816400
H1651	H165	0.384500	0.237400	0.816500
C2111	C211	0.118300	0.439900	0.046200
H1661	H166	0.090300	0.463400	0.032100
C2121	C212	0.318500	0.569800	0.883400
H1671	H167	0.311700	0.569200	0.851000
C2131	C213	0.353300	0.389600	0.593100
C2141	C214	0.226700	0.400300	0.053400
H1681	H168	0.275500	0.396100	0.044200
C2151	C215	0.070700	0.273000	0.176700
H1691	H169	0.077000	0.240600	0.177600
C2161	C216	0.360400	0.297600	0.850000
H1701	H170	0.326100	0.285000	0.870700
C2171	C217	0.501900	0.684800	0.848400
H1711	H171	0.551200	0.693200	0.852500
C2181	C218	0.390300	0.408000	0.911600
H1721	H172	0.440700	0.409700	0.905300
C2191	C219	0.084000	0.410200	0.078100
H1731	H173	0.034300	0.414300	0.085300
C2201	C220	0.470200	0.653800	0.880000
H1741	H174	0.497600	0.642100	0.905100
C2211	C221	0.359200	0.660200	0.837500
H1751	H175	0.309700	0.652900	0.832700
C2221	C222	0.361200	0.604000	0.903800
C2231	C223	0.244000	0.404400	0.933500
H1761	H176	0.194100	0.402700	0.941100
C2241	C224	0.368100	0.391100	0.545300
H1771	H177	0.396400	0.367700	0.531300
C2251	C225	0.427100	0.363000	0.818000
H1781	H178	0.439100	0.394800	0.817800
C2261	C226	0.358500	0.437300	0.944500
H1791	H179	0.388500	0.458700	0.960100
C2271	C227	0.196900	0.369400	0.085400
H1801	H180	0.225500	0.345200	0.097700
C2281	C228	0.395000	0.691300	0.807800
H1811	H181	0.368100	0.704400	0.783300
C2291	C229	0.051100	0.367300	0.172800
H1821	H182	0.042700	0.399600	0.171900
C2301	C230	0.023300	0.340600	0.209100
H1831	H183	0.997400	0.355600	0.233100
C2311	C231	0.370200	0.603700	0.952300
H1841	H184	0.399800	0.626000	0.967100
C2321	C232	0.456400	0.333200	0.785000
H1851	H185	0.488600	0.345200	0.762600
C2331	C233	0.091900	0.345700	0.137300
C2341	C234	0.367100	0.297600	0.687800
H1861	H186	0.337400	0.284000	0.710700
C2351	C235	0.453100	0.335100	0.619500
H1871	H187	0.483200	0.346700	0.595700
C2361	C236	0.334200	0.569500	0.977800
H1881	H188	0.339100	0.569800	0.010300
C2371	C237	0.312100	0.425800	0.611900
H1891	H189	0.300000	0.425700	0.643600
C2381	C238	0.285800	0.536200	0.911700
H1901	H190	0.257800	0.512700	0.897700
C2391	C239	0.340600	0.427500	0.519300
H1911	H191	0.349500	0.427700	0.487100
C2401	C240	0.289100	0.461800	0.583900
H1921	H192	0.263700	0.486700	0.597400
Cu131	Cu13	0.984390	0.256480	0.263920
Cu141	Cu14	0.741760	0.013860	0.003090
N491	N49	0.532500	0.206640	0.788970
N501	N50	0.939900	0.213470	0.215880
N511	N51	0.786600	0.063890	0.045020
N521	N52	0.964900	0.796620	0.187820
N531	N53	0.688800	0.063880	0.964960
N541	N54	0.938800	0.215600	0.314930
N551	N55	0.801700	0.037360	0.462430
N561	N56	0.792900	0.963610	0.041420
C2411	C241	0.881200	0.149700	0.376700
C2421	C242	0.897100	0.859500	0.126100
C2431	C243	0.878700	0.155200	0.148100
C2441	C244	0.601600	0.202400	0.860300
H1931	H193	0.628600	0.218100	0.883300
C2451	C245	0.980800	0.197200	0.349000
H1941	H194	0.029900	0.206500	0.351500
C2461	C246	0.623400	0.125300	0.900700
C2471	C247	0.846400	0.123600	0.111900
C2481	C248	0.836700	0.169800	0.341800
H1951	H195	0.787400	0.161100	0.338700
C2491	C249	0.772100	0.126300	0.100100
H1961	H196	0.741500	0.148300	0.114400
C2501	C250	0.894200	0.230500	0.183600
H1971	H197	0.884500	0.262600	0.183500
C2511	C251	0.618300	0.060100	0.953800
H1981	H198	0.590300	0.036600	0.967900
C2521	C252	0.818500	0.930200	0.116600
H1991	H199	0.811700	0.930800	0.149000
C2531	C253	0.853300	0.110400	0.406900
C2541	C254	0.726700	0.099700	0.946600
H2001	H200	0.775500	0.103900	0.955800
C2551	C255	0.570700	0.227000	0.823300
H2011	H201	0.577000	0.259400	0.822400
C2561	C256	0.860400	0.202400	0.150000
H2021	H202	0.826100	0.215000	0.129300
C2571	C257	0.001900	0.815200	0.151600
H2031	H203	0.051200	0.806800	0.147500
C2581	C258	0.890300	0.092000	0.088400
H2041	H204	0.940700	0.090300	0.094700
C2591	C259	0.584000	0.089800	0.921900
H2051	H205	0.534300	0.085700	0.914700
C2601	C260	0.970200	0.846200	0.120000
H2061	H206	0.997600	0.857900	0.094900
C2611	C261	0.859200	0.839800	0.162500
H2071	H207	0.809700	0.847100	0.167300
C2621	C262	0.861200	0.896000	0.096200
C2631	C263	0.744000	0.095600	0.066500
H2081	H208	0.694100	0.097300	0.058900
C2641	C264	0.868100	0.108900	0.454700
H2091	H209	0.896400	0.132300	0.468700
C2651	C265	0.927100	0.137000	0.182000
H2101	H210	0.939100	0.105200	0.182200
C2661	C266	0.858500	0.062700	0.055500
H2111	H211	0.888500	0.041300	0.039900
C2671	C267	0.696900	0.130600	0.914600
H2121	H212	0.725500	0.154800	0.902300
C2681	C268	0.895000	0.808700	0.192200
H2131	H213	0.868100	0.795600	0.216700
C2691	C269	0.551100	0.132700	0.827200
H2141	H214	0.542700	0.100400	0.828100
C2701	C270	0.523300	0.159400	0.790900
H2151	H215	0.497400	0.144400	0.766900
C2711	C271	0.870200	0.896300	0.047700
H2161	H216	0.899800	0.874000	0.032900
C2721	C272	0.956400	0.166800	0.215000
H2171	H217	0.988600	0.154800	0.237400
C2731	C273	0.591900	0.154300	0.862700
C2741	C274	0.867100	0.202400	0.312200
H2181	H218	0.837400	0.216000	0.289300
C2751	C275	0.953100	0.164900	0.380500
H2191	H219	0.983200	0.153300	0.404300
C2761	C276	0.834200	0.930500	0.022200
H2201	H220	0.839100	0.930200	0.989700
C2771	C277	0.812100	0.074200	0.388100
H2211	H221	0.800000	0.074300	0.356400
C2781	C278	0.785800	0.963800	0.088300
H2221	H222	0.757800	0.987300	0.102300
C2791	C279	0.840600	0.072500	0.480700
H2231	H223	0.849500	0.072300	0.512900
C2801	C280	0.789100	0.038200	0.416100
H2241	H224	0.763700	0.013300	0.402600
Cu151	Cu15	0.515610	0.743520	0.763920
Cu161	Cu16	0.758240	0.986140	0.503090
N571	N57	0.967500	0.793360	0.288970
N581	N58	0.560100	0.786530	0.715880
N591	N59	0.713400	0.936110	0.545020
N601	N60	0.535100	0.203380	0.687820
N611	N61	0.811200	0.936120	0.464960
N621	N62	0.561200	0.784400	0.814930
N631	N63	0.698300	0.962640	0.962430
N641	N64	0.707100	0.036390	0.541420
C2811	C281	0.618800	0.850300	0.876700
C2821	C282	0.602900	0.140500	0.626100
C2831	C283	0.621300	0.844800	0.648100
C2841	C284	0.898400	0.797600	0.360300
H2251	H225	0.871400	0.781900	0.383300
C2851	C285	0.519200	0.802800	0.849000
H2261	H226	0.470100	0.793500	0.851500
C2861	C286	0.876600	0.874700	0.400700
C2871	C287	0.653600	0.876400	0.611900
C2881	C288	0.663300	0.830200	0.841800
H2271	H227	0.712600	0.838900	0.838700
C2891	C289	0.727900	0.873700	0.600100
H2281	H228	0.758500	0.851700	0.614400
C2901	C290	0.605800	0.769500	0.683600
H2291	H229	0.615500	0.737400	0.683500
C2911	C291	0.881700	0.939900	0.453800
H2301	H230	0.909700	0.963400	0.467900
C2921	C292	0.681500	0.069800	0.616600
H2311	H231	0.688300	0.069200	0.649000
C2931	C293	0.646700	0.889600	0.906900
C2941	C294	0.773300	0.900300	0.446600
H2321	H232	0.724500	0.896100	0.455800
C2951	C295	0.929300	0.773000	0.323300
H2331	H233	0.923000	0.740600	0.322400
C2961	C296	0.639600	0.797600	0.650000
H2341	H234	0.673900	0.785000	0.629300
C2971	C297	0.498100	0.184800	0.651600
H2351	H235	0.448800	0.193200	0.647500
C2981	C298	0.609700	0.908000	0.588400
H2361	H236	0.559300	0.909700	0.594700
C2991	C299	0.916000	0.910200	0.421900
H2371	H237	0.965700	0.914300	0.414700
C3001	C300	0.529800	0.153800	0.620000
H2381	H238	0.502400	0.142100	0.594900
C3011	C301	0.640800	0.160200	0.662500
H2391	H239	0.690300	0.152900	0.667300
C3021	C302	0.638800	0.104000	0.596200
C3031	C303	0.756000	0.904400	0.566500
H2401	H240	0.805900	0.902700	0.558900
C3041	C304	0.631900	0.891100	0.954700
H2411	H241	0.603600	0.867700	0.968700
C3051	C305	0.572900	0.863000	0.682000
H2421	H242	0.560900	0.894800	0.682200
C3061	C306	0.641500	0.937300	0.555500
H2431	H243	0.611500	0.958700	0.539900
C3071	C307	0.803100	0.869400	0.414600
H2441	H244	0.774500	0.845200	0.402300
C3081	C308	0.605000	0.191300	0.692200
H2451	H245	0.631900	0.204400	0.716700
C3091	C309	0.948900	0.867300	0.327200
H2461	H246	0.957300	0.899600	0.328100
C3101	C310	0.976700	0.840600	0.290900
H2471	H247	0.002600	0.855600	0.266900
C3111	C311	0.629800	0.103700	0.547700
H2481	H248	0.600200	0.126000	0.532900
C3121	C312	0.543600	0.833200	0.715000
H2491	H249	0.511400	0.845200	0.737400
C3131	C313	0.908100	0.845700	0.362700
C3141	C314	0.632900	0.797600	0.812200
H2501	H250	0.662600	0.784000	0.789300
C3151	C315	0.546900	0.835100	0.880500
H2511	H251	0.516800	0.846700	0.904300
C3161	C316	0.665800	0.069500	0.522200
H2521	H252	0.660900	0.069800	0.489700
C3171	C317	0.687900	0.925800	0.888100
H2531	H253	0.700000	0.925700	0.856400
C3181	C318	0.714200	0.036200	0.588300
H2541	H254	0.742200	0.012700	0.602300
C3191	C319	0.659400	0.927500	0.980700
H2551	H255	0.650500	0.927700	0.012900
C3201	C320	0.710900	0.961800	0.916100
H2561	H256	0.736300	0.986700	0.902600
