data_CUQRIR_clean_PM
_symmetry_space_group_name_H-M	'P1'
_cell_length_a	39.356000
_cell_length_b	9.332000
_cell_length_c	9.842000
_cell_angle_alpha	90.000000
_cell_angle_beta	101.864000
_cell_angle_gamma	90.000000
_symmetry_Int_Tables_number 1

loop_
_symmetry_equiv_pos_as_xyz
'x,y,z'

loop_
_atom_site_label
_atom_site_type_symbol
_atom_site_fract_x
_atom_site_fract_y
_atom_site_fract_z
Zn11	Zn1	0.214190	0.310890	0.085610
N11	N1	0.248320	0.152400	0.151400
N21	N2	0.275970	0.115500	0.093800
N31	N3	0.275710	0.973100	0.271600
O11	O1	0.166000	0.271000	0.082300
O21	O2	0.168660	0.097600	0.950800
C11	C1	0.152400	0.170700	0.010200
C21	C2	0.115530	0.135400	0.014000
C31	C3	0.098090	0.211100	0.090500
H11	H1	0.108700	0.288500	0.141700
C41	C4	0.099100	0.023900	0.942900
H21	H2	0.110900	0.965400	0.891500
C51	C5	0.064000	0.994800	0.945700
H31	H3	0.052900	0.918700	0.893800
C61	C6	0.064000	0.176200	0.095200
H41	H4	0.053100	0.228500	0.154500
C71	C7	0.046290	0.073800	0.021100
C81	C8	0.009850	0.047000	0.027400
H51	H5	0.000400	0.111400	0.081400
C91	C9	0.291850	0.008400	0.168000
C101	C10	0.323440	0.939400	0.137500
H61	H6	0.317000	0.854400	0.083300
H71	H7	0.338900	0.914300	0.223100
H81	H8	0.334900	0.004800	0.086500
C111	C11	0.248920	0.065500	0.256000
C121	C12	0.223310	0.072300	0.347700
H91	H9	0.234500	0.107700	0.437300
H101	H10	0.214300	0.978100	0.357400
H111	H11	0.204700	0.135300	0.307600
Zn21	Zn2	0.714190	0.810890	0.085610
N41	N4	0.748320	0.652400	0.151400
N51	N5	0.775970	0.615500	0.093800
N61	N6	0.775710	0.473100	0.271600
O31	O3	0.666000	0.771000	0.082300
O41	O4	0.668660	0.597600	0.950800
C131	C13	0.652400	0.670700	0.010200
C141	C14	0.615530	0.635400	0.014000
C151	C15	0.598090	0.711100	0.090500
H121	H12	0.608700	0.788500	0.141700
C161	C16	0.599100	0.523900	0.942900
H131	H13	0.610900	0.465400	0.891500
C171	C17	0.564000	0.494800	0.945700
H141	H14	0.552900	0.418700	0.893800
C181	C18	0.564000	0.676200	0.095200
H151	H15	0.553100	0.728500	0.154500
C191	C19	0.546290	0.573800	0.021100
C201	C20	0.509850	0.547000	0.027400
H161	H16	0.500400	0.611400	0.081400
C211	C21	0.791850	0.508400	0.168000
C221	C22	0.823440	0.439400	0.137500
H171	H17	0.817000	0.354400	0.083300
H181	H18	0.838900	0.414300	0.223100
H191	H19	0.834900	0.504800	0.086500
C231	C23	0.748920	0.565500	0.256000
C241	C24	0.723310	0.572300	0.347700
H201	H20	0.734500	0.607700	0.437300
H211	H21	0.714300	0.478100	0.357400
H221	H22	0.704700	0.635300	0.307600
Zn31	Zn3	0.785810	0.310890	0.414390
N71	N7	0.751680	0.152400	0.348600
N81	N8	0.724030	0.115500	0.406200
N91	N9	0.724290	0.973100	0.228400
O51	O5	0.834000	0.271000	0.417700
O61	O6	0.831340	0.097600	0.549200
C251	C25	0.847600	0.170700	0.489800
C261	C26	0.884470	0.135400	0.486000
C271	C27	0.901910	0.211100	0.409500
H231	H23	0.891300	0.288500	0.358300
C281	C28	0.900900	0.023900	0.557100
H241	H24	0.889100	0.965400	0.608500
C291	C29	0.936000	0.994800	0.554300
H251	H25	0.947100	0.918700	0.606200
C301	C30	0.936000	0.176200	0.404800
H261	H26	0.946900	0.228500	0.345500
C311	C31	0.953710	0.073800	0.478900
C321	C32	0.990150	0.047000	0.472600
H271	H27	0.999600	0.111400	0.418600
C331	C33	0.708150	0.008400	0.332000
C341	C34	0.676560	0.939400	0.362500
H281	H28	0.683000	0.854400	0.416700
H291	H29	0.661100	0.914300	0.276900
H301	H30	0.665100	0.004800	0.413500
C351	C35	0.751080	0.065500	0.244000
C361	C36	0.776690	0.072300	0.152300
H311	H31	0.765500	0.107700	0.062700
H321	H32	0.785700	0.978100	0.142600
H331	H33	0.795300	0.135300	0.192400
Zn41	Zn4	0.285810	0.810890	0.414390
N101	N10	0.251680	0.652400	0.348600
N111	N11	0.224030	0.615500	0.406200
N121	N12	0.224290	0.473100	0.228400
O71	O7	0.334000	0.771000	0.417700
O81	O8	0.331340	0.597600	0.549200
C371	C37	0.347600	0.670700	0.489800
C381	C38	0.384470	0.635400	0.486000
C391	C39	0.401910	0.711100	0.409500
H341	H34	0.391300	0.788500	0.358300
C401	C40	0.400900	0.523900	0.557100
H351	H35	0.389100	0.465400	0.608500
C411	C41	0.436000	0.494800	0.554300
H361	H36	0.447100	0.418700	0.606200
C421	C42	0.436000	0.676200	0.404800
H371	H37	0.446900	0.728500	0.345500
C431	C43	0.453710	0.573800	0.478900
C441	C44	0.490150	0.547000	0.472600
H381	H38	0.499600	0.611400	0.418600
C451	C45	0.208150	0.508400	0.332000
C461	C46	0.176560	0.439400	0.362500
H391	H39	0.183000	0.354400	0.416700
H401	H40	0.161100	0.414300	0.276900
H411	H41	0.165100	0.504800	0.413500
C471	C47	0.251080	0.565500	0.244000
C481	C48	0.276690	0.572300	0.152300
H421	H42	0.265500	0.607700	0.062700
H431	H43	0.285700	0.478100	0.142600
H441	H44	0.295300	0.635300	0.192400
Zn51	Zn5	0.785810	0.689110	0.914390
N131	N13	0.751680	0.847600	0.848600
N141	N14	0.724030	0.884500	0.906200
N151	N15	0.724290	0.026900	0.728400
O91	O9	0.834000	0.729000	0.917700
O101	O10	0.831340	0.902400	0.049200
C491	C49	0.847600	0.829300	0.989800
C501	C50	0.884470	0.864600	0.986000
C511	C51	0.901910	0.788900	0.909500
H451	H45	0.891300	0.711500	0.858300
C521	C52	0.900900	0.976100	0.057100
H461	H46	0.889100	0.034600	0.108500
C531	C53	0.936000	0.005200	0.054300
H471	H47	0.947100	0.081300	0.106200
C541	C54	0.936000	0.823800	0.904800
H481	H48	0.946900	0.771500	0.845500
C551	C55	0.953710	0.926200	0.978900
C561	C56	0.990150	0.953000	0.972600
H491	H49	0.999600	0.888600	0.918600
C571	C57	0.708150	0.991600	0.832000
C581	C58	0.676560	0.060600	0.862500
H501	H50	0.683000	0.145600	0.916700
H511	H51	0.661100	0.085700	0.776900
H521	H52	0.665100	0.995200	0.913500
C591	C59	0.751080	0.934500	0.744000
C601	C60	0.776690	0.927700	0.652300
H531	H53	0.765500	0.892300	0.562700
H541	H54	0.785700	0.021900	0.642600
H551	H55	0.795300	0.864700	0.692400
Zn61	Zn6	0.285810	0.189110	0.914390
N161	N16	0.251680	0.347600	0.848600
N171	N17	0.224030	0.384500	0.906200
N181	N18	0.224290	0.526900	0.728400
O111	O11	0.334000	0.229000	0.917700
O121	O12	0.331340	0.402400	0.049200
C611	C61	0.347600	0.329300	0.989800
C621	C62	0.384470	0.364600	0.986000
C631	C63	0.401910	0.288900	0.909500
H561	H56	0.391300	0.211500	0.858300
C641	C64	0.400900	0.476100	0.057100
H571	H57	0.389100	0.534600	0.108500
C651	C65	0.436000	0.505200	0.054300
H581	H58	0.447100	0.581300	0.106200
C661	C66	0.436000	0.323800	0.904800
H591	H59	0.446900	0.271500	0.845500
C671	C67	0.453710	0.426200	0.978900
C681	C68	0.490150	0.453000	0.972600
H601	H60	0.499600	0.388600	0.918600
C691	C69	0.208150	0.491600	0.832000
C701	C70	0.176560	0.560600	0.862500
H611	H61	0.183000	0.645600	0.916700
H621	H62	0.161100	0.585700	0.776900
H631	H63	0.165100	0.495200	0.913500
C711	C71	0.251080	0.434500	0.744000
C721	C72	0.276690	0.427700	0.652300
H641	H64	0.265500	0.392300	0.562700
H651	H65	0.285700	0.521900	0.642600
H661	H66	0.295300	0.364700	0.692400
Zn71	Zn7	0.214190	0.689110	0.585610
N191	N19	0.248320	0.847600	0.651400
N201	N20	0.275970	0.884500	0.593800
N211	N21	0.275710	0.026900	0.771600
O131	O13	0.166000	0.729000	0.582300
O141	O14	0.168660	0.902400	0.450800
C731	C73	0.152400	0.829300	0.510200
C741	C74	0.115530	0.864600	0.514000
C751	C75	0.098090	0.788900	0.590500
H671	H67	0.108700	0.711500	0.641700
C761	C76	0.099100	0.976100	0.442900
H681	H68	0.110900	0.034600	0.391500
C771	C77	0.064000	0.005200	0.445700
H691	H69	0.052900	0.081300	0.393800
C781	C78	0.064000	0.823800	0.595200
H701	H70	0.053100	0.771500	0.654500
C791	C79	0.046290	0.926200	0.521100
C801	C80	0.009850	0.953000	0.527400
H711	H71	0.000400	0.888600	0.581400
C811	C81	0.291850	0.991600	0.668000
C821	C82	0.323440	0.060600	0.637500
H721	H72	0.317000	0.145600	0.583300
H731	H73	0.338900	0.085700	0.723100
H741	H74	0.334900	0.995200	0.586500
C831	C83	0.248920	0.934500	0.756000
C841	C84	0.223310	0.927700	0.847700
H751	H75	0.234500	0.892300	0.937300
H761	H76	0.214300	0.021900	0.857400
H771	H77	0.204700	0.864700	0.807600
Zn81	Zn8	0.714190	0.189110	0.585610
N221	N22	0.748320	0.347600	0.651400
N231	N23	0.775970	0.384500	0.593800
N241	N24	0.775710	0.526900	0.771600
O151	O15	0.666000	0.229000	0.582300
O161	O16	0.668660	0.402400	0.450800
C851	C85	0.652400	0.329300	0.510200
C861	C86	0.615530	0.364600	0.514000
C871	C87	0.598090	0.288900	0.590500
H781	H78	0.608700	0.211500	0.641700
C881	C88	0.599100	0.476100	0.442900
H791	H79	0.610900	0.534600	0.391500
C891	C89	0.564000	0.505200	0.445700
H801	H80	0.552900	0.581300	0.393800
C901	C90	0.564000	0.323800	0.595200
H811	H81	0.553100	0.271500	0.654500
C911	C91	0.546290	0.426200	0.521100
C921	C92	0.509850	0.453000	0.527400
H821	H82	0.500400	0.388600	0.581400
C931	C93	0.791850	0.491600	0.668000
C941	C94	0.823440	0.560600	0.637500
H831	H83	0.817000	0.645600	0.583300
H841	H84	0.838900	0.585700	0.723100
H851	H85	0.834900	0.495200	0.586500
C951	C95	0.748920	0.434500	0.756000
C961	C96	0.723310	0.427700	0.847700
H861	H86	0.734500	0.392300	0.937300
H871	H87	0.714300	0.521900	0.857400
H881	H88	0.704700	0.364700	0.807600
