data_CUSZEX_clean_PM
_symmetry_space_group_name_H-M	'P1'
_cell_length_a	12.525500
_cell_length_b	8.170100
_cell_length_c	20.947400
_cell_angle_alpha	90.000000
_cell_angle_beta	96.835000
_cell_angle_gamma	90.000000
_symmetry_Int_Tables_number 1

loop_
_symmetry_equiv_pos_as_xyz
'x,y,z'

loop_
_atom_site_label
_atom_site_type_symbol
_atom_site_fract_x
_atom_site_fract_y
_atom_site_fract_z
C11	C1	0.665300	0.571400	0.833200
Cu11	Cu1	0.998850	0.141470	0.245130
N11	N1	0.903100	0.749300	0.807200
N21	N2	0.594600	0.506900	0.802700
C21	C2	0.750200	0.654100	0.869200
C31	C3	0.738700	0.795500	0.066700
C41	C4	0.812100	0.949600	0.165400
C51	C5	0.830200	0.791000	0.970600
H11	H1	0.889400	0.824100	0.949300
C61	C6	0.732400	0.849100	0.133000
C71	C7	0.661900	0.648900	0.970900
H21	H2	0.605500	0.583700	0.949900
N31	N3	0.880700	0.029100	0.192400
N41	N4	0.573100	0.785000	0.194600
C81	C8	0.825600	0.837900	0.034000
H31	H3	0.883000	0.900200	0.055600
C91	C9	0.645600	0.815200	0.166100
C101	C10	0.657800	0.697300	0.034100
H41	H4	0.599100	0.663400	0.055700
C111	C11	0.747900	0.694800	0.937500
C121	C12	0.832600	0.705300	0.835200
C131	C13	0.834700	0.071400	0.666800
Cu21	Cu2	0.501150	0.641470	0.254870
N51	N5	0.596900	0.249300	0.692800
N61	N6	0.905400	0.006900	0.697300
C141	C14	0.749800	0.154100	0.630800
C151	C15	0.761300	0.295500	0.433300
C161	C16	0.687900	0.449600	0.334600
C171	C17	0.669800	0.291000	0.529400
H51	H5	0.610600	0.324100	0.550700
C181	C18	0.767600	0.349100	0.367000
C191	C19	0.838100	0.148900	0.529100
H61	H6	0.894500	0.083700	0.550100
N71	N7	0.619300	0.529100	0.307600
N81	N8	0.926900	0.285000	0.305400
C201	C20	0.674400	0.337900	0.466000
H71	H7	0.617000	0.400200	0.444400
C211	C21	0.854400	0.315200	0.333900
C221	C22	0.842200	0.197300	0.465900
H81	H8	0.900900	0.163400	0.444300
C231	C23	0.752100	0.194800	0.562500
C241	C24	0.667400	0.205300	0.664800
C251	C25	0.334700	0.428600	0.166800
Cu31	Cu3	0.001150	0.858530	0.754870
N91	N9	0.096900	0.250700	0.192800
N101	N10	0.405400	0.493100	0.197300
C261	C26	0.249800	0.345900	0.130800
C271	C27	0.261300	0.204500	0.933300
C281	C28	0.187900	0.050400	0.834600
C291	C29	0.169800	0.209000	0.029400
H91	H9	0.110600	0.175900	0.050700
C301	C30	0.267600	0.150900	0.867000
C311	C31	0.338100	0.351100	0.029100
H101	H10	0.394500	0.416300	0.050100
N111	N11	0.119300	0.970900	0.807600
N121	N12	0.426900	0.215000	0.805400
C321	C32	0.174400	0.162100	0.966000
H111	H11	0.117000	0.099800	0.944400
C331	C33	0.354400	0.184800	0.833900
C341	C34	0.342200	0.302700	0.965900
H121	H12	0.400900	0.336600	0.944300
C351	C35	0.252100	0.305200	0.062500
C361	C36	0.167400	0.294700	0.164800
C371	C37	0.165300	0.928600	0.333200
Cu41	Cu4	0.498850	0.358530	0.745130
N131	N13	0.403100	0.750700	0.307200
N141	N14	0.094600	0.993100	0.302700
C381	C38	0.250200	0.845900	0.369200
C391	C39	0.238700	0.704500	0.566700
C401	C40	0.312100	0.550400	0.665400
C411	C41	0.330200	0.709000	0.470600
H131	H13	0.389400	0.675900	0.449300
C421	C42	0.232400	0.650900	0.633000
C431	C43	0.161900	0.851100	0.470900
H141	H14	0.105500	0.916300	0.449900
N151	N15	0.380700	0.470900	0.692400
N161	N16	0.073100	0.715000	0.694600
C441	C44	0.325600	0.662100	0.534000
H151	H15	0.383000	0.599800	0.555600
C451	C45	0.145600	0.684800	0.666100
C461	C46	0.157800	0.802700	0.534100
H161	H16	0.099100	0.836600	0.555700
C471	C47	0.247900	0.805200	0.437500
C481	C48	0.332600	0.794700	0.335200
