data_CUTBIE_clean_PM
_symmetry_space_group_name_H-M	'P1'
_cell_length_a	32.118000
_cell_length_b	15.213300
_cell_length_c	13.178900
_cell_angle_alpha	90.000000
_cell_angle_beta	95.256000
_cell_angle_gamma	90.000000
_symmetry_Int_Tables_number 1

loop_
_symmetry_equiv_pos_as_xyz
'x,y,z'

loop_
_atom_site_label
_atom_site_type_symbol
_atom_site_fract_x
_atom_site_fract_y
_atom_site_fract_z
La11	La1	0.811880	0.793520	0.528610
O11	O1	0.863730	0.673200	0.497200
O21	O2	0.884400	0.807200	0.458300
O31	O3	0.230310	0.340100	0.446600
O41	O4	0.284460	0.420800	0.417200
O51	O5	0.206120	0.729900	0.144500
O61	O6	0.265740	0.654800	0.158500
C11	C1	0.929690	0.686100	0.432000
C21	C2	0.934080	0.595200	0.431000
C31	C3	0.971030	0.557740	0.404400
C41	C4	0.003600	0.611150	0.378930
C51	C5	0.999220	0.702040	0.380000
C61	C6	0.962270	0.739510	0.406500
C71	C7	0.041970	0.574020	0.353330
C81	C8	0.082430	0.609480	0.345300
N11	N1	0.109510	0.539200	0.324700
N21	N2	0.085780	0.460330	0.319900
N31	N3	0.044030	0.481840	0.337600
C91	C9	0.150050	0.538700	0.314400
C101	C10	0.175320	0.475000	0.364200
C111	C11	0.218040	0.474200	0.354300
C121	C12	0.235490	0.537200	0.294600
C131	C13	0.210220	0.600900	0.244800
C141	C14	0.167500	0.601700	0.254700
C151	C15	0.890500	0.725400	0.464500
C161	C16	0.246000	0.407200	0.408200
C171	C17	0.229100	0.667200	0.177200
La21	La2	0.311880	0.293520	0.528610
O71	O7	0.363730	0.173200	0.497200
O81	O8	0.384400	0.307200	0.458300
O91	O9	0.730310	0.840100	0.446600
O101	O10	0.784460	0.920800	0.417200
O111	O11	0.706120	0.229900	0.144500
O121	O12	0.765740	0.154800	0.158500
C181	C18	0.429690	0.186100	0.432000
C191	C19	0.434080	0.095200	0.431000
C201	C20	0.471030	0.057740	0.404400
C211	C21	0.503600	0.111150	0.378930
C221	C22	0.499220	0.202040	0.380000
C231	C23	0.462270	0.239510	0.406500
C241	C24	0.541970	0.074020	0.353330
C251	C25	0.582430	0.109480	0.345300
N41	N4	0.609510	0.039200	0.324700
N51	N5	0.585780	0.960330	0.319900
N61	N6	0.544030	0.981840	0.337600
C261	C26	0.650050	0.038700	0.314400
C271	C27	0.675320	0.975000	0.364200
C281	C28	0.718040	0.974200	0.354300
C291	C29	0.735490	0.037200	0.294600
C301	C30	0.710220	0.100900	0.244800
C311	C31	0.667500	0.101700	0.254700
C321	C32	0.390500	0.225400	0.464500
C331	C33	0.746000	0.907200	0.408200
C341	C34	0.729100	0.167200	0.177200
La31	La3	0.188120	0.793520	0.971390
O131	O13	0.136270	0.673200	0.002800
O141	O14	0.115600	0.807200	0.041700
O151	O15	0.769690	0.340100	0.053400
O161	O16	0.715540	0.420800	0.082800
O171	O17	0.793880	0.729900	0.355500
O181	O18	0.734260	0.654800	0.341500
C351	C35	0.070310	0.686100	0.068000
C361	C36	0.065920	0.595200	0.069000
C371	C37	0.028970	0.557740	0.095600
C381	C38	0.996400	0.611150	0.121070
C391	C39	0.000780	0.702040	0.120000
C401	C40	0.037730	0.739510	0.093500
C411	C41	0.958030	0.574020	0.146670
C421	C42	0.917570	0.609480	0.154700
N71	N7	0.890490	0.539200	0.175300
N81	N8	0.914220	0.460330	0.180100
N91	N9	0.955970	0.481840	0.162400
C431	C43	0.849950	0.538700	0.185600
C441	C44	0.824680	0.475000	0.135800
C451	C45	0.781960	0.474200	0.145700
C461	C46	0.764510	0.537200	0.205400
C471	C47	0.789780	0.600900	0.255200
C481	C48	0.832500	0.601700	0.245300
C491	C49	0.109500	0.725400	0.035500
C501	C50	0.754000	0.407200	0.091800
C511	C51	0.770900	0.667200	0.322800
La41	La4	0.688120	0.293520	0.971390
O191	O19	0.636270	0.173200	0.002800
O201	O20	0.615600	0.307200	0.041700
O211	O21	0.269690	0.840100	0.053400
O221	O22	0.215540	0.920800	0.082800
O231	O23	0.293880	0.229900	0.355500
O241	O24	0.234260	0.154800	0.341500
C521	C52	0.570310	0.186100	0.068000
C531	C53	0.565920	0.095200	0.069000
C541	C54	0.528970	0.057740	0.095600
C551	C55	0.496400	0.111150	0.121070
C561	C56	0.500780	0.202040	0.120000
C571	C57	0.537730	0.239510	0.093500
C581	C58	0.458030	0.074020	0.146670
C591	C59	0.417570	0.109480	0.154700
N101	N10	0.390490	0.039200	0.175300
N111	N11	0.414220	0.960330	0.180100
N121	N12	0.455970	0.981840	0.162400
C601	C60	0.349950	0.038700	0.185600
C611	C61	0.324680	0.975000	0.135800
C621	C62	0.281960	0.974200	0.145700
C631	C63	0.264510	0.037200	0.205400
C641	C64	0.289780	0.100900	0.255200
C651	C65	0.332500	0.101700	0.245300
C661	C66	0.609500	0.225400	0.035500
C671	C67	0.254000	0.907200	0.091800
C681	C68	0.270900	0.167200	0.322800
La51	La5	0.188120	0.206480	0.471390
O251	O25	0.136270	0.326800	0.502800
O261	O26	0.115600	0.192800	0.541700
O271	O27	0.769690	0.659900	0.553400
O281	O28	0.715540	0.579200	0.582800
O291	O29	0.793880	0.270100	0.855500
O301	O30	0.734260	0.345200	0.841500
C691	C69	0.070310	0.313900	0.568000
C701	C70	0.065920	0.404800	0.569000
C711	C71	0.028970	0.442260	0.595600
C721	C72	0.996400	0.388850	0.621070
C731	C73	0.000780	0.297960	0.620000
C741	C74	0.037730	0.260490	0.593500
C751	C75	0.958030	0.425980	0.646670
C761	C76	0.917570	0.390520	0.654700
N131	N13	0.890490	0.460800	0.675300
N141	N14	0.914220	0.539670	0.680100
N151	N15	0.955970	0.518160	0.662400
C771	C77	0.849950	0.461300	0.685600
C781	C78	0.824680	0.525000	0.635800
C791	C79	0.781960	0.525800	0.645700
C801	C80	0.764510	0.462800	0.705400
C811	C81	0.789780	0.399100	0.755200
C821	C82	0.832500	0.398300	0.745300
C831	C83	0.109500	0.274600	0.535500
C841	C84	0.754000	0.592800	0.591800
C851	C85	0.770900	0.332800	0.822800
La61	La6	0.688120	0.706480	0.471390
O311	O31	0.636270	0.826800	0.502800
O321	O32	0.615600	0.692800	0.541700
O331	O33	0.269690	0.159900	0.553400
O341	O34	0.215540	0.079200	0.582800
O351	O35	0.293880	0.770100	0.855500
O361	O36	0.234260	0.845200	0.841500
C861	C86	0.570310	0.813900	0.568000
C871	C87	0.565920	0.904800	0.569000
C881	C88	0.528970	0.942260	0.595600
C891	C89	0.496400	0.888850	0.621070
C901	C90	0.500780	0.797960	0.620000
C911	C91	0.537730	0.760490	0.593500
C921	C92	0.458030	0.925980	0.646670
C931	C93	0.417570	0.890520	0.654700
N161	N16	0.390490	0.960800	0.675300
N171	N17	0.414220	0.039670	0.680100
N181	N18	0.455970	0.018160	0.662400
C941	C94	0.349950	0.961300	0.685600
C951	C95	0.324680	0.025000	0.635800
C961	C96	0.281960	0.025800	0.645700
C971	C97	0.264510	0.962800	0.705400
C981	C98	0.289780	0.899100	0.755200
C991	C99	0.332500	0.898300	0.745300
C1001	C100	0.609500	0.774600	0.535500
C1011	C101	0.254000	0.092800	0.591800
C1021	C102	0.270900	0.832800	0.822800
La71	La7	0.811880	0.206480	0.028610
O371	O37	0.863730	0.326800	0.997200
O381	O38	0.884400	0.192800	0.958300
O391	O39	0.230310	0.659900	0.946600
O401	O40	0.284460	0.579200	0.917200
O411	O41	0.206120	0.270100	0.644500
O421	O42	0.265740	0.345200	0.658500
C1031	C103	0.929690	0.313900	0.932000
C1041	C104	0.934080	0.404800	0.931000
C1051	C105	0.971030	0.442260	0.904400
C1061	C106	0.003600	0.388850	0.878930
C1071	C107	0.999220	0.297960	0.880000
C1081	C108	0.962270	0.260490	0.906500
C1091	C109	0.041970	0.425980	0.853330
C1101	C110	0.082430	0.390520	0.845300
N191	N19	0.109510	0.460800	0.824700
N201	N20	0.085780	0.539670	0.819900
N211	N21	0.044030	0.518160	0.837600
C1111	C111	0.150050	0.461300	0.814400
C1121	C112	0.175320	0.525000	0.864200
C1131	C113	0.218040	0.525800	0.854300
C1141	C114	0.235490	0.462800	0.794600
C1151	C115	0.210220	0.399100	0.744800
C1161	C116	0.167500	0.398300	0.754700
C1171	C117	0.890500	0.274600	0.964500
C1181	C118	0.246000	0.592800	0.908200
C1191	C119	0.229100	0.332800	0.677200
La81	La8	0.311880	0.706480	0.028610
O431	O43	0.363730	0.826800	0.997200
O441	O44	0.384400	0.692800	0.958300
O451	O45	0.730310	0.159900	0.946600
O461	O46	0.784460	0.079200	0.917200
O471	O47	0.706120	0.770100	0.644500
O481	O48	0.765740	0.845200	0.658500
C1201	C120	0.429690	0.813900	0.932000
C1211	C121	0.434080	0.904800	0.931000
C1221	C122	0.471030	0.942260	0.904400
C1231	C123	0.503600	0.888850	0.878930
C1241	C124	0.499220	0.797960	0.880000
C1251	C125	0.462270	0.760490	0.906500
C1261	C126	0.541970	0.925980	0.853330
C1271	C127	0.582430	0.890520	0.845300
N221	N22	0.609510	0.960800	0.824700
N231	N23	0.585780	0.039670	0.819900
N241	N24	0.544030	0.018160	0.837600
C1281	C128	0.650050	0.961300	0.814400
C1291	C129	0.675320	0.025000	0.864200
C1301	C130	0.718040	0.025800	0.854300
C1311	C131	0.735490	0.962800	0.794600
C1321	C132	0.710220	0.899100	0.744800
C1331	C133	0.667500	0.898300	0.754700
C1341	C134	0.390500	0.774600	0.964500
C1351	C135	0.746000	0.092800	0.908200
C1361	C136	0.729100	0.832800	0.677200
