data_CUVGOQ_clean_PM
_symmetry_space_group_name_H-M	'P1'
_cell_length_a	5.615300
_cell_length_b	9.333600
_cell_length_c	13.339800
_cell_angle_alpha	106.030000
_cell_angle_beta	93.611000
_cell_angle_gamma	102.050000
_symmetry_Int_Tables_number 1

loop_
_symmetry_equiv_pos_as_xyz
'x,y,z'

loop_
_atom_site_label
_atom_site_type_symbol
_atom_site_fract_x
_atom_site_fract_y
_atom_site_fract_z
Mn11	Mn1	0.000000	0.000000	0.000000
H11	H1	0.699000	0.432000	0.514000
H21	H2	0.594000	0.393700	0.929600
H31	H3	0.239700	0.350900	0.049700
H41	H4	0.575600	0.918900	0.799900
H51	H5	0.425900	0.746900	0.638300
H61	H6	0.002000	0.562400	0.660900
H71	H7	0.140800	0.744600	0.818700
H81	H8	0.301000	0.568000	0.486000
H91	H9	0.406000	0.606300	0.070400
H101	H10	0.760300	0.649100	0.950300
H111	H11	0.424400	0.081100	0.200100
H121	H12	0.574100	0.253100	0.361700
H131	H13	0.998000	0.437600	0.339100
H141	H14	0.859200	0.255400	0.181300
C11	C1	0.560600	0.142300	0.962300
C21	C2	0.897100	0.343300	0.987600
C31	C3	0.757600	0.436000	0.958100
C41	C4	0.142400	0.410200	0.029600
C51	C5	0.662400	0.845800	0.771600
C61	C6	0.569200	0.741600	0.674500
C71	C7	0.691600	0.628300	0.631200
C81	C8	0.601500	0.507300	0.531100
C91	C9	0.910400	0.633300	0.687600
C101	C10	0.992200	0.743200	0.783000
C111	C11	0.439400	0.857700	0.037700
C121	C12	0.102900	0.656700	0.012400
C131	C13	0.242400	0.564000	0.041900
C141	C14	0.857600	0.589800	0.970400
C151	C15	0.337600	0.154200	0.228400
C161	C16	0.430800	0.258400	0.325500
C171	C17	0.308400	0.371700	0.368800
C181	C18	0.398500	0.492700	0.468900
C191	C19	0.089600	0.366700	0.312400
C201	C20	0.007800	0.256800	0.217000
N11	N1	0.344900	0.096300	0.949000
N21	N2	0.798900	0.185100	0.976200
N31	N3	0.870300	0.848000	0.827500
N41	N4	0.655100	0.903700	0.051000
N51	N5	0.201100	0.814900	0.023800
N61	N6	0.129700	0.152000	0.172500
