data_CUVHIL02_clean_h_PM
_symmetry_space_group_name_H-M	'P1'
_cell_length_a	11.686800
_cell_length_b	21.391200
_cell_length_c	21.391200
_cell_angle_alpha	63.240100
_cell_angle_beta	79.507200
_cell_angle_gamma	100.493000
_symmetry_Int_Tables_number 1

loop_
_symmetry_equiv_pos_as_xyz
'x,y,z'

loop_
_atom_site_label
_atom_site_type_symbol
_atom_site_fract_x
_atom_site_fract_y
_atom_site_fract_z
Nd11	Nd1	0.475420	0.529650	0.079990
Nd21	Nd2	0.555410	0.079990	0.390360
Nd31	Nd3	0.945770	0.390360	0.529650
Nd41	Nd4	0.524580	0.470350	0.920010
Nd51	Nd5	0.444590	0.920010	0.609640
Nd61	Nd6	0.054230	0.609640	0.470350
C11	C1	0.370700	0.125000	0.321900
C21	C2	0.299900	0.164900	0.272100
C31	C3	0.362800	0.231300	0.208900
C41	C4	0.301100	0.276100	0.165800
C51	C5	0.373700	0.353700	0.103300
C61	C6	0.174600	0.251400	0.187300
C71	C7	0.105200	0.183400	0.252200
C81	C8	0.172100	0.143000	0.292800
C91	C9	0.305200	0.510600	0.962600
C101	C10	0.692600	0.321900	0.553100
C111	C11	0.572000	0.272100	0.563000
C121	C12	0.571700	0.208900	0.559800
C131	C13	0.466900	0.165800	0.558100
C141	C14	0.477000	0.103300	0.543000
C151	C15	0.361900	0.187300	0.561300
C161	C16	0.357400	0.252200	0.564400
C171	C17	0.464900	0.292800	0.564200
C181	C18	0.267800	0.962600	0.526800
C191	C19	0.245700	0.553100	0.125000
C201	C20	0.135000	0.563000	0.164900
C211	C21	0.131500	0.559800	0.231300
C221	C22	0.025000	0.558100	0.276100
C231	C23	0.020000	0.543000	0.353700
C241	C24	0.923200	0.561300	0.251400
C251	C25	0.921800	0.564400	0.183400
C261	C26	0.029100	0.564200	0.143000
C271	C27	0.794600	0.526800	0.510600
C281	C28	0.629300	0.875000	0.678100
C291	C29	0.700100	0.835100	0.727900
C301	C30	0.637200	0.768700	0.791100
C311	C31	0.698900	0.723900	0.834200
C321	C32	0.626300	0.646300	0.896700
C331	C33	0.825400	0.748600	0.812700
C341	C34	0.894800	0.816600	0.747800
C351	C35	0.827900	0.857000	0.707200
C361	C36	0.694800	0.489400	0.037400
C371	C37	0.307400	0.678100	0.446900
C381	C38	0.428000	0.727900	0.437000
C391	C39	0.428300	0.791100	0.440200
C401	C40	0.533100	0.834200	0.441900
C411	C41	0.523000	0.896700	0.457000
C421	C42	0.638100	0.812700	0.438700
C431	C43	0.642600	0.747800	0.435600
C441	C44	0.535100	0.707200	0.435800
C451	C45	0.732200	0.037400	0.473200
C461	C46	0.754300	0.446900	0.875000
C471	C47	0.865000	0.437000	0.835100
C481	C48	0.868500	0.440200	0.768700
C491	C49	0.975000	0.441900	0.723900
C501	C50	0.980000	0.457000	0.646300
C511	C51	0.076800	0.438700	0.748600
C521	C52	0.078200	0.435600	0.816600
C531	C53	0.970900	0.435800	0.857000
C541	C54	0.205400	0.473200	0.489400
I11	I1	0.554410	0.265050	0.169810
I21	I2	0.084190	0.315690	0.119740
I31	I3	0.076070	0.044840	0.391800
I41	I4	0.724220	0.169810	0.565140
I51	I5	0.203930	0.119740	0.564570
I61	I6	0.467870	0.391800	0.563360
I71	I7	0.289360	0.565140	0.265050
I81	I8	0.768500	0.564570	0.315690
I91	I9	0.031230	0.563360	0.044840
I101	I10	0.445590	0.734950	0.830190
I111	I11	0.915810	0.684310	0.880260
I121	I12	0.923930	0.955160	0.608200
I131	I13	0.275780	0.830190	0.434860
I141	I14	0.796070	0.880260	0.435430
I151	I15	0.532130	0.608200	0.436640
I161	I16	0.710640	0.434860	0.734950
I171	I17	0.231500	0.435430	0.684310
I181	I18	0.968770	0.436640	0.955160
N11	N1	0.979200	0.162100	0.272900
N21	N2	0.252100	0.272900	0.565000
N31	N3	0.817100	0.565000	0.162100
N41	N4	0.020800	0.837900	0.727100
N51	N5	0.747900	0.727100	0.435000
N61	N6	0.182900	0.435000	0.837900
O11	O1	0.402430	0.146930	0.361440
O21	O2	0.402320	0.073340	0.316080
O31	O3	0.395450	0.398580	0.124930
O41	O4	0.402120	0.363990	0.039430
O51	O5	0.313000	0.488300	0.917800
O61	O6	0.385080	0.515540	0.991300
O71	O7	0.763870	0.361440	0.491630
O81	O8	0.718400	0.316080	0.610580
O91	O9	0.520380	0.124930	0.476490
O101	O10	0.441550	0.039430	0.596580
O111	O11	0.230800	0.917800	0.593900
O121	O12	0.376380	0.991300	0.493160
O131	O13	0.255500	0.491630	0.146930
O141	O14	0.328980	0.610580	0.073340
O151	O15	0.996870	0.476490	0.398580
O161	O16	0.038130	0.596580	0.363990
O171	O17	0.824700	0.593900	0.488300
O181	O18	0.869540	0.493160	0.515540
O191	O19	0.597570	0.853070	0.638560
O201	O20	0.597680	0.926660	0.683920
O211	O21	0.604550	0.601420	0.875070
O221	O22	0.597880	0.636010	0.960570
O231	O23	0.687000	0.511700	0.082200
O241	O24	0.614920	0.484460	0.008700
O251	O25	0.236130	0.638560	0.508370
O261	O26	0.281600	0.683920	0.389420
O271	O27	0.479620	0.875070	0.523510
O281	O28	0.558450	0.960570	0.403420
O291	O29	0.769200	0.082200	0.406100
O301	O30	0.623620	0.008700	0.506840
O311	O31	0.744500	0.508370	0.853070
O321	O32	0.671020	0.389420	0.926660
O331	O33	0.003130	0.523510	0.601420
O341	O34	0.961870	0.403420	0.636010
O351	O35	0.175300	0.406100	0.511700
O361	O36	0.130460	0.506840	0.484460
H11	H1	0.928660	0.117970	0.265450
H21	H2	0.928500	0.189120	0.296980
H31	H3	0.173270	0.242250	0.557530
H41	H4	0.246320	0.320180	0.572950
H51	H5	0.790950	0.533120	0.135170
H61	H6	0.759130	0.597360	0.171910
H71	H7	0.071500	0.810880	0.703020
H81	H8	0.071340	0.882030	0.734550
H91	H9	0.753680	0.679820	0.427050
H101	H10	0.826730	0.757750	0.442470
H111	H11	0.240870	0.402640	0.828090
H121	H12	0.209050	0.466880	0.864830
