data_CUVHIL01_clean_PM
_symmetry_space_group_name_H-M	'P1'
_cell_length_a	11.663500
_cell_length_b	21.380700
_cell_length_c	21.380700
_cell_angle_alpha	63.230500
_cell_angle_beta	79.523200
_cell_angle_gamma	100.477000
_symmetry_Int_Tables_number 1

loop_
_symmetry_equiv_pos_as_xyz
'x,y,z'

loop_
_atom_site_label
_atom_site_type_symbol
_atom_site_fract_x
_atom_site_fract_y
_atom_site_fract_z
Nd11	Nd1	0.444740	0.390540	0.079670
Nd21	Nd2	0.524410	0.079670	0.529790
Nd31	Nd3	0.054200	0.529790	0.390540
Nd41	Nd4	0.555270	0.609470	0.920320
Nd51	Nd5	0.475590	0.920330	0.470210
Nd61	Nd6	0.945800	0.470210	0.609470
H11	H1	0.790000	0.502000	0.988000
H21	H2	0.778000	0.988000	0.510000
H31	H3	0.288000	0.510000	0.502000
H41	H4	0.210000	0.498000	0.012000
H51	H5	0.222000	0.012000	0.490000
H61	H6	0.712000	0.490000	0.498000
C11	C1	0.476600	0.458100	0.895800
C21	C2	0.467700	0.443700	0.832800
C31	C3	0.572000	0.441700	0.790900
C41	C4	0.570800	0.439500	0.726900
C51	C5	0.694300	0.446500	0.678700
C61	C6	0.466900	0.438100	0.706300
C71	C7	0.356600	0.437500	0.748300
C81	C8	0.363900	0.440200	0.811600
C91	C9	0.732500	0.525900	0.962100
C101	C10	0.372400	0.895800	0.646100
C111	C11	0.300500	0.832800	0.723500
C121	C12	0.362900	0.790900	0.767400
C131	C13	0.297700	0.726900	0.833600
C141	C14	0.373000	0.678700	0.874800
C151	C15	0.173200	0.706300	0.855600
C161	C16	0.104900	0.748300	0.814200
C171	C17	0.175500	0.811600	0.748200
C181	C18	0.694600	0.962100	0.512000
C191	C19	0.018500	0.646100	0.458100
C201	C20	0.024000	0.723500	0.443700
C211	C21	0.130300	0.767400	0.441700
C221	C22	0.131300	0.833600	0.439500
C231	C23	0.247800	0.874800	0.446500
C241	C24	0.028800	0.855600	0.438100
C251	C25	0.919100	0.814200	0.437500
C261	C26	0.923700	0.748200	0.440200
C271	C27	0.206600	0.512000	0.525900
C281	C28	0.523400	0.541900	0.104200
C291	C29	0.532300	0.556300	0.167200
C301	C30	0.428000	0.558300	0.209100
C311	C31	0.429200	0.560500	0.273100
C321	C32	0.305700	0.553500	0.321300
C331	C33	0.533100	0.561900	0.293700
C341	C34	0.643400	0.562500	0.251700
C351	C35	0.636100	0.559800	0.188400
C361	C36	0.267500	0.474100	0.037900
C371	C37	0.627600	0.104200	0.353900
C381	C38	0.699500	0.167200	0.276500
C391	C39	0.637100	0.209100	0.232600
C401	C40	0.702300	0.273100	0.166400
C411	C41	0.627000	0.321300	0.125200
C421	C42	0.826800	0.293700	0.144400
C431	C43	0.895100	0.251700	0.185800
C441	C44	0.824500	0.188400	0.251800
C451	C45	0.305400	0.037900	0.488000
C461	C46	0.981500	0.353900	0.541900
C471	C47	0.976000	0.276500	0.556300
C481	C48	0.869700	0.232600	0.558300
C491	C49	0.868700	0.166400	0.560500
C501	C50	0.752200	0.125200	0.553500
C511	C51	0.971200	0.144400	0.561900
C521	C52	0.080900	0.185800	0.562500
C531	C53	0.076300	0.251800	0.559800
C541	C54	0.793400	0.488000	0.474100
I11	I1	0.724480	0.434760	0.830100
I21	I2	0.468230	0.437640	0.608230
I31	I3	0.205690	0.437890	0.879220
I41	I4	0.554580	0.830100	0.735140
I51	I5	0.076460	0.608230	0.954130
I61	I6	0.084910	0.879220	0.682890
I71	I7	0.289720	0.735140	0.434760
I81	I8	0.030590	0.954130	0.437640
I91	I9	0.767800	0.682890	0.437890
I101	I10	0.275520	0.565240	0.169900
I111	I11	0.531770	0.562360	0.391770
I121	I12	0.794310	0.562110	0.120780
I131	I13	0.445420	0.169900	0.264860
I141	I14	0.923540	0.391770	0.045870
I151	I15	0.915090	0.120780	0.317110
I161	I16	0.710280	0.264860	0.565240
I171	I17	0.969410	0.045870	0.562360
I181	I18	0.232200	0.317110	0.562110
N11	N1	0.253900	0.435800	0.727100
N21	N2	0.981000	0.727100	0.837100
N31	N3	0.818100	0.837100	0.435800
N41	N4	0.746100	0.564200	0.272900
N51	N5	0.019000	0.272900	0.162900
N61	N6	0.181900	0.162900	0.564200
O11	O1	0.442210	0.403880	0.959750
O21	O2	0.521830	0.524670	0.874380
O31	O3	0.716500	0.390400	0.683500
O41	O4	0.764500	0.508300	0.638500
O51	O5	0.623000	0.491920	0.992620
O61	O6	0.769500	0.593700	0.918000
O71	O7	0.401960	0.959750	0.636370
O81	O8	0.396210	0.874380	0.600950
O91	O9	0.400000	0.683500	0.926100
O101	O10	0.403000	0.638500	0.853200
O111	O11	0.615620	0.992620	0.515460
O121	O12	0.687500	0.918000	0.488300
O131	O13	0.038330	0.636370	0.403880
O141	O14	0.997160	0.600950	0.524670
O151	O15	0.326100	0.926100	0.390400
O161	O16	0.256200	0.853200	0.508300
O171	O17	0.131080	0.515460	0.491920
O181	O18	0.175800	0.488300	0.593700
O191	O19	0.557790	0.596120	0.040250
O201	O20	0.478170	0.475330	0.125620
O211	O21	0.283500	0.609600	0.316500
O221	O22	0.235500	0.491700	0.361500
O231	O23	0.377000	0.508080	0.007380
O241	O24	0.230500	0.406300	0.082000
O251	O25	0.598040	0.040250	0.363630
O261	O26	0.603790	0.125620	0.399050
O271	O27	0.600000	0.316500	0.073900
O281	O28	0.597000	0.361500	0.146800
O291	O29	0.384380	0.007380	0.484540
O301	O30	0.312500	0.082000	0.511700
O311	O31	0.961670	0.363630	0.596120
O321	O32	0.002840	0.399050	0.475330
O331	O33	0.673900	0.073900	0.609600
O341	O34	0.743800	0.146800	0.491700
O351	O35	0.868920	0.484540	0.508080
O361	O36	0.824200	0.511700	0.406300
