data_CUVHIL_clean_h_PM
_symmetry_space_group_name_H-M	'P1'
_cell_length_a	11.694100
_cell_length_b	21.376800
_cell_length_c	21.376800
_cell_angle_alpha	63.248400
_cell_angle_beta	79.493400
_cell_angle_gamma	100.507000
_symmetry_Int_Tables_number 1

loop_
_symmetry_equiv_pos_as_xyz
'x,y,z'

loop_
_atom_site_label
_atom_site_type_symbol
_atom_site_fract_x
_atom_site_fract_y
_atom_site_fract_z
Nd11	Nd1	0.555100	0.079490	0.390630
Nd21	Nd2	0.945730	0.390630	0.529880
Nd31	Nd3	0.475610	0.529880	0.079490
Nd41	Nd4	0.444900	0.920510	0.609370
Nd51	Nd5	0.054270	0.609370	0.470120
Nd61	Nd6	0.524390	0.470120	0.920510
C11	C1	0.521170	0.896340	0.457830
C21	C2	0.530980	0.833050	0.443710
C31	C3	0.427610	0.791220	0.441390
C41	C4	0.426900	0.727100	0.440000
C51	C5	0.306700	0.678400	0.447100
C61	C6	0.533410	0.706320	0.438990
C71	C7	0.642250	0.747500	0.438950
C81	C8	0.636950	0.812000	0.440450
C91	C9	0.268300	0.962900	0.527300
C101	C10	0.979000	0.457830	0.645830
C111	C11	0.974690	0.443710	0.723240
C121	C12	0.869000	0.441390	0.767390
C131	C13	0.866900	0.440000	0.832900
C141	C14	0.753800	0.447100	0.874500
C151	C15	0.972400	0.438990	0.854690
C161	C16	0.081200	0.438950	0.813550
C171	C17	0.077400	0.440450	0.747550
C181	C18	0.795600	0.527300	0.509800
C191	C19	0.624830	0.645830	0.896340
C201	C20	0.697930	0.723240	0.833050
C211	C21	0.636390	0.767390	0.791220
C221	C22	0.699800	0.832900	0.727100
C231	C23	0.628300	0.874500	0.678400
C241	C24	0.827090	0.854690	0.706320
C251	C25	0.894750	0.813550	0.747500
C261	C26	0.824950	0.747550	0.812000
C271	C27	0.305400	0.509800	0.962900
C281	C28	0.478830	0.103660	0.542170
C291	C29	0.469020	0.166950	0.556290
C301	C30	0.572390	0.208780	0.558610
C311	C31	0.573100	0.272900	0.560000
C321	C32	0.693300	0.321600	0.552900
C331	C33	0.466590	0.293680	0.561010
C341	C34	0.357750	0.252500	0.561050
C351	C35	0.363050	0.188000	0.559550
C361	C36	0.731700	0.037100	0.472700
C371	C37	0.021000	0.542170	0.354170
C381	C38	0.025310	0.556290	0.276760
C391	C39	0.131000	0.558610	0.232610
C401	C40	0.133100	0.560000	0.167100
C411	C41	0.246200	0.552900	0.125500
C421	C42	0.027600	0.561010	0.145310
C431	C43	0.918800	0.561050	0.186450
C441	C44	0.922600	0.559550	0.252450
C451	C45	0.204400	0.472700	0.490200
C461	C46	0.375170	0.354170	0.103660
C471	C47	0.302070	0.276760	0.166950
C481	C48	0.363610	0.232610	0.208780
C491	C49	0.300200	0.167100	0.272900
C501	C50	0.371700	0.125500	0.321600
C511	C51	0.172910	0.145310	0.293680
C521	C52	0.105250	0.186450	0.252500
C531	C53	0.175050	0.252450	0.188000
C541	C54	0.694600	0.490200	0.037100
I11	I1	0.274310	0.829600	0.435490
I21	I2	0.531700	0.608260	0.438940
I31	I3	0.793680	0.878900	0.438950
I41	I4	0.709800	0.435490	0.734910
I51	I5	0.970640	0.438940	0.952800
I61	I6	0.232630	0.438950	0.682150
I71	I7	0.444710	0.734910	0.829600
I81	I8	0.923440	0.952800	0.608260
I91	I9	0.914780	0.682150	0.878900
I101	I10	0.725690	0.170400	0.564510
I111	I11	0.468300	0.391740	0.561060
I121	I12	0.206320	0.121100	0.561050
I131	I13	0.290200	0.564510	0.265090
I141	I14	0.029360	0.561060	0.047200
I151	I15	0.767370	0.561050	0.317850
I161	I16	0.555290	0.265090	0.170400
I171	I17	0.076560	0.047200	0.391740
I181	I18	0.085220	0.317850	0.121100
N11	N1	0.744760	0.726520	0.438040
N21	N2	0.182800	0.438040	0.835440
N31	N3	0.018240	0.835440	0.726520
N41	N4	0.255240	0.273480	0.561960
N51	N5	0.817200	0.561960	0.164560
N61	N6	0.981760	0.164560	0.273480
O11	O1	0.556940	0.959730	0.404610
O21	O2	0.476370	0.874630	0.524320
O31	O3	0.234660	0.638070	0.509490
O41	O4	0.282200	0.683470	0.390970
O51	O5	0.377820	0.992770	0.492310
O61	O6	0.230700	0.917700	0.593400
O71	O7	0.961550	0.404610	0.635660
O81	O8	0.000690	0.524320	0.601050
O91	O9	0.744150	0.509490	0.852440
O101	O10	0.673170	0.390970	0.925560
O111	O11	0.870130	0.492310	0.514920
O121	O12	0.824100	0.593400	0.488900
O131	O13	0.597210	0.635660	0.959730
O141	O14	0.601740	0.601050	0.874630
O151	O15	0.596590	0.852440	0.638070
O161	O16	0.598730	0.925560	0.683470
O171	O17	0.385050	0.514920	0.992770
O181	O18	0.313000	0.488900	0.917700
O191	O19	0.443060	0.040270	0.595390
O201	O20	0.523630	0.125370	0.475680
O211	O21	0.765340	0.361930	0.490510
O221	O22	0.717800	0.316530	0.609030
O231	O23	0.622180	0.007230	0.507690
O241	O24	0.769300	0.082300	0.406600
O251	O25	0.038450	0.595390	0.364340
O261	O26	0.999310	0.475680	0.398950
O271	O27	0.255850	0.490510	0.147560
O281	O28	0.326830	0.609030	0.074440
O291	O29	0.129870	0.507690	0.485080
O301	O30	0.175900	0.406600	0.511100
O311	O31	0.402790	0.364340	0.040270
O321	O32	0.398260	0.398950	0.125370
O331	O33	0.403410	0.147560	0.361930
O341	O34	0.401270	0.074440	0.316530
O351	O35	0.614950	0.485080	0.007230
O361	O36	0.687000	0.511100	0.082300
H11	H1	0.175480	0.243090	0.554950
H21	H2	0.250980	0.321070	0.569720
H31	H3	0.749020	0.678930	0.430280
H41	H4	0.824520	0.756910	0.445050
H51	H5	0.241190	0.405750	0.825890
H61	H6	0.207690	0.469580	0.862930
H71	H7	0.069570	0.808930	0.702020
H81	H8	0.068130	0.879890	0.733820
H91	H9	0.792310	0.530420	0.137070
H101	H10	0.758810	0.594250	0.174110
H111	H11	0.931870	0.120110	0.266180
H121	H12	0.930430	0.191070	0.297980
