data_CUWNIT_clean_PM
_symmetry_space_group_name_H-M	'P1'
_cell_length_a	28.834000
_cell_length_b	16.381000
_cell_length_c	23.199000
_cell_angle_alpha	90.000000
_cell_angle_beta	92.893000
_cell_angle_gamma	90.000000
_symmetry_Int_Tables_number 1

loop_
_symmetry_equiv_pos_as_xyz
'x,y,z'

loop_
_atom_site_label
_atom_site_type_symbol
_atom_site_fract_x
_atom_site_fract_y
_atom_site_fract_z
Co11	Co1	0.798060	0.718630	0.035160
Co21	Co2	0.795110	0.606350	0.156660
Co31	Co3	0.708840	0.755470	0.129810
O11	O1	0.835540	0.613500	0.025500
O21	O2	0.814820	0.525970	0.094620
O31	O3	0.953390	0.302300	0.961410
O41	O4	0.166220	0.238880	0.037740
O51	O5	0.140360	0.285900	0.119150
O61	O6	0.837780	0.784280	0.093160
O71	O7	0.852300	0.683660	0.156870
O81	O8	0.755950	0.822990	0.023970
O91	O9	0.732080	0.872130	0.106980
O101	O10	0.810550	0.183400	0.973650
O111	O11	0.727080	0.222100	0.713800
O121	O12	0.772260	0.332100	0.726450
O131	O13	0.755270	0.676010	0.098840
H11	H1	0.737300	0.642100	0.081300
C11	C1	0.835980	0.544600	0.050090
C21	C2	0.865260	0.479200	0.024740
C31	C3	0.860210	0.398300	0.039740
H21	H2	0.836700	0.383100	0.064900
C41	C4	0.889250	0.338700	0.018500
H31	H3	0.885500	0.283000	0.028600
C51	C5	0.923510	0.361700	0.982600
C61	C6	0.928780	0.441800	0.965900
H41	H4	0.952200	0.456700	0.940500
C71	C7	0.899120	0.500600	0.987000
H51	H5	0.902100	0.555900	0.975500
C81	C8	0.133060	0.266200	0.066660
C91	C9	0.085420	0.274000	0.040600
C101	C10	0.050300	0.311500	0.071000
H61	H6	0.056900	0.329800	0.109400
C111	C11	0.006080	0.322000	0.045600
H71	H7	0.982600	0.348100	0.066200
C121	C12	0.996350	0.294300	0.990000
C131	C13	0.030520	0.254800	0.959900
H81	H8	0.023500	0.234100	0.922200
C141	C14	0.074670	0.245700	0.985100
H91	H9	0.098000	0.219800	0.964200
C151	C15	0.858210	0.753700	0.136980
C161	C16	0.894670	0.805900	0.168000
C171	C17	0.910430	0.877700	0.143790
H101	H10	0.897000	0.895500	0.107700
C181	C18	0.945130	0.923500	0.171100
H111	H11	0.955900	0.972000	0.153800
C191	C19	0.964060	0.897600	0.224100
C201	C20	0.947510	0.828600	0.250400
H121	H12	0.959800	0.812600	0.287500
C211	C21	0.912690	0.782500	0.222100
H131	H13	0.901200	0.734900	0.239900
C221	C22	0.750970	0.881000	0.059630
C231	C23	0.768550	0.962200	0.041500
C241	C24	0.749130	0.034700	0.059970
H141	H14	0.726400	0.033600	0.088200
C251	C25	0.762780	0.108800	0.037300
H151	H15	0.749400	0.158500	0.049500
C261	C26	0.796420	0.108800	0.996590
C271	C27	0.817580	0.038000	0.979800
H161	H16	0.841600	0.039800	0.953300
C281	C28	0.803530	0.963900	0.001860
H171	H17	0.817600	0.914500	0.990100
C291	C29	0.754310	0.267800	0.743590
C301	C30	0.767580	0.243600	0.804840
C311	C31	0.746110	0.179600	0.831990
H181	H18	0.721600	0.151000	0.812000
C321	C32	0.759810	0.156400	0.887910
H191	H19	0.745100	0.111900	0.905900
C331	C33	0.795170	0.199200	0.916900
C341	C34	0.817320	0.263700	0.890700
H201	H20	0.841800	0.292200	0.910900
C351	C35	0.803350	0.285900	0.834820
H211	H21	0.818200	0.330200	0.816800
Co41	Co4	0.298060	0.218630	0.035160
Co51	Co5	0.295110	0.106350	0.156660
Co61	Co6	0.208840	0.255470	0.129810
O141	O14	0.335540	0.113500	0.025500
O151	O15	0.314820	0.025970	0.094620
O161	O16	0.453390	0.802300	0.961410
O171	O17	0.666220	0.738880	0.037740
O181	O18	0.640360	0.785900	0.119150
O191	O19	0.337780	0.284280	0.093160
O201	O20	0.352300	0.183660	0.156870
O211	O21	0.255950	0.322990	0.023970
O221	O22	0.232080	0.372130	0.106980
O231	O23	0.310550	0.683400	0.973650
O241	O24	0.227080	0.722100	0.713800
O251	O25	0.272260	0.832100	0.726450
O261	O26	0.255270	0.176010	0.098840
H221	H22	0.237300	0.142100	0.081300
C361	C36	0.335980	0.044600	0.050090
C371	C37	0.365260	0.979200	0.024740
C381	C38	0.360210	0.898300	0.039740
H231	H23	0.336700	0.883100	0.064900
C391	C39	0.389250	0.838700	0.018500
H241	H24	0.385500	0.783000	0.028600
C401	C40	0.423510	0.861700	0.982600
C411	C41	0.428780	0.941800	0.965900
H251	H25	0.452200	0.956700	0.940500
C421	C42	0.399120	0.000600	0.987000
H261	H26	0.402100	0.055900	0.975500
C431	C43	0.633060	0.766200	0.066660
C441	C44	0.585420	0.774000	0.040600
C451	C45	0.550300	0.811500	0.071000
H271	H27	0.556900	0.829800	0.109400
C461	C46	0.506080	0.822000	0.045600
H281	H28	0.482600	0.848100	0.066200
C471	C47	0.496350	0.794300	0.990000
C481	C48	0.530520	0.754800	0.959900
H291	H29	0.523500	0.734100	0.922200
C491	C49	0.574670	0.745700	0.985100
H301	H30	0.598000	0.719800	0.964200
C501	C50	0.358210	0.253700	0.136980
C511	C51	0.394670	0.305900	0.168000
C521	C52	0.410430	0.377700	0.143790
H311	H31	0.397000	0.395500	0.107700
C531	C53	0.445130	0.423500	0.171100
H321	H32	0.455900	0.472000	0.153800
C541	C54	0.464060	0.397600	0.224100
C551	C55	0.447510	0.328600	0.250400
H331	H33	0.459800	0.312600	0.287500
C561	C56	0.412690	0.282500	0.222100
H341	H34	0.401200	0.234900	0.239900
C571	C57	0.250970	0.381000	0.059630
C581	C58	0.268550	0.462200	0.041500
C591	C59	0.249130	0.534700	0.059970
H351	H35	0.226400	0.533600	0.088200
C601	C60	0.262780	0.608800	0.037300
H361	H36	0.249400	0.658500	0.049500
C611	C61	0.296420	0.608800	0.996590
C621	C62	0.317580	0.538000	0.979800
H371	H37	0.341600	0.539800	0.953300
C631	C63	0.303530	0.463900	0.001860
H381	H38	0.317600	0.414500	0.990100
C641	C64	0.254310	0.767800	0.743590
C651	C65	0.267580	0.743600	0.804840
C661	C66	0.246110	0.679600	0.831990
H391	H39	0.221600	0.651000	0.812000
C671	C67	0.259810	0.656400	0.887910
H401	H40	0.245100	0.611900	0.905900
C681	C68	0.295170	0.699200	0.916900
C691	C69	0.317320	0.763700	0.890700
H411	H41	0.341800	0.792200	0.910900
C701	C70	0.303350	0.785900	0.834820
H421	H42	0.318200	0.830200	0.816800
Co71	Co7	0.201940	0.718630	0.464840
Co81	Co8	0.204890	0.606350	0.343340
Co91	Co9	0.291160	0.755470	0.370190
O271	O27	0.164460	0.613500	0.474500
O281	O28	0.185180	0.525970	0.405380
O291	O29	0.046610	0.302300	0.538590
O301	O30	0.833780	0.238880	0.462260
O311	O31	0.859640	0.285900	0.380850
O321	O32	0.162220	0.784280	0.406840
O331	O33	0.147700	0.683660	0.343130
O341	O34	0.244050	0.822990	0.476030
O351	O35	0.267920	0.872130	0.393020
O361	O36	0.189450	0.183400	0.526350
O371	O37	0.272920	0.222100	0.786200
O381	O38	0.227740	0.332100	0.773550
O391	O39	0.244730	0.676010	0.401160
H431	H43	0.262700	0.642100	0.418700
C711	C71	0.164020	0.544600	0.449910
C721	C72	0.134740	0.479200	0.475260
C731	C73	0.139790	0.398300	0.460260
H441	H44	0.163300	0.383100	0.435100
C741	C74	0.110750	0.338700	0.481500
H451	H45	0.114500	0.283000	0.471400
C751	C75	0.076490	0.361700	0.517400
C761	C76	0.071220	0.441800	0.534100
H461	H46	0.047800	0.456700	0.559500
C771	C77	0.100880	0.500600	0.513000
H471	H47	0.097900	0.555900	0.524500
C781	C78	0.866940	0.266200	0.433340
C791	C79	0.914580	0.274000	0.459400
C801	C80	0.949700	0.311500	0.429000
H481	H48	0.943100	0.329800	0.390600
C811	C81	0.993920	0.322000	0.454400
H491	H49	0.017400	0.348100	0.433800
C821	C82	0.003650	0.294300	0.510000
C831	C83	0.969480	0.254800	0.540100
H501	H50	0.976500	0.234100	0.577800
C841	C84	0.925330	0.245700	0.514900
H511	H51	0.902000	0.219800	0.535800
C851	C85	0.141790	0.753700	0.363020
C861	C86	0.105330	0.805900	0.332000
C871	C87	0.089570	0.877700	0.356210
H521	H52	0.103000	0.895500	0.392300
C881	C88	0.054870	0.923500	0.328900
H531	H53	0.044100	0.972000	0.346200
C891	C89	0.035940	0.897600	0.275900
C901	C90	0.052490	0.828600	0.249600
H541	H54	0.040200	0.812600	0.212500
C911	C91	0.087310	0.782500	0.277900
H551	H55	0.098800	0.734900	0.260100
C921	C92	0.249030	0.881000	0.440370
C931	C93	0.231450	0.962200	0.458500
C941	C94	0.250870	0.034700	0.440030
H561	H56	0.273600	0.033600	0.411800
C951	C95	0.237220	0.108800	0.462700
H571	H57	0.250600	0.158500	0.450500
C961	C96	0.203580	0.108800	0.503410
C971	C97	0.182420	0.038000	0.520200
H581	H58	0.158400	0.039800	0.546700
C981	C98	0.196470	0.963900	0.498140
H591	H59	0.182400	0.914500	0.509900
C991	C99	0.245690	0.267800	0.756410
C1001	C100	0.232420	0.243600	0.695160
C1011	C101	0.253890	0.179600	0.668010
H601	H60	0.278400	0.151000	0.688000
C1021	C102	0.240190	0.156400	0.612090
H611	H61	0.254900	0.111900	0.594100
C1031	C103	0.204830	0.199200	0.583100
C1041	C104	0.182680	0.263700	0.609300
H621	H62	0.158200	0.292200	0.589100
C1051	C105	0.196650	0.285900	0.665180
H631	H63	0.181800	0.330200	0.683200
Co101	Co10	0.701940	0.218630	0.464840
Co111	Co11	0.704890	0.106350	0.343340
Co121	Co12	0.791160	0.255470	0.370190
O401	O40	0.664460	0.113500	0.474500
O411	O41	0.685180	0.025970	0.405380
O421	O42	0.546610	0.802300	0.538590
O431	O43	0.333780	0.738880	0.462260
O441	O44	0.359640	0.785900	0.380850
O451	O45	0.662220	0.284280	0.406840
O461	O46	0.647700	0.183660	0.343130
O471	O47	0.744050	0.322990	0.476030
O481	O48	0.767920	0.372130	0.393020
O491	O49	0.689450	0.683400	0.526350
O501	O50	0.772920	0.722100	0.786200
O511	O51	0.727740	0.832100	0.773550
O521	O52	0.744730	0.176010	0.401160
H641	H64	0.762700	0.142100	0.418700
C1061	C106	0.664020	0.044600	0.449910
C1071	C107	0.634740	0.979200	0.475260
C1081	C108	0.639790	0.898300	0.460260
H651	H65	0.663300	0.883100	0.435100
C1091	C109	0.610750	0.838700	0.481500
H661	H66	0.614500	0.783000	0.471400
C1101	C110	0.576490	0.861700	0.517400
C1111	C111	0.571220	0.941800	0.534100
H671	H67	0.547800	0.956700	0.559500
C1121	C112	0.600880	0.000600	0.513000
H681	H68	0.597900	0.055900	0.524500
C1131	C113	0.366940	0.766200	0.433340
C1141	C114	0.414580	0.774000	0.459400
C1151	C115	0.449700	0.811500	0.429000
H691	H69	0.443100	0.829800	0.390600
C1161	C116	0.493920	0.822000	0.454400
H701	H70	0.517400	0.848100	0.433800
C1171	C117	0.503650	0.794300	0.510000
C1181	C118	0.469480	0.754800	0.540100
H711	H71	0.476500	0.734100	0.577800
C1191	C119	0.425330	0.745700	0.514900
H721	H72	0.402000	0.719800	0.535800
C1201	C120	0.641790	0.253700	0.363020
C1211	C121	0.605330	0.305900	0.332000
C1221	C122	0.589570	0.377700	0.356210
H731	H73	0.603000	0.395500	0.392300
C1231	C123	0.554870	0.423500	0.328900
H741	H74	0.544100	0.472000	0.346200
C1241	C124	0.535940	0.397600	0.275900
C1251	C125	0.552490	0.328600	0.249600
H751	H75	0.540200	0.312600	0.212500
C1261	C126	0.587310	0.282500	0.277900
H761	H76	0.598800	0.234900	0.260100
C1271	C127	0.749030	0.381000	0.440370
C1281	C128	0.731450	0.462200	0.458500
C1291	C129	0.750870	0.534700	0.440030
H771	H77	0.773600	0.533600	0.411800
C1301	C130	0.737220	0.608800	0.462700
H781	H78	0.750600	0.658500	0.450500
C1311	C131	0.703580	0.608800	0.503410
C1321	C132	0.682420	0.538000	0.520200
H791	H79	0.658400	0.539800	0.546700
C1331	C133	0.696470	0.463900	0.498140
H801	H80	0.682400	0.414500	0.509900
C1341	C134	0.745690	0.767800	0.756410
C1351	C135	0.732420	0.743600	0.695160
C1361	C136	0.753890	0.679600	0.668010
H811	H81	0.778400	0.651000	0.688000
C1371	C137	0.740190	0.656400	0.612090
H821	H82	0.754900	0.611900	0.594100
C1381	C138	0.704830	0.699200	0.583100
C1391	C139	0.682680	0.763700	0.609300
H831	H83	0.658200	0.792200	0.589100
C1401	C140	0.696650	0.785900	0.665180
H841	H84	0.681800	0.830200	0.683200
Co131	Co13	0.201940	0.281370	0.964840
Co141	Co14	0.204890	0.393650	0.843340
Co151	Co15	0.291160	0.244530	0.870190
O531	O53	0.164460	0.386500	0.974500
O541	O54	0.185180	0.474030	0.905380
O551	O55	0.046610	0.697700	0.038590
O561	O56	0.833780	0.761120	0.962260
O571	O57	0.859640	0.714100	0.880850
O581	O58	0.162220	0.215720	0.906840
O591	O59	0.147700	0.316340	0.843130
O601	O60	0.244050	0.177010	0.976030
O611	O61	0.267920	0.127870	0.893020
O621	O62	0.189450	0.816600	0.026350
O631	O63	0.272920	0.777900	0.286200
O641	O64	0.227740	0.667900	0.273550
O651	O65	0.244730	0.323990	0.901160
H851	H85	0.262700	0.357900	0.918700
C1411	C141	0.164020	0.455400	0.949910
C1421	C142	0.134740	0.520800	0.975260
C1431	C143	0.139790	0.601700	0.960260
H861	H86	0.163300	0.616900	0.935100
C1441	C144	0.110750	0.661300	0.981500
H871	H87	0.114500	0.717000	0.971400
C1451	C145	0.076490	0.638300	0.017400
C1461	C146	0.071220	0.558200	0.034100
H881	H88	0.047800	0.543300	0.059500
C1471	C147	0.100880	0.499400	0.013000
H891	H89	0.097900	0.444100	0.024500
C1481	C148	0.866940	0.733800	0.933340
C1491	C149	0.914580	0.726000	0.959400
C1501	C150	0.949700	0.688500	0.929000
H901	H90	0.943100	0.670200	0.890600
C1511	C151	0.993920	0.678000	0.954400
H911	H91	0.017400	0.651900	0.933800
C1521	C152	0.003650	0.705700	0.010000
C1531	C153	0.969480	0.745200	0.040100
H921	H92	0.976500	0.765900	0.077800
C1541	C154	0.925330	0.754300	0.014900
H931	H93	0.902000	0.780200	0.035800
C1551	C155	0.141790	0.246300	0.863020
C1561	C156	0.105330	0.194100	0.832000
C1571	C157	0.089570	0.122300	0.856210
H941	H94	0.103000	0.104500	0.892300
C1581	C158	0.054870	0.076500	0.828900
H951	H95	0.044100	0.028000	0.846200
C1591	C159	0.035940	0.102400	0.775900
C1601	C160	0.052490	0.171400	0.749600
H961	H96	0.040200	0.187400	0.712500
C1611	C161	0.087310	0.217500	0.777900
H971	H97	0.098800	0.265100	0.760100
C1621	C162	0.249030	0.119000	0.940370
C1631	C163	0.231450	0.037800	0.958500
C1641	C164	0.250870	0.965300	0.940030
H981	H98	0.273600	0.966400	0.911800
C1651	C165	0.237220	0.891200	0.962700
H991	H99	0.250600	0.841500	0.950500
C1661	C166	0.203580	0.891200	0.003410
C1671	C167	0.182420	0.962000	0.020200
H1001	H100	0.158400	0.960200	0.046700
C1681	C168	0.196470	0.036100	0.998140
H1011	H101	0.182400	0.085500	0.009900
C1691	C169	0.245690	0.732200	0.256410
C1701	C170	0.232420	0.756400	0.195160
C1711	C171	0.253890	0.820400	0.168010
H1021	H102	0.278400	0.849000	0.188000
C1721	C172	0.240190	0.843600	0.112090
H1031	H103	0.254900	0.888100	0.094100
C1731	C173	0.204830	0.800800	0.083100
C1741	C174	0.182680	0.736300	0.109300
H1041	H104	0.158200	0.707800	0.089100
C1751	C175	0.196650	0.714100	0.165180
H1051	H105	0.181800	0.669800	0.183200
Co161	Co16	0.701940	0.781370	0.964840
Co171	Co17	0.704890	0.893650	0.843340
Co181	Co18	0.791160	0.744530	0.870190
O661	O66	0.664460	0.886500	0.974500
O671	O67	0.685180	0.974030	0.905380
O681	O68	0.546610	0.197700	0.038590
O691	O69	0.333780	0.261120	0.962260
O701	O70	0.359640	0.214100	0.880850
O711	O71	0.662220	0.715720	0.906840
O721	O72	0.647700	0.816340	0.843130
O731	O73	0.744050	0.677010	0.976030
O741	O74	0.767920	0.627870	0.893020
O751	O75	0.689450	0.316600	0.026350
O761	O76	0.772920	0.277900	0.286200
O771	O77	0.727740	0.167900	0.273550
O781	O78	0.744730	0.823990	0.901160
H1061	H106	0.762700	0.857900	0.918700
C1761	C176	0.664020	0.955400	0.949910
C1771	C177	0.634740	0.020800	0.975260
C1781	C178	0.639790	0.101700	0.960260
H1071	H107	0.663300	0.116900	0.935100
C1791	C179	0.610750	0.161300	0.981500
H1081	H108	0.614500	0.217000	0.971400
C1801	C180	0.576490	0.138300	0.017400
C1811	C181	0.571220	0.058200	0.034100
H1091	H109	0.547800	0.043300	0.059500
C1821	C182	0.600880	0.999400	0.013000
H1101	H110	0.597900	0.944100	0.024500
C1831	C183	0.366940	0.233800	0.933340
C1841	C184	0.414580	0.226000	0.959400
C1851	C185	0.449700	0.188500	0.929000
H1111	H111	0.443100	0.170200	0.890600
C1861	C186	0.493920	0.178000	0.954400
H1121	H112	0.517400	0.151900	0.933800
C1871	C187	0.503650	0.205700	0.010000
C1881	C188	0.469480	0.245200	0.040100
H1131	H113	0.476500	0.265900	0.077800
C1891	C189	0.425330	0.254300	0.014900
H1141	H114	0.402000	0.280200	0.035800
C1901	C190	0.641790	0.746300	0.863020
C1911	C191	0.605330	0.694100	0.832000
C1921	C192	0.589570	0.622300	0.856210
H1151	H115	0.603000	0.604500	0.892300
C1931	C193	0.554870	0.576500	0.828900
H1161	H116	0.544100	0.528000	0.846200
C1941	C194	0.535940	0.602400	0.775900
C1951	C195	0.552490	0.671400	0.749600
H1171	H117	0.540200	0.687400	0.712500
C1961	C196	0.587310	0.717500	0.777900
H1181	H118	0.598800	0.765100	0.760100
C1971	C197	0.749030	0.619000	0.940370
C1981	C198	0.731450	0.537800	0.958500
C1991	C199	0.750870	0.465300	0.940030
H1191	H119	0.773600	0.466400	0.911800
C2001	C200	0.737220	0.391200	0.962700
H1201	H120	0.750600	0.341500	0.950500
C2011	C201	0.703580	0.391200	0.003410
C2021	C202	0.682420	0.462000	0.020200
H1211	H121	0.658400	0.460200	0.046700
C2031	C203	0.696470	0.536100	0.998140
H1221	H122	0.682400	0.585500	0.009900
C2041	C204	0.745690	0.232200	0.256410
C2051	C205	0.732420	0.256400	0.195160
C2061	C206	0.753890	0.320400	0.168010
H1231	H123	0.778400	0.349000	0.188000
C2071	C207	0.740190	0.343600	0.112090
H1241	H124	0.754900	0.388100	0.094100
C2081	C208	0.704830	0.300800	0.083100
C2091	C209	0.682680	0.236300	0.109300
H1251	H125	0.658200	0.207800	0.089100
C2101	C210	0.696650	0.214100	0.165180
H1261	H126	0.681800	0.169800	0.183200
Co191	Co19	0.798060	0.281370	0.535160
Co201	Co20	0.795110	0.393650	0.656660
Co211	Co21	0.708840	0.244530	0.629810
O791	O79	0.835540	0.386500	0.525500
O801	O80	0.814820	0.474030	0.594620
O811	O81	0.953390	0.697700	0.461410
O821	O82	0.166220	0.761120	0.537740
O831	O83	0.140360	0.714100	0.619150
O841	O84	0.837780	0.215720	0.593160
O851	O85	0.852300	0.316340	0.656870
O861	O86	0.755950	0.177010	0.523970
O871	O87	0.732080	0.127870	0.606980
O881	O88	0.810550	0.816600	0.473650
O891	O89	0.727080	0.777900	0.213800
O901	O90	0.772260	0.667900	0.226450
O911	O91	0.755270	0.323990	0.598840
H1271	H127	0.737300	0.357900	0.581300
C2111	C211	0.835980	0.455400	0.550090
C2121	C212	0.865260	0.520800	0.524740
C2131	C213	0.860210	0.601700	0.539740
H1281	H128	0.836700	0.616900	0.564900
C2141	C214	0.889250	0.661300	0.518500
H1291	H129	0.885500	0.717000	0.528600
C2151	C215	0.923510	0.638300	0.482600
C2161	C216	0.928780	0.558200	0.465900
H1301	H130	0.952200	0.543300	0.440500
C2171	C217	0.899120	0.499400	0.487000
H1311	H131	0.902100	0.444100	0.475500
C2181	C218	0.133060	0.733800	0.566660
C2191	C219	0.085420	0.726000	0.540600
C2201	C220	0.050300	0.688500	0.571000
H1321	H132	0.056900	0.670200	0.609400
C2211	C221	0.006080	0.678000	0.545600
H1331	H133	0.982600	0.651900	0.566200
C2221	C222	0.996350	0.705700	0.490000
C2231	C223	0.030520	0.745200	0.459900
H1341	H134	0.023500	0.765900	0.422200
C2241	C224	0.074670	0.754300	0.485100
H1351	H135	0.098000	0.780200	0.464200
C2251	C225	0.858210	0.246300	0.636980
C2261	C226	0.894670	0.194100	0.668000
C2271	C227	0.910430	0.122300	0.643790
H1361	H136	0.897000	0.104500	0.607700
C2281	C228	0.945130	0.076500	0.671100
H1371	H137	0.955900	0.028000	0.653800
C2291	C229	0.964060	0.102400	0.724100
C2301	C230	0.947510	0.171400	0.750400
H1381	H138	0.959800	0.187400	0.787500
C2311	C231	0.912690	0.217500	0.722100
H1391	H139	0.901200	0.265100	0.739900
C2321	C232	0.750970	0.119000	0.559630
C2331	C233	0.768550	0.037800	0.541500
C2341	C234	0.749130	0.965300	0.559970
H1401	H140	0.726400	0.966400	0.588200
C2351	C235	0.762780	0.891200	0.537300
H1411	H141	0.749400	0.841500	0.549500
C2361	C236	0.796420	0.891200	0.496590
C2371	C237	0.817580	0.962000	0.479800
H1421	H142	0.841600	0.960200	0.453300
C2381	C238	0.803530	0.036100	0.501860
H1431	H143	0.817600	0.085500	0.490100
C2391	C239	0.754310	0.732200	0.243590
C2401	C240	0.767580	0.756400	0.304840
C2411	C241	0.746110	0.820400	0.331990
H1441	H144	0.721600	0.849000	0.312000
C2421	C242	0.759810	0.843600	0.387910
H1451	H145	0.745100	0.888100	0.405900
C2431	C243	0.795170	0.800800	0.416900
C2441	C244	0.817320	0.736300	0.390700
H1461	H146	0.841800	0.707800	0.410900
C2451	C245	0.803350	0.714100	0.334820
H1471	H147	0.818200	0.669800	0.316800
Co221	Co22	0.298060	0.781370	0.535160
Co231	Co23	0.295110	0.893650	0.656660
Co241	Co24	0.208840	0.744530	0.629810
O921	O92	0.335540	0.886500	0.525500
O931	O93	0.314820	0.974030	0.594620
O941	O94	0.453390	0.197700	0.461410
O951	O95	0.666220	0.261120	0.537740
O961	O96	0.640360	0.214100	0.619150
O971	O97	0.337780	0.715720	0.593160
O981	O98	0.352300	0.816340	0.656870
O991	O99	0.255950	0.677010	0.523970
O1001	O100	0.232080	0.627870	0.606980
O1011	O101	0.310550	0.316600	0.473650
O1021	O102	0.227080	0.277900	0.213800
O1031	O103	0.272260	0.167900	0.226450
O1041	O104	0.255270	0.823990	0.598840
H1481	H148	0.237300	0.857900	0.581300
C2461	C246	0.335980	0.955400	0.550090
C2471	C247	0.365260	0.020800	0.524740
C2481	C248	0.360210	0.101700	0.539740
H1491	H149	0.336700	0.116900	0.564900
C2491	C249	0.389250	0.161300	0.518500
H1501	H150	0.385500	0.217000	0.528600
C2501	C250	0.423510	0.138300	0.482600
C2511	C251	0.428780	0.058200	0.465900
H1511	H151	0.452200	0.043300	0.440500
C2521	C252	0.399120	0.999400	0.487000
H1521	H152	0.402100	0.944100	0.475500
C2531	C253	0.633060	0.233800	0.566660
C2541	C254	0.585420	0.226000	0.540600
C2551	C255	0.550300	0.188500	0.571000
H1531	H153	0.556900	0.170200	0.609400
C2561	C256	0.506080	0.178000	0.545600
H1541	H154	0.482600	0.151900	0.566200
C2571	C257	0.496350	0.205700	0.490000
C2581	C258	0.530520	0.245200	0.459900
H1551	H155	0.523500	0.265900	0.422200
C2591	C259	0.574670	0.254300	0.485100
H1561	H156	0.598000	0.280200	0.464200
C2601	C260	0.358210	0.746300	0.636980
C2611	C261	0.394670	0.694100	0.668000
C2621	C262	0.410430	0.622300	0.643790
H1571	H157	0.397000	0.604500	0.607700
C2631	C263	0.445130	0.576500	0.671100
H1581	H158	0.455900	0.528000	0.653800
C2641	C264	0.464060	0.602400	0.724100
C2651	C265	0.447510	0.671400	0.750400
H1591	H159	0.459800	0.687400	0.787500
C2661	C266	0.412690	0.717500	0.722100
H1601	H160	0.401200	0.765100	0.739900
C2671	C267	0.250970	0.619000	0.559630
C2681	C268	0.268550	0.537800	0.541500
C2691	C269	0.249130	0.465300	0.559970
H1611	H161	0.226400	0.466400	0.588200
C2701	C270	0.262780	0.391200	0.537300
H1621	H162	0.249400	0.341500	0.549500
C2711	C271	0.296420	0.391200	0.496590
C2721	C272	0.317580	0.462000	0.479800
H1631	H163	0.341600	0.460200	0.453300
C2731	C273	0.303530	0.536100	0.501860
H1641	H164	0.317600	0.585500	0.490100
C2741	C274	0.254310	0.232200	0.243590
C2751	C275	0.267580	0.256400	0.304840
C2761	C276	0.246110	0.320400	0.331990
H1651	H165	0.221600	0.349000	0.312000
C2771	C277	0.259810	0.343600	0.387910
H1661	H166	0.245100	0.388100	0.405900
C2781	C278	0.295170	0.300800	0.416900
C2791	C279	0.317320	0.236300	0.390700
H1671	H167	0.341800	0.207800	0.410900
C2801	C280	0.303350	0.214100	0.334820
H1681	H168	0.318200	0.169800	0.316800
O1051	O105	0.000000	0.943300	0.250000
O1061	O106	0.500000	0.443300	0.250000
O1071	O107	0.000000	0.056700	0.750000
O1081	O108	0.500000	0.556700	0.750000
