data_CUXFIL_clean_PM
_symmetry_space_group_name_H-M	'P1'
_cell_length_a	12.283000
_cell_length_b	13.386000
_cell_length_c	13.931000
_cell_angle_alpha	102.140000
_cell_angle_beta	101.470000
_cell_angle_gamma	95.130000
_symmetry_Int_Tables_number 1

loop_
_symmetry_equiv_pos_as_xyz
'x,y,z'

loop_
_atom_site_label
_atom_site_type_symbol
_atom_site_fract_x
_atom_site_fract_y
_atom_site_fract_z
Mn11	Mn1	0.898570	0.883410	0.750750
Mn21	Mn2	0.086900	0.757110	0.607800
O11	O1	0.837730	0.991730	0.894620
O21	O2	0.722850	0.893450	0.757250
O31	O3	0.053600	0.974620	0.855000
O41	O4	0.099460	0.896720	0.716690
O51	O5	0.975220	0.838470	0.992500
O61	O6	0.910710	0.765940	0.827290
O71	O7	0.887500	0.320530	0.276200
O81	O8	0.959820	0.486960	0.343310
O91	O9	0.931690	0.647150	0.525530
O101	O10	0.872700	0.781580	0.608990
O111	O11	0.149300	0.608300	0.502390
O121	O12	0.256600	0.754520	0.587390
C11	C1	0.535080	0.968610	0.821080
H11	H1	0.521500	0.910100	0.766000
C21	C2	0.643790	0.010310	0.869050
C31	C3	0.664790	0.099410	0.949670
H21	H2	0.739900	0.128100	0.982600
C41	C4	0.578000	0.144290	0.980240
H31	H3	0.593400	0.204800	0.033200
C51	C5	0.372920	0.143140	0.967070
H41	H4	0.386300	0.204100	0.019400
C61	C6	0.265650	0.096790	0.924910
H51	H5	0.205100	0.124900	0.948900
C71	C7	0.243950	0.006810	0.845490
C81	C8	0.330630	0.966480	0.808670
H61	H6	0.315100	0.908000	0.753400
C91	C9	0.442920	0.011720	0.852720
C101	C10	0.464910	0.101480	0.933730
C111	C11	0.740060	0.960950	0.838180
C121	C12	0.126640	0.955620	0.803380
C131	C13	0.925100	0.643370	0.034980
H71	H7	0.973800	0.694400	0.087500
C141	C14	0.892600	0.662870	0.941640
C151	C15	0.818700	0.587100	0.863900
H81	H8	0.797000	0.600000	0.798800
C161	C16	0.778500	0.496400	0.881300
H91	H9	0.727300	0.447500	0.828700
C171	C17	0.771700	0.378800	0.997400
H101	H10	0.720300	0.328500	0.946300
C181	C18	0.806900	0.359800	0.090500
H111	H11	0.781200	0.295500	0.102800
C191	C19	0.880600	0.434300	0.168570
C201	C20	0.919600	0.525960	0.150630
H121	H12	0.969400	0.575800	0.203400
C211	C21	0.887000	0.547870	0.054270
C221	C22	0.811700	0.473600	0.976400
C231	C23	0.930300	0.764070	0.918890
C241	C24	0.913070	0.411440	0.270680
C251	C25	0.647510	0.693530	0.528040
H131	H13	0.662400	0.751400	0.583800
C261	C26	0.735180	0.654220	0.491890
C271	C27	0.714070	0.571170	0.405850
H141	H14	0.774900	0.545900	0.380100
C281	C28	0.606180	0.526930	0.359440
H151	H15	0.592800	0.472000	0.301100
C291	C29	0.402790	0.513370	0.357420
H161	H16	0.387700	0.456500	0.300600
C301	C30	0.316750	0.546430	0.398780
H171	H17	0.242700	0.511400	0.371600
C311	C31	0.337010	0.632640	0.482000
C321	C32	0.444170	0.683160	0.522650
H181	H18	0.457000	0.741600	0.577700
C331	C33	0.535830	0.648680	0.483050
C341	C34	0.514240	0.562750	0.398070
C351	C35	0.852430	0.696600	0.545910
C361	C36	0.242120	0.667250	0.527660
Mn31	Mn3	0.101430	0.116590	0.249250
Mn41	Mn4	0.913100	0.242890	0.392200
O131	O13	0.162270	0.008270	0.105380
O141	O14	0.277150	0.106550	0.242750
O151	O15	0.946400	0.025380	0.145000
O161	O16	0.900540	0.103280	0.283310
O171	O17	0.024780	0.161530	0.007500
O181	O18	0.089290	0.234060	0.172710
O191	O19	0.112500	0.679470	0.723800
O201	O20	0.040180	0.513040	0.656690
O211	O21	0.068310	0.352850	0.474470
O221	O22	0.127300	0.218420	0.391010
O231	O23	0.850700	0.391700	0.497610
O241	O24	0.743400	0.245480	0.412610
C371	C37	0.464920	0.031390	0.178920
H191	H19	0.478500	0.089900	0.234000
C381	C38	0.356210	0.989690	0.130950
C391	C39	0.335210	0.900590	0.050330
H201	H20	0.260100	0.871900	0.017400
C401	C40	0.422000	0.855710	0.019760
H211	H21	0.406600	0.795200	0.966800
C411	C41	0.627080	0.856860	0.032930
H221	H22	0.613700	0.795900	0.980600
C421	C42	0.734350	0.903210	0.075090
H231	H23	0.794900	0.875100	0.051100
C431	C43	0.756050	0.993190	0.154510
C441	C44	0.669370	0.033520	0.191330
H241	H24	0.684900	0.092000	0.246600
C451	C45	0.557080	0.988280	0.147280
C461	C46	0.535090	0.898520	0.066270
C471	C47	0.259940	0.039050	0.161820
C481	C48	0.873360	0.044380	0.196620
C491	C49	0.074900	0.356630	0.965020
H251	H25	0.026200	0.305600	0.912500
C501	C50	0.107400	0.337130	0.058360
C511	C51	0.181300	0.412900	0.136100
H261	H26	0.203000	0.400000	0.201200
C521	C52	0.221500	0.503600	0.118700
H271	H27	0.272700	0.552500	0.171300
C531	C53	0.228300	0.621200	0.002600
H281	H28	0.279700	0.671500	0.053700
C541	C54	0.193100	0.640200	0.909500
H291	H29	0.218800	0.704500	0.897200
C551	C55	0.119400	0.565700	0.831430
C561	C56	0.080400	0.474040	0.849370
H301	H30	0.030600	0.424200	0.796600
C571	C57	0.113000	0.452130	0.945730
C581	C58	0.188300	0.526400	0.023600
C591	C59	0.069700	0.235930	0.081110
C601	C60	0.086930	0.588560	0.729320
C611	C61	0.352490	0.306470	0.471960
H311	H31	0.337600	0.248600	0.416200
C621	C62	0.264820	0.345780	0.508110
C631	C63	0.285930	0.428830	0.594150
H321	H32	0.225100	0.454100	0.619900
C641	C64	0.393820	0.473070	0.640560
H331	H33	0.407200	0.528000	0.698900
C651	C65	0.597210	0.486630	0.642580
H341	H34	0.612300	0.543500	0.699400
C661	C66	0.683250	0.453570	0.601220
H351	H35	0.757300	0.488600	0.628400
C671	C67	0.662990	0.367360	0.518000
C681	C68	0.555830	0.316840	0.477350
H361	H36	0.543000	0.258400	0.422300
C691	C69	0.464170	0.351320	0.516950
C701	C70	0.485760	0.437250	0.601930
C711	C71	0.147570	0.303400	0.454090
C721	C72	0.757880	0.332750	0.472340
Mn51	Mn5	0.000000	0.000000	0.000000
Mn61	Mn6	0.000000	0.500000	0.500000
