data_CUXLEO_clean_PM
_symmetry_space_group_name_H-M	'P1'
_cell_length_a	9.263000
_cell_length_b	11.089100
_cell_length_c	21.171700
_cell_angle_alpha	90.000000
_cell_angle_beta	100.104000
_cell_angle_gamma	90.000000
_symmetry_Int_Tables_number 1

loop_
_symmetry_equiv_pos_as_xyz
'x,y,z'

loop_
_atom_site_label
_atom_site_type_symbol
_atom_site_fract_x
_atom_site_fract_y
_atom_site_fract_z
Cu11	Cu1	0.838140	0.379080	0.649040
F11	F1	0.091000	0.604400	0.341510
F21	F2	0.202700	0.670400	0.459310
F31	F3	0.613900	0.420800	0.454630
F41	F4	0.500500	0.352400	0.337060
N11	N1	0.000000	0.526800	0.198420
N21	N2	0.421200	0.785200	0.580220
N31	N3	0.661500	0.463000	0.605930
N41	N4	0.302200	0.254300	0.207550
C11	C1	0.483800	0.467800	0.427620
C21	C2	0.288900	0.472100	0.333620
C31	C3	0.415900	0.550000	0.462750
C41	C4	0.475600	0.585500	0.528440
C51	C5	0.579300	0.516700	0.569060
C61	C6	0.422900	0.431500	0.366260
C71	C7	0.099900	0.487700	0.232030
C81	C8	0.221600	0.557400	0.368230
C91	C9	0.281500	0.592900	0.429430
C101	C10	0.441600	0.696500	0.554690
C111	C11	0.224500	0.434100	0.268870
C121	C12	0.274300	0.334200	0.237670
Cu21	Cu2	0.338140	0.879080	0.649040
F51	F5	0.591000	0.104400	0.341510
F61	F6	0.702700	0.170400	0.459310
F71	F7	0.113900	0.920800	0.454630
F81	F8	0.000500	0.852400	0.337060
N51	N5	0.500000	0.026800	0.198420
N61	N6	0.921200	0.285200	0.580220
N71	N7	0.161500	0.963000	0.605930
N81	N8	0.802200	0.754300	0.207550
C131	C13	0.983800	0.967800	0.427620
C141	C14	0.788900	0.972100	0.333620
C151	C15	0.915900	0.050000	0.462750
C161	C16	0.975600	0.085500	0.528440
C171	C17	0.079300	0.016700	0.569060
C181	C18	0.922900	0.931500	0.366260
C191	C19	0.599900	0.987700	0.232030
C201	C20	0.721600	0.057400	0.368230
C211	C21	0.781500	0.092900	0.429430
C221	C22	0.941600	0.196500	0.554690
C231	C23	0.724500	0.934100	0.268870
C241	C24	0.774300	0.834200	0.237670
Cu31	Cu3	0.838140	0.620920	0.149040
F91	F9	0.091000	0.395600	0.841510
F101	F10	0.202700	0.329600	0.959310
F111	F11	0.613900	0.579200	0.954630
F121	F12	0.500500	0.647600	0.837060
N91	N9	0.000000	0.473200	0.698420
N101	N10	0.421200	0.214800	0.080220
N111	N11	0.661500	0.537000	0.105930
N121	N12	0.302200	0.745700	0.707550
C251	C25	0.483800	0.532200	0.927620
C261	C26	0.288900	0.527900	0.833620
C271	C27	0.415900	0.450000	0.962750
C281	C28	0.475600	0.414500	0.028440
C291	C29	0.579300	0.483300	0.069060
C301	C30	0.422900	0.568500	0.866260
C311	C31	0.099900	0.512300	0.732030
C321	C32	0.221600	0.442600	0.868230
C331	C33	0.281500	0.407100	0.929430
C341	C34	0.441600	0.303500	0.054690
C351	C35	0.224500	0.565900	0.768870
C361	C36	0.274300	0.665800	0.737670
Cu41	Cu4	0.338140	0.120920	0.149040
F131	F13	0.591000	0.895600	0.841510
F141	F14	0.702700	0.829600	0.959310
F151	F15	0.113900	0.079200	0.954630
F161	F16	0.000500	0.147600	0.837060
N131	N13	0.500000	0.973200	0.698420
N141	N14	0.921200	0.714800	0.080220
N151	N15	0.161500	0.037000	0.105930
N161	N16	0.802200	0.245700	0.707550
C371	C37	0.983800	0.032200	0.927620
C381	C38	0.788900	0.027900	0.833620
C391	C39	0.915900	0.950000	0.962750
C401	C40	0.975600	0.914500	0.028440
C411	C41	0.079300	0.983300	0.069060
C421	C42	0.922900	0.068500	0.866260
C431	C43	0.599900	0.012300	0.732030
C441	C44	0.721600	0.942600	0.868230
C451	C45	0.781500	0.907100	0.929430
C461	C46	0.941600	0.803500	0.054690
C471	C47	0.724500	0.065900	0.768870
C481	C48	0.774300	0.165800	0.737670
