data_CUYQIX_clean_PM
_symmetry_space_group_name_H-M	'P1'
_cell_length_a	8.320700
_cell_length_b	13.112000
_cell_length_c	13.425300
_cell_angle_alpha	71.716000
_cell_angle_beta	79.758000
_cell_angle_gamma	88.055000
_symmetry_Int_Tables_number 1

loop_
_symmetry_equiv_pos_as_xyz
'x,y,z'

loop_
_atom_site_label
_atom_site_type_symbol
_atom_site_fract_x
_atom_site_fract_y
_atom_site_fract_z
Zn11	Zn1	0.774370	0.636990	0.360840
Zn21	Zn2	0.225630	0.363010	0.639160
Zn31	Zn3	0.000000	0.000000	0.000000
H11	H1	0.834100	0.518000	0.212200
H21	H2	0.884000	0.346700	0.202900
H31	H3	0.731200	0.230900	0.521300
H41	H4	0.678500	0.404800	0.521900
H51	H5	0.941900	0.163200	0.293500
H61	H6	0.752500	0.131200	0.334200
H71	H7	0.807600	0.951200	0.415700
H81	H8	0.997100	0.980500	0.368100
H91	H9	0.131100	0.117000	0.410400
H101	H10	0.031800	0.179800	0.485900
H111	H11	0.594000	0.772400	0.482300
H121	H12	0.547700	0.789600	0.651400
H131	H13	0.831100	0.532500	0.745500
H141	H14	0.871800	0.522600	0.574300
H151	H15	0.560300	0.721700	0.834200
H161	H16	0.750200	0.704800	0.840100
H171	H17	0.375300	0.566600	0.895100
H181	H18	0.491800	0.503800	0.826400
H191	H19	0.672100	0.620500	0.028200
H201	H20	0.483700	0.636700	0.016600
H211	H21	0.575200	0.901300	0.116800
H221	H22	0.514600	0.807200	0.079400
H231	H23	0.352800	0.853800	0.267100
H241	H24	0.312200	0.675700	0.268500
H251	H25	0.247500	0.719500	0.158100
H261	H26	0.165900	0.482000	0.787800
H271	H27	0.116000	0.653300	0.797100
H281	H28	0.268800	0.769100	0.478700
H291	H29	0.321500	0.595200	0.478100
H301	H30	0.058100	0.836800	0.706500
H311	H31	0.247500	0.868800	0.665800
H321	H32	0.192400	0.048800	0.584300
H331	H33	0.002900	0.019500	0.631900
H341	H34	0.868900	0.883000	0.589600
H351	H35	0.968200	0.820200	0.514100
H361	H36	0.406000	0.227600	0.517700
H371	H37	0.452300	0.210400	0.348600
H381	H38	0.168900	0.467500	0.254500
H391	H39	0.128200	0.477400	0.425700
H401	H40	0.439700	0.278300	0.165800
H411	H41	0.249800	0.295200	0.159900
H421	H42	0.624700	0.433400	0.104900
H431	H43	0.508200	0.496200	0.173600
H441	H44	0.327900	0.379500	0.971800
H451	H45	0.516300	0.363300	0.983400
H461	H46	0.424800	0.098700	0.883200
H471	H47	0.485400	0.192800	0.920600
H481	H48	0.647200	0.146200	0.732900
H491	H49	0.687800	0.324300	0.731500
H501	H50	0.752500	0.280500	0.841900
C11	C1	0.812100	0.458800	0.275790
C21	C2	0.843400	0.356850	0.269790
C31	C3	0.815500	0.268820	0.361620
C41	C4	0.752900	0.288710	0.456520
C51	C5	0.722500	0.392750	0.456290
C61	C6	0.849500	0.157830	0.352740
C71	C7	0.910500	0.973950	0.430860
C81	C8	0.043300	0.109450	0.472790
C91	C9	0.642100	0.723010	0.536660
C101	C10	0.614100	0.733670	0.637320
C111	C11	0.683200	0.662490	0.717920
C121	C12	0.780900	0.582580	0.692670
C131	C13	0.804100	0.576990	0.590720
C141	C14	0.652000	0.672610	0.828390
C151	C15	0.468600	0.517570	0.895980
C161	C16	0.575700	0.586870	0.015970
C171	C17	0.625300	0.750830	0.211040
C181	C18	0.520800	0.829510	0.142580
C191	C19	0.346800	0.839040	0.199160
C201	C20	0.251300	0.734340	0.225590
C211	C21	0.078400	0.730470	0.285360
C221	C22	0.267900	0.934700	0.127080
C231	C23	0.187900	0.541200	0.724210
C241	C24	0.156600	0.643150	0.730210
C251	C25	0.184500	0.731180	0.638380
C261	C26	0.247100	0.711290	0.543480
C271	C27	0.277500	0.607250	0.543710
C281	C28	0.150500	0.842170	0.647260
C291	C29	0.089500	0.026050	0.569140
C301	C30	0.956700	0.890550	0.527210
C311	C31	0.357900	0.276990	0.463340
C321	C32	0.385900	0.266330	0.362680
C331	C33	0.316800	0.337510	0.282080
C341	C34	0.219100	0.417420	0.307330
C351	C35	0.195900	0.423010	0.409280
C361	C36	0.348000	0.327390	0.171610
C371	C37	0.531400	0.482430	0.104020
C381	C38	0.424300	0.413130	0.984030
C391	C39	0.374700	0.249170	0.788960
C401	C40	0.479200	0.170490	0.857420
C411	C41	0.653200	0.160960	0.800840
C421	C42	0.748700	0.265660	0.774410
C431	C43	0.921600	0.269530	0.714640
C441	C44	0.732100	0.065300	0.872920
N11	N1	0.752100	0.478150	0.367450
N21	N2	0.888700	0.079070	0.449470
N31	N3	0.735100	0.645150	0.512930
N41	N4	0.612700	0.568670	0.911580
N51	N5	0.247900	0.521850	0.632550
N61	N6	0.111300	0.920930	0.550530
N71	N7	0.264900	0.354850	0.487070
N81	N8	0.387300	0.431330	0.088420
O11	O1	0.746360	0.712270	0.167680
O21	O2	0.589350	0.727490	0.312080
O31	O3	0.010240	0.637050	0.317730
O41	O4	0.009370	0.810850	0.300770
O51	O5	0.183610	0.914820	0.065930
O61	O6	0.296480	0.026720	0.130890
O71	O7	0.253640	0.287730	0.832320
O81	O8	0.410650	0.272510	0.687920
O91	O9	0.989760	0.362950	0.682270
O101	O10	0.990630	0.189150	0.699230
O111	O11	0.816390	0.085180	0.934070
O121	O12	0.703520	0.973280	0.869110
