data_CUYYEB_clean_PM
_symmetry_space_group_name_H-M	'P1'
_cell_length_a	9.072300
_cell_length_b	9.072300
_cell_length_c	27.010000
_cell_angle_alpha	90.000000
_cell_angle_beta	90.000000
_cell_angle_gamma	90.000000
_symmetry_Int_Tables_number 1

loop_
_symmetry_equiv_pos_as_xyz
'x,y,z'

loop_
_atom_site_label
_atom_site_type_symbol
_atom_site_fract_x
_atom_site_fract_y
_atom_site_fract_z
Cd11	Cd1	0.122980	0.681430	0.077390
Cd21	Cd2	0.877020	0.318570	0.577390
Cd31	Cd3	0.318570	0.122980	0.827390
Cd41	Cd4	0.681430	0.877020	0.327390
H11	H1	0.583400	0.160200	0.064900
H21	H2	0.978400	0.208100	0.999100
H31	H3	0.687100	0.914800	0.946000
H41	H4	0.467600	0.864900	0.077700
H51	H5	0.175600	0.848300	0.971600
H61	H6	0.382100	0.991700	0.940600
H71	H7	0.086800	0.191800	0.922800
H81	H8	0.092400	0.827100	0.847200
H91	H9	0.886600	0.808700	0.905400
H101	H10	0.040000	0.334400	0.068400
H111	H11	0.755900	0.597900	0.131500
H121	H12	0.616800	0.402100	0.091800
H131	H13	0.416600	0.839800	0.564900
H141	H14	0.021600	0.791900	0.499100
H151	H15	0.312900	0.085200	0.446000
H161	H16	0.532400	0.135100	0.577700
H171	H17	0.824400	0.151700	0.471600
H181	H18	0.617900	0.008300	0.440600
H191	H19	0.913200	0.808200	0.422800
H201	H20	0.907600	0.172900	0.347200
H211	H21	0.113400	0.191300	0.405400
H221	H22	0.960000	0.665600	0.568400
H231	H23	0.244100	0.402100	0.631500
H241	H24	0.383200	0.597900	0.591800
H251	H25	0.839800	0.583400	0.814900
H261	H26	0.791900	0.978400	0.749100
H271	H27	0.085200	0.687100	0.696000
H281	H28	0.135100	0.467600	0.827700
H291	H29	0.151700	0.175600	0.721600
H301	H30	0.008300	0.382100	0.690600
H311	H31	0.808200	0.086800	0.672800
H321	H32	0.172900	0.092400	0.597200
H331	H33	0.191300	0.886600	0.655400
H341	H34	0.665600	0.040000	0.818400
H351	H35	0.402100	0.755900	0.881500
H361	H36	0.597900	0.616800	0.841800
H371	H37	0.160200	0.416600	0.314900
H381	H38	0.208100	0.021600	0.249100
H391	H39	0.914800	0.312900	0.196000
H401	H40	0.864900	0.532400	0.327700
H411	H41	0.848300	0.824400	0.221600
H421	H42	0.991700	0.617900	0.190600
H431	H43	0.191800	0.913200	0.172800
H441	H44	0.827100	0.907600	0.097200
H451	H45	0.808700	0.113400	0.155400
H461	H46	0.334400	0.960000	0.318400
H471	H47	0.597900	0.244100	0.381500
H481	H48	0.402100	0.383200	0.341800
C11	C1	0.616000	0.026200	0.006290
C21	C2	0.649900	0.134700	0.040160
C31	C3	0.784800	0.205000	0.036580
C41	C4	0.885900	0.164000	0.000490
C51	C5	0.846600	0.056200	0.966590
C61	C6	0.712500	0.986700	0.968940
C71	C7	0.420200	0.877900	0.047530
C81	C8	0.261200	0.869500	0.989120
C91	C9	0.374300	0.949000	0.971740
C101	C10	0.062400	0.098800	0.910930
C111	C11	0.064900	0.899300	0.869860
C121	C12	0.950600	0.888100	0.902010
C131	C13	0.952300	0.376800	0.079020
C141	C14	0.796200	0.520100	0.113690
C151	C15	0.718800	0.412900	0.091670
C161	C16	0.384000	0.973800	0.506290
C171	C17	0.350100	0.865300	0.540160
C181	C18	0.215200	0.795000	0.536580
C191	C19	0.114100	0.836000	0.500490
C201	C20	0.153400	0.943800	0.466590
C211	C21	0.287500	0.013300	0.468940
C221	C22	0.579800	0.122100	0.547530
C231	C23	0.738800	0.130500	0.489120
C241	C24	0.625700	0.051000	0.471740
C251	C25	0.937600	0.901200	0.410930
C261	C26	0.935100	0.100700	0.369860
C271	C27	0.049400	0.111900	0.402010
C281	C28	0.047700	0.623200	0.579020
C291	C29	0.203800	0.479900	0.613690
C301	C30	0.281200	0.587100	0.591670
C311	C31	0.973800	0.616000	0.756290
C321	C32	0.865300	0.649900	0.790160
C331	C33	0.795000	0.784800	0.786580
C341	C34	0.836000	0.885900	0.750490
C351	C35	0.943800	0.846600	0.716590
C361	C36	0.013300	0.712500	0.718940
C371	C37	0.122100	0.420200	0.797530
C381	C38	0.130500	0.261200	0.739120
C391	C39	0.051000	0.374300	0.721740
C401	C40	0.901200	0.062400	0.660930
C411	C41	0.100700	0.064900	0.619860
C421	C42	0.111900	0.950600	0.652010
C431	C43	0.623200	0.952300	0.829020
C441	C44	0.479900	0.796200	0.863690
C451	C45	0.587100	0.718800	0.841670
C461	C46	0.026200	0.384000	0.256290
C471	C47	0.134700	0.350100	0.290160
C481	C48	0.205000	0.215200	0.286580
C491	C49	0.164000	0.114100	0.250490
C501	C50	0.056200	0.153400	0.216590
C511	C51	0.986700	0.287500	0.218940
C521	C52	0.877900	0.579800	0.297530
C531	C53	0.869500	0.738800	0.239120
C541	C54	0.949000	0.625700	0.221740
C551	C55	0.098800	0.937600	0.160930
C561	C56	0.899300	0.935100	0.119860
C571	C57	0.888100	0.049400	0.152010
C581	C58	0.376800	0.047700	0.329020
C591	C59	0.520100	0.203800	0.363690
C601	C60	0.412900	0.281200	0.341670
N11	N1	0.289900	0.824000	0.036720
N21	N2	0.476300	0.954600	0.009150
N31	N3	0.133600	0.031900	0.875640
N41	N4	0.948200	0.016800	0.928430
N51	N5	0.945400	0.497300	0.105860
N61	N6	0.819100	0.321900	0.068740
N71	N7	0.710100	0.176000	0.536720
N81	N8	0.523700	0.045400	0.509150
N91	N9	0.866400	0.968100	0.375640
N101	N10	0.051800	0.983200	0.428430
N111	N11	0.054600	0.502700	0.605860
N121	N12	0.180900	0.678100	0.568740
N131	N13	0.176000	0.289900	0.786720
N141	N14	0.045400	0.476300	0.759150
N151	N15	0.968100	0.133600	0.625640
N161	N16	0.983200	0.948200	0.678430
N171	N17	0.502700	0.945400	0.855860
N181	N18	0.678100	0.819100	0.818740
N191	N19	0.824000	0.710100	0.286720
N201	N20	0.954600	0.523700	0.259150
N211	N21	0.031900	0.866400	0.125640
N221	N22	0.016800	0.051800	0.178430
N231	N23	0.497300	0.054600	0.355860
N241	N24	0.321900	0.180900	0.318740
