data_DABGIZ_clean_PM
_symmetry_space_group_name_H-M	'P1'
_cell_length_a	12.967600
_cell_length_b	16.170100
_cell_length_c	30.905500
_cell_angle_alpha	90.000000
_cell_angle_beta	91.249000
_cell_angle_gamma	90.000000
_symmetry_Int_Tables_number 1

loop_
_symmetry_equiv_pos_as_xyz
'x,y,z'

loop_
_atom_site_label
_atom_site_type_symbol
_atom_site_fract_x
_atom_site_fract_y
_atom_site_fract_z
Mo11	Mo1	0.278650	0.394300	0.934460
Mo21	Mo2	0.300060	0.547400	0.907690
Mo31	Mo3	0.351380	0.707630	0.983630
Mo41	Mo4	0.363470	0.674200	0.066290
Mo51	Mo5	0.333250	0.466900	0.101790
Mo61	Mo6	0.304690	0.346010	0.046470
Mo71	Mo7	0.194920	0.653530	0.236910
Mo81	Mo8	0.109790	0.689640	0.307910
Cd11	Cd1	0.977900	0.540530	0.057170
Cd21	Cd2	0.105920	0.747690	0.066060
P11	P1	0.209210	0.534970	0.008650
P21	P2	0.176200	0.617600	0.130600
P31	P3	0.885150	0.730240	0.015680
P41	P4	0.168300	0.725640	0.908130
O11	O1	0.179300	0.476000	0.913270
O21	O2	0.393300	0.473600	0.941120
O31	O3	0.240300	0.444500	0.999340
O41	O4	0.862100	0.663700	0.049980
O51	O5	0.352800	0.321600	0.982590
O61	O6	0.437400	0.628700	0.016620
O71	O7	0.257800	0.730400	0.031130
O81	O8	0.254300	0.683000	0.113830
O91	O9	0.259800	0.559100	0.052160
O101	O10	0.423100	0.575700	0.101850
O111	O11	0.412500	0.431600	0.051260
O121	O12	0.216200	0.397200	0.088020
O131	O13	0.827700	0.713600	0.973560
O141	O14	0.255600	0.591500	0.973770
O151	O15	0.398600	0.644900	0.926890
O161	O16	0.196200	0.639500	0.893210
O171	O17	0.240200	0.758500	0.943690
O181	O18	0.228900	0.533700	0.136140
O191	O19	0.092500	0.541500	0.006080
O201	O20	0.085400	0.619700	0.098430
O211	O21	0.999700	0.733200	0.009080
O221	O22	0.853600	0.816500	0.033450
O231	O23	0.056900	0.720400	0.926290
O241	O24	0.059800	0.695400	0.248390
O251	O25	0.250700	0.699800	0.290730
O261	O26	0.138400	0.645500	0.174490
O271	O27	0.164200	0.784100	0.870090
N11	N1	0.106800	0.888300	0.063200
N21	N2	0.991500	0.795500	0.117600
N31	N3	0.237700	0.780000	0.207100
N41	N4	0.358700	0.649900	0.215400
N51	N5	0.946300	0.726400	0.321900
N61	N6	0.092900	0.833500	0.303600
C11	C1	0.160100	0.929300	0.035300
H11	H1	0.207100	0.900900	0.018500
C21	C2	0.149000	0.015100	0.029500
H21	H2	0.193200	0.043900	0.011500
C31	C3	0.070900	0.056400	0.051000
H31	H3	0.057600	0.112000	0.045700
C41	C4	0.014000	0.012700	0.080200
H41	H4	0.963600	0.039000	0.096100
C51	C5	0.904900	0.911100	0.145200
H51	H5	0.893600	0.967900	0.144600
C61	C6	0.854100	0.863200	0.174000
H61	H6	0.806800	0.886500	0.192600
C71	C7	0.874600	0.775800	0.175100
H71	H7	0.843000	0.740700	0.194700
C81	C8	0.943500	0.747600	0.145700
H81	H8	0.957700	0.691200	0.145300
C91	C9	0.033500	0.925900	0.085900
C101	C10	0.972700	0.876200	0.117000
C111	C11	0.170400	0.838800	0.199800
H91	H9	0.102700	0.830600	0.208300
C121	C12	0.196300	0.915200	0.179500
H101	H10	0.149400	0.958200	0.175500
C131	C13	0.296600	0.919600	0.166200
H111	H11	0.318200	0.967900	0.152800
C141	C14	0.366900	0.856700	0.171600
H121	H12	0.433300	0.861200	0.161100
C151	C15	0.512300	0.715300	0.188700
H131	H13	0.544700	0.761600	0.177400
C161	C16	0.564900	0.645000	0.194700
H141	H14	0.634200	0.642900	0.187800
C171	C17	0.519400	0.577500	0.210600
H151	H15	0.556800	0.529100	0.215100
C181	C18	0.414000	0.581300	0.220200
H161	H16	0.381800	0.533900	0.230300
C191	C19	0.336400	0.787800	0.192800
C201	C20	0.404500	0.718800	0.199800
C211	C21	0.875100	0.670100	0.332400
H171	H17	0.896600	0.616300	0.338100
C221	C22	0.773300	0.688000	0.335000
H181	H18	0.725800	0.647800	0.342800
C231	C23	0.743200	0.766300	0.325700
H191	H19	0.673600	0.779900	0.326300
C241	C24	0.813300	0.825600	0.315600
H201	H20	0.792100	0.879600	0.310000
C251	C25	0.977700	0.947100	0.297600
H211	H21	0.910300	0.966800	0.297600
C261	C26	0.059200	0.999800	0.290700
H221	H22	0.047500	0.055800	0.286000
C271	C27	0.157400	0.969100	0.291000
H231	H23	0.213200	0.003800	0.286300
C281	C28	0.172300	0.885200	0.298200
H241	H24	0.239200	0.864400	0.299500
C291	C29	0.915600	0.804400	0.313800
C301	C30	0.998400	0.864100	0.304600
Mo91	Mo9	0.721350	0.894300	0.565540
Mo101	Mo10	0.699940	0.047400	0.592310
Mo111	Mo11	0.648620	0.207630	0.516370
Mo121	Mo12	0.636530	0.174200	0.433710
Mo131	Mo13	0.666750	0.966900	0.398210
Mo141	Mo14	0.695310	0.846010	0.453530
Mo151	Mo15	0.805080	0.153530	0.263090
Mo161	Mo16	0.890210	0.189640	0.192090
Cd31	Cd3	0.022100	0.040530	0.442830
Cd41	Cd4	0.894080	0.247690	0.433940
P51	P5	0.790790	0.034970	0.491350
P61	P6	0.823800	0.117600	0.369400
P71	P7	0.114850	0.230240	0.484320
P81	P8	0.831700	0.225640	0.591870
O281	O28	0.820700	0.976000	0.586730
O291	O29	0.606700	0.973600	0.558880
O301	O30	0.759700	0.944500	0.500660
O311	O31	0.137900	0.163700	0.450020
O321	O32	0.647200	0.821600	0.517410
O331	O33	0.562600	0.128700	0.483380
O341	O34	0.742200	0.230400	0.468870
O351	O35	0.745700	0.183000	0.386170
O361	O36	0.740200	0.059100	0.447840
O371	O37	0.576900	0.075700	0.398150
O381	O38	0.587500	0.931600	0.448740
O391	O39	0.783800	0.897200	0.411980
O401	O40	0.172300	0.213600	0.526440
O411	O41	0.744400	0.091500	0.526230
O421	O42	0.601400	0.144900	0.573110
O431	O43	0.803800	0.139500	0.606790
O441	O44	0.759800	0.258500	0.556310
O451	O45	0.771100	0.033700	0.363860
O461	O46	0.907500	0.041500	0.493920
O471	O47	0.914600	0.119700	0.401570
O481	O48	0.000300	0.233200	0.490920
O491	O49	0.146400	0.316500	0.466550
O501	O50	0.943100	0.220400	0.573710
O511	O51	0.940200	0.195400	0.251610
O521	O52	0.749300	0.199800	0.209270
O531	O53	0.861600	0.145500	0.325510
O541	O54	0.835800	0.284100	0.629910
N71	N7	0.893200	0.388300	0.436800
N81	N8	0.008500	0.295500	0.382400
N91	N9	0.762300	0.280000	0.292900
N101	N10	0.641300	0.149900	0.284600
N111	N11	0.053700	0.226400	0.178100
N121	N12	0.907100	0.333500	0.196400
C311	C31	0.839900	0.429300	0.464700
H251	H25	0.792900	0.400900	0.481500
C321	C32	0.851000	0.515100	0.470500
H261	H26	0.806800	0.543900	0.488500
C331	C33	0.929100	0.556400	0.449000
H271	H27	0.942400	0.612000	0.454300
C341	C34	0.986000	0.512700	0.419800
H281	H28	0.036400	0.539000	0.403900
C351	C35	0.095100	0.411100	0.354800
H291	H29	0.106400	0.467900	0.355400
C361	C36	0.145900	0.363200	0.326000
H301	H30	0.193200	0.386500	0.307400
C371	C37	0.125400	0.275800	0.324900
H311	H31	0.157000	0.240700	0.305300
C381	C38	0.056500	0.247600	0.354300
H321	H32	0.042300	0.191200	0.354700
C391	C39	0.966500	0.425900	0.414100
C401	C40	0.027300	0.376200	0.383000
C411	C41	0.829600	0.338800	0.300200
H331	H33	0.897300	0.330600	0.291700
C421	C42	0.803700	0.415200	0.320500
H341	H34	0.850600	0.458200	0.324500
C431	C43	0.703400	0.419600	0.333800
H351	H35	0.681800	0.467900	0.347200
C441	C44	0.633100	0.356700	0.328400
H361	H36	0.566700	0.361200	0.338900
C451	C45	0.487700	0.215300	0.311300
H371	H37	0.455300	0.261600	0.322600
C461	C46	0.435100	0.145000	0.305300
H381	H38	0.365800	0.142900	0.312200
C471	C47	0.480600	0.077500	0.289400
H391	H39	0.443200	0.029100	0.284900
C481	C48	0.586000	0.081300	0.279800
H401	H40	0.618200	0.033900	0.269700
C491	C49	0.663600	0.287800	0.307200
C501	C50	0.595500	0.218800	0.300200
C511	C51	0.124900	0.170100	0.167600
H411	H41	0.103400	0.116300	0.161900
C521	C52	0.226700	0.188000	0.165000
H421	H42	0.274200	0.147800	0.157200
C531	C53	0.256800	0.266300	0.174300
H431	H43	0.326400	0.279900	0.173700
C541	C54	0.186700	0.325600	0.184400
H441	H44	0.207900	0.379600	0.190000
C551	C55	0.022300	0.447100	0.202400
H451	H45	0.089700	0.466800	0.202400
C561	C56	0.940800	0.499800	0.209300
H461	H46	0.952500	0.555800	0.214000
C571	C57	0.842600	0.469100	0.209000
H471	H47	0.786800	0.503800	0.213700
C581	C58	0.827700	0.385200	0.201800
H481	H48	0.760800	0.364400	0.200500
C591	C59	0.084400	0.304400	0.186200
C601	C60	0.001600	0.364100	0.195400
Mo171	Mo17	0.721350	0.605700	0.065540
Mo181	Mo18	0.699940	0.452600	0.092310
Mo191	Mo19	0.648620	0.292370	0.016370
Mo201	Mo20	0.636530	0.325800	0.933710
Mo211	Mo21	0.666750	0.533100	0.898210
Mo221	Mo22	0.695310	0.653990	0.953530
Mo231	Mo23	0.805080	0.346470	0.763090
Mo241	Mo24	0.890210	0.310360	0.692090
Cd51	Cd5	0.022100	0.459470	0.942830
Cd61	Cd6	0.894080	0.252310	0.933940
P91	P9	0.790790	0.465030	0.991350
P101	P10	0.823800	0.382400	0.869400
P111	P11	0.114850	0.269760	0.984320
P121	P12	0.831700	0.274360	0.091870
O551	O55	0.820700	0.524000	0.086730
O561	O56	0.606700	0.526400	0.058880
O571	O57	0.759700	0.555500	0.000660
O581	O58	0.137900	0.336300	0.950020
O591	O59	0.647200	0.678400	0.017410
O601	O60	0.562600	0.371300	0.983380
O611	O61	0.742200	0.269600	0.968870
O621	O62	0.745700	0.317000	0.886170
O631	O63	0.740200	0.440900	0.947840
O641	O64	0.576900	0.424300	0.898150
O651	O65	0.587500	0.568400	0.948740
O661	O66	0.783800	0.602800	0.911980
O671	O67	0.172300	0.286400	0.026440
O681	O68	0.744400	0.408500	0.026230
O691	O69	0.601400	0.355100	0.073110
O701	O70	0.803800	0.360500	0.106790
O711	O71	0.759800	0.241500	0.056310
O721	O72	0.771100	0.466300	0.863860
O731	O73	0.907500	0.458500	0.993920
O741	O74	0.914600	0.380300	0.901570
O751	O75	0.000300	0.266800	0.990920
O761	O76	0.146400	0.183500	0.966550
O771	O77	0.943100	0.279600	0.073710
O781	O78	0.940200	0.304600	0.751610
O791	O79	0.749300	0.300200	0.709270
O801	O80	0.861600	0.354500	0.825510
O811	O81	0.835800	0.215900	0.129910
N131	N13	0.893200	0.111700	0.936800
N141	N14	0.008500	0.204500	0.882400
N151	N15	0.762300	0.220000	0.792900
N161	N16	0.641300	0.350100	0.784600
N171	N17	0.053700	0.273600	0.678100
N181	N18	0.907100	0.166500	0.696400
C611	C61	0.839900	0.070700	0.964700
H491	H49	0.792900	0.099100	0.981500
C621	C62	0.851000	0.984900	0.970500
H501	H50	0.806800	0.956100	0.988500
C631	C63	0.929100	0.943600	0.949000
H511	H51	0.942400	0.888000	0.954300
C641	C64	0.986000	0.987300	0.919800
H521	H52	0.036400	0.961000	0.903900
C651	C65	0.095100	0.088900	0.854800
H531	H53	0.106400	0.032100	0.855400
C661	C66	0.145900	0.136800	0.826000
H541	H54	0.193200	0.113500	0.807400
C671	C67	0.125400	0.224200	0.824900
H551	H55	0.157000	0.259300	0.805300
C681	C68	0.056500	0.252400	0.854300
H561	H56	0.042300	0.308800	0.854700
C691	C69	0.966500	0.074100	0.914100
C701	C70	0.027300	0.123800	0.883000
C711	C71	0.829600	0.161200	0.800200
H571	H57	0.897300	0.169400	0.791700
C721	C72	0.803700	0.084800	0.820500
H581	H58	0.850600	0.041800	0.824500
C731	C73	0.703400	0.080400	0.833800
H591	H59	0.681800	0.032100	0.847200
C741	C74	0.633100	0.143300	0.828400
H601	H60	0.566700	0.138800	0.838900
C751	C75	0.487700	0.284700	0.811300
H611	H61	0.455300	0.238400	0.822600
C761	C76	0.435100	0.355000	0.805300
H621	H62	0.365800	0.357100	0.812200
C771	C77	0.480600	0.422500	0.789400
H631	H63	0.443200	0.470900	0.784900
C781	C78	0.586000	0.418700	0.779800
H641	H64	0.618200	0.466100	0.769700
C791	C79	0.663600	0.212200	0.807200
C801	C80	0.595500	0.281200	0.800200
C811	C81	0.124900	0.329900	0.667600
H651	H65	0.103400	0.383700	0.661900
C821	C82	0.226700	0.312000	0.665000
H661	H66	0.274200	0.352200	0.657200
C831	C83	0.256800	0.233700	0.674300
H671	H67	0.326400	0.220100	0.673700
C841	C84	0.186700	0.174400	0.684400
H681	H68	0.207900	0.120400	0.690000
C851	C85	0.022300	0.052900	0.702400
H691	H69	0.089700	0.033200	0.702400
C861	C86	0.940800	0.000200	0.709300
H701	H70	0.952500	0.944200	0.714000
C871	C87	0.842600	0.030900	0.709000
H711	H71	0.786800	0.996200	0.713700
C881	C88	0.827700	0.114800	0.701800
H721	H72	0.760800	0.135600	0.700500
C891	C89	0.084400	0.195600	0.686200
C901	C90	0.001600	0.135900	0.695400
Mo251	Mo25	0.278650	0.105700	0.434460
Mo261	Mo26	0.300060	0.952600	0.407690
Mo271	Mo27	0.351380	0.792370	0.483630
Mo281	Mo28	0.363470	0.825800	0.566290
Mo291	Mo29	0.333250	0.033100	0.601790
Mo301	Mo30	0.304690	0.153990	0.546470
Mo311	Mo31	0.194920	0.846470	0.736910
Mo321	Mo32	0.109790	0.810360	0.807910
Cd71	Cd7	0.977900	0.959470	0.557170
Cd81	Cd8	0.105920	0.752310	0.566060
P131	P13	0.209210	0.965030	0.508650
P141	P14	0.176200	0.882400	0.630600
P151	P15	0.885150	0.769760	0.515680
P161	P16	0.168300	0.774360	0.408130
O821	O82	0.179300	0.024000	0.413270
O831	O83	0.393300	0.026400	0.441120
O841	O84	0.240300	0.055500	0.499340
O851	O85	0.862100	0.836300	0.549980
O861	O86	0.352800	0.178400	0.482590
O871	O87	0.437400	0.871300	0.516620
O881	O88	0.257800	0.769600	0.531130
O891	O89	0.254300	0.817000	0.613830
O901	O90	0.259800	0.940900	0.552160
O911	O91	0.423100	0.924300	0.601850
O921	O92	0.412500	0.068400	0.551260
O931	O93	0.216200	0.102800	0.588020
O941	O94	0.827700	0.786400	0.473560
O951	O95	0.255600	0.908500	0.473770
O961	O96	0.398600	0.855100	0.426890
O971	O97	0.196200	0.860500	0.393210
O981	O98	0.240200	0.741500	0.443690
O991	O99	0.228900	0.966300	0.636140
O1001	O100	0.092500	0.958500	0.506080
O1011	O101	0.085400	0.880300	0.598430
O1021	O102	0.999700	0.766800	0.509080
O1031	O103	0.853600	0.683500	0.533450
O1041	O104	0.056900	0.779600	0.426290
O1051	O105	0.059800	0.804600	0.748390
O1061	O106	0.250700	0.800200	0.790730
O1071	O107	0.138400	0.854500	0.674490
O1081	O108	0.164200	0.715900	0.370090
N191	N19	0.106800	0.611700	0.563200
N201	N20	0.991500	0.704500	0.617600
N211	N21	0.237700	0.720000	0.707100
N221	N22	0.358700	0.850100	0.715400
N231	N23	0.946300	0.773600	0.821900
N241	N24	0.092900	0.666500	0.803600
C911	C91	0.160100	0.570700	0.535300
H731	H73	0.207100	0.599100	0.518500
C921	C92	0.149000	0.484900	0.529500
H741	H74	0.193200	0.456100	0.511500
C931	C93	0.070900	0.443600	0.551000
H751	H75	0.057600	0.388000	0.545700
C941	C94	0.014000	0.487300	0.580200
H761	H76	0.963600	0.461000	0.596100
C951	C95	0.904900	0.588900	0.645200
H771	H77	0.893600	0.532100	0.644600
C961	C96	0.854100	0.636800	0.674000
H781	H78	0.806800	0.613500	0.692600
C971	C97	0.874600	0.724200	0.675100
H791	H79	0.843000	0.759300	0.694700
C981	C98	0.943500	0.752400	0.645700
H801	H80	0.957700	0.808800	0.645300
C991	C99	0.033500	0.574100	0.585900
C1001	C100	0.972700	0.623800	0.617000
C1011	C101	0.170400	0.661200	0.699800
H811	H81	0.102700	0.669400	0.708300
C1021	C102	0.196300	0.584800	0.679500
H821	H82	0.149400	0.541800	0.675500
C1031	C103	0.296600	0.580400	0.666200
H831	H83	0.318200	0.532100	0.652800
C1041	C104	0.366900	0.643300	0.671600
H841	H84	0.433300	0.638800	0.661100
C1051	C105	0.512300	0.784700	0.688700
H851	H85	0.544700	0.738400	0.677400
C1061	C106	0.564900	0.855000	0.694700
H861	H86	0.634200	0.857100	0.687800
C1071	C107	0.519400	0.922500	0.710600
H871	H87	0.556800	0.970900	0.715100
C1081	C108	0.414000	0.918700	0.720200
H881	H88	0.381800	0.966100	0.730300
C1091	C109	0.336400	0.712200	0.692800
C1101	C110	0.404500	0.781200	0.699800
C1111	C111	0.875100	0.829900	0.832400
H891	H89	0.896600	0.883700	0.838100
C1121	C112	0.773300	0.812000	0.835000
H901	H90	0.725800	0.852200	0.842800
C1131	C113	0.743200	0.733700	0.825700
H911	H91	0.673600	0.720100	0.826300
C1141	C114	0.813300	0.674400	0.815600
H921	H92	0.792100	0.620400	0.810000
C1151	C115	0.977700	0.552900	0.797600
H931	H93	0.910300	0.533200	0.797600
C1161	C116	0.059200	0.500200	0.790700
H941	H94	0.047500	0.444200	0.786000
C1171	C117	0.157400	0.530900	0.791000
H951	H95	0.213200	0.496200	0.786300
C1181	C118	0.172300	0.614800	0.798200
H961	H96	0.239200	0.635600	0.799500
C1191	C119	0.915600	0.695600	0.813800
C1201	C120	0.998400	0.635900	0.804600
Cd91	Cd9	0.500000	0.500000	0.000000
Cd101	Cd10	0.500000	0.000000	0.500000
