data_DACXUB_clean_PM
_symmetry_space_group_name_H-M	'P1'
_cell_length_a	10.802000
_cell_length_b	12.143000
_cell_length_c	12.245000
_cell_angle_alpha	94.031000
_cell_angle_beta	106.641000
_cell_angle_gamma	101.356000
_symmetry_Int_Tables_number 1

loop_
_symmetry_equiv_pos_as_xyz
'x,y,z'

loop_
_atom_site_label
_atom_site_type_symbol
_atom_site_fract_x
_atom_site_fract_y
_atom_site_fract_z
Ho11	Ho1	0.917000	0.190340	0.001880
Ho21	Ho2	0.083000	0.809660	0.998120
H11	H1	0.978100	0.185900	0.713600
H21	H2	0.981400	0.210400	0.531300
H31	H3	0.013800	0.866500	0.660900
H41	H4	0.107900	0.466700	0.336800
H51	H5	0.238400	0.606500	0.510100
H61	H6	0.742800	0.302600	0.316100
H71	H7	0.398200	0.330500	0.091800
H81	H8	0.639700	0.413100	0.168600
H91	H9	0.179300	0.457300	0.831200
H101	H10	0.717300	0.933300	0.977400
H111	H11	0.500800	0.828600	0.907200
H121	H12	0.338200	0.910700	0.803000
H131	H13	0.275700	0.079600	0.713100
H141	H14	0.334000	0.262300	0.689300
H151	H15	0.514700	0.435800	0.707100
H161	H16	0.733200	0.524100	0.779200
H171	H17	0.881300	0.430800	0.884000
H181	H18	0.021900	0.814100	0.286400
H191	H19	0.018600	0.789600	0.468700
H201	H20	0.986200	0.133500	0.339100
H211	H21	0.892100	0.533300	0.663200
H221	H22	0.761600	0.393500	0.489900
H231	H23	0.257200	0.697400	0.683900
H241	H24	0.601800	0.669500	0.908200
H251	H25	0.360300	0.586900	0.831400
H261	H26	0.820700	0.542700	0.168800
H271	H27	0.282700	0.066700	0.022600
H281	H28	0.499200	0.171400	0.092800
H291	H29	0.661800	0.089300	0.197000
H301	H30	0.724300	0.920400	0.286900
H311	H31	0.666000	0.737700	0.310700
H321	H32	0.485300	0.564200	0.292900
H331	H33	0.266800	0.475900	0.220800
H341	H34	0.118700	0.569200	0.116000
C11	C1	0.991600	0.006000	0.823400
C21	C2	0.993500	0.020700	0.703300
C31	C3	0.984800	0.126400	0.665100
C41	C4	0.986400	0.140300	0.556100
C51	C5	0.995500	0.052800	0.480400
C61	C6	0.005200	0.935000	0.633500
C71	C7	0.912000	0.317500	0.193300
C81	C8	0.925000	0.376600	0.309200
C91	C9	0.038400	0.452300	0.368100
C101	C10	0.052500	0.510300	0.477600
C111	C11	0.168100	0.590500	0.540400
C121	C12	0.820700	0.355100	0.356400
C131	C13	0.149700	0.306100	0.972700
C141	C14	0.270300	0.381000	0.964200
C151	C15	0.391200	0.382600	0.039400
C161	C16	0.505200	0.461000	0.039700
C171	C17	0.630900	0.464900	0.116100
C181	C18	0.260900	0.458700	0.884300
C191	C19	0.651900	0.967200	0.935900
C201	C20	0.521700	0.903400	0.893500
C211	C21	0.425600	0.952100	0.831800
C221	C22	0.458300	0.062900	0.811900
C231	C23	0.363400	0.119000	0.745600
C241	C24	0.398500	0.226700	0.729500
C251	C25	0.531600	0.287600	0.772200
C261	C26	0.575200	0.398600	0.750600
C271	C27	0.703800	0.450500	0.792600
C281	C28	0.792300	0.393700	0.856100
C291	C29	0.628300	0.234300	0.836200
C301	C30	0.589700	0.120900	0.858500
C311	C31	0.008400	0.994000	0.176600
C321	C32	0.006500	0.979300	0.296700
C331	C33	0.015200	0.873600	0.334900
C341	C34	0.013600	0.859700	0.443900
C351	C35	0.004500	0.947200	0.519600
C361	C36	0.994800	0.065000	0.366500
C371	C37	0.088000	0.682500	0.806700
C381	C38	0.075000	0.623400	0.690800
C391	C39	0.961600	0.547700	0.631900
C401	C40	0.947500	0.489700	0.522400
C411	C41	0.831900	0.409500	0.459600
C421	C42	0.179300	0.644900	0.643600
C431	C43	0.850300	0.693900	0.027300
C441	C44	0.729700	0.619000	0.035800
C451	C45	0.608800	0.617400	0.960600
C461	C46	0.494800	0.539000	0.960300
C471	C47	0.369100	0.535100	0.883900
C481	C48	0.739100	0.541300	0.115700
C491	C49	0.348100	0.032800	0.064100
C501	C50	0.478300	0.096600	0.106500
C511	C51	0.574400	0.047900	0.168200
C521	C52	0.541700	0.937100	0.188100
C531	C53	0.636600	0.881000	0.254400
C541	C54	0.601500	0.773300	0.270500
C551	C55	0.468400	0.712400	0.227800
C561	C56	0.424800	0.601400	0.249400
C571	C57	0.296200	0.549500	0.207400
C581	C58	0.207700	0.606300	0.143900
C591	C59	0.371700	0.765700	0.163800
C601	C60	0.410300	0.879100	0.141500
N11	N1	0.685800	0.073200	0.919700
N21	N2	0.757600	0.289100	0.879800
N31	N3	0.314200	0.926800	0.080300
N41	N4	0.242400	0.710900	0.120200
O11	O1	0.932000	0.065600	0.866700
O21	O2	0.045600	0.932900	0.871700
O31	O3	0.009100	0.337600	0.154900
O41	O4	0.808700	0.248500	0.138400
O51	O5	0.038000	0.318500	0.913400
O61	O6	0.156700	0.230000	0.038700
O71	O7	0.068000	0.934400	0.133300
O81	O8	0.954400	0.067100	0.128300
O91	O9	0.990900	0.662400	0.845100
O101	O10	0.191300	0.751500	0.861600
O111	O11	0.962000	0.681500	0.086600
O121	O12	0.843300	0.770000	0.961300
