data_DACYUE_clean_PM
_symmetry_space_group_name_H-M	'P1'
_cell_length_a	10.762100
_cell_length_b	21.248400
_cell_length_c	15.566700
_cell_angle_alpha	90.000000
_cell_angle_beta	102.881000
_cell_angle_gamma	90.000000
_symmetry_Int_Tables_number 1

loop_
_symmetry_equiv_pos_as_xyz
'x,y,z'

loop_
_atom_site_label
_atom_site_type_symbol
_atom_site_fract_x
_atom_site_fract_y
_atom_site_fract_z
C11	C1	0.918270	0.292990	0.015980
H11	H1	0.897900	0.250400	0.013000
C21	C2	0.039000	0.379280	0.091230
H21	H2	0.098700	0.394900	0.139100
C31	C3	0.892300	0.396350	0.951760
H31	H3	0.853700	0.423500	0.906800
C41	C4	0.859990	0.333230	0.947970
C51	C5	0.982800	0.419020	0.023060
O11	O1	0.032800	0.217900	0.163090
O21	O2	0.142320	0.301380	0.226650
C61	C6	0.006010	0.316020	0.087710
C71	C7	0.063900	0.273510	0.164190
N11	N1	0.023260	0.483340	0.032400
O31	O3	0.765660	0.251010	0.855990
C81	C8	0.762300	0.309850	0.870010
O41	O4	0.688390	0.348420	0.825520
C91	C9	0.418270	0.792990	0.015980
H41	H4	0.397900	0.750400	0.013000
C101	C10	0.539000	0.879280	0.091230
H51	H5	0.598700	0.894900	0.139100
C111	C11	0.392300	0.896350	0.951760
H61	H6	0.353700	0.923500	0.906800
C121	C12	0.359990	0.833230	0.947970
C131	C13	0.482800	0.919020	0.023060
O51	O5	0.532800	0.717900	0.163090
O61	O6	0.642320	0.801380	0.226650
C141	C14	0.506010	0.816020	0.087710
C151	C15	0.563900	0.773510	0.164190
N21	N2	0.523260	0.983340	0.032400
O71	O7	0.265660	0.751010	0.855990
C161	C16	0.262300	0.809850	0.870010
O81	O8	0.188390	0.848420	0.825520
C171	C17	0.081730	0.292990	0.484020
H71	H7	0.102100	0.250400	0.487000
C181	C18	0.961000	0.379280	0.408770
H81	H8	0.901300	0.394900	0.360900
C191	C19	0.107700	0.396350	0.548240
H91	H9	0.146300	0.423500	0.593200
C201	C20	0.140010	0.333230	0.552030
C211	C21	0.017200	0.419020	0.476940
O91	O9	0.967200	0.217900	0.336910
O101	O10	0.857680	0.301380	0.273350
C221	C22	0.993990	0.316020	0.412290
C231	C23	0.936100	0.273510	0.335810
N31	N3	0.976740	0.483340	0.467600
O111	O11	0.234340	0.251010	0.644010
C241	C24	0.237700	0.309850	0.629990
O121	O12	0.311610	0.348420	0.674480
C251	C25	0.581730	0.792990	0.484020
H101	H10	0.602100	0.750400	0.487000
C261	C26	0.461000	0.879280	0.408770
H111	H11	0.401300	0.894900	0.360900
C271	C27	0.607700	0.896350	0.548240
H121	H12	0.646300	0.923500	0.593200
C281	C28	0.640010	0.833230	0.552030
C291	C29	0.517200	0.919020	0.476940
O131	O13	0.467200	0.717900	0.336910
O141	O14	0.357680	0.801380	0.273350
C301	C30	0.493990	0.816020	0.412290
C311	C31	0.436100	0.773510	0.335810
N41	N4	0.476740	0.983340	0.467600
O151	O15	0.734340	0.751010	0.644010
C321	C32	0.737700	0.809850	0.629990
O161	O16	0.811610	0.848420	0.674480
C331	C33	0.081730	0.707010	0.984020
H131	H13	0.102100	0.749600	0.987000
C341	C34	0.961000	0.620720	0.908770
H141	H14	0.901300	0.605100	0.860900
C351	C35	0.107700	0.603650	0.048240
H151	H15	0.146300	0.576500	0.093200
C361	C36	0.140010	0.666770	0.052030
C371	C37	0.017200	0.580980	0.976940
O171	O17	0.967200	0.782100	0.836910
O181	O18	0.857680	0.698620	0.773350
C381	C38	0.993990	0.683980	0.912290
C391	C39	0.936100	0.726490	0.835810
N51	N5	0.976740	0.516660	0.967600
O191	O19	0.234340	0.748990	0.144010
C401	C40	0.237700	0.690150	0.129990
O201	O20	0.311610	0.651580	0.174480
C411	C41	0.581730	0.207010	0.984020
H161	H16	0.602100	0.249600	0.987000
C421	C42	0.461000	0.120720	0.908770
H171	H17	0.401300	0.105100	0.860900
C431	C43	0.607700	0.103650	0.048240
H181	H18	0.646300	0.076500	0.093200
C441	C44	0.640010	0.166770	0.052030
C451	C45	0.517200	0.080980	0.976940
O211	O21	0.467200	0.282100	0.836910
O221	O22	0.357680	0.198620	0.773350
C461	C46	0.493990	0.183980	0.912290
C471	C47	0.436100	0.226490	0.835810
N61	N6	0.476740	0.016660	0.967600
O231	O23	0.734340	0.248990	0.144010
C481	C48	0.737700	0.190150	0.129990
O241	O24	0.811610	0.151580	0.174480
C491	C49	0.918270	0.707010	0.515980
H191	H19	0.897900	0.749600	0.513000
C501	C50	0.039000	0.620720	0.591230
H201	H20	0.098700	0.605100	0.639100
C511	C51	0.892300	0.603650	0.451760
H211	H21	0.853700	0.576500	0.406800
C521	C52	0.859990	0.666770	0.447970
C531	C53	0.982800	0.580980	0.523060
O251	O25	0.032800	0.782100	0.663090
O261	O26	0.142320	0.698620	0.726650
C541	C54	0.006010	0.683980	0.587710
C551	C55	0.063900	0.726490	0.664190
N71	N7	0.023260	0.516660	0.532400
O271	O27	0.765660	0.748990	0.355990
C561	C56	0.762300	0.690150	0.370010
O281	O28	0.688390	0.651580	0.325520
C571	C57	0.418270	0.207010	0.515980
H221	H22	0.397900	0.249600	0.513000
C581	C58	0.539000	0.120720	0.591230
H231	H23	0.598700	0.105100	0.639100
C591	C59	0.392300	0.103650	0.451760
H241	H24	0.353700	0.076500	0.406800
C601	C60	0.359990	0.166770	0.447970
C611	C61	0.482800	0.080980	0.523060
O291	O29	0.532800	0.282100	0.663090
O301	O30	0.642320	0.198620	0.726650
C621	C62	0.506010	0.183980	0.587710
C631	C63	0.563900	0.226490	0.664190
N81	N8	0.523260	0.016660	0.532400
O311	O31	0.265660	0.248990	0.355990
C641	C64	0.262300	0.190150	0.370010
O321	O32	0.188390	0.151580	0.325520
Mg11	Mg1	0.000000	0.148600	0.250000
Mg21	Mg2	0.500000	0.648600	0.250000
Mg31	Mg3	0.000000	0.851400	0.750000
Mg41	Mg4	0.500000	0.351400	0.750000
