data_DADPEG_clean_PM
_symmetry_space_group_name_H-M	'P1'
_cell_length_a	15.555500
_cell_length_b	16.542900
_cell_length_c	12.396400
_cell_angle_alpha	90.000000
_cell_angle_beta	91.906000
_cell_angle_gamma	90.000000
_symmetry_Int_Tables_number 1

loop_
_symmetry_equiv_pos_as_xyz
'x,y,z'

loop_
_atom_site_label
_atom_site_type_symbol
_atom_site_fract_x
_atom_site_fract_y
_atom_site_fract_z
Er11	Er1	0.118010	0.186080	0.906410
S11	S1	0.104820	0.218540	0.663070
S21	S2	0.189530	0.350920	0.070900
O11	O1	0.056500	0.062700	0.899300
O21	O2	0.100700	0.140300	0.724300
O31	O3	0.082700	0.146400	0.073500
O41	O4	0.022000	0.232800	0.606700
O51	O5	0.137600	0.305100	0.993400
O61	O6	0.119200	0.280500	0.748700
O71	O7	0.074500	0.042900	0.183400
O81	O8	0.174000	0.218000	0.588500
O91	O9	0.262600	0.388400	0.018900
C11	C1	0.066000	0.073500	0.091200
O101	O10	0.134800	0.406000	0.122800
O111	O11	0.235700	0.296300	0.145400
C21	C2	0.043800	0.018500	0.996200
H11	H1	0.085600	0.974200	0.998200
Er21	Er2	0.618010	0.686080	0.906410
S31	S3	0.604820	0.718540	0.663070
S41	S4	0.689530	0.850920	0.070900
O121	O12	0.556500	0.562700	0.899300
O131	O13	0.600700	0.640300	0.724300
O141	O14	0.582700	0.646400	0.073500
O151	O15	0.522000	0.732800	0.606700
O161	O16	0.637600	0.805100	0.993400
O171	O17	0.619200	0.780500	0.748700
O181	O18	0.574500	0.542900	0.183400
O191	O19	0.674000	0.718000	0.588500
O201	O20	0.762600	0.888400	0.018900
C31	C3	0.566000	0.573500	0.091200
O211	O21	0.634800	0.906000	0.122800
O221	O22	0.735700	0.796300	0.145400
C41	C4	0.543800	0.518500	0.996200
H21	H2	0.585600	0.474200	0.998200
Er31	Er3	0.881990	0.186080	0.593590
S51	S5	0.895180	0.218540	0.836930
S61	S6	0.810470	0.350920	0.429100
O231	O23	0.943500	0.062700	0.600700
O241	O24	0.899300	0.140300	0.775700
O251	O25	0.917300	0.146400	0.426500
O261	O26	0.978000	0.232800	0.893300
O271	O27	0.862400	0.305100	0.506600
O281	O28	0.880800	0.280500	0.751300
O291	O29	0.925500	0.042900	0.316600
O301	O30	0.826000	0.218000	0.911500
O311	O31	0.737400	0.388400	0.481100
C51	C5	0.934000	0.073500	0.408800
O321	O32	0.865200	0.406000	0.377200
O331	O33	0.764300	0.296300	0.354600
C61	C6	0.956200	0.018500	0.503800
H31	H3	0.914400	0.974200	0.501800
Er41	Er4	0.381990	0.686080	0.593590
S71	S7	0.395180	0.718540	0.836930
S81	S8	0.310470	0.850920	0.429100
O341	O34	0.443500	0.562700	0.600700
O351	O35	0.399300	0.640300	0.775700
O361	O36	0.417300	0.646400	0.426500
O371	O37	0.478000	0.732800	0.893300
O381	O38	0.362400	0.805100	0.506600
O391	O39	0.380800	0.780500	0.751300
O401	O40	0.425500	0.542900	0.316600
O411	O41	0.326000	0.718000	0.911500
O421	O42	0.237400	0.888400	0.481100
C71	C7	0.434000	0.573500	0.408800
O431	O43	0.365200	0.906000	0.377200
O441	O44	0.264300	0.796300	0.354600
C81	C8	0.456200	0.518500	0.503800
H41	H4	0.414400	0.474200	0.501800
Er51	Er5	0.881990	0.813920	0.093590
S91	S9	0.895180	0.781460	0.336930
S101	S10	0.810470	0.649080	0.929100
O451	O45	0.943500	0.937300	0.100700
O461	O46	0.899300	0.859700	0.275700
O471	O47	0.917300	0.853600	0.926500
O481	O48	0.978000	0.767200	0.393300
O491	O49	0.862400	0.694900	0.006600
O501	O50	0.880800	0.719500	0.251300
O511	O51	0.925500	0.957100	0.816600
O521	O52	0.826000	0.782000	0.411500
O531	O53	0.737400	0.611600	0.981100
C91	C9	0.934000	0.926500	0.908800
O541	O54	0.865200	0.594000	0.877200
O551	O55	0.764300	0.703700	0.854600
C101	C10	0.956200	0.981500	0.003800
H51	H5	0.914400	0.025800	0.001800
Er61	Er6	0.381990	0.313920	0.093590
S111	S11	0.395180	0.281460	0.336930
S121	S12	0.310470	0.149080	0.929100
O561	O56	0.443500	0.437300	0.100700
O571	O57	0.399300	0.359700	0.275700
O581	O58	0.417300	0.353600	0.926500
O591	O59	0.478000	0.267200	0.393300
O601	O60	0.362400	0.194900	0.006600
O611	O61	0.380800	0.219500	0.251300
O621	O62	0.425500	0.457100	0.816600
O631	O63	0.326000	0.282000	0.411500
O641	O64	0.237400	0.111600	0.981100
C111	C11	0.434000	0.426500	0.908800
O651	O65	0.365200	0.094000	0.877200
O661	O66	0.264300	0.203700	0.854600
C121	C12	0.456200	0.481500	0.003800
H61	H6	0.414400	0.525800	0.001800
Er71	Er7	0.118010	0.813920	0.406410
S131	S13	0.104820	0.781460	0.163070
S141	S14	0.189530	0.649080	0.570900
O671	O67	0.056500	0.937300	0.399300
O681	O68	0.100700	0.859700	0.224300
O691	O69	0.082700	0.853600	0.573500
O701	O70	0.022000	0.767200	0.106700
O711	O71	0.137600	0.694900	0.493400
O721	O72	0.119200	0.719500	0.248700
O731	O73	0.074500	0.957100	0.683400
O741	O74	0.174000	0.782000	0.088500
O751	O75	0.262600	0.611600	0.518900
C131	C13	0.066000	0.926500	0.591200
O761	O76	0.134800	0.594000	0.622800
O771	O77	0.235700	0.703700	0.645400
C141	C14	0.043800	0.981500	0.496200
H71	H7	0.085600	0.025800	0.498200
Er81	Er8	0.618010	0.313920	0.406410
S151	S15	0.604820	0.281460	0.163070
S161	S16	0.689530	0.149080	0.570900
O781	O78	0.556500	0.437300	0.399300
O791	O79	0.600700	0.359700	0.224300
O801	O80	0.582700	0.353600	0.573500
O811	O81	0.522000	0.267200	0.106700
O821	O82	0.637600	0.194900	0.493400
O831	O83	0.619200	0.219500	0.248700
O841	O84	0.574500	0.457100	0.683400
O851	O85	0.674000	0.282000	0.088500
O861	O86	0.762600	0.111600	0.518900
C151	C15	0.566000	0.426500	0.591200
O871	O87	0.634800	0.094000	0.622800
O881	O88	0.735700	0.203700	0.645400
C161	C16	0.543800	0.481500	0.496200
H81	H8	0.585600	0.525800	0.498200
Fe11	Fe1	0.000000	0.047280	0.750000
Fe21	Fe2	0.500000	0.547280	0.750000
Fe31	Fe3	0.000000	0.952720	0.250000
Fe41	Fe4	0.500000	0.452720	0.250000
