data_DAFHEZ_clean_PM
_symmetry_space_group_name_H-M	'P1'
_cell_length_a	15.414000
_cell_length_b	11.877000
_cell_length_c	24.154000
_cell_angle_alpha	90.000000
_cell_angle_beta	90.000000
_cell_angle_gamma	90.000000
_symmetry_Int_Tables_number 1

loop_
_symmetry_equiv_pos_as_xyz
'x,y,z'

loop_
_atom_site_label
_atom_site_type_symbol
_atom_site_fract_x
_atom_site_fract_y
_atom_site_fract_z
Co11	Co1	0.550030	0.359510	0.624690
O11	O1	0.428300	0.546300	0.568450
O21	O2	0.469100	0.481000	0.651590
O31	O3	0.356000	0.901500	0.799540
O41	O4	0.445800	0.759600	0.805590
O51	O5	0.394400	0.547400	0.443960
O61	O6	0.333400	0.701300	0.413250
O71	O7	0.055800	0.841600	0.500500
O81	O8	0.028800	0.758400	0.582320
C11	C1	0.381900	0.645500	0.647700
C21	C2	0.402000	0.680800	0.700000
H11	H1	0.443300	0.641500	0.720300
C31	C3	0.362200	0.774000	0.723500
C41	C4	0.299500	0.830100	0.693500
H21	H2	0.272600	0.893100	0.708600
C51	C5	0.276100	0.793600	0.641200
H31	H3	0.232800	0.831000	0.621700
C61	C6	0.316900	0.702000	0.617900
H41	H4	0.301500	0.677700	0.582600
C71	C7	0.429800	0.550100	0.620200
C81	C8	0.389400	0.815400	0.779500
C91	C9	0.254500	0.597800	0.479600
C101	C10	0.195600	0.683100	0.487800
H51	H5	0.204500	0.752300	0.470700
C111	C11	0.123000	0.668000	0.521100
C121	C12	0.107600	0.561600	0.542400
H61	H6	0.058100	0.548600	0.563500
C131	C13	0.164900	0.475000	0.532600
H71	H7	0.153600	0.403700	0.546700
C141	C14	0.239600	0.493500	0.501800
H81	H8	0.279100	0.435500	0.496200
C151	C15	0.331200	0.618100	0.444500
C161	C16	0.062600	0.763200	0.534700
Co21	Co2	0.949970	0.640490	0.124690
O91	O9	0.071700	0.453700	0.068450
O101	O10	0.030900	0.519000	0.151590
O111	O11	0.144000	0.098500	0.299540
O121	O12	0.054200	0.240400	0.305590
O131	O13	0.105600	0.452600	0.943960
O141	O14	0.166600	0.298700	0.913250
O151	O15	0.444200	0.158400	0.000500
O161	O16	0.471200	0.241600	0.082320
C171	C17	0.118100	0.354500	0.147700
C181	C18	0.098000	0.319200	0.200000
H91	H9	0.056700	0.358500	0.220300
C191	C19	0.137800	0.226000	0.223500
C201	C20	0.200500	0.169900	0.193500
H101	H10	0.227400	0.106900	0.208600
C211	C21	0.223900	0.206400	0.141200
H111	H11	0.267200	0.169000	0.121700
C221	C22	0.183100	0.298000	0.117900
H121	H12	0.198500	0.322300	0.082600
C231	C23	0.070200	0.449900	0.120200
C241	C24	0.110600	0.184600	0.279500
C251	C25	0.245500	0.402200	0.979600
C261	C26	0.304400	0.316900	0.987800
H131	H13	0.295500	0.247700	0.970700
C271	C27	0.377000	0.332000	0.021100
C281	C28	0.392400	0.438400	0.042400
H141	H14	0.441900	0.451400	0.063500
C291	C29	0.335100	0.525000	0.032600
H151	H15	0.346400	0.596300	0.046700
C301	C30	0.260400	0.506500	0.001800
H161	H16	0.220900	0.564500	0.996200
C311	C31	0.168800	0.381900	0.944500
C321	C32	0.437400	0.236800	0.034700
Co31	Co3	0.449970	0.859510	0.875310
O171	O17	0.571700	0.046300	0.931550
O181	O18	0.530900	0.981000	0.848410
O191	O19	0.644000	0.401500	0.700460
O201	O20	0.554200	0.259600	0.694410
O211	O21	0.605600	0.047400	0.056040
O221	O22	0.666600	0.201300	0.086750
O231	O23	0.944200	0.341600	0.999500
O241	O24	0.971200	0.258400	0.917680
C331	C33	0.618100	0.145500	0.852300
C341	C34	0.598000	0.180800	0.800000
H171	H17	0.556700	0.141500	0.779700
C351	C35	0.637800	0.274000	0.776500
C361	C36	0.700500	0.330100	0.806500
H181	H18	0.727400	0.393100	0.791400
C371	C37	0.723900	0.293600	0.858800
H191	H19	0.767200	0.331000	0.878300
C381	C38	0.683100	0.202000	0.882100
H201	H20	0.698500	0.177700	0.917400
C391	C39	0.570200	0.050100	0.879800
C401	C40	0.610600	0.315400	0.720500
C411	C41	0.745500	0.097800	0.020400
C421	C42	0.804400	0.183100	0.012200
H211	H21	0.795500	0.252300	0.029300
C431	C43	0.877000	0.168000	0.978900
C441	C44	0.892400	0.061600	0.957600
H221	H22	0.941900	0.048600	0.936500
C451	C45	0.835100	0.975000	0.967400
H231	H23	0.846400	0.903700	0.953300
C461	C46	0.760400	0.993500	0.998200
H241	H24	0.720900	0.935500	0.003800
C471	C47	0.668800	0.118100	0.055500
C481	C48	0.937400	0.263200	0.965300
Co41	Co4	0.050030	0.140490	0.375310
O251	O25	0.928300	0.953700	0.431550
O261	O26	0.969100	0.019000	0.348410
O271	O27	0.856000	0.598500	0.200460
O281	O28	0.945800	0.740400	0.194410
O291	O29	0.894400	0.952600	0.556040
O301	O30	0.833400	0.798700	0.586750
O311	O31	0.555800	0.658400	0.499500
O321	O32	0.528800	0.741600	0.417680
C491	C49	0.881900	0.854500	0.352300
C501	C50	0.902000	0.819200	0.300000
H251	H25	0.943300	0.858500	0.279700
C511	C51	0.862200	0.726000	0.276500
C521	C52	0.799500	0.669900	0.306500
H261	H26	0.772600	0.606900	0.291400
C531	C53	0.776100	0.706400	0.358800
H271	H27	0.732800	0.669000	0.378300
C541	C54	0.816900	0.798000	0.382100
H281	H28	0.801500	0.822300	0.417400
C551	C55	0.929800	0.949900	0.379800
C561	C56	0.889400	0.684600	0.220500
C571	C57	0.754500	0.902200	0.520400
C581	C58	0.695600	0.816900	0.512200
H291	H29	0.704500	0.747700	0.529300
C591	C59	0.623000	0.832000	0.478900
C601	C60	0.607600	0.938400	0.457600
H301	H30	0.558100	0.951400	0.436500
C611	C61	0.664900	0.025000	0.467400
H311	H31	0.653600	0.096300	0.453300
C621	C62	0.739600	0.006500	0.498200
H321	H32	0.779100	0.064500	0.503800
C631	C63	0.831200	0.881900	0.555500
C641	C64	0.562600	0.736800	0.465300
Co51	Co5	0.449970	0.640490	0.375310
O331	O33	0.571700	0.453700	0.431550
O341	O34	0.530900	0.519000	0.348410
O351	O35	0.644000	0.098500	0.200460
O361	O36	0.554200	0.240400	0.194410
O371	O37	0.605600	0.452600	0.556040
O381	O38	0.666600	0.298700	0.586750
O391	O39	0.944200	0.158400	0.499500
O401	O40	0.971200	0.241600	0.417680
C651	C65	0.618100	0.354500	0.352300
C661	C66	0.598000	0.319200	0.300000
H331	H33	0.556700	0.358500	0.279700
C671	C67	0.637800	0.226000	0.276500
C681	C68	0.700500	0.169900	0.306500
H341	H34	0.727400	0.106900	0.291400
C691	C69	0.723900	0.206400	0.358800
H351	H35	0.767200	0.169000	0.378300
C701	C70	0.683100	0.298000	0.382100
H361	H36	0.698500	0.322300	0.417400
C711	C71	0.570200	0.449900	0.379800
C721	C72	0.610600	0.184600	0.220500
C731	C73	0.745500	0.402200	0.520400
C741	C74	0.804400	0.316900	0.512200
H371	H37	0.795500	0.247700	0.529300
C751	C75	0.877000	0.332000	0.478900
C761	C76	0.892400	0.438400	0.457600
H381	H38	0.941900	0.451400	0.436500
C771	C77	0.835100	0.525000	0.467400
H391	H39	0.846400	0.596300	0.453300
C781	C78	0.760400	0.506500	0.498200
H401	H40	0.720900	0.564500	0.503800
C791	C79	0.668800	0.381900	0.555500
C801	C80	0.937400	0.236800	0.465300
Co61	Co6	0.050030	0.359510	0.875310
O411	O41	0.928300	0.546300	0.931550
O421	O42	0.969100	0.481000	0.848410
O431	O43	0.856000	0.901500	0.700460
O441	O44	0.945800	0.759600	0.694410
O451	O45	0.894400	0.547400	0.056040
O461	O46	0.833400	0.701300	0.086750
O471	O47	0.555800	0.841600	0.999500
O481	O48	0.528800	0.758400	0.917680
C811	C81	0.881900	0.645500	0.852300
C821	C82	0.902000	0.680800	0.800000
H411	H41	0.943300	0.641500	0.779700
C831	C83	0.862200	0.774000	0.776500
C841	C84	0.799500	0.830100	0.806500
H421	H42	0.772600	0.893100	0.791400
C851	C85	0.776100	0.793600	0.858800
H431	H43	0.732800	0.831000	0.878300
C861	C86	0.816900	0.702000	0.882100
H441	H44	0.801500	0.677700	0.917400
C871	C87	0.929800	0.550100	0.879800
C881	C88	0.889400	0.815400	0.720500
C891	C89	0.754500	0.597800	0.020400
C901	C90	0.695600	0.683100	0.012200
H451	H45	0.704500	0.752300	0.029300
C911	C91	0.623000	0.668000	0.978900
C921	C92	0.607600	0.561600	0.957600
H461	H46	0.558100	0.548600	0.936500
C931	C93	0.664900	0.475000	0.967400
H471	H47	0.653600	0.403700	0.953300
C941	C94	0.739600	0.493500	0.998200
H481	H48	0.779100	0.435500	0.003800
C951	C95	0.831200	0.618100	0.055500
C961	C96	0.562600	0.763200	0.965300
Co71	Co7	0.550030	0.140490	0.124690
O491	O49	0.428300	0.953700	0.068450
O501	O50	0.469100	0.019000	0.151590
O511	O51	0.356000	0.598500	0.299540
O521	O52	0.445800	0.740400	0.305590
O531	O53	0.394400	0.952600	0.943960
O541	O54	0.333400	0.798700	0.913250
O551	O55	0.055800	0.658400	0.000500
O561	O56	0.028800	0.741600	0.082320
C971	C97	0.381900	0.854500	0.147700
C981	C98	0.402000	0.819200	0.200000
H491	H49	0.443300	0.858500	0.220300
C991	C99	0.362200	0.726000	0.223500
C1001	C100	0.299500	0.669900	0.193500
H501	H50	0.272600	0.606900	0.208600
C1011	C101	0.276100	0.706400	0.141200
H511	H51	0.232800	0.669000	0.121700
C1021	C102	0.316900	0.798000	0.117900
H521	H52	0.301500	0.822300	0.082600
C1031	C103	0.429800	0.949900	0.120200
C1041	C104	0.389400	0.684600	0.279500
C1051	C105	0.254500	0.902200	0.979600
C1061	C106	0.195600	0.816900	0.987800
H531	H53	0.204500	0.747700	0.970700
C1071	C107	0.123000	0.832000	0.021100
C1081	C108	0.107600	0.938400	0.042400
H541	H54	0.058100	0.951400	0.063500
C1091	C109	0.164900	0.025000	0.032600
H551	H55	0.153600	0.096300	0.046700
C1101	C110	0.239600	0.006500	0.001800
H561	H56	0.279100	0.064500	0.996200
C1111	C111	0.331200	0.881900	0.944500
C1121	C112	0.062600	0.736800	0.034700
Co81	Co8	0.949970	0.859510	0.624690
O571	O57	0.071700	0.046300	0.568450
O581	O58	0.030900	0.981000	0.651590
O591	O59	0.144000	0.401500	0.799540
O601	O60	0.054200	0.259600	0.805590
O611	O61	0.105600	0.047400	0.443960
O621	O62	0.166600	0.201300	0.413250
O631	O63	0.444200	0.341600	0.500500
O641	O64	0.471200	0.258400	0.582320
C1131	C113	0.118100	0.145500	0.647700
C1141	C114	0.098000	0.180800	0.700000
H571	H57	0.056700	0.141500	0.720300
C1151	C115	0.137800	0.274000	0.723500
C1161	C116	0.200500	0.330100	0.693500
H581	H58	0.227400	0.393100	0.708600
C1171	C117	0.223900	0.293600	0.641200
H591	H59	0.267200	0.331000	0.621700
C1181	C118	0.183100	0.202000	0.617900
H601	H60	0.198500	0.177700	0.582600
C1191	C119	0.070200	0.050100	0.620200
C1201	C120	0.110600	0.315400	0.779500
C1211	C121	0.245500	0.097800	0.479600
C1221	C122	0.304400	0.183100	0.487800
H611	H61	0.295500	0.252300	0.470700
C1231	C123	0.377000	0.168000	0.521100
C1241	C124	0.392400	0.061600	0.542400
H621	H62	0.441900	0.048600	0.563500
C1251	C125	0.335100	0.975000	0.532600
H631	H63	0.346400	0.903700	0.546700
C1261	C126	0.260400	0.993500	0.501800
H641	H64	0.220900	0.935500	0.496200
C1271	C127	0.168800	0.118100	0.444500
C1281	C128	0.437400	0.263200	0.534700
Co91	Co9	0.500000	0.500000	0.500000
Co101	Co10	0.000000	0.500000	0.000000
Co111	Co11	0.500000	0.000000	0.000000
Co121	Co12	0.000000	0.000000	0.500000
