data_DAFJOM_clean_PM
_symmetry_space_group_name_H-M	'P1'
_cell_length_a	16.616500
_cell_length_b	16.616500
_cell_length_c	15.336600
_cell_angle_alpha	90.000000
_cell_angle_beta	90.000000
_cell_angle_gamma	120.000000
_symmetry_Int_Tables_number 1

loop_
_symmetry_equiv_pos_as_xyz
'x,y,z'

loop_
_atom_site_label
_atom_site_type_symbol
_atom_site_fract_x
_atom_site_fract_y
_atom_site_fract_z
C11	C1	0.445500	0.035100	0.031500
O11	O1	0.520000	0.174900	0.156460
O21	O2	0.385700	0.065300	0.054100
H11	H1	0.410200	0.106400	0.090900
C21	C2	0.964900	0.410400	0.031500
O31	O3	0.825100	0.345100	0.156460
O41	O4	0.934700	0.320400	0.054100
H21	H2	0.893600	0.303800	0.090900
C31	C3	0.589600	0.554500	0.031500
O51	O5	0.654900	0.480000	0.156460
O61	O6	0.679600	0.614300	0.054100
H31	H3	0.696200	0.589800	0.090900
C41	C4	0.554500	0.964900	0.531500
O71	O7	0.480000	0.825100	0.656460
O81	O8	0.614300	0.934700	0.554100
H41	H4	0.589800	0.893600	0.590900
C51	C5	0.035100	0.589600	0.531500
O91	O9	0.174900	0.654900	0.656460
O101	O10	0.065300	0.679600	0.554100
H51	H5	0.106400	0.696200	0.590900
C61	C6	0.410400	0.445500	0.531500
O111	O11	0.345100	0.520000	0.656460
O121	O12	0.320400	0.385700	0.554100
H61	H6	0.303800	0.410200	0.590900
C71	C7	0.035100	0.445500	0.968500
O131	O13	0.174900	0.520000	0.843540
O141	O14	0.065300	0.385700	0.945900
H71	H7	0.106400	0.410200	0.909100
C81	C8	0.410400	0.964900	0.968500
O151	O15	0.345100	0.825100	0.843540
O161	O16	0.320400	0.934700	0.945900
H81	H8	0.303800	0.893600	0.909100
C91	C9	0.554500	0.589600	0.968500
O171	O17	0.480000	0.654900	0.843540
O181	O18	0.614300	0.679600	0.945900
H91	H9	0.589800	0.696200	0.909100
C101	C10	0.964900	0.554500	0.468500
O191	O19	0.825100	0.480000	0.343540
O201	O20	0.934700	0.614300	0.445900
H101	H10	0.893600	0.589800	0.409100
C111	C11	0.589600	0.035100	0.468500
O211	O21	0.654900	0.174900	0.343540
O221	O22	0.679600	0.065300	0.445900
H111	H11	0.696200	0.106400	0.409100
C121	C12	0.445500	0.410400	0.468500
O231	O23	0.520000	0.345100	0.343540
O241	O24	0.385700	0.320400	0.445900
H121	H12	0.410200	0.303800	0.409100
C131	C13	0.554500	0.964900	0.968500
O251	O25	0.480000	0.825100	0.843540
O261	O26	0.614300	0.934700	0.945900
H131	H13	0.589800	0.893600	0.909100
C141	C14	0.035100	0.589600	0.968500
O271	O27	0.174900	0.654900	0.843540
O281	O28	0.065300	0.679600	0.945900
H141	H14	0.106400	0.696200	0.909100
C151	C15	0.410400	0.445500	0.968500
O291	O29	0.345100	0.520000	0.843540
O301	O30	0.320400	0.385700	0.945900
H151	H15	0.303800	0.410200	0.909100
C161	C16	0.445500	0.035100	0.468500
O311	O31	0.520000	0.174900	0.343540
O321	O32	0.385700	0.065300	0.445900
H161	H16	0.410200	0.106400	0.409100
C171	C17	0.964900	0.410400	0.468500
O331	O33	0.825100	0.345100	0.343540
O341	O34	0.934700	0.320400	0.445900
H171	H17	0.893600	0.303800	0.409100
C181	C18	0.589600	0.554500	0.468500
O351	O35	0.654900	0.480000	0.343540
O361	O36	0.679600	0.614300	0.445900
H181	H18	0.696200	0.589800	0.409100
C191	C19	0.964900	0.554500	0.031500
O371	O37	0.825100	0.480000	0.156460
O381	O38	0.934700	0.614300	0.054100
H191	H19	0.893600	0.589800	0.090900
C201	C20	0.589600	0.035100	0.031500
O391	O39	0.654900	0.174900	0.156460
O401	O40	0.679600	0.065300	0.054100
H201	H20	0.696200	0.106400	0.090900
C211	C21	0.445500	0.410400	0.031500
O411	O41	0.520000	0.345100	0.156460
O421	O42	0.385700	0.320400	0.054100
H211	H21	0.410200	0.303800	0.090900
C221	C22	0.035100	0.445500	0.531500
O431	O43	0.174900	0.520000	0.656460
O441	O44	0.065300	0.385700	0.554100
H221	H22	0.106400	0.410200	0.590900
C231	C23	0.410400	0.964900	0.531500
O451	O45	0.345100	0.825100	0.656460
O461	O46	0.320400	0.934700	0.554100
H231	H23	0.303800	0.893600	0.590900
C241	C24	0.554500	0.589600	0.531500
O471	O47	0.480000	0.654900	0.656460
O481	O48	0.614300	0.679600	0.554100
H241	H24	0.589800	0.696200	0.590900
Mg11	Mg1	0.530070	0.265030	0.250000
N11	N1	0.381300	0.190650	0.250000
C251	C25	0.199100	0.099550	0.250000
C261	C26	0.093800	0.046900	0.250000
Mg21	Mg2	0.734970	0.265030	0.250000
N21	N2	0.809350	0.190650	0.250000
C271	C27	0.900450	0.099550	0.250000
C281	C28	0.953100	0.046900	0.250000
Mg31	Mg3	0.734970	0.469930	0.250000
N31	N3	0.809350	0.618700	0.250000
C291	C29	0.900450	0.800900	0.250000
C301	C30	0.953100	0.906200	0.250000
Mg41	Mg4	0.469930	0.734970	0.750000
N41	N4	0.618700	0.809350	0.750000
C311	C31	0.800900	0.900450	0.750000
C321	C32	0.906200	0.953100	0.750000
Mg51	Mg5	0.265030	0.734970	0.750000
N51	N5	0.190650	0.809350	0.750000
C331	C33	0.099550	0.900450	0.750000
C341	C34	0.046900	0.953100	0.750000
Mg61	Mg6	0.265030	0.530070	0.750000
N61	N6	0.190650	0.381300	0.750000
C351	C35	0.099550	0.199100	0.750000
C361	C36	0.046900	0.093800	0.750000
C371	C37	0.572600	0.145200	0.130800
C381	C38	0.535050	0.070100	0.062700
C391	C39	0.854800	0.427400	0.130800
C401	C40	0.929900	0.464950	0.062700
C411	C41	0.572600	0.427400	0.130800
C421	C42	0.535050	0.464950	0.062700
C431	C43	0.427400	0.854800	0.630800
C441	C44	0.464950	0.929900	0.562700
C451	C45	0.145200	0.572600	0.630800
C461	C46	0.070100	0.535050	0.562700
C471	C47	0.427400	0.572600	0.630800
C481	C48	0.464950	0.535050	0.562700
C491	C49	0.145200	0.572600	0.869200
C501	C50	0.070100	0.535050	0.937300
C511	C51	0.427400	0.854800	0.869200
C521	C52	0.464950	0.929900	0.937300
C531	C53	0.427400	0.572600	0.869200
C541	C54	0.464950	0.535050	0.937300
C551	C55	0.854800	0.427400	0.369200
C561	C56	0.929900	0.464950	0.437300
C571	C57	0.572600	0.145200	0.369200
C581	C58	0.535050	0.070100	0.437300
C591	C59	0.572600	0.427400	0.369200
C601	C60	0.535050	0.464950	0.437300
C611	C61	0.337200	0.239700	0.250000
H251	H25	0.370600	0.304300	0.250000
C621	C62	0.242700	0.193300	0.250000
H261	H26	0.209600	0.224700	0.250000
C631	C63	0.760300	0.097500	0.250000
H271	H27	0.695700	0.066300	0.250000
C641	C64	0.806700	0.049400	0.250000
H281	H28	0.775300	0.984900	0.250000
C651	C65	0.902500	0.662800	0.250000
H291	H29	0.933700	0.629400	0.250000
C661	C66	0.950600	0.757300	0.250000
H301	H30	0.015100	0.790400	0.250000
C671	C67	0.662800	0.760300	0.750000
H311	H31	0.629400	0.695700	0.750000
C681	C68	0.757300	0.806700	0.750000
H321	H32	0.790400	0.775300	0.750000
C691	C69	0.239700	0.902500	0.750000
H331	H33	0.304300	0.933700	0.750000
C701	C70	0.193300	0.950600	0.750000
H341	H34	0.224700	0.015100	0.750000
C711	C71	0.097500	0.337200	0.750000
H351	H35	0.066300	0.370600	0.750000
C721	C72	0.049400	0.242700	0.750000
H361	H36	0.984900	0.209600	0.750000
C731	C73	0.239700	0.337200	0.750000
H371	H37	0.304300	0.370600	0.750000
C741	C74	0.193300	0.242700	0.750000
H381	H38	0.224700	0.209600	0.750000
C751	C75	0.097500	0.760300	0.750000
H391	H39	0.066300	0.695700	0.750000
C761	C76	0.049400	0.806700	0.750000
H401	H40	0.984900	0.775300	0.750000
C771	C77	0.662800	0.902500	0.750000
H411	H41	0.629400	0.933700	0.750000
C781	C78	0.757300	0.950600	0.750000
H421	H42	0.790400	0.015100	0.750000
C791	C79	0.760300	0.662800	0.250000
H431	H43	0.695700	0.629400	0.250000
C801	C80	0.806700	0.757300	0.250000
H441	H44	0.775300	0.790400	0.250000
C811	C81	0.902500	0.239700	0.250000
H451	H45	0.933700	0.304300	0.250000
C821	C82	0.950600	0.193300	0.250000
H461	H46	0.015100	0.224700	0.250000
C831	C83	0.337200	0.097500	0.250000
H471	H47	0.370600	0.066300	0.250000
C841	C84	0.242700	0.049400	0.250000
H481	H48	0.209600	0.984900	0.250000
O491	O49	0.666670	0.333330	0.250000
O501	O50	0.333330	0.666670	0.750000
N71	N7	0.047200	0.094400	0.250000
N81	N8	0.905600	0.952800	0.250000
N91	N9	0.047200	0.952800	0.250000
N101	N10	0.952800	0.905600	0.750000
N111	N11	0.094400	0.047200	0.750000
N121	N12	0.952800	0.047200	0.750000
