data_DAFSEL_clean_PM
_symmetry_space_group_name_H-M	'P1'
_cell_length_a	9.121200
_cell_length_b	18.857600
_cell_length_c	8.126500
_cell_angle_alpha	90.000000
_cell_angle_beta	111.963000
_cell_angle_gamma	90.000000
_symmetry_Int_Tables_number 1

loop_
_symmetry_equiv_pos_as_xyz
'x,y,z'

loop_
_atom_site_label
_atom_site_type_symbol
_atom_site_fract_x
_atom_site_fract_y
_atom_site_fract_z
Zn11	Zn1	0.301260	0.529660	0.336510
O11	O1	0.057900	0.602350	0.464700
O21	O2	0.229100	0.626330	0.334600
O31	O3	0.785700	0.948430	0.326400
O41	O4	0.983000	0.977380	0.247100
N11	N1	0.238900	0.472310	0.641600
N21	N2	0.351900	0.483780	0.578600
N31	N3	0.488900	0.458550	0.692400
C11	C1	0.125300	0.643760	0.397500
C21	C2	0.081700	0.720380	0.391000
C31	C3	0.172100	0.773150	0.356100
H11	H1	0.265900	0.761400	0.342400
C41	C4	0.123700	0.842890	0.341600
H21	H2	0.185600	0.878000	0.319800
C51	C5	0.982600	0.860920	0.359400
C61	C6	0.896700	0.808680	0.402400
H31	H3	0.804900	0.820700	0.420400
C71	C7	0.945700	0.739230	0.418900
H41	H4	0.887300	0.704600	0.448900
C81	C8	0.915900	0.933740	0.310800
C91	C9	0.304200	0.439700	0.796800
H51	H5	0.252500	0.425400	0.870500
C101	C10	0.460800	0.430800	0.828600
H61	H6	0.535000	0.409300	0.927800
Zn21	Zn2	0.698740	0.029660	0.163490
O51	O5	0.942100	0.102350	0.035300
O61	O6	0.770900	0.126330	0.165400
O71	O7	0.214300	0.448430	0.173600
O81	O8	0.017000	0.477380	0.252900
N41	N4	0.761100	0.972310	0.858400
N51	N5	0.648100	0.983780	0.921400
N61	N6	0.511100	0.958550	0.807600
C111	C11	0.874700	0.143760	0.102500
C121	C12	0.918300	0.220380	0.109000
C131	C13	0.827900	0.273150	0.143900
H71	H7	0.734100	0.261400	0.157600
C141	C14	0.876300	0.342890	0.158400
H81	H8	0.814400	0.378000	0.180200
C151	C15	0.017400	0.360920	0.140600
C161	C16	0.103300	0.308680	0.097600
H91	H9	0.195100	0.320700	0.079600
C171	C17	0.054300	0.239230	0.081100
H101	H10	0.112700	0.204600	0.051100
C181	C18	0.084100	0.433740	0.189200
C191	C19	0.695800	0.939700	0.703200
H111	H11	0.747500	0.925400	0.629500
C201	C20	0.539200	0.930800	0.671400
H121	H12	0.465000	0.909300	0.572200
Zn31	Zn3	0.698740	0.470340	0.663490
O91	O9	0.942100	0.397650	0.535300
O101	O10	0.770900	0.373670	0.665400
O111	O11	0.214300	0.051570	0.673600
O121	O12	0.017000	0.022620	0.752900
N71	N7	0.761100	0.527690	0.358400
N81	N8	0.648100	0.516220	0.421400
N91	N9	0.511100	0.541450	0.307600
C211	C21	0.874700	0.356240	0.602500
C221	C22	0.918300	0.279620	0.609000
C231	C23	0.827900	0.226850	0.643900
H131	H13	0.734100	0.238600	0.657600
C241	C24	0.876300	0.157110	0.658400
H141	H14	0.814400	0.122000	0.680200
C251	C25	0.017400	0.139080	0.640600
C261	C26	0.103300	0.191320	0.597600
H151	H15	0.195100	0.179300	0.579600
C271	C27	0.054300	0.260770	0.581100
H161	H16	0.112700	0.295400	0.551100
C281	C28	0.084100	0.066260	0.689200
C291	C29	0.695800	0.560300	0.203200
H171	H17	0.747500	0.574600	0.129500
C301	C30	0.539200	0.569200	0.171400
H181	H18	0.465000	0.590700	0.072200
Zn41	Zn4	0.301260	0.970340	0.836510
O131	O13	0.057900	0.897650	0.964700
O141	O14	0.229100	0.873670	0.834600
O151	O15	0.785700	0.551570	0.826400
O161	O16	0.983000	0.522620	0.747100
N101	N10	0.238900	0.027690	0.141600
N111	N11	0.351900	0.016220	0.078600
N121	N12	0.488900	0.041450	0.192400
C311	C31	0.125300	0.856240	0.897500
C321	C32	0.081700	0.779620	0.891000
C331	C33	0.172100	0.726850	0.856100
H191	H19	0.265900	0.738600	0.842400
C341	C34	0.123700	0.657110	0.841600
H201	H20	0.185600	0.622000	0.819800
C351	C35	0.982600	0.639080	0.859400
C361	C36	0.896700	0.691320	0.902400
H211	H21	0.804900	0.679300	0.920400
C371	C37	0.945700	0.760770	0.918900
H221	H22	0.887300	0.795400	0.948900
C381	C38	0.915900	0.566260	0.810800
C391	C39	0.304200	0.060300	0.296800
H231	H23	0.252500	0.074600	0.370500
C401	C40	0.460800	0.069200	0.328600
H241	H24	0.535000	0.090700	0.427800
Zn51	Zn5	0.000000	0.500000	0.500000
Zn61	Zn6	0.000000	0.000000	0.000000
