data_DAFSOV_clean_PM
_symmetry_space_group_name_H-M	'P1'
_cell_length_a	9.267000
_cell_length_b	19.041000
_cell_length_c	8.292000
_cell_angle_alpha	90.000000
_cell_angle_beta	111.164000
_cell_angle_gamma	90.000000
_symmetry_Int_Tables_number 1

loop_
_symmetry_equiv_pos_as_xyz
'x,y,z'

loop_
_atom_site_label
_atom_site_type_symbol
_atom_site_fract_x
_atom_site_fract_y
_atom_site_fract_z
Zn11	Zn1	0.302400	0.469830	0.837510
O11	O1	0.060600	0.397200	0.970200
O21	O2	0.232800	0.372400	0.840800
O31	O3	0.787100	0.049600	0.830600
O41	O4	0.981700	0.020700	0.747300
N11	N1	0.236800	0.529100	0.139100
N21	N2	0.351400	0.517100	0.076800
N31	N3	0.488000	0.541700	0.191100
C11	C1	0.128600	0.355000	0.904400
C21	C2	0.087500	0.277600	0.899300
C31	C3	0.950700	0.258800	0.930300
H11	H1	0.894000	0.293100	0.961200
C41	C4	0.902000	0.188800	0.914000
H21	H2	0.813400	0.176900	0.935600
C51	C5	0.983900	0.136900	0.866000
C61	C6	0.125700	0.154900	0.845700
H31	H3	0.185700	0.120000	0.822400
C71	C7	0.174500	0.224600	0.860900
H41	H4	0.266100	0.236000	0.845200
C81	C8	0.917800	0.064400	0.816200
C91	C9	0.302600	0.560700	0.293200
H51	H5	0.251200	0.574500	0.365800
C101	C10	0.457900	0.569300	0.326400
H61	H6	0.529300	0.590200	0.423900
Zn21	Zn2	0.697600	0.969830	0.662490
O51	O5	0.939400	0.897200	0.529800
O61	O6	0.767200	0.872400	0.659200
O71	O7	0.212900	0.549600	0.669400
O81	O8	0.018300	0.520700	0.752700
N41	N4	0.763200	0.029100	0.360900
N51	N5	0.648600	0.017100	0.423200
N61	N6	0.512000	0.041700	0.308900
C111	C11	0.871400	0.855000	0.595600
C121	C12	0.912500	0.777600	0.600700
C131	C13	0.049300	0.758800	0.569700
H71	H7	0.106000	0.793100	0.538800
C141	C14	0.098000	0.688800	0.586000
H81	H8	0.186600	0.676900	0.564400
C151	C15	0.016100	0.636900	0.634000
C161	C16	0.874300	0.654900	0.654300
H91	H9	0.814300	0.620000	0.677600
C171	C17	0.825500	0.724600	0.639100
H101	H10	0.733900	0.736000	0.654800
C181	C18	0.082200	0.564400	0.683800
C191	C19	0.697400	0.060700	0.206800
H111	H11	0.748800	0.074500	0.134200
C201	C20	0.542100	0.069300	0.173600
H121	H12	0.470700	0.090200	0.076100
Zn31	Zn3	0.697600	0.530170	0.162490
O91	O9	0.939400	0.602800	0.029800
O101	O10	0.767200	0.627600	0.159200
O111	O11	0.212900	0.950400	0.169400
O121	O12	0.018300	0.979300	0.252700
N71	N7	0.763200	0.470900	0.860900
N81	N8	0.648600	0.482900	0.923200
N91	N9	0.512000	0.458300	0.808900
C211	C21	0.871400	0.645000	0.095600
C221	C22	0.912500	0.722400	0.100700
C231	C23	0.049300	0.741200	0.069700
H131	H13	0.106000	0.706900	0.038800
C241	C24	0.098000	0.811200	0.086000
H141	H14	0.186600	0.823100	0.064400
C251	C25	0.016100	0.863100	0.134000
C261	C26	0.874300	0.845100	0.154300
H151	H15	0.814300	0.880000	0.177600
C271	C27	0.825500	0.775400	0.139100
H161	H16	0.733900	0.764000	0.154800
C281	C28	0.082200	0.935600	0.183800
C291	C29	0.697400	0.439300	0.706800
H171	H17	0.748800	0.425500	0.634200
C301	C30	0.542100	0.430700	0.673600
H181	H18	0.470700	0.409800	0.576100
Zn41	Zn4	0.302400	0.030170	0.337510
O131	O13	0.060600	0.102800	0.470200
O141	O14	0.232800	0.127600	0.340800
O151	O15	0.787100	0.450400	0.330600
O161	O16	0.981700	0.479300	0.247300
N101	N10	0.236800	0.970900	0.639100
N111	N11	0.351400	0.982900	0.576800
N121	N12	0.488000	0.958300	0.691100
C311	C31	0.128600	0.145000	0.404400
C321	C32	0.087500	0.222400	0.399300
C331	C33	0.950700	0.241200	0.430300
H191	H19	0.894000	0.206900	0.461200
C341	C34	0.902000	0.311200	0.414000
H201	H20	0.813400	0.323100	0.435600
C351	C35	0.983900	0.363100	0.366000
C361	C36	0.125700	0.345100	0.345700
H211	H21	0.185700	0.380000	0.322400
C371	C37	0.174500	0.275400	0.360900
H221	H22	0.266100	0.264000	0.345200
C381	C38	0.917800	0.435600	0.316200
C391	C39	0.302600	0.939300	0.793200
H231	H23	0.251200	0.925500	0.865800
C401	C40	0.457900	0.930700	0.826400
H241	H24	0.529300	0.909800	0.923900
Zn51	Zn5	0.000000	0.500000	0.000000
Zn61	Zn6	0.000000	0.000000	0.500000
