data_DAGDIZ_clean_PM
_symmetry_space_group_name_H-M	'P1'
_cell_length_a	11.805500
_cell_length_b	15.266800
_cell_length_c	17.069100
_cell_angle_alpha	90.000000
_cell_angle_beta	90.000000
_cell_angle_gamma	92.452000
_symmetry_Int_Tables_number 1

loop_
_symmetry_equiv_pos_as_xyz
'x,y,z'

loop_
_atom_site_label
_atom_site_type_symbol
_atom_site_fract_x
_atom_site_fract_y
_atom_site_fract_z
Cd11	Cd1	0.303320	0.271770	0.879010
Cd21	Cd2	0.566990	0.193890	0.825450
Cd31	Cd3	0.744890	0.991610	0.691200
Cd41	Cd4	0.196680	0.228230	0.379010
Cd51	Cd5	0.933010	0.306110	0.325450
Cd61	Cd6	0.755110	0.508390	0.191200
Cd71	Cd7	0.696680	0.728230	0.120990
Cd81	Cd8	0.433010	0.806110	0.174550
Cd91	Cd9	0.255110	0.008390	0.308800
Cd101	Cd10	0.803320	0.771770	0.620990
Cd111	Cd11	0.066990	0.693890	0.674550
Cd121	Cd12	0.244890	0.491610	0.808800
H11	H1	0.656600	0.391500	0.824100
H21	H2	0.569300	0.431200	0.938900
H31	H3	0.547500	0.524600	0.905300
H41	H4	0.913000	0.148000	0.694800
H51	H5	0.920100	0.329900	0.734700
H61	H6	0.965300	0.256100	0.789200
H71	H7	0.108000	0.225800	0.699500
H81	H8	0.030200	0.359500	0.600800
H91	H9	0.129900	0.298600	0.581600
H101	H10	0.612400	0.558800	0.760000
H111	H11	0.669500	0.483200	0.714000
H121	H12	0.827000	0.491600	0.799000
H131	H13	0.722800	0.630500	0.876900
H141	H14	0.843800	0.598100	0.897100
H151	H15	0.764900	0.460700	0.936000
H161	H16	0.813600	0.183700	0.581700
H171	H17	0.823700	0.283600	0.603700
H181	H18	0.007100	0.179100	0.567500
H191	H19	0.843400	0.108500	0.324100
H201	H20	0.930700	0.068800	0.438900
H211	H21	0.952500	0.975400	0.405300
H221	H22	0.587000	0.352000	0.194800
H231	H23	0.579900	0.170100	0.234700
H241	H24	0.534700	0.243900	0.289200
H251	H25	0.392000	0.274200	0.199500
H261	H26	0.469800	0.140500	0.100800
H271	H27	0.370100	0.201400	0.081600
H281	H28	0.887600	0.941200	0.260000
H291	H29	0.830500	0.016800	0.214000
H301	H30	0.673000	0.008400	0.299000
H311	H31	0.777200	0.869500	0.376900
H321	H32	0.656200	0.901900	0.397100
H331	H33	0.735100	0.039300	0.436000
H341	H34	0.686400	0.316300	0.081700
H351	H35	0.676300	0.216400	0.103700
H361	H36	0.492900	0.320900	0.067500
H371	H37	0.343400	0.608500	0.175900
H381	H38	0.430700	0.568800	0.061100
H391	H39	0.452500	0.475400	0.094700
H401	H40	0.087000	0.852000	0.305200
H411	H41	0.079900	0.670100	0.265300
H421	H42	0.034700	0.743900	0.210800
H431	H43	0.892000	0.774200	0.300500
H441	H44	0.969800	0.640500	0.399200
H451	H45	0.870100	0.701400	0.418400
H461	H46	0.387600	0.441200	0.240000
H471	H47	0.330500	0.516800	0.286000
H481	H48	0.173000	0.508400	0.201000
H491	H49	0.277200	0.369500	0.123100
H501	H50	0.156200	0.401900	0.102900
H511	H51	0.235100	0.539300	0.064000
H521	H52	0.186400	0.816300	0.418300
H531	H53	0.176300	0.716400	0.396300
H541	H54	0.992900	0.820900	0.432500
H551	H55	0.156600	0.891500	0.675900
H561	H56	0.069300	0.931200	0.561100
H571	H57	0.047500	0.024600	0.594700
H581	H58	0.413000	0.648000	0.805200
H591	H59	0.420100	0.829900	0.765300
H601	H60	0.465300	0.756100	0.710800
H611	H61	0.608000	0.725800	0.800500
H621	H62	0.530200	0.859500	0.899200
H631	H63	0.629900	0.798600	0.918400
H641	H64	0.112400	0.058800	0.740000
H651	H65	0.169500	0.983200	0.786000
H661	H66	0.327000	0.991600	0.701000
H671	H67	0.222800	0.130500	0.623100
H681	H68	0.343800	0.098100	0.602900
H691	H69	0.264900	0.960700	0.564000
H701	H70	0.313600	0.683700	0.918300
H711	H71	0.323700	0.783600	0.896300
H721	H72	0.507100	0.679100	0.932500
C11	C1	0.488300	0.408900	0.798200
C21	C2	0.608100	0.442000	0.822700
C31	C3	0.599500	0.477100	0.904600
C41	C4	0.763600	0.195000	0.736900
C51	C5	0.876700	0.204500	0.692700
C61	C6	0.955000	0.273500	0.735100
C71	C7	0.070500	0.281500	0.693800
C81	C8	0.056500	0.300600	0.606800
C91	C9	0.661300	0.509700	0.765200
C101	C10	0.778500	0.542100	0.796300
C111	C11	0.837100	0.611500	0.743500
C121	C12	0.769000	0.579500	0.878300
C131	C13	0.715400	0.510700	0.935200
C141	C14	0.706100	0.543100	0.018400
C151	C15	0.861300	0.228500	0.607200
C161	C16	0.141000	0.352300	0.735000
C171	C17	0.974100	0.236800	0.565700
C181	C18	0.961400	0.260700	0.479200
C191	C19	0.011700	0.091100	0.298200
C201	C20	0.891900	0.058000	0.322700
C211	C21	0.900500	0.022900	0.404600
C221	C22	0.736400	0.305000	0.236900
C231	C23	0.623300	0.295500	0.192700
C241	C24	0.545000	0.226500	0.235100
C251	C25	0.429500	0.218500	0.193800
C261	C26	0.443500	0.199400	0.106800
C271	C27	0.838700	0.990300	0.265200
C281	C28	0.721500	0.957900	0.296300
C291	C29	0.662900	0.888500	0.243500
C301	C30	0.731000	0.920500	0.378300
C311	C31	0.784600	0.989300	0.435200
C321	C32	0.793900	0.956900	0.518400
C331	C33	0.638700	0.271500	0.107200
C341	C34	0.359000	0.147700	0.235000
C351	C35	0.525900	0.263200	0.065700
C361	C36	0.538600	0.239300	0.979200
C371	C37	0.511700	0.591100	0.201800
C381	C38	0.391900	0.558000	0.177300
C391	C39	0.400500	0.522900	0.095400
C401	C40	0.236400	0.805000	0.263100
C411	C41	0.123300	0.795500	0.307300
C421	C42	0.045000	0.726500	0.264900
C431	C43	0.929500	0.718500	0.306200
C441	C44	0.943500	0.699400	0.393200
C451	C45	0.338700	0.490300	0.234800
C461	C46	0.221500	0.457900	0.203700
C471	C47	0.162900	0.388500	0.256500
C481	C48	0.231000	0.420500	0.121700
C491	C49	0.284600	0.489300	0.064800
C501	C50	0.293900	0.456900	0.981600
C511	C51	0.138700	0.771500	0.392800
C521	C52	0.859000	0.647700	0.265000
C531	C53	0.025900	0.763200	0.434300
C541	C54	0.038600	0.739300	0.520800
C551	C55	0.988300	0.908900	0.701800
C561	C56	0.108100	0.942000	0.677300
C571	C57	0.099500	0.977100	0.595400
C581	C58	0.263600	0.695000	0.763100
C591	C59	0.376700	0.704500	0.807300
C601	C60	0.455000	0.773500	0.764900
C611	C61	0.570500	0.781500	0.806200
C621	C62	0.556500	0.800600	0.893200
C631	C63	0.161300	0.009700	0.734800
C641	C64	0.278500	0.042100	0.703700
C651	C65	0.337100	0.111500	0.756500
C661	C66	0.269000	0.079500	0.621700
C671	C67	0.215400	0.010700	0.564800
C681	C68	0.206100	0.043100	0.481600
C691	C69	0.361300	0.728500	0.892800
C701	C70	0.641000	0.852300	0.765000
C711	C71	0.474100	0.736800	0.934300
C721	C72	0.461400	0.760700	0.020800
O11	O1	0.459800	0.328300	0.809100
O21	O2	0.716300	0.260700	0.758600
O31	O3	0.720100	0.119900	0.749200
O41	O4	0.423300	0.465700	0.773400
O51	O5	0.779400	0.653500	0.697800
O61	O6	0.942400	0.623600	0.754000
O71	O7	0.697000	0.622800	0.029900
O81	O8	0.704800	0.484300	0.069400
O91	O9	0.173500	0.340200	0.803600
O101	O10	0.162400	0.424500	0.701300
O111	O11	0.049400	0.290700	0.443000
O121	O12	0.868600	0.252300	0.445200
O131	O13	0.040200	0.171700	0.309100
O141	O14	0.783700	0.239300	0.258600
O151	O15	0.779900	0.380100	0.249200
O161	O16	0.076700	0.034300	0.273400
O171	O17	0.720600	0.846500	0.197800
O181	O18	0.557600	0.876400	0.254000
O191	O19	0.803000	0.877200	0.529900
O201	O20	0.795200	0.015700	0.569400
O211	O21	0.326500	0.159800	0.303600
O221	O22	0.337600	0.075500	0.201300
O231	O23	0.450600	0.209300	0.943000
O241	O24	0.631400	0.247700	0.945200
O251	O25	0.540200	0.671700	0.190900
O261	O26	0.283700	0.739300	0.241400
O271	O27	0.279900	0.880100	0.250800
O281	O28	0.576700	0.534300	0.226600
O291	O29	0.220600	0.346500	0.302200
O301	O30	0.057600	0.376400	0.246000
O311	O31	0.303000	0.377200	0.970100
O321	O32	0.295200	0.515700	0.930600
O331	O33	0.826500	0.659800	0.196400
O341	O34	0.837600	0.575500	0.298700
O351	O35	0.950600	0.709300	0.557000
O361	O36	0.131400	0.747700	0.554800
O371	O37	0.959800	0.828300	0.690900
O381	O38	0.216300	0.760700	0.741400
O391	O39	0.220100	0.619900	0.750800
O401	O40	0.923300	0.965700	0.726600
O411	O41	0.279400	0.153500	0.802200
O421	O42	0.442400	0.123600	0.746000
O431	O43	0.197000	0.122800	0.470100
O441	O44	0.204800	0.984300	0.430600
O451	O45	0.673500	0.840200	0.696400
O461	O46	0.662400	0.924500	0.798700
O471	O47	0.549400	0.790700	0.057000
O481	O48	0.368600	0.752300	0.054800
