data_DAGDUL_clean_PM
_symmetry_space_group_name_H-M	'P1'
_cell_length_a	9.043900
_cell_length_b	16.695000
_cell_length_c	26.523000
_cell_angle_alpha	90.000000
_cell_angle_beta	90.000000
_cell_angle_gamma	90.000000
_symmetry_Int_Tables_number 1

loop_
_symmetry_equiv_pos_as_xyz
'x,y,z'

loop_
_atom_site_label
_atom_site_type_symbol
_atom_site_fract_x
_atom_site_fract_y
_atom_site_fract_z
Cd11	Cd1	0.022510	0.589630	0.889870
Cd21	Cd2	0.474530	0.025270	0.021910
Cd31	Cd3	0.477920	0.127740	0.755290
Cd41	Cd4	0.477490	0.089630	0.889870
Cd51	Cd5	0.025470	0.525270	0.021910
Cd61	Cd6	0.022080	0.627740	0.755290
H11	H1	0.381400	0.389100	0.892600
H21	H2	0.503100	0.473200	0.976500
H31	H3	0.506500	0.505000	0.920800
H41	H4	0.664900	0.398100	0.897000
H51	H5	0.753200	0.308100	0.959300
H61	H6	0.658400	0.351400	0.000700
H71	H7	0.539500	0.264300	0.918100
H81	H8	0.299600	0.293600	0.950000
H91	H9	0.367400	0.342200	0.995100
H101	H10	0.654700	0.774400	0.871200
H111	H11	0.507400	0.702600	0.787800
H121	H12	0.505700	0.667400	0.842700
H131	H13	0.381200	0.781800	0.872200
H141	H14	0.300600	0.880500	0.816800
H151	H15	0.374800	0.835700	0.771300
H161	H16	0.531100	0.901000	0.854000
H171	H17	0.748000	0.868100	0.814700
H181	H18	0.660500	0.827700	0.770500
H191	H19	0.541700	0.022200	0.653600
H201	H20	0.406200	0.074300	0.636700
H211	H21	0.409500	0.216400	0.649000
H221	H22	0.550500	0.257100	0.672100
H231	H23	0.763700	0.089100	0.689200
H241	H24	0.760200	0.182600	0.695700
H251	H25	0.780300	0.230300	0.568700
H261	H26	0.771100	0.267400	0.622900
H271	H27	0.781000	0.088800	0.558800
H281	H28	0.773200	0.033100	0.606200
H291	H29	0.423300	0.159500	0.564900
H301	H30	0.570000	0.164800	0.533600
H311	H31	0.118600	0.889100	0.892600
H321	H32	0.996900	0.973200	0.976500
H331	H33	0.993500	0.005000	0.920800
H341	H34	0.835100	0.898100	0.897000
H351	H35	0.746800	0.808100	0.959300
H361	H36	0.841600	0.851400	0.000700
H371	H37	0.960500	0.764300	0.918100
H381	H38	0.200400	0.793600	0.950000
H391	H39	0.132600	0.842200	0.995100
H401	H40	0.845300	0.274400	0.871200
H411	H41	0.992600	0.202600	0.787800
H421	H42	0.994300	0.167400	0.842700
H431	H43	0.118800	0.281800	0.872200
H441	H44	0.199400	0.380500	0.816800
H451	H45	0.125200	0.335700	0.771300
H461	H46	0.968900	0.401000	0.854000
H471	H47	0.752000	0.368100	0.814700
H481	H48	0.839500	0.327700	0.770500
H491	H49	0.958300	0.522200	0.653600
H501	H50	0.093800	0.574300	0.636700
H511	H51	0.090500	0.716400	0.649000
H521	H52	0.949500	0.757100	0.672100
H531	H53	0.736300	0.589100	0.689200
H541	H54	0.739800	0.682600	0.695700
H551	H55	0.719700	0.730300	0.568700
H561	H56	0.728900	0.767400	0.622900
H571	H57	0.719000	0.588800	0.558800
H581	H58	0.726800	0.533100	0.606200
H591	H59	0.076700	0.659500	0.564900
H601	H60	0.930000	0.664800	0.533600
C11	C1	0.241300	0.454800	0.937800
C21	C2	0.377000	0.403600	0.928300
C31	C3	0.509600	0.457100	0.941400
C41	C4	0.657800	0.413300	0.932600
C51	C5	0.661600	0.336700	0.965400
C61	C6	0.531100	0.282500	0.953100
C71	C7	0.380600	0.328300	0.959900
C81	C8	0.784700	0.468200	0.945500
C91	C9	0.529000	0.210000	0.987700
C101	C10	0.787300	0.704600	0.826300
C111	C11	0.655900	0.761000	0.835200
C121	C12	0.510100	0.716500	0.823300
C131	C13	0.376800	0.769000	0.836200
C141	C14	0.237000	0.719600	0.826800
C151	C15	0.383000	0.846600	0.807100
C161	C16	0.528600	0.889900	0.817800
C171	C17	0.658500	0.839100	0.806300
C181	C18	0.531800	0.970400	0.791000
C191	C19	0.513200	0.073300	0.639200
C201	C20	0.516600	0.214000	0.650500
C211	C21	0.728000	0.138600	0.674400
C221	C22	0.737900	0.223200	0.602000
C231	C23	0.738700	0.083400	0.592200
C241	C24	0.530300	0.158700	0.567400
C251	C25	0.258700	0.954800	0.937800
C261	C26	0.123000	0.903600	0.928300
C271	C27	0.990400	0.957100	0.941400
C281	C28	0.842200	0.913300	0.932600
C291	C29	0.838400	0.836700	0.965400
C301	C30	0.968900	0.782500	0.953100
C311	C31	0.119400	0.828300	0.959900
C321	C32	0.715300	0.968200	0.945500
C331	C33	0.971000	0.710000	0.987700
C341	C34	0.712700	0.204600	0.826300
C351	C35	0.844100	0.261000	0.835200
C361	C36	0.989900	0.216500	0.823300
C371	C37	0.123200	0.269000	0.836200
C381	C38	0.263000	0.219600	0.826800
C391	C39	0.117000	0.346600	0.807100
C401	C40	0.971400	0.389900	0.817800
C411	C41	0.841500	0.339100	0.806300
C421	C42	0.968200	0.470400	0.791000
C431	C43	0.986800	0.573300	0.639200
C441	C44	0.983400	0.714000	0.650500
C451	C45	0.772000	0.638600	0.674400
C461	C46	0.762100	0.723200	0.602000
C471	C47	0.761300	0.583400	0.592200
C481	C48	0.969700	0.658700	0.567400
N11	N1	0.561500	0.137200	0.672300
N21	N2	0.578500	0.225700	0.598100
N31	N3	0.791500	0.148300	0.623400
N41	N4	0.577600	0.080600	0.587800
N51	N5	0.938500	0.637200	0.672300
N61	N6	0.921500	0.725700	0.598100
N71	N7	0.708500	0.648300	0.623400
N81	N8	0.922400	0.580600	0.587800
O11	O1	0.220000	0.513900	0.909000
O21	O2	0.494500	0.142600	0.971200
O31	O3	0.846000	0.501800	0.909600
O41	O4	0.834400	0.666500	0.861300
O51	O5	0.466800	0.029300	0.811670
O61	O6	0.183600	0.682500	0.862500
O71	O7	0.160200	0.439500	0.975300
O81	O8	0.815000	0.475800	0.992500
O91	O9	0.834800	0.702400	0.780800
O101	O10	0.190700	0.716800	0.781000
O111	O11	0.590800	0.977400	0.749000
O121	O12	0.567200	0.222300	0.032100
O131	O13	0.280000	0.013900	0.909000
O141	O14	0.005500	0.642600	0.971200
O151	O15	0.654000	0.001800	0.909600
O161	O16	0.665600	0.166500	0.861300
O171	O17	0.033200	0.529300	0.811670
O181	O18	0.316400	0.182500	0.862500
O191	O19	0.339800	0.939500	0.975300
O201	O20	0.685000	0.975800	0.992500
O211	O21	0.665200	0.202400	0.780800
O221	O22	0.309300	0.216800	0.781000
O231	O23	0.909200	0.477400	0.749000
O241	O24	0.932800	0.722300	0.032100
Cd71	Cd7	0.977490	0.410370	0.389870
Cd81	Cd8	0.525470	0.974730	0.521910
Cd91	Cd9	0.522080	0.872260	0.255290
Cd101	Cd10	0.522510	0.910370	0.389870
Cd111	Cd11	0.974530	0.474730	0.521910
Cd121	Cd12	0.977920	0.372260	0.255290
H611	H61	0.458300	0.977800	0.153600
H621	H62	0.593800	0.925700	0.136700
H631	H63	0.590500	0.783600	0.149000
H641	H64	0.449500	0.742900	0.172100
H651	H65	0.236300	0.910900	0.189200
H661	H66	0.239800	0.817400	0.195700
H671	H67	0.219700	0.769700	0.068700
H681	H68	0.228900	0.732600	0.122900
H691	H69	0.219000	0.911200	0.058800
H701	H70	0.226800	0.966900	0.106200
H711	H71	0.576700	0.840500	0.064900
H721	H72	0.430000	0.835200	0.033600
H731	H73	0.618600	0.610900	0.392600
H741	H74	0.496900	0.526800	0.476500
H751	H75	0.493500	0.495000	0.420800
H761	H76	0.335100	0.601900	0.397000
H771	H77	0.246800	0.691900	0.459300
H781	H78	0.341600	0.648600	0.500700
H791	H79	0.460500	0.735700	0.418100
H801	H80	0.700400	0.706400	0.450000
H811	H81	0.632600	0.657800	0.495100
H821	H82	0.345300	0.225600	0.371200
H831	H83	0.492600	0.297400	0.287800
H841	H84	0.494300	0.332600	0.342700
H851	H85	0.618800	0.218200	0.372200
H861	H86	0.699400	0.119500	0.316800
H871	H87	0.625200	0.164300	0.271300
H881	H88	0.468900	0.099000	0.354000
H891	H89	0.252000	0.131900	0.314700
H901	H90	0.339500	0.172300	0.270500
H911	H91	0.041700	0.477800	0.153600
H921	H92	0.906200	0.425700	0.136700
H931	H93	0.909500	0.283600	0.149000
H941	H94	0.050500	0.242900	0.172100
H951	H95	0.263700	0.410900	0.189200
H961	H96	0.260200	0.317400	0.195700
H971	H97	0.280300	0.269700	0.068700
H981	H98	0.271100	0.232600	0.122900
H991	H99	0.281000	0.411200	0.058800
H1001	H100	0.273200	0.466900	0.106200
H1011	H101	0.923300	0.340500	0.064900
H1021	H102	0.070000	0.335200	0.033600
H1031	H103	0.881400	0.110900	0.392600
H1041	H104	0.003100	0.026800	0.476500
H1051	H105	0.006500	0.995000	0.420800
H1061	H106	0.164900	0.101900	0.397000
H1071	H107	0.253200	0.191900	0.459300
H1081	H108	0.158400	0.148600	0.500700
H1091	H109	0.039500	0.235700	0.418100
H1101	H110	0.799600	0.206400	0.450000
H1111	H111	0.867400	0.157800	0.495100
H1121	H112	0.154700	0.725600	0.371200
H1131	H113	0.007400	0.797400	0.287800
H1141	H114	0.005700	0.832600	0.342700
H1151	H115	0.881200	0.718200	0.372200
H1161	H116	0.800600	0.619500	0.316800
H1171	H117	0.874800	0.664300	0.271300
H1181	H118	0.031100	0.599000	0.354000
H1191	H119	0.248000	0.631900	0.314700
H1201	H120	0.160500	0.672300	0.270500
C491	C49	0.486800	0.926700	0.139200
C501	C50	0.483400	0.786000	0.150500
C511	C51	0.272000	0.861400	0.174400
C521	C52	0.262100	0.776800	0.102000
C531	C53	0.261300	0.916600	0.092200
C541	C54	0.469700	0.841300	0.067400
C551	C55	0.758700	0.545200	0.437800
C561	C56	0.623000	0.596400	0.428300
C571	C57	0.490400	0.542900	0.441400
C581	C58	0.342200	0.586700	0.432600
C591	C59	0.338400	0.663300	0.465400
C601	C60	0.468900	0.717500	0.453100
C611	C61	0.619400	0.671700	0.459900
C621	C62	0.215300	0.531800	0.445500
C631	C63	0.471000	0.790000	0.487700
C641	C64	0.212700	0.295400	0.326300
C651	C65	0.344100	0.239000	0.335200
C661	C66	0.489900	0.283500	0.323300
C671	C67	0.623200	0.231000	0.336200
C681	C68	0.763000	0.280400	0.326800
C691	C69	0.617000	0.153400	0.307100
C701	C70	0.471400	0.110100	0.317800
C711	C71	0.341500	0.160900	0.306300
C721	C72	0.468200	0.029600	0.291000
C731	C73	0.013200	0.426700	0.139200
C741	C74	0.016600	0.286000	0.150500
C751	C75	0.228000	0.361400	0.174400
C761	C76	0.237900	0.276800	0.102000
C771	C77	0.238700	0.416600	0.092200
C781	C78	0.030300	0.341300	0.067400
C791	C79	0.741300	0.045200	0.437800
C801	C80	0.877000	0.096400	0.428300
C811	C81	0.009600	0.042900	0.441400
C821	C82	0.157800	0.086700	0.432600
C831	C83	0.161600	0.163300	0.465400
C841	C84	0.031100	0.217500	0.453100
C851	C85	0.880600	0.171700	0.459900
C861	C86	0.284700	0.031800	0.445500
C871	C87	0.029000	0.290000	0.487700
C881	C88	0.287300	0.795400	0.326300
C891	C89	0.155900	0.739000	0.335200
C901	C90	0.010100	0.783500	0.323300
C911	C91	0.876800	0.731000	0.336200
C921	C92	0.737000	0.780400	0.326800
C931	C93	0.883000	0.653400	0.307100
C941	C94	0.028600	0.610100	0.317800
C951	C95	0.158500	0.660900	0.306300
C961	C96	0.031800	0.529600	0.291000
N91	N9	0.438500	0.862800	0.172300
N101	N10	0.421500	0.774300	0.098100
N111	N11	0.208500	0.851700	0.123400
N121	N12	0.422400	0.919400	0.087800
N131	N13	0.061500	0.362800	0.172300
N141	N14	0.078500	0.274300	0.098100
N151	N15	0.291500	0.351700	0.123400
N161	N16	0.077600	0.419400	0.087800
O251	O25	0.780000	0.486100	0.409000
O261	O26	0.505500	0.857400	0.471200
O271	O27	0.154000	0.498200	0.409600
O281	O28	0.165600	0.333500	0.361300
O291	O29	0.533200	0.970700	0.311670
O301	O30	0.816400	0.317500	0.362500
O311	O31	0.839800	0.560500	0.475300
O321	O32	0.185000	0.524200	0.492500
O331	O33	0.165200	0.297600	0.280800
O341	O34	0.809300	0.283200	0.281000
O351	O35	0.409200	0.022600	0.249000
O361	O36	0.432800	0.777700	0.532100
O371	O37	0.720000	0.986100	0.409000
O381	O38	0.994500	0.357400	0.471200
O391	O39	0.346000	0.998200	0.409600
O401	O40	0.334400	0.833500	0.361300
O411	O41	0.966800	0.470700	0.311670
O421	O42	0.683600	0.817500	0.362500
O431	O43	0.660200	0.060500	0.475300
O441	O44	0.315000	0.024200	0.492500
O451	O45	0.334800	0.797600	0.280800
O461	O46	0.690700	0.783200	0.281000
O471	O47	0.090800	0.522600	0.249000
O481	O48	0.067200	0.277700	0.532100
