data_DAGJED_clean_PM
_symmetry_space_group_name_H-M	'P1'
_cell_length_a	8.945000
_cell_length_b	14.856000
_cell_length_c	19.861000
_cell_angle_alpha	91.644000
_cell_angle_beta	101.974000
_cell_angle_gamma	93.755000
_symmetry_Int_Tables_number 1

loop_
_symmetry_equiv_pos_as_xyz
'x,y,z'

loop_
_atom_site_label
_atom_site_type_symbol
_atom_site_fract_x
_atom_site_fract_y
_atom_site_fract_z
Cd11	Cd1	0.959810	0.020520	0.271830
N11	N1	0.784500	0.968000	0.178910
N21	N2	0.658000	0.899400	0.082370
N31	N3	0.211100	0.547000	0.960440
N41	N4	0.404200	0.637800	0.946160
N51	N5	0.850900	0.913390	0.777850
N61	N6	0.697100	0.862100	0.843310
O11	O1	0.839800	0.526990	0.896700
O21	O2	0.914900	0.673610	0.896700
O31	O3	0.981100	0.138190	0.352190
O41	O4	0.792200	0.155180	0.263640
O51	O5	0.149000	0.874430	0.238420
O61	O6	0.133600	0.942240	0.336490
C11	C1	0.683100	0.880600	0.963250
H11	H1	0.742800	0.934900	0.967000
C21	C2	0.626500	0.848200	0.018760
C31	C3	0.536600	0.767800	0.013640
H21	H2	0.500200	0.746900	0.051400
C41	C4	0.501900	0.718900	0.951030
C51	C5	0.556500	0.748600	0.894930
H31	H3	0.533000	0.715400	0.853200
C61	C6	0.647200	0.829000	0.902270
C71	C7	0.796700	0.929400	0.120410
H41	H4	0.889000	0.923200	0.106800
C81	C8	0.630100	0.963200	0.178700
H51	H5	0.587200	0.985400	0.214100
C91	C9	0.550300	0.921700	0.119800
H61	H6	0.444500	0.910300	0.106900
C101	C10	0.276800	0.628600	0.971120
H71	H7	0.239200	0.675200	0.993600
C111	C11	0.302500	0.500800	0.926500
H81	H8	0.285200	0.440200	0.912200
C121	C12	0.421100	0.555900	0.916900
H91	H9	0.498800	0.541200	0.894700
C131	C13	0.841900	0.892500	0.840380
H101	H10	0.924100	0.897800	0.878000
C141	C14	0.705500	0.896000	0.738320
H111	H11	0.677500	0.905100	0.691400
C151	C15	0.609800	0.864100	0.777420
H121	H12	0.506000	0.846800	0.763000
C161	C16	0.857800	0.600400	0.866870
C171	C17	0.810900	0.596100	0.789440
C181	C18	0.754900	0.515100	0.752880
H131	H13	0.738900	0.463400	0.776600
C191	C19	0.723200	0.511100	0.681890
H141	H14	0.687500	0.456400	0.658300
C201	C20	0.743700	0.587500	0.644820
C211	C21	0.795400	0.668800	0.681240
H151	H15	0.807400	0.720900	0.657500
C221	C22	0.829100	0.672900	0.752320
H161	H16	0.864500	0.727700	0.775800
C231	C23	0.708700	0.580800	0.568130
C241	C24	0.746500	0.505700	0.533530
H171	H17	0.796400	0.460600	0.558800
C251	C25	0.711400	0.496600	0.462100
C261	C26	0.636300	0.564700	0.425210
H181	H18	0.614800	0.560100	0.377300
C271	C27	0.592400	0.639500	0.458370
C281	C28	0.632500	0.647600	0.530030
H191	H19	0.608000	0.698400	0.552800
C291	C29	0.751700	0.415200	0.426840
C301	C30	0.657100	0.377800	0.366250
H201	H20	0.566100	0.403600	0.348300
C311	C31	0.696500	0.303400	0.332690
H211	H21	0.632900	0.280900	0.291700
C321	C32	0.828500	0.261400	0.358690
C331	C33	0.922600	0.297300	0.419610
H221	H22	0.011700	0.270000	0.438300
C341	C34	0.884800	0.373200	0.452600
H231	H23	0.949900	0.396600	0.492900
C351	C35	0.870200	0.179200	0.322100
C361	C36	0.496300	0.706500	0.418820
C371	C37	0.497900	0.721000	0.350100
H241	H24	0.565500	0.691300	0.329000
C381	C38	0.400600	0.779100	0.312260
H251	H25	0.402900	0.786900	0.266200
C391	C39	0.300300	0.825600	0.342220
C401	C40	0.299900	0.811900	0.410800
H261	H26	0.234600	0.843000	0.432200
C411	C41	0.394700	0.752900	0.448030
H271	H27	0.390100	0.744100	0.493800
C421	C42	0.186300	0.885000	0.301900
Cd21	Cd2	0.040190	0.979480	0.728170
N71	N7	0.215500	0.032000	0.821090
N81	N8	0.342000	0.100600	0.917630
N91	N9	0.788900	0.453000	0.039560
N101	N10	0.595800	0.362200	0.053840
N111	N11	0.149100	0.086610	0.222150
N121	N12	0.302900	0.137900	0.156690
O71	O7	0.160200	0.473010	0.103300
O81	O8	0.085100	0.326390	0.103300
O91	O9	0.018900	0.861810	0.647810
O101	O10	0.207800	0.844820	0.736360
O111	O11	0.851000	0.125570	0.761580
O121	O12	0.866400	0.057760	0.663510
C431	C43	0.316900	0.119400	0.036750
H281	H28	0.257200	0.065100	0.033000
C441	C44	0.373500	0.151800	0.981240
C451	C45	0.463400	0.232200	0.986360
H291	H29	0.499800	0.253100	0.948600
C461	C46	0.498100	0.281100	0.048970
C471	C47	0.443500	0.251400	0.105070
H301	H30	0.467000	0.284600	0.146800
C481	C48	0.352800	0.171000	0.097730
C491	C49	0.203300	0.070600	0.879590
H311	H31	0.111000	0.076800	0.893200
C501	C50	0.369900	0.036800	0.821300
H321	H32	0.412800	0.014600	0.785900
C511	C51	0.449700	0.078300	0.880200
H331	H33	0.555500	0.089700	0.893100
C521	C52	0.723200	0.371400	0.028880
H341	H34	0.760800	0.324800	0.006400
C531	C53	0.697500	0.499200	0.073500
H351	H35	0.714800	0.559800	0.087800
C541	C54	0.578900	0.444100	0.083100
H361	H36	0.501200	0.458800	0.105300
C551	C55	0.158100	0.107500	0.159620
H371	H37	0.075900	0.102200	0.122000
C561	C56	0.294500	0.104000	0.261680
H381	H38	0.322500	0.094900	0.308600
C571	C57	0.390200	0.135900	0.222580
H391	H39	0.494000	0.153200	0.237000
C581	C58	0.142200	0.399600	0.133130
C591	C59	0.189100	0.403900	0.210560
C601	C60	0.245100	0.484900	0.247120
H401	H40	0.261100	0.536600	0.223400
C611	C61	0.276800	0.488900	0.318110
H411	H41	0.312500	0.543600	0.341700
C621	C62	0.256300	0.412500	0.355180
C631	C63	0.204600	0.331200	0.318760
H421	H42	0.192600	0.279100	0.342500
C641	C64	0.170900	0.327100	0.247680
H431	H43	0.135500	0.272300	0.224200
C651	C65	0.291300	0.419200	0.431870
C661	C66	0.253500	0.494300	0.466470
H441	H44	0.203600	0.539400	0.441200
C671	C67	0.288600	0.503400	0.537900
C681	C68	0.363700	0.435300	0.574790
H451	H45	0.385200	0.439900	0.622700
C691	C69	0.407600	0.360500	0.541630
C701	C70	0.367500	0.352400	0.469970
H461	H46	0.392000	0.301600	0.447200
C711	C71	0.248300	0.584800	0.573160
C721	C72	0.342900	0.622200	0.633750
H471	H47	0.433900	0.596400	0.651700
C731	C73	0.303500	0.696600	0.667310
H481	H48	0.367100	0.719100	0.708300
C741	C74	0.171500	0.738600	0.641310
C751	C75	0.077400	0.702700	0.580390
H491	H49	0.988300	0.730000	0.561700
C761	C76	0.115200	0.626800	0.547400
H501	H50	0.050100	0.603400	0.507100
C771	C77	0.129800	0.820800	0.677900
C781	C78	0.503700	0.293500	0.581180
C791	C79	0.502100	0.279000	0.649900
H511	H51	0.434500	0.308700	0.671000
C801	C80	0.599400	0.220900	0.687740
H521	H52	0.597100	0.213100	0.733800
C811	C81	0.699700	0.174400	0.657780
C821	C82	0.700100	0.188100	0.589200
H531	H53	0.765400	0.157000	0.567800
C831	C83	0.605300	0.247100	0.551970
H541	H54	0.609900	0.255900	0.506200
C841	C84	0.813700	0.115000	0.698100
Cd31	Cd3	0.000000	0.500000	0.000000
