data_DAHNUW_clean_PM
_symmetry_space_group_name_H-M	'P1'
_cell_length_a	10.035000
_cell_length_b	21.204000
_cell_length_c	11.115000
_cell_angle_alpha	90.000000
_cell_angle_beta	92.453000
_cell_angle_gamma	90.000000
_symmetry_Int_Tables_number 1

loop_
_symmetry_equiv_pos_as_xyz
'x,y,z'

loop_
_atom_site_label
_atom_site_type_symbol
_atom_site_fract_x
_atom_site_fract_y
_atom_site_fract_z
Nd11	Nd1	0.567690	0.095460	0.940230
Nd21	Nd2	0.078360	0.105150	0.306400
O11	O1	0.403900	0.153740	0.050500
O21	O2	0.254300	0.159100	0.192600
O31	O3	0.398300	0.025980	0.063900
O41	O4	0.227900	0.034290	0.188100
O51	O5	0.814800	0.088510	0.966800
O61	O6	0.992600	0.096330	0.093100
O71	O7	0.654400	0.086520	0.151800
O81	O8	0.832300	0.092440	0.280400
O91	O9	0.663600	0.203150	0.982700
O101	O10	0.649100	0.307400	0.948900
O111	O11	0.494300	0.182580	0.794600
O121	O12	0.481600	0.286720	0.759900
O131	O13	0.035700	0.991110	0.348400
O141	O14	0.004100	0.917510	0.488600
C11	C1	0.326100	0.129500	0.122700
C21	C2	0.315100	0.056610	0.125000
C31	C3	0.869100	0.091620	0.069200
C41	C4	0.777200	0.090270	0.176800
C51	C5	0.619900	0.250570	0.926000
C61	C6	0.523500	0.239370	0.816400
C71	C7	0.011300	0.973380	0.452400
Nd31	Nd3	0.932310	0.595460	0.559770
Nd41	Nd4	0.421640	0.605150	0.193600
O151	O15	0.096100	0.653740	0.449500
O161	O16	0.245700	0.659100	0.307400
O171	O17	0.101700	0.525980	0.436100
O181	O18	0.272100	0.534290	0.311900
O191	O19	0.685200	0.588510	0.533200
O201	O20	0.507400	0.596330	0.406900
O211	O21	0.845600	0.586520	0.348200
O221	O22	0.667700	0.592440	0.219600
O231	O23	0.836400	0.703150	0.517300
O241	O24	0.850900	0.807400	0.551100
O251	O25	0.005700	0.682580	0.705400
O261	O26	0.018400	0.786720	0.740100
O271	O27	0.464300	0.491110	0.151600
O281	O28	0.495900	0.417510	0.011400
C81	C8	0.173900	0.629500	0.377300
C91	C9	0.184900	0.556610	0.375000
C101	C10	0.630900	0.591620	0.430800
C111	C11	0.722800	0.590270	0.323200
C121	C12	0.880100	0.750570	0.574000
C131	C13	0.976500	0.739370	0.683600
C141	C14	0.488700	0.473380	0.047600
Nd51	Nd5	0.432310	0.904540	0.059770
Nd61	Nd6	0.921640	0.894840	0.693600
O291	O29	0.596100	0.846260	0.949500
O301	O30	0.745700	0.840900	0.807400
O311	O31	0.601700	0.974020	0.936100
O321	O32	0.772100	0.965710	0.811900
O331	O33	0.185200	0.911490	0.033200
O341	O34	0.007400	0.903670	0.906900
O351	O35	0.345600	0.913480	0.848200
O361	O36	0.167700	0.907560	0.719600
O371	O37	0.336400	0.796850	0.017300
O381	O38	0.350900	0.692600	0.051100
O391	O39	0.505700	0.817420	0.205400
O401	O40	0.518400	0.713280	0.240100
O411	O41	0.964300	0.008890	0.651600
O421	O42	0.995900	0.082490	0.511400
C151	C15	0.673900	0.870500	0.877300
C161	C16	0.684900	0.943390	0.875000
C171	C17	0.130900	0.908380	0.930800
C181	C18	0.222800	0.909730	0.823200
C191	C19	0.380100	0.749430	0.074000
C201	C20	0.476500	0.760630	0.183600
C211	C21	0.988700	0.026620	0.547600
Nd71	Nd7	0.067690	0.404540	0.440230
Nd81	Nd8	0.578360	0.394850	0.806400
O431	O43	0.903900	0.346260	0.550500
O441	O44	0.754300	0.340900	0.692600
O451	O45	0.898300	0.474020	0.563900
O461	O46	0.727900	0.465710	0.688100
O471	O47	0.314800	0.411490	0.466800
O481	O48	0.492600	0.403670	0.593100
O491	O49	0.154400	0.413480	0.651800
O501	O50	0.332300	0.407560	0.780400
O511	O51	0.163600	0.296850	0.482700
O521	O52	0.149100	0.192600	0.448900
O531	O53	0.994300	0.317420	0.294600
O541	O54	0.981600	0.213280	0.259900
O551	O55	0.535700	0.508890	0.848400
O561	O56	0.504100	0.582490	0.988600
C221	C22	0.826100	0.370500	0.622700
C231	C23	0.815100	0.443390	0.625000
C241	C24	0.369100	0.408380	0.569200
C251	C25	0.277200	0.409730	0.676800
C261	C26	0.119900	0.249430	0.426000
C271	C27	0.023500	0.260630	0.316400
C281	C28	0.511300	0.526620	0.952400
