data_DAJHOM_manual_PM
_symmetry_space_group_name_H-M	'P1'
_cell_length_a	13.171700
_cell_length_b	13.190100
_cell_length_c	16.234700
_cell_angle_alpha	97.293000
_cell_angle_beta	94.437000
_cell_angle_gamma	90.523000
_symmetry_Int_Tables_number 1

loop_
_symmetry_equiv_pos_as_xyz
'x,y,z'

loop_
_atom_site_label
_atom_site_type_symbol
_atom_site_fract_x
_atom_site_fract_y
_atom_site_fract_z
Co11	Co1	0.997730	0.005080	0.585910
Co21	Co2	0.002270	0.994920	0.414090
H11	H1	0.173900	0.019380	0.721770
H21	H2	0.192610	0.025940	0.878560
H31	H3	0.860020	0.014290	0.874210
H41	H4	0.851710	0.009860	0.718870
H51	H5	0.113730	0.032310	0.014740
H61	H6	0.327840	0.018070	0.389270
H71	H7	0.497480	0.033400	0.330740
H81	H8	0.315430	0.967100	0.650290
H91	H9	0.949390	0.678280	0.600450
H101	H10	0.915050	0.514690	0.656300
H111	H11	0.070330	0.672630	0.355730
H121	H12	0.826100	0.980620	0.278230
H131	H13	0.807390	0.974060	0.121440
H141	H14	0.139980	0.985710	0.125790
H151	H15	0.148290	0.990140	0.281130
H161	H16	0.886270	0.967690	0.985260
H171	H17	0.672160	0.981930	0.610730
H181	H18	0.502520	0.966600	0.669260
H191	H19	0.685400	0.032830	0.350180
H201	H20	0.050610	0.321720	0.399550
H211	H21	0.084950	0.485310	0.343700
H221	H22	0.929670	0.327370	0.644270
C11	C1	0.103300	0.018300	0.758100
C21	C2	0.113600	0.020800	0.844100
C31	C3	0.027100	0.017000	0.887800
C41	C4	0.933600	0.014700	0.841600
C51	C5	0.928800	0.012900	0.756300
C61	C6	0.037400	0.012800	0.977800
C71	C7	0.197600	0.996800	0.507700
C81	C8	0.311100	0.992500	0.517500
C91	C9	0.367600	0.006500	0.452200
C101	C10	0.474800	0.007000	0.460800
C111	C11	0.535500	0.021500	0.394200
C121	C12	0.361600	0.978500	0.595500
C131	C13	0.003000	0.800600	0.487000
C141	C14	0.009500	0.687100	0.479600
C151	C15	0.978400	0.634600	0.542000
C161	C16	0.981500	0.527700	0.535500
C171	C17	0.947700	0.472100	0.599000
C181	C18	0.045700	0.631200	0.408600
C191	C19	0.896700	0.981700	0.241900
C201	C20	0.886400	0.979200	0.155900
C211	C21	0.972900	0.983000	0.112200
C221	C22	0.066400	0.985300	0.158400
C231	C23	0.071200	0.987100	0.243700
C241	C24	0.962600	0.987200	0.022200
C251	C25	0.802400	0.003200	0.492300
C261	C26	0.688900	0.007500	0.482500
C271	C27	0.632400	0.993500	0.547800
C281	C28	0.525200	0.993000	0.539200
C291	C29	0.464500	0.978500	0.605800
C301	C30	0.638400	0.021500	0.404500
C311	C31	0.997000	0.199400	0.513000
C321	C32	0.990500	0.312900	0.520400
C331	C33	0.021600	0.365400	0.458000
C341	C34	0.018500	0.472300	0.464500
C351	C35	0.052300	0.527900	0.401000
C361	C36	0.954300	0.368800	0.591400
N11	N1	0.012800	0.014600	0.714200
N21	N2	0.987200	0.985400	0.285800
O11	O1	0.150700	0.002700	0.572300
O21	O2	0.844200	0.005300	0.565200
O31	O3	0.995700	0.848800	0.558200
O41	O4	0.997400	0.158700	0.579000
O51	O5	0.849300	0.997300	0.427700
O61	O6	0.155800	0.994700	0.434800
O71	O7	0.004300	0.151200	0.441800
O81	O8	0.002600	0.841300	0.421000
Co31	Co3	0.674950	0.771250	0.888170
Co41	Co4	0.679400	0.761540	0.717730
H231	H23	0.348810	0.764720	0.918030
H241	H24	0.179840	0.750540	0.976200
H251	H25	0.989650	0.750380	0.954720
H261	H26	0.004740	0.774710	0.690360
H271	H27	0.174160	0.778660	0.630940
H281	H28	0.362140	0.773960	0.649610
H291	H29	0.700880	0.085440	0.697420
H301	H30	0.720520	0.247410	0.635160
H311	H31	0.716930	0.438150	0.651330
H321	H32	0.644650	0.447290	0.910770
H331	H33	0.629760	0.285890	0.972820
H341	H34	0.637850	0.098680	0.960200
H351	H35	0.839030	0.719360	0.016010
H361	H36	0.857640	0.714640	0.171150
H371	H37	0.792390	0.762500	0.312890
H381	H38	0.556120	0.758850	0.297640
H391	H39	0.814690	0.767520	0.429180
H401	H40	0.823310	0.772530	0.585970
H411	H41	0.502060	0.736170	0.580010
C371	C37	0.366400	0.767400	0.785300
C381	C38	0.309200	0.765100	0.853100
C391	C39	0.202400	0.763200	0.844100
C401	C40	0.142000	0.756100	0.911400
C411	C41	0.037500	0.755800	0.899800
C421	C42	0.988700	0.762100	0.820900
C431	C43	0.044700	0.768400	0.754300
C441	C44	0.152800	0.767200	0.763600
C451	C45	0.212600	0.772900	0.695500
C461	C46	0.316100	0.771600	0.706000
C471	C47	0.479900	0.765600	0.796300
C481	C48	0.873500	0.765400	0.809600
C491	C49	0.668300	0.080300	0.826500
C501	C50	0.685600	0.130700	0.759700
C511	C51	0.685000	0.238400	0.766000
C521	C52	0.703700	0.291800	0.697400
C531	C53	0.701500	0.395600	0.706100
C541	C54	0.680300	0.453600	0.782300
C551	C55	0.661900	0.402500	0.848800
C561	C56	0.663800	0.295000	0.842400
C571	C57	0.646700	0.241800	0.910500
C581	C58	0.650000	0.138700	0.903400
C591	C59	0.674000	0.965700	0.819000
C601	C60	0.679000	0.566900	0.790100
C611	C61	0.773300	0.743600	0.055400
C621	C62	0.783300	0.740500	0.140300
C631	C63	0.703900	0.768500	0.187900
C641	C64	0.618300	0.803900	0.148200
C651	C65	0.613500	0.806100	0.062400
C661	C66	0.713700	0.763200	0.278400
C671	C67	0.638100	0.759000	0.325900
C681	C68	0.648500	0.754200	0.416800
C691	C69	0.741900	0.762100	0.462200
C701	C70	0.746600	0.763400	0.547900
C711	C71	0.572200	0.744200	0.544200
C721	C72	0.561700	0.743400	0.459200
N31	N3	0.690100	0.773700	0.016000
N41	N4	0.663100	0.754200	0.589400
O91	O9	0.521400	0.767500	0.868500
O101	O10	0.527300	0.762300	0.731300
O111	O11	0.832900	0.764000	0.737800
O121	O12	0.827000	0.771200	0.875100
O131	O13	0.678300	0.917900	0.747100
O141	O14	0.673200	0.925700	0.885100
O151	O15	0.674300	0.615400	0.861800
O161	O16	0.681100	0.608300	0.724200
Co51	Co5	0.325050	0.228750	0.111830
Co61	Co6	0.320600	0.238460	0.282270
H421	H42	0.651190	0.235280	0.081970
H431	H43	0.820160	0.249460	0.023800
H441	H44	0.010350	0.249620	0.045280
H451	H45	0.995260	0.225290	0.309640
H461	H46	0.825840	0.221340	0.369060
H471	H47	0.636760	0.226080	0.349760
H481	H48	0.299120	0.914560	0.302580
H491	H49	0.279480	0.752590	0.364840
H501	H50	0.283070	0.561850	0.348670
H511	H51	0.355350	0.552710	0.089230
H521	H52	0.370240	0.714110	0.027180
H531	H53	0.361990	0.902500	0.040390
H541	H54	0.160970	0.280640	0.983990
H551	H55	0.142360	0.285360	0.828850
H561	H56	0.207610	0.237500	0.687110
H571	H57	0.443880	0.241150	0.702360
H581	H58	0.185310	0.232480	0.570820
H591	H59	0.176690	0.227470	0.414030
H601	H60	0.497940	0.263830	0.419990
C731	C73	0.633600	0.232600	0.214700
C741	C74	0.690800	0.234900	0.146900
C751	C75	0.797600	0.236800	0.155900
C761	C76	0.858000	0.243900	0.088600
C771	C77	0.962500	0.244200	0.100200
C781	C78	0.011300	0.237900	0.179100
C791	C79	0.955300	0.231600	0.245700
C801	C80	0.847200	0.232800	0.236400
C811	C81	0.787400	0.227100	0.304500
C821	C82	0.683900	0.228400	0.294000
C831	C83	0.520100	0.234400	0.203700
C841	C84	0.126500	0.234600	0.190400
C851	C85	0.331700	0.919700	0.173500
C861	C86	0.314400	0.869300	0.240300
C871	C87	0.315000	0.761600	0.234000
C881	C88	0.296300	0.708200	0.302600
C891	C89	0.298500	0.604400	0.293900
C901	C90	0.319700	0.546400	0.217700
C911	C91	0.338100	0.597500	0.151200
C921	C92	0.336200	0.705000	0.157600
C931	C93	0.353300	0.758200	0.089500
C941	C94	0.350000	0.861300	0.096600
C951	C95	0.326000	0.034300	0.181000
C961	C96	0.321000	0.433100	0.209900
C971	C97	0.226700	0.256400	0.944600
C981	C98	0.216700	0.259500	0.859700
C991	C99	0.296100	0.231500	0.812100
C1001	C100	0.381700	0.196100	0.851800
C1011	C101	0.386500	0.193900	0.937600
C1021	C102	0.286300	0.236800	0.721600
C1031	C103	0.361900	0.241000	0.674100
C1041	C104	0.351500	0.245800	0.583200
C1051	C105	0.258100	0.237900	0.537800
C1061	C106	0.253400	0.236600	0.452100
C1071	C107	0.427800	0.255800	0.455800
C1081	C108	0.438300	0.256600	0.540800
N51	N5	0.309900	0.226300	0.984000
N61	N6	0.336900	0.245800	0.410600
O171	O17	0.478600	0.232500	0.131500
O181	O18	0.472700	0.237700	0.268700
O191	O19	0.167100	0.236000	0.262200
O201	O20	0.173000	0.228800	0.124900
O211	O21	0.321700	0.082100	0.252900
O221	O22	0.326800	0.074300	0.114900
O231	O23	0.325700	0.384600	0.138200
O241	O24	0.318900	0.391700	0.275800
H611	H61	0.551570	0.831320	0.185350
H621	H62	0.542840	0.836130	0.029040
H631	H63	0.482920	0.734010	0.424460
H641	H64	0.448430	0.168680	0.814650
H651	H65	0.457160	0.163870	0.970960
H661	H66	0.517080	0.265990	0.575540
