data_DAKVOC_clean_PM
_symmetry_space_group_name_H-M	'P1'
_cell_length_a	12.410500
_cell_length_b	26.217200
_cell_length_c	26.221500
_cell_angle_alpha	90.000000
_cell_angle_beta	90.000000
_cell_angle_gamma	90.000000
_symmetry_Int_Tables_number 1

loop_
_symmetry_equiv_pos_as_xyz
'x,y,z'

loop_
_atom_site_label
_atom_site_type_symbol
_atom_site_fract_x
_atom_site_fract_y
_atom_site_fract_z
Zn11	Zn1	0.918060	0.006880	0.959200
Zn21	Zn2	0.081940	0.993120	0.459200
Zn31	Zn3	0.081940	0.506880	0.540800
Zn41	Zn4	0.918060	0.493120	0.040800
Zn51	Zn5	0.081940	0.993120	0.040800
Zn61	Zn6	0.918060	0.006880	0.540800
Zn71	Zn7	0.918060	0.493120	0.459200
Zn81	Zn8	0.081940	0.506880	0.959200
Zn91	Zn9	0.845920	0.778820	0.750000
Zn101	Zn10	0.012870	0.697030	0.750000
Zn111	Zn11	0.154080	0.221180	0.250000
Zn121	Zn12	0.987130	0.302970	0.250000
Zn131	Zn13	0.154080	0.278820	0.750000
Zn141	Zn14	0.987130	0.197030	0.750000
Zn151	Zn15	0.845920	0.721180	0.250000
Zn161	Zn16	0.012870	0.802970	0.250000
H11	H1	0.210700	0.755200	0.866300
H21	H2	0.247100	0.868300	0.969900
H31	H3	0.003500	0.873200	0.869600
H41	H4	0.428600	0.824100	0.975300
H51	H5	0.335100	0.804100	0.010700
H61	H6	0.575300	0.740400	0.054600
H71	H7	0.482000	0.776300	0.073900
H81	H8	0.659300	0.781200	0.118100
H91	H9	0.900600	0.884300	0.125900
H101	H10	0.697900	0.885100	0.006100
H111	H11	0.789300	0.244800	0.366300
H121	H12	0.752900	0.131700	0.469900
H131	H13	0.996500	0.126800	0.369600
H141	H14	0.571400	0.175900	0.475300
H151	H15	0.664900	0.195900	0.510700
H161	H16	0.424700	0.259600	0.554600
H171	H17	0.518000	0.223700	0.573900
H181	H18	0.340700	0.218800	0.618100
H191	H19	0.099400	0.115700	0.625900
H201	H20	0.302100	0.114900	0.506100
H211	H21	0.789300	0.255200	0.633700
H221	H22	0.752900	0.368300	0.530100
H231	H23	0.996500	0.373200	0.630400
H241	H24	0.571400	0.324100	0.524700
H251	H25	0.664900	0.304100	0.489300
H261	H26	0.424700	0.240400	0.445400
H271	H27	0.518000	0.276300	0.426100
H281	H28	0.340700	0.281200	0.381900
H291	H29	0.099400	0.384300	0.374100
H301	H30	0.302100	0.385100	0.493900
H311	H31	0.210700	0.744800	0.133700
H321	H32	0.247100	0.631700	0.030100
H331	H33	0.003500	0.626800	0.130400
H341	H34	0.428600	0.675900	0.024700
H351	H35	0.335100	0.695900	0.989300
H361	H36	0.575300	0.759600	0.945400
H371	H37	0.482000	0.723700	0.926100
H381	H38	0.659300	0.718800	0.881900
H391	H39	0.900600	0.615700	0.874100
H401	H40	0.697900	0.614900	0.993900
H411	H41	0.789300	0.244800	0.133700
H421	H42	0.752900	0.131700	0.030100
H431	H43	0.996500	0.126800	0.130400
H441	H44	0.571400	0.175900	0.024700
H451	H45	0.664900	0.195900	0.989300
H461	H46	0.424700	0.259600	0.945400
H471	H47	0.518000	0.223700	0.926100
H481	H48	0.340700	0.218800	0.881900
H491	H49	0.099400	0.115700	0.874100
H501	H50	0.302100	0.114900	0.993900
H511	H51	0.210700	0.755200	0.633700
H521	H52	0.247100	0.868300	0.530100
H531	H53	0.003500	0.873200	0.630400
H541	H54	0.428600	0.824100	0.524700
H551	H55	0.335100	0.804100	0.489300
H561	H56	0.575300	0.740400	0.445400
H571	H57	0.482000	0.776300	0.426100
H581	H58	0.659300	0.781200	0.381900
H591	H59	0.900600	0.884300	0.374100
H601	H60	0.697900	0.885100	0.493900
H611	H61	0.210700	0.744800	0.366300
H621	H62	0.247100	0.631700	0.469900
H631	H63	0.003500	0.626800	0.369600
H641	H64	0.428600	0.675900	0.475300
H651	H65	0.335100	0.695900	0.510700
H661	H66	0.575300	0.759600	0.554600
H671	H67	0.482000	0.723700	0.573900
H681	H68	0.659300	0.718800	0.618100
H691	H69	0.900600	0.615700	0.625900
H701	H70	0.697900	0.614900	0.506100
H711	H71	0.789300	0.255200	0.866300
H721	H72	0.752900	0.368300	0.969900
H731	H73	0.996500	0.373200	0.869600
H741	H74	0.571400	0.324100	0.975300
H751	H75	0.664900	0.304100	0.010700
H761	H76	0.424700	0.240400	0.054600
H771	H77	0.518000	0.276300	0.073900
H781	H78	0.340700	0.281200	0.118100
H791	H79	0.099400	0.384300	0.125900
H801	H80	0.302100	0.385100	0.006100
C11	C1	0.034800	0.786000	0.819900
C21	C2	0.096600	0.810700	0.862100
C31	C3	0.187300	0.785500	0.881000
C41	C4	0.243200	0.807200	0.923000
C51	C5	0.209600	0.853400	0.943000
C61	C6	0.119100	0.877600	0.922600
C71	C7	0.063600	0.856600	0.882800
C81	C8	0.078900	0.926300	0.948200
C91	C9	0.384400	0.794700	0.983600
C101	C10	0.526200	0.767500	0.044700
C111	C11	0.666400	0.829100	0.057500
C121	C12	0.697000	0.808400	0.104000
C131	C13	0.786300	0.829500	0.129400
C141	C14	0.841600	0.870600	0.108800
C151	C15	0.808700	0.891500	0.062200
C161	C16	0.720700	0.871100	0.036800
C171	C17	0.828100	0.805500	0.177700
C181	C18	0.871100	0.934400	0.038400
C191	C19	0.965200	0.214000	0.319900
C201	C20	0.903400	0.189300	0.362100
C211	C21	0.812700	0.214500	0.381000
C221	C22	0.756800	0.192800	0.423000
C231	C23	0.790400	0.146600	0.443000
C241	C24	0.880900	0.122400	0.422600
C251	C25	0.936400	0.143400	0.382800
C261	C26	0.921100	0.073700	0.448200
C271	C27	0.615600	0.205300	0.483600
C281	C28	0.473800	0.232500	0.544700
C291	C29	0.333600	0.170900	0.557500
C301	C30	0.303000	0.191600	0.604000
C311	C31	0.213700	0.170500	0.629400
C321	C32	0.158400	0.129400	0.608800
C331	C33	0.191300	0.108500	0.562200
C341	C34	0.279300	0.128900	0.536800
C351	C35	0.171900	0.194500	0.677700
C361	C36	0.128900	0.065600	0.538400
C371	C37	0.965200	0.286000	0.680100
C381	C38	0.903400	0.310700	0.637900
C391	C39	0.812700	0.285500	0.619000
C401	C40	0.756800	0.307200	0.577000
C411	C41	0.790400	0.353400	0.557000
C421	C42	0.880900	0.377600	0.577400
C431	C43	0.936400	0.356600	0.617200
C441	C44	0.921100	0.426300	0.551800
C451	C45	0.615600	0.294700	0.516400
C461	C46	0.473800	0.267500	0.455300
C471	C47	0.333600	0.329100	0.442500
C481	C48	0.303000	0.308400	0.396000
C491	C49	0.213700	0.329500	0.370600
C501	C50	0.158400	0.370600	0.391200
C511	C51	0.191300	0.391500	0.437800
C521	C52	0.279300	0.371100	0.463200
C531	C53	0.171900	0.305500	0.322300
C541	C54	0.128900	0.434400	0.461600
C551	C55	0.034800	0.714000	0.180100
C561	C56	0.096600	0.689300	0.137900
C571	C57	0.187300	0.714500	0.119000
C581	C58	0.243200	0.692800	0.077000
C591	C59	0.209600	0.646600	0.057000
C601	C60	0.119100	0.622400	0.077400
C611	C61	0.063600	0.643400	0.117200
C621	C62	0.078900	0.573700	0.051800
C631	C63	0.384400	0.705300	0.016400
C641	C64	0.526200	0.732500	0.955300
C651	C65	0.666400	0.670900	0.942500
C661	C66	0.697000	0.691600	0.896000
C671	C67	0.786300	0.670500	0.870600
C681	C68	0.841600	0.629400	0.891200
C691	C69	0.808700	0.608500	0.937800
C701	C70	0.720700	0.628900	0.963200
C711	C71	0.828100	0.694500	0.822300
C721	C72	0.871100	0.565600	0.961600
C731	C73	0.965200	0.214000	0.180100
C741	C74	0.903400	0.189300	0.137900
C751	C75	0.812700	0.214500	0.119000
C761	C76	0.756800	0.192800	0.077000
C771	C77	0.790400	0.146600	0.057000
C781	C78	0.880900	0.122400	0.077400
C791	C79	0.936400	0.143400	0.117200
C801	C80	0.921100	0.073700	0.051800
C811	C81	0.615600	0.205300	0.016400
C821	C82	0.473800	0.232500	0.955300
C831	C83	0.333600	0.170900	0.942500
C841	C84	0.303000	0.191600	0.896000
C851	C85	0.213700	0.170500	0.870600
C861	C86	0.158400	0.129400	0.891200
C871	C87	0.191300	0.108500	0.937800
C881	C88	0.279300	0.128900	0.963200
C891	C89	0.171900	0.194500	0.822300
C901	C90	0.128900	0.065600	0.961600
C911	C91	0.034800	0.786000	0.680100
C921	C92	0.096600	0.810700	0.637900
C931	C93	0.187300	0.785500	0.619000
C941	C94	0.243200	0.807200	0.577000
C951	C95	0.209600	0.853400	0.557000
C961	C96	0.119100	0.877600	0.577400
C971	C97	0.063600	0.856600	0.617200
C981	C98	0.078900	0.926300	0.551800
C991	C99	0.384400	0.794700	0.516400
C1001	C100	0.526200	0.767500	0.455300
C1011	C101	0.666400	0.829100	0.442500
C1021	C102	0.697000	0.808400	0.396000
C1031	C103	0.786300	0.829500	0.370600
C1041	C104	0.841600	0.870600	0.391200
C1051	C105	0.808700	0.891500	0.437800
C1061	C106	0.720700	0.871100	0.463200
C1071	C107	0.828100	0.805500	0.322300
C1081	C108	0.871100	0.934400	0.461600
C1091	C109	0.034800	0.714000	0.319900
C1101	C110	0.096600	0.689300	0.362100
C1111	C111	0.187300	0.714500	0.381000
C1121	C112	0.243200	0.692800	0.423000
C1131	C113	0.209600	0.646600	0.443000
C1141	C114	0.119100	0.622400	0.422600
C1151	C115	0.063600	0.643400	0.382800
C1161	C116	0.078900	0.573700	0.448200
C1171	C117	0.384400	0.705300	0.483600
C1181	C118	0.526200	0.732500	0.544700
C1191	C119	0.666400	0.670900	0.557500
C1201	C120	0.697000	0.691600	0.604000
C1211	C121	0.786300	0.670500	0.629400
C1221	C122	0.841600	0.629400	0.608800
C1231	C123	0.808700	0.608500	0.562200
C1241	C124	0.720700	0.628900	0.536800
C1251	C125	0.828100	0.694500	0.677700
C1261	C126	0.871100	0.565600	0.538400
C1271	C127	0.965200	0.286000	0.819900
C1281	C128	0.903400	0.310700	0.862100
C1291	C129	0.812700	0.285500	0.881000
C1301	C130	0.756800	0.307200	0.923000
C1311	C131	0.790400	0.353400	0.943000
C1321	C132	0.880900	0.377600	0.922600
C1331	C133	0.936400	0.356600	0.882800
C1341	C134	0.921100	0.426300	0.948200
C1351	C135	0.615600	0.294700	0.983600
C1361	C136	0.473800	0.267500	0.044700
C1371	C137	0.333600	0.329100	0.057500
C1381	C138	0.303000	0.308400	0.104000
C1391	C139	0.213700	0.329500	0.129400
C1401	C140	0.158400	0.370600	0.108800
C1411	C141	0.191300	0.391500	0.062200
C1421	C142	0.279300	0.371100	0.036800
C1431	C143	0.171900	0.305500	0.177700
C1441	C144	0.128900	0.434400	0.038400
C1451	C145	0.454900	0.750000	0.000000
C1461	C146	0.545100	0.250000	0.500000
C1471	C147	0.545100	0.250000	0.000000
C1481	C148	0.454900	0.750000	0.500000
O11	O1	0.951500	0.805600	0.803880
O21	O2	0.074400	0.743700	0.803400
O31	O3	0.999900	0.948100	0.927100
O41	O4	0.125000	0.939430	0.988100
O51	O5	0.325600	0.777950	0.939400
O61	O6	0.584600	0.810500	0.027770
O71	O7	0.783600	0.766970	0.194260
O81	O8	0.909400	0.827500	0.197300
O91	O9	0.957400	0.946700	0.060200
O101	O10	0.833100	0.955000	0.998400
O111	O11	0.048500	0.194400	0.303880
O121	O12	0.925600	0.256300	0.303400
O131	O13	0.000100	0.051900	0.427100
O141	O14	0.875000	0.060570	0.488100
O151	O15	0.674400	0.222050	0.439400
O161	O16	0.415400	0.189500	0.527770
O171	O17	0.216400	0.233030	0.694260
O181	O18	0.090600	0.172500	0.697300
O191	O19	0.042600	0.053300	0.560200
O201	O20	0.166900	0.045000	0.498400
O211	O21	0.048500	0.305600	0.696120
O221	O22	0.925600	0.243700	0.696600
O231	O23	0.000100	0.448100	0.572900
O241	O24	0.875000	0.439430	0.511900
O251	O25	0.674400	0.277950	0.560600
O261	O26	0.415400	0.310500	0.472230
O271	O27	0.216400	0.266970	0.305740
O281	O28	0.090600	0.327500	0.302700
O291	O29	0.042600	0.446700	0.439800
O301	O30	0.166900	0.455000	0.501600
O311	O31	0.951500	0.694400	0.196120
O321	O32	0.074400	0.756300	0.196600
O331	O33	0.999900	0.551900	0.072900
O341	O34	0.125000	0.560570	0.011900
O351	O35	0.325600	0.722050	0.060600
O361	O36	0.584600	0.689500	0.972230
O371	O37	0.783600	0.733030	0.805740
O381	O38	0.909400	0.672500	0.802700
O391	O39	0.957400	0.553300	0.939800
O401	O40	0.833100	0.545000	0.001600
O411	O41	0.048500	0.194400	0.196120
O421	O42	0.925600	0.256300	0.196600
O431	O43	0.000100	0.051900	0.072900
O441	O44	0.875000	0.060570	0.011900
O451	O45	0.674400	0.222050	0.060600
O461	O46	0.415400	0.189500	0.972230
O471	O47	0.216400	0.233030	0.805740
O481	O48	0.090600	0.172500	0.802700
O491	O49	0.042600	0.053300	0.939800
O501	O50	0.166900	0.045000	0.001600
O511	O51	0.951500	0.805600	0.696120
O521	O52	0.074400	0.743700	0.696600
O531	O53	0.999900	0.948100	0.572900
O541	O54	0.125000	0.939430	0.511900
O551	O55	0.325600	0.777950	0.560600
O561	O56	0.584600	0.810500	0.472230
O571	O57	0.783600	0.766970	0.305740
O581	O58	0.909400	0.827500	0.302700
O591	O59	0.957400	0.946700	0.439800
O601	O60	0.833100	0.955000	0.501600
O611	O61	0.951500	0.694400	0.303880
O621	O62	0.074400	0.756300	0.303400
O631	O63	0.999900	0.551900	0.427100
O641	O64	0.125000	0.560570	0.488100
O651	O65	0.325600	0.722050	0.439400
O661	O66	0.584600	0.689500	0.527770
O671	O67	0.783600	0.733030	0.694260
O681	O68	0.909400	0.672500	0.697300
O691	O69	0.957400	0.553300	0.560200
O701	O70	0.833100	0.545000	0.498400
O711	O71	0.048500	0.305600	0.803880
O721	O72	0.925600	0.243700	0.803400
O731	O73	0.000100	0.448100	0.927100
O741	O74	0.875000	0.439430	0.988100
O751	O75	0.674400	0.277950	0.939400
O761	O76	0.415400	0.310500	0.027770
O771	O77	0.216400	0.266970	0.194260
O781	O78	0.090600	0.327500	0.197300
O791	O79	0.042600	0.446700	0.060200
O801	O80	0.166900	0.455000	0.998400
