data_DAKVIW_clean_PM
_symmetry_space_group_name_H-M	'P1'
_cell_length_a	18.326000
_cell_length_b	19.033000
_cell_length_c	12.529000
_cell_angle_alpha	90.000000
_cell_angle_beta	90.000000
_cell_angle_gamma	90.000000
_symmetry_Int_Tables_number 1

loop_
_symmetry_equiv_pos_as_xyz
'x,y,z'

loop_
_atom_site_label
_atom_site_type_symbol
_atom_site_fract_x
_atom_site_fract_y
_atom_site_fract_z
Cd11	Cd1	0.728800	0.748420	0.380380
Cd21	Cd2	0.825960	0.663270	0.558000
O11	O1	0.726100	0.637320	0.330300
O21	O2	0.791570	0.575850	0.449500
O31	O3	0.627500	0.739000	0.478600
O41	O4	0.700400	0.673600	0.580500
O51	O5	0.666000	0.269090	0.370900
O61	O6	0.733500	0.325430	0.495200
O71	O7	0.373900	0.784000	0.593100
O81	O8	0.324900	0.716200	0.716100
O91	O9	0.584400	0.453700	0.124900
O101	O10	0.540400	0.580000	0.866000
C11	C1	0.639600	0.701900	0.559600
C21	C2	0.577700	0.687800	0.633700
C31	C3	0.585900	0.642000	0.719300
H11	H1	0.631900	0.620600	0.732000
C41	C4	0.528600	0.627400	0.785400
C51	C5	0.461200	0.661200	0.771100
H21	H2	0.422100	0.652900	0.819100
C61	C6	0.452400	0.707600	0.684700
C71	C7	0.510900	0.720400	0.615800
H31	H3	0.505000	0.751400	0.557000
C81	C8	0.480500	0.563500	0.933000
H41	H4	0.438500	0.553200	0.890000
H51	H5	0.469000	0.602700	0.978200
C91	C9	0.378500	0.739100	0.663600
C101	C10	0.746400	0.581100	0.374100
C111	C11	0.711500	0.514700	0.333900
C121	C12	0.722200	0.451700	0.386800
H61	H6	0.753300	0.449900	0.447400
C131	C13	0.687600	0.391100	0.350900
C141	C14	0.643300	0.393800	0.261600
H71	H7	0.619900	0.352500	0.236400
C151	C15	0.633300	0.457000	0.209600
C161	C16	0.665900	0.518400	0.244100
H81	H8	0.657800	0.561700	0.208200
C171	C17	0.696600	0.322700	0.412200
C181	C18	0.566400	0.518000	0.071200
H91	H9	0.607600	0.534100	0.026200
H101	H10	0.554400	0.555400	0.123300
Cd31	Cd3	0.271200	0.251580	0.380380
Cd41	Cd4	0.174040	0.336730	0.558000
O111	O11	0.273900	0.362680	0.330300
O121	O12	0.208430	0.424150	0.449500
O131	O13	0.372500	0.261000	0.478600
O141	O14	0.299600	0.326400	0.580500
O151	O15	0.334000	0.730910	0.370900
O161	O16	0.266500	0.674570	0.495200
O171	O17	0.626100	0.216000	0.593100
O181	O18	0.675100	0.283800	0.716100
O191	O19	0.415600	0.546300	0.124900
O201	O20	0.459600	0.420000	0.866000
C191	C19	0.360400	0.298100	0.559600
C201	C20	0.422300	0.312200	0.633700
C211	C21	0.414100	0.358000	0.719300
H111	H11	0.368100	0.379400	0.732000
C221	C22	0.471400	0.372600	0.785400
C231	C23	0.538800	0.338800	0.771100
H121	H12	0.577900	0.347100	0.819100
C241	C24	0.547600	0.292400	0.684700
C251	C25	0.489100	0.279600	0.615800
H131	H13	0.495000	0.248600	0.557000
C261	C26	0.519500	0.436500	0.933000
H141	H14	0.561500	0.446800	0.890000
H151	H15	0.531000	0.397300	0.978200
C271	C27	0.621500	0.260900	0.663600
C281	C28	0.253600	0.418900	0.374100
C291	C29	0.288500	0.485300	0.333900
C301	C30	0.277800	0.548300	0.386800
H161	H16	0.246700	0.550100	0.447400
C311	C31	0.312400	0.608900	0.350900
C321	C32	0.356700	0.606200	0.261600
H171	H17	0.380100	0.647500	0.236400
C331	C33	0.366700	0.543000	0.209600
C341	C34	0.334100	0.481600	0.244100
H181	H18	0.342200	0.438300	0.208200
C351	C35	0.303400	0.677300	0.412200
C361	C36	0.433600	0.482000	0.071200
H191	H19	0.392400	0.465900	0.026200
H201	H20	0.445600	0.444600	0.123300
Cd51	Cd5	0.771200	0.248420	0.619620
Cd61	Cd6	0.674040	0.163270	0.442000
O211	O21	0.773900	0.137320	0.669700
O221	O22	0.708430	0.075850	0.550500
O231	O23	0.872500	0.239000	0.521400
O241	O24	0.799600	0.173600	0.419500
O251	O25	0.834000	0.769090	0.629100
O261	O26	0.766500	0.825430	0.504800
O271	O27	0.126100	0.284000	0.406900
O281	O28	0.175100	0.216200	0.283900
O291	O29	0.915600	0.953700	0.875100
O301	O30	0.959600	0.080000	0.134000
C371	C37	0.860400	0.201900	0.440400
C381	C38	0.922300	0.187800	0.366300
C391	C39	0.914100	0.142000	0.280700
H211	H21	0.868100	0.120600	0.268000
C401	C40	0.971400	0.127400	0.214600
C411	C41	0.038800	0.161200	0.228900
H221	H22	0.077900	0.152900	0.180900
C421	C42	0.047600	0.207600	0.315300
C431	C43	0.989100	0.220400	0.384200
H231	H23	0.995000	0.251400	0.443000
C441	C44	0.019500	0.063500	0.067000
H241	H24	0.061500	0.053200	0.110000
H251	H25	0.031000	0.102700	0.021800
C451	C45	0.121500	0.239100	0.336400
C461	C46	0.753600	0.081100	0.625900
C471	C47	0.788500	0.014700	0.666100
C481	C48	0.777800	0.951700	0.613200
H261	H26	0.746700	0.949900	0.552600
C491	C49	0.812400	0.891100	0.649100
C501	C50	0.856700	0.893800	0.738400
H271	H27	0.880100	0.852500	0.763600
C511	C51	0.866700	0.957000	0.790400
C521	C52	0.834100	0.018400	0.755900
H281	H28	0.842200	0.061700	0.791800
C531	C53	0.803400	0.822700	0.587800
C541	C54	0.933600	0.018000	0.928800
H291	H29	0.892400	0.034100	0.973800
H301	H30	0.945600	0.055400	0.876700
Cd71	Cd7	0.228800	0.751580	0.619620
Cd81	Cd8	0.325960	0.836730	0.442000
O311	O31	0.226100	0.862680	0.669700
O321	O32	0.291570	0.924150	0.550500
O331	O33	0.127500	0.761000	0.521400
O341	O34	0.200400	0.826400	0.419500
O351	O35	0.166000	0.230910	0.629100
O361	O36	0.233500	0.174570	0.504800
O371	O37	0.873900	0.716000	0.406900
O381	O38	0.824900	0.783800	0.283900
O391	O39	0.084400	0.046300	0.875100
O401	O40	0.040400	0.920000	0.134000
C551	C55	0.139600	0.798100	0.440400
C561	C56	0.077700	0.812200	0.366300
C571	C57	0.085900	0.858000	0.280700
H311	H31	0.131900	0.879400	0.268000
C581	C58	0.028600	0.872600	0.214600
C591	C59	0.961200	0.838800	0.228900
H321	H32	0.922100	0.847100	0.180900
C601	C60	0.952400	0.792400	0.315300
C611	C61	0.010900	0.779600	0.384200
H331	H33	0.005000	0.748600	0.443000
C621	C62	0.980500	0.936500	0.067000
H341	H34	0.938500	0.946800	0.110000
H351	H35	0.969000	0.897300	0.021800
C631	C63	0.878500	0.760900	0.336400
C641	C64	0.246400	0.918900	0.625900
C651	C65	0.211500	0.985300	0.666100
C661	C66	0.222200	0.048300	0.613200
H361	H36	0.253300	0.050100	0.552600
C671	C67	0.187600	0.108900	0.649100
C681	C68	0.143300	0.106200	0.738400
H371	H37	0.119900	0.147500	0.763600
C691	C69	0.133300	0.043000	0.790400
C701	C70	0.165900	0.981600	0.755900
H381	H38	0.157800	0.938300	0.791800
C711	C71	0.196600	0.177300	0.587800
C721	C72	0.066400	0.982000	0.928800
H391	H39	0.107600	0.965900	0.973800
H401	H40	0.054400	0.944600	0.876700
C731	C73	0.500000	0.500000	0.002500
C741	C74	0.000000	0.000000	0.997500
