data_DALSUH_clean_PM
_symmetry_space_group_name_H-M	'P1'
_cell_length_a	12.724300
_cell_length_b	13.294000
_cell_length_c	28.598000
_cell_angle_alpha	90.000000
_cell_angle_beta	90.000000
_cell_angle_gamma	90.000000
_symmetry_Int_Tables_number 1

loop_
_symmetry_equiv_pos_as_xyz
'x,y,z'

loop_
_atom_site_label
_atom_site_type_symbol
_atom_site_fract_x
_atom_site_fract_y
_atom_site_fract_z
Dy11	Dy1	0.089390	0.542990	0.929960
O11	O1	0.092400	0.438900	0.866100
O21	O2	0.165200	0.290200	0.880700
O31	O3	0.040000	0.146800	0.828300
O41	O4	0.186800	0.086600	0.807600
O51	O5	0.447700	0.103400	0.619000
O61	O6	0.452200	0.161400	0.547000
O71	O7	0.165600	0.389000	0.495000
O81	O8	0.051200	0.447800	0.545500
N11	N1	0.123700	0.153400	0.808800
C11	C1	0.129800	0.356300	0.854100
C21	C2	0.134100	0.338100	0.802600
C31	C3	0.143500	0.245500	0.781300
C41	C4	0.165900	0.231300	0.734600
H11	H1	0.173500	0.166600	0.722800
C51	C5	0.177100	0.313500	0.705300
C61	C6	0.162200	0.409200	0.725200
H21	H2	0.164900	0.465900	0.706300
C71	C7	0.143700	0.420200	0.772500
H31	H3	0.137500	0.484800	0.784700
C81	C8	0.205700	0.299900	0.655700
C91	C9	0.286700	0.234500	0.644500
H41	H4	0.319800	0.197500	0.667800
C101	C10	0.318500	0.224400	0.597900
C111	C11	0.268200	0.278900	0.563200
H51	H5	0.289500	0.272500	0.532200
C121	C12	0.186400	0.342800	0.574600
C131	C13	0.156000	0.354500	0.621000
H61	H6	0.102200	0.398900	0.628700
C141	C14	0.410400	0.159700	0.587100
C151	C15	0.130900	0.397000	0.535600
Dy21	Dy2	0.410610	0.957010	0.429960
O91	O9	0.407600	0.061100	0.366100
O101	O10	0.334800	0.209800	0.380700
O111	O11	0.460000	0.353200	0.328300
O121	O12	0.313200	0.413400	0.307600
O131	O13	0.052300	0.396600	0.119000
O141	O14	0.047800	0.338600	0.047000
O151	O15	0.334400	0.111000	0.995000
O161	O16	0.448800	0.052200	0.045500
N21	N2	0.376300	0.346600	0.308800
C161	C16	0.370200	0.143700	0.354100
C171	C17	0.365900	0.161900	0.302600
C181	C18	0.356500	0.254500	0.281300
C191	C19	0.334100	0.268700	0.234600
H71	H7	0.326500	0.333400	0.222800
C201	C20	0.322900	0.186500	0.205300
C211	C21	0.337800	0.090800	0.225200
H81	H8	0.335100	0.034100	0.206300
C221	C22	0.356300	0.079800	0.272500
H91	H9	0.362500	0.015200	0.284700
C231	C23	0.294300	0.200100	0.155700
C241	C24	0.213300	0.265500	0.144500
H101	H10	0.180200	0.302500	0.167800
C251	C25	0.181500	0.275600	0.097900
C261	C26	0.231800	0.221100	0.063200
H111	H11	0.210500	0.227500	0.032200
C271	C27	0.313600	0.157200	0.074600
C281	C28	0.344000	0.145500	0.121000
H121	H12	0.397800	0.101100	0.128700
C291	C29	0.089600	0.340300	0.087100
C301	C30	0.369100	0.103000	0.035600
Dy31	Dy3	0.910610	0.542990	0.570040
O171	O17	0.907600	0.438900	0.633900
O181	O18	0.834800	0.290200	0.619300
O191	O19	0.960000	0.146800	0.671700
O201	O20	0.813200	0.086600	0.692400
O211	O21	0.552300	0.103400	0.881000
O221	O22	0.547800	0.161400	0.953000
O231	O23	0.834400	0.389000	0.005000
O241	O24	0.948800	0.447800	0.954500
N31	N3	0.876300	0.153400	0.691200
C311	C31	0.870200	0.356300	0.645900
C321	C32	0.865900	0.338100	0.697400
C331	C33	0.856500	0.245500	0.718700
C341	C34	0.834100	0.231300	0.765400
H131	H13	0.826500	0.166600	0.777200
C351	C35	0.822900	0.313500	0.794700
C361	C36	0.837800	0.409200	0.774800
H141	H14	0.835100	0.465900	0.793700
C371	C37	0.856300	0.420200	0.727500
H151	H15	0.862500	0.484800	0.715300
C381	C38	0.794300	0.299900	0.844300
C391	C39	0.713300	0.234500	0.855500
H161	H16	0.680200	0.197500	0.832200
C401	C40	0.681500	0.224400	0.902100
C411	C41	0.731800	0.278900	0.936800
H171	H17	0.710500	0.272500	0.967800
C421	C42	0.813600	0.342800	0.925400
C431	C43	0.844000	0.354500	0.879000
H181	H18	0.897800	0.398900	0.871300
C441	C44	0.589600	0.159700	0.912900
C451	C45	0.869100	0.397000	0.964400
Dy41	Dy4	0.589390	0.957010	0.070040
O251	O25	0.592400	0.061100	0.133900
O261	O26	0.665200	0.209800	0.119300
O271	O27	0.540000	0.353200	0.171700
O281	O28	0.686800	0.413400	0.192400
O291	O29	0.947700	0.396600	0.381000
O301	O30	0.952200	0.338600	0.453000
O311	O31	0.665600	0.111000	0.505000
O321	O32	0.551200	0.052200	0.454500
N41	N4	0.623700	0.346600	0.191200
C461	C46	0.629800	0.143700	0.145900
C471	C47	0.634100	0.161900	0.197400
C481	C48	0.643500	0.254500	0.218700
C491	C49	0.665900	0.268700	0.265400
H191	H19	0.673500	0.333400	0.277200
C501	C50	0.677100	0.186500	0.294700
C511	C51	0.662200	0.090800	0.274800
H201	H20	0.664900	0.034100	0.293700
C521	C52	0.643700	0.079800	0.227500
H211	H21	0.637500	0.015200	0.215300
C531	C53	0.705700	0.200100	0.344300
C541	C54	0.786700	0.265500	0.355500
H221	H22	0.819800	0.302500	0.332200
C551	C55	0.818500	0.275600	0.402100
C561	C56	0.768200	0.221100	0.436800
H231	H23	0.789500	0.227500	0.467800
C571	C57	0.686400	0.157200	0.425400
C581	C58	0.656000	0.145500	0.379000
H241	H24	0.602200	0.101100	0.371300
C591	C59	0.910400	0.340300	0.412900
C601	C60	0.630900	0.103000	0.464400
Dy51	Dy5	0.910610	0.457010	0.070040
O331	O33	0.907600	0.561100	0.133900
O341	O34	0.834800	0.709800	0.119300
O351	O35	0.960000	0.853200	0.171700
O361	O36	0.813200	0.913400	0.192400
O371	O37	0.552300	0.896600	0.381000
O381	O38	0.547800	0.838600	0.453000
O391	O39	0.834400	0.611000	0.505000
O401	O40	0.948800	0.552200	0.454500
N51	N5	0.876300	0.846600	0.191200
C611	C61	0.870200	0.643700	0.145900
C621	C62	0.865900	0.661900	0.197400
C631	C63	0.856500	0.754500	0.218700
C641	C64	0.834100	0.768700	0.265400
H251	H25	0.826500	0.833400	0.277200
C651	C65	0.822900	0.686500	0.294700
C661	C66	0.837800	0.590800	0.274800
H261	H26	0.835100	0.534100	0.293700
C671	C67	0.856300	0.579800	0.227500
H271	H27	0.862500	0.515200	0.215300
C681	C68	0.794300	0.700100	0.344300
C691	C69	0.713300	0.765500	0.355500
H281	H28	0.680200	0.802500	0.332200
C701	C70	0.681500	0.775600	0.402100
C711	C71	0.731800	0.721100	0.436800
H291	H29	0.710500	0.727500	0.467800
C721	C72	0.813600	0.657200	0.425400
C731	C73	0.844000	0.645500	0.379000
H301	H30	0.897800	0.601100	0.371300
C741	C74	0.589600	0.840300	0.412900
C751	C75	0.869100	0.603000	0.464400
Dy61	Dy6	0.589390	0.042990	0.570040
O411	O41	0.592400	0.938900	0.633900
O421	O42	0.665200	0.790200	0.619300
O431	O43	0.540000	0.646800	0.671700
O441	O44	0.686800	0.586600	0.692400
O451	O45	0.947700	0.603400	0.881000
O461	O46	0.952200	0.661400	0.953000
O471	O47	0.665600	0.889000	0.005000
O481	O48	0.551200	0.947800	0.954500
N61	N6	0.623700	0.653400	0.691200
C761	C76	0.629800	0.856300	0.645900
C771	C77	0.634100	0.838100	0.697400
C781	C78	0.643500	0.745500	0.718700
C791	C79	0.665900	0.731300	0.765400
H311	H31	0.673500	0.666600	0.777200
C801	C80	0.677100	0.813500	0.794700
C811	C81	0.662200	0.909200	0.774800
H321	H32	0.664900	0.965900	0.793700
C821	C82	0.643700	0.920200	0.727500
H331	H33	0.637500	0.984800	0.715300
C831	C83	0.705700	0.799900	0.844300
C841	C84	0.786700	0.734500	0.855500
H341	H34	0.819800	0.697500	0.832200
C851	C85	0.818500	0.724400	0.902100
C861	C86	0.768200	0.778900	0.936800
H351	H35	0.789500	0.772500	0.967800
C871	C87	0.686400	0.842800	0.925400
C881	C88	0.656000	0.854500	0.879000
H361	H36	0.602200	0.898900	0.871300
C891	C89	0.910400	0.659700	0.912900
C901	C90	0.630900	0.897000	0.964400
Dy71	Dy7	0.089390	0.457010	0.429960
O491	O49	0.092400	0.561100	0.366100
O501	O50	0.165200	0.709800	0.380700
O511	O51	0.040000	0.853200	0.328300
O521	O52	0.186800	0.913400	0.307600
O531	O53	0.447700	0.896600	0.119000
O541	O54	0.452200	0.838600	0.047000
O551	O55	0.165600	0.611000	0.995000
O561	O56	0.051200	0.552200	0.045500
N71	N7	0.123700	0.846600	0.308800
C911	C91	0.129800	0.643700	0.354100
C921	C92	0.134100	0.661900	0.302600
C931	C93	0.143500	0.754500	0.281300
C941	C94	0.165900	0.768700	0.234600
H371	H37	0.173500	0.833400	0.222800
C951	C95	0.177100	0.686500	0.205300
C961	C96	0.162200	0.590800	0.225200
H381	H38	0.164900	0.534100	0.206300
C971	C97	0.143700	0.579800	0.272500
H391	H39	0.137500	0.515200	0.284700
C981	C98	0.205700	0.700100	0.155700
C991	C99	0.286700	0.765500	0.144500
H401	H40	0.319800	0.802500	0.167800
C1001	C100	0.318500	0.775600	0.097900
C1011	C101	0.268200	0.721100	0.063200
H411	H41	0.289500	0.727500	0.032200
C1021	C102	0.186400	0.657200	0.074600
C1031	C103	0.156000	0.645500	0.121000
H421	H42	0.102200	0.601100	0.128700
C1041	C104	0.410400	0.840300	0.087100
C1051	C105	0.130900	0.603000	0.035600
Dy81	Dy8	0.410610	0.042990	0.929960
O571	O57	0.407600	0.938900	0.866100
O581	O58	0.334800	0.790200	0.880700
O591	O59	0.460000	0.646800	0.828300
O601	O60	0.313200	0.586600	0.807600
O611	O61	0.052300	0.603400	0.619000
O621	O62	0.047800	0.661400	0.547000
O631	O63	0.334400	0.889000	0.495000
O641	O64	0.448800	0.947800	0.545500
N81	N8	0.376300	0.653400	0.808800
C1061	C106	0.370200	0.856300	0.854100
C1071	C107	0.365900	0.838100	0.802600
C1081	C108	0.356500	0.745500	0.781300
C1091	C109	0.334100	0.731300	0.734600
H431	H43	0.326500	0.666600	0.722800
C1101	C110	0.322900	0.813500	0.705300
C1111	C111	0.337800	0.909200	0.725200
H441	H44	0.335100	0.965900	0.706300
C1121	C112	0.356300	0.920200	0.772500
H451	H45	0.362500	0.984800	0.784700
C1131	C113	0.294300	0.799900	0.655700
C1141	C114	0.213300	0.734500	0.644500
H461	H46	0.180200	0.697500	0.667800
C1151	C115	0.181500	0.724400	0.597900
C1161	C116	0.231800	0.778900	0.563200
H471	H47	0.210500	0.772500	0.532200
C1171	C117	0.313600	0.842800	0.574600
C1181	C118	0.344000	0.854500	0.621000
H481	H48	0.397800	0.898900	0.628700
C1191	C119	0.089600	0.659700	0.587100
C1201	C120	0.369100	0.897000	0.535600
