data_DAMYUO_clean_PM
_symmetry_space_group_name_H-M	'P1'
_cell_length_a	30.619600
_cell_length_b	16.090400
_cell_length_c	25.882200
_cell_angle_alpha	90.000000
_cell_angle_beta	90.008000
_cell_angle_gamma	90.000000
_symmetry_Int_Tables_number 1

loop_
_symmetry_equiv_pos_as_xyz
'x,y,z'

loop_
_atom_site_label
_atom_site_type_symbol
_atom_site_fract_x
_atom_site_fract_y
_atom_site_fract_z
Er11	Er1	0.499450	0.589230	0.062810
Er21	Er2	0.499100	0.714970	0.250290
Er31	Er3	0.499000	0.577580	0.437180
O11	O1	0.448900	0.703200	0.196700
O21	O2	0.456400	0.651200	0.118500
C11	C1	0.434600	0.683400	0.153600
C21	C2	0.386700	0.698800	0.140900
C31	C3	0.359100	0.734400	0.176500
H11	H1	0.369600	0.749700	0.208800
C41	C4	0.314400	0.747900	0.163700
H21	H2	0.295900	0.771800	0.188000
C51	C5	0.298300	0.726600	0.116600
C61	C6	0.326100	0.691600	0.081900
H31	H3	0.315300	0.676700	0.049600
C71	C7	0.371000	0.676700	0.093000
H41	H4	0.389300	0.652700	0.068400
C81	C8	0.251600	0.742000	0.104500
H51	H5	0.237600	0.700300	0.085900
O31	O3	0.547600	0.712500	0.184400
O41	O4	0.554500	0.614200	0.123500
C91	C9	0.567500	0.671900	0.151200
C101	C10	0.615000	0.697300	0.144100
C111	C11	0.630900	0.761400	0.174000
H61	H6	0.612800	0.787700	0.197700
C121	C12	0.675200	0.787200	0.168600
H71	H7	0.686700	0.830000	0.188500
C131	C13	0.700100	0.746600	0.133100
C141	C14	0.684800	0.683600	0.103200
H81	H8	0.703100	0.658000	0.079300
C151	C15	0.640600	0.657000	0.108400
H91	H9	0.629500	0.613900	0.088300
C161	C16	0.745600	0.778100	0.130400
H101	H10	0.747700	0.822900	0.153000
O51	O5	0.044300	0.981000	0.074000
O61	O6	0.042800	0.887700	0.009800
C171	C17	0.059000	0.922900	0.047800
C181	C18	0.103300	0.888000	0.063400
C191	C19	0.124700	0.922200	0.105000
H111	H11	0.111700	0.965900	0.122800
C201	C20	0.166300	0.892500	0.121500
H121	H12	0.180100	0.916400	0.149800
C211	C21	0.185600	0.828900	0.095600
C221	C22	0.164400	0.795300	0.054500
H131	H13	0.177700	0.751700	0.036800
C231	C23	0.122800	0.823700	0.037100
H141	H14	0.109200	0.799300	0.008800
C241	C24	0.228900	0.802000	0.115600
H151	H15	0.240700	0.837100	0.140700
O71	O7	0.546600	0.593300	0.994800
O81	O8	0.551700	0.521700	0.919200
C251	C25	0.563100	0.571500	0.953200
C261	C26	0.606000	0.615000	0.941100
C271	C27	0.622100	0.672000	0.975800
H161	H16	0.606800	0.683700	0.006000
C281	C28	0.662400	0.713000	0.965100
H171	H17	0.673200	0.751400	0.988700
C291	C29	0.685400	0.697200	0.921200
C301	C30	0.669400	0.640900	0.887000
H181	H18	0.685000	0.629600	0.856900
C311	C31	0.629100	0.598900	0.896500
H191	H19	0.618500	0.560700	0.872700
C321	C32	0.726900	0.743700	0.914300
H201	H20	0.730400	0.794300	0.931100
O91	O9	0.552900	0.675500	0.305400
O101	O10	0.554200	0.599200	0.375100
C331	C33	0.571100	0.649200	0.344800
C341	C34	0.616800	0.682100	0.355100
C351	C35	0.638700	0.737700	0.324100
H211	H21	0.625100	0.757800	0.294500
C361	C36	0.681700	0.765400	0.336400
H221	H22	0.696100	0.803000	0.315100
C371	C37	0.701200	0.735800	0.379800
C381	C38	0.679800	0.680900	0.410600
H231	H23	0.693600	0.661400	0.440300
C391	C39	0.636800	0.652400	0.398900
H241	H24	0.622700	0.614700	0.420400
C401	C40	0.745800	0.761600	0.395600
H251	H25	0.750400	0.759300	0.431100
O111	O11	0.946400	0.808600	0.805500
O121	O12	0.953300	0.869900	0.882100
C411	C41	0.933400	0.829900	0.848700
C421	C42	0.887000	0.802300	0.861000
C431	C43	0.864900	0.757600	0.824000
H261	H26	0.878600	0.745400	0.792900
C441	C44	0.821300	0.729500	0.832500
H271	H27	0.806700	0.699500	0.807200
C451	C45	0.801400	0.747100	0.878100
C461	C46	0.823400	0.791200	0.914600
H281	H28	0.809500	0.802800	0.945800
C471	C47	0.867000	0.820300	0.907300
H291	H29	0.881300	0.850300	0.932800
C481	C48	0.756100	0.717900	0.887500
H301	H30	0.748800	0.670300	0.869100
O131	O13	0.958200	0.956800	0.432300
O141	O14	0.952500	0.871800	0.499000
C491	C49	0.939600	0.902200	0.457800
C501	C50	0.896800	0.870600	0.435400
C511	C51	0.882700	0.904600	0.389500
H311	H31	0.898700	0.945600	0.372700
C521	C52	0.842500	0.874500	0.368900
H321	H32	0.831800	0.896100	0.338100
C531	C53	0.819800	0.814500	0.394300
C541	C54	0.834300	0.781400	0.439400
H331	H33	0.818100	0.740400	0.455900
C551	C55	0.874400	0.809700	0.461400
H341	H34	0.884800	0.787700	0.492300
C561	C56	0.778200	0.785700	0.371000
H351	H35	0.776200	0.785700	0.335100
O151	O15	0.954000	0.902300	0.002500
O161	O16	0.952600	0.986500	0.072300
C571	C57	0.939300	0.930400	0.043600
C581	C58	0.897400	0.888600	0.062000
C591	C59	0.879800	0.825400	0.033000
H361	H36	0.892900	0.807600	0.002500
C601	C60	0.840600	0.788100	0.051600
H371	H37	0.828000	0.745200	0.032600
C611	C61	0.820800	0.813100	0.095900
C621	C62	0.838700	0.875600	0.124100
H381	H38	0.825400	0.893100	0.154500
C631	C63	0.878000	0.914700	0.107100
H391	H39	0.890400	0.957400	0.126300
C641	C64	0.780100	0.769400	0.111200
H401	H40	0.783100	0.713700	0.102200
Er41	Er4	0.999450	0.089230	0.062810
Er51	Er5	0.999100	0.214970	0.250290
Er61	Er6	0.999000	0.077580	0.437180
O171	O17	0.948900	0.203200	0.196700
O181	O18	0.956400	0.151200	0.118500
C651	C65	0.934600	0.183400	0.153600
C661	C66	0.886700	0.198800	0.140900
C671	C67	0.859100	0.234400	0.176500
H411	H41	0.869600	0.249700	0.208800
C681	C68	0.814400	0.247900	0.163700
H421	H42	0.795900	0.271800	0.188000
C691	C69	0.798300	0.226600	0.116600
C701	C70	0.826100	0.191600	0.081900
H431	H43	0.815300	0.176700	0.049600
C711	C71	0.871000	0.176700	0.093000
H441	H44	0.889300	0.152700	0.068400
C721	C72	0.751600	0.242000	0.104500
H451	H45	0.737600	0.200300	0.085900
O191	O19	0.047600	0.212500	0.184400
O201	O20	0.054500	0.114200	0.123500
C731	C73	0.067500	0.171900	0.151200
C741	C74	0.115000	0.197300	0.144100
C751	C75	0.130900	0.261400	0.174000
H461	H46	0.112800	0.287700	0.197700
C761	C76	0.175200	0.287200	0.168600
H471	H47	0.186700	0.330000	0.188500
C771	C77	0.200100	0.246600	0.133100
C781	C78	0.184800	0.183600	0.103200
H481	H48	0.203100	0.158000	0.079300
C791	C79	0.140600	0.157000	0.108400
H491	H49	0.129500	0.113900	0.088300
C801	C80	0.245600	0.278100	0.130400
H501	H50	0.247700	0.322900	0.153000
O211	O21	0.544300	0.481000	0.074000
O221	O22	0.542800	0.387700	0.009800
C811	C81	0.559000	0.422900	0.047800
C821	C82	0.603300	0.388000	0.063400
C831	C83	0.624700	0.422200	0.105000
H511	H51	0.611700	0.465900	0.122800
C841	C84	0.666300	0.392500	0.121500
H521	H52	0.680100	0.416400	0.149800
C851	C85	0.685600	0.328900	0.095600
C861	C86	0.664400	0.295300	0.054500
H531	H53	0.677700	0.251700	0.036800
C871	C87	0.622800	0.323700	0.037100
H541	H54	0.609200	0.299300	0.008800
C881	C88	0.728900	0.302000	0.115600
H551	H55	0.740700	0.337100	0.140700
O231	O23	0.046600	0.093300	0.994800
O241	O24	0.051700	0.021700	0.919200
C891	C89	0.063100	0.071500	0.953200
C901	C90	0.106000	0.115000	0.941100
C911	C91	0.122100	0.172000	0.975800
H561	H56	0.106800	0.183700	0.006000
C921	C92	0.162400	0.213000	0.965100
H571	H57	0.173200	0.251400	0.988700
C931	C93	0.185400	0.197200	0.921200
C941	C94	0.169400	0.140900	0.887000
H581	H58	0.185000	0.129600	0.856900
C951	C95	0.129100	0.098900	0.896500
H591	H59	0.118500	0.060700	0.872700
C961	C96	0.226900	0.243700	0.914300
H601	H60	0.230400	0.294300	0.931100
O251	O25	0.052900	0.175500	0.305400
O261	O26	0.054200	0.099200	0.375100
C971	C97	0.071100	0.149200	0.344800
C981	C98	0.116800	0.182100	0.355100
C991	C99	0.138700	0.237700	0.324100
H611	H61	0.125100	0.257800	0.294500
C1001	C100	0.181700	0.265400	0.336400
H621	H62	0.196100	0.303000	0.315100
C1011	C101	0.201200	0.235800	0.379800
C1021	C102	0.179800	0.180900	0.410600
H631	H63	0.193600	0.161400	0.440300
C1031	C103	0.136800	0.152400	0.398900
H641	H64	0.122700	0.114700	0.420400
C1041	C104	0.245800	0.261600	0.395600
H651	H65	0.250400	0.259300	0.431100
O271	O27	0.446400	0.308600	0.805500
O281	O28	0.453300	0.369900	0.882100
C1051	C105	0.433400	0.329900	0.848700
C1061	C106	0.387000	0.302300	0.861000
C1071	C107	0.364900	0.257600	0.824000
H661	H66	0.378600	0.245400	0.792900
C1081	C108	0.321300	0.229500	0.832500
H671	H67	0.306700	0.199500	0.807200
C1091	C109	0.301400	0.247100	0.878100
C1101	C110	0.323400	0.291200	0.914600
H681	H68	0.309500	0.302800	0.945800
C1111	C111	0.367000	0.320300	0.907300
H691	H69	0.381300	0.350300	0.932800
C1121	C112	0.256100	0.217900	0.887500
H701	H70	0.248800	0.170300	0.869100
O291	O29	0.458200	0.456800	0.432300
O301	O30	0.452500	0.371800	0.499000
C1131	C113	0.439600	0.402200	0.457800
C1141	C114	0.396800	0.370600	0.435400
C1151	C115	0.382700	0.404600	0.389500
H711	H71	0.398700	0.445600	0.372700
C1161	C116	0.342500	0.374500	0.368900
H721	H72	0.331800	0.396100	0.338100
C1171	C117	0.319800	0.314500	0.394300
C1181	C118	0.334300	0.281400	0.439400
H731	H73	0.318100	0.240400	0.455900
C1191	C119	0.374400	0.309700	0.461400
H741	H74	0.384800	0.287700	0.492300
C1201	C120	0.278200	0.285700	0.371000
H751	H75	0.276200	0.285700	0.335100
O311	O31	0.454000	0.402300	0.002500
O321	O32	0.452600	0.486500	0.072300
C1211	C121	0.439300	0.430400	0.043600
C1221	C122	0.397400	0.388600	0.062000
C1231	C123	0.379800	0.325400	0.033000
H761	H76	0.392900	0.307600	0.002500
C1241	C124	0.340600	0.288100	0.051600
H771	H77	0.328000	0.245200	0.032600
C1251	C125	0.320800	0.313100	0.095900
C1261	C126	0.338700	0.375600	0.124100
H781	H78	0.325400	0.393100	0.154500
C1271	C127	0.378000	0.414700	0.107100
H791	H79	0.390400	0.457400	0.126300
C1281	C128	0.280100	0.269400	0.111200
H801	H80	0.283100	0.213700	0.102200
Er71	Er7	0.499450	0.410770	0.562810
Er81	Er8	0.499100	0.285030	0.750290
Er91	Er9	0.499000	0.422420	0.937180
O331	O33	0.448900	0.296800	0.696700
O341	O34	0.456400	0.348800	0.618500
C1291	C129	0.434600	0.316600	0.653600
C1301	C130	0.386700	0.301200	0.640900
C1311	C131	0.359100	0.265600	0.676500
H811	H81	0.369600	0.250300	0.708800
C1321	C132	0.314400	0.252100	0.663700
H821	H82	0.295900	0.228200	0.688000
C1331	C133	0.298300	0.273400	0.616600
C1341	C134	0.326100	0.308400	0.581900
H831	H83	0.315300	0.323300	0.549600
C1351	C135	0.371000	0.323300	0.593000
H841	H84	0.389300	0.347300	0.568400
C1361	C136	0.251600	0.258000	0.604500
H851	H85	0.237600	0.299700	0.585900
O351	O35	0.547600	0.287500	0.684400
O361	O36	0.554500	0.385800	0.623500
C1371	C137	0.567500	0.328100	0.651200
C1381	C138	0.615000	0.302700	0.644100
C1391	C139	0.630900	0.238600	0.674000
H861	H86	0.612800	0.212300	0.697700
C1401	C140	0.675200	0.212800	0.668600
H871	H87	0.686700	0.170000	0.688500
C1411	C141	0.700100	0.253400	0.633100
C1421	C142	0.684800	0.316400	0.603200
H881	H88	0.703100	0.342000	0.579300
C1431	C143	0.640600	0.343000	0.608400
H891	H89	0.629500	0.386100	0.588300
C1441	C144	0.745600	0.221900	0.630400
H901	H90	0.747700	0.177100	0.653000
O371	O37	0.044300	0.019000	0.574000
O381	O38	0.042800	0.112300	0.509800
C1451	C145	0.059000	0.077100	0.547800
C1461	C146	0.103300	0.112000	0.563400
C1471	C147	0.124700	0.077800	0.605000
H911	H91	0.111700	0.034100	0.622800
C1481	C148	0.166300	0.107500	0.621500
H921	H92	0.180100	0.083600	0.649800
C1491	C149	0.185600	0.171100	0.595600
C1501	C150	0.164400	0.204700	0.554500
H931	H93	0.177700	0.248300	0.536800
C1511	C151	0.122800	0.176300	0.537100
H941	H94	0.109200	0.200700	0.508800
C1521	C152	0.228900	0.198000	0.615600
H951	H95	0.240700	0.162900	0.640700
O391	O39	0.546600	0.406700	0.494800
O401	O40	0.551700	0.478300	0.419200
C1531	C153	0.563100	0.428500	0.453200
C1541	C154	0.606000	0.385000	0.441100
C1551	C155	0.622100	0.328000	0.475800
H961	H96	0.606800	0.316300	0.506000
C1561	C156	0.662400	0.287000	0.465100
H971	H97	0.673200	0.248600	0.488700
C1571	C157	0.685400	0.302800	0.421200
C1581	C158	0.669400	0.359100	0.387000
H981	H98	0.685000	0.370400	0.356900
C1591	C159	0.629100	0.401100	0.396500
H991	H99	0.618500	0.439300	0.372700
C1601	C160	0.726900	0.256300	0.414300
H1001	H100	0.730400	0.205700	0.431100
O411	O41	0.552900	0.324500	0.805400
O421	O42	0.554200	0.400800	0.875100
C1611	C161	0.571100	0.350800	0.844800
C1621	C162	0.616800	0.317900	0.855100
C1631	C163	0.638700	0.262300	0.824100
H1011	H101	0.625100	0.242200	0.794500
C1641	C164	0.681700	0.234600	0.836400
H1021	H102	0.696100	0.197000	0.815100
C1651	C165	0.701200	0.264200	0.879800
C1661	C166	0.679800	0.319100	0.910600
H1031	H103	0.693600	0.338600	0.940300
C1671	C167	0.636800	0.347600	0.898900
H1041	H104	0.622700	0.385300	0.920400
C1681	C168	0.745800	0.238400	0.895600
H1051	H105	0.750400	0.240700	0.931100
O431	O43	0.946400	0.191400	0.305500
O441	O44	0.953300	0.130100	0.382100
C1691	C169	0.933400	0.170100	0.348700
C1701	C170	0.887000	0.197700	0.361000
C1711	C171	0.864900	0.242400	0.324000
H1061	H106	0.878600	0.254600	0.292900
C1721	C172	0.821300	0.270500	0.332500
H1071	H107	0.806700	0.300500	0.307200
C1731	C173	0.801400	0.252900	0.378100
C1741	C174	0.823400	0.208800	0.414600
H1081	H108	0.809500	0.197200	0.445800
C1751	C175	0.867000	0.179700	0.407300
H1091	H109	0.881300	0.149700	0.432800
C1761	C176	0.756100	0.282100	0.387500
H1101	H110	0.748800	0.329700	0.369100
O451	O45	0.958200	0.043200	0.932300
O461	O46	0.952500	0.128200	0.999000
C1771	C177	0.939600	0.097800	0.957800
C1781	C178	0.896800	0.129400	0.935400
C1791	C179	0.882700	0.095400	0.889500
H1111	H111	0.898700	0.054400	0.872700
C1801	C180	0.842500	0.125500	0.868900
H1121	H112	0.831800	0.103900	0.838100
C1811	C181	0.819800	0.185500	0.894300
C1821	C182	0.834300	0.218600	0.939400
H1131	H113	0.818100	0.259600	0.955900
C1831	C183	0.874400	0.190300	0.961400
H1141	H114	0.884800	0.212300	0.992300
C1841	C184	0.778200	0.214300	0.871000
H1151	H115	0.776200	0.214300	0.835100
O471	O47	0.954000	0.097700	0.502500
O481	O48	0.952600	0.013500	0.572300
C1851	C185	0.939300	0.069600	0.543600
C1861	C186	0.897400	0.111400	0.562000
C1871	C187	0.879800	0.174600	0.533000
H1161	H116	0.892900	0.192400	0.502500
C1881	C188	0.840600	0.211900	0.551600
H1171	H117	0.828000	0.254800	0.532600
C1891	C189	0.820800	0.186900	0.595900
C1901	C190	0.838700	0.124400	0.624100
H1181	H118	0.825400	0.106900	0.654500
C1911	C191	0.878000	0.085300	0.607100
H1191	H119	0.890400	0.042600	0.626300
C1921	C192	0.780100	0.230600	0.611200
H1201	H120	0.783100	0.286300	0.602200
Er101	Er10	0.999450	0.910770	0.562810
Er111	Er11	0.999100	0.785030	0.750290
Er121	Er12	0.999000	0.922420	0.937180
O491	O49	0.948900	0.796800	0.696700
O501	O50	0.956400	0.848800	0.618500
C1931	C193	0.934600	0.816600	0.653600
C1941	C194	0.886700	0.801200	0.640900
C1951	C195	0.859100	0.765600	0.676500
H1211	H121	0.869600	0.750300	0.708800
C1961	C196	0.814400	0.752100	0.663700
H1221	H122	0.795900	0.728200	0.688000
C1971	C197	0.798300	0.773400	0.616600
C1981	C198	0.826100	0.808400	0.581900
H1231	H123	0.815300	0.823300	0.549600
C1991	C199	0.871000	0.823300	0.593000
H1241	H124	0.889300	0.847300	0.568400
C2001	C200	0.751600	0.758000	0.604500
H1251	H125	0.737600	0.799700	0.585900
O511	O51	0.047600	0.787500	0.684400
O521	O52	0.054500	0.885800	0.623500
C2011	C201	0.067500	0.828100	0.651200
C2021	C202	0.115000	0.802700	0.644100
C2031	C203	0.130900	0.738600	0.674000
H1261	H126	0.112800	0.712300	0.697700
C2041	C204	0.175200	0.712800	0.668600
H1271	H127	0.186700	0.670000	0.688500
C2051	C205	0.200100	0.753400	0.633100
C2061	C206	0.184800	0.816400	0.603200
H1281	H128	0.203100	0.842000	0.579300
C2071	C207	0.140600	0.843000	0.608400
H1291	H129	0.129500	0.886100	0.588300
C2081	C208	0.245600	0.721900	0.630400
H1301	H130	0.247700	0.677100	0.653000
O531	O53	0.544300	0.519000	0.574000
O541	O54	0.542800	0.612300	0.509800
C2091	C209	0.559000	0.577100	0.547800
C2101	C210	0.603300	0.612000	0.563400
C2111	C211	0.624700	0.577800	0.605000
H1311	H131	0.611700	0.534100	0.622800
C2121	C212	0.666300	0.607500	0.621500
H1321	H132	0.680100	0.583600	0.649800
C2131	C213	0.685600	0.671100	0.595600
C2141	C214	0.664400	0.704700	0.554500
H1331	H133	0.677700	0.748300	0.536800
C2151	C215	0.622800	0.676300	0.537100
H1341	H134	0.609200	0.700700	0.508800
C2161	C216	0.728900	0.698000	0.615600
H1351	H135	0.740700	0.662900	0.640700
O551	O55	0.046600	0.906700	0.494800
O561	O56	0.051700	0.978300	0.419200
C2171	C217	0.063100	0.928500	0.453200
C2181	C218	0.106000	0.885000	0.441100
C2191	C219	0.122100	0.828000	0.475800
H1361	H136	0.106800	0.816300	0.506000
C2201	C220	0.162400	0.787000	0.465100
H1371	H137	0.173200	0.748600	0.488700
C2211	C221	0.185400	0.802800	0.421200
C2221	C222	0.169400	0.859100	0.387000
H1381	H138	0.185000	0.870400	0.356900
C2231	C223	0.129100	0.901100	0.396500
H1391	H139	0.118500	0.939300	0.372700
C2241	C224	0.226900	0.756300	0.414300
H1401	H140	0.230400	0.705700	0.431100
O571	O57	0.052900	0.824500	0.805400
O581	O58	0.054200	0.900800	0.875100
C2251	C225	0.071100	0.850800	0.844800
C2261	C226	0.116800	0.817900	0.855100
C2271	C227	0.138700	0.762300	0.824100
H1411	H141	0.125100	0.742200	0.794500
C2281	C228	0.181700	0.734600	0.836400
H1421	H142	0.196100	0.697000	0.815100
C2291	C229	0.201200	0.764200	0.879800
C2301	C230	0.179800	0.819100	0.910600
H1431	H143	0.193600	0.838600	0.940300
C2311	C231	0.136800	0.847600	0.898900
H1441	H144	0.122700	0.885300	0.920400
C2321	C232	0.245800	0.738400	0.895600
H1451	H145	0.250400	0.740700	0.931100
O591	O59	0.446400	0.691400	0.305500
O601	O60	0.453300	0.630100	0.382100
C2331	C233	0.433400	0.670100	0.348700
C2341	C234	0.387000	0.697700	0.361000
C2351	C235	0.364900	0.742400	0.324000
H1461	H146	0.378600	0.754600	0.292900
C2361	C236	0.321300	0.770500	0.332500
H1471	H147	0.306700	0.800500	0.307200
C2371	C237	0.301400	0.752900	0.378100
C2381	C238	0.323400	0.708800	0.414600
H1481	H148	0.309500	0.697200	0.445800
C2391	C239	0.367000	0.679700	0.407300
H1491	H149	0.381300	0.649700	0.432800
C2401	C240	0.256100	0.782100	0.387500
H1501	H150	0.248800	0.829700	0.369100
O611	O61	0.458200	0.543200	0.932300
O621	O62	0.452500	0.628200	0.999000
C2411	C241	0.439600	0.597800	0.957800
C2421	C242	0.396800	0.629400	0.935400
C2431	C243	0.382700	0.595400	0.889500
H1511	H151	0.398700	0.554400	0.872700
C2441	C244	0.342500	0.625500	0.868900
H1521	H152	0.331800	0.603900	0.838100
C2451	C245	0.319800	0.685500	0.894300
C2461	C246	0.334300	0.718600	0.939400
H1531	H153	0.318100	0.759600	0.955900
C2471	C247	0.374400	0.690300	0.961400
H1541	H154	0.384800	0.712300	0.992300
C2481	C248	0.278200	0.714300	0.871000
H1551	H155	0.276200	0.714300	0.835100
O631	O63	0.454000	0.597700	0.502500
O641	O64	0.452600	0.513500	0.572300
C2491	C249	0.439300	0.569600	0.543600
C2501	C250	0.397400	0.611400	0.562000
C2511	C251	0.379800	0.674600	0.533000
H1561	H156	0.392900	0.692400	0.502500
C2521	C252	0.340600	0.711900	0.551600
H1571	H157	0.328000	0.754800	0.532600
C2531	C253	0.320800	0.686900	0.595900
C2541	C254	0.338700	0.624400	0.624100
H1581	H158	0.325400	0.606900	0.654500
C2551	C255	0.378000	0.585300	0.607100
H1591	H159	0.390400	0.542600	0.626300
C2561	C256	0.280100	0.730600	0.611200
H1601	H160	0.283100	0.786300	0.602200
