data_DAMYOI_clean_PM
_symmetry_space_group_name_H-M	'P1'
_cell_length_a	30.492000
_cell_length_b	15.986100
_cell_length_c	25.702200
_cell_angle_alpha	90.000000
_cell_angle_beta	89.991000
_cell_angle_gamma	90.000000
_symmetry_Int_Tables_number 1

loop_
_symmetry_equiv_pos_as_xyz
'x,y,z'

loop_
_atom_site_label
_atom_site_type_symbol
_atom_site_fract_x
_atom_site_fract_y
_atom_site_fract_z
Tm11	Tm1	0.499890	0.597720	0.063660
Tm21	Tm2	0.500430	0.708060	0.251110
Tm31	Tm3	0.499700	0.569090	0.437510
O11	O1	0.447200	0.698200	0.198700
O21	O2	0.457400	0.642500	0.123200
C11	C1	0.433400	0.678700	0.155000
C21	C2	0.386500	0.700600	0.141800
C31	C3	0.359000	0.740500	0.175600
H11	H1	0.369300	0.755300	0.208400
C41	C4	0.315100	0.759800	0.161700
H21	H2	0.296900	0.787000	0.185400
C51	C5	0.299500	0.739100	0.114400
C61	C6	0.325800	0.699700	0.080300
H31	H3	0.315200	0.685000	0.047600
C71	C7	0.369800	0.680500	0.094200
H41	H4	0.387600	0.653500	0.070100
C81	C8	0.252700	0.762600	0.103600
H51	H5	0.239800	0.732400	0.076700
O31	O3	0.549000	0.720600	0.183700
O41	O4	0.555500	0.621000	0.121700
C91	C9	0.568400	0.678700	0.150200
C101	C10	0.616000	0.704300	0.144200
C111	C11	0.633300	0.767400	0.173600
H61	H6	0.615800	0.795000	0.197800
C121	C12	0.678000	0.790900	0.167700
H71	H7	0.689800	0.833600	0.187800
C131	C13	0.703000	0.750700	0.132400
C141	C14	0.687100	0.688400	0.102700
H81	H8	0.704900	0.661500	0.078500
C151	C15	0.642400	0.664900	0.109000
H91	H9	0.631000	0.621800	0.088900
C161	C16	0.749900	0.778100	0.128000
H101	H10	0.757000	0.820400	0.151400
O51	O5	0.040800	0.978400	0.063300
O61	O6	0.045500	0.876400	0.005400
C171	C17	0.059500	0.918100	0.042700
C181	C18	0.103500	0.892000	0.064500
C191	C19	0.121400	0.934400	0.105500
H111	H11	0.107000	0.979700	0.120500
C201	C20	0.162900	0.907300	0.124400
H121	H12	0.175600	0.935400	0.152300
C211	C21	0.184300	0.842100	0.103100
C221	C22	0.166600	0.800200	0.062800
H131	H13	0.181400	0.755200	0.048000
C231	C23	0.125200	0.825800	0.043100
H141	H14	0.112800	0.797200	0.015300
C241	C24	0.228000	0.815000	0.124100
H151	H15	0.237400	0.839500	0.155000
O71	O7	0.546300	0.597500	0.992500
O81	O8	0.555600	0.520300	0.920000
C251	C25	0.565700	0.574000	0.952800
C261	C26	0.608700	0.618600	0.943000
C271	C27	0.624800	0.679300	0.975000
H161	H16	0.609000	0.694700	0.004400
C281	C28	0.665400	0.719300	0.964300
H171	H17	0.675500	0.760500	0.986900
C291	C29	0.689800	0.699500	0.922300
C301	C30	0.674700	0.639700	0.890100
H181	H18	0.690900	0.624700	0.860800
C311	C31	0.634000	0.599800	0.900800
H191	H19	0.624200	0.558800	0.877900
C321	C32	0.732300	0.745300	0.914400
H201	H20	0.739200	0.793300	0.933100
O91	O9	0.554900	0.677100	0.303900
O101	O10	0.550500	0.593400	0.371300
C331	C33	0.570200	0.644700	0.343800
C341	C34	0.616000	0.674000	0.356400
C351	C35	0.637800	0.730700	0.326100
H211	H21	0.623900	0.752300	0.296800
C361	C36	0.681000	0.757700	0.338100
H221	H22	0.695700	0.796100	0.317300
C371	C37	0.699700	0.725300	0.381100
C381	C38	0.679200	0.669400	0.411700
H231	H23	0.693400	0.648300	0.441000
C391	C39	0.636100	0.642400	0.399500
H241	H24	0.621700	0.603800	0.420600
C401	C40	0.745300	0.750800	0.396600
H251	H25	0.749100	0.750100	0.432500
O111	O11	0.952100	0.812400	0.812500
O121	O12	0.950700	0.885100	0.885700
C411	C41	0.934300	0.837900	0.852900
C421	C42	0.888000	0.807600	0.862100
C431	C43	0.869200	0.755400	0.826400
H261	H26	0.884800	0.738900	0.797100
C441	C44	0.825700	0.726400	0.834300
H271	H27	0.812700	0.691000	0.810100
C451	C45	0.803300	0.750200	0.876900
C461	C46	0.821100	0.801600	0.912700
H281	H28	0.805200	0.817600	0.941900
C471	C47	0.864600	0.830900	0.904900
H291	H29	0.877300	0.866400	0.929300
C481	C48	0.757600	0.715600	0.881400
H301	H30	0.748500	0.672500	0.859700
O131	O13	0.960700	0.945600	0.429500
O141	O14	0.953900	0.863000	0.500100
C491	C49	0.942500	0.892900	0.457600
C501	C50	0.899500	0.860900	0.435900
C511	C51	0.884500	0.890300	0.389400
H311	H31	0.900400	0.929900	0.370900
C521	C52	0.844000	0.859600	0.369600
H321	H32	0.833400	0.879100	0.338000
C531	C53	0.821300	0.802400	0.396800
C541	C54	0.836600	0.773700	0.442500
H331	H33	0.820500	0.733900	0.460600
C551	C55	0.876800	0.802600	0.463800
H341	H34	0.887200	0.782600	0.495400
C561	C56	0.778800	0.772400	0.373600
H351	H35	0.777800	0.769800	0.337500
O151	O15	0.954400	0.914000	0.001000
O161	O16	0.953700	0.988900	0.075500
C571	C57	0.940000	0.936400	0.044000
C581	C58	0.898600	0.892600	0.061800
C591	C59	0.881000	0.833700	0.029600
H361	H36	0.894200	0.821000	0.997900
C601	C60	0.842000	0.792100	0.045400
H371	H37	0.830100	0.751800	0.023500
C611	C61	0.821600	0.808200	0.090700
C621	C62	0.838900	0.866300	0.122500
H381	H38	0.825300	0.878600	0.154000
C631	C63	0.877900	0.909100	0.107800
H391	H39	0.889600	0.949100	0.130100
C641	C64	0.780800	0.758100	0.101000
H401	H40	0.779100	0.706100	0.084900
Tm41	Tm4	0.999890	0.097720	0.063660
Tm51	Tm5	0.000430	0.208060	0.251110
Tm61	Tm6	0.999700	0.069090	0.437510
O171	O17	0.947200	0.198200	0.198700
O181	O18	0.957400	0.142500	0.123200
C651	C65	0.933400	0.178700	0.155000
C661	C66	0.886500	0.200600	0.141800
C671	C67	0.859000	0.240500	0.175600
H411	H41	0.869300	0.255300	0.208400
C681	C68	0.815100	0.259800	0.161700
H421	H42	0.796900	0.287000	0.185400
C691	C69	0.799500	0.239100	0.114400
C701	C70	0.825800	0.199700	0.080300
H431	H43	0.815200	0.185000	0.047600
C711	C71	0.869800	0.180500	0.094200
H441	H44	0.887600	0.153500	0.070100
C721	C72	0.752700	0.262600	0.103600
H451	H45	0.739800	0.232400	0.076700
O191	O19	0.049000	0.220600	0.183700
O201	O20	0.055500	0.121000	0.121700
C731	C73	0.068400	0.178700	0.150200
C741	C74	0.116000	0.204300	0.144200
C751	C75	0.133300	0.267400	0.173600
H461	H46	0.115800	0.295000	0.197800
C761	C76	0.178000	0.290900	0.167700
H471	H47	0.189800	0.333600	0.187800
C771	C77	0.203000	0.250700	0.132400
C781	C78	0.187100	0.188400	0.102700
H481	H48	0.204900	0.161500	0.078500
C791	C79	0.142400	0.164900	0.109000
H491	H49	0.131000	0.121800	0.088900
C801	C80	0.249900	0.278100	0.128000
H501	H50	0.257000	0.320400	0.151400
O211	O21	0.540800	0.478400	0.063300
O221	O22	0.545500	0.376400	0.005400
C811	C81	0.559500	0.418100	0.042700
C821	C82	0.603500	0.392000	0.064500
C831	C83	0.621400	0.434400	0.105500
H511	H51	0.607000	0.479700	0.120500
C841	C84	0.662900	0.407300	0.124400
H521	H52	0.675600	0.435400	0.152300
C851	C85	0.684300	0.342100	0.103100
C861	C86	0.666600	0.300200	0.062800
H531	H53	0.681400	0.255200	0.048000
C871	C87	0.625200	0.325800	0.043100
H541	H54	0.612800	0.297200	0.015300
C881	C88	0.728000	0.315000	0.124100
H551	H55	0.737400	0.339500	0.155000
O231	O23	0.046300	0.097500	0.992500
O241	O24	0.055600	0.020300	0.920000
C891	C89	0.065700	0.074000	0.952800
C901	C90	0.108700	0.118600	0.943000
C911	C91	0.124800	0.179300	0.975000
H561	H56	0.109000	0.194700	0.004400
C921	C92	0.165400	0.219300	0.964300
H571	H57	0.175500	0.260500	0.986900
C931	C93	0.189800	0.199500	0.922300
C941	C94	0.174700	0.139700	0.890100
H581	H58	0.190900	0.124700	0.860800
C951	C95	0.134000	0.099800	0.900800
H591	H59	0.124200	0.058800	0.877900
C961	C96	0.232300	0.245300	0.914400
H601	H60	0.239200	0.293300	0.933100
O251	O25	0.054900	0.177100	0.303900
O261	O26	0.050500	0.093400	0.371300
C971	C97	0.070200	0.144700	0.343800
C981	C98	0.116000	0.174000	0.356400
C991	C99	0.137800	0.230700	0.326100
H611	H61	0.123900	0.252300	0.296800
C1001	C100	0.181000	0.257700	0.338100
H621	H62	0.195700	0.296100	0.317300
C1011	C101	0.199700	0.225300	0.381100
C1021	C102	0.179200	0.169400	0.411700
H631	H63	0.193400	0.148300	0.441000
C1031	C103	0.136100	0.142400	0.399500
H641	H64	0.121700	0.103800	0.420600
C1041	C104	0.245300	0.250800	0.396600
H651	H65	0.249100	0.250100	0.432500
O271	O27	0.452100	0.312400	0.812500
O281	O28	0.450700	0.385100	0.885700
C1051	C105	0.434300	0.337900	0.852900
C1061	C106	0.388000	0.307600	0.862100
C1071	C107	0.369200	0.255400	0.826400
H661	H66	0.384800	0.238900	0.797100
C1081	C108	0.325700	0.226400	0.834300
H671	H67	0.312700	0.191000	0.810100
C1091	C109	0.303300	0.250200	0.876900
C1101	C110	0.321100	0.301600	0.912700
H681	H68	0.305200	0.317600	0.941900
C1111	C111	0.364600	0.330900	0.904900
H691	H69	0.377300	0.366400	0.929300
C1121	C112	0.257600	0.215600	0.881400
H701	H70	0.248500	0.172500	0.859700
O291	O29	0.460700	0.445600	0.429500
O301	O30	0.453900	0.363000	0.500100
C1131	C113	0.442500	0.392900	0.457600
C1141	C114	0.399500	0.360900	0.435900
C1151	C115	0.384500	0.390300	0.389400
H711	H71	0.400400	0.429900	0.370900
C1161	C116	0.344000	0.359600	0.369600
H721	H72	0.333400	0.379100	0.338000
C1171	C117	0.321300	0.302400	0.396800
C1181	C118	0.336600	0.273700	0.442500
H731	H73	0.320500	0.233900	0.460600
C1191	C119	0.376800	0.302600	0.463800
H741	H74	0.387200	0.282600	0.495400
C1201	C120	0.278800	0.272400	0.373600
H751	H75	0.277800	0.269800	0.337500
O311	O31	0.454400	0.414000	0.001000
O321	O32	0.453700	0.488900	0.075500
C1211	C121	0.440000	0.436400	0.044000
C1221	C122	0.398600	0.392600	0.061800
C1231	C123	0.381000	0.333700	0.029600
H761	H76	0.394200	0.321000	0.997900
C1241	C124	0.342000	0.292100	0.045400
H771	H77	0.330100	0.251800	0.023500
C1251	C125	0.321600	0.308200	0.090700
C1261	C126	0.338900	0.366300	0.122500
H781	H78	0.325300	0.378600	0.154000
C1271	C127	0.377900	0.409100	0.107800
H791	H79	0.389600	0.449100	0.130100
C1281	C128	0.280800	0.258100	0.101000
H801	H80	0.279100	0.206100	0.084900
Tm71	Tm7	0.499890	0.402280	0.563660
Tm81	Tm8	0.500430	0.291940	0.751110
Tm91	Tm9	0.499700	0.430910	0.937510
O331	O33	0.447200	0.301800	0.698700
O341	O34	0.457400	0.357500	0.623200
C1291	C129	0.433400	0.321300	0.655000
C1301	C130	0.386500	0.299400	0.641800
C1311	C131	0.359000	0.259500	0.675600
H811	H81	0.369300	0.244700	0.708400
C1321	C132	0.315100	0.240200	0.661700
H821	H82	0.296900	0.213000	0.685400
C1331	C133	0.299500	0.260900	0.614400
C1341	C134	0.325800	0.300300	0.580300
H831	H83	0.315200	0.315000	0.547600
C1351	C135	0.369800	0.319500	0.594200
H841	H84	0.387600	0.346500	0.570100
C1361	C136	0.252700	0.237400	0.603600
H851	H85	0.239800	0.267600	0.576700
O351	O35	0.549000	0.279400	0.683700
O361	O36	0.555500	0.379000	0.621700
C1371	C137	0.568400	0.321300	0.650200
C1381	C138	0.616000	0.295700	0.644200
C1391	C139	0.633300	0.232600	0.673600
H861	H86	0.615800	0.205000	0.697800
C1401	C140	0.678000	0.209100	0.667700
H871	H87	0.689800	0.166400	0.687800
C1411	C141	0.703000	0.249300	0.632400
C1421	C142	0.687100	0.311600	0.602700
H881	H88	0.704900	0.338500	0.578500
C1431	C143	0.642400	0.335100	0.609000
H891	H89	0.631000	0.378200	0.588900
C1441	C144	0.749900	0.221900	0.628000
H901	H90	0.757000	0.179600	0.651400
O371	O37	0.040800	0.021600	0.563300
O381	O38	0.045500	0.123600	0.505400
C1451	C145	0.059500	0.081900	0.542700
C1461	C146	0.103500	0.108000	0.564500
C1471	C147	0.121400	0.065600	0.605500
H911	H91	0.107000	0.020300	0.620500
C1481	C148	0.162900	0.092700	0.624400
H921	H92	0.175600	0.064600	0.652300
C1491	C149	0.184300	0.157900	0.603100
C1501	C150	0.166600	0.199800	0.562800
H931	H93	0.181400	0.244800	0.548000
C1511	C151	0.125200	0.174200	0.543100
H941	H94	0.112800	0.202800	0.515300
C1521	C152	0.228000	0.185000	0.624100
H951	H95	0.237400	0.160500	0.655000
O391	O39	0.546300	0.402500	0.492500
O401	O40	0.555600	0.479700	0.420000
C1531	C153	0.565700	0.426000	0.452800
C1541	C154	0.608700	0.381400	0.443000
C1551	C155	0.624800	0.320700	0.475000
H961	H96	0.609000	0.305300	0.504400
C1561	C156	0.665400	0.280700	0.464300
H971	H97	0.675500	0.239500	0.486900
C1571	C157	0.689800	0.300500	0.422300
C1581	C158	0.674700	0.360300	0.390100
H981	H98	0.690900	0.375300	0.360800
C1591	C159	0.634000	0.400200	0.400800
H991	H99	0.624200	0.441200	0.377900
C1601	C160	0.732300	0.254700	0.414400
H1001	H100	0.739200	0.206700	0.433100
O411	O41	0.554900	0.322900	0.803900
O421	O42	0.550500	0.406600	0.871300
C1611	C161	0.570200	0.355300	0.843800
C1621	C162	0.616000	0.326000	0.856400
C1631	C163	0.637800	0.269300	0.826100
H1011	H101	0.623900	0.247700	0.796800
C1641	C164	0.681000	0.242300	0.838100
H1021	H102	0.695700	0.203900	0.817300
C1651	C165	0.699700	0.274700	0.881100
C1661	C166	0.679200	0.330600	0.911700
H1031	H103	0.693400	0.351700	0.941000
C1671	C167	0.636100	0.357600	0.899500
H1041	H104	0.621700	0.396200	0.920600
C1681	C168	0.745300	0.249200	0.896600
H1051	H105	0.749100	0.249900	0.932500
O431	O43	0.952100	0.187600	0.312500
O441	O44	0.950700	0.114900	0.385700
C1691	C169	0.934300	0.162100	0.352900
C1701	C170	0.888000	0.192400	0.362100
C1711	C171	0.869200	0.244600	0.326400
H1061	H106	0.884800	0.261100	0.297100
C1721	C172	0.825700	0.273600	0.334300
H1071	H107	0.812700	0.309000	0.310100
C1731	C173	0.803300	0.249800	0.376900
C1741	C174	0.821100	0.198400	0.412700
H1081	H108	0.805200	0.182400	0.441900
C1751	C175	0.864600	0.169100	0.404900
H1091	H109	0.877300	0.133600	0.429300
C1761	C176	0.757600	0.284400	0.381400
H1101	H110	0.748500	0.327500	0.359700
O451	O45	0.960700	0.054400	0.929500
O461	O46	0.953900	0.137000	0.000100
C1771	C177	0.942500	0.107100	0.957600
C1781	C178	0.899500	0.139100	0.935900
C1791	C179	0.884500	0.109700	0.889400
H1111	H111	0.900400	0.070100	0.870900
C1801	C180	0.844000	0.140400	0.869600
H1121	H112	0.833400	0.120900	0.838000
C1811	C181	0.821300	0.197600	0.896800
C1821	C182	0.836600	0.226300	0.942500
H1131	H113	0.820500	0.266100	0.960600
C1831	C183	0.876800	0.197400	0.963800
H1141	H114	0.887200	0.217400	0.995400
C1841	C184	0.778800	0.227600	0.873600
H1151	H115	0.777800	0.230200	0.837500
O471	O47	0.954400	0.086000	0.501000
O481	O48	0.953700	0.011100	0.575500
C1851	C185	0.940000	0.063600	0.544000
C1861	C186	0.898600	0.107400	0.561800
C1871	C187	0.881000	0.166300	0.529600
H1161	H116	0.894200	0.179000	0.497900
C1881	C188	0.842000	0.207900	0.545400
H1171	H117	0.830100	0.248200	0.523500
C1891	C189	0.821600	0.191800	0.590700
C1901	C190	0.838900	0.133700	0.622500
H1181	H118	0.825300	0.121400	0.654000
C1911	C191	0.877900	0.090900	0.607800
H1191	H119	0.889600	0.050900	0.630100
C1921	C192	0.780800	0.241900	0.601000
H1201	H120	0.779100	0.293900	0.584900
Tm101	Tm10	0.999890	0.902280	0.563660
Tm111	Tm11	0.000430	0.791940	0.751110
Tm121	Tm12	0.999700	0.930910	0.937510
O491	O49	0.947200	0.801800	0.698700
O501	O50	0.957400	0.857500	0.623200
C1931	C193	0.933400	0.821300	0.655000
C1941	C194	0.886500	0.799400	0.641800
C1951	C195	0.859000	0.759500	0.675600
H1211	H121	0.869300	0.744700	0.708400
C1961	C196	0.815100	0.740200	0.661700
H1221	H122	0.796900	0.713000	0.685400
C1971	C197	0.799500	0.760900	0.614400
C1981	C198	0.825800	0.800300	0.580300
H1231	H123	0.815200	0.815000	0.547600
C1991	C199	0.869800	0.819500	0.594200
H1241	H124	0.887600	0.846500	0.570100
C2001	C200	0.752700	0.737400	0.603600
H1251	H125	0.739800	0.767600	0.576700
O511	O51	0.049000	0.779400	0.683700
O521	O52	0.055500	0.879000	0.621700
C2011	C201	0.068400	0.821300	0.650200
C2021	C202	0.116000	0.795700	0.644200
C2031	C203	0.133300	0.732600	0.673600
H1261	H126	0.115800	0.705000	0.697800
C2041	C204	0.178000	0.709100	0.667700
H1271	H127	0.189800	0.666400	0.687800
C2051	C205	0.203000	0.749300	0.632400
C2061	C206	0.187100	0.811600	0.602700
H1281	H128	0.204900	0.838500	0.578500
C2071	C207	0.142400	0.835100	0.609000
H1291	H129	0.131000	0.878200	0.588900
C2081	C208	0.249900	0.721900	0.628000
H1301	H130	0.257000	0.679600	0.651400
O531	O53	0.540800	0.521600	0.563300
O541	O54	0.545500	0.623600	0.505400
C2091	C209	0.559500	0.581900	0.542700
C2101	C210	0.603500	0.608000	0.564500
C2111	C211	0.621400	0.565600	0.605500
H1311	H131	0.607000	0.520300	0.620500
C2121	C212	0.662900	0.592700	0.624400
H1321	H132	0.675600	0.564600	0.652300
C2131	C213	0.684300	0.657900	0.603100
C2141	C214	0.666600	0.699800	0.562800
H1331	H133	0.681400	0.744800	0.548000
C2151	C215	0.625200	0.674200	0.543100
H1341	H134	0.612800	0.702800	0.515300
C2161	C216	0.728000	0.685000	0.624100
H1351	H135	0.737400	0.660500	0.655000
O551	O55	0.046300	0.902500	0.492500
O561	O56	0.055600	0.979700	0.420000
C2171	C217	0.065700	0.926000	0.452800
C2181	C218	0.108700	0.881400	0.443000
C2191	C219	0.124800	0.820700	0.475000
H1361	H136	0.109000	0.805300	0.504400
C2201	C220	0.165400	0.780700	0.464300
H1371	H137	0.175500	0.739500	0.486900
C2211	C221	0.189800	0.800500	0.422300
C2221	C222	0.174700	0.860300	0.390100
H1381	H138	0.190900	0.875300	0.360800
C2231	C223	0.134000	0.900200	0.400800
H1391	H139	0.124200	0.941200	0.377900
C2241	C224	0.232300	0.754700	0.414400
H1401	H140	0.239200	0.706700	0.433100
O571	O57	0.054900	0.822900	0.803900
O581	O58	0.050500	0.906600	0.871300
C2251	C225	0.070200	0.855300	0.843800
C2261	C226	0.116000	0.826000	0.856400
C2271	C227	0.137800	0.769300	0.826100
H1411	H141	0.123900	0.747700	0.796800
C2281	C228	0.181000	0.742300	0.838100
H1421	H142	0.195700	0.703900	0.817300
C2291	C229	0.199700	0.774700	0.881100
C2301	C230	0.179200	0.830600	0.911700
H1431	H143	0.193400	0.851700	0.941000
C2311	C231	0.136100	0.857600	0.899500
H1441	H144	0.121700	0.896200	0.920600
C2321	C232	0.245300	0.749200	0.896600
H1451	H145	0.249100	0.749900	0.932500
O591	O59	0.452100	0.687600	0.312500
O601	O60	0.450700	0.614900	0.385700
C2331	C233	0.434300	0.662100	0.352900
C2341	C234	0.388000	0.692400	0.362100
C2351	C235	0.369200	0.744600	0.326400
H1461	H146	0.384800	0.761100	0.297100
C2361	C236	0.325700	0.773600	0.334300
H1471	H147	0.312700	0.809000	0.310100
C2371	C237	0.303300	0.749800	0.376900
C2381	C238	0.321100	0.698400	0.412700
H1481	H148	0.305200	0.682400	0.441900
C2391	C239	0.364600	0.669100	0.404900
H1491	H149	0.377300	0.633600	0.429300
C2401	C240	0.257600	0.784400	0.381400
H1501	H150	0.248500	0.827500	0.359700
O611	O61	0.460700	0.554400	0.929500
O621	O62	0.453900	0.637000	0.000100
C2411	C241	0.442500	0.607100	0.957600
C2421	C242	0.399500	0.639100	0.935900
C2431	C243	0.384500	0.609700	0.889400
H1511	H151	0.400400	0.570100	0.870900
C2441	C244	0.344000	0.640400	0.869600
H1521	H152	0.333400	0.620900	0.838000
C2451	C245	0.321300	0.697600	0.896800
C2461	C246	0.336600	0.726300	0.942500
H1531	H153	0.320500	0.766100	0.960600
C2471	C247	0.376800	0.697400	0.963800
H1541	H154	0.387200	0.717400	0.995400
C2481	C248	0.278800	0.727600	0.873600
H1551	H155	0.277800	0.730200	0.837500
O631	O63	0.454400	0.586000	0.501000
O641	O64	0.453700	0.511100	0.575500
C2491	C249	0.440000	0.563600	0.544000
C2501	C250	0.398600	0.607400	0.561800
C2511	C251	0.381000	0.666300	0.529600
H1561	H156	0.394200	0.679000	0.497900
C2521	C252	0.342000	0.707900	0.545400
H1571	H157	0.330100	0.748200	0.523500
C2531	C253	0.321600	0.691800	0.590700
C2541	C254	0.338900	0.633700	0.622500
H1581	H158	0.325300	0.621400	0.654000
C2551	C255	0.377900	0.590900	0.607800
H1591	H159	0.389600	0.550900	0.630100
C2561	C256	0.280800	0.741900	0.601000
H1601	H160	0.279100	0.793900	0.584900
