data_DANVEU_clean_PM
_symmetry_space_group_name_H-M	'P1'
_cell_length_a	20.366100
_cell_length_b	20.366100
_cell_length_c	20.366100
_cell_angle_alpha	90.000000
_cell_angle_beta	90.000000
_cell_angle_gamma	90.000000
_symmetry_Int_Tables_number 1

loop_
_symmetry_equiv_pos_as_xyz
'x,y,z'

loop_
_atom_site_label
_atom_site_type_symbol
_atom_site_fract_x
_atom_site_fract_y
_atom_site_fract_z
La11	La1	0.742760	0.145550	0.012690
O11	O1	0.835100	0.208500	0.960000
O21	O2	0.884000	0.295800	0.915800
O31	O3	0.642300	0.202600	0.053000
O41	O4	0.579600	0.289600	0.076000
N11	N1	0.735000	0.275700	0.000800
C11	C1	0.839300	0.269100	0.947900
C21	C2	0.783600	0.311100	0.974100
C31	C3	0.781900	0.378700	0.970000
H11	H1	0.816300	0.401800	0.950600
C41	C4	0.728200	0.411400	0.995200
H21	H2	0.726300	0.457000	0.993900
C51	C5	0.676900	0.375400	0.022400
H31	H3	0.639800	0.396300	0.038800
C61	C6	0.682500	0.308100	0.024500
C71	C7	0.630500	0.263600	0.053300
La21	La2	0.757240	0.854450	0.512690
O51	O5	0.664900	0.791500	0.460000
O61	O6	0.616000	0.704200	0.415800
O71	O7	0.857700	0.797400	0.553000
O81	O8	0.920400	0.710400	0.576000
N21	N2	0.765000	0.724300	0.500800
C81	C8	0.660700	0.730900	0.447900
C91	C9	0.716400	0.688900	0.474100
C101	C10	0.718100	0.621300	0.470000
H41	H4	0.683700	0.598200	0.450600
C111	C11	0.771800	0.588600	0.495200
H51	H5	0.773700	0.543000	0.493900
C121	C12	0.823100	0.624600	0.522400
H61	H6	0.860200	0.603700	0.538800
C131	C13	0.817500	0.691900	0.524500
C141	C14	0.869500	0.736400	0.553300
La31	La3	0.257240	0.645550	0.487310
O91	O9	0.164900	0.708500	0.540000
O101	O10	0.116000	0.795800	0.584200
O111	O11	0.357700	0.702600	0.447000
O121	O12	0.420400	0.789600	0.424000
N31	N3	0.265000	0.775700	0.499200
C151	C15	0.160700	0.769100	0.552100
C161	C16	0.216400	0.811100	0.525900
C171	C17	0.218100	0.878700	0.530000
H71	H7	0.183700	0.901800	0.549400
C181	C18	0.271800	0.911400	0.504800
H81	H8	0.273700	0.957000	0.506100
C191	C19	0.323100	0.875400	0.477600
H91	H9	0.360200	0.896300	0.461200
C201	C20	0.317500	0.808100	0.475500
C211	C21	0.369500	0.763600	0.446700
La41	La4	0.242760	0.354450	0.987310
O131	O13	0.335100	0.291500	0.040000
O141	O14	0.384000	0.204200	0.084200
O151	O15	0.142300	0.297400	0.947000
O161	O16	0.079600	0.210400	0.924000
N41	N4	0.235000	0.224300	0.999200
C221	C22	0.339300	0.230900	0.052100
C231	C23	0.283600	0.188900	0.025900
C241	C24	0.281900	0.121300	0.030000
H101	H10	0.316300	0.098200	0.049400
C251	C25	0.228200	0.088600	0.004800
H111	H11	0.226300	0.043000	0.006100
C261	C26	0.176900	0.124600	0.977600
H121	H12	0.139800	0.103700	0.961200
C271	C27	0.182500	0.191900	0.975500
C281	C28	0.130500	0.236400	0.946700
La51	La5	0.012690	0.742760	0.145550
O171	O17	0.960000	0.835100	0.208500
O181	O18	0.915800	0.884000	0.295800
O191	O19	0.053000	0.642300	0.202600
O201	O20	0.076000	0.579600	0.289600
N51	N5	0.000800	0.735000	0.275700
C291	C29	0.947900	0.839300	0.269100
C301	C30	0.974100	0.783600	0.311100
C311	C31	0.970000	0.781900	0.378700
H131	H13	0.950600	0.816300	0.401800
C321	C32	0.995200	0.728200	0.411400
H141	H14	0.993900	0.726300	0.457000
C331	C33	0.022400	0.676900	0.375400
H151	H15	0.038800	0.639800	0.396300
C341	C34	0.024500	0.682500	0.308100
C351	C35	0.053300	0.630500	0.263600
La61	La6	0.512690	0.757240	0.854450
O211	O21	0.460000	0.664900	0.791500
O221	O22	0.415800	0.616000	0.704200
O231	O23	0.553000	0.857700	0.797400
O241	O24	0.576000	0.920400	0.710400
N61	N6	0.500800	0.765000	0.724300
C361	C36	0.447900	0.660700	0.730900
C371	C37	0.474100	0.716400	0.688900
C381	C38	0.470000	0.718100	0.621300
H161	H16	0.450600	0.683700	0.598200
C391	C39	0.495200	0.771800	0.588600
H171	H17	0.493900	0.773700	0.543000
C401	C40	0.522400	0.823100	0.624600
H181	H18	0.538800	0.860200	0.603700
C411	C41	0.524500	0.817500	0.691900
C421	C42	0.553300	0.869500	0.736400
La71	La7	0.487310	0.257240	0.645550
O251	O25	0.540000	0.164900	0.708500
O261	O26	0.584200	0.116000	0.795800
O271	O27	0.447000	0.357700	0.702600
O281	O28	0.424000	0.420400	0.789600
N71	N7	0.499200	0.265000	0.775700
C431	C43	0.552100	0.160700	0.769100
C441	C44	0.525900	0.216400	0.811100
C451	C45	0.530000	0.218100	0.878700
H191	H19	0.549400	0.183700	0.901800
C461	C46	0.504800	0.271800	0.911400
H201	H20	0.506100	0.273700	0.957000
C471	C47	0.477600	0.323100	0.875400
H211	H21	0.461200	0.360200	0.896300
C481	C48	0.475500	0.317500	0.808100
C491	C49	0.446700	0.369500	0.763600
La81	La8	0.987310	0.242760	0.354450
O291	O29	0.040000	0.335100	0.291500
O301	O30	0.084200	0.384000	0.204200
O311	O31	0.947000	0.142300	0.297400
O321	O32	0.924000	0.079600	0.210400
N81	N8	0.999200	0.235000	0.224300
C501	C50	0.052100	0.339300	0.230900
C511	C51	0.025900	0.283600	0.188900
C521	C52	0.030000	0.281900	0.121300
H221	H22	0.049400	0.316300	0.098200
C531	C53	0.004800	0.228200	0.088600
H231	H23	0.006100	0.226300	0.043000
C541	C54	0.977600	0.176900	0.124600
H241	H24	0.961200	0.139800	0.103700
C551	C55	0.975500	0.182500	0.191900
C561	C56	0.946700	0.130500	0.236400
La91	La9	0.145550	0.012690	0.742760
O331	O33	0.208500	0.960000	0.835100
O341	O34	0.295800	0.915800	0.884000
O351	O35	0.202600	0.053000	0.642300
O361	O36	0.289600	0.076000	0.579600
N91	N9	0.275700	0.000800	0.735000
C571	C57	0.269100	0.947900	0.839300
C581	C58	0.311100	0.974100	0.783600
C591	C59	0.378700	0.970000	0.781900
H251	H25	0.401800	0.950600	0.816300
C601	C60	0.411400	0.995200	0.728200
H261	H26	0.457000	0.993900	0.726300
C611	C61	0.375400	0.022400	0.676900
H271	H27	0.396300	0.038800	0.639800
C621	C62	0.308100	0.024500	0.682500
C631	C63	0.263600	0.053300	0.630500
La101	La10	0.854450	0.512690	0.757240
O371	O37	0.791500	0.460000	0.664900
O381	O38	0.704200	0.415800	0.616000
O391	O39	0.797400	0.553000	0.857700
O401	O40	0.710400	0.576000	0.920400
N101	N10	0.724300	0.500800	0.765000
C641	C64	0.730900	0.447900	0.660700
C651	C65	0.688900	0.474100	0.716400
C661	C66	0.621300	0.470000	0.718100
H281	H28	0.598200	0.450600	0.683700
C671	C67	0.588600	0.495200	0.771800
H291	H29	0.543000	0.493900	0.773700
C681	C68	0.624600	0.522400	0.823100
H301	H30	0.603700	0.538800	0.860200
C691	C69	0.691900	0.524500	0.817500
C701	C70	0.736400	0.553300	0.869500
La111	La11	0.645550	0.487310	0.257240
O411	O41	0.708500	0.540000	0.164900
O421	O42	0.795800	0.584200	0.116000
O431	O43	0.702600	0.447000	0.357700
O441	O44	0.789600	0.424000	0.420400
N111	N11	0.775700	0.499200	0.265000
C711	C71	0.769100	0.552100	0.160700
C721	C72	0.811100	0.525900	0.216400
C731	C73	0.878700	0.530000	0.218100
H311	H31	0.901800	0.549400	0.183700
C741	C74	0.911400	0.504800	0.271800
H321	H32	0.957000	0.506100	0.273700
C751	C75	0.875400	0.477600	0.323100
H331	H33	0.896300	0.461200	0.360200
C761	C76	0.808100	0.475500	0.317500
C771	C77	0.763600	0.446700	0.369500
La121	La12	0.354450	0.987310	0.242760
O451	O45	0.291500	0.040000	0.335100
O461	O46	0.204200	0.084200	0.384000
O471	O47	0.297400	0.947000	0.142300
O481	O48	0.210400	0.924000	0.079600
N121	N12	0.224300	0.999200	0.235000
C781	C78	0.230900	0.052100	0.339300
C791	C79	0.188900	0.025900	0.283600
C801	C80	0.121300	0.030000	0.281900
H341	H34	0.098200	0.049400	0.316300
C811	C81	0.088600	0.004800	0.228200
H351	H35	0.043000	0.006100	0.226300
C821	C82	0.124600	0.977600	0.176900
H361	H36	0.103700	0.961200	0.139800
C831	C83	0.191900	0.975500	0.182500
C841	C84	0.236400	0.946700	0.130500
La131	La13	0.257240	0.854450	0.987310
O491	O49	0.164900	0.791500	0.040000
O501	O50	0.116000	0.704200	0.084200
O511	O51	0.357700	0.797400	0.947000
O521	O52	0.420400	0.710400	0.924000
N131	N13	0.265000	0.724300	0.999200
C851	C85	0.160700	0.730900	0.052100
C861	C86	0.216400	0.688900	0.025900
C871	C87	0.218100	0.621300	0.030000
H371	H37	0.183700	0.598200	0.049400
C881	C88	0.271800	0.588600	0.004800
H381	H38	0.273700	0.543000	0.006100
C891	C89	0.323100	0.624600	0.977600
H391	H39	0.360200	0.603700	0.961200
C901	C90	0.317500	0.691900	0.975500
C911	C91	0.369500	0.736400	0.946700
La141	La14	0.242760	0.145550	0.487310
O531	O53	0.335100	0.208500	0.540000
O541	O54	0.384000	0.295800	0.584200
O551	O55	0.142300	0.202600	0.447000
O561	O56	0.079600	0.289600	0.424000
N141	N14	0.235000	0.275700	0.499200
C921	C92	0.339300	0.269100	0.552100
C931	C93	0.283600	0.311100	0.525900
C941	C94	0.281900	0.378700	0.530000
H401	H40	0.316300	0.401800	0.549400
C951	C95	0.228200	0.411400	0.504800
H411	H41	0.226300	0.457000	0.506100
C961	C96	0.176900	0.375400	0.477600
H421	H42	0.139800	0.396300	0.461200
C971	C97	0.182500	0.308100	0.475500
C981	C98	0.130500	0.263600	0.446700
La151	La15	0.742760	0.354450	0.512690
O571	O57	0.835100	0.291500	0.460000
O581	O58	0.884000	0.204200	0.415800
O591	O59	0.642300	0.297400	0.553000
O601	O60	0.579600	0.210400	0.576000
N151	N15	0.735000	0.224300	0.500800
C991	C99	0.839300	0.230900	0.447900
C1001	C100	0.783600	0.188900	0.474100
C1011	C101	0.781900	0.121300	0.470000
H431	H43	0.816300	0.098200	0.450600
C1021	C102	0.728200	0.088600	0.495200
H441	H44	0.726300	0.043000	0.493900
C1031	C103	0.676900	0.124600	0.522400
H451	H45	0.639800	0.103700	0.538800
C1041	C104	0.682500	0.191900	0.524500
C1051	C105	0.630500	0.236400	0.553300
La161	La16	0.757240	0.645550	0.012690
O611	O61	0.664900	0.708500	0.960000
O621	O62	0.616000	0.795800	0.915800
O631	O63	0.857700	0.702600	0.053000
O641	O64	0.920400	0.789600	0.076000
N161	N16	0.765000	0.775700	0.000800
C1061	C106	0.660700	0.769100	0.947900
C1071	C107	0.716400	0.811100	0.974100
C1081	C108	0.718100	0.878700	0.970000
H461	H46	0.683700	0.901800	0.950600
C1091	C109	0.771800	0.911400	0.995200
H471	H47	0.773700	0.957000	0.993900
C1101	C110	0.823100	0.875400	0.022400
H481	H48	0.860200	0.896300	0.038800
C1111	C111	0.817500	0.808100	0.024500
C1121	C112	0.869500	0.763600	0.053300
La171	La17	0.987310	0.257240	0.854450
O651	O65	0.040000	0.164900	0.791500
O661	O66	0.084200	0.116000	0.704200
O671	O67	0.947000	0.357700	0.797400
O681	O68	0.924000	0.420400	0.710400
N171	N17	0.999200	0.265000	0.724300
C1131	C113	0.052100	0.160700	0.730900
C1141	C114	0.025900	0.216400	0.688900
C1151	C115	0.030000	0.218100	0.621300
H491	H49	0.049400	0.183700	0.598200
C1161	C116	0.004800	0.271800	0.588600
H501	H50	0.006100	0.273700	0.543000
C1171	C117	0.977600	0.323100	0.624600
H511	H51	0.961200	0.360200	0.603700
C1181	C118	0.975500	0.317500	0.691900
C1191	C119	0.946700	0.369500	0.736400
La181	La18	0.487310	0.242760	0.145550
O691	O69	0.540000	0.335100	0.208500
O701	O70	0.584200	0.384000	0.295800
O711	O71	0.447000	0.142300	0.202600
O721	O72	0.424000	0.079600	0.289600
N181	N18	0.499200	0.235000	0.275700
C1201	C120	0.552100	0.339300	0.269100
C1211	C121	0.525900	0.283600	0.311100
C1221	C122	0.530000	0.281900	0.378700
H521	H52	0.549400	0.316300	0.401800
C1231	C123	0.504800	0.228200	0.411400
H531	H53	0.506100	0.226300	0.457000
C1241	C124	0.477600	0.176900	0.375400
H541	H54	0.461200	0.139800	0.396300
C1251	C125	0.475500	0.182500	0.308100
C1261	C126	0.446700	0.130500	0.263600
La191	La19	0.512690	0.742760	0.354450
O731	O73	0.460000	0.835100	0.291500
O741	O74	0.415800	0.884000	0.204200
O751	O75	0.553000	0.642300	0.297400
O761	O76	0.576000	0.579600	0.210400
N191	N19	0.500800	0.735000	0.224300
C1271	C127	0.447900	0.839300	0.230900
C1281	C128	0.474100	0.783600	0.188900
C1291	C129	0.470000	0.781900	0.121300
H551	H55	0.450600	0.816300	0.098200
C1301	C130	0.495200	0.728200	0.088600
H561	H56	0.493900	0.726300	0.043000
C1311	C131	0.522400	0.676900	0.124600
H571	H57	0.538800	0.639800	0.103700
C1321	C132	0.524500	0.682500	0.191900
C1331	C133	0.553300	0.630500	0.236400
La201	La20	0.012690	0.757240	0.645550
O771	O77	0.960000	0.664900	0.708500
O781	O78	0.915800	0.616000	0.795800
O791	O79	0.053000	0.857700	0.702600
O801	O80	0.076000	0.920400	0.789600
N201	N20	0.000800	0.765000	0.775700
C1341	C134	0.947900	0.660700	0.769100
C1351	C135	0.974100	0.716400	0.811100
C1361	C136	0.970000	0.718100	0.878700
H581	H58	0.950600	0.683700	0.901800
C1371	C137	0.995200	0.771800	0.911400
H591	H59	0.993900	0.773700	0.957000
C1381	C138	0.022400	0.823100	0.875400
H601	H60	0.038800	0.860200	0.896300
C1391	C139	0.024500	0.817500	0.808100
C1401	C140	0.053300	0.869500	0.763600
La211	La21	0.854450	0.987310	0.257240
O811	O81	0.791500	0.040000	0.164900
O821	O82	0.704200	0.084200	0.116000
O831	O83	0.797400	0.947000	0.357700
O841	O84	0.710400	0.924000	0.420400
N211	N21	0.724300	0.999200	0.265000
C1411	C141	0.730900	0.052100	0.160700
C1421	C142	0.688900	0.025900	0.216400
C1431	C143	0.621300	0.030000	0.218100
H611	H61	0.598200	0.049400	0.183700
C1441	C144	0.588600	0.004800	0.271800
H621	H62	0.543000	0.006100	0.273700
C1451	C145	0.624600	0.977600	0.323100
H631	H63	0.603700	0.961200	0.360200
C1461	C146	0.691900	0.975500	0.317500
C1471	C147	0.736400	0.946700	0.369500
La221	La22	0.145550	0.487310	0.242760
O851	O85	0.208500	0.540000	0.335100
O861	O86	0.295800	0.584200	0.384000
O871	O87	0.202600	0.447000	0.142300
O881	O88	0.289600	0.424000	0.079600
N221	N22	0.275700	0.499200	0.235000
C1481	C148	0.269100	0.552100	0.339300
C1491	C149	0.311100	0.525900	0.283600
C1501	C150	0.378700	0.530000	0.281900
H641	H64	0.401800	0.549400	0.316300
C1511	C151	0.411400	0.504800	0.228200
H651	H65	0.457000	0.506100	0.226300
C1521	C152	0.375400	0.477600	0.176900
H661	H66	0.396300	0.461200	0.139800
C1531	C153	0.308100	0.475500	0.182500
C1541	C154	0.263600	0.446700	0.130500
La231	La23	0.354450	0.512690	0.742760
O891	O89	0.291500	0.460000	0.835100
O901	O90	0.204200	0.415800	0.884000
O911	O91	0.297400	0.553000	0.642300
O921	O92	0.210400	0.576000	0.579600
N231	N23	0.224300	0.500800	0.735000
C1551	C155	0.230900	0.447900	0.839300
C1561	C156	0.188900	0.474100	0.783600
C1571	C157	0.121300	0.470000	0.781900
H671	H67	0.098200	0.450600	0.816300
C1581	C158	0.088600	0.495200	0.728200
H681	H68	0.043000	0.493900	0.726300
C1591	C159	0.124600	0.522400	0.676900
H691	H69	0.103700	0.538800	0.639800
C1601	C160	0.191900	0.524500	0.682500
C1611	C161	0.236400	0.553300	0.630500
La241	La24	0.645550	0.012690	0.757240
O931	O93	0.708500	0.960000	0.664900
O941	O94	0.795800	0.915800	0.616000
O951	O95	0.702600	0.053000	0.857700
O961	O96	0.789600	0.076000	0.920400
N241	N24	0.775700	0.000800	0.765000
C1621	C162	0.769100	0.947900	0.660700
C1631	C163	0.811100	0.974100	0.716400
C1641	C164	0.878700	0.970000	0.718100
H701	H70	0.901800	0.950600	0.683700
C1651	C165	0.911400	0.995200	0.771800
H711	H71	0.957000	0.993900	0.773700
C1661	C166	0.875400	0.022400	0.823100
H721	H72	0.896300	0.038800	0.860200
C1671	C167	0.808100	0.024500	0.817500
C1681	C168	0.763600	0.053300	0.869500
