data_DANZAV_charged_PM
_symmetry_space_group_name_H-M	'P1'
_cell_length_a	10.364600
_cell_length_b	28.931800
_cell_length_c	28.931800
_cell_angle_alpha	90.000000
_cell_angle_beta	90.000000
_cell_angle_gamma	90.000000
_symmetry_Int_Tables_number 1

loop_
_symmetry_equiv_pos_as_xyz
'x,y,z'

loop_
_atom_site_label
_atom_site_type_symbol
_atom_site_fract_x
_atom_site_fract_y
_atom_site_fract_z
Cd11	Cd1	0.231760	0.511580	0.905490
Cd21	Cd2	0.231760	0.988420	0.594510
Cd31	Cd3	0.231760	0.594510	0.511580
Cd41	Cd4	0.231760	0.905490	0.988420
Cd51	Cd5	0.768240	0.488420	0.094510
Cd61	Cd6	0.768240	0.011580	0.405490
Cd71	Cd7	0.768240	0.405490	0.488420
Cd81	Cd8	0.768240	0.094510	0.011580
Cd91	Cd9	0.000000	0.500000	0.000000
Cd101	Cd10	0.000000	0.000000	0.500000
Cd111	Cd11	0.000000	0.500000	0.500000
Cd121	Cd12	0.000000	0.000000	0.000000
H11	H1	0.671000	0.643700	0.089500
H21	H2	0.627000	0.721200	0.075600
H31	H3	0.896800	0.722600	0.975300
H41	H4	0.935800	0.644800	0.987300
H51	H5	0.926200	0.796300	0.008100
H61	H6	0.694100	0.907400	0.997400
H71	H7	0.541700	0.780200	0.019200
H81	H8	0.671000	0.856300	0.410500
H91	H9	0.627000	0.778800	0.424400
H101	H10	0.896800	0.777400	0.524700
H111	H11	0.935800	0.855200	0.512700
H121	H12	0.926200	0.703700	0.491900
H131	H13	0.694100	0.592600	0.502600
H141	H14	0.541700	0.719800	0.480800
H151	H15	0.671000	0.410500	0.643700
H161	H16	0.627000	0.424400	0.721200
H171	H17	0.896800	0.524700	0.722600
H181	H18	0.935800	0.512700	0.644800
H191	H19	0.926200	0.491900	0.796300
H201	H20	0.694100	0.502600	0.907400
H211	H21	0.541700	0.480800	0.780200
H221	H22	0.671000	0.089500	0.856300
H231	H23	0.627000	0.075600	0.778800
H241	H24	0.896800	0.975300	0.777400
H251	H25	0.935800	0.987300	0.855200
H261	H26	0.926200	0.008100	0.703700
H271	H27	0.694100	0.997400	0.592600
H281	H28	0.541700	0.019200	0.719800
H291	H29	0.329000	0.356300	0.910500
H301	H30	0.373000	0.278800	0.924400
H311	H31	0.103200	0.277400	0.024700
H321	H32	0.064200	0.355200	0.012700
H331	H33	0.073800	0.203700	0.991900
H341	H34	0.305900	0.092600	0.002600
H351	H35	0.458300	0.219800	0.980800
H361	H36	0.329000	0.143700	0.589500
H371	H37	0.373000	0.221200	0.575600
H381	H38	0.103200	0.222600	0.475300
H391	H39	0.064200	0.144800	0.487300
H401	H40	0.073800	0.296300	0.508100
H411	H41	0.305900	0.407400	0.497400
H421	H42	0.458300	0.280200	0.519200
H431	H43	0.329000	0.589500	0.356300
H441	H44	0.373000	0.575600	0.278800
H451	H45	0.103200	0.475300	0.277400
H461	H46	0.064200	0.487300	0.355200
H471	H47	0.073800	0.508100	0.203700
H481	H48	0.305900	0.497400	0.092600
H491	H49	0.458300	0.519200	0.219800
H501	H50	0.329000	0.910500	0.143700
H511	H51	0.373000	0.924400	0.221200
H521	H52	0.103200	0.024700	0.222600
H531	H53	0.064200	0.012700	0.144800
H541	H54	0.073800	0.991900	0.296300
H551	H55	0.305900	0.002600	0.407400
H561	H56	0.458300	0.980800	0.280200
C11	C1	0.838900	0.586200	0.048800
C21	C2	0.810300	0.636800	0.040700
C31	C3	0.717300	0.659800	0.066100
C41	C4	0.691100	0.705900	0.057800
C51	C5	0.757400	0.730200	0.023700
C61	C6	0.849500	0.706600	0.998500
C71	C7	0.874500	0.660400	0.006000
C81	C8	0.736000	0.780400	0.016200
C91	C9	0.842000	0.809300	0.008400
C101	C10	0.827700	0.856100	0.001300
C111	C11	0.704800	0.875000	0.001300
C121	C12	0.597300	0.847100	0.007100
C131	C13	0.614900	0.799500	0.014800
C141	C14	0.464400	0.867000	0.001500
C151	C15	0.945200	0.885800	0.992900
C161	C16	0.838900	0.913800	0.451200
C171	C17	0.810300	0.863200	0.459300
C181	C18	0.717300	0.840200	0.433900
C191	C19	0.691100	0.794100	0.442200
C201	C20	0.757400	0.769800	0.476300
C211	C21	0.849500	0.793400	0.501500
C221	C22	0.874500	0.839600	0.494000
C231	C23	0.736000	0.719600	0.483800
C241	C24	0.842000	0.690700	0.491600
C251	C25	0.827700	0.643900	0.498700
C261	C26	0.704800	0.625000	0.498700
C271	C27	0.597300	0.652900	0.492900
C281	C28	0.614900	0.700500	0.485200
C291	C29	0.464400	0.633000	0.498500
C301	C30	0.945200	0.614200	0.507100
C311	C31	0.838900	0.451200	0.586200
C321	C32	0.810300	0.459300	0.636800
C331	C33	0.717300	0.433900	0.659800
C341	C34	0.691100	0.442200	0.705900
C351	C35	0.757400	0.476300	0.730200
C361	C36	0.849500	0.501500	0.706600
C371	C37	0.874500	0.494000	0.660400
C381	C38	0.736000	0.483800	0.780400
C391	C39	0.842000	0.491600	0.809300
C401	C40	0.827700	0.498700	0.856100
C411	C41	0.704800	0.498700	0.875000
C421	C42	0.597300	0.492900	0.847100
C431	C43	0.614900	0.485200	0.799500
C441	C44	0.464400	0.498500	0.867000
C451	C45	0.945200	0.507100	0.885800
C461	C46	0.838900	0.048800	0.913800
C471	C47	0.810300	0.040700	0.863200
C481	C48	0.717300	0.066100	0.840200
C491	C49	0.691100	0.057800	0.794100
C501	C50	0.757400	0.023700	0.769800
C511	C51	0.849500	0.998500	0.793400
C521	C52	0.874500	0.006000	0.839600
C531	C53	0.736000	0.016200	0.719600
C541	C54	0.842000	0.008400	0.690700
C551	C55	0.827700	0.001300	0.643900
C561	C56	0.704800	0.001300	0.625000
C571	C57	0.597300	0.007100	0.652900
C581	C58	0.614900	0.014800	0.700500
C591	C59	0.464400	0.001500	0.633000
C601	C60	0.945200	0.992900	0.614200
C611	C61	0.161100	0.413800	0.951200
C621	C62	0.189700	0.363200	0.959300
C631	C63	0.282700	0.340200	0.933900
C641	C64	0.308900	0.294100	0.942200
C651	C65	0.242600	0.269800	0.976300
C661	C66	0.150500	0.293400	0.001500
C671	C67	0.125500	0.339600	0.994000
C681	C68	0.264000	0.219600	0.983800
C691	C69	0.158000	0.190700	0.991600
C701	C70	0.172300	0.143900	0.998700
C711	C71	0.295200	0.125000	0.998700
C721	C72	0.402700	0.152900	0.992900
C731	C73	0.385100	0.200500	0.985200
C741	C74	0.535600	0.133000	0.998500
C751	C75	0.054800	0.114200	0.007100
C761	C76	0.161100	0.086200	0.548800
C771	C77	0.189700	0.136800	0.540700
C781	C78	0.282700	0.159800	0.566100
C791	C79	0.308900	0.205900	0.557800
C801	C80	0.242600	0.230200	0.523700
C811	C81	0.150500	0.206600	0.498500
C821	C82	0.125500	0.160400	0.506000
C831	C83	0.264000	0.280400	0.516200
C841	C84	0.158000	0.309300	0.508400
C851	C85	0.172300	0.356100	0.501300
C861	C86	0.295200	0.375000	0.501300
C871	C87	0.402700	0.347100	0.507100
C881	C88	0.385100	0.299500	0.514800
C891	C89	0.535600	0.367000	0.501500
C901	C90	0.054800	0.385800	0.492900
C911	C91	0.161100	0.548800	0.413800
C921	C92	0.189700	0.540700	0.363200
C931	C93	0.282700	0.566100	0.340200
C941	C94	0.308900	0.557800	0.294100
C951	C95	0.242600	0.523700	0.269800
C961	C96	0.150500	0.498500	0.293400
C971	C97	0.125500	0.506000	0.339600
C981	C98	0.264000	0.516200	0.219600
C991	C99	0.158000	0.508400	0.190700
C1001	C100	0.172300	0.501300	0.143900
C1011	C101	0.295200	0.501300	0.125000
C1021	C102	0.402700	0.507100	0.152900
C1031	C103	0.385100	0.514800	0.200500
C1041	C104	0.535600	0.501500	0.133000
C1051	C105	0.054800	0.492900	0.114200
C1061	C106	0.161100	0.951200	0.086200
C1071	C107	0.189700	0.959300	0.136800
C1081	C108	0.282700	0.933900	0.159800
C1091	C109	0.308900	0.942200	0.205900
C1101	C110	0.242600	0.976300	0.230200
C1111	C111	0.150500	0.001500	0.206600
C1121	C112	0.125500	0.994000	0.160400
C1131	C113	0.264000	0.983800	0.280400
C1141	C114	0.158000	0.991600	0.309300
C1151	C115	0.172300	0.998700	0.356100
C1161	C116	0.295200	0.998700	0.375000
C1171	C117	0.402700	0.992900	0.347100
C1181	C118	0.385100	0.985200	0.299500
C1191	C119	0.535600	0.998500	0.367000
C1201	C120	0.054800	0.007100	0.385800
Cl11	Cl1	0.220630	0.540060	0.989170
Cl21	Cl2	0.220630	0.959940	0.510830
Cl31	Cl3	0.220630	0.510830	0.540060
Cl41	Cl4	0.220630	0.989170	0.959940
Cl51	Cl5	0.779370	0.459940	0.010830
Cl61	Cl6	0.779370	0.040060	0.489170
Cl71	Cl7	0.779370	0.489170	0.459940
Cl81	Cl8	0.779370	0.010830	0.040060
O11	O1	0.776700	0.566100	0.079550
O21	O2	0.921100	0.568390	0.022170
O31	O3	0.051900	0.866100	0.998840
O41	O4	0.929000	0.926880	0.981140
O51	O5	0.209400	0.590600	0.885200
O61	O6	0.368000	0.841200	0.006600
O71	O7	0.455400	0.909390	0.990950
O81	O8	0.776700	0.933900	0.420450
O91	O9	0.921100	0.931610	0.477830
O101	O10	0.051900	0.633900	0.501160
O111	O11	0.929000	0.573120	0.518860
O121	O12	0.209400	0.909400	0.614800
O131	O13	0.368000	0.658800	0.493400
O141	O14	0.455400	0.590610	0.509050
O151	O15	0.776700	0.420450	0.566100
O161	O16	0.921100	0.477830	0.568390
O171	O17	0.051900	0.501160	0.866100
O181	O18	0.929000	0.518860	0.926880
O191	O19	0.209400	0.614800	0.590600
O201	O20	0.368000	0.493400	0.841200
O211	O21	0.455400	0.509050	0.909390
O221	O22	0.776700	0.079550	0.933900
O231	O23	0.921100	0.022170	0.931610
O241	O24	0.051900	0.998840	0.633900
O251	O25	0.929000	0.981140	0.573120
O261	O26	0.209400	0.885200	0.909400
O271	O27	0.368000	0.006600	0.658800
O281	O28	0.455400	0.990950	0.590610
O291	O29	0.223300	0.433900	0.920450
O301	O30	0.078900	0.431610	0.977830
O311	O31	0.948100	0.133900	0.001160
O321	O32	0.071000	0.073120	0.018860
O331	O33	0.790600	0.409400	0.114800
O341	O34	0.632000	0.158800	0.993400
O351	O35	0.544600	0.090610	0.009050
O361	O36	0.223300	0.066100	0.579550
O371	O37	0.078900	0.068390	0.522170
O381	O38	0.948100	0.366100	0.498840
O391	O39	0.071000	0.426880	0.481140
O401	O40	0.790600	0.090600	0.385200
O411	O41	0.632000	0.341200	0.506600
O421	O42	0.544600	0.409390	0.490950
O431	O43	0.223300	0.579550	0.433900
O441	O44	0.078900	0.522170	0.431610
O451	O45	0.948100	0.498840	0.133900
O461	O46	0.071000	0.481140	0.073120
O471	O47	0.790600	0.385200	0.409400
O481	O48	0.632000	0.506600	0.158800
O491	O49	0.544600	0.490950	0.090610
O501	O50	0.223300	0.920450	0.066100
O511	O51	0.078900	0.977830	0.068390
O521	O52	0.948100	0.001160	0.366100
O531	O53	0.071000	0.018860	0.426880
O541	O54	0.790600	0.114800	0.090600
O551	O55	0.632000	0.993400	0.341200
O561	O56	0.544600	0.009050	0.409390
Cd131	Cd13	0.740170	0.750000	0.750000
H571	H57	0.621700	0.766600	0.572100
H581	H58	0.619200	0.681700	0.585300
H591	H59	0.408300	0.883000	0.538700
H601	H60	0.439800	0.832800	0.600100
H611	H61	0.803700	0.880500	0.613200
H621	H62	0.767000	0.928400	0.549400
H631	H63	0.627200	0.966000	0.500800
H641	H64	0.567800	0.924300	0.471400
H651	H65	0.476100	0.955000	0.503600
H661	H66	0.621700	0.733400	0.927900
H671	H67	0.619200	0.818300	0.914700
H681	H68	0.408300	0.617000	0.961300
H691	H69	0.439800	0.667200	0.899900
H701	H70	0.803700	0.619500	0.886800
H711	H71	0.767000	0.571600	0.950600
H721	H72	0.627200	0.534000	0.999200
H731	H73	0.567800	0.575700	0.028600
H741	H74	0.476100	0.545000	0.996400
H751	H75	0.621700	0.927900	0.766600
H761	H76	0.619200	0.914700	0.681700
H771	H77	0.408300	0.961300	0.883000
H781	H78	0.439800	0.899900	0.832800
H791	H79	0.803700	0.886800	0.880500
H801	H80	0.767000	0.950600	0.928400
H811	H81	0.627200	0.999200	0.966000
H821	H82	0.567800	0.028600	0.924300
H831	H83	0.476100	0.996400	0.955000
H841	H84	0.621700	0.572100	0.733400
H851	H85	0.619200	0.585300	0.818300
H861	H86	0.408300	0.538700	0.617000
H871	H87	0.439800	0.600100	0.667200
H881	H88	0.803700	0.613200	0.619500
H891	H89	0.767000	0.549400	0.571600
H901	H90	0.627200	0.500800	0.534000
H911	H91	0.567800	0.471400	0.575700
H921	H92	0.476100	0.503600	0.545000
C1211	C121	0.646100	0.772900	0.645400
C1221	C122	0.630200	0.751300	0.601000
C1231	C123	0.629700	0.704900	0.608200
C1241	C124	0.648000	0.697400	0.656900
C1251	C125	0.643300	0.820700	0.654400
C1261	C126	0.489400	0.882000	0.554000
C1271	C127	0.507600	0.852700	0.590500
C1281	C128	0.625600	0.852000	0.613600
C1291	C129	0.722100	0.880300	0.598200
C1301	C130	0.699900	0.909000	0.560500
C1311	C131	0.562300	0.941400	0.500600
C1321	C132	0.646100	0.727100	0.854600
C1331	C133	0.630200	0.748700	0.899000
C1341	C134	0.629700	0.795100	0.891800
C1351	C135	0.648000	0.802600	0.843100
C1361	C136	0.643300	0.679300	0.845600
C1371	C137	0.489400	0.618000	0.946000
C1381	C138	0.507600	0.647300	0.909500
C1391	C139	0.625600	0.648000	0.886400
C1401	C140	0.722100	0.619700	0.901800
C1411	C141	0.699900	0.591000	0.939500
C1421	C142	0.562300	0.558600	0.999400
C1431	C143	0.646100	0.854600	0.772900
C1441	C144	0.630200	0.899000	0.751300
C1451	C145	0.629700	0.891800	0.704900
C1461	C146	0.648000	0.843100	0.697400
C1471	C147	0.643300	0.845600	0.820700
C1481	C148	0.489400	0.946000	0.882000
C1491	C149	0.507600	0.909500	0.852700
C1501	C150	0.625600	0.886400	0.852000
C1511	C151	0.722100	0.901800	0.880300
C1521	C152	0.699900	0.939500	0.909000
C1531	C153	0.562300	0.999400	0.941400
C1541	C154	0.646100	0.645400	0.727100
C1551	C155	0.630200	0.601000	0.748700
C1561	C156	0.629700	0.608200	0.795100
C1571	C157	0.648000	0.656900	0.802600
C1581	C158	0.643300	0.654400	0.679300
C1591	C159	0.489400	0.554000	0.618000
C1601	C160	0.507600	0.590500	0.647300
C1611	C161	0.625600	0.613600	0.648000
C1621	C162	0.722100	0.598200	0.619700
C1631	C163	0.699900	0.560500	0.591000
C1641	C164	0.562300	0.500600	0.558600
N11	N1	0.658700	0.739240	0.678270
N21	N2	0.586100	0.909400	0.539800
N31	N3	0.658700	0.760760	0.821730
N41	N4	0.586100	0.590600	0.960200
N51	N5	0.658700	0.821730	0.739240
N61	N6	0.586100	0.960200	0.909400
N71	N7	0.658700	0.678270	0.760760
N81	N8	0.586100	0.539800	0.590600
Cl91	Cl9	0.977300	0.750000	0.750000
Cd141	Cd14	0.259830	0.250000	0.250000
H931	H93	0.378300	0.233400	0.427900
H941	H94	0.380800	0.318300	0.414700
H951	H95	0.591700	0.117000	0.461300
H961	H96	0.560200	0.167200	0.399900
H971	H97	0.196300	0.119500	0.386800
H981	H98	0.233000	0.071600	0.450600
H991	H99	0.372800	0.034000	0.499200
H1001	H100	0.432200	0.075700	0.528600
H1011	H101	0.523900	0.045000	0.496400
H1021	H102	0.378300	0.266600	0.072100
H1031	H103	0.380800	0.181700	0.085300
H1041	H104	0.591700	0.383000	0.038700
H1051	H105	0.560200	0.332800	0.100100
H1061	H106	0.196300	0.380500	0.113200
H1071	H107	0.233000	0.428400	0.049400
H1081	H108	0.372800	0.466000	0.000800
H1091	H109	0.432200	0.424300	0.971400
H1101	H110	0.523900	0.455000	0.003600
H1111	H111	0.378300	0.072100	0.233400
H1121	H112	0.380800	0.085300	0.318300
H1131	H113	0.591700	0.038700	0.117000
H1141	H114	0.560200	0.100100	0.167200
H1151	H115	0.196300	0.113200	0.119500
H1161	H116	0.233000	0.049400	0.071600
H1171	H117	0.372800	0.000800	0.034000
H1181	H118	0.432200	0.971400	0.075700
H1191	H119	0.523900	0.003600	0.045000
H1201	H120	0.378300	0.427900	0.266600
H1211	H121	0.380800	0.414700	0.181700
H1221	H122	0.591700	0.461300	0.383000
H1231	H123	0.560200	0.399900	0.332800
H1241	H124	0.196300	0.386800	0.380500
H1251	H125	0.233000	0.450600	0.428400
H1261	H126	0.372800	0.499200	0.466000
H1271	H127	0.432200	0.528600	0.424300
H1281	H128	0.523900	0.496400	0.455000
C1651	C165	0.353900	0.227100	0.354600
C1661	C166	0.369800	0.248700	0.399000
C1671	C167	0.370300	0.295100	0.391800
C1681	C168	0.352000	0.302600	0.343100
C1691	C169	0.356700	0.179300	0.345600
C1701	C170	0.510600	0.118000	0.446000
C1711	C171	0.492400	0.147300	0.409500
C1721	C172	0.374400	0.148000	0.386400
C1731	C173	0.277900	0.119700	0.401800
C1741	C174	0.300100	0.091000	0.439500
C1751	C175	0.437700	0.058600	0.499400
C1761	C176	0.353900	0.272900	0.145400
C1771	C177	0.369800	0.251300	0.101000
C1781	C178	0.370300	0.204900	0.108200
C1791	C179	0.352000	0.197400	0.156900
C1801	C180	0.356700	0.320700	0.154400
C1811	C181	0.510600	0.382000	0.054000
C1821	C182	0.492400	0.352700	0.090500
C1831	C183	0.374400	0.352000	0.113600
C1841	C184	0.277900	0.380300	0.098200
C1851	C185	0.300100	0.409000	0.060500
C1861	C186	0.437700	0.441400	0.000600
C1871	C187	0.353900	0.145400	0.227100
C1881	C188	0.369800	0.101000	0.248700
C1891	C189	0.370300	0.108200	0.295100
C1901	C190	0.352000	0.156900	0.302600
C1911	C191	0.356700	0.154400	0.179300
C1921	C192	0.510600	0.054000	0.118000
C1931	C193	0.492400	0.090500	0.147300
C1941	C194	0.374400	0.113600	0.148000
C1951	C195	0.277900	0.098200	0.119700
C1961	C196	0.300100	0.060500	0.091000
C1971	C197	0.437700	0.000600	0.058600
C1981	C198	0.353900	0.354600	0.272900
C1991	C199	0.369800	0.399000	0.251300
C2001	C200	0.370300	0.391800	0.204900
C2011	C201	0.352000	0.343100	0.197400
C2021	C202	0.356700	0.345600	0.320700
C2031	C203	0.510600	0.446000	0.382000
C2041	C204	0.492400	0.409500	0.352700
C2051	C205	0.374400	0.386400	0.352000
C2061	C206	0.277900	0.401800	0.380300
C2071	C207	0.300100	0.439500	0.409000
C2081	C208	0.437700	0.499400	0.441400
N91	N9	0.341300	0.260760	0.321730
N101	N10	0.413900	0.090600	0.460200
N111	N11	0.341300	0.239240	0.178270
N121	N12	0.413900	0.409400	0.039800
N131	N13	0.341300	0.178270	0.260760
N141	N14	0.413900	0.039800	0.090600
N151	N15	0.341300	0.321730	0.239240
N161	N16	0.413900	0.460200	0.409400
Cl101	Cl10	0.022700	0.250000	0.250000
