data_DANZID_charged_PM
_symmetry_space_group_name_H-M	'P1'
_cell_length_a	9.994100
_cell_length_b	29.284600
_cell_length_c	29.284600
_cell_angle_alpha	90.000000
_cell_angle_beta	90.000000
_cell_angle_gamma	90.000000
_symmetry_Int_Tables_number 1

loop_
_symmetry_equiv_pos_as_xyz
'x,y,z'

loop_
_atom_site_label
_atom_site_type_symbol
_atom_site_fract_x
_atom_site_fract_y
_atom_site_fract_z
Cd11	Cd1	0.000000	0.000000	0.500000
Cd21	Cd2	0.000000	0.500000	0.000000
Cd31	Cd3	0.000000	0.000000	0.000000
Cd41	Cd4	0.000000	0.500000	0.500000
Cu11	Cu1	0.786880	0.992900	0.402090
Cu21	Cu2	0.786880	0.507100	0.097910
Cu31	Cu3	0.786880	0.097910	0.992900
Cu41	Cu4	0.786880	0.402090	0.507100
Cu51	Cu5	0.213120	0.007100	0.597910
Cu61	Cu6	0.213120	0.492900	0.902090
Cu71	Cu7	0.213120	0.902090	0.007100
Cu81	Cu8	0.213120	0.597910	0.492900
H11	H1	0.530700	0.722500	0.479400
H21	H2	0.658600	0.594100	0.494000
H31	H3	0.921300	0.696300	0.491100
H41	H4	0.903300	0.774900	0.523800
H51	H5	0.953600	0.850300	0.509800
H61	H6	0.665200	0.853400	0.414400
H71	H7	0.613000	0.778700	0.431600
H81	H8	0.530700	0.777500	0.020600
H91	H9	0.658600	0.905900	0.006000
H101	H10	0.921300	0.803700	0.008900
H111	H11	0.903300	0.725100	0.976200
H121	H12	0.953600	0.649700	0.990200
H131	H13	0.665200	0.646600	0.085600
H141	H14	0.613000	0.721300	0.068400
H151	H15	0.530700	0.020600	0.722500
H161	H16	0.658600	0.006000	0.594100
H171	H17	0.921300	0.008900	0.696300
H181	H18	0.903300	0.976200	0.774900
H191	H19	0.953600	0.990200	0.850300
H201	H20	0.665200	0.085600	0.853400
H211	H21	0.613000	0.068400	0.778700
H221	H22	0.530700	0.479400	0.777500
H231	H23	0.658600	0.494000	0.905900
H241	H24	0.921300	0.491100	0.803700
H251	H25	0.903300	0.523800	0.725100
H261	H26	0.953600	0.509800	0.649700
H271	H27	0.665200	0.414400	0.646600
H281	H28	0.613000	0.431600	0.721300
H291	H29	0.469300	0.277500	0.520600
H301	H30	0.341400	0.405900	0.506000
H311	H31	0.078700	0.303700	0.508900
H321	H32	0.096700	0.225100	0.476200
H331	H33	0.046400	0.149700	0.490200
H341	H34	0.334800	0.146600	0.585600
H351	H35	0.387000	0.221300	0.568400
H361	H36	0.469300	0.222500	0.979400
H371	H37	0.341400	0.094100	0.994000
H381	H38	0.078700	0.196300	0.991100
H391	H39	0.096700	0.274900	0.023800
H401	H40	0.046400	0.350300	0.009800
H411	H41	0.334800	0.353400	0.914400
H421	H42	0.387000	0.278700	0.931600
H431	H43	0.469300	0.979400	0.277500
H441	H44	0.341400	0.994000	0.405900
H451	H45	0.078700	0.991100	0.303700
H461	H46	0.096700	0.023800	0.225100
H471	H47	0.046400	0.009800	0.149700
H481	H48	0.334800	0.914400	0.146600
H491	H49	0.387000	0.931600	0.221300
H501	H50	0.469300	0.520600	0.222500
H511	H51	0.341400	0.506000	0.094100
H521	H52	0.078700	0.508900	0.196300
H531	H53	0.096700	0.476200	0.274900
H541	H54	0.046400	0.490200	0.350300
H551	H55	0.334800	0.585600	0.353400
H561	H56	0.387000	0.568400	0.278700
C11	C1	0.600500	0.702000	0.483700
C21	C2	0.676800	0.625200	0.492900
C31	C3	0.807400	0.640200	0.494600
C41	C4	0.833400	0.686000	0.490200
C51	C5	0.571500	0.656400	0.489500
C61	C6	0.857200	0.790800	0.501300
C71	C7	0.814600	0.859900	0.461100
C81	C8	0.757800	0.768200	0.475300
C91	C9	0.919400	0.606500	0.498000
C101	C10	0.429700	0.636400	0.489400
C111	C11	0.844500	0.911300	0.454900
C121	C12	0.728200	0.717800	0.484300
C131	C13	0.886000	0.836000	0.493400
C141	C14	0.713200	0.837900	0.436700
C151	C15	0.685100	0.792500	0.446200
C161	C16	0.600500	0.798000	0.016300
C171	C17	0.676800	0.874800	0.007100
C181	C18	0.807400	0.859800	0.005400
C191	C19	0.833400	0.814000	0.009800
C201	C20	0.571500	0.843600	0.010500
C211	C21	0.857200	0.709200	0.998700
C221	C22	0.814600	0.640100	0.038900
C231	C23	0.757800	0.731800	0.024700
C241	C24	0.919400	0.893500	0.002000
C251	C25	0.429700	0.863600	0.010600
C261	C26	0.844500	0.588700	0.045100
C271	C27	0.728200	0.782200	0.015700
C281	C28	0.886000	0.664000	0.006600
C291	C29	0.713200	0.662100	0.063300
C301	C30	0.685100	0.707500	0.053800
C311	C31	0.600500	0.016300	0.702000
C321	C32	0.676800	0.007100	0.625200
C331	C33	0.807400	0.005400	0.640200
C341	C34	0.833400	0.009800	0.686000
C351	C35	0.571500	0.010500	0.656400
C361	C36	0.857200	0.998700	0.790800
C371	C37	0.814600	0.038900	0.859900
C381	C38	0.757800	0.024700	0.768200
C391	C39	0.919400	0.002000	0.606500
C401	C40	0.429700	0.010600	0.636400
C411	C41	0.844500	0.045100	0.911300
C421	C42	0.728200	0.015700	0.717800
C431	C43	0.886000	0.006600	0.836000
C441	C44	0.713200	0.063300	0.837900
C451	C45	0.685100	0.053800	0.792500
C461	C46	0.600500	0.483700	0.798000
C471	C47	0.676800	0.492900	0.874800
C481	C48	0.807400	0.494600	0.859800
C491	C49	0.833400	0.490200	0.814000
C501	C50	0.571500	0.489500	0.843600
C511	C51	0.857200	0.501300	0.709200
C521	C52	0.814600	0.461100	0.640100
C531	C53	0.757800	0.475300	0.731800
C541	C54	0.919400	0.498000	0.893500
C551	C55	0.429700	0.489400	0.863600
C561	C56	0.844500	0.454900	0.588700
C571	C57	0.728200	0.484300	0.782200
C581	C58	0.886000	0.493400	0.664000
C591	C59	0.713200	0.436700	0.662100
C601	C60	0.685100	0.446200	0.707500
C611	C61	0.399500	0.298000	0.516300
C621	C62	0.323200	0.374800	0.507100
C631	C63	0.192600	0.359800	0.505400
C641	C64	0.166600	0.314000	0.509800
C651	C65	0.428500	0.343600	0.510500
C661	C66	0.142800	0.209200	0.498700
C671	C67	0.185400	0.140100	0.538900
C681	C68	0.242200	0.231800	0.524700
C691	C69	0.080600	0.393500	0.502000
C701	C70	0.570300	0.363600	0.510600
C711	C71	0.155500	0.088700	0.545100
C721	C72	0.271800	0.282200	0.515700
C731	C73	0.114000	0.164000	0.506600
C741	C74	0.286800	0.162100	0.563300
C751	C75	0.314900	0.207500	0.553800
C761	C76	0.399500	0.202000	0.983700
C771	C77	0.323200	0.125200	0.992900
C781	C78	0.192600	0.140200	0.994600
C791	C79	0.166600	0.186000	0.990200
C801	C80	0.428500	0.156400	0.989500
C811	C81	0.142800	0.290800	0.001300
C821	C82	0.185400	0.359900	0.961100
C831	C83	0.242200	0.268200	0.975300
C841	C84	0.080600	0.106500	0.998000
C851	C85	0.570300	0.136400	0.989400
C861	C86	0.155500	0.411300	0.954900
C871	C87	0.271800	0.217800	0.984300
C881	C88	0.114000	0.336000	0.993400
C891	C89	0.286800	0.337900	0.936700
C901	C90	0.314900	0.292500	0.946200
C911	C91	0.399500	0.983700	0.298000
C921	C92	0.323200	0.992900	0.374800
C931	C93	0.192600	0.994600	0.359800
C941	C94	0.166600	0.990200	0.314000
C951	C95	0.428500	0.989500	0.343600
C961	C96	0.142800	0.001300	0.209200
C971	C97	0.185400	0.961100	0.140100
C981	C98	0.242200	0.975300	0.231800
C991	C99	0.080600	0.998000	0.393500
C1001	C100	0.570300	0.989400	0.363600
C1011	C101	0.155500	0.954900	0.088700
C1021	C102	0.271800	0.984300	0.282200
C1031	C103	0.114000	0.993400	0.164000
C1041	C104	0.286800	0.936700	0.162100
C1051	C105	0.314900	0.946200	0.207500
C1061	C106	0.399500	0.516300	0.202000
C1071	C107	0.323200	0.507100	0.125200
C1081	C108	0.192600	0.505400	0.140200
C1091	C109	0.166600	0.509800	0.186000
C1101	C110	0.428500	0.510500	0.156400
C1111	C111	0.142800	0.498700	0.290800
C1121	C112	0.185400	0.538900	0.359900
C1131	C113	0.242200	0.524700	0.268200
C1141	C114	0.080600	0.502000	0.106500
C1151	C115	0.570300	0.510600	0.136400
C1161	C116	0.155500	0.545100	0.411300
C1171	C117	0.271800	0.515700	0.217800
C1181	C118	0.114000	0.506600	0.336000
C1191	C119	0.286800	0.563300	0.337900
C1201	C120	0.314900	0.553800	0.292500
Cl11	Cl1	0.810100	0.046300	0.461200
Cl21	Cl2	0.810100	0.453700	0.038800
Cl31	Cl3	0.810100	0.038800	0.046300
Cl41	Cl4	0.810100	0.461200	0.453700
Cl51	Cl5	0.189900	0.953700	0.538800
Cl61	Cl6	0.189900	0.546300	0.961200
Cl71	Cl7	0.189900	0.961200	0.953700
Cl81	Cl8	0.189900	0.538800	0.546300
O11	O1	0.912100	0.930230	0.482300
O21	O2	0.036100	0.623100	0.492300
O31	O3	0.407900	0.596200	0.494900
O41	O4	0.890000	0.566400	0.504000
O51	O5	0.791000	0.926790	0.418500
O61	O6	0.335900	0.665300	0.486700
O71	O7	0.912100	0.569770	0.017700
O81	O8	0.036100	0.876900	0.007700
O91	O9	0.407900	0.903800	0.005100
O101	O10	0.890000	0.933600	0.996000
O111	O11	0.791000	0.573210	0.081500
O121	O12	0.335900	0.834700	0.013300
O131	O13	0.912100	0.017700	0.930230
O141	O14	0.036100	0.007700	0.623100
O151	O15	0.407900	0.005100	0.596200
O161	O16	0.890000	0.996000	0.566400
O171	O17	0.791000	0.081500	0.926790
O181	O18	0.335900	0.013300	0.665300
O191	O19	0.912100	0.482300	0.569770
O201	O20	0.036100	0.492300	0.876900
O211	O21	0.407900	0.494900	0.903800
O221	O22	0.890000	0.504000	0.933600
O231	O23	0.791000	0.418500	0.573210
O241	O24	0.335900	0.486700	0.834700
O251	O25	0.087900	0.069770	0.517700
O261	O26	0.963900	0.376900	0.507700
O271	O27	0.592100	0.403800	0.505100
O281	O28	0.110000	0.433600	0.496000
O291	O29	0.209000	0.073210	0.581500
O301	O30	0.664100	0.334700	0.513300
O311	O31	0.087900	0.430230	0.982300
O321	O32	0.963900	0.123100	0.992300
O331	O33	0.592100	0.096200	0.994900
O341	O34	0.110000	0.066400	0.004000
O351	O35	0.209000	0.426790	0.918500
O361	O36	0.664100	0.165300	0.986700
O371	O37	0.087900	0.982300	0.069770
O381	O38	0.963900	0.992300	0.376900
O391	O39	0.592100	0.994900	0.403800
O401	O40	0.110000	0.004000	0.433600
O411	O41	0.209000	0.918500	0.073210
O421	O42	0.664100	0.986700	0.334700
O431	O43	0.087900	0.517700	0.430230
O441	O44	0.963900	0.507700	0.123100
O451	O45	0.592100	0.505100	0.096200
O461	O46	0.110000	0.496000	0.066400
O471	O47	0.209000	0.581500	0.426790
O481	O48	0.664100	0.513300	0.165300
Cu91	Cu9	0.645200	0.750000	0.750000
H571	H57	0.816100	0.868000	0.611600
H581	H58	0.625000	0.774700	0.577700
H591	H59	0.473400	0.950400	0.506800
H601	H60	0.605300	0.976600	0.519100
H611	H61	0.609000	0.936300	0.484000
H621	H62	0.638700	0.692300	0.587600
H631	H63	0.427700	0.853200	0.620400
H641	H64	0.791200	0.920100	0.551500
H651	H65	0.394500	0.900900	0.555100
H661	H66	0.816100	0.632000	0.888400
H671	H67	0.625000	0.725300	0.922300
H681	H68	0.473400	0.549600	0.993200
H691	H69	0.605300	0.523400	0.980900
H701	H70	0.609000	0.563700	0.016000
H711	H71	0.638700	0.807700	0.912400
H721	H72	0.427700	0.646800	0.879600
H731	H73	0.791200	0.579900	0.948500
H741	H74	0.394500	0.599100	0.944900
H751	H75	0.816100	0.888400	0.868000
H761	H76	0.625000	0.922300	0.774700
H771	H77	0.473400	0.993200	0.950400
H781	H78	0.605300	0.980900	0.976600
H791	H79	0.609000	0.016000	0.936300
H801	H80	0.638700	0.912400	0.692300
H811	H81	0.427700	0.879600	0.853200
H821	H82	0.791200	0.948500	0.920100
H831	H83	0.394500	0.944900	0.900900
H841	H84	0.816100	0.611600	0.632000
H851	H85	0.625000	0.577700	0.725300
H861	H86	0.473400	0.506800	0.549600
H871	H87	0.605300	0.519100	0.523400
H881	H88	0.609000	0.484000	0.563700
H891	H89	0.638700	0.587600	0.807700
H901	H90	0.427700	0.620400	0.646800
H911	H91	0.791200	0.551500	0.579900
H921	H92	0.394500	0.555100	0.599100
C1211	C121	0.731100	0.875100	0.600800
C1221	C122	0.622000	0.855200	0.620600
C1231	C123	0.637800	0.776300	0.650800
C1241	C124	0.631300	0.758500	0.605000
C1251	C125	0.634300	0.822000	0.658800
C1261	C126	0.568100	0.947400	0.511400
C1271	C127	0.636300	0.713900	0.610900
C1281	C128	0.637300	0.703700	0.658200
C1291	C129	0.501500	0.865600	0.605500
C1301	C130	0.717500	0.905900	0.564700
C1311	C131	0.478900	0.895100	0.567200
C1321	C132	0.731100	0.624900	0.899200
C1331	C133	0.622000	0.644800	0.879400
C1341	C134	0.637800	0.723700	0.849200
C1351	C135	0.631300	0.741500	0.895000
C1361	C136	0.634300	0.678000	0.841200
C1371	C137	0.568100	0.552600	0.988600
C1381	C138	0.636300	0.786100	0.889100
C1391	C139	0.637300	0.796300	0.841800
C1401	C140	0.501500	0.634400	0.894500
C1411	C141	0.717500	0.594100	0.935300
C1421	C142	0.478900	0.604900	0.932800
C1431	C143	0.731100	0.899200	0.875100
C1441	C144	0.622000	0.879400	0.855200
C1451	C145	0.637800	0.849200	0.776300
C1461	C146	0.631300	0.895000	0.758500
C1471	C147	0.634300	0.841200	0.822000
C1481	C148	0.568100	0.988600	0.947400
C1491	C149	0.636300	0.889100	0.713900
C1501	C150	0.637300	0.841800	0.703700
C1511	C151	0.501500	0.894500	0.865600
C1521	C152	0.717500	0.935300	0.905900
C1531	C153	0.478900	0.932800	0.895100
C1541	C154	0.731100	0.600800	0.624900
C1551	C155	0.622000	0.620600	0.644800
C1561	C156	0.637800	0.650800	0.723700
C1571	C157	0.631300	0.605000	0.741500
C1581	C158	0.634300	0.658800	0.678000
C1591	C159	0.568100	0.511400	0.552600
C1601	C160	0.636300	0.610900	0.786100
C1611	C161	0.637300	0.658200	0.796300
C1621	C162	0.501500	0.605500	0.634400
C1631	C163	0.717500	0.564700	0.594100
C1641	C164	0.478900	0.567200	0.604900
N11	N1	0.640500	0.743000	0.682900
N21	N2	0.594100	0.913900	0.550200
N31	N3	0.640500	0.757000	0.817100
N41	N4	0.594100	0.586100	0.949800
N51	N5	0.640500	0.817100	0.743000
N61	N6	0.594100	0.949800	0.913900
N71	N7	0.640500	0.682900	0.757000
N81	N8	0.594100	0.550200	0.586100
Cu101	Cu10	0.354800	0.250000	0.250000
H931	H93	0.183900	0.132000	0.388400
H941	H94	0.375000	0.225300	0.422300
H951	H95	0.526600	0.049600	0.493200
H961	H96	0.394700	0.023400	0.480900
H971	H97	0.391000	0.063700	0.516000
H981	H98	0.361300	0.307700	0.412400
H991	H99	0.572300	0.146800	0.379600
H1001	H100	0.208800	0.079900	0.448500
H1011	H101	0.605500	0.099100	0.444900
H1021	H102	0.183900	0.368000	0.111600
H1031	H103	0.375000	0.274700	0.077700
H1041	H104	0.526600	0.450400	0.006800
H1051	H105	0.394700	0.476600	0.019100
H1061	H106	0.391000	0.436300	0.984000
H1071	H107	0.361300	0.192300	0.087600
H1081	H108	0.572300	0.353200	0.120400
H1091	H109	0.208800	0.420100	0.051500
H1101	H110	0.605500	0.400900	0.055100
H1111	H111	0.183900	0.111600	0.132000
H1121	H112	0.375000	0.077700	0.225300
H1131	H113	0.526600	0.006800	0.049600
H1141	H114	0.394700	0.019100	0.023400
H1151	H115	0.391000	0.984000	0.063700
H1161	H116	0.361300	0.087600	0.307700
H1171	H117	0.572300	0.120400	0.146800
H1181	H118	0.208800	0.051500	0.079900
H1191	H119	0.605500	0.055100	0.099100
H1201	H120	0.183900	0.388400	0.368000
H1211	H121	0.375000	0.422300	0.274700
H1221	H122	0.526600	0.493200	0.450400
H1231	H123	0.394700	0.480900	0.476600
H1241	H124	0.391000	0.516000	0.436300
H1251	H125	0.361300	0.412400	0.192300
H1261	H126	0.572300	0.379600	0.353200
H1271	H127	0.208800	0.448500	0.420100
H1281	H128	0.605500	0.444900	0.400900
C1651	C165	0.268900	0.124900	0.399200
C1661	C166	0.378000	0.144800	0.379400
C1671	C167	0.362200	0.223700	0.349200
C1681	C168	0.368700	0.241500	0.395000
C1691	C169	0.365700	0.178000	0.341200
C1701	C170	0.431900	0.052600	0.488600
C1711	C171	0.363700	0.286100	0.389100
C1721	C172	0.362700	0.296300	0.341800
C1731	C173	0.498500	0.134400	0.394500
C1741	C174	0.282500	0.094100	0.435300
C1751	C175	0.521100	0.104900	0.432800
C1761	C176	0.268900	0.375100	0.100800
C1771	C177	0.378000	0.355200	0.120600
C1781	C178	0.362200	0.276300	0.150800
C1791	C179	0.368700	0.258500	0.105000
C1801	C180	0.365700	0.322000	0.158800
C1811	C181	0.431900	0.447400	0.011400
C1821	C182	0.363700	0.213900	0.110900
C1831	C183	0.362700	0.203700	0.158200
C1841	C184	0.498500	0.365600	0.105500
C1851	C185	0.282500	0.405900	0.064700
C1861	C186	0.521100	0.395100	0.067200
C1871	C187	0.268900	0.100800	0.124900
C1881	C188	0.378000	0.120600	0.144800
C1891	C189	0.362200	0.150800	0.223700
C1901	C190	0.368700	0.105000	0.241500
C1911	C191	0.365700	0.158800	0.178000
C1921	C192	0.431900	0.011400	0.052600
C1931	C193	0.363700	0.110900	0.286100
C1941	C194	0.362700	0.158200	0.296300
C1951	C195	0.498500	0.105500	0.134400
C1961	C196	0.282500	0.064700	0.094100
C1971	C197	0.521100	0.067200	0.104900
C1981	C198	0.268900	0.399200	0.375100
C1991	C199	0.378000	0.379400	0.355200
C2001	C200	0.362200	0.349200	0.276300
C2011	C201	0.368700	0.395000	0.258500
C2021	C202	0.365700	0.341200	0.322000
C2031	C203	0.431900	0.488600	0.447400
C2041	C204	0.363700	0.389100	0.213900
C2051	C205	0.362700	0.341800	0.203700
C2061	C206	0.498500	0.394500	0.365600
C2071	C207	0.282500	0.435300	0.405900
C2081	C208	0.521100	0.432800	0.395100
N91	N9	0.359500	0.257000	0.317100
N101	N10	0.405900	0.086100	0.449800
N111	N11	0.359500	0.243000	0.182900
N121	N12	0.405900	0.413900	0.050200
N131	N13	0.359500	0.182900	0.257000
N141	N14	0.405900	0.050200	0.086100
N151	N15	0.359500	0.317100	0.243000
N161	N16	0.405900	0.449800	0.413900
