data_DAPBED_clean_PM
_symmetry_space_group_name_H-M	'P1'
_cell_length_a	26.571700
_cell_length_b	26.571700
_cell_length_c	26.571700
_cell_angle_alpha	90.000000
_cell_angle_beta	90.000000
_cell_angle_gamma	90.000000
_symmetry_Int_Tables_number 1

loop_
_symmetry_equiv_pos_as_xyz
'x,y,z'

loop_
_atom_site_label
_atom_site_type_symbol
_atom_site_fract_x
_atom_site_fract_y
_atom_site_fract_z
O11	O1	0.682900	0.946300	0.258100
O21	O2	0.682900	0.446300	0.758100
O31	O3	0.182900	0.946300	0.758100
O41	O4	0.182900	0.446300	0.258100
O51	O5	0.317100	0.053700	0.258100
O61	O6	0.317100	0.553700	0.758100
O71	O7	0.817100	0.053700	0.758100
O81	O8	0.817100	0.553700	0.258100
O91	O9	0.317100	0.946300	0.741900
O101	O10	0.317100	0.446300	0.241900
O111	O11	0.817100	0.946300	0.241900
O121	O12	0.817100	0.446300	0.741900
O131	O13	0.682900	0.053700	0.741900
O141	O14	0.682900	0.553700	0.241900
O151	O15	0.182900	0.053700	0.241900
O161	O16	0.182900	0.553700	0.741900
O171	O17	0.258100	0.682900	0.946300
O181	O18	0.258100	0.182900	0.446300
O191	O19	0.758100	0.682900	0.446300
O201	O20	0.758100	0.182900	0.946300
O211	O21	0.258100	0.317100	0.053700
O221	O22	0.258100	0.817100	0.553700
O231	O23	0.758100	0.317100	0.553700
O241	O24	0.758100	0.817100	0.053700
O251	O25	0.741900	0.317100	0.946300
O261	O26	0.741900	0.817100	0.446300
O271	O27	0.241900	0.317100	0.446300
O281	O28	0.241900	0.817100	0.946300
O291	O29	0.741900	0.682900	0.053700
O301	O30	0.741900	0.182900	0.553700
O311	O31	0.241900	0.682900	0.553700
O321	O32	0.241900	0.182900	0.053700
O331	O33	0.946300	0.258100	0.682900
O341	O34	0.946300	0.758100	0.182900
O351	O35	0.446300	0.258100	0.182900
O361	O36	0.446300	0.758100	0.682900
O371	O37	0.053700	0.258100	0.317100
O381	O38	0.053700	0.758100	0.817100
O391	O39	0.553700	0.258100	0.817100
O401	O40	0.553700	0.758100	0.317100
O411	O41	0.946300	0.741900	0.317100
O421	O42	0.946300	0.241900	0.817100
O431	O43	0.446300	0.741900	0.817100
O441	O44	0.446300	0.241900	0.317100
O451	O45	0.053700	0.741900	0.682900
O461	O46	0.053700	0.241900	0.182900
O471	O47	0.553700	0.741900	0.182900
O481	O48	0.553700	0.241900	0.682900
O491	O49	0.946300	0.682900	0.741900
O501	O50	0.946300	0.182900	0.241900
O511	O51	0.446300	0.682900	0.241900
O521	O52	0.446300	0.182900	0.741900
O531	O53	0.053700	0.317100	0.741900
O541	O54	0.053700	0.817100	0.241900
O551	O55	0.553700	0.317100	0.241900
O561	O56	0.553700	0.817100	0.741900
O571	O57	0.946300	0.317100	0.258100
O581	O58	0.946300	0.817100	0.758100
O591	O59	0.446300	0.317100	0.758100
O601	O60	0.446300	0.817100	0.258100
O611	O61	0.053700	0.682900	0.258100
O621	O62	0.053700	0.182900	0.758100
O631	O63	0.553700	0.682900	0.758100
O641	O64	0.553700	0.182900	0.258100
O651	O65	0.682900	0.258100	0.053700
O661	O66	0.682900	0.758100	0.553700
O671	O67	0.182900	0.258100	0.553700
O681	O68	0.182900	0.758100	0.053700
O691	O69	0.317100	0.258100	0.946300
O701	O70	0.317100	0.758100	0.446300
O711	O71	0.817100	0.258100	0.446300
O721	O72	0.817100	0.758100	0.946300
O731	O73	0.317100	0.741900	0.053700
O741	O74	0.317100	0.241900	0.553700
O751	O75	0.817100	0.741900	0.553700
O761	O76	0.817100	0.241900	0.053700
O771	O77	0.682900	0.741900	0.946300
O781	O78	0.682900	0.241900	0.446300
O791	O79	0.182900	0.741900	0.446300
O801	O80	0.182900	0.241900	0.946300
O811	O81	0.258100	0.946300	0.317100
O821	O82	0.258100	0.446300	0.817100
O831	O83	0.758100	0.946300	0.817100
O841	O84	0.758100	0.446300	0.317100
O851	O85	0.258100	0.053700	0.682900
O861	O86	0.258100	0.553700	0.182900
O871	O87	0.758100	0.053700	0.182900
O881	O88	0.758100	0.553700	0.682900
O891	O89	0.741900	0.946300	0.682900
O901	O90	0.741900	0.446300	0.182900
O911	O91	0.241900	0.946300	0.182900
O921	O92	0.241900	0.446300	0.682900
O931	O93	0.741900	0.053700	0.317100
O941	O94	0.741900	0.553700	0.817100
O951	O95	0.241900	0.053700	0.817100
O961	O96	0.241900	0.553700	0.317100
O971	O97	0.317100	0.053700	0.741900
O981	O98	0.317100	0.553700	0.241900
O991	O99	0.817100	0.053700	0.241900
O1001	O100	0.817100	0.553700	0.741900
O1011	O101	0.682900	0.946300	0.741900
O1021	O102	0.682900	0.446300	0.241900
O1031	O103	0.182900	0.946300	0.241900
O1041	O104	0.182900	0.446300	0.741900
O1051	O105	0.682900	0.053700	0.258100
O1061	O106	0.682900	0.553700	0.758100
O1071	O107	0.182900	0.053700	0.758100
O1081	O108	0.182900	0.553700	0.258100
O1091	O109	0.317100	0.946300	0.258100
O1101	O110	0.317100	0.446300	0.758100
O1111	O111	0.817100	0.946300	0.758100
O1121	O112	0.817100	0.446300	0.258100
O1131	O113	0.741900	0.317100	0.053700
O1141	O114	0.741900	0.817100	0.553700
O1151	O115	0.241900	0.317100	0.553700
O1161	O116	0.241900	0.817100	0.053700
O1171	O117	0.741900	0.682900	0.946300
O1181	O118	0.741900	0.182900	0.446300
O1191	O119	0.241900	0.682900	0.446300
O1201	O120	0.241900	0.182900	0.946300
O1211	O121	0.258100	0.682900	0.053700
O1221	O122	0.258100	0.182900	0.553700
O1231	O123	0.758100	0.682900	0.553700
O1241	O124	0.758100	0.182900	0.053700
O1251	O125	0.258100	0.317100	0.946300
O1261	O126	0.258100	0.817100	0.446300
O1271	O127	0.758100	0.317100	0.446300
O1281	O128	0.758100	0.817100	0.946300
O1291	O129	0.053700	0.741900	0.317100
O1301	O130	0.053700	0.241900	0.817100
O1311	O131	0.553700	0.741900	0.817100
O1321	O132	0.553700	0.241900	0.317100
O1331	O133	0.946300	0.741900	0.682900
O1341	O134	0.946300	0.241900	0.182900
O1351	O135	0.446300	0.741900	0.182900
O1361	O136	0.446300	0.241900	0.682900
O1371	O137	0.053700	0.258100	0.682900
O1381	O138	0.053700	0.758100	0.182900
O1391	O139	0.553700	0.258100	0.182900
O1401	O140	0.553700	0.758100	0.682900
O1411	O141	0.946300	0.258100	0.317100
O1421	O142	0.946300	0.758100	0.817100
O1431	O143	0.446300	0.258100	0.817100
O1441	O144	0.446300	0.758100	0.317100
O1451	O145	0.053700	0.317100	0.258100
O1461	O146	0.053700	0.817100	0.758100
O1471	O147	0.553700	0.317100	0.758100
O1481	O148	0.553700	0.817100	0.258100
O1491	O149	0.946300	0.682900	0.258100
O1501	O150	0.946300	0.182900	0.758100
O1511	O151	0.446300	0.682900	0.758100
O1521	O152	0.446300	0.182900	0.258100
O1531	O153	0.053700	0.682900	0.741900
O1541	O154	0.053700	0.182900	0.241900
O1551	O155	0.553700	0.682900	0.241900
O1561	O156	0.553700	0.182900	0.741900
O1571	O157	0.946300	0.317100	0.741900
O1581	O158	0.946300	0.817100	0.241900
O1591	O159	0.446300	0.317100	0.241900
O1601	O160	0.446300	0.817100	0.741900
O1611	O161	0.317100	0.741900	0.946300
O1621	O162	0.317100	0.241900	0.446300
O1631	O163	0.817100	0.741900	0.446300
O1641	O164	0.817100	0.241900	0.946300
O1651	O165	0.682900	0.741900	0.053700
O1661	O166	0.682900	0.241900	0.553700
O1671	O167	0.182900	0.741900	0.553700
O1681	O168	0.182900	0.241900	0.053700
O1691	O169	0.682900	0.258100	0.946300
O1701	O170	0.682900	0.758100	0.446300
O1711	O171	0.182900	0.258100	0.446300
O1721	O172	0.182900	0.758100	0.946300
O1731	O173	0.317100	0.258100	0.053700
O1741	O174	0.317100	0.758100	0.553700
O1751	O175	0.817100	0.258100	0.553700
O1761	O176	0.817100	0.758100	0.053700
O1771	O177	0.741900	0.053700	0.682900
O1781	O178	0.741900	0.553700	0.182900
O1791	O179	0.241900	0.053700	0.182900
O1801	O180	0.241900	0.553700	0.682900
O1811	O181	0.741900	0.946300	0.317100
O1821	O182	0.741900	0.446300	0.817100
O1831	O183	0.241900	0.946300	0.817100
O1841	O184	0.241900	0.446300	0.317100
O1851	O185	0.258100	0.053700	0.317100
O1861	O186	0.258100	0.553700	0.817100
O1871	O187	0.758100	0.053700	0.817100
O1881	O188	0.758100	0.553700	0.317100
O1891	O189	0.258100	0.946300	0.682900
O1901	O190	0.258100	0.446300	0.182900
O1911	O191	0.758100	0.946300	0.182900
O1921	O192	0.758100	0.446300	0.682900
Fe11	Fe1	0.710810	0.000000	0.210810
Fe21	Fe2	0.710810	0.500000	0.710810
Fe31	Fe3	0.289190	0.000000	0.210810
Fe41	Fe4	0.289190	0.500000	0.710810
Fe51	Fe5	0.789190	0.000000	0.710810
Fe61	Fe6	0.289190	0.000000	0.789190
Fe71	Fe7	0.289190	0.500000	0.289190
Fe81	Fe8	0.789190	0.500000	0.789190
Fe91	Fe9	0.710810	0.000000	0.789190
Fe101	Fe10	0.710810	0.500000	0.289190
Fe111	Fe11	0.210810	0.710810	0.000000
Fe121	Fe12	0.210810	0.210810	0.500000
Fe131	Fe13	0.710810	0.710810	0.500000
Fe141	Fe14	0.210810	0.289190	0.000000
Fe151	Fe15	0.210810	0.789190	0.500000
Fe161	Fe16	0.710810	0.789190	0.000000
Fe171	Fe17	0.789190	0.289190	0.000000
Fe181	Fe18	0.789190	0.789190	0.500000
Fe191	Fe19	0.789190	0.710810	0.000000
Fe201	Fe20	0.789190	0.210810	0.500000
Fe211	Fe21	0.000000	0.210810	0.710810
Fe221	Fe22	0.500000	0.210810	0.210810
Fe231	Fe23	0.500000	0.710810	0.710810
Fe241	Fe24	0.000000	0.210810	0.289190
Fe251	Fe25	0.000000	0.710810	0.789190
Fe261	Fe26	0.500000	0.210810	0.789190
Fe271	Fe27	0.000000	0.789190	0.289190
Fe281	Fe28	0.500000	0.789190	0.789190
Fe291	Fe29	0.000000	0.789190	0.710810
Fe301	Fe30	0.500000	0.789190	0.210810
Fe311	Fe31	0.500000	0.710810	0.289190
Fe321	Fe32	0.000000	0.289190	0.789190
Fe331	Fe33	0.500000	0.289190	0.289190
Fe341	Fe34	0.000000	0.289190	0.210810
Fe351	Fe35	0.500000	0.289190	0.710810
Fe361	Fe36	0.000000	0.710810	0.210810
Fe371	Fe37	0.710810	0.210810	0.000000
Fe381	Fe38	0.289190	0.210810	0.000000
Fe391	Fe39	0.289190	0.710810	0.500000
Fe401	Fe40	0.289190	0.789190	0.000000
Fe411	Fe41	0.289190	0.289190	0.500000
Fe421	Fe42	0.710810	0.289190	0.500000
Fe431	Fe43	0.210810	0.000000	0.289190
Fe441	Fe44	0.210810	0.500000	0.789190
Fe451	Fe45	0.210810	0.000000	0.710810
Fe461	Fe46	0.210810	0.500000	0.210810
Fe471	Fe47	0.789190	0.500000	0.210810
Fe481	Fe48	0.789190	0.000000	0.289190
C11	C1	0.677500	0.886800	0.322500
C21	C2	0.702500	0.930300	0.297500
C31	C3	0.677500	0.386800	0.822500
C41	C4	0.702500	0.430300	0.797500
C51	C5	0.177500	0.886800	0.822500
C61	C6	0.202500	0.930300	0.797500
C71	C7	0.177500	0.386800	0.322500
C81	C8	0.202500	0.430300	0.297500
C91	C9	0.322500	0.113200	0.322500
C101	C10	0.297500	0.069700	0.297500
C111	C11	0.322500	0.613200	0.822500
C121	C12	0.297500	0.569700	0.797500
C131	C13	0.822500	0.113200	0.822500
C141	C14	0.797500	0.069700	0.797500
C151	C15	0.822500	0.613200	0.322500
C161	C16	0.797500	0.569700	0.297500
C171	C17	0.322500	0.886800	0.677500
C181	C18	0.297500	0.930300	0.702500
C191	C19	0.322500	0.386800	0.177500
C201	C20	0.297500	0.430300	0.202500
C211	C21	0.822500	0.886800	0.177500
C221	C22	0.797500	0.930300	0.202500
C231	C23	0.822500	0.386800	0.677500
C241	C24	0.797500	0.430300	0.702500
C251	C25	0.677500	0.113200	0.677500
C261	C26	0.702500	0.069700	0.702500
C271	C27	0.677500	0.613200	0.177500
C281	C28	0.702500	0.569700	0.202500
C291	C29	0.177500	0.113200	0.177500
C301	C30	0.202500	0.069700	0.202500
C311	C31	0.177500	0.613200	0.677500
C321	C32	0.202500	0.569700	0.702500
C331	C33	0.322500	0.677500	0.886800
C341	C34	0.297500	0.702500	0.930300
C351	C35	0.322500	0.177500	0.386800
C361	C36	0.297500	0.202500	0.430300
C371	C37	0.822500	0.677500	0.386800
C381	C38	0.797500	0.702500	0.430300
C391	C39	0.822500	0.177500	0.886800
C401	C40	0.797500	0.202500	0.930300
C411	C41	0.322500	0.322500	0.113200
C421	C42	0.297500	0.297500	0.069700
C431	C43	0.322500	0.822500	0.613200
C441	C44	0.297500	0.797500	0.569700
C451	C45	0.822500	0.322500	0.613200
C461	C46	0.797500	0.297500	0.569700
C471	C47	0.822500	0.822500	0.113200
C481	C48	0.797500	0.797500	0.069700
C491	C49	0.677500	0.322500	0.886800
C501	C50	0.702500	0.297500	0.930300
C511	C51	0.677500	0.822500	0.386800
C521	C52	0.702500	0.797500	0.430300
C531	C53	0.177500	0.322500	0.386800
C541	C54	0.202500	0.297500	0.430300
C551	C55	0.177500	0.822500	0.886800
C561	C56	0.202500	0.797500	0.930300
C571	C57	0.677500	0.677500	0.113200
C581	C58	0.702500	0.702500	0.069700
C591	C59	0.677500	0.177500	0.613200
C601	C60	0.702500	0.202500	0.569700
C611	C61	0.177500	0.677500	0.613200
C621	C62	0.202500	0.702500	0.569700
C631	C63	0.177500	0.177500	0.113200
C641	C64	0.202500	0.202500	0.069700
C651	C65	0.886800	0.322500	0.677500
C661	C66	0.930300	0.297500	0.702500
C671	C67	0.886800	0.822500	0.177500
C681	C68	0.930300	0.797500	0.202500
C691	C69	0.386800	0.322500	0.177500
C701	C70	0.430300	0.297500	0.202500
C711	C71	0.386800	0.822500	0.677500
C721	C72	0.430300	0.797500	0.702500
C731	C73	0.113200	0.322500	0.322500
C741	C74	0.069700	0.297500	0.297500
C751	C75	0.113200	0.822500	0.822500
C761	C76	0.069700	0.797500	0.797500
C771	C77	0.613200	0.322500	0.822500
C781	C78	0.569700	0.297500	0.797500
C791	C79	0.613200	0.822500	0.322500
C801	C80	0.569700	0.797500	0.297500
C811	C81	0.886800	0.677500	0.322500
C821	C82	0.930300	0.702500	0.297500
C831	C83	0.886800	0.177500	0.822500
C841	C84	0.930300	0.202500	0.797500
C851	C85	0.386800	0.677500	0.822500
C861	C86	0.430300	0.702500	0.797500
C871	C87	0.386800	0.177500	0.322500
C881	C88	0.430300	0.202500	0.297500
C891	C89	0.113200	0.677500	0.677500
C901	C90	0.069700	0.702500	0.702500
C911	C91	0.113200	0.177500	0.177500
C921	C92	0.069700	0.202500	0.202500
C931	C93	0.613200	0.677500	0.177500
C941	C94	0.569700	0.702500	0.202500
C951	C95	0.613200	0.177500	0.677500
C961	C96	0.569700	0.202500	0.702500
C971	C97	0.886800	0.677500	0.677500
C981	C98	0.930300	0.702500	0.702500
C991	C99	0.886800	0.177500	0.177500
C1001	C100	0.930300	0.202500	0.202500
C1011	C101	0.386800	0.677500	0.177500
C1021	C102	0.430300	0.702500	0.202500
C1031	C103	0.386800	0.177500	0.677500
C1041	C104	0.430300	0.202500	0.702500
C1051	C105	0.113200	0.322500	0.677500
C1061	C106	0.069700	0.297500	0.702500
C1071	C107	0.113200	0.822500	0.177500
C1081	C108	0.069700	0.797500	0.202500
C1091	C109	0.613200	0.322500	0.177500
C1101	C110	0.569700	0.297500	0.202500
C1111	C111	0.613200	0.822500	0.677500
C1121	C112	0.569700	0.797500	0.702500
C1131	C113	0.886800	0.322500	0.322500
C1141	C114	0.930300	0.297500	0.297500
C1151	C115	0.886800	0.822500	0.822500
C1161	C116	0.930300	0.797500	0.797500
C1171	C117	0.386800	0.322500	0.822500
C1181	C118	0.430300	0.297500	0.797500
C1191	C119	0.386800	0.822500	0.322500
C1201	C120	0.430300	0.797500	0.297500
C1211	C121	0.113200	0.677500	0.322500
C1221	C122	0.069700	0.702500	0.297500
C1231	C123	0.113200	0.177500	0.822500
C1241	C124	0.069700	0.202500	0.797500
C1251	C125	0.613200	0.677500	0.822500
C1261	C126	0.569700	0.702500	0.797500
C1271	C127	0.613200	0.177500	0.322500
C1281	C128	0.569700	0.202500	0.297500
C1291	C129	0.677500	0.322500	0.113200
C1301	C130	0.702500	0.297500	0.069700
C1311	C131	0.677500	0.822500	0.613200
C1321	C132	0.702500	0.797500	0.569700
C1331	C133	0.177500	0.322500	0.613200
C1341	C134	0.202500	0.297500	0.569700
C1351	C135	0.177500	0.822500	0.113200
C1361	C136	0.202500	0.797500	0.069700
C1371	C137	0.322500	0.322500	0.886800
C1381	C138	0.297500	0.297500	0.930300
C1391	C139	0.322500	0.822500	0.386800
C1401	C140	0.297500	0.797500	0.430300
C1411	C141	0.822500	0.322500	0.386800
C1421	C142	0.797500	0.297500	0.430300
C1431	C143	0.822500	0.822500	0.886800
C1441	C144	0.797500	0.797500	0.930300
C1451	C145	0.322500	0.677500	0.113200
C1461	C146	0.297500	0.702500	0.069700
C1471	C147	0.322500	0.177500	0.613200
C1481	C148	0.297500	0.202500	0.569700
C1491	C149	0.822500	0.677500	0.613200
C1501	C150	0.797500	0.702500	0.569700
C1511	C151	0.822500	0.177500	0.113200
C1521	C152	0.797500	0.202500	0.069700
C1531	C153	0.677500	0.677500	0.886800
C1541	C154	0.702500	0.702500	0.930300
C1551	C155	0.677500	0.177500	0.386800
C1561	C156	0.702500	0.202500	0.430300
C1571	C157	0.177500	0.677500	0.386800
C1581	C158	0.202500	0.702500	0.430300
C1591	C159	0.177500	0.177500	0.886800
C1601	C160	0.202500	0.202500	0.930300
C1611	C161	0.322500	0.886800	0.322500
C1621	C162	0.297500	0.930300	0.297500
C1631	C163	0.322500	0.386800	0.822500
C1641	C164	0.297500	0.430300	0.797500
C1651	C165	0.822500	0.886800	0.822500
C1661	C166	0.797500	0.930300	0.797500
C1671	C167	0.822500	0.386800	0.322500
C1681	C168	0.797500	0.430300	0.297500
C1691	C169	0.322500	0.113200	0.677500
C1701	C170	0.297500	0.069700	0.702500
C1711	C171	0.322500	0.613200	0.177500
C1721	C172	0.297500	0.569700	0.202500
C1731	C173	0.822500	0.113200	0.177500
C1741	C174	0.797500	0.069700	0.202500
C1751	C175	0.822500	0.613200	0.677500
C1761	C176	0.797500	0.569700	0.702500
C1771	C177	0.677500	0.886800	0.677500
C1781	C178	0.702500	0.930300	0.702500
C1791	C179	0.677500	0.386800	0.177500
C1801	C180	0.702500	0.430300	0.202500
C1811	C181	0.177500	0.886800	0.177500
C1821	C182	0.202500	0.930300	0.202500
C1831	C183	0.177500	0.386800	0.677500
C1841	C184	0.202500	0.430300	0.702500
C1851	C185	0.677500	0.113200	0.322500
C1861	C186	0.702500	0.069700	0.297500
C1871	C187	0.677500	0.613200	0.822500
C1881	C188	0.702500	0.569700	0.797500
C1891	C189	0.177500	0.113200	0.822500
C1901	C190	0.202500	0.069700	0.797500
C1911	C191	0.177500	0.613200	0.322500
C1921	C192	0.202500	0.569700	0.297500
C1931	C193	0.635200	0.864800	0.301700
H11	H1	0.620900	0.879100	0.272200
C1941	C194	0.635200	0.364800	0.801700
H21	H2	0.620900	0.379100	0.772200
C1951	C195	0.364800	0.135200	0.301700
H31	H3	0.379100	0.120900	0.272200
C1961	C196	0.364800	0.635200	0.801700
H41	H4	0.379100	0.620900	0.772200
C1971	C197	0.864800	0.635200	0.301700
H51	H5	0.879100	0.620900	0.272200
C1981	C198	0.364800	0.864800	0.698300
H61	H6	0.379100	0.879100	0.727800
C1991	C199	0.364800	0.364800	0.198300
H71	H7	0.379100	0.379100	0.227800
C2001	C200	0.864800	0.864800	0.198300
H81	H8	0.879100	0.879100	0.227800
C2011	C201	0.635200	0.135200	0.698300
H91	H9	0.620900	0.120900	0.727800
C2021	C202	0.635200	0.635200	0.198300
H101	H10	0.620900	0.620900	0.227800
C2031	C203	0.301700	0.635200	0.864800
H111	H11	0.272200	0.620900	0.879100
C2041	C204	0.801700	0.635200	0.364800
H121	H12	0.772200	0.620900	0.379100
C2051	C205	0.301700	0.364800	0.135200
H131	H13	0.272200	0.379100	0.120900
C2061	C206	0.301700	0.864800	0.635200
H141	H14	0.272200	0.879100	0.620900
C2071	C207	0.801700	0.364800	0.635200
H151	H15	0.772200	0.379100	0.620900
C2081	C208	0.698300	0.364800	0.864800
H161	H16	0.727800	0.379100	0.879100
C2091	C209	0.198300	0.364800	0.364800
H171	H17	0.227800	0.379100	0.379100
C2101	C210	0.198300	0.864800	0.864800
H181	H18	0.227800	0.879100	0.879100
C2111	C211	0.698300	0.635200	0.135200
H191	H19	0.727800	0.620900	0.120900
C2121	C212	0.198300	0.635200	0.635200
H201	H20	0.227800	0.620900	0.620900
C2131	C213	0.864800	0.301700	0.635200
H211	H21	0.879100	0.272200	0.620900
C2141	C214	0.864800	0.801700	0.135200
H221	H22	0.879100	0.772200	0.120900
C2151	C215	0.135200	0.301700	0.364800
H231	H23	0.120900	0.272200	0.379100
C2161	C216	0.135200	0.801700	0.864800
H241	H24	0.120900	0.772200	0.879100
C2171	C217	0.635200	0.301700	0.864800
H251	H25	0.620900	0.272200	0.879100
C2181	C218	0.864800	0.698300	0.364800
H261	H26	0.879100	0.727800	0.379100
C2191	C219	0.864800	0.198300	0.864800
H271	H27	0.879100	0.227800	0.879100
C2201	C220	0.135200	0.698300	0.635200
H281	H28	0.120900	0.727800	0.620900
C2211	C221	0.135200	0.198300	0.135200
H291	H29	0.120900	0.227800	0.120900
C2221	C222	0.635200	0.198300	0.635200
H301	H30	0.620900	0.227800	0.620900
C2231	C223	0.864800	0.635200	0.698300
H311	H31	0.879100	0.620900	0.727800
C2241	C224	0.864800	0.135200	0.198300
H321	H32	0.879100	0.120900	0.227800
C2251	C225	0.135200	0.364800	0.698300
H331	H33	0.120900	0.379100	0.727800
C2261	C226	0.135200	0.864800	0.198300
H341	H34	0.120900	0.879100	0.227800
C2271	C227	0.635200	0.864800	0.698300
H351	H35	0.620900	0.879100	0.727800
C2281	C228	0.864800	0.364800	0.301700
H361	H36	0.879100	0.379100	0.272200
C2291	C229	0.864800	0.864800	0.801700
H371	H37	0.879100	0.879100	0.772200
C2301	C230	0.135200	0.635200	0.301700
H381	H38	0.120900	0.620900	0.272200
C2311	C231	0.135200	0.135200	0.801700
H391	H39	0.120900	0.120900	0.772200
C2321	C232	0.635200	0.635200	0.801700
H401	H40	0.620900	0.620900	0.772200
C2331	C233	0.635200	0.301700	0.135200
H411	H41	0.620900	0.272200	0.120900
C2341	C234	0.635200	0.801700	0.635200
H421	H42	0.620900	0.772200	0.620900
C2351	C235	0.364800	0.301700	0.864800
H431	H43	0.379100	0.272200	0.879100
C2361	C236	0.364800	0.801700	0.364800
H441	H44	0.379100	0.772200	0.379100
C2371	C237	0.864800	0.801700	0.864800
H451	H45	0.879100	0.772200	0.879100
C2381	C238	0.364800	0.698300	0.135200
H461	H46	0.379100	0.727800	0.120900
C2391	C239	0.364800	0.198300	0.635200
H471	H47	0.379100	0.227800	0.620900
C2401	C240	0.864800	0.698300	0.635200
H481	H48	0.879100	0.727800	0.620900
C2411	C241	0.635200	0.698300	0.864800
H491	H49	0.620900	0.727800	0.879100
C2421	C242	0.635200	0.198300	0.364800
H501	H50	0.620900	0.227800	0.379100
C2431	C243	0.301700	0.864800	0.364800
H511	H51	0.272200	0.879100	0.379100
C2441	C244	0.801700	0.864800	0.864800
H521	H52	0.772200	0.879100	0.879100
C2451	C245	0.301700	0.135200	0.635200
H531	H53	0.272200	0.120900	0.620900
C2461	C246	0.801700	0.135200	0.135200
H541	H54	0.772200	0.120900	0.120900
C2471	C247	0.801700	0.635200	0.635200
H551	H55	0.772200	0.620900	0.620900
C2481	C248	0.698300	0.864800	0.635200
H561	H56	0.727800	0.879100	0.620900
C2491	C249	0.198300	0.864800	0.135200
H571	H57	0.227800	0.879100	0.120900
C2501	C250	0.698300	0.135200	0.364800
H581	H58	0.727800	0.120900	0.379100
C2511	C251	0.698300	0.635200	0.864800
H591	H59	0.727800	0.620900	0.879100
C2521	C252	0.198300	0.135200	0.864800
H601	H60	0.227800	0.120900	0.879100
C2531	C253	0.364800	0.135200	0.698300
H611	H61	0.379100	0.120900	0.727800
C2541	C254	0.364800	0.635200	0.198300
H621	H62	0.379100	0.620900	0.227800
C2551	C255	0.635200	0.364800	0.198300
H631	H63	0.620900	0.379100	0.227800
C2561	C256	0.635200	0.135200	0.301700
H641	H64	0.620900	0.120900	0.272200
C2571	C257	0.364800	0.864800	0.301700
H651	H65	0.379100	0.879100	0.272200
C2581	C258	0.364800	0.364800	0.801700
H661	H66	0.379100	0.379100	0.772200
C2591	C259	0.698300	0.364800	0.135200
H671	H67	0.727800	0.379100	0.120900
C2601	C260	0.198300	0.364800	0.635200
H681	H68	0.227800	0.379100	0.620900
C2611	C261	0.198300	0.635200	0.364800
H691	H69	0.227800	0.620900	0.379100
C2621	C262	0.301700	0.635200	0.135200
H701	H70	0.272200	0.620900	0.120900
C2631	C263	0.301700	0.364800	0.864800
H711	H71	0.272200	0.379100	0.879100
C2641	C264	0.801700	0.364800	0.364800
H721	H72	0.772200	0.379100	0.379100
C2651	C265	0.135200	0.698300	0.364800
H731	H73	0.120900	0.727800	0.379100
C2661	C266	0.135200	0.198300	0.864800
H741	H74	0.120900	0.227800	0.879100
C2671	C267	0.864800	0.198300	0.135200
H751	H75	0.879100	0.227800	0.120900
C2681	C268	0.135200	0.301700	0.635200
H761	H76	0.120900	0.272200	0.620900
C2691	C269	0.135200	0.801700	0.135200
H771	H77	0.120900	0.772200	0.120900
C2701	C270	0.864800	0.301700	0.364800
H781	H78	0.879100	0.272200	0.379100
C2711	C271	0.135200	0.364800	0.301700
H791	H79	0.120900	0.379100	0.272200
C2721	C272	0.135200	0.864800	0.801700
H801	H80	0.120900	0.879100	0.772200
C2731	C273	0.864800	0.135200	0.801700
H811	H81	0.879100	0.120900	0.772200
C2741	C274	0.135200	0.635200	0.698300
H821	H82	0.120900	0.620900	0.727800
C2751	C275	0.135200	0.135200	0.198300
H831	H83	0.120900	0.120900	0.227800
C2761	C276	0.864800	0.364800	0.698300
H841	H84	0.879100	0.379100	0.727800
C2771	C277	0.364800	0.698300	0.864800
H851	H85	0.379100	0.727800	0.879100
C2781	C278	0.364800	0.198300	0.364800
H861	H86	0.379100	0.227800	0.379100
C2791	C279	0.635200	0.698300	0.135200
H871	H87	0.620900	0.727800	0.120900
C2801	C280	0.635200	0.801700	0.364800
H881	H88	0.620900	0.772200	0.379100
C2811	C281	0.364800	0.301700	0.135200
H891	H89	0.379100	0.272200	0.120900
C2821	C282	0.364800	0.801700	0.635200
H901	H90	0.379100	0.772200	0.620900
C2831	C283	0.698300	0.135200	0.635200
H911	H91	0.727800	0.120900	0.620900
C2841	C284	0.198300	0.135200	0.135200
H921	H92	0.227800	0.120900	0.120900
C2851	C285	0.698300	0.864800	0.364800
H931	H93	0.727800	0.879100	0.379100
C2861	C286	0.301700	0.135200	0.364800
H941	H94	0.272200	0.120900	0.379100
C2871	C287	0.801700	0.135200	0.864800
H951	H95	0.772200	0.120900	0.879100
C2881	C288	0.801700	0.864800	0.135200
H961	H96	0.772200	0.879100	0.120900
