data_DAPXEZ_clean_PM
_symmetry_space_group_name_H-M	'P1'
_cell_length_a	9.870700
_cell_length_b	16.508700
_cell_length_c	16.472200
_cell_angle_alpha	90.000000
_cell_angle_beta	90.000000
_cell_angle_gamma	90.000000
_symmetry_Int_Tables_number 1

loop_
_symmetry_equiv_pos_as_xyz
'x,y,z'

loop_
_atom_site_label
_atom_site_type_symbol
_atom_site_fract_x
_atom_site_fract_y
_atom_site_fract_z
Ni11	Ni1	0.371160	0.552040	0.035550
Ni21	Ni2	0.628840	0.447960	0.535550
Ni31	Ni3	0.628840	0.052040	0.035550
Ni41	Ni4	0.371160	0.947960	0.535550
Ge11	Ge1	0.090540	0.474980	0.052260
Ge21	Ge2	0.954520	0.572920	0.914240
Ge31	Ge3	0.063770	0.663180	0.060080
Ge41	Ge4	0.867590	0.348750	0.077430
Ge51	Ge5	0.975650	0.441860	0.222440
Ge61	Ge6	0.729580	0.505210	0.022020
Ge71	Ge7	0.826670	0.595440	0.163940
Ge81	Ge8	0.909460	0.525020	0.552260
Ge91	Ge9	0.045480	0.427080	0.414240
Ge101	Ge10	0.936230	0.336820	0.560080
Ge111	Ge11	0.132410	0.651250	0.577430
Ge121	Ge12	0.024350	0.558140	0.722440
Ge131	Ge13	0.270420	0.494790	0.522020
Ge141	Ge14	0.173330	0.404560	0.663940
Ge151	Ge15	0.909460	0.974980	0.052260
Ge161	Ge16	0.045480	0.072920	0.914240
Ge171	Ge17	0.936230	0.163180	0.060080
Ge181	Ge18	0.132410	0.848750	0.077430
Ge191	Ge19	0.024350	0.941860	0.222440
Ge201	Ge20	0.270420	0.005210	0.022020
Ge211	Ge21	0.173330	0.095440	0.163940
Ge221	Ge22	0.090540	0.025020	0.552260
Ge231	Ge23	0.954520	0.927080	0.414240
Ge241	Ge24	0.063770	0.836820	0.560080
Ge251	Ge25	0.867590	0.151250	0.577430
Ge261	Ge26	0.975650	0.058140	0.722440
Ge271	Ge27	0.729580	0.994790	0.522020
Ge281	Ge28	0.826670	0.904560	0.663940
H11	H1	0.515400	0.403100	0.129200
H21	H2	0.399300	0.387400	0.192300
H31	H3	0.387300	0.346200	0.038900
H41	H4	0.262900	0.345800	0.098000
H51	H5	0.412800	0.520800	0.811100
H61	H6	0.512900	0.584300	0.849300
H71	H7	0.457100	0.429300	0.912000
H81	H8	0.598400	0.459200	0.879600
H91	H9	0.484600	0.596900	0.629200
H101	H10	0.600700	0.612600	0.692300
H111	H11	0.612700	0.653800	0.538900
H121	H12	0.737100	0.654200	0.598000
H131	H13	0.587200	0.479200	0.311100
H141	H14	0.487100	0.415700	0.349300
H151	H15	0.542900	0.570700	0.412000
H161	H16	0.401600	0.540800	0.379600
H171	H17	0.484600	0.903100	0.129200
H181	H18	0.600700	0.887400	0.192300
H191	H19	0.612700	0.846200	0.038900
H201	H20	0.737100	0.845800	0.098000
H211	H21	0.587200	0.020800	0.811100
H221	H22	0.487100	0.084300	0.849300
H231	H23	0.542900	0.929300	0.912000
H241	H24	0.401600	0.959200	0.879600
H251	H25	0.515400	0.096900	0.629200
H261	H26	0.399300	0.112600	0.692300
H271	H27	0.387300	0.153800	0.538900
H281	H28	0.262900	0.154200	0.598000
H291	H29	0.412800	0.979200	0.311100
H301	H30	0.512900	0.915700	0.349300
H311	H31	0.457100	0.070700	0.412000
H321	H32	0.598400	0.040800	0.379600
C11	C1	0.421200	0.414300	0.141600
C21	C2	0.332200	0.379900	0.074100
C31	C3	0.448300	0.541900	0.861800
C41	C4	0.516700	0.475800	0.907800
C51	C5	0.578800	0.585700	0.641600
C61	C6	0.667800	0.620100	0.574100
C71	C7	0.551700	0.458100	0.361800
C81	C8	0.483300	0.524200	0.407800
C91	C9	0.578800	0.914300	0.141600
C101	C10	0.667800	0.879900	0.074100
C111	C11	0.551700	0.041900	0.861800
C121	C12	0.483300	0.975800	0.907800
C131	C13	0.421200	0.085700	0.641600
C141	C14	0.332200	0.120100	0.574100
C151	C15	0.448300	0.958100	0.361800
C161	C16	0.516700	0.024200	0.407800
N11	N1	0.402300	0.507500	0.152400
N21	N2	0.334800	0.575600	0.912300
N31	N3	0.597700	0.492500	0.652400
N41	N4	0.665200	0.424400	0.412300
N51	N5	0.597700	0.007500	0.152400
N61	N6	0.665200	0.075600	0.912300
N71	N7	0.402300	0.992500	0.652400
N81	N8	0.334800	0.924400	0.412300
O11	O1	0.268600	0.441600	0.026600
O21	O2	0.167500	0.579500	0.068400
O31	O3	0.068300	0.497700	0.940200
O41	O4	0.117300	0.455700	0.162500
O51	O5	0.023400	0.371100	0.034600
O61	O6	0.171400	0.746400	0.066800
O71	O7	0.972000	0.600100	0.814000
O81	O8	0.986100	0.665300	0.965000
O91	O9	0.910900	0.517700	0.073500
O101	O10	0.884700	0.531200	0.242600
O111	O11	0.864300	0.368500	0.181300
O121	O12	0.943500	0.671200	0.136400
O131	O13	0.786700	0.547100	0.928100
O141	O14	0.733800	0.397700	0.029200
O151	O15	0.682700	0.568300	0.104100
O161	O16	0.550600	0.505100	0.988100
O171	O17	0.731400	0.558400	0.526600
O181	O18	0.832500	0.420500	0.568400
O191	O19	0.931700	0.502300	0.440200
O201	O20	0.882700	0.544300	0.662500
O211	O21	0.976600	0.628900	0.534600
O221	O22	0.828600	0.253600	0.566800
O231	O23	0.028000	0.399900	0.314000
O241	O24	0.013900	0.334700	0.465000
O251	O25	0.089100	0.482300	0.573500
O261	O26	0.115300	0.468800	0.742600
O271	O27	0.135700	0.631500	0.681300
O281	O28	0.056500	0.328800	0.636400
O291	O29	0.213300	0.452900	0.428100
O301	O30	0.266200	0.602300	0.529200
O311	O31	0.317300	0.431700	0.604100
O321	O32	0.449400	0.494900	0.488100
O331	O33	0.731400	0.941600	0.026600
O341	O34	0.832500	0.079500	0.068400
O351	O35	0.931700	0.997700	0.940200
O361	O36	0.882700	0.955700	0.162500
O371	O37	0.976600	0.871100	0.034600
O381	O38	0.828600	0.246400	0.066800
O391	O39	0.028000	0.100100	0.814000
O401	O40	0.013900	0.165300	0.965000
O411	O41	0.089100	0.017700	0.073500
O421	O42	0.115300	0.031200	0.242600
O431	O43	0.135700	0.868500	0.181300
O441	O44	0.056500	0.171200	0.136400
O451	O45	0.213300	0.047100	0.928100
O461	O46	0.266200	0.897700	0.029200
O471	O47	0.317300	0.068300	0.104100
O481	O48	0.449400	0.005100	0.988100
O491	O49	0.268600	0.058400	0.526600
O501	O50	0.167500	0.920500	0.568400
O511	O51	0.068300	0.002300	0.440200
O521	O52	0.117300	0.044300	0.662500
O531	O53	0.023400	0.128900	0.534600
O541	O54	0.171400	0.753600	0.566800
O551	O55	0.972000	0.899900	0.314000
O561	O56	0.986100	0.834700	0.465000
O571	O57	0.910900	0.982300	0.573500
O581	O58	0.884700	0.968800	0.742600
O591	O59	0.864300	0.131500	0.681300
O601	O60	0.943500	0.828800	0.636400
O611	O61	0.786700	0.952900	0.428100
O621	O62	0.733800	0.102300	0.529200
O631	O63	0.682700	0.931700	0.604100
O641	O64	0.550600	0.994900	0.488100
