data_DAWCOV_clean_PM
_symmetry_space_group_name_H-M	'P1'
_cell_length_a	13.552000
_cell_length_b	16.332900
_cell_length_c	17.346900
_cell_angle_alpha	67.293200
_cell_angle_beta	67.007000
_cell_angle_gamma	65.489000
_symmetry_Int_Tables_number 1

loop_
_symmetry_equiv_pos_as_xyz
'x,y,z'

loop_
_atom_site_label
_atom_site_type_symbol
_atom_site_fract_x
_atom_site_fract_y
_atom_site_fract_z
Mn11	Mn1	0.411560	0.468740	0.602040
Mn21	Mn2	0.482340	0.031260	0.897960
Mn31	Mn3	0.588440	0.531260	0.397960
Mn41	Mn4	0.517660	0.968740	0.102040
Mn51	Mn5	0.455860	0.250000	0.750000
Mn61	Mn6	0.544140	0.750000	0.250000
H11	H1	0.058500	0.583800	0.749600
H21	H2	0.870400	0.607700	0.818900
H31	H3	0.923500	0.335400	0.909200
H41	H4	0.113800	0.311700	0.842100
H51	H5	0.749800	0.435700	0.974500
H61	H6	0.778300	0.527100	0.042100
H71	H7	0.707800	0.657900	0.089900
H81	H8	0.536100	0.792700	0.912500
H91	H9	0.601700	0.657600	0.868000
H101	H10	0.610400	0.396100	0.970700
H111	H11	0.528200	0.364800	0.896600
H121	H12	0.665900	0.527300	0.677300
H131	H13	0.754600	0.552200	0.751600
H141	H14	0.391900	0.916200	0.750400
H151	H15	0.297000	0.892300	0.681100
H161	H16	0.168100	0.164600	0.590800
H171	H17	0.267600	0.188300	0.657900
H181	H18	0.160000	0.064300	0.525500
H191	H19	0.347500	0.972900	0.457900
H201	H20	0.455600	0.842100	0.410100
H211	H21	0.241300	0.707300	0.587500
H221	H22	0.127300	0.842400	0.632000
H231	H23	0.977200	0.103900	0.529300
H241	H24	0.789600	0.135200	0.603400
H251	H25	0.870500	0.972700	0.822700
H261	H26	0.058400	0.947800	0.748400
H271	H27	0.941500	0.416200	0.250400
H281	H28	0.129600	0.392300	0.181100
H291	H29	0.076500	0.664600	0.090800
H301	H30	0.886200	0.688300	0.157900
H311	H31	0.250200	0.564300	0.025500
H321	H32	0.221700	0.472900	0.957900
H331	H33	0.292200	0.342100	0.910100
H341	H34	0.463900	0.207300	0.087500
H351	H35	0.398300	0.342400	0.132000
H361	H36	0.389600	0.603900	0.029300
H371	H37	0.471800	0.635200	0.103400
H381	H38	0.334100	0.472700	0.322700
H391	H39	0.245400	0.447800	0.248400
H401	H40	0.608100	0.083800	0.249600
H411	H41	0.703000	0.107700	0.318900
H421	H42	0.831900	0.835400	0.409200
H431	H43	0.732400	0.811700	0.342100
H441	H44	0.840000	0.935700	0.474500
H451	H45	0.652500	0.027100	0.542100
H461	H46	0.544400	0.157900	0.589900
H471	H47	0.758700	0.292700	0.412500
H481	H48	0.872700	0.157600	0.368000
H491	H49	0.022800	0.896100	0.470700
H501	H50	0.210400	0.864800	0.396600
H511	H51	0.129500	0.027300	0.177300
H521	H52	0.941600	0.052200	0.251600
C11	C1	0.227290	0.428120	0.743300
C21	C2	0.105710	0.445210	0.789170
C31	C3	0.032310	0.532780	0.782600
C41	C4	0.919360	0.546880	0.824400
C51	C5	0.876890	0.474530	0.873490
C61	C6	0.950070	0.386460	0.878200
C71	C7	0.064450	0.372400	0.836900
C81	C8	0.752660	0.487230	0.921170
C91	C9	0.698370	0.578170	0.949850
C101	C10	0.728550	0.580400	0.015900
C111	C11	0.687380	0.658870	0.044170
C121	C12	0.616170	0.738830	0.005230
C131	C13	0.584440	0.738750	0.939170
C141	C14	0.624720	0.657680	0.911880
C151	C15	0.573030	0.824310	0.035230
C161	C16	0.692810	0.477000	0.868780
C171	C17	0.623780	0.421740	0.910900
C181	C18	0.573760	0.403380	0.866300
C191	C19	0.590260	0.440860	0.777820
C201	C20	0.655930	0.498490	0.736450
C211	C21	0.708050	0.514570	0.781730
C221	C22	0.536890	0.416380	0.732240
C231	C23	0.398710	0.071880	0.756700
C241	C24	0.340090	0.054790	0.710830
C251	C25	0.347690	0.967220	0.717400
C261	C26	0.290640	0.953120	0.675600
C271	C27	0.224910	0.025470	0.626510
C281	C28	0.214730	0.113540	0.621800
C291	C29	0.273750	0.127600	0.663100
C301	C30	0.161060	0.012770	0.578830
C311	C31	0.226390	0.921830	0.550150
C321	C32	0.324850	0.919600	0.484100
C331	C33	0.390420	0.841130	0.455830
C341	C34	0.360230	0.761170	0.494770
C351	C35	0.262360	0.761250	0.560830
C361	C36	0.194280	0.842320	0.588120
C371	C37	0.432570	0.675690	0.464770
C381	C38	0.038590	0.023000	0.631220
C391	C39	0.956420	0.078260	0.589100
C401	C40	0.843440	0.096620	0.633700
C411	C41	0.808940	0.059140	0.722180
C421	C42	0.890870	0.001510	0.763550
C431	C43	0.004350	0.985430	0.718270
C441	C44	0.685510	0.083620	0.767760
C451	C45	0.772710	0.571880	0.256700
C461	C46	0.894290	0.554790	0.210830
C471	C47	0.967690	0.467220	0.217400
C481	C48	0.080640	0.453120	0.175600
C491	C49	0.123110	0.525470	0.126510
C501	C50	0.049930	0.613540	0.121800
C511	C51	0.935550	0.627600	0.163100
C521	C52	0.247340	0.512770	0.078830
C531	C53	0.301630	0.421830	0.050150
C541	C54	0.271450	0.419600	0.984100
C551	C55	0.312620	0.341130	0.955830
C561	C56	0.383830	0.261170	0.994770
C571	C57	0.415560	0.261250	0.060830
C581	C58	0.375280	0.342320	0.088120
C591	C59	0.426970	0.175690	0.964770
C601	C60	0.307190	0.523000	0.131220
C611	C61	0.376220	0.578260	0.089100
C621	C62	0.426240	0.596620	0.133700
C631	C63	0.409740	0.559140	0.222180
C641	C64	0.344070	0.501510	0.263550
C651	C65	0.291950	0.485430	0.218270
C661	C66	0.463110	0.583620	0.267760
C671	C67	0.601290	0.928120	0.243300
C681	C68	0.659910	0.945210	0.289170
C691	C69	0.652310	0.032780	0.282600
C701	C70	0.709360	0.046880	0.324400
C711	C71	0.775090	0.974530	0.373490
C721	C72	0.785270	0.886460	0.378200
C731	C73	0.726250	0.872400	0.336900
C741	C74	0.838940	0.987230	0.421170
C751	C75	0.773610	0.078170	0.449850
C761	C76	0.675150	0.080400	0.515900
C771	C77	0.609580	0.158870	0.544170
C781	C78	0.639770	0.238830	0.505230
C791	C79	0.737640	0.238750	0.439170
C801	C80	0.805720	0.157680	0.411880
C811	C81	0.567430	0.324310	0.535230
C821	C82	0.961410	0.977000	0.368780
C831	C83	0.043580	0.921740	0.410900
C841	C84	0.156560	0.903380	0.366300
C851	C85	0.191060	0.940860	0.277820
C861	C86	0.109130	0.998490	0.236450
C871	C87	0.995650	0.014570	0.281730
C881	C88	0.314490	0.916380	0.232240
O11	O1	0.291370	0.346080	0.755120
O21	O2	0.259630	0.496090	0.694910
O31	O3	0.531240	0.901370	0.988430
O41	O4	0.581510	0.817980	0.107440
O51	O5	0.523450	0.470790	0.659310
O61	O6	0.507760	0.344970	0.768850
O71	O7	0.392570	0.153920	0.744880
O81	O8	0.450630	0.003910	0.805090
O91	O9	0.421040	0.598630	0.511570
O101	O10	0.506930	0.682020	0.392560
O111	O11	0.653550	0.029210	0.840690
O121	O12	0.621580	0.155030	0.731150
O131	O13	0.708630	0.653920	0.244880
O141	O14	0.740370	0.503910	0.305090
O151	O15	0.468760	0.098630	0.011570
O161	O16	0.418490	0.182020	0.892560
O171	O17	0.476550	0.529210	0.340690
O181	O18	0.492240	0.655030	0.231150
O191	O19	0.607430	0.846080	0.255120
O201	O20	0.549370	0.996090	0.194910
O211	O21	0.578960	0.401370	0.488430
O221	O22	0.493070	0.317980	0.607440
O231	O23	0.346450	0.970790	0.159310
O241	O24	0.378420	0.844970	0.268850
