data_DAWWEF_clean_PM
_symmetry_space_group_name_H-M	'P1'
_cell_length_a	12.587900
_cell_length_b	12.587900
_cell_length_c	25.090000
_cell_angle_alpha	90.000000
_cell_angle_beta	90.000000
_cell_angle_gamma	90.000000
_symmetry_Int_Tables_number 1

loop_
_symmetry_equiv_pos_as_xyz
'x,y,z'

loop_
_atom_site_label
_atom_site_type_symbol
_atom_site_fract_x
_atom_site_fract_y
_atom_site_fract_z
Co11	Co1	0.677180	0.250510	0.875430
Co21	Co2	0.322820	0.749490	0.375430
Co31	Co3	0.249490	0.177180	0.125430
Co41	Co4	0.750510	0.822820	0.625430
Co51	Co5	0.822820	0.750510	0.374570
Co61	Co6	0.177180	0.249490	0.874570
Co71	Co7	0.250510	0.677180	0.124570
Co81	Co8	0.749490	0.322820	0.624570
Co91	Co9	0.430810	0.569190	0.750000
Co101	Co10	0.569190	0.430810	0.250000
Co111	Co11	0.930810	0.930810	0.000000
Co121	Co12	0.069190	0.069190	0.500000
H11	H1	0.453200	0.299100	0.068800
H21	H2	0.495800	0.085300	0.919600
H31	H3	0.373000	0.071000	0.911200
H41	H4	0.280400	0.080200	0.003300
H51	H5	0.546800	0.700900	0.568800
H61	H6	0.504200	0.914700	0.419600
H71	H7	0.627000	0.929000	0.411200
H81	H8	0.719600	0.919800	0.503300
H91	H9	0.200900	0.953200	0.318800
H101	H10	0.414700	0.995800	0.169600
H111	H11	0.429000	0.873000	0.161200
H121	H12	0.419800	0.780400	0.253300
H131	H13	0.799100	0.046800	0.818800
H141	H14	0.585300	0.004200	0.669600
H151	H15	0.571000	0.127000	0.661200
H161	H16	0.580200	0.219600	0.753300
H171	H17	0.046800	0.799100	0.181200
H181	H18	0.004200	0.585300	0.330400
H191	H19	0.127000	0.571000	0.338800
H201	H20	0.219600	0.580200	0.246700
H211	H21	0.953200	0.200900	0.681200
H221	H22	0.995800	0.414700	0.830400
H231	H23	0.873000	0.429000	0.838800
H241	H24	0.780400	0.419800	0.746700
H251	H25	0.299100	0.453200	0.931200
H261	H26	0.085300	0.495800	0.080400
H271	H27	0.071000	0.373000	0.088800
H281	H28	0.080200	0.280400	0.996700
H291	H29	0.700900	0.546800	0.431200
H301	H30	0.914700	0.504200	0.580400
H311	H31	0.929000	0.627000	0.588800
H321	H32	0.919800	0.719600	0.496700
C11	C1	0.565800	0.424400	0.822200
C21	C2	0.480900	0.349300	0.838600
C31	C3	0.427800	0.211500	0.882800
C41	C4	0.288000	0.408800	0.810900
C51	C5	0.372700	0.343800	0.835600
C61	C6	0.427400	0.250000	0.044400
C71	C7	0.427800	0.121500	0.921100
C81	C8	0.332500	0.131100	0.009500
C91	C9	0.434200	0.575600	0.322200
C101	C10	0.519100	0.650700	0.338600
C111	C11	0.572200	0.788500	0.382800
C121	C12	0.712000	0.591200	0.310900
C131	C13	0.627300	0.656200	0.335600
C141	C14	0.572600	0.750000	0.544400
C151	C15	0.572200	0.878500	0.421100
C161	C16	0.667500	0.868900	0.509500
C171	C17	0.075600	0.065800	0.072200
C181	C18	0.150700	0.980900	0.088600
C191	C19	0.288500	0.927800	0.132800
C201	C20	0.091200	0.788000	0.060900
C211	C21	0.156200	0.872700	0.085600
C221	C22	0.250000	0.927400	0.294400
C231	C23	0.378500	0.927800	0.171100
C241	C24	0.368900	0.832500	0.259500
C251	C25	0.924400	0.934200	0.572200
C261	C26	0.849300	0.019100	0.588600
C271	C27	0.711500	0.072200	0.632800
C281	C28	0.908800	0.212000	0.560900
C291	C29	0.843800	0.127300	0.585600
C301	C30	0.750000	0.072600	0.794400
C311	C31	0.621500	0.072200	0.671100
C321	C32	0.631100	0.167500	0.759500
C331	C33	0.934200	0.924400	0.427800
C341	C34	0.019100	0.849300	0.411400
C351	C35	0.072200	0.711500	0.367200
C361	C36	0.212000	0.908800	0.439100
C371	C37	0.127300	0.843800	0.414400
C381	C38	0.072600	0.750000	0.205600
C391	C39	0.072200	0.621500	0.328900
C401	C40	0.167500	0.631100	0.240500
C411	C41	0.065800	0.075600	0.927800
C421	C42	0.980900	0.150700	0.911400
C431	C43	0.927800	0.288500	0.867200
C441	C44	0.788000	0.091200	0.939100
C451	C45	0.872700	0.156200	0.914400
C461	C46	0.927400	0.250000	0.705600
C471	C47	0.927800	0.378500	0.828900
C481	C48	0.832500	0.368900	0.740500
C491	C49	0.424400	0.565800	0.177800
C501	C50	0.349300	0.480900	0.161400
C511	C51	0.211500	0.427800	0.117200
C521	C52	0.408800	0.288000	0.189100
C531	C53	0.343800	0.372700	0.164400
C541	C54	0.250000	0.427400	0.955600
C551	C55	0.121500	0.427800	0.078900
C561	C56	0.131100	0.332500	0.990500
C571	C57	0.575600	0.434200	0.677800
C581	C58	0.650700	0.519100	0.661400
C591	C59	0.788500	0.572200	0.617200
C601	C60	0.591200	0.712000	0.689100
C611	C61	0.656200	0.627300	0.664400
C621	C62	0.750000	0.572600	0.455600
C631	C63	0.878500	0.572200	0.578900
C641	C64	0.868900	0.667500	0.490500
N11	N1	0.338700	0.257700	0.864050
N21	N2	0.514700	0.262800	0.867940
N31	N3	0.342700	0.187800	0.054400
N41	N4	0.408600	0.158800	0.974820
N51	N5	0.471000	0.235600	0.996900
N61	N6	0.661300	0.742300	0.364050
N71	N7	0.485300	0.737200	0.367940
N81	N8	0.657300	0.812200	0.554400
N91	N9	0.591400	0.841200	0.474820
N101	N10	0.529000	0.764400	0.496900
N111	N11	0.242300	0.838700	0.114050
N121	N12	0.237200	0.014700	0.117940
N131	N13	0.312200	0.842700	0.304400
N141	N14	0.341200	0.908600	0.224820
N151	N15	0.264400	0.971000	0.246900
N161	N16	0.757700	0.161300	0.614050
N171	N17	0.762800	0.985300	0.617940
N181	N18	0.687800	0.157300	0.804400
N191	N19	0.658800	0.091400	0.724820
N201	N20	0.735600	0.029000	0.746900
N211	N21	0.161300	0.757700	0.385950
N221	N22	0.985300	0.762800	0.382060
N231	N23	0.157300	0.687800	0.195600
N241	N24	0.091400	0.658800	0.275180
N251	N25	0.029000	0.735600	0.253100
N261	N26	0.838700	0.242300	0.885950
N271	N27	0.014700	0.237200	0.882060
N281	N28	0.842700	0.312200	0.695600
N291	N29	0.908600	0.341200	0.775180
N301	N30	0.971000	0.264400	0.753100
N311	N31	0.257700	0.338700	0.135950
N321	N32	0.262800	0.514700	0.132060
N331	N33	0.187800	0.342700	0.945600
N341	N34	0.158800	0.408600	0.025180
N351	N35	0.235600	0.471000	0.003100
N361	N36	0.742300	0.661300	0.635950
N371	N37	0.737200	0.485300	0.632060
N381	N38	0.812200	0.657300	0.445600
N391	N39	0.841200	0.591400	0.525180
N401	N40	0.764400	0.529000	0.503100
O11	O1	0.660300	0.395400	0.831980
O21	O2	0.193900	0.387400	0.825530
O31	O3	0.545000	0.512800	0.802500
O41	O4	0.308000	0.481700	0.779100
O51	O5	0.339700	0.604600	0.331980
O61	O6	0.806100	0.612600	0.325530
O71	O7	0.455000	0.487200	0.302500
O81	O8	0.692000	0.518300	0.279100
O91	O9	0.104600	0.160300	0.081980
O101	O10	0.112600	0.693900	0.075530
O111	O11	0.987200	0.045000	0.052500
O121	O12	0.018300	0.808000	0.029100
O131	O13	0.895400	0.839700	0.581980
O141	O14	0.887400	0.306100	0.575530
O151	O15	0.012800	0.955000	0.552500
O161	O16	0.981700	0.192000	0.529100
O171	O17	0.839700	0.895400	0.418020
O181	O18	0.306100	0.887400	0.424470
O191	O19	0.955000	0.012800	0.447500
O201	O20	0.192000	0.981700	0.470900
O211	O21	0.160300	0.104600	0.918020
O221	O22	0.693900	0.112600	0.924470
O231	O23	0.045000	0.987200	0.947500
O241	O24	0.808000	0.018300	0.970900
O251	O25	0.395400	0.660300	0.168020
O261	O26	0.387400	0.193900	0.174470
O271	O27	0.512800	0.545000	0.197500
O281	O28	0.481700	0.308000	0.220900
O291	O29	0.604600	0.339700	0.668020
O301	O30	0.612600	0.806100	0.674470
O311	O31	0.487200	0.455000	0.697500
O321	O32	0.518300	0.692000	0.720900
