data_DAXHUH01_clean_PM
_symmetry_space_group_name_H-M	'P1'
_cell_length_a	11.950000
_cell_length_b	12.114000
_cell_length_c	13.668300
_cell_angle_alpha	63.695500
_cell_angle_beta	81.171300
_cell_angle_gamma	69.735900
_symmetry_Int_Tables_number 1

loop_
_symmetry_equiv_pos_as_xyz
'x,y,z'

loop_
_atom_site_label
_atom_site_type_symbol
_atom_site_fract_x
_atom_site_fract_y
_atom_site_fract_z
Fe11	Fe1	0.000000	0.000000	0.000000
Fe21	Fe2	0.739680	0.894780	0.000000
Fe31	Fe3	0.260320	0.105220	0.000000
H11	H1	0.085500	0.087100	0.574800
H21	H2	0.889100	0.867200	0.607000
H31	H3	0.914500	0.338100	0.574800
H41	H4	0.110900	0.525800	0.607000
H51	H5	0.914500	0.912900	0.425200
H61	H6	0.110900	0.132800	0.393000
H71	H7	0.085500	0.661900	0.425200
H81	H8	0.889100	0.474200	0.393000
H91	H9	0.699600	0.467100	0.000000
H101	H10	0.442900	0.339800	0.000000
H111	H11	0.300400	0.532900	0.000000
H121	H12	0.557100	0.660200	0.000000
C11	C1	0.049600	0.052200	0.544800
C21	C2	0.981600	0.977000	0.610000
C31	C3	0.933300	0.922000	0.564000
C41	C4	0.956600	0.960700	0.723000
C51	C5	0.950400	0.403000	0.544800
C61	C6	0.018400	0.413000	0.610000
C71	C7	0.066700	0.514000	0.564000
C81	C8	0.043400	0.316300	0.723000
C91	C9	0.950400	0.947800	0.455200
C101	C10	0.018400	0.023000	0.390000
C111	C11	0.066700	0.078000	0.436000
C121	C12	0.043400	0.039300	0.277000
C131	C13	0.049600	0.597000	0.455200
C141	C14	0.981600	0.587000	0.390000
C151	C15	0.933300	0.486000	0.436000
C161	C16	0.956600	0.683700	0.277000
C171	C17	0.618700	0.477900	0.000000
C181	C18	0.582800	0.383400	0.000000
C191	C19	0.469500	0.403500	0.000000
C201	C20	0.664100	0.263500	0.000000
C211	C21	0.381300	0.522100	0.000000
C221	C22	0.417200	0.616600	0.000000
C231	C23	0.530500	0.596500	0.000000
C241	C24	0.335900	0.736500	0.000000
C251	C25	0.500000	0.031300	0.937400
C261	C26	0.500000	0.968700	0.062600
N11	N1	0.020600	0.980030	0.781940
N21	N2	0.965900	0.958760	0.875880
N31	N3	0.867600	0.930900	0.874200
N41	N4	0.861800	0.928280	0.779040
N51	N5	0.979400	0.238030	0.781940
N61	N6	0.034100	0.165360	0.875880
N71	N7	0.132400	0.194900	0.874200
N81	N8	0.138200	0.292680	0.779040
N91	N9	0.979400	0.019970	0.218060
N101	N10	0.034100	0.041240	0.124120
N111	N11	0.132400	0.069100	0.125800
N121	N12	0.138200	0.071720	0.220960
N131	N13	0.020600	0.761970	0.218060
N141	N14	0.965900	0.834640	0.124120
N151	N15	0.867600	0.805100	0.125800
N161	N16	0.861800	0.707320	0.220960
N171	N17	0.786500	0.231600	0.000000
N181	N18	0.822100	0.116800	0.000000
N191	N19	0.732800	0.079000	0.000000
N201	N20	0.631500	0.170400	0.000000
N211	N21	0.213500	0.768400	0.000000
N221	N22	0.177900	0.883200	0.000000
N231	N23	0.267200	0.921000	0.000000
N241	N24	0.368500	0.829600	0.000000
O11	O1	0.596200	0.005740	0.890920
O21	O2	0.403800	0.103340	0.890920
O31	O3	0.403800	0.994260	0.109080
O41	O4	0.596200	0.896660	0.109080
