data_DEBNUU_clean_PM
_symmetry_space_group_name_H-M	'P1'
_cell_length_a	10.540700
_cell_length_b	7.895100
_cell_length_c	10.327100
_cell_angle_alpha	90.000000
_cell_angle_beta	109.819000
_cell_angle_gamma	90.000000
_symmetry_Int_Tables_number 1

loop_
_symmetry_equiv_pos_as_xyz
'x,y,z'

loop_
_atom_site_label
_atom_site_type_symbol
_atom_site_fract_x
_atom_site_fract_y
_atom_site_fract_z
Al11	Al1	0.319400	0.429800	0.709300
P11	P1	0.246300	0.308500	0.965190
O11	O1	0.106200	0.390400	0.912800
O21	O2	0.302600	0.284700	0.846000
O31	O3	0.346700	0.416900	0.080900
O41	O4	0.263600	0.749000	0.068800
O51	O5	0.052400	0.725800	0.950800
O61	O6	0.137600	0.496800	0.166700
C11	C1	0.235700	0.102600	0.037800
C21	C2	0.159000	0.982700	0.927700
C31	C3	0.158100	0.808700	0.986800
Al21	Al2	0.680600	0.429800	0.790700
P21	P2	0.753700	0.308500	0.534810
O71	O7	0.893800	0.390400	0.587200
O81	O8	0.697400	0.284700	0.654000
O91	O9	0.653300	0.416900	0.419100
O101	O10	0.736400	0.749000	0.431200
O111	O11	0.947600	0.725800	0.549200
O121	O12	0.862400	0.496800	0.333300
C41	C4	0.764300	0.102600	0.462200
C51	C5	0.841000	0.982700	0.572300
C61	C6	0.841900	0.808700	0.513200
Al31	Al3	0.680600	0.570200	0.290700
P31	P3	0.753700	0.691500	0.034810
O131	O13	0.893800	0.609600	0.087200
O141	O14	0.697400	0.715300	0.154000
O151	O15	0.653300	0.583100	0.919100
O161	O16	0.736400	0.251000	0.931200
O171	O17	0.947600	0.274200	0.049200
O181	O18	0.862400	0.503200	0.833300
C71	C7	0.764300	0.897400	0.962200
C81	C8	0.841000	0.017300	0.072300
C91	C9	0.841900	0.191300	0.013200
Al41	Al4	0.319400	0.570200	0.209300
P41	P4	0.246300	0.691500	0.465190
O191	O19	0.106200	0.609600	0.412800
O201	O20	0.302600	0.715300	0.346000
O211	O21	0.346700	0.583100	0.580900
O221	O22	0.263600	0.251000	0.568800
O231	O23	0.052400	0.274200	0.450800
O241	O24	0.137600	0.503200	0.666700
C101	C10	0.235700	0.897400	0.537800
C111	C11	0.159000	0.017300	0.427700
C121	C12	0.158100	0.191300	0.486800
Al51	Al5	0.000000	0.500000	0.000000
Al61	Al6	0.000000	0.500000	0.500000
O251	O25	0.500000	0.352600	0.750000
O261	O26	0.500000	0.647400	0.250000
