data_DEBWAK_clean_PM
_symmetry_space_group_name_H-M	'P1'
_cell_length_a	16.402500
_cell_length_b	16.402500
_cell_length_c	25.470100
_cell_angle_alpha	90.000000
_cell_angle_beta	90.000000
_cell_angle_gamma	120.000000
_symmetry_Int_Tables_number 1

loop_
_symmetry_equiv_pos_as_xyz
'x,y,z'

loop_
_atom_site_label
_atom_site_type_symbol
_atom_site_fract_x
_atom_site_fract_y
_atom_site_fract_z
Zn11	Zn1	0.576280	0.288140	0.833330
Zn21	Zn2	0.711860	0.423720	0.166670
Zn31	Zn3	0.711860	0.288140	0.500000
Zn41	Zn4	0.423720	0.711860	0.833330
Zn51	Zn5	0.288140	0.576280	0.166670
Zn61	Zn6	0.288140	0.711860	0.500000
H11	H1	0.359400	0.414300	0.799200
H21	H2	0.287900	0.459600	0.862500
H31	H3	0.457600	0.358500	0.779500
H41	H4	0.503400	0.331600	0.926400
H51	H5	0.403300	0.386400	0.953600
H61	H6	0.176900	0.469800	0.862500
H71	H7	0.177000	0.463000	0.016600
H81	H8	0.773200	0.172500	0.923200
H91	H9	0.054900	0.640600	0.132530
H101	H10	0.171700	0.712100	0.195830
H111	H11	0.900900	0.542400	0.112830
H121	H12	0.828200	0.496600	0.259730
H131	H13	0.983100	0.596700	0.286930
H141	H14	0.292900	0.823100	0.195830
H151	H15	0.286000	0.823000	0.349930
H161	H16	0.399300	0.226800	0.256530
H171	H17	0.585700	0.945100	0.465870
H181	H18	0.540400	0.828300	0.529170
H191	H19	0.641500	0.099100	0.446170
H201	H20	0.668400	0.171800	0.593070
H211	H21	0.613600	0.016900	0.620270
H221	H22	0.530200	0.707100	0.529170
H231	H23	0.537000	0.714000	0.683270
H241	H24	0.827500	0.600700	0.589870
H251	H25	0.640600	0.585700	0.799200
H261	H26	0.712100	0.540400	0.862500
H271	H27	0.542400	0.641500	0.779500
H281	H28	0.496600	0.668400	0.926400
H291	H29	0.596700	0.613600	0.953600
H301	H30	0.823100	0.530200	0.862500
H311	H31	0.823000	0.537000	0.016600
H321	H32	0.226800	0.827500	0.923200
H331	H33	0.945100	0.359400	0.132530
H341	H34	0.828300	0.287900	0.195830
H351	H35	0.099100	0.457600	0.112830
H361	H36	0.171800	0.503400	0.259730
H371	H37	0.016900	0.403300	0.286930
H381	H38	0.707100	0.176900	0.195830
H391	H39	0.714000	0.177000	0.349930
H401	H40	0.600700	0.773200	0.256530
H411	H41	0.414300	0.054900	0.465870
H421	H42	0.459600	0.171700	0.529170
H431	H43	0.358500	0.900900	0.446170
H441	H44	0.331600	0.828200	0.593070
H451	H45	0.386400	0.983100	0.620270
H461	H46	0.469800	0.292900	0.529170
H471	H47	0.463000	0.286000	0.683270
H481	H48	0.172500	0.399300	0.589870
H491	H49	0.945100	0.585700	0.534130
H501	H50	0.828300	0.540400	0.470830
H511	H51	0.099100	0.641500	0.553830
H521	H52	0.171800	0.668400	0.406930
H531	H53	0.016900	0.613600	0.379730
H541	H54	0.707100	0.530200	0.470830
H551	H55	0.714000	0.537000	0.316730
H561	H56	0.600700	0.827500	0.410130
H571	H57	0.414300	0.359400	0.200800
H581	H58	0.459600	0.287900	0.137500
H591	H59	0.358500	0.457600	0.220500
H601	H60	0.331600	0.503400	0.073600
H611	H61	0.386400	0.403300	0.046400
H621	H62	0.469800	0.176900	0.137500
H631	H63	0.463000	0.177000	0.983400
H641	H64	0.172500	0.773200	0.076800
H651	H65	0.640600	0.054900	0.867470
H661	H66	0.712100	0.171700	0.804170
H671	H67	0.542400	0.900900	0.887170
H681	H68	0.496600	0.828200	0.740270
H691	H69	0.596700	0.983100	0.713070
H701	H70	0.823100	0.292900	0.804170
H711	H71	0.823000	0.286000	0.650070
H721	H72	0.226800	0.399300	0.743470
H731	H73	0.054900	0.414300	0.534130
H741	H74	0.171700	0.459600	0.470830
H751	H75	0.900900	0.358500	0.553830
H761	H76	0.828200	0.331600	0.406930
H771	H77	0.983100	0.386400	0.379730
H781	H78	0.292900	0.469800	0.470830
H791	H79	0.286000	0.463000	0.316730
H801	H80	0.399300	0.172500	0.410130
H811	H81	0.585700	0.640600	0.200800
H821	H82	0.540400	0.712100	0.137500
H831	H83	0.641500	0.542400	0.220500
H841	H84	0.668400	0.496600	0.073600
H851	H85	0.613600	0.596700	0.046400
H861	H86	0.530200	0.823100	0.137500
H871	H87	0.537000	0.823000	0.983400
H881	H88	0.827500	0.226800	0.076800
H891	H89	0.359400	0.945100	0.867470
H901	H90	0.287900	0.828300	0.804170
H911	H91	0.457600	0.099100	0.887170
H921	H92	0.503400	0.171800	0.740270
H931	H93	0.403300	0.016900	0.713070
H941	H94	0.176900	0.707100	0.804170
H951	H95	0.177000	0.714000	0.650070
H961	H96	0.773200	0.600700	0.743470
H971	H97	0.675900	0.324100	0.000000
H981	H98	0.842300	0.157700	0.000000
H991	H99	0.648200	0.324100	0.333330
H1001	H100	0.315400	0.157700	0.333330
H1011	H101	0.675900	0.351800	0.666670
H1021	H102	0.842300	0.684600	0.666670
H1031	H103	0.324100	0.675900	0.000000
H1041	H104	0.157700	0.842300	0.000000
H1051	H105	0.351800	0.675900	0.333330
H1061	H106	0.684600	0.842300	0.333330
H1071	H107	0.324100	0.648200	0.666670
H1081	H108	0.157700	0.315400	0.666670
C11	C1	0.366800	0.406800	0.879100
C21	C2	0.387100	0.397400	0.826800
C31	C3	0.040800	0.492800	0.940700
C41	C4	0.265800	0.438500	0.938800
C51	C5	0.446000	0.364500	0.815400
C61	C6	0.189900	0.461900	0.937600
C71	C7	0.473000	0.348600	0.900500
C81	C8	0.412900	0.381400	0.917200
C91	C9	0.152300	0.474000	0.895500
C101	C10	0.683300	0.263500	0.903600
C111	C11	0.151300	0.469100	0.984400
C121	C12	0.717700	0.249900	0.953100
C131	C13	0.767600	0.200500	0.954600
C141	C14	0.040000	0.633200	0.212430
C151	C15	0.010300	0.612900	0.160130
C161	C16	0.452000	0.959200	0.274030
C171	C17	0.172700	0.734200	0.272130
C181	C18	0.918500	0.554000	0.148730
C191	C19	0.272000	0.810100	0.270930
C201	C20	0.875600	0.527000	0.233830
C211	C21	0.968500	0.587100	0.250530
C221	C22	0.321700	0.847700	0.228830
C231	C23	0.580200	0.316700	0.236930
C241	C24	0.317800	0.848700	0.317730
C251	C25	0.532200	0.282300	0.286430
C261	C26	0.432900	0.232400	0.287930
C271	C27	0.593200	0.960000	0.545770
C281	C28	0.602600	0.989700	0.493470
C291	C29	0.507200	0.548000	0.607370
C301	C30	0.561500	0.827300	0.605470
C311	C31	0.635500	0.081500	0.482070
C321	C32	0.538100	0.728000	0.604270
C331	C33	0.651400	0.124400	0.567170
C341	C34	0.618600	0.031500	0.583870
C351	C35	0.526000	0.678300	0.562170
C361	C36	0.736500	0.419800	0.570270
C371	C37	0.530900	0.682200	0.651070
C381	C38	0.750100	0.467800	0.619770
C391	C39	0.799500	0.567100	0.621270
C401	C40	0.633200	0.593200	0.879100
C411	C41	0.612900	0.602600	0.826800
C421	C42	0.959200	0.507200	0.940700
C431	C43	0.734200	0.561500	0.938800
C441	C44	0.554000	0.635500	0.815400
C451	C45	0.810100	0.538100	0.937600
C461	C46	0.527000	0.651400	0.900500
C471	C47	0.587100	0.618600	0.917200
C481	C48	0.847700	0.526000	0.895500
C491	C49	0.316700	0.736500	0.903600
C501	C50	0.848700	0.530900	0.984400
C511	C51	0.282300	0.750100	0.953100
C521	C52	0.232400	0.799500	0.954600
C531	C53	0.960000	0.366800	0.212430
C541	C54	0.989700	0.387100	0.160130
C551	C55	0.548000	0.040800	0.274030
C561	C56	0.827300	0.265800	0.272130
C571	C57	0.081500	0.446000	0.148730
C581	C58	0.728000	0.189900	0.270930
C591	C59	0.124400	0.473000	0.233830
C601	C60	0.031500	0.412900	0.250530
C611	C61	0.678300	0.152300	0.228830
C621	C62	0.419800	0.683300	0.236930
C631	C63	0.682200	0.151300	0.317730
C641	C64	0.467800	0.717700	0.286430
C651	C65	0.567100	0.767600	0.287930
C661	C66	0.406800	0.040000	0.545770
C671	C67	0.397400	0.010300	0.493470
C681	C68	0.492800	0.452000	0.607370
C691	C69	0.438500	0.172700	0.605470
C701	C70	0.364500	0.918500	0.482070
C711	C71	0.461900	0.272000	0.604270
C721	C72	0.348600	0.875600	0.567170
C731	C73	0.381400	0.968500	0.583870
C741	C74	0.474000	0.321700	0.562170
C751	C75	0.263500	0.580200	0.570270
C761	C76	0.469100	0.317800	0.651070
C771	C77	0.249900	0.532200	0.619770
C781	C78	0.200500	0.432900	0.621270
C791	C79	0.960000	0.593200	0.454230
C801	C80	0.989700	0.602600	0.506530
C811	C81	0.548000	0.507200	0.392630
C821	C82	0.827300	0.561500	0.394530
C831	C83	0.081500	0.635500	0.517930
C841	C84	0.728000	0.538100	0.395730
C851	C85	0.124400	0.651400	0.432830
C861	C86	0.031500	0.618600	0.416130
C871	C87	0.678300	0.526000	0.437830
C881	C88	0.419800	0.736500	0.429730
C891	C89	0.682200	0.530900	0.348930
C901	C90	0.467800	0.750100	0.380230
C911	C91	0.567100	0.799500	0.378730
C921	C92	0.406800	0.366800	0.120900
C931	C93	0.397400	0.387100	0.173200
C941	C94	0.492800	0.040800	0.059300
C951	C95	0.438500	0.265800	0.061200
C961	C96	0.364500	0.446000	0.184600
C971	C97	0.461900	0.189900	0.062400
C981	C98	0.348600	0.473000	0.099500
C991	C99	0.381400	0.412900	0.082800
C1001	C100	0.474000	0.152300	0.104500
C1011	C101	0.263500	0.683300	0.096400
C1021	C102	0.469100	0.151300	0.015600
C1031	C103	0.249900	0.717700	0.046900
C1041	C104	0.200500	0.767600	0.045400
C1051	C105	0.633200	0.040000	0.787570
C1061	C106	0.612900	0.010300	0.839870
C1071	C107	0.959200	0.452000	0.725970
C1081	C108	0.734200	0.172700	0.727870
C1091	C109	0.554000	0.918500	0.851270
C1101	C110	0.810100	0.272000	0.729070
C1111	C111	0.527000	0.875600	0.766170
C1121	C112	0.587100	0.968500	0.749470
C1131	C113	0.847700	0.321700	0.771170
C1141	C114	0.316700	0.580200	0.763070
C1151	C115	0.848700	0.317800	0.682270
C1161	C116	0.282300	0.532200	0.713570
C1171	C117	0.232400	0.432900	0.712070
C1181	C118	0.040000	0.406800	0.454230
C1191	C119	0.010300	0.397400	0.506530
C1201	C120	0.452000	0.492800	0.392630
C1211	C121	0.172700	0.438500	0.394530
C1221	C122	0.918500	0.364500	0.517930
C1231	C123	0.272000	0.461900	0.395730
C1241	C124	0.875600	0.348600	0.432830
C1251	C125	0.968500	0.381400	0.416130
C1261	C126	0.321700	0.474000	0.437830
C1271	C127	0.580200	0.263500	0.429730
C1281	C128	0.317800	0.469100	0.348930
C1291	C129	0.532200	0.249900	0.380230
C1301	C130	0.432900	0.200500	0.378730
C1311	C131	0.593200	0.633200	0.120900
C1321	C132	0.602600	0.612900	0.173200
C1331	C133	0.507200	0.959200	0.059300
C1341	C134	0.561500	0.734200	0.061200
C1351	C135	0.635500	0.554000	0.184600
C1361	C136	0.538100	0.810100	0.062400
C1371	C137	0.651400	0.527000	0.099500
C1381	C138	0.618600	0.587100	0.082800
C1391	C139	0.526000	0.847700	0.104500
C1401	C140	0.736500	0.316700	0.096400
C1411	C141	0.530900	0.848700	0.015600
C1421	C142	0.750100	0.282300	0.046900
C1431	C143	0.799500	0.232400	0.045400
C1441	C144	0.366800	0.960000	0.787570
C1451	C145	0.387100	0.989700	0.839870
C1461	C146	0.040800	0.548000	0.725970
C1471	C147	0.265800	0.827300	0.727870
C1481	C148	0.446000	0.081500	0.851270
C1491	C149	0.189900	0.728000	0.729070
C1501	C150	0.473000	0.124400	0.766170
C1511	C151	0.412900	0.031500	0.749470
C1521	C152	0.152300	0.678300	0.771170
C1531	C153	0.683300	0.419800	0.763070
C1541	C154	0.151300	0.682200	0.682270
C1551	C155	0.717700	0.467800	0.713570
C1561	C156	0.767600	0.567100	0.712070
C1571	C157	0.709350	0.290650	0.000000
C1581	C158	0.808850	0.191150	0.000000
C1591	C159	0.581300	0.290650	0.333330
C1601	C160	0.382300	0.191150	0.333330
C1611	C161	0.709350	0.418700	0.666670
C1621	C162	0.808850	0.617700	0.666670
C1631	C163	0.290650	0.709350	0.000000
C1641	C164	0.191150	0.808850	0.000000
C1651	C165	0.418700	0.709350	0.333330
C1661	C166	0.617700	0.808850	0.333330
C1671	C167	0.290650	0.581300	0.666670
C1681	C168	0.191150	0.382300	0.666670
N11	N1	0.489100	0.340000	0.851600
N21	N2	0.305000	0.437800	0.889300
N31	N3	0.076600	0.493300	0.895500
N41	N4	0.076300	0.484600	0.985400
N51	N5	0.850900	0.510900	0.184930
N61	N6	0.132800	0.695000	0.222630
N71	N7	0.416700	0.923400	0.228830
N81	N8	0.408300	0.923700	0.318730
N91	N9	0.660000	0.149100	0.518270
N101	N10	0.562200	0.867200	0.555970
N111	N11	0.506700	0.583300	0.562170
N121	N12	0.515400	0.591700	0.652070
N131	N13	0.510900	0.660000	0.851600
N141	N14	0.695000	0.562200	0.889300
N151	N15	0.923400	0.506700	0.895500
N161	N16	0.923700	0.515400	0.985400
N171	N17	0.149100	0.489100	0.184930
N181	N18	0.867200	0.305000	0.222630
N191	N19	0.583300	0.076600	0.228830
N201	N20	0.591700	0.076300	0.318730
N211	N21	0.340000	0.850900	0.518270
N221	N22	0.437800	0.132800	0.555970
N231	N23	0.493300	0.416700	0.562170
N241	N24	0.484600	0.408300	0.652070
N251	N25	0.149100	0.660000	0.481730
N261	N26	0.867200	0.562200	0.444030
N271	N27	0.583300	0.506700	0.437830
N281	N28	0.591700	0.515400	0.347930
N291	N29	0.340000	0.489100	0.148400
N301	N30	0.437800	0.305000	0.110700
N311	N31	0.493300	0.076600	0.104500
N321	N32	0.484600	0.076300	0.014600
N331	N33	0.510900	0.850900	0.815070
N341	N34	0.695000	0.132800	0.777370
N351	N35	0.923400	0.416700	0.771170
N361	N36	0.923700	0.408300	0.681270
N371	N37	0.850900	0.340000	0.481730
N381	N38	0.132800	0.437800	0.444030
N391	N39	0.416700	0.493300	0.437830
N401	N40	0.408300	0.484600	0.347930
N411	N41	0.660000	0.510900	0.148400
N421	N42	0.562200	0.695000	0.110700
N431	N43	0.506700	0.923400	0.104500
N441	N44	0.515400	0.923700	0.014600
N451	N45	0.489100	0.149100	0.815070
N461	N46	0.305000	0.867200	0.777370
N471	N47	0.076600	0.583300	0.771170
N481	N48	0.076300	0.591700	0.681270
O11	O1	0.621800	0.291500	0.906300
O21	O2	0.696900	0.236000	0.863200
O31	O3	0.292700	0.419200	0.979600
O41	O4	0.669700	0.378200	0.239630
O51	O5	0.539100	0.303100	0.196530
O61	O6	0.126500	0.707300	0.312930
O71	O7	0.708500	0.330300	0.572970
O81	O8	0.764000	0.460900	0.529870
O91	O9	0.580800	0.873500	0.646270
O101	O10	0.378200	0.708500	0.906300
O111	O11	0.303100	0.764000	0.863200
O121	O12	0.707300	0.580800	0.979600
O131	O13	0.330300	0.621800	0.239630
O141	O14	0.460900	0.696900	0.196530
O151	O15	0.873500	0.292700	0.312930
O161	O16	0.291500	0.669700	0.572970
O171	O17	0.236000	0.539100	0.529870
O181	O18	0.419200	0.126500	0.646270
O191	O19	0.330300	0.708500	0.427030
O201	O20	0.460900	0.764000	0.470130
O211	O21	0.873500	0.580800	0.353730
O221	O22	0.291500	0.621800	0.093700
O231	O23	0.236000	0.696900	0.136800
O241	O24	0.419200	0.292700	0.020400
O251	O25	0.378200	0.669700	0.760370
O261	O26	0.303100	0.539100	0.803470
O271	O27	0.707300	0.126500	0.687070
O281	O28	0.669700	0.291500	0.427030
O291	O29	0.539100	0.236000	0.470130
O301	O30	0.126500	0.419200	0.353730
O311	O31	0.708500	0.378200	0.093700
O321	O32	0.764000	0.303100	0.136800
O331	O33	0.580800	0.707300	0.020400
O341	O34	0.621800	0.330300	0.760370
O351	O35	0.696900	0.460900	0.803470
O361	O36	0.292700	0.873500	0.687070
