data_DEHBIC_clean_PM
_symmetry_space_group_name_H-M	'P1'
_cell_length_a	6.026000
_cell_length_b	7.450000
_cell_length_c	13.287000
_cell_angle_alpha	102.740000
_cell_angle_beta	101.460000
_cell_angle_gamma	90.720000
_symmetry_Int_Tables_number 1

loop_
_symmetry_equiv_pos_as_xyz
'x,y,z'

loop_
_atom_site_label
_atom_site_type_symbol
_atom_site_fract_x
_atom_site_fract_y
_atom_site_fract_z
Gd11	Gd1	0.500090	0.509940	0.500020
Gd21	Gd2	0.464330	0.872690	0.140010
H11	H1	0.836200	0.793900	0.863200
H21	H2	0.126800	0.727200	0.763500
H31	H3	0.996400	0.374100	0.255600
H41	H4	0.014400	0.414300	0.090900
H51	H5	0.927200	0.091800	0.550200
H61	H6	0.961900	0.938900	0.384700
H71	H7	0.787400	0.619100	0.951700
H81	H8	0.247800	0.469000	0.741900
H91	H9	0.284000	0.660000	0.333000
H101	H10	0.320000	0.465000	0.073000
H111	H11	0.590000	0.165000	0.561000
H121	H12	0.700000	0.168000	0.317000
C11	C1	0.708000	0.612000	0.723400
C21	C2	0.862500	0.666300	0.831300
C31	C3	0.110400	0.659600	0.817300
C41	C4	0.268400	0.755400	0.921100
C51	C5	0.325100	0.302600	0.249400
C61	C6	0.136800	0.439400	0.253200
C71	C7	0.100100	0.510300	0.148800
C81	C8	0.971100	0.688200	0.156400
C91	C9	0.987900	0.317700	0.490500
C101	C10	0.850200	0.146000	0.492700
C111	C11	0.820100	0.001300	0.386600
C121	C12	0.634200	0.859600	0.386900
O11	O1	0.559800	0.477400	0.698500
O21	O2	0.731300	0.708900	0.660300
O31	O3	0.832400	0.556300	0.901600
O41	O4	0.156600	0.474100	0.780600
O51	O5	0.437000	0.673900	0.959800
O61	O6	0.225900	0.910000	0.968800
O71	O7	0.300100	0.165600	0.174700
O81	O8	0.493300	0.341500	0.326800
O91	O9	0.196500	0.586300	0.346100
O101	O10	0.315400	0.546400	0.126300
O111	O11	0.077800	0.829900	0.150300
O121	O12	0.766300	0.677100	0.162100
O131	O13	0.889400	0.461300	0.492600
O141	O14	0.194200	0.298800	0.489100
O151	O15	0.632100	0.202600	0.511600
O161	O16	0.763200	0.072700	0.296000
O171	O17	0.461400	0.833900	0.312300
O181	O18	0.663300	0.772200	0.461100
