data_DEJCEB_clean_PM
_symmetry_space_group_name_H-M	'P1'
_cell_length_a	14.040000
_cell_length_b	14.345000
_cell_length_c	27.756000
_cell_angle_alpha	90.000000
_cell_angle_beta	90.000000
_cell_angle_gamma	90.000000
_symmetry_Int_Tables_number 1

loop_
_symmetry_equiv_pos_as_xyz
'x,y,z'

loop_
_atom_site_label
_atom_site_type_symbol
_atom_site_fract_x
_atom_site_fract_y
_atom_site_fract_z
Zn11	Zn1	0.713720	0.591160	0.402210
Zn21	Zn2	0.712610	0.989230	0.652790
Zn31	Zn3	0.786280	0.408840	0.902210
Zn41	Zn4	0.787390	0.010770	0.152790
Zn51	Zn5	0.286280	0.091160	0.097790
Zn61	Zn6	0.287390	0.489230	0.847210
Zn71	Zn7	0.213720	0.908840	0.597790
Zn81	Zn8	0.212610	0.510770	0.347210
Zn91	Zn9	0.286280	0.408840	0.597790
Zn101	Zn10	0.287390	0.010770	0.347210
Zn111	Zn11	0.213720	0.591160	0.097790
Zn121	Zn12	0.212610	0.989230	0.847210
Zn131	Zn13	0.713720	0.908840	0.902210
Zn141	Zn14	0.712610	0.510770	0.152790
Zn151	Zn15	0.786280	0.091160	0.402210
Zn161	Zn16	0.787390	0.489230	0.652790
H11	H1	0.696900	0.975400	0.543400
H21	H2	0.699800	0.860200	0.485200
H31	H3	0.704100	0.786300	0.646300
H41	H4	0.268700	0.522900	0.242500
H51	H5	0.402700	0.541200	0.196600
H61	H6	0.420300	0.551400	0.362500
H71	H7	0.762800	0.401700	0.363000
H81	H8	0.881800	0.294800	0.363300
H91	H9	0.027600	0.332100	0.400000
H101	H10	0.042200	0.474700	0.440600
H111	H11	0.915200	0.577600	0.438300
H121	H12	0.803100	0.024600	0.043400
H131	H13	0.800200	0.139800	0.985200
H141	H14	0.795900	0.213700	0.146300
H151	H15	0.231300	0.477100	0.742500
H161	H16	0.097300	0.458800	0.696600
H171	H17	0.079700	0.448600	0.862500
H181	H18	0.737200	0.598300	0.863000
H191	H19	0.618200	0.705200	0.863300
H201	H20	0.472400	0.667900	0.900000
H211	H21	0.457800	0.525300	0.940600
H221	H22	0.584800	0.422400	0.938300
H231	H23	0.303100	0.475400	0.956600
H241	H24	0.300200	0.360200	0.014800
H251	H25	0.295900	0.286300	0.853700
H261	H26	0.731300	0.022900	0.257500
H271	H27	0.597300	0.041200	0.303400
H281	H28	0.579700	0.051400	0.137500
H291	H29	0.237200	0.901700	0.137000
H301	H30	0.118200	0.794800	0.136700
H311	H31	0.972400	0.832100	0.100000
H321	H32	0.957800	0.974700	0.059400
H331	H33	0.084800	0.077600	0.061700
H341	H34	0.196900	0.524600	0.456600
H351	H35	0.199800	0.639800	0.514800
H361	H36	0.204100	0.713700	0.353700
H371	H37	0.768700	0.977100	0.757500
H381	H38	0.902700	0.958800	0.803400
H391	H39	0.920300	0.948600	0.637500
H401	H40	0.262800	0.098300	0.637000
H411	H41	0.381800	0.205200	0.636700
H421	H42	0.527600	0.167900	0.600000
H431	H43	0.542200	0.025300	0.559400
H441	H44	0.415200	0.922400	0.561700
H451	H45	0.303100	0.024600	0.456600
H461	H46	0.300200	0.139800	0.514800
H471	H47	0.295900	0.213700	0.353700
H481	H48	0.731300	0.477100	0.757500
H491	H49	0.597300	0.458800	0.803400
H501	H50	0.579700	0.448600	0.637500
H511	H51	0.237200	0.598300	0.637000
H521	H52	0.118200	0.705200	0.636700
H531	H53	0.972400	0.667900	0.600000
H541	H54	0.957800	0.525300	0.559400
H551	H55	0.084800	0.422400	0.561700
H561	H56	0.196900	0.975400	0.956600
H571	H57	0.199800	0.860200	0.014800
H581	H58	0.204100	0.786300	0.853700
H591	H59	0.768700	0.522900	0.257500
H601	H60	0.902700	0.541200	0.303400
H611	H61	0.920300	0.551400	0.137500
H621	H62	0.262800	0.401700	0.137000
H631	H63	0.381800	0.294800	0.136700
H641	H64	0.527600	0.332100	0.100000
H651	H65	0.542200	0.474700	0.059400
H661	H66	0.415200	0.577600	0.061700
H671	H67	0.696900	0.524600	0.043400
H681	H68	0.699800	0.639800	0.985200
H691	H69	0.704100	0.713700	0.146300
H701	H70	0.268700	0.977100	0.742500
H711	H71	0.402700	0.958800	0.696600
H721	H72	0.420300	0.948600	0.862500
H731	H73	0.762800	0.098300	0.863000
H741	H74	0.881800	0.205200	0.863300
H751	H75	0.027600	0.167900	0.900000
H761	H76	0.042200	0.025300	0.940600
H771	H77	0.915200	0.922400	0.938300
H781	H78	0.803100	0.475400	0.543400
H791	H79	0.800200	0.360200	0.485200
H801	H80	0.795900	0.286300	0.646300
H811	H81	0.231300	0.022900	0.242500
H821	H82	0.097300	0.041200	0.196600
H831	H83	0.079700	0.051400	0.362500
H841	H84	0.737200	0.901700	0.363000
H851	H85	0.618200	0.794800	0.363300
H861	H86	0.472400	0.832100	0.400000
H871	H87	0.457800	0.974700	0.440600
H881	H88	0.584800	0.077600	0.438300
C11	C1	0.701200	0.912000	0.553000
C21	C2	0.704800	0.843900	0.518300
C31	C3	0.715900	0.750300	0.531600
C41	C4	0.713600	0.730000	0.580200
C51	C5	0.706700	0.801400	0.613000
C61	C6	0.736100	0.675800	0.494500
C71	C7	0.718900	0.630900	0.598800
C81	C8	0.328200	0.532400	0.258100
C91	C9	0.407400	0.542800	0.230700
C101	C10	0.496200	0.555800	0.252700
C111	C11	0.498800	0.560200	0.302600
C121	C12	0.417200	0.549200	0.328400
C131	C13	0.583000	0.573300	0.221100
C141	C14	0.591300	0.567400	0.329700
C151	C15	0.820800	0.416800	0.378800
C161	C16	0.890600	0.353500	0.378500
C171	C17	0.976000	0.374900	0.400800
C181	C18	0.985200	0.458800	0.424000
C191	C19	0.909200	0.519200	0.422500
C201	C20	0.798800	0.088000	0.053000
C211	C21	0.795200	0.156100	0.018300
C221	C22	0.784100	0.249700	0.031600
C231	C23	0.786400	0.270000	0.080200
C241	C24	0.793300	0.198600	0.113000
C251	C25	0.763900	0.324200	0.994500
C261	C26	0.781100	0.369100	0.098800
C271	C27	0.171800	0.467600	0.758100
C281	C28	0.092600	0.457200	0.730700
C291	C29	0.003800	0.444200	0.752700
C301	C30	0.001200	0.439800	0.802600
C311	C31	0.082800	0.450800	0.828400
C321	C32	0.917000	0.426700	0.721100
C331	C33	0.908700	0.432600	0.829700
C341	C34	0.679200	0.583200	0.878800
C351	C35	0.609400	0.646500	0.878500
C361	C36	0.524000	0.625100	0.900800
C371	C37	0.514800	0.541200	0.924000
C381	C38	0.590800	0.480800	0.922500
C391	C39	0.298800	0.412000	0.947000
C401	C40	0.295200	0.343900	0.981700
C411	C41	0.284100	0.250300	0.968400
C421	C42	0.286400	0.230000	0.919800
C431	C43	0.293300	0.301400	0.887000
C441	C44	0.263900	0.175800	0.005500
C451	C45	0.281100	0.130900	0.901200
C461	C46	0.671800	0.032400	0.241900
C471	C47	0.592600	0.042800	0.269300
C481	C48	0.503800	0.055800	0.247300
C491	C49	0.501200	0.060200	0.197400
C501	C50	0.582800	0.049200	0.171600
C511	C51	0.417000	0.073300	0.278900
C521	C52	0.408700	0.067400	0.170300
C531	C53	0.179200	0.916800	0.121200
C541	C54	0.109400	0.853500	0.121500
C551	C55	0.024000	0.874900	0.099200
C561	C56	0.014800	0.958800	0.076000
C571	C57	0.090800	0.019200	0.077500
C581	C58	0.201200	0.588000	0.447000
C591	C59	0.204800	0.656100	0.481700
C601	C60	0.215900	0.749700	0.468400
C611	C61	0.213600	0.770000	0.419800
C621	C62	0.206700	0.698600	0.387000
C631	C63	0.236100	0.824200	0.505500
C641	C64	0.218900	0.869100	0.401200
C651	C65	0.828200	0.967600	0.741900
C661	C66	0.907400	0.957200	0.769300
C671	C67	0.996200	0.944200	0.747300
C681	C68	0.998800	0.939800	0.697400
C691	C69	0.917200	0.950800	0.671600
C701	C70	0.083000	0.926700	0.778900
C711	C71	0.091300	0.932600	0.670300
C721	C72	0.320800	0.083200	0.621200
C731	C73	0.390600	0.146500	0.621500
C741	C74	0.476000	0.125100	0.599200
C751	C75	0.485200	0.041200	0.576000
C761	C76	0.409200	0.980800	0.577500
C771	C77	0.298800	0.088000	0.447000
C781	C78	0.295200	0.156100	0.481700
C791	C79	0.284100	0.249700	0.468400
C801	C80	0.286400	0.270000	0.419800
C811	C81	0.293300	0.198600	0.387000
C821	C82	0.263900	0.324200	0.505500
C831	C83	0.281100	0.369100	0.401200
C841	C84	0.671800	0.467600	0.741900
C851	C85	0.592600	0.457200	0.769300
C861	C86	0.503800	0.444200	0.747300
C871	C87	0.501200	0.439800	0.697400
C881	C88	0.582800	0.450800	0.671600
C891	C89	0.417000	0.426700	0.778900
C901	C90	0.408700	0.432600	0.670300
C911	C91	0.179200	0.583200	0.621200
C921	C92	0.109400	0.646500	0.621500
C931	C93	0.024000	0.625100	0.599200
C941	C94	0.014800	0.541200	0.576000
C951	C95	0.090800	0.480800	0.577500
C961	C96	0.201200	0.912000	0.947000
C971	C97	0.204800	0.843900	0.981700
C981	C98	0.215900	0.750300	0.968400
C991	C99	0.213600	0.730000	0.919800
C1001	C100	0.206700	0.801400	0.887000
C1011	C101	0.236100	0.675800	0.005500
C1021	C102	0.218900	0.630900	0.901200
C1031	C103	0.828200	0.532400	0.241900
C1041	C104	0.907400	0.542800	0.269300
C1051	C105	0.996200	0.555800	0.247300
C1061	C106	0.998800	0.560200	0.197400
C1071	C107	0.917200	0.549200	0.171600
C1081	C108	0.083000	0.573300	0.278900
C1091	C109	0.091300	0.567400	0.170300
C1101	C110	0.320800	0.416800	0.121200
C1111	C111	0.390600	0.353500	0.121500
C1121	C112	0.476000	0.374900	0.099200
C1131	C113	0.485200	0.458800	0.076000
C1141	C114	0.409200	0.519200	0.077500
C1151	C115	0.701200	0.588000	0.053000
C1161	C116	0.704800	0.656100	0.018300
C1171	C117	0.715900	0.749700	0.031600
C1181	C118	0.713600	0.770000	0.080200
C1191	C119	0.706700	0.698600	0.113000
C1201	C120	0.736100	0.824200	0.994500
C1211	C121	0.718900	0.869100	0.098800
C1221	C122	0.328200	0.967600	0.758100
C1231	C123	0.407400	0.957200	0.730700
C1241	C124	0.496200	0.944200	0.752700
C1251	C125	0.498800	0.939800	0.802600
C1261	C126	0.417200	0.950800	0.828400
C1271	C127	0.583000	0.926700	0.721100
C1281	C128	0.591300	0.932600	0.829700
C1291	C129	0.820800	0.083200	0.878800
C1301	C130	0.890600	0.146500	0.878500
C1311	C131	0.976000	0.125100	0.900800
C1321	C132	0.985200	0.041200	0.924000
C1331	C133	0.909200	0.980800	0.922500
C1341	C134	0.798800	0.412000	0.553000
C1351	C135	0.795200	0.343900	0.518300
C1361	C136	0.784100	0.250300	0.531600
C1371	C137	0.786400	0.230000	0.580200
C1381	C138	0.793300	0.301400	0.613000
C1391	C139	0.763900	0.175800	0.494500
C1401	C140	0.781100	0.130900	0.598800
C1411	C141	0.171800	0.032400	0.258100
C1421	C142	0.092600	0.042800	0.230700
C1431	C143	0.003800	0.055800	0.252700
C1441	C144	0.001200	0.060200	0.302600
C1451	C145	0.082800	0.049200	0.328400
C1461	C146	0.917000	0.073300	0.221100
C1471	C147	0.908700	0.067400	0.329700
C1481	C148	0.679200	0.916800	0.378800
C1491	C149	0.609400	0.853500	0.378500
C1501	C150	0.524000	0.874900	0.400800
C1511	C151	0.514800	0.958800	0.424000
C1521	C152	0.590800	0.019200	0.422500
N11	N1	0.703400	0.891000	0.600200
N21	N2	0.330500	0.535100	0.306700
N31	N3	0.828000	0.500500	0.400200
N41	N4	0.796600	0.109000	0.100200
N51	N5	0.169500	0.464900	0.806700
N61	N6	0.672000	0.499500	0.900200
N71	N7	0.296600	0.391000	0.899800
N81	N8	0.669500	0.035100	0.193300
N91	N9	0.172000	0.000500	0.099800
N101	N10	0.203400	0.609000	0.399800
N111	N11	0.830500	0.964900	0.693300
N121	N12	0.328000	0.999500	0.599800
N131	N13	0.296600	0.109000	0.399800
N141	N14	0.669500	0.464900	0.693300
N151	N15	0.172000	0.499500	0.599800
N161	N16	0.203400	0.891000	0.899800
N171	N17	0.830500	0.535100	0.193300
N181	N18	0.328000	0.500500	0.099800
N191	N19	0.703400	0.609000	0.100200
N201	N20	0.330500	0.964900	0.806700
N211	N21	0.828000	0.999500	0.900200
N221	N22	0.796600	0.391000	0.600200
N231	N23	0.169500	0.035100	0.306700
N241	N24	0.672000	0.000500	0.400200
O11	O1	0.690000	0.680900	0.455100
O21	O2	0.800600	0.619500	0.504800
O31	O3	0.786000	0.616100	0.629000
O41	O4	0.658800	0.573800	0.585600
O51	O5	0.600700	0.503300	0.193200
O61	O6	0.629300	0.644000	0.225300
O71	O7	0.658300	0.515800	0.316300
O81	O8	0.595800	0.621000	0.364900
O91	O9	0.810000	0.319100	0.955100
O101	O10	0.699400	0.380500	0.004800
O111	O11	0.714000	0.383900	0.129000
O121	O12	0.841200	0.426200	0.085600
O131	O13	0.899300	0.496700	0.693200
O141	O14	0.870700	0.356000	0.725300
O151	O15	0.841700	0.484200	0.816300
O161	O16	0.904200	0.379000	0.864900
O171	O17	0.310000	0.180900	0.044900
O181	O18	0.199400	0.119500	0.995200
O191	O19	0.214000	0.116100	0.871000
O201	O20	0.341200	0.073800	0.914400
O211	O21	0.399300	0.003300	0.306800
O221	O22	0.370700	0.144000	0.274700
O231	O23	0.341700	0.015800	0.183700
O241	O24	0.404200	0.121000	0.135100
O251	O25	0.190000	0.819100	0.544900
O261	O26	0.300600	0.880500	0.495200
O271	O27	0.286000	0.883900	0.371000
O281	O28	0.158800	0.926200	0.414400
O291	O29	0.100700	0.996700	0.806800
O301	O30	0.129300	0.856000	0.774700
O311	O31	0.158300	0.984200	0.683700
O321	O32	0.095800	0.879000	0.635100
O331	O33	0.310000	0.319100	0.544900
O341	O34	0.199400	0.380500	0.495200
O351	O35	0.214000	0.383900	0.371000
O361	O36	0.341200	0.426200	0.414400
O371	O37	0.399300	0.496700	0.806800
O381	O38	0.370700	0.356000	0.774700
O391	O39	0.341700	0.484200	0.683700
O401	O40	0.404200	0.379000	0.635100
O411	O41	0.190000	0.680900	0.044900
O421	O42	0.300600	0.619500	0.995200
O431	O43	0.286000	0.616100	0.871000
O441	O44	0.158800	0.573800	0.914400
O451	O45	0.100700	0.503300	0.306800
O461	O46	0.129300	0.644000	0.274700
O471	O47	0.158300	0.515800	0.183700
O481	O48	0.095800	0.621000	0.135100
O491	O49	0.690000	0.819100	0.955100
O501	O50	0.800600	0.880500	0.004800
O511	O51	0.786000	0.883900	0.129000
O521	O52	0.658800	0.926200	0.085600
O531	O53	0.600700	0.996700	0.693200
O541	O54	0.629300	0.856000	0.725300
O551	O55	0.658300	0.984200	0.816300
O561	O56	0.595800	0.879000	0.864900
O571	O57	0.810000	0.180900	0.455100
O581	O58	0.699400	0.119500	0.504800
O591	O59	0.714000	0.116100	0.629000
O601	O60	0.841200	0.073800	0.585600
O611	O61	0.899300	0.003300	0.193200
O621	O62	0.870700	0.144000	0.225300
O631	O63	0.841700	0.015800	0.316300
O641	O64	0.904200	0.121000	0.364900
