data_DEJCIF_clean_PM
_symmetry_space_group_name_H-M	'P1'
_cell_length_a	7.336100
_cell_length_b	10.749600
_cell_length_c	14.028000
_cell_angle_alpha	90.000000
_cell_angle_beta	90.778000
_cell_angle_gamma	90.000000
_symmetry_Int_Tables_number 1

loop_
_symmetry_equiv_pos_as_xyz
'x,y,z'

loop_
_atom_site_label
_atom_site_type_symbol
_atom_site_fract_x
_atom_site_fract_y
_atom_site_fract_z
Cu11	Cu1	0.911070	0.907900	0.880130
Cu21	Cu2	0.088930	0.407900	0.619870
Cu31	Cu3	0.088930	0.092100	0.119870
Cu41	Cu4	0.911070	0.592100	0.380130
H11	H1	0.368900	0.753000	0.811200
H21	H2	0.465600	0.454200	0.581300
H31	H3	0.129900	0.634200	0.750400
H41	H4	0.631100	0.253000	0.688800
H51	H5	0.534400	0.954200	0.918700
H61	H6	0.870100	0.134200	0.749600
H71	H7	0.631100	0.247000	0.188800
H81	H8	0.534400	0.545800	0.418700
H91	H9	0.870100	0.365800	0.249600
H101	H10	0.368900	0.747000	0.311200
H111	H11	0.465600	0.045800	0.081300
H121	H12	0.129900	0.865800	0.250400
C11	C1	0.724200	0.753800	0.766700
C21	C2	0.567900	0.674000	0.731000
C31	C3	0.593700	0.586500	0.659400
C41	C4	0.391800	0.691700	0.764000
C51	C5	0.446700	0.515900	0.628600
C61	C6	0.774600	0.559100	0.613600
C71	C7	0.250000	0.620000	0.728200
C81	C8	0.275800	0.253800	0.733300
C91	C9	0.432100	0.174000	0.769000
C101	C10	0.406300	0.086500	0.840600
C111	C11	0.608200	0.191700	0.736000
C121	C12	0.553300	0.015900	0.871400
C131	C13	0.225400	0.059100	0.886400
C141	C14	0.750000	0.120000	0.771800
C151	C15	0.275800	0.246200	0.233300
C161	C16	0.432100	0.326000	0.269000
C171	C17	0.406300	0.413500	0.340600
C181	C18	0.608200	0.308300	0.236000
C191	C19	0.553300	0.484100	0.371400
C201	C20	0.225400	0.440900	0.386400
C211	C21	0.750000	0.380000	0.271800
C221	C22	0.724200	0.746200	0.266700
C231	C23	0.567900	0.826000	0.231000
C241	C24	0.593700	0.913500	0.159400
C251	C25	0.391800	0.808300	0.264000
C261	C26	0.446700	0.984100	0.128600
C271	C27	0.774600	0.940900	0.113600
C281	C28	0.250000	0.880000	0.228200
N11	N1	0.277800	0.531100	0.663100
N21	N2	0.722200	0.031100	0.836900
N31	N3	0.722200	0.468900	0.336900
N41	N4	0.277800	0.968900	0.163100
O11	O1	0.731900	0.770400	0.857000
O21	O2	0.788600	0.578100	0.527620
O31	O3	0.894200	0.512000	0.668970
O41	O4	0.828800	0.797800	0.708200
O51	O5	0.268100	0.270400	0.643000
O61	O6	0.211400	0.078100	0.972380
O71	O7	0.105800	0.012000	0.831030
O81	O8	0.171200	0.297800	0.791800
O91	O9	0.268100	0.229600	0.143000
O101	O10	0.211400	0.421900	0.472380
O111	O11	0.105800	0.488000	0.331030
O121	O12	0.171200	0.202200	0.291800
O131	O13	0.731900	0.729600	0.357000
O141	O14	0.788600	0.921900	0.027620
O151	O15	0.894200	0.988000	0.168970
O161	O16	0.828800	0.702200	0.208200
