data_DEJJIN_clean_PM
_symmetry_space_group_name_H-M	'P1'
_cell_length_a	18.778900
_cell_length_b	17.827000
_cell_length_c	14.360300
_cell_angle_alpha	90.000000
_cell_angle_beta	93.827000
_cell_angle_gamma	90.000000
_symmetry_Int_Tables_number 1

loop_
_symmetry_equiv_pos_as_xyz
'x,y,z'

loop_
_atom_site_label
_atom_site_type_symbol
_atom_site_fract_x
_atom_site_fract_y
_atom_site_fract_z
Zn11	Zn1	0.407180	0.088950	0.842310
O11	O1	0.560830	0.081740	0.922000
O21	O2	0.480270	0.166860	0.872500
O31	O3	0.816460	0.359150	0.845300
O41	O4	0.774160	0.413080	0.971600
O51	O5	0.586000	0.125100	0.727100
O61	O6	0.683600	0.167500	0.681600
O71	O7	0.425100	0.063050	0.713900
O81	O8	0.509500	0.184000	0.601000
O91	O9	0.405800	0.157000	0.567000
N11	N1	0.637300	0.166200	0.737600
N21	N2	0.470600	0.142800	0.573900
C11	C1	0.600500	0.205300	0.893300
C21	C2	0.647800	0.211200	0.823800
C31	C3	0.702900	0.263300	0.826700
H11	H1	0.734800	0.265200	0.778100
C41	C4	0.710800	0.311900	0.900700
C51	C5	0.664200	0.307100	0.970500
H21	H2	0.669100	0.340700	0.021900
C61	C6	0.610000	0.254000	0.966900
H31	H3	0.579000	0.251300	0.016500
C71	C7	0.543300	0.146000	0.894800
C81	C8	0.771700	0.366700	0.906700
C91	C9	0.483700	0.067100	0.541400
Zn21	Zn2	0.907180	0.588950	0.842310
O101	O10	0.060830	0.581740	0.922000
O111	O11	0.980270	0.666860	0.872500
O121	O12	0.316460	0.859150	0.845300
O131	O13	0.274160	0.913080	0.971600
O141	O14	0.086000	0.625100	0.727100
O151	O15	0.183600	0.667500	0.681600
O161	O16	0.925100	0.563050	0.713900
O171	O17	0.009500	0.684000	0.601000
O181	O18	0.905800	0.657000	0.567000
N31	N3	0.137300	0.666200	0.737600
N41	N4	0.970600	0.642800	0.573900
C101	C10	0.100500	0.705300	0.893300
C111	C11	0.147800	0.711200	0.823800
C121	C12	0.202900	0.763300	0.826700
H41	H4	0.234800	0.765200	0.778100
C131	C13	0.210800	0.811900	0.900700
C141	C14	0.164200	0.807100	0.970500
H51	H5	0.169100	0.840700	0.021900
C151	C15	0.110000	0.754000	0.966900
H61	H6	0.079000	0.751300	0.016500
C161	C16	0.043300	0.646000	0.894800
C171	C17	0.271700	0.866700	0.906700
C181	C18	0.983700	0.567100	0.541400
Zn31	Zn3	0.592820	0.088950	0.157690
O191	O19	0.439170	0.081740	0.078000
O201	O20	0.519730	0.166860	0.127500
O211	O21	0.183540	0.359150	0.154700
O221	O22	0.225840	0.413080	0.028400
O231	O23	0.414000	0.125100	0.272900
O241	O24	0.316400	0.167500	0.318400
O251	O25	0.574900	0.063050	0.286100
O261	O26	0.490500	0.184000	0.399000
O271	O27	0.594200	0.157000	0.433000
N51	N5	0.362700	0.166200	0.262400
N61	N6	0.529400	0.142800	0.426100
C191	C19	0.399500	0.205300	0.106700
C201	C20	0.352200	0.211200	0.176200
C211	C21	0.297100	0.263300	0.173300
H71	H7	0.265200	0.265200	0.221900
C221	C22	0.289200	0.311900	0.099300
C231	C23	0.335800	0.307100	0.029500
H81	H8	0.330900	0.340700	0.978100
C241	C24	0.390000	0.254000	0.033100
H91	H9	0.421000	0.251300	0.983500
C251	C25	0.456700	0.146000	0.105200
C261	C26	0.228300	0.366700	0.093300
C271	C27	0.516300	0.067100	0.458600
Zn41	Zn4	0.092820	0.588950	0.157690
O281	O28	0.939170	0.581740	0.078000
O291	O29	0.019730	0.666860	0.127500
O301	O30	0.683540	0.859150	0.154700
O311	O31	0.725840	0.913080	0.028400
O321	O32	0.914000	0.625100	0.272900
O331	O33	0.816400	0.667500	0.318400
O341	O34	0.074900	0.563050	0.286100
O351	O35	0.990500	0.684000	0.399000
O361	O36	0.094200	0.657000	0.433000
N71	N7	0.862700	0.666200	0.262400
N81	N8	0.029400	0.642800	0.426100
C281	C28	0.899500	0.705300	0.106700
C291	C29	0.852200	0.711200	0.176200
C301	C30	0.797100	0.763300	0.173300
H101	H10	0.765200	0.765200	0.221900
C311	C31	0.789200	0.811900	0.099300
C321	C32	0.835800	0.807100	0.029500
H111	H11	0.830900	0.840700	0.978100
C331	C33	0.890000	0.754000	0.033100
H121	H12	0.921000	0.751300	0.983500
C341	C34	0.956700	0.646000	0.105200
C351	C35	0.728300	0.866700	0.093300
C361	C36	0.016300	0.567100	0.458600
Zn51	Zn5	0.592820	0.911050	0.157690
O371	O37	0.439170	0.918260	0.078000
O381	O38	0.519730	0.833140	0.127500
O391	O39	0.183540	0.640850	0.154700
O401	O40	0.225840	0.586920	0.028400
O411	O41	0.414000	0.874900	0.272900
O421	O42	0.316400	0.832500	0.318400
O431	O43	0.574900	0.936950	0.286100
O441	O44	0.490500	0.816000	0.399000
O451	O45	0.594200	0.843000	0.433000
N91	N9	0.362700	0.833800	0.262400
N101	N10	0.529400	0.857200	0.426100
C371	C37	0.399500	0.794700	0.106700
C381	C38	0.352200	0.788800	0.176200
C391	C39	0.297100	0.736700	0.173300
H131	H13	0.265200	0.734800	0.221900
C401	C40	0.289200	0.688100	0.099300
C411	C41	0.335800	0.692900	0.029500
H141	H14	0.330900	0.659300	0.978100
C421	C42	0.390000	0.746000	0.033100
H151	H15	0.421000	0.748700	0.983500
C431	C43	0.456700	0.854000	0.105200
C441	C44	0.228300	0.633300	0.093300
C451	C45	0.516300	0.932900	0.458600
Zn61	Zn6	0.092820	0.411050	0.157690
O461	O46	0.939170	0.418260	0.078000
O471	O47	0.019730	0.333140	0.127500
O481	O48	0.683540	0.140850	0.154700
O491	O49	0.725840	0.086920	0.028400
O501	O50	0.914000	0.374900	0.272900
O511	O51	0.816400	0.332500	0.318400
O521	O52	0.074900	0.436950	0.286100
O531	O53	0.990500	0.316000	0.399000
O541	O54	0.094200	0.343000	0.433000
N111	N11	0.862700	0.333800	0.262400
N121	N12	0.029400	0.357200	0.426100
C461	C46	0.899500	0.294700	0.106700
C471	C47	0.852200	0.288800	0.176200
C481	C48	0.797100	0.236700	0.173300
H161	H16	0.765200	0.234800	0.221900
C491	C49	0.789200	0.188100	0.099300
C501	C50	0.835800	0.192900	0.029500
H171	H17	0.830900	0.159300	0.978100
C511	C51	0.890000	0.246000	0.033100
H181	H18	0.921000	0.248700	0.983500
C521	C52	0.956700	0.354000	0.105200
C531	C53	0.728300	0.133300	0.093300
C541	C54	0.016300	0.432900	0.458600
Zn71	Zn7	0.407180	0.911050	0.842310
O551	O55	0.560830	0.918260	0.922000
O561	O56	0.480270	0.833140	0.872500
O571	O57	0.816460	0.640850	0.845300
O581	O58	0.774160	0.586920	0.971600
O591	O59	0.586000	0.874900	0.727100
O601	O60	0.683600	0.832500	0.681600
O611	O61	0.425100	0.936950	0.713900
O621	O62	0.509500	0.816000	0.601000
O631	O63	0.405800	0.843000	0.567000
N131	N13	0.637300	0.833800	0.737600
N141	N14	0.470600	0.857200	0.573900
C551	C55	0.600500	0.794700	0.893300
C561	C56	0.647800	0.788800	0.823800
C571	C57	0.702900	0.736700	0.826700
H191	H19	0.734800	0.734800	0.778100
C581	C58	0.710800	0.688100	0.900700
C591	C59	0.664200	0.692900	0.970500
H201	H20	0.669100	0.659300	0.021900
C601	C60	0.610000	0.746000	0.966900
H211	H21	0.579000	0.748700	0.016500
C611	C61	0.543300	0.854000	0.894800
C621	C62	0.771700	0.633300	0.906700
C631	C63	0.483700	0.932900	0.541400
Zn81	Zn8	0.907180	0.411050	0.842310
O641	O64	0.060830	0.418260	0.922000
O651	O65	0.980270	0.333140	0.872500
O661	O66	0.316460	0.140850	0.845300
O671	O67	0.274160	0.086920	0.971600
O681	O68	0.086000	0.374900	0.727100
O691	O69	0.183600	0.332500	0.681600
O701	O70	0.925100	0.436950	0.713900
O711	O71	0.009500	0.316000	0.601000
O721	O72	0.905800	0.343000	0.567000
N151	N15	0.137300	0.333800	0.737600
N161	N16	0.970600	0.357200	0.573900
C641	C64	0.100500	0.294700	0.893300
C651	C65	0.147800	0.288800	0.823800
C661	C66	0.202900	0.236700	0.826700
H221	H22	0.234800	0.234800	0.778100
C671	C67	0.210800	0.188100	0.900700
C681	C68	0.164200	0.192900	0.970500
H231	H23	0.169100	0.159300	0.021900
C691	C69	0.110000	0.246000	0.966900
H241	H24	0.079000	0.248700	0.016500
C701	C70	0.043300	0.354000	0.894800
C711	C71	0.271700	0.133300	0.906700
C721	C72	0.983700	0.432900	0.541400
Zn91	Zn9	0.500000	0.000000	0.000000
Zn101	Zn10	0.000000	0.500000	0.000000
Zn111	Zn11	0.338100	0.000000	0.009400
O731	O73	0.411500	0.000000	0.919600
C731	C73	0.436000	0.000000	0.678300
C741	C74	0.467100	0.000000	0.583300
Zn121	Zn12	0.838100	0.500000	0.009400
O741	O74	0.911500	0.500000	0.919600
C751	C75	0.936000	0.500000	0.678300
C761	C76	0.967100	0.500000	0.583300
Zn131	Zn13	0.661900	0.000000	0.990600
O751	O75	0.588500	0.000000	0.080400
C771	C77	0.564000	0.000000	0.321700
C781	C78	0.532900	0.000000	0.416700
Zn141	Zn14	0.161900	0.500000	0.990600
O761	O76	0.088500	0.500000	0.080400
C791	C79	0.064000	0.500000	0.321700
C801	C80	0.032900	0.500000	0.416700
