data_DEKHUX_clean_PM
_symmetry_space_group_name_H-M	'P1'
_cell_length_a	10.224000
_cell_length_b	11.723000
_cell_length_c	12.227000
_cell_angle_alpha	65.980000
_cell_angle_beta	71.305000
_cell_angle_gamma	84.622000
_symmetry_Int_Tables_number 1

loop_
_symmetry_equiv_pos_as_xyz
'x,y,z'

loop_
_atom_site_label
_atom_site_type_symbol
_atom_site_fract_x
_atom_site_fract_y
_atom_site_fract_z
Mn11	Mn1	0.000000	0.500000	0.500000
Mn21	Mn2	0.500000	0.500000	0.500000
H11	H1	0.875200	0.818400	0.437300
H21	H2	0.594300	0.830300	0.529000
H31	H3	0.910800	0.005900	0.429900
H41	H4	0.929300	0.183400	0.465400
H51	H5	0.529800	0.161500	0.638700
H61	H6	0.513500	0.976600	0.616300
H71	H7	0.934100	0.410300	0.310900
H81	H8	0.022300	0.408300	0.112000
H91	H9	0.378300	0.552500	0.079000
H101	H10	0.284200	0.539400	0.282300
H111	H11	0.398200	0.641700	0.870200
H121	H12	0.493100	0.646000	0.673000
H131	H13	0.256600	0.361800	0.758000
H141	H14	0.156400	0.350000	0.956400
H151	H15	0.124800	0.181600	0.562700
H161	H16	0.405700	0.169700	0.471000
H171	H17	0.089200	0.994100	0.570100
H181	H18	0.070700	0.816600	0.534600
H191	H19	0.470200	0.838500	0.361300
H201	H20	0.486500	0.023400	0.383700
H211	H21	0.065900	0.589700	0.689100
H221	H22	0.977700	0.591700	0.888000
H231	H23	0.621700	0.447500	0.921000
H241	H24	0.715800	0.460600	0.717700
H251	H25	0.601800	0.358300	0.129800
H261	H26	0.506900	0.354000	0.327000
H271	H27	0.743400	0.638200	0.242000
H281	H28	0.843600	0.650000	0.043600
C11	C1	0.750700	0.679100	0.444500
C21	C2	0.783300	0.793300	0.460100
C31	C3	0.685200	0.858700	0.505100
C41	C4	0.707000	0.972500	0.520800
C51	C5	0.832900	0.035200	0.473900
C61	C6	0.842600	0.144600	0.493100
C71	C7	0.729900	0.196300	0.550800
C81	C8	0.608700	0.131700	0.596600
C91	C9	0.598900	0.019400	0.581900
C101	C10	0.746000	0.313900	0.569100
C111	C11	0.025000	0.438700	0.263900
C121	C12	0.076900	0.438900	0.142900
C131	C13	0.210000	0.485000	0.070100
C141	C14	0.287400	0.522600	0.124100
C151	C15	0.229200	0.515800	0.246800
C161	C16	0.268300	0.493200	0.938800
C171	C17	0.368300	0.582700	0.849700
C181	C18	0.424100	0.585500	0.730700
C191	C19	0.285800	0.419400	0.780600
C201	C20	0.225700	0.410800	0.900500
C211	C21	0.249300	0.320900	0.555500
C221	C22	0.216700	0.206700	0.539900
C231	C23	0.314800	0.141300	0.494900
C241	C24	0.293000	0.027500	0.479200
C251	C25	0.167100	0.964800	0.526100
C261	C26	0.157400	0.855400	0.506900
C271	C27	0.270100	0.803700	0.449200
C281	C28	0.391300	0.868300	0.403400
C291	C29	0.401100	0.980600	0.418100
C301	C30	0.254000	0.686100	0.430900
C311	C31	0.975000	0.561300	0.736100
C321	C32	0.923100	0.561100	0.857100
C331	C33	0.790000	0.515000	0.929900
C341	C34	0.712600	0.477400	0.875900
C351	C35	0.770800	0.484200	0.753200
C361	C36	0.731700	0.506800	0.061200
C371	C37	0.631700	0.417300	0.150300
C381	C38	0.575900	0.414500	0.269300
C391	C39	0.714200	0.580600	0.219400
C401	C40	0.774300	0.589200	0.099500
N11	N1	0.099800	0.477400	0.315000
N21	N2	0.384400	0.505100	0.693100
N31	N3	0.900200	0.522600	0.685000
N41	N4	0.615600	0.494900	0.306900
O11	O1	0.851200	0.615400	0.414500
O21	O2	0.628200	0.659200	0.457000
O31	O3	0.867300	0.339200	0.561600
O41	O4	0.642000	0.375000	0.592000
O51	O5	0.148800	0.384600	0.585500
O61	O6	0.371800	0.340800	0.543000
O71	O7	0.132700	0.660800	0.438400
O81	O8	0.358000	0.625000	0.408000
