data_DEKPEP_clean_PM
_symmetry_space_group_name_H-M	'P1'
_cell_length_a	8.670000
_cell_length_b	9.742000
_cell_length_c	10.406000
_cell_angle_alpha	81.440000
_cell_angle_beta	65.830000
_cell_angle_gamma	67.160000
_symmetry_Int_Tables_number 1

loop_
_symmetry_equiv_pos_as_xyz
'x,y,z'

loop_
_atom_site_label
_atom_site_type_symbol
_atom_site_fract_x
_atom_site_fract_y
_atom_site_fract_z
Ga11	Ga1	0.132420	0.149300	0.862460
Ga21	Ga2	0.119890	0.546310	0.849100
P11	P1	0.241200	0.802900	0.882400
P21	P2	0.199400	0.357900	0.590800
P31	P3	0.712300	0.719300	0.990100
F11	F1	0.001000	0.392800	0.937100
O11	O1	0.240000	0.948100	0.801900
O21	O2	0.103900	0.840300	0.036500
O31	O3	0.201800	0.708200	0.805200
O41	O4	0.714600	0.849800	0.056800
O51	O5	0.688800	0.593500	0.096500
O61	O6	0.879500	0.665300	0.853400
O71	O7	0.362300	0.304300	0.455500
O81	O8	0.172200	0.224900	0.687200
O91	O9	0.214700	0.474300	0.665400
C11	C1	0.513300	0.805100	0.951500
H11	H1	0.410300	0.850800	0.039700
H21	H2	0.529800	0.887000	0.884900
C21	C2	0.995700	0.440300	0.556100
H31	H3	0.972800	0.361100	0.525500
H41	H4	0.892300	0.484800	0.644500
C31	C3	0.458600	0.706300	0.889000
H51	H5	0.457300	0.616200	0.947200
H61	H6	0.549600	0.673800	0.792700
Ga31	Ga3	0.867580	0.850700	0.137540
Ga41	Ga4	0.880110	0.453690	0.150900
P41	P4	0.758800	0.197100	0.117600
P51	P5	0.800600	0.642100	0.409200
P61	P6	0.287700	0.280700	0.009900
F21	F2	0.999000	0.607200	0.062900
O101	O10	0.760000	0.051900	0.198100
O111	O11	0.896100	0.159700	0.963500
O121	O12	0.798200	0.291800	0.194800
O131	O13	0.285400	0.150200	0.943200
O141	O14	0.311200	0.406500	0.903500
O151	O15	0.120500	0.334700	0.146600
O161	O16	0.637700	0.695700	0.544500
O171	O17	0.827800	0.775100	0.312800
O181	O18	0.785300	0.525700	0.334600
C41	C4	0.486700	0.194900	0.048500
H71	H7	0.589700	0.149200	0.960300
H81	H8	0.470200	0.113000	0.115100
C51	C5	0.004300	0.559700	0.443900
H91	H9	0.027200	0.638900	0.474500
H101	H10	0.107700	0.515200	0.355500
C61	C6	0.541400	0.293700	0.111000
H111	H11	0.542700	0.383800	0.052800
H121	H12	0.450400	0.326200	0.207300
