data_DEPTOH_clean_PM
_symmetry_space_group_name_H-M	'P1'
_cell_length_a	14.323000
_cell_length_b	16.340000
_cell_length_c	8.751000
_cell_angle_alpha	90.000000
_cell_angle_beta	90.000000
_cell_angle_gamma	90.000000
_symmetry_Int_Tables_number 1

loop_
_symmetry_equiv_pos_as_xyz
'x,y,z'

loop_
_atom_site_label
_atom_site_type_symbol
_atom_site_fract_x
_atom_site_fract_y
_atom_site_fract_z
Ga11	Ga1	0.136180	0.034730	0.572560
Ga21	Ga2	0.041350	0.271780	0.632900
Ga31	Ga3	0.526140	0.126370	0.411430
Ga41	Ga4	0.366220	0.160950	0.814150
P11	P1	0.147400	0.152030	0.848900
P21	P2	0.640080	0.968980	0.446700
P31	P3	0.473100	0.219150	0.111200
P41	P4	0.970740	0.132150	0.415000
O11	O1	0.447900	0.163700	0.977900
O21	O2	0.536400	0.171300	0.219800
O31	O3	0.964600	0.196800	0.540700
O41	O4	0.630500	0.062400	0.440200
O51	O5	0.962100	0.327300	0.757500
O61	O6	0.249400	0.148300	0.896100
O71	O7	0.135200	0.225300	0.744100
O81	O8	0.088400	0.158600	0.991800
O91	O9	0.117100	0.073800	0.769300
O101	O10	0.384200	0.252400	0.691200
O111	O11	0.419800	0.064200	0.422800
O121	O12	0.062600	0.086300	0.423400
O131	O13	0.259600	0.053000	0.517200
O141	O14	0.393200	0.065800	0.706300
O151	O15	0.530800	0.292900	0.058100
O161	O16	0.112900	0.922800	0.566200
Ga51	Ga5	0.863820	0.534730	0.927440
Ga61	Ga6	0.958650	0.771780	0.867100
Ga71	Ga7	0.473860	0.626370	0.088570
Ga81	Ga8	0.633780	0.660950	0.685850
P51	P5	0.852600	0.652030	0.651100
P61	P6	0.359920	0.468980	0.053300
P71	P7	0.526900	0.719150	0.388800
P81	P8	0.029260	0.632150	0.085000
O171	O17	0.552100	0.663700	0.522100
O181	O18	0.463600	0.671300	0.280200
O191	O19	0.035400	0.696800	0.959300
O201	O20	0.369500	0.562400	0.059800
O211	O21	0.037900	0.827300	0.742500
O221	O22	0.750600	0.648300	0.603900
O231	O23	0.864800	0.725300	0.755900
O241	O24	0.911600	0.658600	0.508200
O251	O25	0.882900	0.573800	0.730700
O261	O26	0.615800	0.752400	0.808800
O271	O27	0.580200	0.564200	0.077200
O281	O28	0.937400	0.586300	0.076600
O291	O29	0.740400	0.553000	0.982800
O301	O30	0.606800	0.565800	0.793700
O311	O31	0.469200	0.792900	0.441900
O321	O32	0.887100	0.422800	0.933800
Ga91	Ga9	0.863820	0.965270	0.427440
Ga101	Ga10	0.958650	0.728220	0.367100
Ga111	Ga11	0.473860	0.873630	0.588570
Ga121	Ga12	0.633780	0.839050	0.185850
P91	P9	0.852600	0.847970	0.151100
P101	P10	0.359920	0.031020	0.553300
P111	P11	0.526900	0.780850	0.888800
P121	P12	0.029260	0.867850	0.585000
O331	O33	0.552100	0.836300	0.022100
O341	O34	0.463600	0.828700	0.780200
O351	O35	0.035400	0.803200	0.459300
O361	O36	0.369500	0.937600	0.559800
O371	O37	0.037900	0.672700	0.242500
O381	O38	0.750600	0.851700	0.103900
O391	O39	0.864800	0.774700	0.255900
O401	O40	0.911600	0.841400	0.008200
O411	O41	0.882900	0.926200	0.230700
O421	O42	0.615800	0.747600	0.308800
O431	O43	0.580200	0.935800	0.577200
O441	O44	0.937400	0.913700	0.576600
O451	O45	0.740400	0.947000	0.482800
O461	O46	0.606800	0.934200	0.293700
O471	O47	0.469200	0.707100	0.941900
O481	O48	0.887100	0.077200	0.433800
Ga131	Ga13	0.136180	0.465270	0.072560
Ga141	Ga14	0.041350	0.228220	0.132900
Ga151	Ga15	0.526140	0.373630	0.911430
Ga161	Ga16	0.366220	0.339050	0.314150
P131	P13	0.147400	0.347970	0.348900
P141	P14	0.640080	0.531020	0.946700
P151	P15	0.473100	0.280850	0.611200
P161	P16	0.970740	0.367850	0.915000
O491	O49	0.447900	0.336300	0.477900
O501	O50	0.536400	0.328700	0.719800
O511	O51	0.964600	0.303200	0.040700
O521	O52	0.630500	0.437600	0.940200
O531	O53	0.962100	0.172700	0.257500
O541	O54	0.249400	0.351700	0.396100
O551	O55	0.135200	0.274700	0.244100
O561	O56	0.088400	0.341400	0.491800
O571	O57	0.117100	0.426200	0.269300
O581	O58	0.384200	0.247600	0.191200
O591	O59	0.419800	0.435800	0.922800
O601	O60	0.062600	0.413700	0.923400
O611	O61	0.259600	0.447000	0.017200
O621	O62	0.393200	0.434200	0.206300
O631	O63	0.530800	0.207100	0.558100
O641	O64	0.112900	0.577200	0.066200
