data_DEPXAY_clean_PM
_symmetry_space_group_name_H-M	'P1'
_cell_length_a	14.216000
_cell_length_b	14.447000
_cell_length_c	27.865000
_cell_angle_alpha	90.000000
_cell_angle_beta	90.000000
_cell_angle_gamma	90.000000
_symmetry_Int_Tables_number 1

loop_
_symmetry_equiv_pos_as_xyz
'x,y,z'

loop_
_atom_site_label
_atom_site_type_symbol
_atom_site_fract_x
_atom_site_fract_y
_atom_site_fract_z
Zn11	Zn1	0.209470	0.100070	0.098550
Zn21	Zn2	0.213080	0.483530	0.845020
Zn31	Zn3	0.290530	0.899930	0.598550
Zn41	Zn4	0.286920	0.516470	0.345020
Zn51	Zn5	0.790530	0.600070	0.401450
Zn61	Zn6	0.786920	0.983530	0.654980
Zn71	Zn7	0.709470	0.399930	0.901450
Zn81	Zn8	0.713080	0.016470	0.154980
Zn91	Zn9	0.790530	0.899930	0.901450
Zn101	Zn10	0.786920	0.516470	0.154980
Zn111	Zn11	0.709470	0.100070	0.401450
Zn121	Zn12	0.713080	0.483530	0.654980
Zn131	Zn13	0.209470	0.399930	0.598550
Zn141	Zn14	0.213080	0.016470	0.345020
Zn151	Zn15	0.290530	0.600070	0.098550
Zn161	Zn16	0.286920	0.983530	0.845020
H11	H1	0.212900	0.281800	0.852100
H21	H2	0.200000	0.355200	0.011300
H31	H3	0.193400	0.467200	0.953200
H41	H4	0.917000	0.053400	0.139400
H51	H5	0.902500	0.054700	0.303600
H61	H6	0.769800	0.037000	0.257800
H71	H7	0.287100	0.718200	0.352100
H81	H8	0.300000	0.644800	0.511300
H91	H9	0.306600	0.532800	0.453200
H101	H10	0.583000	0.946600	0.639400
H111	H11	0.597500	0.945300	0.803600
H121	H12	0.730200	0.963000	0.757800
H131	H13	0.787100	0.781800	0.647900
H141	H14	0.800000	0.855200	0.488700
H151	H15	0.806600	0.967200	0.546800
H161	H16	0.083000	0.553400	0.360600
H171	H17	0.097500	0.554700	0.196400
H181	H18	0.230200	0.537000	0.242200
H191	H19	0.712900	0.218200	0.147900
H201	H20	0.700000	0.144800	0.988700
H211	H21	0.693400	0.032800	0.046800
H221	H22	0.417000	0.446600	0.860600
H231	H23	0.402500	0.445300	0.696400
H241	H24	0.269800	0.463000	0.742200
H251	H25	0.787100	0.718200	0.147900
H261	H26	0.800000	0.644800	0.988700
H271	H27	0.806600	0.532800	0.046800
H281	H28	0.083000	0.946600	0.860600
H291	H29	0.097500	0.945300	0.696400
H301	H30	0.230200	0.963000	0.742200
H311	H31	0.712900	0.281800	0.647900
H321	H32	0.700000	0.355200	0.488700
H331	H33	0.693400	0.467200	0.546800
H341	H34	0.417000	0.053400	0.360600
H351	H35	0.402500	0.054700	0.196400
H361	H36	0.269800	0.037000	0.242200
H371	H37	0.212900	0.218200	0.352100
H381	H38	0.200000	0.144800	0.511300
H391	H39	0.193400	0.032800	0.453200
H401	H40	0.917000	0.446600	0.639400
H411	H41	0.902500	0.445300	0.803600
H421	H42	0.769800	0.463000	0.757800
H431	H43	0.287100	0.781800	0.852100
H441	H44	0.300000	0.855200	0.011300
H451	H45	0.306600	0.967200	0.953200
H461	H46	0.583000	0.553400	0.139400
H471	H47	0.597500	0.554700	0.303600
H481	H48	0.730200	0.537000	0.257800
C11	C1	0.211200	0.296600	0.884600
C21	C2	0.216500	0.224700	0.917800
C31	C3	0.215600	0.247500	0.966700
C41	C4	0.204500	0.338500	0.979100
C51	C5	0.199700	0.405600	0.944000
C61	C6	0.220700	0.126400	0.899700
C71	C7	0.236600	0.174700	0.004700
C81	C8	0.914600	0.053300	0.172800
C91	C9	0.998000	0.065000	0.198200
C101	C10	0.994600	0.064900	0.248400
C111	C11	0.907200	0.054400	0.270300
C121	C12	0.827600	0.043500	0.242600
C131	C13	0.088800	0.069800	0.170800
C141	C14	0.082100	0.079400	0.278300
C151	C15	0.288800	0.703400	0.384600
C161	C16	0.283500	0.775300	0.417800
C171	C17	0.284400	0.752500	0.466700
C181	C18	0.295500	0.661500	0.479100
C191	C19	0.300300	0.594400	0.444000
C201	C20	0.279300	0.873600	0.399700
C211	C21	0.263400	0.825300	0.504700
C221	C22	0.585400	0.946700	0.672800
C231	C23	0.502000	0.935000	0.698200
C241	C24	0.505400	0.935100	0.748400
C251	C25	0.592800	0.945600	0.770300
C261	C26	0.672400	0.956500	0.742600
C271	C27	0.411200	0.930200	0.670800
C281	C28	0.417900	0.920600	0.778300
C291	C29	0.788800	0.796600	0.615400
C301	C30	0.783500	0.724700	0.582200
C311	C31	0.784400	0.747500	0.533300
C321	C32	0.795500	0.838500	0.520900
C331	C33	0.800300	0.905600	0.556000
C341	C34	0.779300	0.626400	0.600300
C351	C35	0.763400	0.674700	0.495300
C361	C36	0.085400	0.553300	0.327200
C371	C37	0.002000	0.565000	0.301800
C381	C38	0.005400	0.564900	0.251600
C391	C39	0.092800	0.554400	0.229700
C401	C40	0.172400	0.543500	0.257400
C411	C41	0.911200	0.569800	0.329200
C421	C42	0.917900	0.579400	0.221700
C431	C43	0.711200	0.203400	0.115400
C441	C44	0.716500	0.275300	0.082200
C451	C45	0.715600	0.252500	0.033300
C461	C46	0.704500	0.161500	0.020900
C471	C47	0.699700	0.094400	0.056000
C481	C48	0.720700	0.373600	0.100300
C491	C49	0.736600	0.325300	0.995300
C501	C50	0.414600	0.446700	0.827200
C511	C51	0.498000	0.435000	0.801800
C521	C52	0.494600	0.435100	0.751600
C531	C53	0.407200	0.445600	0.729700
C541	C54	0.327600	0.456500	0.757400
C551	C55	0.588800	0.430200	0.829200
C561	C56	0.582100	0.420600	0.721700
C571	C57	0.788800	0.703400	0.115400
C581	C58	0.783500	0.775300	0.082200
C591	C59	0.784400	0.752500	0.033300
C601	C60	0.795500	0.661500	0.020900
C611	C61	0.800300	0.594400	0.056000
C621	C62	0.779300	0.873600	0.100300
C631	C63	0.763400	0.825300	0.995300
C641	C64	0.085400	0.946700	0.827200
C651	C65	0.002000	0.935000	0.801800
C661	C66	0.005400	0.935100	0.751600
C671	C67	0.092800	0.945600	0.729700
C681	C68	0.172400	0.956500	0.757400
C691	C69	0.911200	0.930200	0.829200
C701	C70	0.917900	0.920600	0.721700
C711	C71	0.711200	0.296600	0.615400
C721	C72	0.716500	0.224700	0.582200
C731	C73	0.715600	0.247500	0.533300
C741	C74	0.704500	0.338500	0.520900
C751	C75	0.699700	0.405600	0.556000
C761	C76	0.720700	0.126400	0.600300
C771	C77	0.736600	0.174700	0.495300
C781	C78	0.414600	0.053300	0.327200
C791	C79	0.498000	0.065000	0.301800
C801	C80	0.494600	0.064900	0.251600
C811	C81	0.407200	0.054400	0.229700
C821	C82	0.327600	0.043500	0.257400
C831	C83	0.588800	0.069800	0.329200
C841	C84	0.582100	0.079400	0.221700
C851	C85	0.211200	0.203400	0.384600
C861	C86	0.216500	0.275300	0.417800
C871	C87	0.215600	0.252500	0.466700
C881	C88	0.204500	0.161500	0.479100
C891	C89	0.199700	0.094400	0.444000
C901	C90	0.220700	0.373600	0.399700
C911	C91	0.236600	0.325300	0.504700
C921	C92	0.914600	0.446700	0.672800
C931	C93	0.998000	0.435000	0.698200
C941	C94	0.994600	0.435100	0.748400
C951	C95	0.907200	0.445600	0.770300
C961	C96	0.827600	0.456500	0.742600
C971	C97	0.088800	0.430200	0.670800
C981	C98	0.082100	0.420600	0.778300
C991	C99	0.288800	0.796600	0.884600
C1001	C100	0.283500	0.724700	0.917800
C1011	C101	0.284400	0.747500	0.966700
C1021	C102	0.295500	0.838500	0.979100
C1031	C103	0.300300	0.905600	0.944000
C1041	C104	0.279300	0.626400	0.899700
C1051	C105	0.263400	0.674700	0.004700
C1061	C106	0.585400	0.553300	0.172800
C1071	C107	0.502000	0.565000	0.198200
C1081	C108	0.505400	0.564900	0.248400
C1091	C109	0.592800	0.554400	0.270300
C1101	C110	0.672400	0.543500	0.242600
C1111	C111	0.411200	0.569800	0.170800
C1121	C112	0.417900	0.579400	0.278300
N11	N1	0.203900	0.385500	0.897000
N21	N2	0.830700	0.041800	0.194190
N31	N3	0.296100	0.614500	0.397000
N41	N4	0.669300	0.958200	0.694190
N51	N5	0.796100	0.885500	0.603000
N61	N6	0.169300	0.541800	0.305810
N71	N7	0.703900	0.114500	0.103000
N81	N8	0.330700	0.458200	0.805810
N91	N9	0.796100	0.614500	0.103000
N101	N10	0.169300	0.958200	0.805810
N111	N11	0.703900	0.385500	0.603000
N121	N12	0.330700	0.041800	0.305810
N131	N13	0.203900	0.114500	0.397000
N141	N14	0.830700	0.458200	0.694190
N151	N15	0.296100	0.885500	0.897000
N161	N16	0.669300	0.541800	0.194190
O11	O1	0.286100	0.109400	0.869800
O21	O2	0.161400	0.070700	0.913520
O31	O3	0.296100	0.116000	0.996140
O41	O4	0.189500	0.183200	0.042770
O51	O5	0.101300	0.010000	0.305330
O61	O6	0.124700	0.151900	0.276550
O71	O7	0.158300	0.026700	0.185660
O81	O8	0.088200	0.119100	0.133110
O91	O9	0.213900	0.890600	0.369800
O101	O10	0.338600	0.929300	0.413520
O111	O11	0.203900	0.884000	0.496140
O121	O12	0.310500	0.816800	0.542770
O131	O13	0.398700	0.990000	0.805330
O141	O14	0.375300	0.848100	0.776550
O151	O15	0.341700	0.973300	0.685660
O161	O16	0.411800	0.880900	0.633110
O171	O17	0.713900	0.609400	0.630200
O181	O18	0.838600	0.570700	0.586480
O191	O19	0.703900	0.616000	0.503860
O201	O20	0.810500	0.683200	0.457230
O211	O21	0.898700	0.510000	0.194670
O221	O22	0.875300	0.651900	0.223450
O231	O23	0.841700	0.526700	0.314340
O241	O24	0.911800	0.619100	0.366890
O251	O25	0.786100	0.390600	0.130200
O261	O26	0.661400	0.429300	0.086480
O271	O27	0.796100	0.384000	0.003860
O281	O28	0.689500	0.316800	0.957230
O291	O29	0.601300	0.490000	0.694670
O301	O30	0.624700	0.348100	0.723450
O311	O31	0.658300	0.473300	0.814340
O321	O32	0.588200	0.380900	0.866890
O331	O33	0.713900	0.890600	0.130200
O341	O34	0.838600	0.929300	0.086480
O351	O35	0.703900	0.884000	0.003860
O361	O36	0.810500	0.816800	0.957230
O371	O37	0.898700	0.990000	0.694670
O381	O38	0.875300	0.848100	0.723450
O391	O39	0.841700	0.973300	0.814340
O401	O40	0.911800	0.880900	0.866890
O411	O41	0.786100	0.109400	0.630200
O421	O42	0.661400	0.070700	0.586480
O431	O43	0.796100	0.116000	0.503860
O441	O44	0.689500	0.183200	0.457230
O451	O45	0.601300	0.010000	0.194670
O461	O46	0.624700	0.151900	0.223450
O471	O47	0.658300	0.026700	0.314340
O481	O48	0.588200	0.119100	0.366890
O491	O49	0.286100	0.390600	0.369800
O501	O50	0.161400	0.429300	0.413520
O511	O51	0.296100	0.384000	0.496140
O521	O52	0.189500	0.316800	0.542770
O531	O53	0.101300	0.490000	0.805330
O541	O54	0.124700	0.348100	0.776550
O551	O55	0.158300	0.473300	0.685660
O561	O56	0.088200	0.380900	0.633110
O571	O57	0.213900	0.609400	0.869800
O581	O58	0.338600	0.570700	0.913520
O591	O59	0.203900	0.616000	0.996140
O601	O60	0.310500	0.683200	0.042770
O611	O61	0.398700	0.510000	0.305330
O621	O62	0.375300	0.651900	0.276550
O631	O63	0.341700	0.526700	0.185660
O641	O64	0.411800	0.619100	0.133110
