data_DEPXIG_clean_PM
_symmetry_space_group_name_H-M	'P1'
_cell_length_a	11.849000
_cell_length_b	17.711000
_cell_length_c	18.903000
_cell_angle_alpha	114.860000
_cell_angle_beta	90.000000
_cell_angle_gamma	90.000000
_symmetry_Int_Tables_number 1

loop_
_symmetry_equiv_pos_as_xyz
'x,y,z'

loop_
_atom_site_label
_atom_site_type_symbol
_atom_site_fract_x
_atom_site_fract_y
_atom_site_fract_z
Mn11	Mn1	0.580270	0.711850	0.972370
Mn21	Mn2	0.819660	0.833410	0.124350
Mn31	Mn3	0.449990	0.721820	0.800130
Mn41	Mn4	0.080270	0.288150	0.527630
Mn51	Mn5	0.319660	0.166590	0.375650
Mn61	Mn6	0.949990	0.278180	0.699870
Mn71	Mn7	0.419730	0.288150	0.027630
Mn81	Mn8	0.180340	0.166590	0.875650
Mn91	Mn9	0.550010	0.278180	0.199870
Mn101	Mn10	0.919730	0.711850	0.472370
Mn111	Mn11	0.680340	0.833410	0.624350
Mn121	Mn12	0.050010	0.721820	0.300130
H11	H1	0.655600	0.832100	0.883700
H21	H2	0.557900	0.039900	0.867200
H31	H3	0.678500	0.050500	0.070000
H41	H4	0.789200	0.499000	0.761600
H51	H5	0.895500	0.521200	0.570400
H61	H6	0.699100	0.696300	0.722300
H71	H7	0.321400	0.869100	0.777900
H81	H8	0.173000	0.897300	0.716100
H91	H9	0.056200	0.789200	0.641700
H101	H10	0.079700	0.660500	0.638100
H111	H11	0.223200	0.640700	0.708000
H121	H12	0.155600	0.167900	0.616300
H131	H13	0.057900	0.960100	0.632800
H141	H14	0.178500	0.949500	0.430000
H151	H15	0.289200	0.501000	0.738400
H161	H16	0.395500	0.478800	0.929600
H171	H17	0.199100	0.303700	0.777700
H181	H18	0.821400	0.130900	0.722100
H191	H19	0.673000	0.102700	0.783900
H201	H20	0.556200	0.210800	0.858300
H211	H21	0.579700	0.339500	0.861900
H221	H22	0.723200	0.359300	0.792000
H231	H23	0.344400	0.167900	0.116300
H241	H24	0.442100	0.960100	0.132800
H251	H25	0.321500	0.949500	0.930000
H261	H26	0.210800	0.501000	0.238400
H271	H27	0.104500	0.478800	0.429600
H281	H28	0.300900	0.303700	0.277700
H291	H29	0.678600	0.130900	0.222100
H301	H30	0.827000	0.102700	0.283900
H311	H31	0.943800	0.210800	0.358300
H321	H32	0.920300	0.339500	0.361900
H331	H33	0.776800	0.359300	0.292000
H341	H34	0.844400	0.832100	0.383700
H351	H35	0.942100	0.039900	0.367200
H361	H36	0.821500	0.050500	0.570000
H371	H37	0.710800	0.499000	0.261600
H381	H38	0.604500	0.521200	0.070400
H391	H39	0.800900	0.696300	0.222300
H401	H40	0.178600	0.869100	0.277900
H411	H41	0.327000	0.897300	0.216100
H421	H42	0.443800	0.789200	0.141700
H431	H43	0.420300	0.660500	0.138100
H441	H44	0.276800	0.640700	0.208000
C11	C1	0.725100	0.892000	0.033800
C21	C2	0.678600	0.933900	0.983700
C31	C3	0.647800	0.889700	0.906400
C41	C4	0.605700	0.928400	0.861600
C51	C5	0.577200	0.875700	0.776000
C61	C6	0.587000	0.013400	0.896500
C71	C7	0.611500	0.059900	0.975400
C81	C8	0.576200	0.151300	0.019600
C91	C9	0.659300	0.019600	0.018000
C101	C10	0.682500	0.641800	0.835700
C111	C11	0.736800	0.605500	0.756200
C121	C12	0.790100	0.528300	0.730800
C131	C13	0.844100	0.496100	0.659900
C141	C14	0.894800	0.409900	0.632100
C151	C15	0.853100	0.541400	0.616000
C161	C16	0.798300	0.617300	0.640500
C171	C17	0.797600	0.668900	0.593400
C181	C18	0.739200	0.646900	0.707900
C191	C19	0.271000	0.826700	0.750500
C201	C20	0.184300	0.844000	0.712800
C211	C21	0.114600	0.779800	0.669900
C221	C22	0.127800	0.704100	0.667200
C231	C23	0.214300	0.693200	0.708600
C241	C24	0.225100	0.108000	0.466200
C251	C25	0.178600	0.066100	0.516300
C261	C26	0.147800	0.110300	0.593600
C271	C27	0.105700	0.071600	0.638400
C281	C28	0.077200	0.124300	0.724000
C291	C29	0.087000	0.986600	0.603500
C301	C30	0.111500	0.940100	0.524600
C311	C31	0.076200	0.848700	0.480400
C321	C32	0.159300	0.980400	0.482000
C331	C33	0.182500	0.358200	0.664300
C341	C34	0.236800	0.394500	0.743800
C351	C35	0.290100	0.471700	0.769200
C361	C36	0.344100	0.503900	0.840100
C371	C37	0.394800	0.590100	0.867900
C381	C38	0.353100	0.458600	0.884000
C391	C39	0.298300	0.382700	0.859500
C401	C40	0.297600	0.331100	0.906600
C411	C41	0.239200	0.353100	0.792100
C421	C42	0.771000	0.173300	0.749500
C431	C43	0.684300	0.156000	0.787200
C441	C44	0.614600	0.220200	0.830100
C451	C45	0.627800	0.295900	0.832800
C461	C46	0.714300	0.306800	0.791400
C471	C47	0.274900	0.108000	0.966200
C481	C48	0.321400	0.066100	0.016300
C491	C49	0.352200	0.110300	0.093600
C501	C50	0.394300	0.071600	0.138400
C511	C51	0.422800	0.124300	0.224000
C521	C52	0.413000	0.986600	0.103500
C531	C53	0.388500	0.940100	0.024600
C541	C54	0.423800	0.848700	0.980400
C551	C55	0.340700	0.980400	0.982000
C561	C56	0.317500	0.358200	0.164300
C571	C57	0.263200	0.394500	0.243800
C581	C58	0.209900	0.471700	0.269200
C591	C59	0.155900	0.503900	0.340100
C601	C60	0.105200	0.590100	0.367900
C611	C61	0.146900	0.458600	0.384000
C621	C62	0.201700	0.382700	0.359500
C631	C63	0.202400	0.331100	0.406600
C641	C64	0.260800	0.353100	0.292100
C651	C65	0.729000	0.173300	0.249500
C661	C66	0.815700	0.156000	0.287200
C671	C67	0.885400	0.220200	0.330100
C681	C68	0.872200	0.295900	0.332800
C691	C69	0.785700	0.306800	0.291400
C701	C70	0.774900	0.892000	0.533800
C711	C71	0.821400	0.933900	0.483700
C721	C72	0.852200	0.889700	0.406400
C731	C73	0.894300	0.928400	0.361600
C741	C74	0.922800	0.875700	0.276000
C751	C75	0.913000	0.013400	0.396500
C761	C76	0.888500	0.059900	0.475400
C771	C77	0.923800	0.151300	0.519600
C781	C78	0.840700	0.019600	0.518000
C791	C79	0.817500	0.641800	0.335700
C801	C80	0.763200	0.605500	0.256200
C811	C81	0.709900	0.528300	0.230800
C821	C82	0.655900	0.496100	0.159900
C831	C83	0.605200	0.409900	0.132100
C841	C84	0.646900	0.541400	0.116000
C851	C85	0.701700	0.617300	0.140500
C861	C86	0.702400	0.668900	0.093400
C871	C87	0.760800	0.646900	0.207900
C881	C88	0.229000	0.826700	0.250500
C891	C89	0.315700	0.844000	0.212800
C901	C90	0.385400	0.779800	0.169900
C911	C91	0.372200	0.704100	0.167200
C921	C92	0.285700	0.693200	0.208600
N11	N1	0.287900	0.752200	0.750400
N21	N2	0.787900	0.247800	0.749600
N31	N3	0.712100	0.247800	0.249600
N41	N4	0.212100	0.752200	0.250400
O11	O1	0.716700	0.813100	0.007300
O21	O2	0.770100	0.935500	0.096500
O31	O3	0.541100	0.802700	0.757700
O41	O4	0.594400	0.907700	0.729800
O51	O5	0.529800	0.184700	0.979700
O61	O6	0.596900	0.183500	0.091200
O71	O7	0.603800	0.696400	0.848100
O81	O8	0.715200	0.622100	0.888600
O91	O9	0.870600	0.370500	0.673000
O101	O10	0.954700	0.384000	0.572000
O111	O11	0.886500	0.668200	0.557600
O121	O12	0.707700	0.706900	0.594100
O131	O13	0.216700	0.186900	0.492700
O141	O14	0.270100	0.064500	0.403500
O151	O15	0.041100	0.197300	0.742300
O161	O16	0.094400	0.092300	0.770200
O171	O17	0.029800	0.815300	0.520300
O181	O18	0.096900	0.816500	0.408800
O191	O19	0.103800	0.303600	0.651900
O201	O20	0.215200	0.377900	0.611400
O211	O21	0.370600	0.629500	0.827000
O221	O22	0.454700	0.616000	0.928000
O231	O23	0.386500	0.331800	0.942400
O241	O24	0.207700	0.293100	0.905900
O251	O25	0.283300	0.186900	0.992700
O261	O26	0.229900	0.064500	0.903500
O271	O27	0.458900	0.197300	0.242300
O281	O28	0.405600	0.092300	0.270200
O291	O29	0.470200	0.815300	0.020300
O301	O30	0.403100	0.816500	0.908800
O311	O31	0.396200	0.303600	0.151900
O321	O32	0.284800	0.377900	0.111400
O331	O33	0.129400	0.629500	0.327000
O341	O34	0.045300	0.616000	0.428000
O351	O35	0.113500	0.331800	0.442400
O361	O36	0.292300	0.293100	0.405900
O371	O37	0.783300	0.813100	0.507300
O381	O38	0.729900	0.935500	0.596500
O391	O39	0.958900	0.802700	0.257700
O401	O40	0.905600	0.907700	0.229800
O411	O41	0.970200	0.184700	0.479700
O421	O42	0.903100	0.183500	0.591200
O431	O43	0.896200	0.696400	0.348100
O441	O44	0.784800	0.622100	0.388600
O451	O45	0.629400	0.370500	0.173000
O461	O46	0.545300	0.384000	0.072000
O471	O47	0.613500	0.668200	0.057600
O481	O48	0.792300	0.706900	0.094100
