data_DEPYED_clean_PM
_symmetry_space_group_name_H-M	'P1'
_cell_length_a	26.379700
_cell_length_b	14.437800
_cell_length_c	25.423100
_cell_angle_alpha	90.000000
_cell_angle_beta	113.631000
_cell_angle_gamma	90.000000
_symmetry_Int_Tables_number 1

loop_
_symmetry_equiv_pos_as_xyz
'x,y,z'

loop_
_atom_site_label
_atom_site_type_symbol
_atom_site_fract_x
_atom_site_fract_y
_atom_site_fract_z
Sm11	Sm1	0.213760	0.635000	0.310060
Sm21	Sm2	0.164960	0.414390	0.197940
C11	C1	0.306900	0.356300	0.225800
C21	C2	0.342800	0.439400	0.240300
C31	C3	0.390600	0.443900	0.230500
H11	H1	0.403000	0.391600	0.217800
C41	C4	0.419800	0.524400	0.239300
H21	H2	0.451300	0.526800	0.231400
C51	C5	0.403500	0.602500	0.259500
H31	H3	0.423400	0.657300	0.264800
C61	C6	0.356700	0.598100	0.272100
C71	C7	0.327400	0.515900	0.262200
H41	H4	0.296300	0.512500	0.270800
C81	C8	0.336500	0.681600	0.294800
C91	C9	0.251100	0.446300	0.352300
C101	C10	0.274500	0.355100	0.379700
C111	C11	0.299100	0.347500	0.438700
H51	H5	0.299900	0.397500	0.462000
C121	C12	0.322900	0.263000	0.462500
H61	H6	0.338200	0.256700	0.502200
C131	C13	0.324600	0.188500	0.429400
H71	H7	0.341700	0.133600	0.446500
C141	C14	0.300200	0.197100	0.370100
C151	C15	0.275200	0.280400	0.345500
H81	H8	0.258900	0.286100	0.305700
C161	C16	0.299900	0.117300	0.332800
C171	C17	0.153200	0.652300	0.403400
C181	C18	0.121700	0.601000	0.432200
C191	C19	0.083300	0.530300	0.404400
H91	H9	0.076900	0.513600	0.367000
C201	C20	0.055300	0.486300	0.432500
H101	H10	0.029900	0.440100	0.413800
C211	C21	0.064500	0.509600	0.488200
H111	H11	0.045000	0.479500	0.506700
C221	C22	0.102300	0.577600	0.516700
C231	C23	0.129500	0.624500	0.487300
H121	H12	0.153400	0.672800	0.505500
C241	C24	0.115900	0.600400	0.578600
C251	C25	0.087600	0.517000	0.234000
C261	C26	0.042800	0.568600	0.243700
C271	C27	0.042300	0.664900	0.244700
H131	H13	0.071500	0.697400	0.241800
O11	O1	0.328000	0.280200	0.222000
O21	O2	0.255800	0.365500	0.216900
O31	O3	0.304300	0.668400	0.319200
O41	O4	0.353800	0.760400	0.286500
O51	O5	0.217600	0.450000	0.299500
O61	O6	0.265200	0.517900	0.381900
O71	O7	0.316300	0.040500	0.354500
O81	O8	0.282200	0.132600	0.279800
O91	O9	0.155500	0.614800	0.358600
O101	O10	0.175700	0.725900	0.425100
O111	O11	0.159500	0.645800	0.606000
O121	O12	0.086800	0.570000	0.603000
O131	O13	0.129700	0.563000	0.234000
O141	O14	0.083800	0.432400	0.225000
Sm31	Sm3	0.713760	0.135000	0.310060
Sm41	Sm4	0.664960	0.914390	0.197940
C281	C28	0.806900	0.856300	0.225800
C291	C29	0.842800	0.939400	0.240300
C301	C30	0.890600	0.943900	0.230500
H141	H14	0.903000	0.891600	0.217800
C311	C31	0.919800	0.024400	0.239300
H151	H15	0.951300	0.026800	0.231400
C321	C32	0.903500	0.102500	0.259500
H161	H16	0.923400	0.157300	0.264800
C331	C33	0.856700	0.098100	0.272100
C341	C34	0.827400	0.015900	0.262200
H171	H17	0.796300	0.012500	0.270800
C351	C35	0.836500	0.181600	0.294800
C361	C36	0.751100	0.946300	0.352300
C371	C37	0.774500	0.855100	0.379700
C381	C38	0.799100	0.847500	0.438700
H181	H18	0.799900	0.897500	0.462000
C391	C39	0.822900	0.763000	0.462500
H191	H19	0.838200	0.756700	0.502200
C401	C40	0.824600	0.688500	0.429400
H201	H20	0.841700	0.633600	0.446500
C411	C41	0.800200	0.697100	0.370100
C421	C42	0.775200	0.780400	0.345500
H211	H21	0.758900	0.786100	0.305700
C431	C43	0.799900	0.617300	0.332800
C441	C44	0.653200	0.152300	0.403400
C451	C45	0.621700	0.101000	0.432200
C461	C46	0.583300	0.030300	0.404400
H221	H22	0.576900	0.013600	0.367000
C471	C47	0.555300	0.986300	0.432500
H231	H23	0.529900	0.940100	0.413800
C481	C48	0.564500	0.009600	0.488200
H241	H24	0.545000	0.979500	0.506700
C491	C49	0.602300	0.077600	0.516700
C501	C50	0.629500	0.124500	0.487300
H251	H25	0.653400	0.172800	0.505500
C511	C51	0.615900	0.100400	0.578600
C521	C52	0.587600	0.017000	0.234000
C531	C53	0.542800	0.068600	0.243700
C541	C54	0.542300	0.164900	0.244700
H261	H26	0.571500	0.197400	0.241800
O151	O15	0.828000	0.780200	0.222000
O161	O16	0.755800	0.865500	0.216900
O171	O17	0.804300	0.168400	0.319200
O181	O18	0.853800	0.260400	0.286500
O191	O19	0.717600	0.950000	0.299500
O201	O20	0.765200	0.017900	0.381900
O211	O21	0.816300	0.540500	0.354500
O221	O22	0.782200	0.632600	0.279800
O231	O23	0.655500	0.114800	0.358600
O241	O24	0.675700	0.225900	0.425100
O251	O25	0.659500	0.145800	0.606000
O261	O26	0.586800	0.070000	0.603000
O271	O27	0.629700	0.063000	0.234000
O281	O28	0.583800	0.932400	0.225000
Sm51	Sm5	0.786240	0.635000	0.189940
Sm61	Sm6	0.835040	0.414390	0.302060
C551	C55	0.693100	0.356300	0.274200
C561	C56	0.657200	0.439400	0.259700
C571	C57	0.609400	0.443900	0.269500
H271	H27	0.597000	0.391600	0.282200
C581	C58	0.580200	0.524400	0.260700
H281	H28	0.548700	0.526800	0.268600
C591	C59	0.596500	0.602500	0.240500
H291	H29	0.576600	0.657300	0.235200
C601	C60	0.643300	0.598100	0.227900
C611	C61	0.672600	0.515900	0.237800
H301	H30	0.703700	0.512500	0.229200
C621	C62	0.663500	0.681600	0.205200
C631	C63	0.748900	0.446300	0.147700
C641	C64	0.725500	0.355100	0.120300
C651	C65	0.700900	0.347500	0.061300
H311	H31	0.700100	0.397500	0.038000
C661	C66	0.677100	0.263000	0.037500
H321	H32	0.661800	0.256700	0.997800
C671	C67	0.675400	0.188500	0.070600
H331	H33	0.658300	0.133600	0.053500
C681	C68	0.699800	0.197100	0.129900
C691	C69	0.724800	0.280400	0.154500
H341	H34	0.741100	0.286100	0.194300
C701	C70	0.700100	0.117300	0.167200
C711	C71	0.846800	0.652300	0.096600
C721	C72	0.878300	0.601000	0.067800
C731	C73	0.916700	0.530300	0.095600
H351	H35	0.923100	0.513600	0.133000
C741	C74	0.944700	0.486300	0.067500
H361	H36	0.970100	0.440100	0.086200
C751	C75	0.935500	0.509600	0.011800
H371	H37	0.955000	0.479500	0.993300
C761	C76	0.897700	0.577600	0.983300
C771	C77	0.870500	0.624500	0.012700
H381	H38	0.846600	0.672800	0.994500
C781	C78	0.884100	0.600400	0.921400
C791	C79	0.912400	0.517000	0.266000
C801	C80	0.957200	0.568600	0.256300
C811	C81	0.957700	0.664900	0.255300
H391	H39	0.928500	0.697400	0.258200
O291	O29	0.672000	0.280200	0.278000
O301	O30	0.744200	0.365500	0.283100
O311	O31	0.695700	0.668400	0.180800
O321	O32	0.646200	0.760400	0.213500
O331	O33	0.782400	0.450000	0.200500
O341	O34	0.734800	0.517900	0.118100
O351	O35	0.683700	0.040500	0.145500
O361	O36	0.717800	0.132600	0.220200
O371	O37	0.844500	0.614800	0.141400
O381	O38	0.824300	0.725900	0.074900
O391	O39	0.840500	0.645800	0.894000
O401	O40	0.913200	0.570000	0.897000
O411	O41	0.870300	0.563000	0.266000
O421	O42	0.916200	0.432400	0.275000
Sm71	Sm7	0.286240	0.135000	0.189940
Sm81	Sm8	0.335040	0.914390	0.302060
C821	C82	0.193100	0.856300	0.274200
C831	C83	0.157200	0.939400	0.259700
C841	C84	0.109400	0.943900	0.269500
H401	H40	0.097000	0.891600	0.282200
C851	C85	0.080200	0.024400	0.260700
H411	H41	0.048700	0.026800	0.268600
C861	C86	0.096500	0.102500	0.240500
H421	H42	0.076600	0.157300	0.235200
C871	C87	0.143300	0.098100	0.227900
C881	C88	0.172600	0.015900	0.237800
H431	H43	0.203700	0.012500	0.229200
C891	C89	0.163500	0.181600	0.205200
C901	C90	0.248900	0.946300	0.147700
C911	C91	0.225500	0.855100	0.120300
C921	C92	0.200900	0.847500	0.061300
H441	H44	0.200100	0.897500	0.038000
C931	C93	0.177100	0.763000	0.037500
H451	H45	0.161800	0.756700	0.997800
C941	C94	0.175400	0.688500	0.070600
H461	H46	0.158300	0.633600	0.053500
C951	C95	0.199800	0.697100	0.129900
C961	C96	0.224800	0.780400	0.154500
H471	H47	0.241100	0.786100	0.194300
C971	C97	0.200100	0.617300	0.167200
C981	C98	0.346800	0.152300	0.096600
C991	C99	0.378300	0.101000	0.067800
C1001	C100	0.416700	0.030300	0.095600
H481	H48	0.423100	0.013600	0.133000
C1011	C101	0.444700	0.986300	0.067500
H491	H49	0.470100	0.940100	0.086200
C1021	C102	0.435500	0.009600	0.011800
H501	H50	0.455000	0.979500	0.993300
C1031	C103	0.397700	0.077600	0.983300
C1041	C104	0.370500	0.124500	0.012700
H511	H51	0.346600	0.172800	0.994500
C1051	C105	0.384100	0.100400	0.921400
C1061	C106	0.412400	0.017000	0.266000
C1071	C107	0.457200	0.068600	0.256300
C1081	C108	0.457700	0.164900	0.255300
H521	H52	0.428500	0.197400	0.258200
O431	O43	0.172000	0.780200	0.278000
O441	O44	0.244200	0.865500	0.283100
O451	O45	0.195700	0.168400	0.180800
O461	O46	0.146200	0.260400	0.213500
O471	O47	0.282400	0.950000	0.200500
O481	O48	0.234800	0.017900	0.118100
O491	O49	0.183700	0.540500	0.145500
O501	O50	0.217800	0.632600	0.220200
O511	O51	0.344500	0.114800	0.141400
O521	O52	0.324300	0.225900	0.074900
O531	O53	0.340500	0.145800	0.894000
O541	O54	0.413200	0.070000	0.897000
O551	O55	0.370300	0.063000	0.266000
O561	O56	0.416200	0.932400	0.275000
Sm91	Sm9	0.786240	0.365000	0.689940
Sm101	Sm10	0.835040	0.585610	0.802060
C1091	C109	0.693100	0.643700	0.774200
C1101	C110	0.657200	0.560600	0.759700
C1111	C111	0.609400	0.556100	0.769500
H531	H53	0.597000	0.608400	0.782200
C1121	C112	0.580200	0.475600	0.760700
H541	H54	0.548700	0.473200	0.768600
C1131	C113	0.596500	0.397500	0.740500
H551	H55	0.576600	0.342700	0.735200
C1141	C114	0.643300	0.401900	0.727900
C1151	C115	0.672600	0.484100	0.737800
H561	H56	0.703700	0.487500	0.729200
C1161	C116	0.663500	0.318400	0.705200
C1171	C117	0.748900	0.553700	0.647700
C1181	C118	0.725500	0.644900	0.620300
C1191	C119	0.700900	0.652500	0.561300
H571	H57	0.700100	0.602500	0.538000
C1201	C120	0.677100	0.737000	0.537500
H581	H58	0.661800	0.743300	0.497800
C1211	C121	0.675400	0.811500	0.570600
H591	H59	0.658300	0.866400	0.553500
C1221	C122	0.699800	0.802900	0.629900
C1231	C123	0.724800	0.719600	0.654500
H601	H60	0.741100	0.713900	0.694300
C1241	C124	0.700100	0.882700	0.667200
C1251	C125	0.846800	0.347700	0.596600
C1261	C126	0.878300	0.399000	0.567800
C1271	C127	0.916700	0.469700	0.595600
H611	H61	0.923100	0.486400	0.633000
C1281	C128	0.944700	0.513700	0.567500
H621	H62	0.970100	0.559900	0.586200
C1291	C129	0.935500	0.490400	0.511800
H631	H63	0.955000	0.520500	0.493300
C1301	C130	0.897700	0.422400	0.483300
C1311	C131	0.870500	0.375500	0.512700
H641	H64	0.846600	0.327200	0.494500
C1321	C132	0.884100	0.399600	0.421400
C1331	C133	0.912400	0.483000	0.766000
C1341	C134	0.957200	0.431400	0.756300
C1351	C135	0.957700	0.335100	0.755300
H651	H65	0.928500	0.302600	0.758200
O571	O57	0.672000	0.719800	0.778000
O581	O58	0.744200	0.634500	0.783100
O591	O59	0.695700	0.331600	0.680800
O601	O60	0.646200	0.239600	0.713500
O611	O61	0.782400	0.550000	0.700500
O621	O62	0.734800	0.482100	0.618100
O631	O63	0.683700	0.959500	0.645500
O641	O64	0.717800	0.867400	0.720200
O651	O65	0.844500	0.385200	0.641400
O661	O66	0.824300	0.274100	0.574900
O671	O67	0.840500	0.354200	0.394000
O681	O68	0.913200	0.430000	0.397000
O691	O69	0.870300	0.437000	0.766000
O701	O70	0.916200	0.567600	0.775000
Sm111	Sm11	0.286240	0.865000	0.689940
Sm121	Sm12	0.335040	0.085610	0.802060
C1361	C136	0.193100	0.143700	0.774200
C1371	C137	0.157200	0.060600	0.759700
C1381	C138	0.109400	0.056100	0.769500
H661	H66	0.097000	0.108400	0.782200
C1391	C139	0.080200	0.975600	0.760700
H671	H67	0.048700	0.973200	0.768600
C1401	C140	0.096500	0.897500	0.740500
H681	H68	0.076600	0.842700	0.735200
C1411	C141	0.143300	0.901900	0.727900
C1421	C142	0.172600	0.984100	0.737800
H691	H69	0.203700	0.987500	0.729200
C1431	C143	0.163500	0.818400	0.705200
C1441	C144	0.248900	0.053700	0.647700
C1451	C145	0.225500	0.144900	0.620300
C1461	C146	0.200900	0.152500	0.561300
H701	H70	0.200100	0.102500	0.538000
C1471	C147	0.177100	0.237000	0.537500
H711	H71	0.161800	0.243300	0.497800
C1481	C148	0.175400	0.311500	0.570600
H721	H72	0.158300	0.366400	0.553500
C1491	C149	0.199800	0.302900	0.629900
C1501	C150	0.224800	0.219600	0.654500
H731	H73	0.241100	0.213900	0.694300
C1511	C151	0.200100	0.382700	0.667200
C1521	C152	0.346800	0.847700	0.596600
C1531	C153	0.378300	0.899000	0.567800
C1541	C154	0.416700	0.969700	0.595600
H741	H74	0.423100	0.986400	0.633000
C1551	C155	0.444700	0.013700	0.567500
H751	H75	0.470100	0.059900	0.586200
C1561	C156	0.435500	0.990400	0.511800
H761	H76	0.455000	0.020500	0.493300
C1571	C157	0.397700	0.922400	0.483300
C1581	C158	0.370500	0.875500	0.512700
H771	H77	0.346600	0.827200	0.494500
C1591	C159	0.384100	0.899600	0.421400
C1601	C160	0.412400	0.983000	0.766000
C1611	C161	0.457200	0.931400	0.756300
C1621	C162	0.457700	0.835100	0.755300
H781	H78	0.428500	0.802600	0.758200
O711	O71	0.172000	0.219800	0.778000
O721	O72	0.244200	0.134500	0.783100
O731	O73	0.195700	0.831600	0.680800
O741	O74	0.146200	0.739600	0.713500
O751	O75	0.282400	0.050000	0.700500
O761	O76	0.234800	0.982100	0.618100
O771	O77	0.183700	0.459500	0.645500
O781	O78	0.217800	0.367400	0.720200
O791	O79	0.344500	0.885200	0.641400
O801	O80	0.324300	0.774100	0.574900
O811	O81	0.340500	0.854200	0.394000
O821	O82	0.413200	0.930000	0.397000
O831	O83	0.370300	0.937000	0.766000
O841	O84	0.416200	0.067600	0.775000
Sm131	Sm13	0.213760	0.365000	0.810060
Sm141	Sm14	0.164960	0.585610	0.697940
C1631	C163	0.306900	0.643700	0.725800
C1641	C164	0.342800	0.560600	0.740300
C1651	C165	0.390600	0.556100	0.730500
H791	H79	0.403000	0.608400	0.717800
C1661	C166	0.419800	0.475600	0.739300
H801	H80	0.451300	0.473200	0.731400
C1671	C167	0.403500	0.397500	0.759500
H811	H81	0.423400	0.342700	0.764800
C1681	C168	0.356700	0.401900	0.772100
C1691	C169	0.327400	0.484100	0.762200
H821	H82	0.296300	0.487500	0.770800
C1701	C170	0.336500	0.318400	0.794800
C1711	C171	0.251100	0.553700	0.852300
C1721	C172	0.274500	0.644900	0.879700
C1731	C173	0.299100	0.652500	0.938700
H831	H83	0.299900	0.602500	0.962000
C1741	C174	0.322900	0.737000	0.962500
H841	H84	0.338200	0.743300	0.002200
C1751	C175	0.324600	0.811500	0.929400
H851	H85	0.341700	0.866400	0.946500
C1761	C176	0.300200	0.802900	0.870100
C1771	C177	0.275200	0.719600	0.845500
H861	H86	0.258900	0.713900	0.805700
C1781	C178	0.299900	0.882700	0.832800
C1791	C179	0.153200	0.347700	0.903400
C1801	C180	0.121700	0.399000	0.932200
C1811	C181	0.083300	0.469700	0.904400
H871	H87	0.076900	0.486400	0.867000
C1821	C182	0.055300	0.513700	0.932500
H881	H88	0.029900	0.559900	0.913800
C1831	C183	0.064500	0.490400	0.988200
H891	H89	0.045000	0.520500	0.006700
C1841	C184	0.102300	0.422400	0.016700
C1851	C185	0.129500	0.375500	0.987300
H901	H90	0.153400	0.327200	0.005500
C1861	C186	0.115900	0.399600	0.078600
C1871	C187	0.087600	0.483000	0.734000
C1881	C188	0.042800	0.431400	0.743700
C1891	C189	0.042300	0.335100	0.744700
H911	H91	0.071500	0.302600	0.741800
O851	O85	0.328000	0.719800	0.722000
O861	O86	0.255800	0.634500	0.716900
O871	O87	0.304300	0.331600	0.819200
O881	O88	0.353800	0.239600	0.786500
O891	O89	0.217600	0.550000	0.799500
O901	O90	0.265200	0.482100	0.881900
O911	O91	0.316300	0.959500	0.854500
O921	O92	0.282200	0.867400	0.779800
O931	O93	0.155500	0.385200	0.858600
O941	O94	0.175700	0.274100	0.925100
O951	O95	0.159500	0.354200	0.106000
O961	O96	0.086800	0.430000	0.103000
O971	O97	0.129700	0.437000	0.734000
O981	O98	0.083800	0.567600	0.725000
Sm151	Sm15	0.713760	0.865000	0.810060
Sm161	Sm16	0.664960	0.085610	0.697940
C1901	C190	0.806900	0.143700	0.725800
C1911	C191	0.842800	0.060600	0.740300
C1921	C192	0.890600	0.056100	0.730500
H921	H92	0.903000	0.108400	0.717800
C1931	C193	0.919800	0.975600	0.739300
H931	H93	0.951300	0.973200	0.731400
C1941	C194	0.903500	0.897500	0.759500
H941	H94	0.923400	0.842700	0.764800
C1951	C195	0.856700	0.901900	0.772100
C1961	C196	0.827400	0.984100	0.762200
H951	H95	0.796300	0.987500	0.770800
C1971	C197	0.836500	0.818400	0.794800
C1981	C198	0.751100	0.053700	0.852300
C1991	C199	0.774500	0.144900	0.879700
C2001	C200	0.799100	0.152500	0.938700
H961	H96	0.799900	0.102500	0.962000
C2011	C201	0.822900	0.237000	0.962500
H971	H97	0.838200	0.243300	0.002200
C2021	C202	0.824600	0.311500	0.929400
H981	H98	0.841700	0.366400	0.946500
C2031	C203	0.800200	0.302900	0.870100
C2041	C204	0.775200	0.219600	0.845500
H991	H99	0.758900	0.213900	0.805700
C2051	C205	0.799900	0.382700	0.832800
C2061	C206	0.653200	0.847700	0.903400
C2071	C207	0.621700	0.899000	0.932200
C2081	C208	0.583300	0.969700	0.904400
H1001	H100	0.576900	0.986400	0.867000
C2091	C209	0.555300	0.013700	0.932500
H1011	H101	0.529900	0.059900	0.913800
C2101	C210	0.564500	0.990400	0.988200
H1021	H102	0.545000	0.020500	0.006700
C2111	C211	0.602300	0.922400	0.016700
C2121	C212	0.629500	0.875500	0.987300
H1031	H103	0.653400	0.827200	0.005500
C2131	C213	0.615900	0.899600	0.078600
C2141	C214	0.587600	0.983000	0.734000
C2151	C215	0.542800	0.931400	0.743700
C2161	C216	0.542300	0.835100	0.744700
H1041	H104	0.571500	0.802600	0.741800
O991	O99	0.828000	0.219800	0.722000
O1001	O100	0.755800	0.134500	0.716900
O1011	O101	0.804300	0.831600	0.819200
O1021	O102	0.853800	0.739600	0.786500
O1031	O103	0.717600	0.050000	0.799500
O1041	O104	0.765200	0.982100	0.881900
O1051	O105	0.816300	0.459500	0.854500
O1061	O106	0.782200	0.367400	0.779800
O1071	O107	0.655500	0.885200	0.858600
O1081	O108	0.675700	0.774100	0.925100
O1091	O109	0.659500	0.854200	0.106000
O1101	O110	0.586800	0.930000	0.103000
O1111	O111	0.629700	0.937000	0.734000
O1121	O112	0.583800	0.067600	0.725000
C2171	C217	0.000000	0.712900	0.250000
H1051	H105	0.000000	0.777300	0.250000
C2181	C218	0.000000	0.522000	0.250000
H1061	H106	0.000000	0.457600	0.250000
C2191	C219	0.500000	0.212900	0.250000
H1071	H107	0.500000	0.277300	0.250000
C2201	C220	0.500000	0.022000	0.250000
H1081	H108	0.500000	0.957600	0.250000
C2211	C221	0.000000	0.287100	0.750000
H1091	H109	0.000000	0.222700	0.750000
C2221	C222	0.000000	0.478000	0.750000
H1101	H110	0.000000	0.542400	0.750000
C2231	C223	0.500000	0.787100	0.750000
H1111	H111	0.500000	0.722700	0.750000
C2241	C224	0.500000	0.978000	0.750000
H1121	H112	0.500000	0.042400	0.750000
