data_DEWQUS_clean_PM
_symmetry_space_group_name_H-M	'P1'
_cell_length_a	27.644000
_cell_length_b	16.017000
_cell_length_c	22.902000
_cell_angle_alpha	90.000000
_cell_angle_beta	90.000000
_cell_angle_gamma	90.000000
_symmetry_Int_Tables_number 1

loop_
_symmetry_equiv_pos_as_xyz
'x,y,z'

loop_
_atom_site_label
_atom_site_type_symbol
_atom_site_fract_x
_atom_site_fract_y
_atom_site_fract_z
P11	P1	0.991260	0.188060	0.262470
P21	P2	0.868670	0.780900	0.343510
P31	P3	0.133160	0.796910	0.334760
P41	P4	0.997900	0.933740	0.340070
O11	O1	0.896180	0.024500	0.329780
O21	O2	0.939990	0.032700	0.444360
O31	O3	0.001930	0.739700	0.391000
O41	O4	0.097340	0.036900	0.323080
O51	O5	0.057960	0.040100	0.439970
O61	O6	0.901500	0.875900	0.465900
O71	O7	0.997380	0.028700	0.346880
O81	O8	0.002060	0.872700	0.476090
O91	O9	0.903990	0.745100	0.388020
O101	O10	0.101070	0.887700	0.458390
O111	O11	0.893840	0.780200	0.281570
O121	O12	0.993700	0.917400	0.273860
O131	O13	0.097600	0.757400	0.377780
O141	O14	0.109940	0.797600	0.272300
O151	O15	0.857390	0.873100	0.355390
O161	O16	0.144630	0.888100	0.350710
O171	O17	0.995620	0.167800	0.401010
O181	O18	0.044580	0.899200	0.365940
O191	O19	0.981030	0.279700	0.256200
O201	O20	0.948000	0.149100	0.293230
O211	O21	0.177810	0.744800	0.331320
O221	O22	0.823290	0.729300	0.341130
O231	O23	0.039420	0.168900	0.291840
O241	O24	0.954710	0.895300	0.372160
O251	O25	0.992870	0.146800	0.200200
Mo11	Mo1	0.049380	0.798520	0.438150
Mo21	Mo2	0.109860	0.982020	0.396570
Mo31	Mo3	0.060090	0.113890	0.370140
Mo41	Mo4	0.932930	0.104970	0.374370
Mo51	Mo5	0.889060	0.968580	0.403700
Mo61	Mo6	0.955680	0.792200	0.442710
C11	C1	0.777400	0.697700	0.218300
H11	H1	0.797000	0.660600	0.238600
C21	C2	0.778200	0.696000	0.157500
H21	H2	0.797900	0.658000	0.138200
C31	C3	0.784400	0.711700	0.969300
H31	H3	0.808900	0.684300	0.949000
C41	C4	0.785900	0.710200	0.029000
H41	H4	0.810900	0.682600	0.048200
C51	C5	0.217300	0.707700	0.208800
H51	H5	0.193800	0.678100	0.229200
C61	C6	0.216500	0.705700	0.148100
H61	H6	0.193300	0.674100	0.128800
C71	C7	0.212400	0.723900	0.959700
H71	H7	0.185100	0.706500	0.939100
C81	C8	0.210900	0.720800	0.020000
H81	H8	0.183900	0.699300	0.039000
P51	P5	0.508740	0.311940	0.262470
P61	P6	0.631330	0.719100	0.343510
P71	P7	0.366840	0.703090	0.334760
P81	P8	0.502100	0.566260	0.340070
O261	O26	0.603820	0.475500	0.329780
O271	O27	0.560010	0.467300	0.444360
O281	O28	0.498070	0.760300	0.391000
O291	O29	0.402660	0.463100	0.323080
O301	O30	0.442040	0.459900	0.439970
O311	O31	0.598500	0.624100	0.465900
O321	O32	0.502620	0.471300	0.346880
O331	O33	0.497940	0.627300	0.476090
O341	O34	0.596010	0.754900	0.388020
O351	O35	0.398930	0.612300	0.458390
O361	O36	0.606160	0.719800	0.281570
O371	O37	0.506300	0.582600	0.273860
O381	O38	0.402400	0.742600	0.377780
O391	O39	0.390060	0.702400	0.272300
O401	O40	0.642610	0.626900	0.355390
O411	O41	0.355370	0.611900	0.350710
O421	O42	0.504380	0.332200	0.401010
O431	O43	0.455420	0.600800	0.365940
O441	O44	0.518970	0.220300	0.256200
O451	O45	0.552000	0.350900	0.293230
O461	O46	0.322190	0.755200	0.331320
O471	O47	0.676710	0.770700	0.341130
O481	O48	0.460580	0.331100	0.291840
O491	O49	0.545290	0.604700	0.372160
O501	O50	0.507130	0.353200	0.200200
Mo71	Mo7	0.450620	0.701480	0.438150
Mo81	Mo8	0.390140	0.517980	0.396570
Mo91	Mo9	0.439910	0.386110	0.370140
Mo101	Mo10	0.567070	0.395030	0.374370
Mo111	Mo11	0.610940	0.531420	0.403700
Mo121	Mo12	0.544320	0.707800	0.442710
C91	C9	0.722600	0.802300	0.218300
H91	H9	0.703000	0.839400	0.238600
C101	C10	0.721800	0.804000	0.157500
H101	H10	0.702100	0.842000	0.138200
C111	C11	0.715600	0.788300	0.969300
H111	H11	0.691100	0.815700	0.949000
C121	C12	0.714100	0.789800	0.029000
H121	H12	0.689100	0.817400	0.048200
C131	C13	0.282700	0.792300	0.208800
H131	H13	0.306200	0.821900	0.229200
C141	C14	0.283500	0.794300	0.148100
H141	H14	0.306700	0.825900	0.128800
C151	C15	0.287600	0.776100	0.959700
H151	H15	0.314900	0.793500	0.939100
C161	C16	0.289100	0.779200	0.020000
H161	H16	0.316100	0.800700	0.039000
P91	P9	0.008740	0.688060	0.237530
P101	P10	0.131330	0.280900	0.156490
P111	P11	0.866840	0.296910	0.165240
P121	P12	0.002100	0.433740	0.159930
O511	O51	0.103820	0.524500	0.170220
O521	O52	0.060010	0.532700	0.055640
O531	O53	0.998070	0.239700	0.109000
O541	O54	0.902660	0.536900	0.176920
O551	O55	0.942040	0.540100	0.060030
O561	O56	0.098500	0.375900	0.034100
O571	O57	0.002620	0.528700	0.153120
O581	O58	0.997940	0.372700	0.023910
O591	O59	0.096010	0.245100	0.111980
O601	O60	0.898930	0.387700	0.041610
O611	O61	0.106160	0.280200	0.218430
O621	O62	0.006300	0.417400	0.226140
O631	O63	0.902400	0.257400	0.122220
O641	O64	0.890060	0.297600	0.227700
O651	O65	0.142610	0.373100	0.144610
O661	O66	0.855370	0.388100	0.149290
O671	O67	0.004380	0.667800	0.098990
O681	O68	0.955420	0.399200	0.134060
O691	O69	0.018970	0.779700	0.243800
O701	O70	0.052000	0.649100	0.206770
O711	O71	0.822190	0.244800	0.168680
O721	O72	0.176710	0.229300	0.158870
O731	O73	0.960580	0.668900	0.208160
O741	O74	0.045290	0.395300	0.127840
O751	O75	0.007130	0.646800	0.299800
Mo131	Mo13	0.950620	0.298520	0.061850
Mo141	Mo14	0.890140	0.482020	0.103430
Mo151	Mo15	0.939910	0.613890	0.129860
Mo161	Mo16	0.067070	0.604970	0.125630
Mo171	Mo17	0.110940	0.468580	0.096300
Mo181	Mo18	0.044320	0.292200	0.057290
C171	C17	0.222600	0.197700	0.281700
H171	H17	0.203000	0.160600	0.261400
C181	C18	0.221800	0.196000	0.342500
H181	H18	0.202100	0.158000	0.361800
C191	C19	0.215600	0.211700	0.530700
H191	H19	0.191100	0.184300	0.551000
C201	C20	0.214100	0.210200	0.471000
H201	H20	0.189100	0.182600	0.451800
C211	C21	0.782700	0.207700	0.291200
H211	H21	0.806200	0.178100	0.270800
C221	C22	0.783500	0.205700	0.351900
H221	H22	0.806700	0.174100	0.371200
C231	C23	0.787600	0.223900	0.540300
H231	H23	0.814900	0.206500	0.560900
C241	C24	0.789100	0.220800	0.480000
H241	H24	0.816100	0.199300	0.461000
P131	P13	0.491260	0.811940	0.237530
P141	P14	0.368670	0.219100	0.156490
P151	P15	0.633160	0.203090	0.165240
P161	P16	0.497900	0.066260	0.159930
O761	O76	0.396180	0.975500	0.170220
O771	O77	0.439990	0.967300	0.055640
O781	O78	0.501930	0.260300	0.109000
O791	O79	0.597340	0.963100	0.176920
O801	O80	0.557960	0.959900	0.060030
O811	O81	0.401500	0.124100	0.034100
O821	O82	0.497380	0.971300	0.153120
O831	O83	0.502060	0.127300	0.023910
O841	O84	0.403990	0.254900	0.111980
O851	O85	0.601070	0.112300	0.041610
O861	O86	0.393840	0.219800	0.218430
O871	O87	0.493700	0.082600	0.226140
O881	O88	0.597600	0.242600	0.122220
O891	O89	0.609940	0.202400	0.227700
O901	O90	0.357390	0.126900	0.144610
O911	O91	0.644630	0.111900	0.149290
O921	O92	0.495620	0.832200	0.098990
O931	O93	0.544580	0.100800	0.134060
O941	O94	0.481030	0.720300	0.243800
O951	O95	0.448000	0.850900	0.206770
O961	O96	0.677810	0.255200	0.168680
O971	O97	0.323290	0.270700	0.158870
O981	O98	0.539420	0.831100	0.208160
O991	O99	0.454710	0.104700	0.127840
O1001	O100	0.492870	0.853200	0.299800
Mo191	Mo19	0.549380	0.201480	0.061850
Mo201	Mo20	0.609860	0.017980	0.103430
Mo211	Mo21	0.560090	0.886110	0.129860
Mo221	Mo22	0.432930	0.895030	0.125630
Mo231	Mo23	0.389060	0.031420	0.096300
Mo241	Mo24	0.455680	0.207800	0.057290
C251	C25	0.277400	0.302300	0.281700
H251	H25	0.297000	0.339400	0.261400
C261	C26	0.278200	0.304000	0.342500
H261	H26	0.297900	0.342000	0.361800
C271	C27	0.284400	0.288300	0.530700
H271	H27	0.308900	0.315700	0.551000
C281	C28	0.285900	0.289800	0.471000
H281	H28	0.310900	0.317400	0.451800
C291	C29	0.717300	0.292300	0.291200
H291	H29	0.693800	0.321900	0.270800
C301	C30	0.716500	0.294300	0.351900
H301	H30	0.693300	0.325900	0.371200
C311	C31	0.712400	0.276100	0.540300
H311	H31	0.685100	0.293500	0.560900
C321	C32	0.710900	0.279200	0.480000
H321	H32	0.683900	0.300700	0.461000
P171	P17	0.008740	0.811940	0.737530
P181	P18	0.131330	0.219100	0.656490
P191	P19	0.866840	0.203090	0.665240
P201	P20	0.002100	0.066260	0.659930
O1011	O101	0.103820	0.975500	0.670220
O1021	O102	0.060010	0.967300	0.555640
O1031	O103	0.998070	0.260300	0.609000
O1041	O104	0.902660	0.963100	0.676920
O1051	O105	0.942040	0.959900	0.560030
O1061	O106	0.098500	0.124100	0.534100
O1071	O107	0.002620	0.971300	0.653120
O1081	O108	0.997940	0.127300	0.523910
O1091	O109	0.096010	0.254900	0.611980
O1101	O110	0.898930	0.112300	0.541610
O1111	O111	0.106160	0.219800	0.718430
O1121	O112	0.006300	0.082600	0.726140
O1131	O113	0.902400	0.242600	0.622220
O1141	O114	0.890060	0.202400	0.727700
O1151	O115	0.142610	0.126900	0.644610
O1161	O116	0.855370	0.111900	0.649290
O1171	O117	0.004380	0.832200	0.598990
O1181	O118	0.955420	0.100800	0.634060
O1191	O119	0.018970	0.720300	0.743800
O1201	O120	0.052000	0.850900	0.706770
O1211	O121	0.822190	0.255200	0.668680
O1221	O122	0.176710	0.270700	0.658870
O1231	O123	0.960580	0.831100	0.708160
O1241	O124	0.045290	0.104700	0.627840
O1251	O125	0.007130	0.853200	0.799800
Mo251	Mo25	0.950620	0.201480	0.561850
Mo261	Mo26	0.890140	0.017980	0.603430
Mo271	Mo27	0.939910	0.886110	0.629860
Mo281	Mo28	0.067070	0.895030	0.625630
Mo291	Mo29	0.110940	0.031420	0.596300
Mo301	Mo30	0.044320	0.207800	0.557290
C331	C33	0.222600	0.302300	0.781700
H331	H33	0.203000	0.339400	0.761400
C341	C34	0.221800	0.304000	0.842500
H341	H34	0.202100	0.342000	0.861800
C351	C35	0.215600	0.288300	0.030700
H351	H35	0.191100	0.315700	0.051000
C361	C36	0.214100	0.289800	0.971000
H361	H36	0.189100	0.317400	0.951800
C371	C37	0.782700	0.292300	0.791200
H371	H37	0.806200	0.321900	0.770800
C381	C38	0.783500	0.294300	0.851900
H381	H38	0.806700	0.325900	0.871200
C391	C39	0.787600	0.276100	0.040300
H391	H39	0.814900	0.293500	0.060900
C401	C40	0.789100	0.279200	0.980000
H401	H40	0.816100	0.300700	0.961000
P211	P21	0.491260	0.688060	0.737530
P221	P22	0.368670	0.280900	0.656490
P231	P23	0.633160	0.296910	0.665240
P241	P24	0.497900	0.433740	0.659930
O1261	O126	0.396180	0.524500	0.670220
O1271	O127	0.439990	0.532700	0.555640
O1281	O128	0.501930	0.239700	0.609000
O1291	O129	0.597340	0.536900	0.676920
O1301	O130	0.557960	0.540100	0.560030
O1311	O131	0.401500	0.375900	0.534100
O1321	O132	0.497380	0.528700	0.653120
O1331	O133	0.502060	0.372700	0.523910
O1341	O134	0.403990	0.245100	0.611980
O1351	O135	0.601070	0.387700	0.541610
O1361	O136	0.393840	0.280200	0.718430
O1371	O137	0.493700	0.417400	0.726140
O1381	O138	0.597600	0.257400	0.622220
O1391	O139	0.609940	0.297600	0.727700
O1401	O140	0.357390	0.373100	0.644610
O1411	O141	0.644630	0.388100	0.649290
O1421	O142	0.495620	0.667800	0.598990
O1431	O143	0.544580	0.399200	0.634060
O1441	O144	0.481030	0.779700	0.743800
O1451	O145	0.448000	0.649100	0.706770
O1461	O146	0.677810	0.244800	0.668680
O1471	O147	0.323290	0.229300	0.658870
O1481	O148	0.539420	0.668900	0.708160
O1491	O149	0.454710	0.395300	0.627840
O1501	O150	0.492870	0.646800	0.799800
Mo311	Mo31	0.549380	0.298520	0.561850
Mo321	Mo32	0.609860	0.482020	0.603430
Mo331	Mo33	0.560090	0.613890	0.629860
Mo341	Mo34	0.432930	0.604970	0.625630
Mo351	Mo35	0.389060	0.468580	0.596300
Mo361	Mo36	0.455680	0.292200	0.557290
C411	C41	0.277400	0.197700	0.781700
H411	H41	0.297000	0.160600	0.761400
C421	C42	0.278200	0.196000	0.842500
H421	H42	0.297900	0.158000	0.861800
C431	C43	0.284400	0.211700	0.030700
H431	H43	0.308900	0.184300	0.051000
C441	C44	0.285900	0.210200	0.971000
H441	H44	0.310900	0.182600	0.951800
C451	C45	0.717300	0.207700	0.791200
H451	H45	0.693800	0.178100	0.770800
C461	C46	0.716500	0.205700	0.851900
H461	H46	0.693300	0.174100	0.871200
C471	C47	0.712400	0.223900	0.040300
H471	H47	0.685100	0.206500	0.060900
C481	C48	0.710900	0.220800	0.980000
H481	H48	0.683900	0.199300	0.961000
P251	P25	0.991260	0.311940	0.762470
P261	P26	0.868670	0.719100	0.843510
P271	P27	0.133160	0.703090	0.834760
P281	P28	0.997900	0.566260	0.840070
O1511	O151	0.896180	0.475500	0.829780
O1521	O152	0.939990	0.467300	0.944360
O1531	O153	0.001930	0.760300	0.891000
O1541	O154	0.097340	0.463100	0.823080
O1551	O155	0.057960	0.459900	0.939970
O1561	O156	0.901500	0.624100	0.965900
O1571	O157	0.997380	0.471300	0.846880
O1581	O158	0.002060	0.627300	0.976090
O1591	O159	0.903990	0.754900	0.888020
O1601	O160	0.101070	0.612300	0.958390
O1611	O161	0.893840	0.719800	0.781570
O1621	O162	0.993700	0.582600	0.773860
O1631	O163	0.097600	0.742600	0.877780
O1641	O164	0.109940	0.702400	0.772300
O1651	O165	0.857390	0.626900	0.855390
O1661	O166	0.144630	0.611900	0.850710
O1671	O167	0.995620	0.332200	0.901010
O1681	O168	0.044580	0.600800	0.865940
O1691	O169	0.981030	0.220300	0.756200
O1701	O170	0.948000	0.350900	0.793230
O1711	O171	0.177810	0.755200	0.831320
O1721	O172	0.823290	0.770700	0.841130
O1731	O173	0.039420	0.331100	0.791840
O1741	O174	0.954710	0.604700	0.872160
O1751	O175	0.992870	0.353200	0.700200
Mo371	Mo37	0.049380	0.701480	0.938150
Mo381	Mo38	0.109860	0.517980	0.896570
Mo391	Mo39	0.060090	0.386110	0.870140
Mo401	Mo40	0.932930	0.395030	0.874370
Mo411	Mo41	0.889060	0.531420	0.903700
Mo421	Mo42	0.955680	0.707800	0.942710
C491	C49	0.777400	0.802300	0.718300
H491	H49	0.797000	0.839400	0.738600
C501	C50	0.778200	0.804000	0.657500
H501	H50	0.797900	0.842000	0.638200
C511	C51	0.784400	0.788300	0.469300
H511	H51	0.808900	0.815700	0.449000
C521	C52	0.785900	0.789800	0.529000
H521	H52	0.810900	0.817400	0.548200
C531	C53	0.217300	0.792300	0.708800
H531	H53	0.193800	0.821900	0.729200
C541	C54	0.216500	0.794300	0.648100
H541	H54	0.193300	0.825900	0.628800
C551	C55	0.212400	0.776100	0.459700
H551	H55	0.185100	0.793500	0.439100
C561	C56	0.210900	0.779200	0.520000
H561	H56	0.183900	0.800700	0.539000
P291	P29	0.508740	0.188060	0.762470
P301	P30	0.631330	0.780900	0.843510
P311	P31	0.366840	0.796910	0.834760
P321	P32	0.502100	0.933740	0.840070
O1761	O176	0.603820	0.024500	0.829780
O1771	O177	0.560010	0.032700	0.944360
O1781	O178	0.498070	0.739700	0.891000
O1791	O179	0.402660	0.036900	0.823080
O1801	O180	0.442040	0.040100	0.939970
O1811	O181	0.598500	0.875900	0.965900
O1821	O182	0.502620	0.028700	0.846880
O1831	O183	0.497940	0.872700	0.976090
O1841	O184	0.596010	0.745100	0.888020
O1851	O185	0.398930	0.887700	0.958390
O1861	O186	0.606160	0.780200	0.781570
O1871	O187	0.506300	0.917400	0.773860
O1881	O188	0.402400	0.757400	0.877780
O1891	O189	0.390060	0.797600	0.772300
O1901	O190	0.642610	0.873100	0.855390
O1911	O191	0.355370	0.888100	0.850710
O1921	O192	0.504380	0.167800	0.901010
O1931	O193	0.455420	0.899200	0.865940
O1941	O194	0.518970	0.279700	0.756200
O1951	O195	0.552000	0.149100	0.793230
O1961	O196	0.322190	0.744800	0.831320
O1971	O197	0.676710	0.729300	0.841130
O1981	O198	0.460580	0.168900	0.791840
O1991	O199	0.545290	0.895300	0.872160
O2001	O200	0.507130	0.146800	0.700200
Mo431	Mo43	0.450620	0.798520	0.938150
Mo441	Mo44	0.390140	0.982020	0.896570
Mo451	Mo45	0.439910	0.113890	0.870140
Mo461	Mo46	0.567070	0.104970	0.874370
Mo471	Mo47	0.610940	0.968580	0.903700
Mo481	Mo48	0.544320	0.792200	0.942710
C571	C57	0.722600	0.697700	0.718300
H571	H57	0.703000	0.660600	0.738600
C581	C58	0.721800	0.696000	0.657500
H581	H58	0.702100	0.658000	0.638200
C591	C59	0.715600	0.711700	0.469300
H591	H59	0.691100	0.684300	0.449000
C601	C60	0.714100	0.710200	0.529000
H601	H60	0.689100	0.682600	0.548200
C611	C61	0.282700	0.707700	0.708800
H611	H61	0.306200	0.678100	0.729200
C621	C62	0.283500	0.705700	0.648100
H621	H62	0.306700	0.674100	0.628800
C631	C63	0.287600	0.723900	0.459700
H631	H63	0.314900	0.706500	0.439100
C641	C64	0.289100	0.720800	0.520000
H641	H64	0.316100	0.699300	0.539000
Co11	Co1	0.000000	0.000000	0.500000
Co21	Co2	0.500000	0.500000	0.500000
Co31	Co3	0.000000	0.500000	0.000000
Co41	Co4	0.500000	0.000000	0.000000
C651	C65	0.750000	0.750000	0.126100
C661	C66	0.750000	0.750000	0.060800
N11	N1	0.750000	0.750000	0.248400
N21	N2	0.750000	0.750000	0.938200
Co51	Co5	0.750000	0.750000	0.342700
C671	C67	0.250000	0.250000	0.373900
C681	C68	0.250000	0.250000	0.439200
N31	N3	0.250000	0.250000	0.251600
N41	N4	0.250000	0.250000	0.561800
Co61	Co6	0.250000	0.250000	0.157300
C691	C69	0.250000	0.250000	0.873900
C701	C70	0.250000	0.250000	0.939200
N51	N5	0.250000	0.250000	0.751600
N61	N6	0.250000	0.250000	0.061800
Co71	Co7	0.250000	0.250000	0.657300
C711	C71	0.750000	0.750000	0.626100
C721	C72	0.750000	0.750000	0.560800
N71	N7	0.750000	0.750000	0.748400
N81	N8	0.750000	0.750000	0.438200
Co81	Co8	0.750000	0.750000	0.842700
C731	C73	0.250000	0.750000	0.116500
C741	C74	0.250000	0.750000	0.051900
N91	N9	0.250000	0.750000	0.238600
N101	N10	0.250000	0.750000	0.929500
Co91	Co9	0.250000	0.750000	0.333470
C751	C75	0.750000	0.250000	0.383500
C761	C76	0.750000	0.250000	0.448100
N111	N11	0.750000	0.250000	0.261400
N121	N12	0.750000	0.250000	0.570500
Co101	Co10	0.750000	0.250000	0.166530
C771	C77	0.750000	0.250000	0.883500
C781	C78	0.750000	0.250000	0.948100
N131	N13	0.750000	0.250000	0.761400
N141	N14	0.750000	0.250000	0.070500
Co111	Co11	0.750000	0.250000	0.666530
C791	C79	0.250000	0.750000	0.616500
C801	C80	0.250000	0.750000	0.551900
N151	N15	0.250000	0.750000	0.738600
N161	N16	0.250000	0.750000	0.429500
Co121	Co12	0.250000	0.750000	0.833470
