data_DEWRIH_clean_PM
_symmetry_space_group_name_H-M	'P1'
_cell_length_a	12.806000
_cell_length_b	13.809000
_cell_length_c	14.508000
_cell_angle_alpha	113.570000
_cell_angle_beta	96.710000
_cell_angle_gamma	106.210000
_symmetry_Int_Tables_number 1

loop_
_symmetry_equiv_pos_as_xyz
'x,y,z'

loop_
_atom_site_label
_atom_site_type_symbol
_atom_site_fract_x
_atom_site_fract_y
_atom_site_fract_z
Mo11	Mo1	0.056880	0.424960	0.225060
Mo21	Mo2	0.847100	0.406090	0.210160
P11	P1	0.029020	0.683390	0.352050
P21	P2	0.871170	0.987450	0.366480
P31	P3	0.280390	0.597160	0.201170
P41	P4	0.682750	0.538180	0.156440
O11	O1	0.235300	0.685500	0.180500
O21	O2	0.560500	0.487100	0.089400
O31	O3	0.837800	0.877400	0.267900
O41	O4	0.056000	0.754600	0.471300
O51	O5	0.047100	0.754600	0.295500
O61	O6	0.784800	0.044400	0.365700
O71	O7	0.367000	0.580900	0.142800
O81	O8	0.869700	0.964800	0.463400
O91	O9	0.329800	0.650100	0.318700
O101	O10	0.710000	0.191500	0.513300
O111	O11	0.747400	0.633600	0.136300
O121	O12	0.905300	0.598100	0.313500
O131	O13	0.677000	0.578400	0.271300
O141	O14	0.990200	0.065500	0.381800
O151	O15	0.953000	0.451900	0.137700
O161	O16	0.732600	0.443500	0.129000
O171	O17	0.178400	0.487800	0.161000
O181	O18	0.108000	0.614100	0.331100
O191	O19	0.194600	0.474300	0.349300
O201	O20	0.751300	0.432100	0.319900
O211	O21	0.108600	0.396600	0.492800
O221	O22	0.921000	0.217700	0.339100
O231	O23	0.962000	0.417200	0.321000
O241	O24	0.164700	0.235800	0.546500
O251	O25	0.834300	0.368200	0.468900
C11	C1	0.306800	0.274800	0.034900
H11	H1	0.313900	0.350500	0.063100
C21	C2	0.240200	0.205800	0.069200
H21	H2	0.203700	0.234900	0.119700
C31	C3	0.228300	0.091700	0.027200
C41	C4	0.279400	0.052000	0.948200
H31	H3	0.269700	0.975700	0.914900
C51	C5	0.345300	0.128100	0.919600
H41	H4	0.379700	0.100100	0.867000
C61	C6	0.103900	0.843900	0.081800
H51	H5	0.113800	0.776200	0.070700
C71	C7	0.172900	0.914600	0.050700
H61	H6	0.228900	0.895200	0.020500
C81	C8	0.158000	0.015200	0.064900
C91	C9	0.075900	0.041100	0.113000
H71	H7	0.063500	0.107700	0.124100
Cd11	Cd1	0.915200	0.753440	0.184800
Cd21	Cd2	0.511950	0.639290	0.082840
C101	C10	0.011700	0.966500	0.144600
H81	H8	0.958500	0.986100	0.179400
N11	N1	0.362600	0.236700	0.961500
N21	N2	0.023300	0.868300	0.127200
Mo31	Mo3	0.730820	0.349510	0.554730
Mo41	Mo4	0.785670	0.202380	0.406240
Mo51	Mo5	0.070930	0.232760	0.428770
Mo61	Mo6	0.226750	0.397640	0.591980
Mo71	Mo7	0.943120	0.575040	0.774940
Mo81	Mo8	0.152900	0.593910	0.789840
P51	P5	0.970980	0.316610	0.647950
P61	P6	0.128830	0.012550	0.633520
P71	P7	0.719610	0.402840	0.798830
P81	P8	0.317250	0.461820	0.843560
O261	O26	0.764700	0.314500	0.819500
O271	O27	0.439500	0.512900	0.910600
O281	O28	0.162200	0.122600	0.732100
O291	O29	0.944000	0.245400	0.528700
O301	O30	0.952900	0.245400	0.704500
O311	O31	0.215200	0.955600	0.634300
O321	O32	0.633000	0.419100	0.857200
O331	O33	0.130300	0.035200	0.536600
O341	O34	0.670200	0.349900	0.681300
O351	O35	0.290000	0.808500	0.486700
O361	O36	0.252600	0.366400	0.863700
O371	O37	0.094700	0.401900	0.686500
O381	O38	0.323000	0.421600	0.728700
O391	O39	0.009800	0.934500	0.618200
O401	O40	0.047000	0.548100	0.862300
O411	O41	0.267400	0.556500	0.871000
O421	O42	0.821600	0.512200	0.839000
O431	O43	0.892000	0.385900	0.668900
O441	O44	0.805400	0.525700	0.650700
O451	O45	0.248700	0.567900	0.680100
O461	O46	0.891400	0.603400	0.507200
O471	O47	0.079000	0.782300	0.660900
O481	O48	0.038000	0.582800	0.679000
O491	O49	0.835300	0.764200	0.453500
O501	O50	0.165700	0.631800	0.531100
C111	C11	0.693200	0.725200	0.965100
H91	H9	0.686100	0.649500	0.936900
C121	C12	0.759800	0.794200	0.930800
H101	H10	0.796300	0.765100	0.880300
C131	C13	0.771700	0.908300	0.972800
C141	C14	0.720600	0.948000	0.051800
H111	H11	0.730300	0.024300	0.085100
C151	C15	0.654700	0.871900	0.080400
H121	H12	0.620300	0.899900	0.133000
C161	C16	0.896100	0.156100	0.918200
H131	H13	0.886200	0.223800	0.929300
C171	C17	0.827100	0.085400	0.949300
H141	H14	0.771100	0.104800	0.979500
C181	C18	0.842000	0.984800	0.935100
C191	C19	0.924100	0.958900	0.887000
H151	H15	0.936500	0.892300	0.875900
Cd31	Cd3	0.084800	0.246560	0.815200
Cd41	Cd4	0.488050	0.360710	0.917160
C201	C20	0.988300	0.033500	0.855400
H161	H16	0.041500	0.013900	0.820600
N31	N3	0.637400	0.763300	0.038500
N41	N4	0.976700	0.131700	0.872800
Mo91	Mo9	0.269180	0.650490	0.445270
Mo101	Mo10	0.214330	0.797620	0.593760
Mo111	Mo11	0.929070	0.767240	0.571230
Mo121	Mo12	0.773250	0.602360	0.408020
Cd51	Cd5	0.000000	0.500000	0.500000
