data_DEZKEA_clean_PM
_symmetry_space_group_name_H-M	'P1'
_cell_length_a	12.946000
_cell_length_b	23.746000
_cell_length_c	15.957000
_cell_angle_alpha	90.000000
_cell_angle_beta	90.000000
_cell_angle_gamma	90.000000
_symmetry_Int_Tables_number 1

loop_
_symmetry_equiv_pos_as_xyz
'x,y,z'

loop_
_atom_site_label
_atom_site_type_symbol
_atom_site_fract_x
_atom_site_fract_y
_atom_site_fract_z
Mn11	Mn1	0.787700	0.477170	0.886830
Mn21	Mn2	0.893830	0.730950	0.009400
Mn31	Mn3	0.712300	0.022830	0.386830
Mn41	Mn4	0.606170	0.769050	0.509400
Mn51	Mn5	0.787700	0.522830	0.613170
Mn61	Mn6	0.893830	0.269050	0.490600
Mn71	Mn7	0.712300	0.977170	0.113170
Mn81	Mn8	0.606170	0.230950	0.990600
Mn91	Mn9	0.212300	0.522830	0.113170
Mn101	Mn10	0.106170	0.269050	0.990600
Mn111	Mn11	0.287700	0.977170	0.613170
Mn121	Mn12	0.393830	0.230950	0.490600
Mn131	Mn13	0.212300	0.477170	0.386830
Mn141	Mn14	0.106170	0.730950	0.509400
Mn151	Mn15	0.287700	0.022830	0.886830
Mn161	Mn16	0.393830	0.769050	0.009400
H11	H1	0.884800	0.200800	0.004600
H21	H2	0.393300	0.446400	0.911600
H31	H3	0.333800	0.534400	0.870500
H41	H4	0.451700	0.601800	0.826900
H51	H5	0.624500	0.580700	0.828900
H61	H6	0.876600	0.646700	0.679800
H71	H7	0.810400	0.579600	0.230700
H81	H8	0.827300	0.632000	0.351900
H91	H9	0.869200	0.726100	0.342300
H101	H10	0.898000	0.765000	0.213600
H111	H11	0.615200	0.299200	0.504600
H121	H12	0.106700	0.053600	0.411600
H131	H13	0.166200	0.965600	0.370500
H141	H14	0.048300	0.898200	0.326900
H151	H15	0.875500	0.919300	0.328900
H161	H16	0.623400	0.853300	0.179800
H171	H17	0.689600	0.920400	0.730700
H181	H18	0.672700	0.868000	0.851900
H191	H19	0.630800	0.773900	0.842300
H201	H20	0.602000	0.735000	0.713600
H211	H21	0.884800	0.799200	0.495400
H221	H22	0.393300	0.553600	0.588400
H231	H23	0.333800	0.465600	0.629500
H241	H24	0.451700	0.398200	0.673100
H251	H25	0.624500	0.419300	0.671100
H261	H26	0.876600	0.353300	0.820200
H271	H27	0.810400	0.420400	0.269300
H281	H28	0.827300	0.368000	0.148100
H291	H29	0.869200	0.273900	0.157700
H301	H30	0.898000	0.235000	0.286400
H311	H31	0.615200	0.700800	0.995400
H321	H32	0.106700	0.946400	0.088400
H331	H33	0.166200	0.034400	0.129500
H341	H34	0.048300	0.101800	0.173100
H351	H35	0.875500	0.080700	0.171100
H361	H36	0.623400	0.146700	0.320200
H371	H37	0.689600	0.079600	0.769300
H381	H38	0.672700	0.132000	0.648100
H391	H39	0.630800	0.226100	0.657700
H401	H40	0.602000	0.265000	0.786400
H411	H41	0.115200	0.799200	0.995400
H421	H42	0.606700	0.553600	0.088400
H431	H43	0.666200	0.465600	0.129500
H441	H44	0.548300	0.398200	0.173100
H451	H45	0.375500	0.419300	0.171100
H461	H46	0.123400	0.353300	0.320200
H471	H47	0.189600	0.420400	0.769300
H481	H48	0.172700	0.368000	0.648100
H491	H49	0.130800	0.273900	0.657700
H501	H50	0.102000	0.235000	0.786400
H511	H51	0.384800	0.700800	0.495400
H521	H52	0.893300	0.946400	0.588400
H531	H53	0.833800	0.034400	0.629500
H541	H54	0.951700	0.101800	0.673100
H551	H55	0.124500	0.080700	0.671100
H561	H56	0.376600	0.146700	0.820200
H571	H57	0.310400	0.079600	0.269300
H581	H58	0.327300	0.132000	0.148100
H591	H59	0.369200	0.226100	0.157700
H601	H60	0.398000	0.265000	0.286400
H611	H61	0.115200	0.200800	0.504600
H621	H62	0.606700	0.446400	0.411600
H631	H63	0.666200	0.534400	0.370500
H641	H64	0.548300	0.601800	0.326900
H651	H65	0.375500	0.580700	0.328900
H661	H66	0.123400	0.646700	0.179800
H671	H67	0.189600	0.579600	0.730700
H681	H68	0.172700	0.632000	0.851900
H691	H69	0.130800	0.726100	0.842300
H701	H70	0.102000	0.765000	0.713600
H711	H71	0.384800	0.299200	0.004600
H721	H72	0.893300	0.053600	0.911600
H731	H73	0.833800	0.965600	0.870500
H741	H74	0.951700	0.898200	0.826900
H751	H75	0.124500	0.919300	0.828900
H761	H76	0.376600	0.853300	0.679800
H771	H77	0.310400	0.920400	0.230700
H781	H78	0.327300	0.868000	0.351900
H791	H79	0.369200	0.773900	0.342300
H801	H80	0.398000	0.735000	0.213600
C11	C1	0.868700	0.238330	0.994100
C21	C2	0.787300	0.313340	0.971800
C31	C3	0.696900	0.348590	0.955000
C41	C4	0.588700	0.410050	0.921500
C51	C5	0.545100	0.464110	0.895200
C61	C6	0.439500	0.474320	0.895100
C71	C7	0.404100	0.526440	0.870100
C81	C8	0.474000	0.566510	0.844700
C91	C9	0.577500	0.553430	0.846100
C101	C10	0.863100	0.625460	0.727500
C111	C11	0.845000	0.601400	0.851500
C121	C12	0.837400	0.598510	0.942500
C131	C13	0.835800	0.613110	0.071200
C141	C14	0.845400	0.642930	0.151900
C151	C15	0.828300	0.617500	0.228000
C161	C16	0.838000	0.648600	0.299800
C171	C17	0.863400	0.704200	0.294300
C181	C18	0.880100	0.727200	0.217000
C191	C19	0.631300	0.261670	0.494100
C201	C20	0.712700	0.186660	0.471800
C211	C21	0.803100	0.151410	0.455000
C221	C22	0.911300	0.089950	0.421500
C231	C23	0.954900	0.035890	0.395200
C241	C24	0.060500	0.025680	0.395100
C251	C25	0.095900	0.973560	0.370100
C261	C26	0.026000	0.933490	0.344700
C271	C27	0.922500	0.946570	0.346100
C281	C28	0.636900	0.874540	0.227500
C291	C29	0.655000	0.898600	0.351500
C301	C30	0.662600	0.901490	0.442500
C311	C31	0.664200	0.886890	0.571200
C321	C32	0.654600	0.857070	0.651900
C331	C33	0.671700	0.882500	0.728000
C341	C34	0.662000	0.851400	0.799800
C351	C35	0.636600	0.795800	0.794300
C361	C36	0.619900	0.772800	0.717000
C371	C37	0.868700	0.761670	0.505900
C381	C38	0.787300	0.686660	0.528200
C391	C39	0.696900	0.651410	0.545000
C401	C40	0.588700	0.589950	0.578500
C411	C41	0.545100	0.535890	0.604800
C421	C42	0.439500	0.525680	0.604900
C431	C43	0.404100	0.473560	0.629900
C441	C44	0.474000	0.433490	0.655300
C451	C45	0.577500	0.446570	0.653900
C461	C46	0.863100	0.374540	0.772500
C471	C47	0.845000	0.398600	0.648500
C481	C48	0.837400	0.401490	0.557500
C491	C49	0.835800	0.386890	0.428800
C501	C50	0.845400	0.357070	0.348100
C511	C51	0.828300	0.382500	0.272000
C521	C52	0.838000	0.351400	0.200200
C531	C53	0.863400	0.295800	0.205700
C541	C54	0.880100	0.272800	0.283000
C551	C55	0.631300	0.738330	0.005900
C561	C56	0.712700	0.813340	0.028200
C571	C57	0.803100	0.848590	0.045000
C581	C58	0.911300	0.910050	0.078500
C591	C59	0.954900	0.964110	0.104800
C601	C60	0.060500	0.974320	0.104900
C611	C61	0.095900	0.026440	0.129900
C621	C62	0.026000	0.066510	0.155300
C631	C63	0.922500	0.053430	0.153900
C641	C64	0.636900	0.125460	0.272500
C651	C65	0.655000	0.101400	0.148500
C661	C66	0.662600	0.098510	0.057500
C671	C67	0.664200	0.113110	0.928800
C681	C68	0.654600	0.142930	0.848100
C691	C69	0.671700	0.117500	0.772000
C701	C70	0.662000	0.148600	0.700200
C711	C71	0.636600	0.204200	0.705700
C721	C72	0.619900	0.227200	0.783000
C731	C73	0.131300	0.761670	0.005900
C741	C74	0.212700	0.686660	0.028200
C751	C75	0.303100	0.651410	0.045000
C761	C76	0.411300	0.589950	0.078500
C771	C77	0.454900	0.535890	0.104800
C781	C78	0.560500	0.525680	0.104900
C791	C79	0.595900	0.473560	0.129900
C801	C80	0.526000	0.433490	0.155300
C811	C81	0.422500	0.446570	0.153900
C821	C82	0.136900	0.374540	0.272500
C831	C83	0.155000	0.398600	0.148500
C841	C84	0.162600	0.401490	0.057500
C851	C85	0.164200	0.386890	0.928800
C861	C86	0.154600	0.357070	0.848100
C871	C87	0.171700	0.382500	0.772000
C881	C88	0.162000	0.351400	0.700200
C891	C89	0.136600	0.295800	0.705700
C901	C90	0.119900	0.272800	0.783000
C911	C91	0.368700	0.738330	0.505900
C921	C92	0.287300	0.813340	0.528200
C931	C93	0.196900	0.848590	0.545000
C941	C94	0.088700	0.910050	0.578500
C951	C95	0.045100	0.964110	0.604800
C961	C96	0.939500	0.974320	0.604900
C971	C97	0.904100	0.026440	0.629900
C981	C98	0.974000	0.066510	0.655300
C991	C99	0.077500	0.053430	0.653900
C1001	C100	0.363100	0.125460	0.772500
C1011	C101	0.345000	0.101400	0.648500
C1021	C102	0.337400	0.098510	0.557500
C1031	C103	0.335800	0.113110	0.428800
C1041	C104	0.345400	0.142930	0.348100
C1051	C105	0.328300	0.117500	0.272000
C1061	C106	0.338000	0.148600	0.200200
C1071	C107	0.363400	0.204200	0.205700
C1081	C108	0.380100	0.227200	0.283000
C1091	C109	0.131300	0.238330	0.494100
C1101	C110	0.212700	0.313340	0.471800
C1111	C111	0.303100	0.348590	0.455000
C1121	C112	0.411300	0.410050	0.421500
C1131	C113	0.454900	0.464110	0.395200
C1141	C114	0.560500	0.474320	0.395100
C1151	C115	0.595900	0.526440	0.370100
C1161	C116	0.526000	0.566510	0.344700
C1171	C117	0.422500	0.553430	0.346100
C1181	C118	0.136900	0.625460	0.227500
C1191	C119	0.155000	0.601400	0.351500
C1201	C120	0.162600	0.598510	0.442500
C1211	C121	0.164200	0.613110	0.571200
C1221	C122	0.154600	0.642930	0.651900
C1231	C123	0.171700	0.617500	0.728000
C1241	C124	0.162000	0.648600	0.799800
C1251	C125	0.136600	0.704200	0.794300
C1261	C126	0.119900	0.727200	0.717000
C1271	C127	0.368700	0.261670	0.994100
C1281	C128	0.287300	0.186660	0.971800
C1291	C129	0.196900	0.151410	0.955000
C1301	C130	0.088700	0.089950	0.921500
C1311	C131	0.045100	0.035890	0.895200
C1321	C132	0.939500	0.025680	0.895100
C1331	C133	0.904100	0.973560	0.870100
C1341	C134	0.974000	0.933490	0.844700
C1351	C135	0.077500	0.946570	0.846100
C1361	C136	0.363100	0.874540	0.727500
C1371	C137	0.345000	0.898600	0.851500
C1381	C138	0.337400	0.901490	0.942500
C1391	C139	0.335800	0.886890	0.071200
C1401	C140	0.345400	0.857070	0.151900
C1411	C141	0.328300	0.882500	0.228000
C1421	C142	0.338000	0.851400	0.299800
C1431	C143	0.363400	0.795800	0.294300
C1441	C144	0.380100	0.772800	0.217000
N11	N1	0.772000	0.257560	0.986870
N21	N2	0.885470	0.327900	0.970710
N31	N3	0.939270	0.278310	0.984880
N41	N4	0.692050	0.403390	0.932930
N51	N5	0.604200	0.323730	0.957100
N61	N6	0.533200	0.364000	0.934800
N71	N7	0.614200	0.503020	0.871300
N81	N8	0.868200	0.647050	0.805300
N91	N9	0.826800	0.555380	0.807030
N101	N10	0.837400	0.571480	0.724100
N111	N11	0.853600	0.640020	0.997310
N121	N12	0.811000	0.549790	0.977780
N131	N13	0.810600	0.559400	0.062880
N141	N14	0.872100	0.697560	0.145630
N151	N15	0.728000	0.242440	0.486870
N161	N16	0.614530	0.172100	0.470710
N171	N17	0.560730	0.221690	0.484880
N181	N18	0.807950	0.096610	0.432930
N191	N19	0.895800	0.176270	0.457100
N201	N20	0.966800	0.136000	0.434800
N211	N21	0.885800	0.996980	0.371300
N221	N22	0.631800	0.852950	0.305300
N231	N23	0.673200	0.944620	0.307030
N241	N24	0.662600	0.928520	0.224100
N251	N25	0.646400	0.859980	0.497310
N261	N26	0.689000	0.950210	0.477780
N271	N27	0.689400	0.940600	0.562880
N281	N28	0.627900	0.802440	0.645630
N291	N29	0.772000	0.742440	0.513130
N301	N30	0.885470	0.672100	0.529290
N311	N31	0.939270	0.721690	0.515120
N321	N32	0.692050	0.596610	0.567070
N331	N33	0.604200	0.676270	0.542900
N341	N34	0.533200	0.636000	0.565200
N351	N35	0.614200	0.496980	0.628700
N361	N36	0.868200	0.352950	0.694700
N371	N37	0.826800	0.444620	0.692970
N381	N38	0.837400	0.428520	0.775900
N391	N39	0.853600	0.359980	0.502690
N401	N40	0.811000	0.450210	0.522220
N411	N41	0.810600	0.440600	0.437120
N421	N42	0.872100	0.302440	0.354370
N431	N43	0.728000	0.757560	0.013130
N441	N44	0.614530	0.827900	0.029290
N451	N45	0.560730	0.778310	0.015120
N461	N46	0.807950	0.903390	0.067070
N471	N47	0.895800	0.823730	0.042900
N481	N48	0.966800	0.864000	0.065200
N491	N49	0.885800	0.003020	0.128700
N501	N50	0.631800	0.147050	0.194700
N511	N51	0.673200	0.055380	0.192970
N521	N52	0.662600	0.071480	0.275900
N531	N53	0.646400	0.140020	0.002690
N541	N54	0.689000	0.049790	0.022220
N551	N55	0.689400	0.059400	0.937120
N561	N56	0.627900	0.197560	0.854370
N571	N57	0.228000	0.742440	0.013130
N581	N58	0.114530	0.672100	0.029290
N591	N59	0.060730	0.721690	0.015120
N601	N60	0.307950	0.596610	0.067070
N611	N61	0.395800	0.676270	0.042900
N621	N62	0.466800	0.636000	0.065200
N631	N63	0.385800	0.496980	0.128700
N641	N64	0.131800	0.352950	0.194700
N651	N65	0.173200	0.444620	0.192970
N661	N66	0.162600	0.428520	0.275900
N671	N67	0.146400	0.359980	0.002690
N681	N68	0.189000	0.450210	0.022220
N691	N69	0.189400	0.440600	0.937120
N701	N70	0.127900	0.302440	0.854370
N711	N71	0.272000	0.757560	0.513130
N721	N72	0.385470	0.827900	0.529290
N731	N73	0.439270	0.778310	0.515120
N741	N74	0.192050	0.903390	0.567070
N751	N75	0.104200	0.823730	0.542900
N761	N76	0.033200	0.864000	0.565200
N771	N77	0.114200	0.003020	0.628700
N781	N78	0.368200	0.147050	0.694700
N791	N79	0.326800	0.055380	0.692970
N801	N80	0.337400	0.071480	0.775900
N811	N81	0.353600	0.140020	0.502690
N821	N82	0.311000	0.049790	0.522220
N831	N83	0.310600	0.059400	0.437120
N841	N84	0.372100	0.197560	0.354370
N851	N85	0.228000	0.257560	0.486870
N861	N86	0.114530	0.327900	0.470710
N871	N87	0.060730	0.278310	0.484880
N881	N88	0.307950	0.403390	0.432930
N891	N89	0.395800	0.323730	0.457100
N901	N90	0.466800	0.364000	0.434800
N911	N91	0.385800	0.503020	0.371300
N921	N92	0.131800	0.647050	0.305300
N931	N93	0.173200	0.555380	0.307030
N941	N94	0.162600	0.571480	0.224100
N951	N95	0.146400	0.640020	0.497310
N961	N96	0.189000	0.549790	0.477780
N971	N97	0.189400	0.559400	0.562880
N981	N98	0.127900	0.697560	0.645630
N991	N99	0.272000	0.242440	0.986870
N1001	N100	0.385470	0.172100	0.970710
N1011	N101	0.439270	0.221690	0.984880
N1021	N102	0.192050	0.096610	0.932930
N1031	N103	0.104200	0.176270	0.957100
N1041	N104	0.033200	0.136000	0.934800
N1051	N105	0.114200	0.996980	0.871300
N1061	N106	0.368200	0.852950	0.805300
N1071	N107	0.326800	0.944620	0.807030
N1081	N108	0.337400	0.928520	0.724100
N1091	N109	0.353600	0.859980	0.997310
N1101	N110	0.311000	0.950210	0.977780
N1111	N111	0.310600	0.940600	0.062880
N1121	N112	0.372100	0.802440	0.145630
