data_DIBQIQ_clean_PM
_symmetry_space_group_name_H-M	'P1'
_cell_length_a	17.446000
_cell_length_b	18.762000
_cell_length_c	27.758000
_cell_angle_alpha	90.000000
_cell_angle_beta	90.000000
_cell_angle_gamma	90.000000
_symmetry_Int_Tables_number 1

loop_
_symmetry_equiv_pos_as_xyz
'x,y,z'

loop_
_atom_site_label
_atom_site_type_symbol
_atom_site_fract_x
_atom_site_fract_y
_atom_site_fract_z
Co11	Co1	0.506560	0.966780	0.682870
Co21	Co2	0.993440	0.466780	0.317130
Co31	Co3	0.506560	0.966780	0.817130
Co41	Co4	0.993440	0.466780	0.182870
Co51	Co5	0.618660	0.854740	0.750000
Co61	Co6	0.881340	0.354740	0.250000
H11	H1	0.243000	0.000700	0.682800
H21	H2	0.125700	0.029600	0.650000
H31	H3	0.218900	0.051100	0.521500
H41	H4	0.338000	0.025500	0.554000
H51	H5	0.690400	0.044600	0.595200
H61	H6	0.798600	0.088400	0.558200
H71	H7	0.921900	0.934700	0.620400
H81	H8	0.816100	0.900300	0.663300
H91	H9	0.069800	0.310200	0.413300
H101	H10	0.082100	0.233500	0.476000
H111	H11	0.913600	0.112200	0.422800
H121	H12	0.905800	0.184700	0.356800
H131	H13	0.020500	0.009600	0.611900
H141	H14	0.891700	0.097300	0.507700
H151	H15	0.120300	0.120900	0.506800
H161	H16	0.257000	0.500700	0.317200
H171	H17	0.374300	0.529600	0.350000
H181	H18	0.281100	0.551100	0.478500
H191	H19	0.162000	0.525500	0.446000
H201	H20	0.809600	0.544600	0.404800
H211	H21	0.701400	0.588400	0.441800
H221	H22	0.578100	0.434700	0.379600
H231	H23	0.683900	0.400300	0.336700
H241	H24	0.430200	0.810200	0.586700
H251	H25	0.417900	0.733500	0.524000
H261	H26	0.586400	0.612200	0.577200
H271	H27	0.594200	0.684700	0.643200
H281	H28	0.479500	0.509600	0.388100
H291	H29	0.608300	0.597300	0.492300
H301	H30	0.379700	0.620900	0.493200
H311	H31	0.243000	0.000700	0.817200
H321	H32	0.125700	0.029600	0.850000
H331	H33	0.218900	0.051100	0.978500
H341	H34	0.338000	0.025500	0.946000
H351	H35	0.690400	0.044600	0.904800
H361	H36	0.798600	0.088400	0.941800
H371	H37	0.921900	0.934700	0.879600
H381	H38	0.816100	0.900300	0.836700
H391	H39	0.069800	0.310200	0.086700
H401	H40	0.082100	0.233500	0.024000
H411	H41	0.913600	0.112200	0.077200
H421	H42	0.905800	0.184700	0.143200
H431	H43	0.020500	0.009600	0.888100
H441	H44	0.891700	0.097300	0.992300
H451	H45	0.120300	0.120900	0.993200
H461	H46	0.257000	0.500700	0.182800
H471	H47	0.374300	0.529600	0.150000
H481	H48	0.281100	0.551100	0.021500
H491	H49	0.162000	0.525500	0.054000
H501	H50	0.809600	0.544600	0.095200
H511	H51	0.701400	0.588400	0.058200
H521	H52	0.578100	0.434700	0.120400
H531	H53	0.683900	0.400300	0.163300
H541	H54	0.430200	0.810200	0.913300
H551	H55	0.417900	0.733500	0.976000
H561	H56	0.586400	0.612200	0.922800
H571	H57	0.594200	0.684700	0.856800
H581	H58	0.479500	0.509600	0.111900
H591	H59	0.608300	0.597300	0.007700
H601	H60	0.379700	0.620900	0.006800
C11	C1	0.381100	0.999200	0.644700
C21	C2	0.303800	0.013800	0.622080
C31	C3	0.239400	0.012500	0.650300
C41	C4	0.168600	0.029000	0.630200
C51	C5	0.159900	0.044000	0.582790
C61	C6	0.223400	0.042100	0.554400
C71	C7	0.295300	0.026800	0.574000
C81	C8	0.673400	0.948600	0.665080
C91	C9	0.742100	0.971800	0.635580
C101	C10	0.737900	0.024700	0.602400
C111	C11	0.802700	0.049800	0.579000
C121	C12	0.873200	0.018200	0.586210
C131	C13	0.876200	0.959600	0.616830
C141	C14	0.812300	0.938100	0.641820
C151	C15	0.975300	0.308300	0.337350
C161	C16	0.984700	0.256700	0.377500
C171	C17	0.038800	0.270000	0.414800
C181	C18	0.045300	0.224400	0.452560
C191	C19	0.999310	0.165100	0.457240
C201	C20	0.945700	0.151600	0.420510
C211	C21	0.940100	0.195800	0.381280
C221	C22	0.082600	0.060100	0.561280
C231	C23	0.016800	0.034800	0.583120
C241	C24	0.943600	0.046900	0.562140
C251	C25	0.939400	0.088400	0.521370
C261	C26	0.004900	0.117800	0.499900
C271	C27	0.076100	0.102300	0.520680
C281	C28	0.118900	0.499200	0.355300
C291	C29	0.196200	0.513800	0.377920
C301	C30	0.260600	0.512500	0.349700
C311	C31	0.331400	0.529000	0.369800
C321	C32	0.340100	0.544000	0.417210
C331	C33	0.276600	0.542100	0.445600
C341	C34	0.204700	0.526800	0.426000
C351	C35	0.826600	0.448600	0.334920
C361	C36	0.757900	0.471800	0.364420
C371	C37	0.762100	0.524700	0.397600
C381	C38	0.697300	0.549800	0.421000
C391	C39	0.626800	0.518200	0.413790
C401	C40	0.623800	0.459600	0.383170
C411	C41	0.687700	0.438100	0.358180
C421	C42	0.524700	0.808300	0.662650
C431	C43	0.515300	0.756700	0.622500
C441	C44	0.461200	0.770000	0.585200
C451	C45	0.454700	0.724400	0.547440
C461	C46	0.500690	0.665100	0.542760
C471	C47	0.554300	0.651600	0.579490
C481	C48	0.559900	0.695800	0.618720
C491	C49	0.417400	0.560100	0.438720
C501	C50	0.483200	0.534800	0.416880
C511	C51	0.556400	0.546900	0.437860
C521	C52	0.560600	0.588400	0.478630
C531	C53	0.495100	0.617800	0.500100
C541	C54	0.423900	0.602300	0.479320
C551	C55	0.381100	0.999200	0.855300
C561	C56	0.303800	0.013800	0.877920
C571	C57	0.239400	0.012500	0.849700
C581	C58	0.168600	0.029000	0.869800
C591	C59	0.159900	0.044000	0.917210
C601	C60	0.223400	0.042100	0.945600
C611	C61	0.295300	0.026800	0.926000
C621	C62	0.673400	0.948600	0.834920
C631	C63	0.742100	0.971800	0.864420
C641	C64	0.737900	0.024700	0.897600
C651	C65	0.802700	0.049800	0.921000
C661	C66	0.873200	0.018200	0.913790
C671	C67	0.876200	0.959600	0.883170
C681	C68	0.812300	0.938100	0.858180
C691	C69	0.975300	0.308300	0.162650
C701	C70	0.984700	0.256700	0.122500
C711	C71	0.038800	0.270000	0.085200
C721	C72	0.045300	0.224400	0.047440
C731	C73	0.999310	0.165100	0.042760
C741	C74	0.945700	0.151600	0.079490
C751	C75	0.940100	0.195800	0.118720
C761	C76	0.082600	0.060100	0.938720
C771	C77	0.016800	0.034800	0.916880
C781	C78	0.943600	0.046900	0.937860
C791	C79	0.939400	0.088400	0.978630
C801	C80	0.004900	0.117800	0.000100
C811	C81	0.076100	0.102300	0.979320
C821	C82	0.118900	0.499200	0.144700
C831	C83	0.196200	0.513800	0.122080
C841	C84	0.260600	0.512500	0.150300
C851	C85	0.331400	0.529000	0.130200
C861	C86	0.340100	0.544000	0.082790
C871	C87	0.276600	0.542100	0.054400
C881	C88	0.204700	0.526800	0.074000
C891	C89	0.826600	0.448600	0.165080
C901	C90	0.757900	0.471800	0.135580
C911	C91	0.762100	0.524700	0.102400
C921	C92	0.697300	0.549800	0.079000
C931	C93	0.626800	0.518200	0.086210
C941	C94	0.623800	0.459600	0.116830
C951	C95	0.687700	0.438100	0.141820
C961	C96	0.524700	0.808300	0.837350
C971	C97	0.515300	0.756700	0.877500
C981	C98	0.461200	0.770000	0.914800
C991	C99	0.454700	0.724400	0.952560
C1001	C100	0.500690	0.665100	0.957240
C1011	C101	0.554300	0.651600	0.920510
C1021	C102	0.559900	0.695800	0.881280
C1031	C103	0.417400	0.560100	0.061280
C1041	C104	0.483200	0.534800	0.083120
C1051	C105	0.556400	0.546900	0.062140
C1061	C106	0.560600	0.588400	0.021370
C1071	C107	0.495100	0.617800	0.999900
C1081	C108	0.423900	0.602300	0.020680
O11	O1	0.439530	0.004100	0.618730
O21	O2	0.384910	0.980100	0.687060
O31	O3	0.683440	0.907700	0.698690
O41	O4	0.609790	0.972100	0.651340
O51	O5	0.930840	0.293030	0.304000
O61	O6	0.013200	0.364600	0.340210
O71	O7	0.060470	0.504100	0.381270
O81	O8	0.115090	0.480100	0.312940
O91	O9	0.816560	0.407700	0.301310
O101	O10	0.890210	0.472100	0.348660
O111	O11	0.569160	0.793030	0.696000
O121	O12	0.486800	0.864600	0.659790
O131	O13	0.439530	0.004100	0.881270
O141	O14	0.384910	0.980100	0.812940
O151	O15	0.683440	0.907700	0.801310
O161	O16	0.609790	0.972100	0.848660
O171	O17	0.930840	0.293030	0.196000
O181	O18	0.013200	0.364600	0.159790
O191	O19	0.060470	0.504100	0.118730
O201	O20	0.115090	0.480100	0.187060
O211	O21	0.816560	0.407700	0.198690
O221	O22	0.890210	0.472100	0.151340
O231	O23	0.569160	0.793030	0.804000
O241	O24	0.486800	0.864600	0.840210
O251	O25	0.525500	0.927700	0.750000
O261	O26	0.974500	0.427700	0.250000
Co71	Co7	0.493440	0.033220	0.182870
Co81	Co8	0.006560	0.533220	0.817130
Co91	Co9	0.493440	0.033220	0.317130
Co101	Co10	0.006560	0.533220	0.682870
Co111	Co11	0.381340	0.145260	0.250000
Co121	Co12	0.118660	0.645260	0.750000
H611	H61	0.757000	0.999300	0.182800
H621	H62	0.874300	0.970400	0.150000
H631	H63	0.781100	0.948900	0.021500
H641	H64	0.662000	0.974500	0.054000
H651	H65	0.309600	0.955400	0.095200
H661	H66	0.201400	0.911600	0.058200
H671	H67	0.078100	0.065300	0.120400
H681	H68	0.183900	0.099700	0.163300
H691	H69	0.930200	0.689800	0.913300
H701	H70	0.917900	0.766500	0.976000
H711	H71	0.086400	0.887800	0.922800
H721	H72	0.094200	0.815300	0.856800
H731	H73	0.979500	0.990400	0.111900
H741	H74	0.108300	0.902700	0.007700
H751	H75	0.879700	0.879100	0.006800
H761	H76	0.743000	0.499300	0.817200
H771	H77	0.625700	0.470400	0.850000
H781	H78	0.718900	0.448900	0.978500
H791	H79	0.838000	0.474500	0.946000
H801	H80	0.190400	0.455400	0.904800
H811	H81	0.298600	0.411600	0.941800
H821	H82	0.421900	0.565300	0.879600
H831	H83	0.316100	0.599700	0.836700
H841	H84	0.569800	0.189800	0.086700
H851	H85	0.582100	0.266500	0.024000
H861	H86	0.413600	0.387800	0.077200
H871	H87	0.405800	0.315300	0.143200
H881	H88	0.520500	0.490400	0.888100
H891	H89	0.391700	0.402700	0.992300
H901	H90	0.620300	0.379100	0.993200
H911	H91	0.757000	0.999300	0.317200
H921	H92	0.874300	0.970400	0.350000
H931	H93	0.781100	0.948900	0.478500
H941	H94	0.662000	0.974500	0.446000
H951	H95	0.309600	0.955400	0.404800
H961	H96	0.201400	0.911600	0.441800
H971	H97	0.078100	0.065300	0.379600
H981	H98	0.183900	0.099700	0.336700
H991	H99	0.930200	0.689800	0.586700
H1001	H100	0.917900	0.766500	0.524000
H1011	H101	0.086400	0.887800	0.577200
H1021	H102	0.094200	0.815300	0.643200
H1031	H103	0.979500	0.990400	0.388100
H1041	H104	0.108300	0.902700	0.492300
H1051	H105	0.879700	0.879100	0.493200
H1061	H106	0.743000	0.499300	0.682800
H1071	H107	0.625700	0.470400	0.650000
H1081	H108	0.718900	0.448900	0.521500
H1091	H109	0.838000	0.474500	0.554000
H1101	H110	0.190400	0.455400	0.595200
H1111	H111	0.298600	0.411600	0.558200
H1121	H112	0.421900	0.565300	0.620400
H1131	H113	0.316100	0.599700	0.663300
H1141	H114	0.569800	0.189800	0.413300
H1151	H115	0.582100	0.266500	0.476000
H1161	H116	0.413600	0.387800	0.422800
H1171	H117	0.405800	0.315300	0.356800
H1181	H118	0.520500	0.490400	0.611900
H1191	H119	0.391700	0.402700	0.507700
H1201	H120	0.620300	0.379100	0.506800
C1091	C109	0.618900	0.000800	0.144700
C1101	C110	0.696200	0.986200	0.122080
C1111	C111	0.760600	0.987500	0.150300
C1121	C112	0.831400	0.971000	0.130200
C1131	C113	0.840100	0.956000	0.082790
C1141	C114	0.776600	0.957900	0.054400
C1151	C115	0.704700	0.973200	0.074000
C1161	C116	0.326600	0.051400	0.165080
C1171	C117	0.257900	0.028200	0.135580
C1181	C118	0.262100	0.975300	0.102400
C1191	C119	0.197300	0.950200	0.079000
C1201	C120	0.126800	0.981800	0.086210
C1211	C121	0.123800	0.040400	0.116830
C1221	C122	0.187700	0.061900	0.141820
C1231	C123	0.024700	0.691700	0.837350
C1241	C124	0.015300	0.743300	0.877500
C1251	C125	0.961200	0.730000	0.914800
C1261	C126	0.954700	0.775600	0.952560
C1271	C127	0.000690	0.834900	0.957240
C1281	C128	0.054300	0.848400	0.920510
C1291	C129	0.059900	0.804200	0.881280
C1301	C130	0.917400	0.939900	0.061280
C1311	C131	0.983200	0.965200	0.083120
C1321	C132	0.056400	0.953100	0.062140
C1331	C133	0.060600	0.911600	0.021370
C1341	C134	0.995100	0.882200	0.999900
C1351	C135	0.923900	0.897700	0.020680
C1361	C136	0.881100	0.500800	0.855300
C1371	C137	0.803800	0.486200	0.877920
C1381	C138	0.739400	0.487500	0.849700
C1391	C139	0.668600	0.471000	0.869800
C1401	C140	0.659900	0.456000	0.917210
C1411	C141	0.723400	0.457900	0.945600
C1421	C142	0.795300	0.473200	0.926000
C1431	C143	0.173400	0.551400	0.834920
C1441	C144	0.242100	0.528200	0.864420
C1451	C145	0.237900	0.475300	0.897600
C1461	C146	0.302700	0.450200	0.921000
C1471	C147	0.373200	0.481800	0.913790
C1481	C148	0.376200	0.540400	0.883170
C1491	C149	0.312300	0.561900	0.858180
C1501	C150	0.475300	0.191700	0.162650
C1511	C151	0.484700	0.243300	0.122500
C1521	C152	0.538800	0.230000	0.085200
C1531	C153	0.545300	0.275600	0.047440
C1541	C154	0.499310	0.334900	0.042760
C1551	C155	0.445700	0.348400	0.079490
C1561	C156	0.440100	0.304200	0.118720
C1571	C157	0.582600	0.439900	0.938720
C1581	C158	0.516800	0.465200	0.916880
C1591	C159	0.443600	0.453100	0.937860
C1601	C160	0.439400	0.411600	0.978630
C1611	C161	0.504900	0.382200	0.000100
C1621	C162	0.576100	0.397700	0.979320
C1631	C163	0.618900	0.000800	0.355300
C1641	C164	0.696200	0.986200	0.377920
C1651	C165	0.760600	0.987500	0.349700
C1661	C166	0.831400	0.971000	0.369800
C1671	C167	0.840100	0.956000	0.417210
C1681	C168	0.776600	0.957900	0.445600
C1691	C169	0.704700	0.973200	0.426000
C1701	C170	0.326600	0.051400	0.334920
C1711	C171	0.257900	0.028200	0.364420
C1721	C172	0.262100	0.975300	0.397600
C1731	C173	0.197300	0.950200	0.421000
C1741	C174	0.126800	0.981800	0.413790
C1751	C175	0.123800	0.040400	0.383170
C1761	C176	0.187700	0.061900	0.358180
C1771	C177	0.024700	0.691700	0.662650
C1781	C178	0.015300	0.743300	0.622500
C1791	C179	0.961200	0.730000	0.585200
C1801	C180	0.954700	0.775600	0.547440
C1811	C181	0.000690	0.834900	0.542760
C1821	C182	0.054300	0.848400	0.579490
C1831	C183	0.059900	0.804200	0.618720
C1841	C184	0.917400	0.939900	0.438720
C1851	C185	0.983200	0.965200	0.416880
C1861	C186	0.056400	0.953100	0.437860
C1871	C187	0.060600	0.911600	0.478630
C1881	C188	0.995100	0.882200	0.500100
C1891	C189	0.923900	0.897700	0.479320
C1901	C190	0.881100	0.500800	0.644700
C1911	C191	0.803800	0.486200	0.622080
C1921	C192	0.739400	0.487500	0.650300
C1931	C193	0.668600	0.471000	0.630200
C1941	C194	0.659900	0.456000	0.582790
C1951	C195	0.723400	0.457900	0.554400
C1961	C196	0.795300	0.473200	0.574000
C1971	C197	0.173400	0.551400	0.665080
C1981	C198	0.242100	0.528200	0.635580
C1991	C199	0.237900	0.475300	0.602400
C2001	C200	0.302700	0.450200	0.579000
C2011	C201	0.373200	0.481800	0.586210
C2021	C202	0.376200	0.540400	0.616830
C2031	C203	0.312300	0.561900	0.641820
C2041	C204	0.475300	0.191700	0.337350
C2051	C205	0.484700	0.243300	0.377500
C2061	C206	0.538800	0.230000	0.414800
C2071	C207	0.545300	0.275600	0.452560
C2081	C208	0.499310	0.334900	0.457240
C2091	C209	0.445700	0.348400	0.420510
C2101	C210	0.440100	0.304200	0.381280
C2111	C211	0.582600	0.439900	0.561280
C2121	C212	0.516800	0.465200	0.583120
C2131	C213	0.443600	0.453100	0.562140
C2141	C214	0.439400	0.411600	0.521370
C2151	C215	0.504900	0.382200	0.499900
C2161	C216	0.576100	0.397700	0.520680
O271	O27	0.560470	0.995900	0.118730
O281	O28	0.615090	0.019900	0.187060
O291	O29	0.316560	0.092300	0.198690
O301	O30	0.390210	0.027900	0.151340
O311	O31	0.069160	0.706970	0.804000
O321	O32	0.986800	0.635400	0.840210
O331	O33	0.939530	0.495900	0.881270
O341	O34	0.884910	0.519900	0.812940
O351	O35	0.183440	0.592300	0.801310
O361	O36	0.109790	0.527900	0.848660
O371	O37	0.430840	0.206970	0.196000
O381	O38	0.513200	0.135400	0.159790
O391	O39	0.560470	0.995900	0.381270
O401	O40	0.615090	0.019900	0.312940
O411	O41	0.316560	0.092300	0.301310
O421	O42	0.390210	0.027900	0.348660
O431	O43	0.069160	0.706970	0.696000
O441	O44	0.986800	0.635400	0.659790
O451	O45	0.939530	0.495900	0.618730
O461	O46	0.884910	0.519900	0.687060
O471	O47	0.183440	0.592300	0.698690
O481	O48	0.109790	0.527900	0.651340
O491	O49	0.430840	0.206970	0.304000
O501	O50	0.513200	0.135400	0.340210
O511	O51	0.474500	0.072300	0.250000
O521	O52	0.025500	0.572300	0.750000
