data_DIBQEM_clean_PM
_symmetry_space_group_name_H-M	'P1'
_cell_length_a	23.598800
_cell_length_b	23.598800
_cell_length_c	23.598800
_cell_angle_alpha	109.471000
_cell_angle_beta	109.471000
_cell_angle_gamma	109.471000
_symmetry_Int_Tables_number 1

loop_
_symmetry_equiv_pos_as_xyz
'x,y,z'

loop_
_atom_site_label
_atom_site_type_symbol
_atom_site_fract_x
_atom_site_fract_y
_atom_site_fract_z
Co11	Co1	0.889850	0.445370	0.444480
Co21	Co2	0.000890	0.445370	0.555520
Co31	Co3	0.999110	0.554630	0.444480
Co41	Co4	0.110150	0.554630	0.555520
Co51	Co5	0.444480	0.999110	0.554630
Co61	Co6	0.555520	0.110150	0.554630
Co71	Co7	0.444480	0.889850	0.445370
Co81	Co8	0.555520	0.000890	0.445370
Co91	Co9	0.445370	0.555520	0.000890
Co101	Co10	0.445370	0.444480	0.889850
Co111	Co11	0.554630	0.555520	0.110150
Co121	Co12	0.554630	0.444480	0.999110
Co131	Co13	0.831600	0.500000	0.331600
Co141	Co14	0.168400	0.500000	0.668400
Co151	Co15	0.331600	0.831600	0.500000
Co161	Co16	0.668400	0.168400	0.500000
Co171	Co17	0.500000	0.668400	0.168400
Co181	Co18	0.500000	0.331600	0.831600
H11	H1	0.783300	0.230100	0.276800
H21	H2	0.725300	0.123800	0.182300
H31	H3	0.606800	0.180400	0.072600
H41	H4	0.679500	0.293900	0.162400
H51	H5	0.617500	0.018200	0.111900
H61	H6	0.953300	0.506500	0.723200
H71	H7	0.941500	0.543000	0.817700
H81	H8	0.107800	0.534200	0.927400
H91	H9	0.131500	0.517100	0.837600
H101	H10	0.906300	0.505600	0.888100
H111	H11	0.046700	0.769900	0.553200
H121	H12	0.058500	0.876200	0.601500
H131	H13	0.892200	0.819600	0.426400
H141	H14	0.868500	0.706100	0.385600
H151	H15	0.093700	0.981800	0.599300
H161	H16	0.216700	0.493500	0.446800
H171	H17	0.274700	0.457000	0.398500
H181	H18	0.393200	0.465800	0.573600
H191	H19	0.320500	0.482900	0.614400
H201	H20	0.382500	0.494400	0.400700
H211	H21	0.553200	0.046700	0.769900
H221	H22	0.601500	0.058500	0.876200
H231	H23	0.426400	0.892200	0.819600
H241	H24	0.385600	0.868500	0.706100
H251	H25	0.599300	0.093700	0.981800
H261	H26	0.446800	0.216700	0.493500
H271	H27	0.398500	0.274700	0.457000
H281	H28	0.573600	0.393200	0.465800
H291	H29	0.614400	0.320500	0.482900
H301	H30	0.400700	0.382500	0.494400
H311	H31	0.276800	0.783300	0.230100
H321	H32	0.182300	0.725300	0.123800
H331	H33	0.072600	0.606800	0.180400
H341	H34	0.162400	0.679500	0.293900
H351	H35	0.111900	0.617500	0.018200
H361	H36	0.723200	0.953300	0.506500
H371	H37	0.817700	0.941500	0.543000
H381	H38	0.927400	0.107800	0.534200
H391	H39	0.837600	0.131500	0.517100
H401	H40	0.888100	0.906300	0.505600
H411	H41	0.506500	0.723200	0.953300
H421	H42	0.543000	0.817700	0.941500
H431	H43	0.534200	0.927400	0.107800
H441	H44	0.517100	0.837600	0.131500
H451	H45	0.505600	0.888100	0.906300
H461	H46	0.230100	0.276800	0.783300
H471	H47	0.123800	0.182300	0.725300
H481	H48	0.180400	0.072600	0.606800
H491	H49	0.293900	0.162400	0.679500
H501	H50	0.018200	0.111900	0.617500
H511	H51	0.493500	0.446800	0.216700
H521	H52	0.457000	0.398500	0.274700
H531	H53	0.465800	0.573600	0.393200
H541	H54	0.482900	0.614400	0.320500
H551	H55	0.494400	0.400700	0.382500
H561	H56	0.769900	0.553200	0.046700
H571	H57	0.876200	0.601500	0.058500
H581	H58	0.819600	0.426400	0.892200
H591	H59	0.706100	0.385600	0.868500
H601	H60	0.981800	0.599300	0.093700
H611	H61	0.216700	0.769900	0.723200
H621	H62	0.274700	0.876200	0.817700
H631	H63	0.393200	0.819600	0.927400
H641	H64	0.320500	0.706100	0.837600
H651	H65	0.382500	0.981800	0.888100
H661	H66	0.046700	0.493500	0.276800
H671	H67	0.058500	0.457000	0.182300
H681	H68	0.892200	0.465800	0.072600
H691	H69	0.868500	0.482900	0.162400
H701	H70	0.093700	0.494400	0.111900
H711	H71	0.953300	0.230100	0.446800
H721	H72	0.941500	0.123800	0.398500
H731	H73	0.107800	0.180400	0.573600
H741	H74	0.131500	0.293900	0.614400
H751	H75	0.906300	0.018200	0.400700
H761	H76	0.783300	0.506500	0.553200
H771	H77	0.725300	0.543000	0.601500
H781	H78	0.606800	0.534200	0.426400
H791	H79	0.679500	0.517100	0.385600
H801	H80	0.617500	0.505600	0.599300
H811	H81	0.446800	0.953300	0.230100
H821	H82	0.398500	0.941500	0.123800
H831	H83	0.573600	0.107800	0.180400
H841	H84	0.614400	0.131500	0.293900
H851	H85	0.400700	0.906300	0.018200
H861	H86	0.553200	0.783300	0.506500
H871	H87	0.601500	0.725300	0.543000
H881	H88	0.426400	0.606800	0.534200
H891	H89	0.385600	0.679500	0.517100
H901	H90	0.599300	0.617500	0.505600
H911	H91	0.723200	0.216700	0.769900
H921	H92	0.817700	0.274700	0.876200
H931	H93	0.927400	0.393200	0.819600
H941	H94	0.837600	0.320500	0.706100
H951	H95	0.888100	0.382500	0.981800
H961	H96	0.276800	0.046700	0.493500
H971	H97	0.182300	0.058500	0.457000
H981	H98	0.072600	0.892200	0.465800
H991	H99	0.162400	0.868500	0.482900
H1001	H100	0.111900	0.093700	0.494400
H1011	H101	0.493500	0.276800	0.046700
H1021	H102	0.457000	0.182300	0.058500
H1031	H103	0.465800	0.072600	0.892200
H1041	H104	0.482900	0.162400	0.868500
H1051	H105	0.494400	0.111900	0.093700
H1061	H106	0.769900	0.723200	0.216700
H1071	H107	0.876200	0.817700	0.274700
H1081	H108	0.819600	0.927400	0.393200
H1091	H109	0.706100	0.837600	0.320500
H1101	H110	0.981800	0.888100	0.382500
H1111	H111	0.506500	0.553200	0.783300
H1121	H112	0.543000	0.601500	0.725300
H1131	H113	0.534200	0.426400	0.606800
H1141	H114	0.517100	0.385600	0.679500
H1151	H115	0.505600	0.599300	0.617500
H1161	H116	0.230100	0.446800	0.953300
H1171	H117	0.123800	0.398500	0.941500
H1181	H118	0.180400	0.573600	0.107800
H1191	H119	0.293900	0.614400	0.131500
H1201	H120	0.018200	0.400700	0.906300
C11	C1	0.785700	0.351200	0.288100
C21	C2	0.740600	0.274800	0.227800
C31	C3	0.751000	0.221000	0.234400
C41	C4	0.714300	0.157500	0.179600
C51	C5	0.658400	0.140200	0.117000
C61	C6	0.644500	0.191300	0.112200
C71	C7	0.686900	0.258900	0.166600
C81	C8	0.616200	0.067800	0.055400
C91	C9	0.600500	0.010500	0.066800
C101	C10	0.063100	0.497600	0.711900
C111	C11	0.047000	0.512800	0.772200
C121	C12	0.986600	0.516600	0.765600
C131	C13	0.977900	0.534700	0.820400
C141	C14	0.023200	0.541400	0.883000
C151	C15	0.079100	0.532300	0.887800
C161	C16	0.092300	0.520300	0.833400
C171	C17	0.012400	0.560800	0.944600
C181	C18	0.943700	0.533700	0.933200
C191	C19	0.936900	0.648800	0.434500
C201	C20	0.953000	0.725200	0.465800
C211	C21	0.013400	0.779000	0.530000
C221	C22	0.022100	0.842500	0.556800
C231	C23	0.976800	0.859800	0.518200
C241	C24	0.920900	0.808700	0.453200
C251	C25	0.907700	0.741100	0.428000
C261	C26	0.987600	0.932200	0.548400
C271	C27	0.056300	0.989500	0.590000
C281	C28	0.214300	0.502400	0.565500
C291	C29	0.259400	0.487200	0.534200
C301	C30	0.249000	0.483400	0.470000
C311	C31	0.285700	0.465300	0.443200
C321	C32	0.341600	0.458600	0.481800
C331	C33	0.355500	0.467700	0.546800
C341	C34	0.313100	0.479700	0.572000
C351	C35	0.383800	0.439200	0.451600
C361	C36	0.399500	0.466300	0.410000
C371	C37	0.434500	0.936900	0.648800
C381	C38	0.465800	0.953000	0.725200
C391	C39	0.530000	0.013400	0.779000
C401	C40	0.556800	0.022100	0.842500
C411	C41	0.518200	0.976800	0.859800
C421	C42	0.453200	0.920900	0.808700
C431	C43	0.428000	0.907700	0.741100
C441	C44	0.548400	0.987600	0.932200
C451	C45	0.590000	0.056300	0.989500
C461	C46	0.565500	0.214300	0.502400
C471	C47	0.534200	0.259400	0.487200
C481	C48	0.470000	0.249000	0.483400
C491	C49	0.443200	0.285700	0.465300
C501	C50	0.481800	0.341600	0.458600
C511	C51	0.546800	0.355500	0.467700
C521	C52	0.572000	0.313100	0.479700
C531	C53	0.451600	0.383800	0.439200
C541	C54	0.410000	0.399500	0.466300
C551	C55	0.288100	0.785700	0.351200
C561	C56	0.227800	0.740600	0.274800
C571	C57	0.234400	0.751000	0.221000
C581	C58	0.179600	0.714300	0.157500
C591	C59	0.117000	0.658400	0.140200
C601	C60	0.112200	0.644500	0.191300
C611	C61	0.166600	0.686900	0.258900
C621	C62	0.055400	0.616200	0.067800
C631	C63	0.066800	0.600500	0.010500
C641	C64	0.711900	0.063100	0.497600
C651	C65	0.772200	0.047000	0.512800
C661	C66	0.765600	0.986600	0.516600
C671	C67	0.820400	0.977900	0.534700
C681	C68	0.883000	0.023200	0.541400
C691	C69	0.887800	0.079100	0.532300
C701	C70	0.833400	0.092300	0.520300
C711	C71	0.944600	0.012400	0.560800
C721	C72	0.933200	0.943700	0.533700
C731	C73	0.497600	0.711900	0.063100
C741	C74	0.512800	0.772200	0.047000
C751	C75	0.516600	0.765600	0.986600
C761	C76	0.534700	0.820400	0.977900
C771	C77	0.541400	0.883000	0.023200
C781	C78	0.532300	0.887800	0.079100
C791	C79	0.520300	0.833400	0.092300
C801	C80	0.560800	0.944600	0.012400
C811	C81	0.533700	0.933200	0.943700
C821	C82	0.351200	0.288100	0.785700
C831	C83	0.274800	0.227800	0.740600
C841	C84	0.221000	0.234400	0.751000
C851	C85	0.157500	0.179600	0.714300
C861	C86	0.140200	0.117000	0.658400
C871	C87	0.191300	0.112200	0.644500
C881	C88	0.258900	0.166600	0.686900
C891	C89	0.067800	0.055400	0.616200
C901	C90	0.010500	0.066800	0.600500
C911	C91	0.502400	0.565500	0.214300
C921	C92	0.487200	0.534200	0.259400
C931	C93	0.483400	0.470000	0.249000
C941	C94	0.465300	0.443200	0.285700
C951	C95	0.458600	0.481800	0.341600
C961	C96	0.467700	0.546800	0.355500
C971	C97	0.479700	0.572000	0.313100
C981	C98	0.439200	0.451600	0.383800
C991	C99	0.466300	0.410000	0.399500
C1001	C100	0.648800	0.434500	0.936900
C1011	C101	0.725200	0.465800	0.953000
C1021	C102	0.779000	0.530000	0.013400
C1031	C103	0.842500	0.556800	0.022100
C1041	C104	0.859800	0.518200	0.976800
C1051	C105	0.808700	0.453200	0.920900
C1061	C106	0.741100	0.428000	0.907700
C1071	C107	0.932200	0.548400	0.987600
C1081	C108	0.989500	0.590000	0.056300
C1091	C109	0.214300	0.648800	0.711900
C1101	C110	0.259400	0.725200	0.772200
C1111	C111	0.249000	0.779000	0.765600
C1121	C112	0.285700	0.842500	0.820400
C1131	C113	0.341600	0.859800	0.883000
C1141	C114	0.355500	0.808700	0.887800
C1151	C115	0.313100	0.741100	0.833400
C1161	C116	0.383800	0.932200	0.944600
C1171	C117	0.399500	0.989500	0.933200
C1181	C118	0.936900	0.502400	0.288100
C1191	C119	0.953000	0.487200	0.227800
C1201	C120	0.013400	0.483400	0.234400
C1211	C121	0.022100	0.465300	0.179600
C1221	C122	0.976800	0.458600	0.117000
C1231	C123	0.920900	0.467700	0.112200
C1241	C124	0.907700	0.479700	0.166600
C1251	C125	0.987600	0.439200	0.055400
C1261	C126	0.056300	0.466300	0.066800
C1271	C127	0.063100	0.351200	0.565500
C1281	C128	0.047000	0.274800	0.534200
C1291	C129	0.986600	0.221000	0.470000
C1301	C130	0.977900	0.157500	0.443200
C1311	C131	0.023200	0.140200	0.481800
C1321	C132	0.079100	0.191300	0.546800
C1331	C133	0.092300	0.258900	0.572000
C1341	C134	0.012400	0.067800	0.451600
C1351	C135	0.943700	0.010500	0.410000
C1361	C136	0.785700	0.497600	0.434500
C1371	C137	0.740600	0.512800	0.465800
C1381	C138	0.751000	0.516600	0.530000
C1391	C139	0.714300	0.534700	0.556800
C1401	C140	0.658400	0.541400	0.518200
C1411	C141	0.644500	0.532300	0.453200
C1421	C142	0.686900	0.520300	0.428000
C1431	C143	0.616200	0.560800	0.548400
C1441	C144	0.600500	0.533700	0.590000
C1451	C145	0.565500	0.063100	0.351200
C1461	C146	0.534200	0.047000	0.274800
C1471	C147	0.470000	0.986600	0.221000
C1481	C148	0.443200	0.977900	0.157500
C1491	C149	0.481800	0.023200	0.140200
C1501	C150	0.546800	0.079100	0.191300
C1511	C151	0.572000	0.092300	0.258900
C1521	C152	0.451600	0.012400	0.067800
C1531	C153	0.410000	0.943700	0.010500
C1541	C154	0.434500	0.785700	0.497600
C1551	C155	0.465800	0.740600	0.512800
C1561	C156	0.530000	0.751000	0.516600
C1571	C157	0.556800	0.714300	0.534700
C1581	C158	0.518200	0.658400	0.541400
C1591	C159	0.453200	0.644500	0.532300
C1601	C160	0.428000	0.686900	0.520300
C1611	C161	0.548400	0.616200	0.560800
C1621	C162	0.590000	0.600500	0.533700
C1631	C163	0.711900	0.214300	0.648800
C1641	C164	0.772200	0.259400	0.725200
C1651	C165	0.765600	0.249000	0.779000
C1661	C166	0.820400	0.285700	0.842500
C1671	C167	0.883000	0.341600	0.859800
C1681	C168	0.887800	0.355500	0.808700
C1691	C169	0.833400	0.313100	0.741100
C1701	C170	0.944600	0.383800	0.932200
C1711	C171	0.933200	0.399500	0.989500
C1721	C172	0.288100	0.936900	0.502400
C1731	C173	0.227800	0.953000	0.487200
C1741	C174	0.234400	0.013400	0.483400
C1751	C175	0.179600	0.022100	0.465300
C1761	C176	0.117000	0.976800	0.458600
C1771	C177	0.112200	0.920900	0.467700
C1781	C178	0.166600	0.907700	0.479700
C1791	C179	0.055400	0.987600	0.439200
C1801	C180	0.066800	0.056300	0.466300
C1811	C181	0.502400	0.288100	0.936900
C1821	C182	0.487200	0.227800	0.953000
C1831	C183	0.483400	0.234400	0.013400
C1841	C184	0.465300	0.179600	0.022100
C1851	C185	0.458600	0.117000	0.976800
C1861	C186	0.467700	0.112200	0.920900
C1871	C187	0.479700	0.166600	0.907700
C1881	C188	0.439200	0.055400	0.987600
C1891	C189	0.466300	0.066800	0.056300
C1901	C190	0.648800	0.711900	0.214300
C1911	C191	0.725200	0.772200	0.259400
C1921	C192	0.779000	0.765600	0.249000
C1931	C193	0.842500	0.820400	0.285700
C1941	C194	0.859800	0.883000	0.341600
C1951	C195	0.808700	0.887800	0.355500
C1961	C196	0.741100	0.833400	0.313100
C1971	C197	0.932200	0.944600	0.383800
C1981	C198	0.989500	0.933200	0.399500
C1991	C199	0.497600	0.434500	0.785700
C2001	C200	0.512800	0.465800	0.740600
C2011	C201	0.516600	0.530000	0.751000
C2021	C202	0.534700	0.556800	0.714300
C2031	C203	0.541400	0.518200	0.658400
C2041	C204	0.532300	0.453200	0.644500
C2051	C205	0.520300	0.428000	0.686900
C2061	C206	0.560800	0.548400	0.616200
C2071	C207	0.533700	0.590000	0.600500
C2081	C208	0.351200	0.565500	0.063100
C2091	C209	0.274800	0.534200	0.047000
C2101	C210	0.221000	0.470000	0.986600
C2111	C211	0.157500	0.443200	0.977900
C2121	C212	0.140200	0.481800	0.023200
C2131	C213	0.191300	0.546800	0.079100
C2141	C214	0.258900	0.572000	0.092300
C2151	C215	0.067800	0.451600	0.012400
C2161	C216	0.010500	0.410000	0.943700
O11	O1	0.829800	0.360600	0.345800
O21	O2	0.776500	0.393900	0.276200
O31	O3	0.014800	0.484000	0.654200
O41	O4	0.117700	0.500300	0.723800
O51	O5	0.985200	0.639400	0.469200
O61	O6	0.882300	0.606100	0.382600
O71	O7	0.170200	0.516000	0.530800
O81	O8	0.223500	0.499700	0.617400
O91	O9	0.469200	0.985200	0.639400
O101	O10	0.382600	0.882300	0.606100
O111	O11	0.530800	0.170200	0.516000
O121	O12	0.617400	0.223500	0.499700
O131	O13	0.345800	0.829800	0.360600
O141	O14	0.276200	0.776500	0.393900
O151	O15	0.654200	0.014800	0.484000
O161	O16	0.723800	0.117700	0.500300
O171	O17	0.484000	0.654200	0.014800
O181	O18	0.500300	0.723800	0.117700
O191	O19	0.360600	0.345800	0.829800
O201	O20	0.393900	0.276200	0.776500
O211	O21	0.516000	0.530800	0.170200
O221	O22	0.499700	0.617400	0.223500
O231	O23	0.639400	0.469200	0.985200
O241	O24	0.606100	0.382600	0.882300
O251	O25	0.170200	0.639400	0.654200
O261	O26	0.223500	0.606100	0.723800
O271	O27	0.985200	0.516000	0.345800
O281	O28	0.882300	0.499700	0.276200
O291	O29	0.014800	0.360600	0.530800
O301	O30	0.117700	0.393900	0.617400
O311	O31	0.829800	0.484000	0.469200
O321	O32	0.776500	0.500300	0.382600
O331	O33	0.530800	0.014800	0.360600
O341	O34	0.617400	0.117700	0.393900
O351	O35	0.469200	0.829800	0.484000
O361	O36	0.382600	0.776500	0.500300
O371	O37	0.654200	0.170200	0.639400
O381	O38	0.723800	0.223500	0.606100
O391	O39	0.345800	0.985200	0.516000
O401	O40	0.276200	0.882300	0.499700
O411	O41	0.516000	0.345800	0.985200
O421	O42	0.499700	0.276200	0.882300
O431	O43	0.639400	0.654200	0.170200
O441	O44	0.606100	0.723800	0.223500
O451	O45	0.484000	0.469200	0.829800
O461	O46	0.500300	0.382600	0.776500
O471	O47	0.360600	0.530800	0.014800
O481	O48	0.393900	0.617400	0.117700
O491	O49	0.909500	0.500000	0.409500
O501	O50	0.090500	0.500000	0.590500
O511	O51	0.409500	0.909500	0.500000
O521	O52	0.590500	0.090500	0.500000
O531	O53	0.500000	0.590500	0.090500
O541	O54	0.500000	0.409500	0.909500
O551	O55	0.968100	0.414900	0.446800
O561	O56	0.968100	0.521300	0.553200
O571	O57	0.031900	0.585100	0.553200
O581	O58	0.031900	0.478700	0.446800
O591	O59	0.553200	0.031900	0.585100
O601	O60	0.446800	0.031900	0.478700
O611	O61	0.446800	0.968100	0.414900
O621	O62	0.553200	0.968100	0.521300
O631	O63	0.521300	0.553200	0.968100
O641	O64	0.414900	0.446800	0.968100
O651	O65	0.478700	0.446800	0.031900
O661	O66	0.585100	0.553200	0.031900
O671	O67	0.889600	0.389600	0.500000
O681	O68	0.110400	0.610400	0.500000
O691	O69	0.500000	0.110400	0.610400
O701	O70	0.500000	0.889600	0.389600
O711	O71	0.389600	0.500000	0.889600
O721	O72	0.610400	0.500000	0.110400
