data_DIBWUH_clean_PM
_symmetry_space_group_name_H-M	'P1'
_cell_length_a	13.931800
_cell_length_b	13.931800
_cell_length_c	17.746100
_cell_angle_alpha	113.112000
_cell_angle_beta	113.112000
_cell_angle_gamma	90.000000
_symmetry_Int_Tables_number 1

loop_
_symmetry_equiv_pos_as_xyz
'x,y,z'

loop_
_atom_site_label
_atom_site_type_symbol
_atom_site_fract_x
_atom_site_fract_y
_atom_site_fract_z
Ni11	Ni1	0.747820	0.482780	0.823420
Ni21	Ni2	0.575600	0.340640	0.823420
Ni31	Ni3	0.924400	0.017220	0.176580
Ni41	Ni4	0.752180	0.159360	0.176580
Ni51	Ni5	0.517220	0.424400	0.676580
Ni61	Ni6	0.659360	0.252180	0.676580
Ni71	Ni7	0.840640	0.075600	0.323420
Ni81	Ni8	0.982780	0.247820	0.323420
H11	H1	0.609900	0.583300	0.934000
H21	H2	0.499600	0.568000	0.854600
H31	H3	0.600100	0.635300	0.868000
H41	H4	0.824100	0.350700	0.934000
H51	H5	0.855000	0.286600	0.854600
H61	H6	0.767900	0.232700	0.868000
H71	H7	0.675900	0.916700	0.066000
H81	H8	0.645000	0.932000	0.145400
H91	H9	0.732100	0.864700	0.132000
H101	H10	0.890100	0.149300	0.066000
H111	H11	0.000400	0.213400	0.145400
H121	H12	0.899900	0.267300	0.132000
H131	H13	0.416700	0.175900	0.566000
H141	H14	0.432000	0.145000	0.645400
H151	H15	0.364700	0.232100	0.632000
H161	H16	0.649300	0.390100	0.566000
H171	H17	0.713400	0.500400	0.645400
H181	H18	0.767300	0.399900	0.632000
H191	H19	0.850700	0.324100	0.434000
H201	H20	0.786600	0.355000	0.354600
H211	H21	0.732700	0.267900	0.368000
H221	H22	0.083300	0.109900	0.434000
H231	H23	0.068000	0.999600	0.354600
H241	H24	0.135300	0.100100	0.368000
C11	C1	0.869820	0.617150	0.035640
C21	C2	0.574750	0.574580	0.872500
C31	C3	0.933120	0.779850	0.148880
C41	C4	0.665820	0.418490	0.035640
C51	C5	0.797750	0.297920	0.872500
C61	C6	0.715760	0.369030	0.148880
C71	C7	0.834180	0.882850	0.964360
C81	C8	0.702250	0.925420	0.127500
C91	C9	0.784240	0.720150	0.851120
C101	C10	0.630180	0.081510	0.964360
C111	C11	0.925250	0.202080	0.127500
C121	C12	0.566880	0.130970	0.851120
C131	C13	0.382850	0.334180	0.464360
C141	C14	0.425420	0.202250	0.627500
C151	C15	0.220150	0.284240	0.351120
C161	C16	0.581510	0.130180	0.464360
C171	C17	0.702080	0.425250	0.627500
C181	C18	0.630970	0.066880	0.351120
C191	C19	0.918490	0.165820	0.535640
C201	C20	0.797920	0.297750	0.372500
C211	C21	0.869030	0.215760	0.648880
C221	C22	0.117150	0.369820	0.535640
C231	C23	0.074580	0.074750	0.372500
C241	C24	0.279850	0.433120	0.648880
N11	N1	0.823630	0.557060	0.962540
N21	N2	0.944720	0.869830	0.179220
N31	N3	0.927460	0.677960	0.121520
N41	N4	0.638910	0.405480	0.962540
N51	N5	0.734500	0.309390	0.179220
N61	N6	0.694060	0.443560	0.121520
N71	N7	0.861090	0.942940	0.037460
N81	N8	0.765500	0.630170	0.820780
N91	N9	0.805940	0.822040	0.878480
N101	N10	0.676370	0.094520	0.037460
N111	N11	0.555280	0.190610	0.820780
N121	N12	0.572540	0.056440	0.878480
N131	N13	0.442940	0.361090	0.537460
N141	N14	0.130170	0.265500	0.320780
N151	N15	0.322040	0.305940	0.378480
N161	N16	0.594520	0.176370	0.537460
N171	N17	0.690610	0.055280	0.320780
N181	N18	0.556440	0.072540	0.378480
N191	N19	0.905480	0.138910	0.462540
N201	N20	0.809390	0.234500	0.679220
N211	N21	0.943560	0.194060	0.621520
N221	N22	0.057060	0.323630	0.462540
N231	N23	0.369830	0.444720	0.679220
N241	N24	0.177960	0.427460	0.621520
O11	O1	0.596530	0.481600	0.814760
O21	O2	0.718230	0.333160	0.814760
O31	O3	0.781770	0.018400	0.185240
O41	O4	0.903470	0.166840	0.185240
O51	O5	0.518400	0.281770	0.685240
O61	O6	0.666840	0.403470	0.685240
O71	O7	0.833160	0.218230	0.314760
O81	O8	0.981600	0.096530	0.314760
Ni91	Ni9	0.482780	0.575600	0.323420
Ni101	Ni10	0.340640	0.747820	0.323420
Ni111	Ni11	0.159360	0.924400	0.676580
Ni121	Ni12	0.017220	0.752180	0.676580
Ni131	Ni13	0.252180	0.517220	0.176580
Ni141	Ni14	0.424400	0.659360	0.176580
Ni151	Ni15	0.075600	0.982780	0.823420
Ni161	Ni16	0.247820	0.840640	0.823420
H251	H25	0.583300	0.824100	0.434000
H261	H26	0.568000	0.855000	0.354600
H271	H27	0.635300	0.767900	0.368000
H281	H28	0.350700	0.609900	0.434000
H291	H29	0.286600	0.499600	0.354600
H301	H30	0.232700	0.600100	0.368000
H311	H31	0.149300	0.675900	0.566000
H321	H32	0.213400	0.645000	0.645400
H331	H33	0.267300	0.732100	0.632000
H341	H34	0.916700	0.890100	0.566000
H351	H35	0.932000	0.000400	0.645400
H361	H36	0.864700	0.899900	0.632000
H371	H37	0.390100	0.416700	0.066000
H381	H38	0.500400	0.432000	0.145400
H391	H39	0.399900	0.364700	0.132000
H401	H40	0.175900	0.649300	0.066000
H411	H41	0.145000	0.713400	0.145400
H421	H42	0.232100	0.767300	0.132000
H431	H43	0.324100	0.083300	0.934000
H441	H44	0.355000	0.068000	0.854600
H451	H45	0.267900	0.135300	0.868000
H461	H46	0.109900	0.850700	0.934000
H471	H47	0.999600	0.786600	0.854600
H481	H48	0.100100	0.732700	0.868000
C251	C25	0.617150	0.665820	0.535640
C261	C26	0.574580	0.797750	0.372500
C271	C27	0.779850	0.715760	0.648880
C281	C28	0.418490	0.869820	0.535640
C291	C29	0.297920	0.574750	0.372500
C301	C30	0.369030	0.933120	0.648880
C311	C31	0.081510	0.834180	0.464360
C321	C32	0.202080	0.702250	0.627500
C331	C33	0.130970	0.784240	0.351120
C341	C34	0.882850	0.630180	0.464360
C351	C35	0.925420	0.925250	0.627500
C361	C36	0.720150	0.566880	0.351120
C371	C37	0.130180	0.382850	0.964360
C381	C38	0.425250	0.425420	0.127500
C391	C39	0.066880	0.220150	0.851120
C401	C40	0.334180	0.581510	0.964360
C411	C41	0.202250	0.702080	0.127500
C421	C42	0.284240	0.630970	0.851120
C431	C43	0.165820	0.117150	0.035640
C441	C44	0.297750	0.074580	0.872500
C451	C45	0.215760	0.279850	0.148880
C461	C46	0.369820	0.918490	0.035640
C471	C47	0.074750	0.797920	0.872500
C481	C48	0.433120	0.869030	0.148880
N251	N25	0.557060	0.638910	0.462540
N261	N26	0.869830	0.734500	0.679220
N271	N27	0.677960	0.694060	0.621520
N281	N28	0.405480	0.823630	0.462540
N291	N29	0.309390	0.944720	0.679220
N301	N30	0.443560	0.927460	0.621520
N311	N31	0.094520	0.861090	0.537460
N321	N32	0.190610	0.765500	0.320780
N331	N33	0.056440	0.805940	0.378480
N341	N34	0.942940	0.676370	0.537460
N351	N35	0.630170	0.555280	0.320780
N361	N36	0.822040	0.572540	0.378480
N371	N37	0.176370	0.442940	0.037460
N381	N38	0.055280	0.130170	0.820780
N391	N39	0.072540	0.322040	0.878480
N401	N40	0.361090	0.594520	0.037460
N411	N41	0.265500	0.690610	0.820780
N421	N42	0.305940	0.556440	0.878480
N431	N43	0.138910	0.057060	0.962540
N441	N44	0.234500	0.369830	0.179220
N451	N45	0.194060	0.177960	0.121520
N461	N46	0.323630	0.905480	0.962540
N471	N47	0.444720	0.809390	0.179220
N481	N48	0.427460	0.943560	0.121520
O91	O9	0.481600	0.718230	0.314760
O101	O10	0.333160	0.596530	0.314760
O111	O11	0.166840	0.781770	0.685240
O121	O12	0.018400	0.903470	0.685240
O131	O13	0.403470	0.518400	0.185240
O141	O14	0.281770	0.666840	0.185240
O151	O15	0.218230	0.981600	0.814760
O161	O16	0.096530	0.833160	0.814760
