data_DIBXOD_clean_PM
_symmetry_space_group_name_H-M	'P1'
_cell_length_a	10.676100
_cell_length_b	10.735600
_cell_length_c	11.963700
_cell_angle_alpha	69.991000
_cell_angle_beta	77.562000
_cell_angle_gamma	60.841200
_symmetry_Int_Tables_number 1

loop_
_symmetry_equiv_pos_as_xyz
'x,y,z'

loop_
_atom_site_label
_atom_site_type_symbol
_atom_site_fract_x
_atom_site_fract_y
_atom_site_fract_z
Dy11	Dy1	0.548630	0.998370	0.161450
Dy21	Dy2	0.451370	0.001630	0.838550
Cu11	Cu1	0.000000	0.000000	0.000000
Cu21	Cu2	0.000000	0.000000	0.500000
H11	H1	0.010600	0.272200	0.514700
H21	H2	0.911300	0.521300	0.430100
H31	H3	0.692600	0.479700	0.227000
H41	H4	0.791900	0.232800	0.320900
H51	H5	0.999500	0.718300	0.184800
H61	H6	0.132800	0.465200	0.219700
H71	H7	0.394800	0.531400	0.935000
H81	H8	0.255700	0.781600	0.905600
H91	H9	0.989400	0.727800	0.485300
H101	H10	0.088700	0.478700	0.569900
H111	H11	0.307400	0.520300	0.773000
H121	H12	0.208100	0.767200	0.679100
H131	H13	0.000500	0.281700	0.815200
H141	H14	0.867200	0.534800	0.780300
H151	H15	0.605200	0.468600	0.065000
H161	H16	0.744300	0.218400	0.094400
C11	C1	0.177800	0.978700	0.283200
C21	C2	0.171600	0.988100	0.163900
C31	C3	0.282600	0.965300	0.356800
C41	C4	0.265600	0.004400	0.056200
C51	C5	0.944200	0.314200	0.457200
C61	C6	0.885600	0.464000	0.405500
C71	C7	0.788200	0.533000	0.316700
C81	C8	0.756000	0.441000	0.286000
C91	C9	0.817000	0.292000	0.343300
C101	C10	0.723300	0.695700	0.254100
C111	C11	0.077700	0.679500	0.133400
C121	C12	0.158000	0.528600	0.154900
C131	C13	0.276000	0.471200	0.080200
C141	C14	0.314100	0.567400	0.985300
C151	C15	0.229900	0.716400	0.968100
C161	C16	0.371400	0.303500	0.108200
C171	C17	0.822200	0.021300	0.716800
C181	C18	0.828400	0.011900	0.836100
C191	C19	0.717400	0.034700	0.643200
C201	C20	0.734400	0.995600	0.943800
C211	C21	0.055800	0.685800	0.542800
C221	C22	0.114400	0.536000	0.594500
C231	C23	0.211800	0.467000	0.683300
C241	C24	0.244000	0.559000	0.714000
C251	C25	0.183000	0.708000	0.656700
C261	C26	0.276700	0.304300	0.745900
C271	C27	0.922300	0.320500	0.866600
C281	C28	0.842000	0.471400	0.845100
C291	C29	0.724000	0.528800	0.919800
C301	C30	0.685900	0.432600	0.014700
C311	C31	0.770100	0.283600	0.031900
C321	C32	0.628600	0.696500	0.891800
N11	N1	0.059400	0.978300	0.337200
N21	N2	0.979100	0.978600	0.259800
N31	N3	0.047100	0.991800	0.155300
N41	N4	0.909300	0.226700	0.428100
N51	N5	0.112300	0.772600	0.037000
N61	N6	0.940600	0.021700	0.662800
N71	N7	0.020900	0.021400	0.740200
N81	N8	0.952900	0.008200	0.844700
N91	N9	0.090700	0.773300	0.571900
N101	N10	0.887700	0.227400	0.963000
O11	O1	0.235600	0.992900	0.455800
O21	O2	0.414100	0.925600	0.314900
O31	O3	0.382600	0.006500	0.055000
O41	O4	0.221400	0.014500	0.958100
O51	O5	0.737200	0.782100	0.293700
O61	O6	0.645400	0.741800	0.171000
O71	O7	0.487500	0.251700	0.044600
O81	O8	0.333500	0.218300	0.192100
O91	O9	0.764400	0.007100	0.544200
O101	O10	0.585900	0.074400	0.685100
O111	O11	0.617400	0.993500	0.945000
O121	O12	0.778600	0.985500	0.041900
O131	O13	0.262800	0.217900	0.706300
O141	O14	0.354600	0.258200	0.829000
O151	O15	0.512500	0.748300	0.955400
O161	O16	0.666500	0.781700	0.807900
