data_DILXED_clean_PM
_symmetry_space_group_name_H-M	'P1'
_cell_length_a	12.254900
_cell_length_b	13.569900
_cell_length_c	38.232000
_cell_angle_alpha	97.443000
_cell_angle_beta	90.000000
_cell_angle_gamma	90.000000
_symmetry_Int_Tables_number 1

loop_
_symmetry_equiv_pos_as_xyz
'x,y,z'

loop_
_atom_site_label
_atom_site_type_symbol
_atom_site_fract_x
_atom_site_fract_y
_atom_site_fract_z
Cd11	Cd1	0.682210	0.948590	0.336110
Cd21	Cd2	0.395610	0.331460	0.423100
Cd31	Cd3	0.080270	0.872710	0.636430
Cd41	Cd4	0.580270	0.127290	0.863570
Cd51	Cd5	0.328730	0.512940	0.941110
Cd61	Cd6	0.895610	0.668540	0.076900
Cd71	Cd7	0.104390	0.331460	0.923100
Cd81	Cd8	0.171270	0.512940	0.441110
Cd91	Cd9	0.919730	0.127290	0.363560
Cd101	Cd10	0.419730	0.872710	0.136430
Cd111	Cd11	0.604390	0.668540	0.576900
Cd121	Cd12	0.317790	0.051410	0.663890
Cd131	Cd13	0.671270	0.487060	0.058890
Cd141	Cd14	0.817790	0.948590	0.836110
Cd151	Cd15	0.182210	0.051410	0.163890
Cd161	Cd16	0.828730	0.487060	0.558890
H11	H1	0.880300	0.665100	0.869900
H21	H2	0.029200	0.061200	0.532000
H31	H3	0.936900	0.727900	0.162000
H41	H4	0.117600	0.787700	0.848900
H51	H5	0.827800	0.109100	0.980300
H61	H6	0.413500	0.465800	0.183300
H71	H7	0.020200	0.784300	0.379400
H81	H8	0.979800	0.215700	0.620600
H91	H9	0.776500	0.680700	0.448900
H101	H10	0.327800	0.890900	0.519700
H111	H11	0.149300	0.580900	0.089700
H121	H12	0.278100	0.709700	0.626900
H131	H13	0.223700	0.348800	0.586300
H141	H14	0.436900	0.272100	0.338000
H151	H15	0.813200	0.255400	0.184200
H161	H16	0.686800	0.255400	0.684200
H171	H17	0.529200	0.938800	0.968000
H181	H18	0.817300	0.791300	0.370100
H191	H19	0.276500	0.319300	0.051100
H201	H20	0.055100	0.640600	0.794000
H211	H21	0.172200	0.890900	0.019700
H221	H22	0.295900	0.536500	0.311100
H231	H23	0.214200	0.455700	0.836700
H241	H24	0.658200	0.955100	0.521700
H251	H25	0.682700	0.791300	0.870100
H261	H26	0.892600	0.224500	0.591100
H271	H27	0.926300	0.119600	0.600500
H281	H28	0.649300	0.419100	0.410300
H291	H29	0.478400	0.528300	0.692300
H301	H30	0.158200	0.044900	0.978300
H311	H31	0.392300	0.462300	0.314400
H321	H32	0.619700	0.665100	0.369900
H331	H33	0.037300	0.497100	0.357700
H341	H34	0.382400	0.787700	0.348900
H351	H35	0.276300	0.348800	0.086300
H361	H36	0.297800	0.032800	0.866800
H371	H37	0.335300	0.665400	0.012600
H381	H38	0.233000	0.641300	0.346600
H391	H39	0.703800	0.415200	0.789800
H401	H40	0.607400	0.224500	0.091100
H411	H41	0.882400	0.212300	0.151100
H421	H42	0.903500	0.178500	0.717400
H431	H43	0.086500	0.465800	0.683300
H441	H44	0.795900	0.463500	0.188900
H451	H45	0.620600	0.925800	0.258900
H461	H46	0.965500	0.848100	0.710300
H471	H47	0.506800	0.700700	0.386200
H481	H48	0.098000	0.791500	0.552400
H491	H49	0.906800	0.475400	0.841800
H501	H50	0.714200	0.544300	0.663300
H511	H51	0.944900	0.359400	0.206000
H521	H52	0.743300	0.820700	0.537200
H531	H53	0.341800	0.044900	0.478300
H541	H54	0.915800	0.110600	0.541900
H551	H55	0.563100	0.727900	0.662000
H561	H56	0.175000	0.799300	0.963500
H571	H57	0.444900	0.976000	0.322200
H581	H58	0.279100	0.204100	0.602600
H591	H59	0.479800	0.784300	0.879400
H601	H60	0.860500	0.676300	0.479600
H611	H61	0.056200	0.665900	0.951100
H621	H62	0.470800	0.061200	0.032000
H631	H63	0.776300	0.651200	0.413700
H641	H64	0.462700	0.497100	0.857700
H651	H65	0.672200	0.109100	0.480300
H661	H66	0.186800	0.744600	0.815800
H671	H67	0.403500	0.821500	0.782600
H681	H68	0.465500	0.151900	0.789700
H691	H69	0.767000	0.358700	0.653400
H701	H70	0.685300	0.898700	0.939700
H711	H71	0.652200	0.730300	0.714400
H721	H72	0.380300	0.334900	0.630100
H731	H73	0.376400	0.458200	0.687400
H741	H74	0.498400	0.837800	0.981300
H751	H75	0.970800	0.938800	0.468000
H761	H76	0.123600	0.458200	0.187400
H771	H77	0.493200	0.299300	0.613800
H781	H78	0.902000	0.208500	0.447600
H791	H79	0.347800	0.269700	0.285600
H801	H80	0.978400	0.471700	0.807700
H811	H81	0.267000	0.641300	0.846600
H821	H82	0.063100	0.272100	0.838000
H831	H83	0.639800	0.018300	0.730600
H841	H84	0.053000	0.403700	0.108000
H851	H85	0.285800	0.455700	0.336700
H861	H86	0.203800	0.584800	0.710200
H871	H87	0.096500	0.821500	0.282600
H881	H88	0.223500	0.319300	0.551100
H891	H89	0.835300	0.334600	0.487400
H901	H90	0.426300	0.880400	0.899500
H911	H91	0.913500	0.534200	0.316700
H921	H92	0.598000	0.208500	0.947600
H931	H93	0.107400	0.775500	0.408900
H941	H94	0.139800	0.981700	0.769400
H951	H95	0.313200	0.744600	0.315800
H961	H96	0.875500	0.648400	0.387100
H971	H97	0.534500	0.848100	0.210300
H981	H98	0.325000	0.799300	0.463500
H991	H99	0.675000	0.200700	0.536500
H1001	H100	0.152200	0.269700	0.785600
H1011	H101	0.797800	0.967200	0.633200
H1021	H102	0.295400	0.900600	0.386300
H1031	H103	0.509200	0.094500	0.169300
H1041	H104	0.199600	0.686200	0.880000
H1051	H105	0.001600	0.837800	0.481300
H1061	H106	0.800400	0.313800	0.120000
H1071	H107	0.119700	0.334900	0.130100
H1081	H108	0.704100	0.463500	0.688900
H1091	H109	0.847800	0.730300	0.214400
H1101	H110	0.555100	0.359400	0.706000
H1111	H111	0.944900	0.024000	0.177800
H1121	H112	0.360500	0.323700	0.020400
H1131	H113	0.623600	0.541800	0.312600
H1141	H114	0.943800	0.334100	0.048900
H1151	H115	0.375500	0.351600	0.112900
H1161	H116	0.521600	0.471700	0.307700
H1171	H117	0.573700	0.119600	0.100500
H1181	H118	0.993200	0.700700	0.886200
H1191	H119	0.860200	0.018300	0.230600
H1201	H120	0.021600	0.528300	0.192300
H1211	H121	0.593200	0.475400	0.341800
H1221	H122	0.596500	0.178500	0.217400
H1231	H123	0.796200	0.415200	0.289800
H1241	H124	0.188600	0.221400	0.527400
H1251	H125	0.850700	0.419100	0.910300
H1261	H126	0.556200	0.334100	0.548900
H1271	H127	0.537300	0.502900	0.142300
H1281	H128	0.841800	0.955100	0.021700
H1291	H129	0.311400	0.221400	0.027400
H1301	H130	0.185300	0.101300	0.560300
H1311	H131	0.093200	0.524600	0.158200
H1321	H132	0.723700	0.651200	0.913700
H1331	H133	0.009200	0.905500	0.330700
H1341	H134	0.256700	0.179300	0.462800
H1351	H135	0.639500	0.676300	0.979600
H1361	H136	0.892300	0.537700	0.185600
H1371	H137	0.723500	0.680700	0.948900
H1381	H138	0.139500	0.323700	0.520400
H1391	H139	0.779100	0.795900	0.897400
H1401	H140	0.444900	0.640600	0.294000
H1411	H141	0.034500	0.151900	0.289700
H1421	H142	0.055100	0.976000	0.822200
H1431	H143	0.704600	0.099400	0.613700
H1441	H144	0.296200	0.584800	0.210200
H1451	H145	0.778100	0.290300	0.873100
H1461	H146	0.607700	0.537700	0.685600
H1471	H147	0.073700	0.880400	0.399500
H1481	H148	0.202200	0.032800	0.366800
H1491	H149	0.204600	0.900600	0.886300
H1501	H150	0.624500	0.648400	0.887100
H1511	H151	0.586500	0.534200	0.816700
H1521	H152	0.415800	0.889400	0.958100
H1531	H153	0.720900	0.795900	0.397400
H1541	H154	0.317300	0.208700	0.129900
H1551	H155	0.204100	0.536500	0.811100
H1561	H156	0.756700	0.820700	0.037200
H1571	H157	0.584200	0.110600	0.041900
H1581	H158	0.962700	0.502900	0.642300
H1591	H159	0.520200	0.215700	0.120600
H1601	H160	0.795400	0.099400	0.113700
H1611	H161	0.221900	0.709700	0.126900
H1621	H162	0.617600	0.212300	0.651100
H1631	H163	0.350700	0.580900	0.589700
H1641	H164	0.825000	0.200700	0.036500
H1651	H165	0.721900	0.290300	0.373100
H1661	H166	0.733000	0.358700	0.153400
H1671	H167	0.998400	0.162200	0.518700
H1681	H168	0.300400	0.686200	0.380000
H1691	H169	0.553000	0.596300	0.392000
H1701	H170	0.811400	0.778600	0.472600
H1711	H171	0.688600	0.778600	0.972600
H1721	H172	0.314700	0.101300	0.060300
H1731	H173	0.702200	0.967200	0.133200
H1741	H174	0.243300	0.179300	0.962800
H1751	H175	0.447000	0.403700	0.608000
H1761	H176	0.379400	0.074200	0.741100
H1771	H177	0.879400	0.925800	0.758900
H1781	H178	0.402000	0.791500	0.052400
H1791	H179	0.490800	0.905500	0.830700
H1801	H180	0.555100	0.024000	0.677800
H1811	H181	0.084200	0.889400	0.458100
H1821	H182	0.501600	0.162200	0.018700
H1831	H183	0.182700	0.208700	0.629900
H1841	H184	0.220900	0.204100	0.102600
H1851	H185	0.947000	0.596300	0.892000
H1861	H186	0.124500	0.351600	0.612900
H1871	H187	0.164700	0.665400	0.512600
H1881	H188	0.990800	0.094500	0.669300
H1891	H189	0.876400	0.541800	0.812600
H1901	H190	0.406800	0.524600	0.658200
H1911	H191	0.785800	0.544300	0.163300
H1921	H192	0.120600	0.074200	0.241100
H1931	H193	0.107700	0.462300	0.814400
H1941	H194	0.443800	0.665900	0.451100
H1951	H195	0.006800	0.299300	0.113800
H1961	H196	0.814700	0.898700	0.439700
H1971	H197	0.392600	0.775500	0.908900
H1981	H198	0.360200	0.981700	0.269400
H1991	H199	0.699600	0.313800	0.620000
H2001	H200	0.664700	0.334600	0.987400
C11	C1	0.009900	0.648300	0.440800
C21	C2	0.435500	0.486200	0.675500
C31	C3	0.624600	0.958900	0.716500
C41	C4	0.547400	0.916000	0.211600
C51	C5	0.780000	0.878600	0.586900
C61	C6	0.417100	0.530300	0.177600
C71	C7	0.438100	0.804700	0.540000
C81	C8	0.008100	0.598600	0.843000
C91	C9	0.620700	0.964900	0.898700
C101	C10	0.143700	0.695100	0.684400
C111	C11	0.665000	0.500000	0.673000
C121	C12	0.628100	0.164800	0.485400
C131	C13	0.938100	0.195300	0.960000
C141	C14	0.184100	0.042600	0.955300
C151	C15	0.600200	0.961800	0.240900
C161	C16	0.940500	0.745500	0.813500
C171	C17	0.814700	0.114400	0.772900
C181	C18	0.637900	0.272800	0.666000
C191	C19	0.879300	0.964900	0.398700
C201	C20	0.152700	0.600200	0.693700
C211	C21	0.587500	0.594100	0.495800
C221	C22	0.573700	0.963200	0.684900
C231	C23	0.420900	0.211800	0.324600
C241	C24	0.559500	0.745500	0.313500
C251	C25	0.188900	0.672300	0.535900
C261	C26	0.949400	0.875700	0.163700
C271	C27	0.371600	0.781500	0.480800
C281	C28	0.188600	0.524200	0.022500
C291	C29	0.943300	0.149100	0.923300
C301	C30	0.311400	0.524200	0.522500
C311	C31	0.230800	0.037700	0.389500
C321	C32	0.451900	0.814600	0.901700
C331	C33	0.579100	0.788200	0.675400
C341	C34	0.123100	0.936000	0.256900
C351	C35	0.532300	0.059800	0.187400
C361	C36	0.211800	0.959000	0.901700
C371	C37	0.558800	0.298400	0.526500
C381	C38	0.245200	0.700400	0.103500
C391	C39	0.299400	0.210900	0.105300
C401	C40	0.314700	0.885600	0.727100
C411	C41	0.664200	0.714700	0.961700
C421	C42	0.585900	0.110300	0.216400
C431	C43	0.368700	0.209600	0.292800
C441	C44	0.694100	0.343200	0.644400
C451	C45	0.623100	0.064000	0.243100
C461	C46	0.080100	0.273300	0.561000
C471	C47	0.506700	0.121800	0.370700
C481	C48	0.440500	0.254500	0.686500
C491	C49	0.350700	0.748700	0.060100
C501	C50	0.463600	0.675900	0.317200
C511	C51	0.047400	0.084000	0.288400
C521	C52	0.491500	0.876800	0.962100
C531	C53	0.490100	0.648300	0.940800
C541	C54	0.684100	0.957400	0.544700
C551	C55	0.082900	0.530300	0.677600
C561	C56	0.236400	0.122700	0.946400
C571	C57	0.991900	0.448100	0.346500
C581	C58	0.763600	0.393000	0.953700
C591	C59	0.685300	0.114400	0.272900
C601	C60	0.547800	0.644200	0.375700
C611	C61	0.652700	0.399800	0.806300
C621	C62	0.220000	0.121400	0.413100
C631	C63	0.856300	0.304900	0.315600
C641	C64	0.862100	0.272800	0.166000
C651	C65	0.298900	0.622400	0.581500
C661	C66	0.006300	0.324100	0.000100
C671	C67	0.491900	0.551900	0.153500
C681	C68	0.991900	0.401400	0.157000
C691	C69	0.137900	0.727200	0.834000
C701	C70	0.001600	0.647100	0.646300
C711	C71	0.993300	0.121800	0.870700
C721	C72	0.967700	0.059800	0.687400
C731	C73	0.328700	0.212600	0.902000
C741	C74	0.077900	0.315200	0.377800
C751	C75	0.059500	0.254500	0.186500
C761	C76	0.280000	0.121400	0.913100
C771	C77	0.426300	0.036800	0.315100
C781	C78	0.799400	0.789100	0.394700
C791	C79	0.347300	0.600200	0.193700
C801	C80	0.356300	0.695100	0.184400
C811	C81	0.335800	0.285300	0.038300
C821	C82	0.564500	0.513800	0.324500
C831	C83	0.263600	0.607000	0.546300
C841	C84	0.912500	0.594100	0.995800
C851	C85	0.561900	0.195300	0.460000
C861	C86	0.305900	0.656800	0.355600
C871	C87	0.073700	0.036800	0.815100
C881	C88	0.811100	0.327700	0.464100
C891	C89	0.873900	0.494700	0.116200
C901	C90	0.875400	0.958900	0.216500
C911	C91	0.688600	0.475800	0.477500
C921	C92	0.917100	0.469700	0.322400
C931	C93	0.412500	0.405900	0.504200
C941	C94	0.963600	0.324100	0.182800
C951	C95	0.358900	0.122500	0.081300
C961	C96	0.798900	0.377600	0.918500
C971	C97	0.236400	0.607000	0.046300
C981	C98	0.171300	0.212600	0.402000
C991	C99	0.036400	0.675900	0.817200
C1001	C100	0.079100	0.211800	0.824600
C1011	C101	0.736400	0.393000	0.453700
C1021	C102	0.128100	0.835200	0.014600
C1031	C103	0.058800	0.701600	0.973500
C1041	C104	0.498400	0.647100	0.146300
C1051	C105	0.443300	0.850900	0.576700
C1061	C106	0.419900	0.273300	0.061000
C1071	C107	0.935500	0.513800	0.824500
C1081	C108	0.008100	0.551900	0.653500
C1091	C109	0.920900	0.788200	0.175400
C1101	C110	0.254800	0.700400	0.603500
C1111	C111	0.991500	0.123200	0.537900
C1121	C112	0.164200	0.285300	0.538300
C1131	C113	0.315900	0.042600	0.455300
C1141	C114	0.868700	0.790400	0.207200
C1151	C115	0.149300	0.748700	0.560100
C1161	C116	0.662700	0.688600	0.906000
C1171	C117	0.449400	0.124300	0.336300
C1181	C118	0.952600	0.916000	0.711600
C1191	C119	0.508500	0.123200	0.037900
C1201	C120	0.032300	0.940200	0.312600
C1211	C121	0.375400	0.041100	0.283500
C1221	C122	0.061900	0.804700	0.040000
C1231	C123	0.491900	0.598600	0.343000
C1241	C124	0.850700	0.251300	0.439900
C1251	C125	0.376900	0.936000	0.756900
C1261	C126	0.876900	0.438200	0.147600
C1271	C127	0.871600	0.218500	0.019200
C1281	C128	0.269200	0.037700	0.889500
C1291	C129	0.623100	0.438200	0.647600
C1301	C130	0.362100	0.727200	0.334000
C1311	C131	0.641100	0.877500	0.918700
C1321	C132	0.550600	0.875700	0.663700
C1331	C133	0.452600	0.084000	0.788400
C1341	C134	0.047800	0.355800	0.124300
C1351	C135	0.959000	0.820400	0.429000
C1361	C136	0.379300	0.035100	0.101300
C1371	C137	0.459000	0.179600	0.071000
C1381	C138	0.124600	0.041100	0.783500
C1391	C139	0.626100	0.494700	0.616200
C1401	C140	0.835800	0.714700	0.461700
C1411	C141	0.858900	0.877500	0.418700
C1421	C142	0.509900	0.351700	0.059200
C1431	C143	0.628400	0.218500	0.519200
C1441	C144	0.688900	0.327700	0.964100
C1451	C145	0.006700	0.878200	0.129300
C1461	C146	0.643700	0.304900	0.815600
C1471	C147	0.422100	0.315200	0.877800
C1481	C148	0.214800	0.781700	0.697700
C1491	C149	0.185300	0.885600	0.227100
C1501	C150	0.631300	0.790400	0.707200
C1511	C151	0.871900	0.164800	0.985400
C1521	C152	0.701100	0.377600	0.418500
C1531	C153	0.452200	0.355800	0.624300
C1541	C154	0.671300	0.787400	0.098000
C1551	C155	0.556700	0.149100	0.423300
C1561	C156	0.828700	0.787400	0.598000
C1571	C157	0.050600	0.124300	0.836300
C1581	C158	0.922100	0.684800	0.622200
C1591	C159	0.754800	0.299600	0.896500
C1601	C160	0.194100	0.656800	0.855600
C1611	C161	0.041000	0.179600	0.571000
C1621	C162	0.769200	0.962300	0.610500
C1631	C163	0.914100	0.110300	0.716400
C1641	C164	0.536400	0.324100	0.682800
C1651	C165	0.993700	0.675900	0.999900
C1661	C166	0.162700	0.311400	0.594000
C1671	C167	0.441200	0.701600	0.473500
C1681	C168	0.123100	0.561800	0.852400
C1691	C169	0.131300	0.209600	0.792800
C1701	C170	0.048100	0.814600	0.401700
C1711	C171	0.008500	0.876800	0.462100
C1721	C172	0.335000	0.500000	0.327000
C1731	C173	0.100200	0.038200	0.259100
C1741	C174	0.126100	0.505300	0.883800
C1751	C175	0.926300	0.963200	0.184900
C1761	C176	0.376900	0.561800	0.352400
C1771	C177	0.128400	0.781500	0.980800
C1781	C178	0.337300	0.311400	0.094000
C1791	C179	0.837300	0.688600	0.406000
C1801	C180	0.493300	0.878200	0.629300
C1811	C181	0.811400	0.475800	0.977500
C1821	C182	0.501600	0.352900	0.853700
C1831	C183	0.373900	0.505300	0.383800
C1841	C184	0.548100	0.185400	0.098300
C1851	C185	0.311100	0.672300	0.035900
C1861	C186	0.165000	0.500000	0.827000
C1871	C187	0.720000	0.878600	0.086900
C1881	C188	0.649300	0.251300	0.939900
C1891	C189	0.952200	0.644200	0.875700
C1901	C190	0.580100	0.726700	0.939000
C1911	C191	0.399800	0.038200	0.759100
C1921	C192	0.506300	0.675900	0.499900
C1931	C193	0.951900	0.185400	0.598300
C1941	C194	0.736400	0.877300	0.553600
C1951	C195	0.815900	0.957400	0.044700
C1961	C196	0.285200	0.781700	0.197700
C1971	C197	0.582900	0.469700	0.822400
C1981	C198	0.835000	0.500000	0.173000
C1991	C199	0.919900	0.726700	0.439000
C2001	C200	0.990100	0.351700	0.559200
C2011	C201	0.876900	0.064000	0.743100
C2021	C202	0.541000	0.820400	0.929000
C2031	C203	0.745200	0.299600	0.396500
C2041	C204	0.711800	0.041000	0.598300
C2051	C205	0.847300	0.399800	0.306300
C2061	C206	0.941200	0.298400	0.026500
C2071	C207	0.201100	0.622400	0.081500
C2081	C208	0.730800	0.962300	0.110500
C2091	C209	0.120700	0.035100	0.601300
C2101	C210	0.577900	0.684800	0.122200
C2111	C211	0.998400	0.352900	0.353700
C2121	C212	0.087500	0.405900	0.004200
C2131	C213	0.371900	0.835200	0.514600
C2141	C214	0.200600	0.210900	0.605300
C2151	C215	0.493700	0.324100	0.500100
C2161	C216	0.056700	0.850900	0.076700
C2171	C217	0.714800	0.218300	0.802300
C2181	C218	0.085900	0.889700	0.283600
C2191	C219	0.414100	0.889700	0.783600
C2201	C220	0.508100	0.448100	0.846500
C2211	C221	0.899800	0.961800	0.740900
C2221	C222	0.508100	0.401400	0.657000
C2231	C223	0.141100	0.122500	0.581300
C2241	C224	0.785200	0.218300	0.302300
C2251	C225	0.788200	0.041000	0.098300
C2261	C226	0.467700	0.940200	0.812600
C2271	C227	0.288200	0.959000	0.401700
C2281	C228	0.263600	0.122700	0.446400
C2291	C229	0.805900	0.343200	0.144400
C2301	C230	0.763600	0.877300	0.053600
C2311	C231	0.700600	0.789100	0.894700
C2321	C232	0.064500	0.486200	0.175500
N11	N1	0.285100	0.925800	0.698440
N21	N2	0.180500	0.764400	0.593600
N31	N3	0.332700	0.960900	0.433300
N41	N4	0.319500	0.764400	0.093600
N51	N5	0.108000	0.467600	0.033800
N61	N6	0.783300	0.700600	0.588300
N71	N7	0.680500	0.235600	0.906400
N81	N8	0.227300	0.793300	0.227520
N91	N9	0.155200	0.368400	0.396500
N101	N10	0.584800	0.783900	0.118800
N111	N11	0.655200	0.631600	0.103500
N121	N12	0.084800	0.216100	0.381200
N131	N13	0.147800	0.421600	0.976810
N141	N14	0.887500	0.068900	0.910200
N151	N15	0.647800	0.578400	0.523190
N161	N16	0.714900	0.074200	0.301560
N171	N17	0.832700	0.039100	0.066700
N181	N18	0.419400	0.947900	0.624200
N191	N19	0.653800	0.873800	0.728300
N201	N20	0.986400	0.962400	0.685200
N211	N21	0.284700	0.500700	0.488380
N221	N22	0.785100	0.074200	0.801560
N231	N23	0.995600	0.724700	0.032540
N241	N24	0.283300	0.299400	0.911700
N251	N25	0.727300	0.206700	0.272480
N261	N26	0.989700	0.814500	0.100280
N271	N27	0.612500	0.068900	0.410200
N281	N28	0.153800	0.126200	0.771700
N291	N29	0.608000	0.532400	0.466200
N301	N30	0.346200	0.126200	0.271700
N311	N31	0.720900	0.141800	0.820850
N321	N32	0.486400	0.037600	0.814800
N331	N33	0.415200	0.216100	0.881200
N341	N34	0.013600	0.037600	0.314800
N351	N35	0.784700	0.499300	0.011620
N361	N36	0.004400	0.275300	0.967460
N371	N37	0.667300	0.039100	0.566700
N381	N38	0.716700	0.700600	0.088300
N391	N39	0.215300	0.500700	0.988380
N401	N40	0.112500	0.931100	0.089800
N411	N41	0.220900	0.858200	0.679150
N421	N42	0.510300	0.814500	0.600280
N431	N43	0.852200	0.578400	0.023190
N441	N44	0.489700	0.185500	0.399720
N451	N45	0.069200	0.717600	0.661230
N461	N46	0.216700	0.299400	0.411700
N471	N47	0.272700	0.793300	0.727520
N481	N48	0.715300	0.499300	0.511620
N491	N49	0.504400	0.724700	0.532540
N501	N50	0.344800	0.368400	0.896500
N511	N51	0.214900	0.925800	0.198440
N521	N52	0.846200	0.873800	0.228300
N531	N53	0.569200	0.282400	0.838770
N541	N54	0.915200	0.783900	0.618800
N551	N55	0.392000	0.467600	0.533800
N561	N56	0.167300	0.960900	0.933300
N571	N57	0.919400	0.052100	0.875800
N581	N58	0.580600	0.052100	0.375800
N591	N59	0.892000	0.532400	0.966200
N601	N60	0.930800	0.282400	0.338770
N611	N61	0.819500	0.235600	0.406400
N621	N62	0.080600	0.947900	0.124200
N631	N63	0.844800	0.631600	0.603500
N641	N64	0.387500	0.931100	0.589800
N651	N65	0.279100	0.858200	0.179150
N661	N66	0.779100	0.141800	0.320850
N671	N67	0.430800	0.717600	0.161230
N681	N68	0.495600	0.275300	0.467460
N691	N69	0.352200	0.421600	0.476810
N701	N70	0.010300	0.185500	0.899720
N711	N71	0.772700	0.206700	0.772480
N721	N72	0.513600	0.962400	0.185200
O11	O1	0.553400	0.030900	0.909400
O21	O2	0.952100	0.362400	0.531700
O31	O3	0.942700	0.830800	0.830600
O41	O4	0.867500	0.715700	0.793000
O51	O5	0.053400	0.969100	0.590600
O61	O6	0.557300	0.830800	0.330600
O71	O7	0.132500	0.284300	0.207000
O81	O8	0.427900	0.423500	0.381950
O91	O9	0.961100	0.406200	0.584400
O101	O10	0.178600	0.540200	0.910250
O111	O11	0.367500	0.284300	0.707000
O121	O12	0.442700	0.169200	0.669400
O131	O13	0.946600	0.030900	0.409400
O141	O14	0.821400	0.459800	0.089750
O151	O15	0.572100	0.576500	0.618050
O161	O16	0.678600	0.459800	0.589750
O171	O17	0.038900	0.593800	0.415600
O181	O18	0.072100	0.423500	0.881950
O191	O19	0.547900	0.362400	0.031700
O201	O20	0.047900	0.637600	0.468300
O211	O21	0.668600	0.970000	0.869710
O221	O22	0.331400	0.030000	0.130290
O231	O23	0.057300	0.169200	0.169400
O241	O24	0.168600	0.030000	0.630290
O251	O25	0.461100	0.593800	0.915600
O261	O26	0.831400	0.970000	0.369710
O271	O27	0.632500	0.715700	0.293000
O281	O28	0.927900	0.576500	0.118050
O291	O29	0.321400	0.540200	0.410250
O301	O30	0.452100	0.637600	0.968300
O311	O31	0.538900	0.406200	0.084400
O321	O32	0.446600	0.969100	0.090600
