data_DIMDAG_clean_PM
_symmetry_space_group_name_H-M	'P1'
_cell_length_a	15.304200
_cell_length_b	15.571900
_cell_length_c	16.352200
_cell_angle_alpha	104.723000
_cell_angle_beta	105.151000
_cell_angle_gamma	101.628000
_symmetry_Int_Tables_number 1

loop_
_symmetry_equiv_pos_as_xyz
'x,y,z'

loop_
_atom_site_label
_atom_site_type_symbol
_atom_site_fract_x
_atom_site_fract_y
_atom_site_fract_z
Cd11	Cd1	0.751020	0.966300	0.538910
Cd21	Cd2	0.574450	0.040000	0.123880
Cd31	Cd3	0.642380	0.002640	0.337460
O11	O1	0.611280	0.846800	0.497520
O21	O2	0.591910	0.963920	0.450000
O31	O3	0.157330	0.831110	0.224260
O41	O4	0.250230	0.965790	0.320650
O51	O5	0.109200	0.121750	0.098400
O61	O6	0.164100	0.092030	0.226610
O71	O7	0.388700	0.566000	0.439400
N11	N1	0.294900	0.593700	0.322300
H11	H1	0.245600	0.566700	0.273300
C11	C1	0.456000	0.834100	0.408600
C21	C2	0.424300	0.739700	0.396800
H21	H2	0.466400	0.709100	0.422600
C31	C3	0.330400	0.691000	0.346800
C41	C4	0.268600	0.736900	0.311900
H31	H3	0.204700	0.703500	0.277700
C51	C5	0.299900	0.831100	0.326700
C61	C6	0.394200	0.879900	0.374500
H41	H4	0.415900	0.944300	0.383600
C71	C7	0.284200	0.436100	0.315800
C81	C8	0.285000	0.374000	0.363600
H51	H5	0.313200	0.396600	0.426900
C91	C9	0.245200	0.279700	0.320200
H61	H6	0.246100	0.238000	0.353600
C101	C10	0.204200	0.246500	0.228200
C111	C11	0.205000	0.307400	0.179500
H71	H7	0.178000	0.284400	0.116100
C121	C12	0.245100	0.401500	0.223000
H81	H8	0.246000	0.442800	0.189200
C131	C13	0.327700	0.537400	0.365300
C141	C14	0.559300	0.884300	0.454800
C151	C15	0.231000	0.878400	0.288600
C161	C16	0.155300	0.144700	0.180100
O81	O8	0.721800	0.132200	0.182400
O91	O9	0.728580	0.021300	0.243410
O101	O10	0.174090	0.141700	0.443800
O111	O11	0.073400	0.011480	0.344500
O121	O12	0.279300	0.863230	0.560970
O131	O13	0.172000	0.893370	0.458570
O141	O14	0.903600	0.431700	0.318700
N21	N2	0.025000	0.392300	0.395900
H91	H9	0.082000	0.415500	0.435800
C171	C17	0.866800	0.149700	0.290100
C181	C18	0.895100	0.246300	0.315900
H101	H10	0.850800	0.278800	0.299100
C191	C19	0.988800	0.294300	0.366600
C201	C20	0.052800	0.245300	0.390000
H111	H11	0.116500	0.278100	0.426000
C211	C21	0.024600	0.149300	0.361300
C221	C22	0.931000	0.101100	0.311700
H121	H12	0.911100	0.035300	0.292700
C231	C23	0.044000	0.553500	0.407300
C241	C24	0.999600	0.621200	0.395900
H131	H13	0.932900	0.604000	0.368900
C251	C25	0.051200	0.713100	0.423300
H141	H14	0.019800	0.758100	0.413300
C261	C26	0.147400	0.740400	0.464700
C271	C27	0.192400	0.673900	0.477800
H151	H15	0.258800	0.691700	0.506700
C281	C28	0.141100	0.581400	0.449000
H161	H16	0.173000	0.536500	0.458000
C291	C29	0.983900	0.454400	0.370800
C301	C30	0.765300	0.097300	0.235600
C311	C31	0.095200	0.097500	0.383700
C321	C32	0.203900	0.840900	0.497000
O151	O15	0.567200	0.096980	0.270780
N31	N3	0.543900	0.236500	0.316200
C331	C33	0.485500	0.295300	0.340700
H171	H17	0.428500	0.257600	0.345300
H181	H18	0.467300	0.324400	0.294800
H191	H19	0.521300	0.343500	0.398600
C341	C34	0.634900	0.279600	0.305000
H201	H20	0.665900	0.231700	0.288500
H211	H21	0.676300	0.327100	0.361500
H221	H22	0.622000	0.308000	0.257800
C351	C35	0.518800	0.150100	0.296800
C361	C36	0.422400	0.104500	0.301900
H231	H23	0.411000	0.037100	0.284000
H241	H24	0.372600	0.119500	0.261500
H251	H25	0.422100	0.127700	0.363400
Cd41	Cd4	0.907580	0.051570	0.792840
O161	O16	0.052800	0.148900	0.849800
O171	O17	0.065010	0.028050	0.894530
O181	O18	0.508500	0.154600	0.106700
O191	O19	0.408500	0.020900	0.013200
O201	O20	0.504900	0.896370	0.108110
O211	O21	0.527200	0.882180	0.244280
O221	O22	0.275000	0.423500	0.922100
N41	N4	0.359800	0.400600	0.047600
H261	H26	0.401700	0.428600	0.101400
C371	C37	0.202900	0.157500	0.943500
C381	C38	0.233300	0.253400	0.966000
H271	H27	0.190400	0.285700	0.945300
C391	C39	0.326300	0.302400	0.018600
C401	C40	0.388400	0.254400	0.048400
H281	H28	0.451000	0.287400	0.087100
C411	C41	0.359300	0.158400	0.021800
C421	C42	0.265900	0.109300	0.970300
H291	H29	0.245600	0.043700	0.953700
C431	C43	0.376200	0.556800	0.043100
C441	C44	0.387800	0.611300	0.989900
H301	H30	0.369900	0.583100	0.926900
C451	C45	0.425100	0.706700	0.027100
H311	H31	0.432900	0.743500	0.989800
C461	C46	0.451200	0.748400	0.119000
C471	C47	0.438000	0.694000	0.172500
H321	H32	0.454300	0.722100	0.235300
C481	C48	0.401100	0.598900	0.134700
H331	H33	0.392800	0.562100	0.171800
C491	C49	0.331900	0.454700	0.998000
C501	C50	0.100300	0.108000	0.893100
C511	C51	0.429900	0.108500	0.048900
C521	C52	0.498100	0.851200	0.160600
Cd51	Cd5	0.248980	0.033700	0.461090
Cd61	Cd6	0.425550	0.960000	0.876120
Cd71	Cd7	0.357620	0.997360	0.662540
O231	O23	0.388720	0.153200	0.502480
O241	O24	0.408090	0.036080	0.550000
O251	O25	0.842670	0.168890	0.775740
O261	O26	0.749770	0.034210	0.679350
O271	O27	0.890800	0.878250	0.901600
O281	O28	0.835900	0.907970	0.773390
O291	O29	0.611300	0.434000	0.560600
N51	N5	0.705100	0.406300	0.677700
H341	H34	0.754400	0.433300	0.726700
C531	C53	0.544000	0.165900	0.591400
C541	C54	0.575700	0.260300	0.603200
H351	H35	0.533600	0.290900	0.577400
C551	C55	0.669600	0.309000	0.653200
C561	C56	0.731400	0.263100	0.688100
H361	H36	0.795300	0.296500	0.722300
C571	C57	0.700100	0.168900	0.673300
C581	C58	0.605800	0.120100	0.625500
H371	H37	0.584100	0.055700	0.616400
C591	C59	0.715800	0.563900	0.684200
C601	C60	0.715000	0.626000	0.636400
H381	H38	0.686800	0.603400	0.573100
C611	C61	0.754800	0.720300	0.679800
H391	H39	0.753900	0.762000	0.646400
C621	C62	0.795800	0.753500	0.771800
C631	C63	0.795000	0.692600	0.820500
H401	H40	0.822000	0.715600	0.883900
C641	C64	0.754900	0.598500	0.777000
H411	H41	0.754000	0.557200	0.810800
C651	C65	0.672300	0.462600	0.634700
C661	C66	0.440700	0.115700	0.545200
C671	C67	0.769000	0.121600	0.711400
C681	C68	0.844700	0.855300	0.819900
O301	O30	0.278200	0.867800	0.817600
O311	O31	0.271420	0.978700	0.756590
O321	O32	0.825910	0.858300	0.556200
O331	O33	0.926600	0.988520	0.655500
O341	O34	0.720700	0.136770	0.439030
O351	O35	0.828000	0.106630	0.541430
O361	O36	0.096400	0.568300	0.681300
N61	N6	0.975000	0.607700	0.604100
H421	H42	0.918000	0.584500	0.564200
C691	C69	0.133200	0.850300	0.709900
C701	C70	0.104900	0.753700	0.684100
H431	H43	0.149200	0.721200	0.700900
C711	C71	0.011200	0.705700	0.633400
C721	C72	0.947200	0.754700	0.610000
H441	H44	0.883500	0.721900	0.574000
C731	C73	0.975400	0.850700	0.638700
C741	C74	0.069000	0.898900	0.688300
H451	H45	0.088900	0.964700	0.707300
C751	C75	0.956000	0.446500	0.592700
C761	C76	0.000400	0.378800	0.604100
H461	H46	0.067100	0.396000	0.631100
C771	C77	0.948800	0.286900	0.576700
H471	H47	0.980200	0.241900	0.586700
C781	C78	0.852600	0.259600	0.535300
C791	C79	0.807600	0.326100	0.522200
H481	H48	0.741200	0.308300	0.493300
C801	C80	0.858900	0.418600	0.551000
H491	H49	0.827000	0.463500	0.542000
C811	C81	0.016100	0.545600	0.629200
C821	C82	0.234700	0.902700	0.764400
C831	C83	0.904800	0.902500	0.616300
C841	C84	0.796100	0.159100	0.503000
O371	O37	0.432800	0.903020	0.729220
N71	N7	0.456100	0.763500	0.683800
C851	C85	0.514500	0.704700	0.659300
H501	H50	0.571500	0.742400	0.654700
H511	H51	0.532700	0.675600	0.705200
H521	H52	0.478700	0.656500	0.601400
C861	C86	0.365100	0.720400	0.695000
H531	H53	0.334100	0.768300	0.711500
H541	H54	0.323700	0.672900	0.638500
H551	H55	0.378000	0.692000	0.742200
C871	C87	0.481200	0.849900	0.703200
C881	C88	0.577600	0.895500	0.698100
H561	H56	0.589000	0.962900	0.716000
H571	H57	0.627400	0.880500	0.738500
H581	H58	0.577900	0.872300	0.636600
Cd81	Cd8	0.092420	0.948430	0.207160
O381	O38	0.947200	0.851100	0.150200
O391	O39	0.934990	0.971950	0.105470
O401	O40	0.491500	0.845400	0.893300
O411	O41	0.591500	0.979100	0.986800
O421	O42	0.495100	0.103630	0.891890
O431	O43	0.472800	0.117820	0.755720
O441	O44	0.725000	0.576500	0.077900
N81	N8	0.640200	0.599400	0.952400
H591	H59	0.598300	0.571400	0.898600
C891	C89	0.797100	0.842500	0.056500
C901	C90	0.766700	0.746600	0.034000
H601	H60	0.809600	0.714300	0.054700
C911	C91	0.673700	0.697600	0.981400
C921	C92	0.611600	0.745600	0.951600
H611	H61	0.549000	0.712600	0.912900
C931	C93	0.640700	0.841600	0.978200
C941	C94	0.734100	0.890700	0.029700
H621	H62	0.754400	0.956300	0.046300
C951	C95	0.623800	0.443200	0.956900
C961	C96	0.612200	0.388700	0.010100
H631	H63	0.630100	0.416900	0.073100
C971	C97	0.574900	0.293300	0.972900
H641	H64	0.567100	0.256500	0.010200
C981	C98	0.548800	0.251600	0.881000
C991	C99	0.562000	0.306000	0.827500
H651	H65	0.545700	0.277900	0.764700
C1001	C100	0.598900	0.401100	0.865300
H661	H66	0.607200	0.437900	0.828200
C1011	C101	0.668100	0.545300	0.002000
C1021	C102	0.899700	0.892000	0.106900
C1031	C103	0.570100	0.891500	0.951100
C1041	C104	0.501900	0.148800	0.839400
Cd91	Cd9	0.000000	0.000000	0.000000
