data_DIMKUH_clean_PM
_symmetry_space_group_name_H-M	'P1'
_cell_length_a	9.181600
_cell_length_b	12.985100
_cell_length_c	18.462700
_cell_angle_alpha	72.064400
_cell_angle_beta	75.602200
_cell_angle_gamma	69.295800
_symmetry_Int_Tables_number 1

loop_
_symmetry_equiv_pos_as_xyz
'x,y,z'

loop_
_atom_site_label
_atom_site_type_symbol
_atom_site_fract_x
_atom_site_fract_y
_atom_site_fract_z
Dy11	Dy1	0.236740	0.410710	0.506610
Dy21	Dy2	0.763260	0.589290	0.493390
Dy31	Dy3	0.845940	0.910710	0.006610
Dy41	Dy4	0.154060	0.089290	0.993390
Zn11	Zn1	0.776210	0.588620	0.835220
Zn21	Zn2	0.200050	0.911380	0.664780
Zn31	Zn3	0.799950	0.088620	0.335220
Zn41	Zn4	0.223790	0.411380	0.164780
H11	H1	0.755400	0.954400	0.650400
H21	H2	0.244600	0.045600	0.349600
H31	H3	0.496700	0.818900	0.860100
H41	H4	0.713900	0.490700	0.063900
H51	H5	0.462800	0.305800	0.963000
H61	H6	0.395400	0.922500	0.804700
H71	H7	0.268400	0.805800	0.463000
H81	H8	0.639800	0.454400	0.150400
H91	H9	0.286100	0.509300	0.936100
H101	H10	0.676200	0.173900	0.142300
H111	H11	0.877400	0.422500	0.304700
H121	H12	0.631900	0.394800	0.090000
H131	H13	0.731500	0.990700	0.563900
H141	H14	0.007600	0.673900	0.642300
H151	H15	0.537200	0.694200	0.037000
H161	H16	0.116700	0.105200	0.410000
H171	H17	0.992400	0.326100	0.357700
H181	H18	0.122600	0.577500	0.695300
H191	H19	0.731600	0.194200	0.537000
H201	H20	0.883300	0.894800	0.590000
H211	H21	0.503300	0.181100	0.139900
H221	H22	0.824300	0.318900	0.360100
H231	H23	0.360200	0.545600	0.849600
H241	H24	0.268500	0.009300	0.436100
H251	H25	0.323800	0.826100	0.857700
H261	H26	0.368100	0.605200	0.910000
H271	H27	0.175700	0.681100	0.639900
H281	H28	0.604600	0.077500	0.195300
C11	C1	0.063000	0.640100	0.079900
C21	C2	0.629000	0.465300	0.097900
C31	C3	0.023880	0.719740	0.733700
C41	C4	0.109400	0.947400	0.418400
C51	C5	0.497510	0.732680	0.661300
C61	C6	0.418200	0.842300	0.827500
C71	C7	0.475200	0.552600	0.081600
C81	C8	0.371000	0.534700	0.902100
C91	C9	0.244900	0.440800	0.315600
C101	C10	0.770600	0.361500	0.928300
C111	C11	0.998700	0.940800	0.815600
C121	C12	0.444250	0.739100	0.590600
C131	C13	0.807800	0.965300	0.597900
C141	C14	0.555750	0.260900	0.409400
C151	C15	0.021360	0.157580	0.200500
C161	C16	0.502490	0.267320	0.338700
C171	C17	0.251500	0.845600	0.019800
C181	C18	0.976120	0.280260	0.266300
C191	C19	0.939600	0.861500	0.428300
C201	C20	0.304500	0.721400	0.042600
C211	C21	0.695500	0.278600	0.957400
C221	C22	0.108510	0.232680	0.161300
C231	C23	0.068500	0.778600	0.457400
C241	C24	0.116900	0.654400	0.480200
C251	C25	0.937000	0.359900	0.920100
C261	C26	0.379440	0.342420	0.299500
C271	C27	0.001300	0.059200	0.184400
C281	C28	0.978640	0.842420	0.799500
C291	C29	0.620560	0.657580	0.700500
C301	C30	0.890600	0.052600	0.581600
C311	C31	0.773950	0.760900	0.909400
C321	C32	0.581800	0.157700	0.172500
C331	C33	0.883100	0.345600	0.519800
C341	C34	0.748500	0.154400	0.980200
C351	C35	0.192200	0.034700	0.402100
C361	C36	0.931500	0.221400	0.542600
C371	C37	0.783000	0.859900	0.420100
C381	C38	0.755100	0.559200	0.684400
C391	C39	0.524800	0.447400	0.918400
C401	C40	0.522680	0.219740	0.233700
C411	C41	0.891490	0.767320	0.838700
C421	C42	0.912000	0.342300	0.327500
C431	C43	0.217000	0.140100	0.579900
C441	C44	0.226050	0.239100	0.090600
C451	C45	0.088000	0.657700	0.672500
C461	C46	0.229400	0.638500	0.071700
C471	C47	0.477320	0.780260	0.766300
C481	C48	0.060400	0.138500	0.571700
N11	N1	0.032330	0.035340	0.596400
N21	N2	0.939260	0.189090	0.266990
N31	N3	0.459950	0.663500	0.050400
N41	N4	0.604660	0.689090	0.766990
N51	N5	0.591680	0.190740	0.295700
N61	N6	0.408320	0.809260	0.704300
N71	N7	0.395340	0.310910	0.233010
N81	N8	0.967670	0.964660	0.403600
N91	N9	0.335930	0.535340	0.096400
N101	N10	0.060740	0.810910	0.733010
N111	N11	0.826150	0.163500	0.550400
N121	N12	0.173850	0.836500	0.449600
N131	N13	0.078120	0.309260	0.204300
N141	N14	0.921880	0.690740	0.795700
N151	N15	0.664070	0.464660	0.903600
N161	N16	0.540050	0.336500	0.949600
O11	O1	0.030180	0.552240	0.120200
O21	O2	0.267880	0.165850	0.052390
O31	O3	0.286550	0.319340	0.073560
O41	O4	0.740160	0.397950	0.516730
O51	O5	0.654840	0.102050	0.983270
O61	O6	0.262630	0.226040	0.546300
O71	O7	0.835990	0.503570	0.737650
O81	O8	0.969820	0.447760	0.879800
O91	O9	0.713450	0.680660	0.926440
O101	O10	0.212970	0.466850	0.379010
O111	O11	0.787030	0.533150	0.620990
O121	O12	0.513880	0.665850	0.552390
O131	O13	0.297380	0.052240	0.620200
O141	O14	0.885840	0.099730	0.995190
O151	O15	0.941170	0.966850	0.879010
O161	O16	0.034970	0.273960	0.953700
O171	O17	0.259840	0.602050	0.483270
O181	O18	0.320550	0.819340	0.573560
O191	O19	0.164010	0.496430	0.262350
O201	O20	0.732120	0.834150	0.947610
O211	O21	0.679450	0.180660	0.426440
O221	O22	0.345160	0.897950	0.016730
O231	O23	0.965030	0.726040	0.046300
O241	O24	0.077210	0.996430	0.762350
O251	O25	0.019240	0.599730	0.495190
O261	O26	0.737370	0.773960	0.453700
O271	O27	0.980760	0.400270	0.504810
O281	O28	0.058830	0.033150	0.120990
O291	O29	0.114160	0.900270	0.004810
O301	O30	0.486120	0.334150	0.447610
O311	O31	0.702620	0.947760	0.379800
O321	O32	0.922790	0.003570	0.237650
