data_DIRBIP_clean_PM
_symmetry_space_group_name_H-M	'P1'
_cell_length_a	8.700000
_cell_length_b	18.146000
_cell_length_c	9.087000
_cell_angle_alpha	90.000000
_cell_angle_beta	107.280000
_cell_angle_gamma	90.000000
_symmetry_Int_Tables_number 1

loop_
_symmetry_equiv_pos_as_xyz
'x,y,z'

loop_
_atom_site_label
_atom_site_type_symbol
_atom_site_fract_x
_atom_site_fract_y
_atom_site_fract_z
Ga11	Ga1	0.081800	0.295200	0.291100
Ga21	Ga2	0.136400	0.107900	0.161000
Ga31	Ga3	0.529100	0.320900	0.196600
P11	P1	0.350200	0.426800	0.359600
P21	P2	0.814800	0.293000	0.482000
P31	P3	0.267000	0.169400	0.496500
O11	O1	0.039500	0.205000	0.180000
O21	O2	0.198300	0.381200	0.301900
O31	O3	0.260600	0.250000	0.442500
O41	O4	0.964400	0.306000	0.432300
O51	O5	0.422200	0.156100	0.624200
O61	O6	0.471200	0.404500	0.273200
O71	O7	0.847300	0.232000	0.604800
O81	O8	0.119700	0.151700	0.550000
O91	O9	0.672100	0.266500	0.346000
O101	O10	0.262700	0.115100	0.366400
O111	O11	0.428600	0.414400	0.530700
O121	O12	0.301500	0.506400	0.323500
O131	O13	0.771600	0.364800	0.546700
H11	H1	0.963600	0.213100	0.096300
Ga41	Ga4	0.418200	0.795200	0.208900
Ga51	Ga5	0.363600	0.607900	0.339000
Ga61	Ga6	0.970900	0.820900	0.303400
P41	P4	0.149800	0.926800	0.140400
P51	P5	0.685200	0.793000	0.018000
P61	P6	0.233000	0.669400	0.003500
O141	O14	0.460500	0.705000	0.320000
O151	O15	0.301700	0.881200	0.198100
O161	O16	0.239400	0.750000	0.057500
O171	O17	0.535600	0.806000	0.067700
O181	O18	0.077800	0.656100	0.875800
O191	O19	0.028800	0.904500	0.226800
O201	O20	0.652700	0.732000	0.895200
O211	O21	0.380300	0.651700	0.950000
O221	O22	0.827900	0.766500	0.154000
O231	O23	0.237300	0.615100	0.133600
O241	O24	0.071400	0.914400	0.969300
O251	O25	0.198500	0.006400	0.176500
O261	O26	0.728400	0.864800	0.953300
H21	H2	0.536400	0.713100	0.403700
Ga71	Ga7	0.918200	0.704800	0.708900
Ga81	Ga8	0.863600	0.892100	0.839000
Ga91	Ga9	0.470900	0.679100	0.803400
P71	P7	0.649800	0.573200	0.640400
P81	P8	0.185200	0.707000	0.518000
P91	P9	0.733000	0.830600	0.503500
O271	O27	0.960500	0.795000	0.820000
O281	O28	0.801700	0.618800	0.698100
O291	O29	0.739400	0.750000	0.557500
O301	O30	0.035600	0.694000	0.567700
O311	O31	0.577800	0.843900	0.375800
O321	O32	0.528800	0.595500	0.726800
O331	O33	0.152700	0.768000	0.395200
O341	O34	0.880300	0.848300	0.450000
O351	O35	0.327900	0.733500	0.654000
O361	O36	0.737300	0.884900	0.633600
O371	O37	0.571400	0.585600	0.469300
O381	O38	0.698500	0.493600	0.676500
O391	O39	0.228400	0.635200	0.453300
H31	H3	0.036400	0.786900	0.903700
Ga101	Ga10	0.581800	0.204800	0.791100
Ga111	Ga11	0.636400	0.392100	0.661000
Ga121	Ga12	0.029100	0.179100	0.696600
P101	P10	0.850200	0.073200	0.859600
P111	P11	0.314800	0.207000	0.982000
P121	P12	0.767000	0.330600	0.996500
O401	O40	0.539500	0.295000	0.680000
O411	O41	0.698300	0.118800	0.801900
O421	O42	0.760600	0.250000	0.942500
O431	O43	0.464400	0.194000	0.932300
O441	O44	0.922200	0.343900	0.124200
O451	O45	0.971200	0.095500	0.773200
O461	O46	0.347300	0.268000	0.104800
O471	O47	0.619700	0.348300	0.050000
O481	O48	0.172100	0.233500	0.846000
O491	O49	0.762700	0.384900	0.866400
O501	O50	0.928600	0.085600	0.030700
O511	O51	0.801500	0.993600	0.823500
O521	O52	0.271600	0.135200	0.046700
H41	H4	0.463600	0.286900	0.596300
