data_DITTEH_clean_PM
_symmetry_space_group_name_H-M	'P1'
_cell_length_a	18.478000
_cell_length_b	12.181000
_cell_length_c	23.055000
_cell_angle_alpha	90.000000
_cell_angle_beta	90.000000
_cell_angle_gamma	90.000000
_symmetry_Int_Tables_number 1

loop_
_symmetry_equiv_pos_as_xyz
'x,y,z'

loop_
_atom_site_label
_atom_site_type_symbol
_atom_site_fract_x
_atom_site_fract_y
_atom_site_fract_z
Zn11	Zn1	0.299170	0.237540	0.185670
Zn21	Zn2	0.200140	0.237940	0.299520
Zn31	Zn3	0.170200	0.066380	0.204220
Zn41	Zn4	0.319820	0.061470	0.287980
C11	C1	0.114000	0.462700	0.175000
C21	C2	0.046100	0.489800	0.198550
H11	H1	0.030600	0.456600	0.232700
C31	C3	0.002300	0.565800	0.170960
C41	C4	0.025100	0.615900	0.120200
H21	H2	0.995500	0.667000	0.102000
C51	C5	0.092100	0.590100	0.096240
C61	C6	0.134800	0.512600	0.123400
H31	H3	0.178800	0.493100	0.106600
C71	C7	0.161100	0.380500	0.203240
C81	C8	0.931000	0.594800	0.198600
C91	C9	0.117100	0.648500	0.041460
C101	C10	0.068800	0.692300	0.002900
H41	H4	0.019500	0.683300	0.009500
C111	C11	0.091300	0.749700	0.954200
H51	H5	0.057400	0.781300	0.929500
C121	C12	0.164400	0.759800	0.942570
C131	C13	0.213400	0.710100	0.980300
H61	H6	0.262700	0.714500	0.972600
C141	C14	0.190000	0.654700	0.028800
H71	H7	0.223500	0.621300	0.053100
C151	C15	0.190600	0.818100	0.888950
C161	C16	0.497000	0.036000	0.172680
C171	C17	0.542700	0.964800	0.200830
H81	H8	0.527700	0.929900	0.234600
C181	C18	0.612300	0.944800	0.178600
C191	C19	0.633800	0.998200	0.127300
H91	H9	0.679900	0.985800	0.112400
C201	C20	0.587100	0.069200	0.098700
C211	C21	0.519000	0.089900	0.122400
H101	H10	0.488100	0.139900	0.104600
C221	C22	0.423300	0.065000	0.197600
C231	C23	0.663100	0.868700	0.209250
C241	C24	0.610400	0.128900	0.045750
C251	C25	0.560000	0.160300	0.002500
H111	H11	0.511600	0.140200	0.006100
C261	C26	0.582900	0.222600	0.953600
H121	H12	0.549300	0.245800	0.926200
C271	C27	0.655200	0.248300	0.946900
C281	C28	0.703100	0.209400	0.986000
H131	H13	0.752000	0.224100	0.980400
C291	C29	0.682900	0.148600	0.034300
H141	H14	0.718100	0.120900	0.059000
C301	C30	0.679000	0.316300	0.895220
O11	O1	0.247840	0.138400	0.243410
O21	O2	0.222820	0.362500	0.180580
O31	O3	0.137990	0.335900	0.250270
O41	O4	0.915180	0.549300	0.245760
O51	O5	0.892190	0.664600	0.171440
O61	O6	0.141760	0.860000	0.856580
O71	O7	0.256900	0.824400	0.879310
O81	O8	0.384270	0.126800	0.169450
O91	O9	0.408030	0.018700	0.245400
O101	O10	0.726100	0.861000	0.187300
O111	O11	0.639020	0.817600	0.252370
O121	O12	0.628740	0.347400	0.861530
O131	O13	0.743530	0.334700	0.887640
Zn51	Zn5	0.200830	0.762460	0.685670
Zn61	Zn6	0.299860	0.762060	0.799520
Zn71	Zn7	0.329800	0.933620	0.704220
Zn81	Zn8	0.180180	0.938530	0.787980
C311	C31	0.386000	0.537300	0.675000
C321	C32	0.453900	0.510200	0.698550
H151	H15	0.469400	0.543400	0.732700
C331	C33	0.497700	0.434200	0.670960
C341	C34	0.474900	0.384100	0.620200
H161	H16	0.504500	0.333000	0.602000
C351	C35	0.407900	0.409900	0.596240
C361	C36	0.365200	0.487400	0.623400
H171	H17	0.321200	0.506900	0.606600
C371	C37	0.338900	0.619500	0.703240
C381	C38	0.569000	0.405200	0.698600
C391	C39	0.382900	0.351500	0.541460
C401	C40	0.431200	0.307700	0.502900
H181	H18	0.480500	0.316700	0.509500
C411	C41	0.408700	0.250300	0.454200
H191	H19	0.442600	0.218700	0.429500
C421	C42	0.335600	0.240200	0.442570
C431	C43	0.286600	0.289900	0.480300
H201	H20	0.237300	0.285500	0.472600
C441	C44	0.310000	0.345300	0.528800
H211	H21	0.276500	0.378700	0.553100
C451	C45	0.309400	0.181900	0.388950
C461	C46	0.003000	0.964000	0.672680
C471	C47	0.957300	0.035200	0.700830
H221	H22	0.972300	0.070100	0.734600
C481	C48	0.887700	0.055200	0.678600
C491	C49	0.866200	0.001800	0.627300
H231	H23	0.820100	0.014200	0.612400
C501	C50	0.912900	0.930800	0.598700
C511	C51	0.981000	0.910100	0.622400
H241	H24	0.011900	0.860100	0.604600
C521	C52	0.076700	0.935000	0.697600
C531	C53	0.836900	0.131300	0.709250
C541	C54	0.889600	0.871100	0.545750
C551	C55	0.940000	0.839700	0.502500
H251	H25	0.988400	0.859800	0.506100
C561	C56	0.917100	0.777400	0.453600
H261	H26	0.950700	0.754200	0.426200
C571	C57	0.844800	0.751700	0.446900
C581	C58	0.796900	0.790600	0.486000
H271	H27	0.748000	0.775900	0.480400
C591	C59	0.817100	0.851400	0.534300
H281	H28	0.781900	0.879100	0.559000
C601	C60	0.821000	0.683700	0.395220
O141	O14	0.252160	0.861600	0.743410
O151	O15	0.277180	0.637500	0.680580
O161	O16	0.362010	0.664100	0.750270
O171	O17	0.584820	0.450700	0.745760
O181	O18	0.607810	0.335400	0.671440
O191	O19	0.358240	0.140000	0.356580
O201	O20	0.243100	0.175600	0.379310
O211	O21	0.115730	0.873200	0.669450
O221	O22	0.091970	0.981300	0.745400
O231	O23	0.773900	0.139000	0.687300
O241	O24	0.860980	0.182400	0.752370
O251	O25	0.871260	0.652600	0.361530
O261	O26	0.756470	0.665300	0.387640
Zn91	Zn9	0.700830	0.737540	0.314330
Zn101	Zn10	0.799860	0.737940	0.200480
Zn111	Zn11	0.829800	0.566380	0.295780
Zn121	Zn12	0.680180	0.561470	0.212020
C611	C61	0.886000	0.962700	0.325000
C621	C62	0.953900	0.989800	0.301450
H291	H29	0.969400	0.956600	0.267300
C631	C63	0.997700	0.065800	0.329040
C641	C64	0.974900	0.115900	0.379800
H301	H30	0.004500	0.167000	0.398000
C651	C65	0.907900	0.090100	0.403760
C661	C66	0.865200	0.012600	0.376600
H311	H31	0.821200	0.993100	0.393400
C671	C67	0.838900	0.880500	0.296760
C681	C68	0.069000	0.094800	0.301400
C691	C69	0.882900	0.148500	0.458540
C701	C70	0.931200	0.192300	0.497100
H321	H32	0.980500	0.183300	0.490500
C711	C71	0.908700	0.249700	0.545800
H331	H33	0.942600	0.281300	0.570500
C721	C72	0.835600	0.259800	0.557430
C731	C73	0.786600	0.210100	0.519700
H341	H34	0.737300	0.214500	0.527400
C741	C74	0.810000	0.154700	0.471200
H351	H35	0.776500	0.121300	0.446900
C751	C75	0.809400	0.318100	0.611050
C761	C76	0.503000	0.536000	0.327320
C771	C77	0.457300	0.464800	0.299170
H361	H36	0.472300	0.429900	0.265400
C781	C78	0.387700	0.444800	0.321400
C791	C79	0.366200	0.498200	0.372700
H371	H37	0.320100	0.485800	0.387600
C801	C80	0.412900	0.569200	0.401300
C811	C81	0.481000	0.589900	0.377600
H381	H38	0.511900	0.639900	0.395400
C821	C82	0.576700	0.565000	0.302400
C831	C83	0.336900	0.368700	0.290750
C841	C84	0.389600	0.628900	0.454250
C851	C85	0.440000	0.660300	0.497500
H391	H39	0.488400	0.640200	0.493900
C861	C86	0.417100	0.722600	0.546400
H401	H40	0.450700	0.745800	0.573800
C871	C87	0.344800	0.748300	0.553100
C881	C88	0.296900	0.709400	0.514000
H411	H41	0.248000	0.724100	0.519600
C891	C89	0.317100	0.648600	0.465700
H421	H42	0.281900	0.620900	0.441000
C901	C90	0.321000	0.816300	0.604780
O271	O27	0.752160	0.638400	0.256590
O281	O28	0.777180	0.862500	0.319420
O291	O29	0.862010	0.835900	0.249730
O301	O30	0.084820	0.049300	0.254240
O311	O31	0.107810	0.164600	0.328560
O321	O32	0.858240	0.360000	0.643420
O331	O33	0.743100	0.324400	0.620690
O341	O34	0.615730	0.626800	0.330550
O351	O35	0.591970	0.518700	0.254600
O361	O36	0.273900	0.361000	0.312700
O371	O37	0.360980	0.317600	0.247630
O381	O38	0.371260	0.847400	0.638470
O391	O39	0.256470	0.834700	0.612360
Zn131	Zn13	0.799170	0.262460	0.814330
Zn141	Zn14	0.700140	0.262060	0.700480
Zn151	Zn15	0.670200	0.433620	0.795780
Zn161	Zn16	0.819820	0.438530	0.712020
C911	C91	0.614000	0.037300	0.825000
C921	C92	0.546100	0.010200	0.801450
H431	H43	0.530600	0.043400	0.767300
C931	C93	0.502300	0.934200	0.829040
C941	C94	0.525100	0.884100	0.879800
H441	H44	0.495500	0.833000	0.898000
C951	C95	0.592100	0.909900	0.903760
C961	C96	0.634800	0.987400	0.876600
H451	H45	0.678800	0.006900	0.893400
C971	C97	0.661100	0.119500	0.796760
C981	C98	0.431000	0.905200	0.801400
C991	C99	0.617100	0.851500	0.958540
C1001	C100	0.568800	0.807700	0.997100
H461	H46	0.519500	0.816700	0.990500
C1011	C101	0.591300	0.750300	0.045800
H471	H47	0.557400	0.718700	0.070500
C1021	C102	0.664400	0.740200	0.057430
C1031	C103	0.713400	0.789900	0.019700
H481	H48	0.762700	0.785500	0.027400
C1041	C104	0.690000	0.845300	0.971200
H491	H49	0.723500	0.878700	0.946900
C1051	C105	0.690600	0.681900	0.111050
C1061	C106	0.997000	0.464000	0.827320
C1071	C107	0.042700	0.535200	0.799170
H501	H50	0.027700	0.570100	0.765400
C1081	C108	0.112300	0.555200	0.821400
C1091	C109	0.133800	0.501800	0.872700
H511	H51	0.179900	0.514200	0.887600
C1101	C110	0.087100	0.430800	0.901300
C1111	C111	0.019000	0.410100	0.877600
H521	H52	0.988100	0.360100	0.895400
C1121	C112	0.923300	0.435000	0.802400
C1131	C113	0.163100	0.631300	0.790750
C1141	C114	0.110400	0.371100	0.954250
C1151	C115	0.060000	0.339700	0.997500
H531	H53	0.011600	0.359800	0.993900
C1161	C116	0.082900	0.277400	0.046400
H541	H54	0.049300	0.254200	0.073800
C1171	C117	0.155200	0.251700	0.053100
C1181	C118	0.203100	0.290600	0.014000
H551	H55	0.252000	0.275900	0.019600
C1191	C119	0.182900	0.351400	0.965700
H561	H56	0.218100	0.379100	0.941000
C1201	C120	0.179000	0.183700	0.104780
O401	O40	0.747840	0.361600	0.756590
O411	O41	0.722820	0.137500	0.819420
O421	O42	0.637990	0.164100	0.749730
O431	O43	0.415180	0.950700	0.754240
O441	O44	0.392190	0.835400	0.828560
O451	O45	0.641760	0.640000	0.143420
O461	O46	0.756900	0.675600	0.120690
O471	O47	0.884270	0.373200	0.830550
O481	O48	0.908030	0.481300	0.754600
O491	O49	0.226100	0.639000	0.812700
O501	O50	0.139020	0.682400	0.747630
O511	O51	0.128740	0.152600	0.138470
O521	O52	0.243530	0.165300	0.112360
