data_DITYEM_clean_PM
_symmetry_space_group_name_H-M	'P1'
_cell_length_a	5.278800
_cell_length_b	15.467000
_cell_length_c	8.295000
_cell_angle_alpha	90.000000
_cell_angle_beta	92.552000
_cell_angle_gamma	90.000000
_symmetry_Int_Tables_number 1

loop_
_symmetry_equiv_pos_as_xyz
'x,y,z'

loop_
_atom_site_label
_atom_site_type_symbol
_atom_site_fract_x
_atom_site_fract_y
_atom_site_fract_z
N11	N1	0.907400	0.396480	0.555600
N21	N2	0.262700	0.216070	0.868500
C11	C1	0.856200	0.312310	0.583000
C21	C2	0.297700	0.301120	0.849300
H11	H1	0.188200	0.338800	0.899000
C31	C3	0.486900	0.336090	0.760100
H21	H2	0.501100	0.395700	0.749700
C41	C4	0.656300	0.281870	0.685700
C51	C5	0.622700	0.192900	0.706500
H31	H3	0.731700	0.153800	0.660100
C61	C6	0.427200	0.163780	0.796100
H41	H4	0.407200	0.104400	0.807400
N31	N3	0.092600	0.396480	0.444400
N41	N4	0.737300	0.216070	0.131500
C71	C7	0.143800	0.312310	0.417000
C81	C8	0.702300	0.301120	0.150700
H51	H5	0.811800	0.338800	0.101000
C91	C9	0.513100	0.336090	0.239900
H61	H6	0.498900	0.395700	0.250300
C101	C10	0.343700	0.281870	0.314300
C111	C11	0.377300	0.192900	0.293500
H71	H7	0.268300	0.153800	0.339900
C121	C12	0.572800	0.163780	0.203900
H81	H8	0.592800	0.104400	0.192600
N51	N5	0.092600	0.603520	0.444400
N61	N6	0.737300	0.783930	0.131500
C131	C13	0.143800	0.687690	0.417000
C141	C14	0.702300	0.698880	0.150700
H91	H9	0.811800	0.661200	0.101000
C151	C15	0.513100	0.663910	0.239900
H101	H10	0.498900	0.604300	0.250300
C161	C16	0.343700	0.718130	0.314300
C171	C17	0.377300	0.807100	0.293500
H111	H11	0.268300	0.846200	0.339900
C181	C18	0.572800	0.836220	0.203900
H121	H12	0.592800	0.895600	0.192600
N71	N7	0.907400	0.603520	0.555600
N81	N8	0.262700	0.783930	0.868500
C191	C19	0.856200	0.687690	0.583000
C201	C20	0.297700	0.698880	0.849300
H131	H13	0.188200	0.661200	0.899000
C211	C21	0.486900	0.663910	0.760100
H141	H14	0.501100	0.604300	0.749700
C221	C22	0.656300	0.718130	0.685700
C231	C23	0.622700	0.807100	0.706500
H151	H15	0.731700	0.846200	0.660100
C241	C24	0.427200	0.836220	0.796100
H161	H16	0.407200	0.895600	0.807400
Cu11	Cu1	0.906890	0.500000	0.703940
N91	N9	0.973400	0.500000	0.931800
C251	C25	0.026600	0.500000	0.068200
Cu21	Cu2	0.093110	0.500000	0.296060
Cu31	Cu3	0.000000	0.161600	0.000000
N101	N10	0.000000	0.037600	0.000000
C261	C26	0.000000	0.962400	0.000000
Cu41	Cu4	0.000000	0.838400	0.000000
N111	N11	0.000000	0.258230	0.500000
N121	N12	0.000000	0.741770	0.500000
