data_DIVNIH_clean_PM
_symmetry_space_group_name_H-M	'P1'
_cell_length_a	7.064900
_cell_length_b	11.277100
_cell_length_c	11.831800
_cell_angle_alpha	67.370000
_cell_angle_beta	80.035000
_cell_angle_gamma	82.821000
_symmetry_Int_Tables_number 1

loop_
_symmetry_equiv_pos_as_xyz
'x,y,z'

loop_
_atom_site_label
_atom_site_type_symbol
_atom_site_fract_x
_atom_site_fract_y
_atom_site_fract_z
Nd11	Nd1	0.222420	0.546930	0.574010
Nd21	Nd2	0.286860	0.010110	0.752140
S11	S1	0.289320	0.321410	0.461490
S21	S2	0.444320	0.716150	0.252580
O11	O1	0.440900	0.397900	0.469400
O21	O2	0.106500	0.393900	0.489600
O31	O3	0.299000	0.192900	0.556800
O41	O4	0.305800	0.316700	0.340400
O51	O5	0.286000	0.659900	0.351200
O61	O6	0.471600	0.845400	0.244900
O71	O7	0.622600	0.634800	0.275700
O81	O8	0.390900	0.721900	0.136000
O91	O9	0.169800	0.778200	0.530900
O101	O10	0.237900	0.609600	0.750500
O111	O11	0.228600	0.939200	0.583200
O121	O12	0.300700	0.769500	0.804200
O131	O13	0.064900	0.885600	0.935400
O141	O14	0.874800	0.871100	0.111600
C11	C1	0.213200	0.823200	0.603700
C21	C2	0.255400	0.726500	0.731800
C31	C3	0.980400	0.931000	0.013500
Nd31	Nd3	0.777580	0.453070	0.425990
Nd41	Nd4	0.713140	0.989890	0.247860
S31	S3	0.710680	0.678590	0.538510
S41	S4	0.555680	0.283850	0.747420
O151	O15	0.559100	0.602100	0.530600
O161	O16	0.893500	0.606100	0.510400
O171	O17	0.701000	0.807100	0.443200
O181	O18	0.694200	0.683300	0.659600
O191	O19	0.714000	0.340100	0.648800
O201	O20	0.528400	0.154600	0.755100
O211	O21	0.377400	0.365200	0.724300
O221	O22	0.609100	0.278100	0.864000
O231	O23	0.830200	0.221800	0.469100
O241	O24	0.762100	0.390400	0.249500
O251	O25	0.771400	0.060800	0.416800
O261	O26	0.699300	0.230500	0.195800
O271	O27	0.935100	0.114400	0.064600
O281	O28	0.125200	0.128900	0.888400
C41	C4	0.786800	0.176800	0.396300
C51	C5	0.744600	0.273500	0.268200
C61	C6	0.019600	0.069000	0.986500
