data_DIXKOL_clean_PM
_symmetry_space_group_name_H-M	'P1'
_cell_length_a	11.157500
_cell_length_b	11.260600
_cell_length_c	11.424000
_cell_angle_alpha	76.762000
_cell_angle_beta	65.814000
_cell_angle_gamma	80.680000
_symmetry_Int_Tables_number 1

loop_
_symmetry_equiv_pos_as_xyz
'x,y,z'

loop_
_atom_site_label
_atom_site_type_symbol
_atom_site_fract_x
_atom_site_fract_y
_atom_site_fract_z
Co11	Co1	0.897180	0.607080	0.500680
Co21	Co2	0.970840	0.428200	0.289770
Co31	Co3	0.007180	0.640720	0.991330
Co41	Co4	0.102820	0.392920	0.499320
Co51	Co5	0.029160	0.571800	0.710230
Co61	Co6	0.992820	0.359280	0.008670
H11	H1	0.126800	0.476100	0.078100
H21	H2	0.146600	0.627500	0.461000
H31	H3	0.031900	0.964400	0.139300
H41	H4	0.865900	0.070000	0.491400
H51	H5	0.827100	0.866500	0.589500
H61	H6	0.453500	0.585800	0.861000
H71	H7	0.428400	0.644200	0.507100
H81	H8	0.654900	0.655900	0.410000
H91	H9	0.873200	0.523900	0.921900
H101	H10	0.853400	0.372500	0.539000
H111	H11	0.968100	0.035600	0.860700
H121	H12	0.134100	0.930000	0.508600
H131	H13	0.172900	0.133500	0.410500
H141	H14	0.546500	0.414200	0.139000
H151	H15	0.571600	0.355800	0.492900
H161	H16	0.345100	0.344100	0.590000
C11	C1	0.996540	0.721160	0.225420
C21	C2	0.965940	0.827180	0.296280
C31	C3	0.991000	0.946190	0.231820
C41	C4	0.954940	0.038480	0.305270
C51	C5	0.892900	0.008310	0.439290
C61	C6	0.870300	0.886470	0.497270
C71	C7	0.983300	0.169160	0.241500
C81	C8	0.719600	0.586130	0.775260
C91	C9	0.627520	0.603940	0.704150
C101	C10	0.493200	0.598600	0.768430
C111	C11	0.416270	0.612310	0.694950
C121	C12	0.478200	0.633760	0.559570
C131	C13	0.613300	0.639730	0.502510
C141	C14	0.269810	0.602130	0.759650
C151	C15	0.003460	0.278840	0.774580
C161	C16	0.034060	0.172820	0.703720
C171	C17	0.009000	0.053810	0.768180
C181	C18	0.045060	0.961520	0.694730
C191	C19	0.107100	0.991690	0.560710
C201	C20	0.129700	0.113530	0.502730
C211	C21	0.016700	0.830840	0.758500
C221	C22	0.280400	0.413870	0.224740
C231	C23	0.372480	0.396060	0.295850
C241	C24	0.506800	0.401400	0.231570
C251	C25	0.583730	0.387690	0.305050
C261	C26	0.521800	0.366240	0.440430
C271	C27	0.386700	0.360270	0.497490
C281	C28	0.730190	0.397870	0.240350
N11	N1	0.907110	0.797050	0.427860
N21	N2	0.687740	0.623560	0.572590
N31	N3	0.092890	0.202950	0.572140
N41	N4	0.312260	0.376440	0.427410
O11	O1	0.960960	0.619570	0.298540
O21	O2	0.049940	0.740550	0.103920
O31	O3	0.961440	0.242330	0.317030
O41	O4	0.026860	0.193960	0.118540
O51	O5	0.841060	0.593380	0.699070
O61	O6	0.676420	0.567810	0.895110
O71	O7	0.208960	0.641280	0.863950
O81	O8	0.222640	0.551130	0.701470
O91	O9	0.049480	0.470100	0.093740
O101	O10	0.082780	0.575800	0.511640
O111	O11	0.039040	0.380430	0.701460
O121	O12	0.950060	0.259450	0.896080
O131	O13	0.038560	0.757670	0.682970
O141	O14	0.973140	0.806040	0.881460
O151	O15	0.158940	0.406620	0.300930
O161	O16	0.323580	0.432190	0.104890
O171	O17	0.791040	0.358720	0.136050
O181	O18	0.777360	0.448870	0.298530
O191	O19	0.950520	0.529900	0.906260
O201	O20	0.917220	0.424200	0.488360
