data_DIZQOT_clean_PM
_symmetry_space_group_name_H-M	'P1'
_cell_length_a	13.863700
_cell_length_b	18.941100
_cell_length_c	19.007900
_cell_angle_alpha	90.000000
_cell_angle_beta	90.000000
_cell_angle_gamma	90.000000
_symmetry_Int_Tables_number 1

loop_
_symmetry_equiv_pos_as_xyz
'x,y,z'

loop_
_atom_site_label
_atom_site_type_symbol
_atom_site_fract_x
_atom_site_fract_y
_atom_site_fract_z
Zn11	Zn1	0.364850	0.896880	0.568500
Zn21	Zn2	0.635160	0.396880	0.931500
Zn31	Zn3	0.635160	0.103120	0.431500
Zn41	Zn4	0.364850	0.603120	0.068500
Co11	Co1	0.403550	0.483110	0.956560
Co21	Co2	0.596450	0.983110	0.543440
Co31	Co3	0.596450	0.516890	0.043440
Co41	Co4	0.403550	0.016890	0.456560
H11	H1	0.413100	0.718200	0.701400
H21	H2	0.420200	0.635000	0.789500
H31	H3	0.377700	0.785900	0.932900
H41	H4	0.374900	0.869200	0.844200
H51	H5	0.112100	0.066700	0.441800
H61	H6	0.048900	0.910800	0.573800
H71	H7	0.383500	0.366600	0.079100
H81	H8	0.357000	0.247600	0.090200
H91	H9	0.348700	0.178000	0.990900
H101	H10	0.346700	0.349900	0.682600
H111	H11	0.354800	0.470800	0.688600
H121	H12	0.376100	0.524100	0.796600
H131	H13	0.436200	0.002400	0.585600
H141	H14	0.586900	0.218200	0.798600
H151	H15	0.579800	0.135000	0.710500
H161	H16	0.622300	0.285900	0.567100
H171	H17	0.625100	0.369200	0.655800
H181	H18	0.887900	0.566700	0.058200
H191	H19	0.951100	0.410800	0.926200
H201	H20	0.616500	0.866600	0.420900
H211	H21	0.643000	0.747600	0.409800
H221	H22	0.651300	0.678000	0.509100
H231	H23	0.653300	0.849900	0.817400
H241	H24	0.645200	0.970800	0.811400
H251	H25	0.623900	0.024100	0.703400
H261	H26	0.563800	0.502400	0.914400
H271	H27	0.586900	0.281800	0.298600
H281	H28	0.579800	0.365000	0.210500
H291	H29	0.622300	0.214100	0.067100
H301	H30	0.625100	0.130800	0.155800
H311	H31	0.887900	0.933300	0.558200
H321	H32	0.951100	0.089200	0.426200
H331	H33	0.616500	0.633400	0.920900
H341	H34	0.643000	0.752400	0.909800
H351	H35	0.651300	0.822000	0.009100
H361	H36	0.653300	0.650100	0.317400
H371	H37	0.645200	0.529200	0.311400
H381	H38	0.623900	0.475900	0.203400
H391	H39	0.563800	0.997600	0.414400
H401	H40	0.413100	0.781800	0.201400
H411	H41	0.420200	0.865000	0.289500
H421	H42	0.377700	0.714100	0.432900
H431	H43	0.374900	0.630800	0.344200
H441	H44	0.112100	0.433300	0.941800
H451	H45	0.048900	0.589200	0.073800
H461	H46	0.383500	0.133400	0.579100
H471	H47	0.357000	0.252400	0.590200
H481	H48	0.348700	0.322000	0.490900
H491	H49	0.346700	0.150100	0.182600
H501	H50	0.354800	0.029200	0.188600
H511	H51	0.376100	0.975900	0.296600
H521	H52	0.436200	0.497600	0.085600
C11	C1	0.386530	0.856370	0.706510
C21	C2	0.392370	0.801740	0.763670
C31	C3	0.406100	0.732100	0.748030
C41	C4	0.409500	0.682130	0.800800
C51	C5	0.397160	0.701430	0.870280
C61	C6	0.384700	0.771860	0.886250
C71	C7	0.382800	0.821780	0.833070
C81	C8	0.395610	0.646190	0.927260
C91	C9	0.203470	0.972370	0.516750
C101	C10	0.097980	0.986300	0.509090
C111	C11	0.066900	0.039340	0.465550
C121	C12	0.029680	0.946990	0.543760
C131	C13	0.378100	0.339250	0.038700
C141	C14	0.363100	0.267670	0.045800
C151	C15	0.357200	0.226550	0.986900
C161	C16	0.364000	0.257580	0.921270
C171	C17	0.356400	0.216070	0.856000
C181	C18	0.354600	0.255020	0.785300
C191	C19	0.362150	0.332920	0.786810
C201	C20	0.354900	0.372300	0.725740
C211	C21	0.359800	0.443500	0.729130
C221	C22	0.372500	0.475140	0.794450
C231	C23	0.374050	0.368250	0.850360
C241	C24	0.376200	0.330960	0.918230
C251	C25	0.613470	0.356370	0.793490
C261	C26	0.607630	0.301740	0.736330
C271	C27	0.593900	0.232100	0.751970
C281	C28	0.590500	0.182130	0.699200
C291	C29	0.602840	0.201430	0.629720
C301	C30	0.615300	0.271860	0.613750
C311	C31	0.617200	0.321780	0.666930
C321	C32	0.604390	0.146190	0.572740
C331	C33	0.796530	0.472370	0.983250
C341	C34	0.902020	0.486300	0.990910
C351	C35	0.933100	0.539340	0.034450
C361	C36	0.970320	0.446990	0.956240
C371	C37	0.621900	0.839250	0.461300
C381	C38	0.636900	0.767670	0.454200
C391	C39	0.642800	0.726550	0.513100
C401	C40	0.636000	0.757580	0.578730
C411	C41	0.643600	0.716070	0.644000
C421	C42	0.645400	0.755020	0.714700
C431	C43	0.637850	0.832920	0.713190
C441	C44	0.645100	0.872300	0.774260
C451	C45	0.640200	0.943500	0.770870
C461	C46	0.627500	0.975140	0.705550
C471	C47	0.625950	0.868250	0.649640
C481	C48	0.623800	0.830960	0.581770
C491	C49	0.613470	0.143630	0.293490
C501	C50	0.607630	0.198260	0.236330
C511	C51	0.593900	0.267900	0.251970
C521	C52	0.590500	0.317870	0.199200
C531	C53	0.602840	0.298570	0.129720
C541	C54	0.615300	0.228140	0.113750
C551	C55	0.617200	0.178220	0.166930
C561	C56	0.604390	0.353810	0.072740
C571	C57	0.796530	0.027630	0.483250
C581	C58	0.902020	0.013700	0.490910
C591	C59	0.933100	0.960660	0.534450
C601	C60	0.970320	0.053010	0.456240
C611	C61	0.621900	0.660750	0.961300
C621	C62	0.636900	0.732330	0.954200
C631	C63	0.642800	0.773450	0.013100
C641	C64	0.636000	0.742420	0.078730
C651	C65	0.643600	0.783930	0.144000
C661	C66	0.645400	0.744980	0.214700
C671	C67	0.637850	0.667080	0.213190
C681	C68	0.645100	0.627700	0.274260
C691	C69	0.640200	0.556500	0.270870
C701	C70	0.627500	0.524860	0.205550
C711	C71	0.625950	0.631750	0.149640
C721	C72	0.623800	0.669040	0.081770
C731	C73	0.386530	0.643630	0.206510
C741	C74	0.392370	0.698260	0.263670
C751	C75	0.406100	0.767900	0.248030
C761	C76	0.409500	0.817870	0.300800
C771	C77	0.397160	0.798570	0.370280
C781	C78	0.384700	0.728140	0.386250
C791	C79	0.382800	0.678220	0.333070
C801	C80	0.395610	0.853810	0.427260
C811	C81	0.203470	0.527630	0.016750
C821	C82	0.097980	0.513700	0.009090
C831	C83	0.066900	0.460660	0.965550
C841	C84	0.029680	0.553010	0.043760
C851	C85	0.378100	0.160750	0.538700
C861	C86	0.363100	0.232330	0.545800
C871	C87	0.357200	0.273450	0.486900
C881	C88	0.364000	0.242420	0.421270
C891	C89	0.356400	0.283930	0.356000
C901	C90	0.354600	0.244980	0.285300
C911	C91	0.362150	0.167080	0.286810
C921	C92	0.354900	0.127700	0.225740
C931	C93	0.359800	0.056500	0.229130
C941	C94	0.372500	0.024860	0.294450
C951	C95	0.374050	0.131750	0.350360
C961	C96	0.376200	0.169040	0.418230
N11	N1	0.385390	0.370970	0.976050
N21	N2	0.379780	0.438820	0.853980
N31	N3	0.614610	0.870970	0.523950
N41	N4	0.620220	0.938820	0.646020
N51	N5	0.614610	0.629030	0.023950
N61	N6	0.620220	0.561180	0.146020
N71	N7	0.385390	0.129030	0.476050
N81	N8	0.379780	0.061180	0.353980
O11	O1	0.387300	0.832150	0.644200
O21	O2	0.380910	0.918850	0.721320
O31	O3	0.408770	0.583520	0.910030
O41	O4	0.381260	0.667940	0.989080
O51	O5	0.259290	0.007450	0.479290
O61	O6	0.228510	0.925910	0.561150
O71	O7	0.351600	0.151990	0.856400
O81	O8	0.346600	0.221560	0.731670
O91	O9	0.445450	0.980640	0.556660
O101	O10	0.612700	0.332150	0.855800
O111	O11	0.619090	0.418850	0.778680
O121	O12	0.591230	0.083520	0.589970
O131	O13	0.618740	0.167940	0.510920
O141	O14	0.740710	0.507450	0.020710
O151	O15	0.771490	0.425910	0.938850
O161	O16	0.648400	0.651990	0.643600
O171	O17	0.653400	0.721560	0.768330
O181	O18	0.554550	0.480640	0.943340
O191	O19	0.612700	0.167850	0.355800
O201	O20	0.619090	0.081150	0.278680
O211	O21	0.591230	0.416480	0.089970
O221	O22	0.618740	0.332060	0.010920
O231	O23	0.740710	0.992550	0.520710
O241	O24	0.771490	0.074090	0.438850
O251	O25	0.648400	0.848010	0.143600
O261	O26	0.653400	0.778440	0.268330
O271	O27	0.554550	0.019360	0.443340
O281	O28	0.387300	0.667850	0.144200
O291	O29	0.380910	0.581150	0.221320
O301	O30	0.408770	0.916480	0.410030
O311	O31	0.381260	0.832060	0.489080
O321	O32	0.259290	0.492550	0.979290
O331	O33	0.228510	0.574090	0.061150
O341	O34	0.351600	0.348010	0.356400
O351	O35	0.346600	0.278440	0.231670
O361	O36	0.445450	0.519360	0.056660
Zn51	Zn5	0.135160	0.103120	0.068500
Zn61	Zn6	0.864850	0.603120	0.431500
Zn71	Zn7	0.864850	0.896880	0.931500
Zn81	Zn8	0.135160	0.396880	0.568500
Co51	Co5	0.096450	0.516890	0.456560
Co61	Co6	0.903550	0.016890	0.043440
Co71	Co7	0.903550	0.483110	0.543440
Co81	Co8	0.096450	0.983110	0.956560
H531	H53	0.086900	0.281800	0.201400
H541	H54	0.079800	0.365000	0.289500
H551	H55	0.122300	0.214100	0.432900
H561	H56	0.125100	0.130800	0.344200
H571	H57	0.387900	0.933300	0.941800
H581	H58	0.451100	0.089200	0.073800
H591	H59	0.116500	0.633400	0.579100
H601	H60	0.143000	0.752400	0.590200
H611	H61	0.151300	0.822000	0.490900
H621	H62	0.153300	0.650100	0.182600
H631	H63	0.145200	0.529200	0.188600
H641	H64	0.123900	0.475900	0.296600
H651	H65	0.063800	0.997600	0.085600
H661	H66	0.913100	0.781800	0.298600
H671	H67	0.920200	0.865000	0.210500
H681	H68	0.877700	0.714100	0.067100
H691	H69	0.874900	0.630800	0.155800
H701	H70	0.612100	0.433300	0.558200
H711	H71	0.548900	0.589200	0.426200
H721	H72	0.883500	0.133400	0.920900
H731	H73	0.857000	0.252400	0.909800
H741	H74	0.848700	0.322000	0.009100
H751	H75	0.846700	0.150100	0.317400
H761	H76	0.854800	0.029200	0.311400
H771	H77	0.876100	0.975900	0.203400
H781	H78	0.936200	0.497600	0.414400
H791	H79	0.913100	0.718200	0.798600
H801	H80	0.920200	0.635000	0.710500
H811	H81	0.877700	0.785900	0.567100
H821	H82	0.874900	0.869200	0.655800
H831	H83	0.612100	0.066700	0.058200
H841	H84	0.548900	0.910800	0.926200
H851	H85	0.883500	0.366600	0.420900
H861	H86	0.857000	0.247600	0.409800
H871	H87	0.848700	0.178000	0.509100
H881	H88	0.846700	0.349900	0.817400
H891	H89	0.854800	0.470800	0.811400
H901	H90	0.876100	0.524100	0.703400
H911	H91	0.936200	0.002400	0.914400
H921	H92	0.086900	0.218200	0.701400
H931	H93	0.079800	0.135000	0.789500
H941	H94	0.122300	0.285900	0.932900
H951	H95	0.125100	0.369200	0.844200
H961	H96	0.387900	0.566700	0.441800
H971	H97	0.451100	0.410800	0.573800
H981	H98	0.116500	0.866600	0.079100
H991	H99	0.143000	0.747600	0.090200
H1001	H100	0.151300	0.678000	0.990900
H1011	H101	0.153300	0.849900	0.682600
H1021	H102	0.145200	0.970800	0.688600
H1031	H103	0.123900	0.024100	0.796600
H1041	H104	0.063800	0.502400	0.585600
C971	C97	0.113470	0.143630	0.206510
C981	C98	0.107630	0.198260	0.263670
C991	C99	0.093900	0.267900	0.248030
C1001	C100	0.090500	0.317870	0.300800
C1011	C101	0.102840	0.298570	0.370280
C1021	C102	0.115300	0.228140	0.386250
C1031	C103	0.117200	0.178220	0.333070
C1041	C104	0.104390	0.353810	0.427260
C1051	C105	0.296530	0.027630	0.016750
C1061	C106	0.402020	0.013700	0.009090
C1071	C107	0.433100	0.960660	0.965550
C1081	C108	0.470320	0.053010	0.043760
C1091	C109	0.121900	0.660750	0.538700
C1101	C110	0.136900	0.732330	0.545800
C1111	C111	0.142800	0.773450	0.486900
C1121	C112	0.136000	0.742420	0.421270
C1131	C113	0.143600	0.783930	0.356000
C1141	C114	0.145400	0.744980	0.285300
C1151	C115	0.137850	0.667080	0.286810
C1161	C116	0.145100	0.627700	0.225740
C1171	C117	0.140200	0.556500	0.229130
C1181	C118	0.127500	0.524860	0.294450
C1191	C119	0.125950	0.631750	0.350360
C1201	C120	0.123800	0.669040	0.418230
C1211	C121	0.886530	0.643630	0.293490
C1221	C122	0.892370	0.698260	0.236330
C1231	C123	0.906100	0.767900	0.251970
C1241	C124	0.909500	0.817870	0.199200
C1251	C125	0.897160	0.798570	0.129720
C1261	C126	0.884700	0.728140	0.113750
C1271	C127	0.882800	0.678220	0.166930
C1281	C128	0.895610	0.853810	0.072740
C1291	C129	0.703470	0.527630	0.483250
C1301	C130	0.597980	0.513700	0.490910
C1311	C131	0.566900	0.460660	0.534450
C1321	C132	0.529680	0.553010	0.456240
C1331	C133	0.878100	0.160750	0.961300
C1341	C134	0.863100	0.232330	0.954200
C1351	C135	0.857200	0.273450	0.013100
C1361	C136	0.864000	0.242420	0.078730
C1371	C137	0.856400	0.283930	0.144000
C1381	C138	0.854600	0.244980	0.214700
C1391	C139	0.862150	0.167080	0.213190
C1401	C140	0.854900	0.127700	0.274260
C1411	C141	0.859800	0.056500	0.270870
C1421	C142	0.872500	0.024860	0.205550
C1431	C143	0.874050	0.131750	0.149640
C1441	C144	0.876200	0.169040	0.081770
C1451	C145	0.886530	0.856370	0.793490
C1461	C146	0.892370	0.801740	0.736330
C1471	C147	0.906100	0.732100	0.751970
C1481	C148	0.909500	0.682130	0.699200
C1491	C149	0.897160	0.701430	0.629720
C1501	C150	0.884700	0.771860	0.613750
C1511	C151	0.882800	0.821780	0.666930
C1521	C152	0.895610	0.646190	0.572740
C1531	C153	0.703470	0.972370	0.983250
C1541	C154	0.597980	0.986300	0.990910
C1551	C155	0.566900	0.039340	0.034450
C1561	C156	0.529680	0.946990	0.956240
C1571	C157	0.878100	0.339250	0.461300
C1581	C158	0.863100	0.267670	0.454200
C1591	C159	0.857200	0.226550	0.513100
C1601	C160	0.864000	0.257580	0.578730
C1611	C161	0.856400	0.216070	0.644000
C1621	C162	0.854600	0.255020	0.714700
C1631	C163	0.862150	0.332920	0.713190
C1641	C164	0.854900	0.372300	0.774260
C1651	C165	0.859800	0.443500	0.770870
C1661	C166	0.872500	0.475140	0.705550
C1671	C167	0.874050	0.368250	0.649640
C1681	C168	0.876200	0.330960	0.581770
C1691	C169	0.113470	0.356370	0.706510
C1701	C170	0.107630	0.301740	0.763670
C1711	C171	0.093900	0.232100	0.748030
C1721	C172	0.090500	0.182130	0.800800
C1731	C173	0.102840	0.201430	0.870280
C1741	C174	0.115300	0.271860	0.886250
C1751	C175	0.117200	0.321780	0.833070
C1761	C176	0.104390	0.146190	0.927260
C1771	C177	0.296530	0.472370	0.516750
C1781	C178	0.402020	0.486300	0.509090
C1791	C179	0.433100	0.539340	0.465550
C1801	C180	0.470320	0.446990	0.543760
C1811	C181	0.121900	0.839250	0.038700
C1821	C182	0.136900	0.767670	0.045800
C1831	C183	0.142800	0.726550	0.986900
C1841	C184	0.136000	0.757580	0.921270
C1851	C185	0.143600	0.716070	0.856000
C1861	C186	0.145400	0.755020	0.785300
C1871	C187	0.137850	0.832920	0.786810
C1881	C188	0.145100	0.872300	0.725740
C1891	C189	0.140200	0.943500	0.729130
C1901	C190	0.127500	0.975140	0.794450
C1911	C191	0.125950	0.868250	0.850360
C1921	C192	0.123800	0.830960	0.918230
N91	N9	0.114610	0.629030	0.476050
N101	N10	0.120220	0.561180	0.353980
N111	N11	0.885390	0.129030	0.023950
N121	N12	0.879780	0.061180	0.146020
N131	N13	0.885390	0.370970	0.523950
N141	N14	0.879780	0.438820	0.646020
N151	N15	0.114610	0.870970	0.976050
N161	N16	0.120220	0.938820	0.853980
O371	O37	0.112700	0.167850	0.144200
O381	O38	0.119090	0.081150	0.221320
O391	O39	0.091230	0.416480	0.410030
O401	O40	0.118740	0.332060	0.489080
O411	O41	0.240710	0.992550	0.979290
O421	O42	0.271490	0.074090	0.061150
O431	O43	0.148400	0.848010	0.356400
O441	O44	0.153400	0.778440	0.231670
O451	O45	0.054550	0.019360	0.056660
O461	O46	0.887300	0.667850	0.355800
O471	O47	0.880910	0.581150	0.278680
O481	O48	0.908770	0.916480	0.089970
O491	O49	0.881260	0.832060	0.010920
O501	O50	0.759290	0.492550	0.520710
O511	O51	0.728510	0.574090	0.438850
O521	O52	0.851600	0.348010	0.143600
O531	O53	0.846600	0.278440	0.268330
O541	O54	0.945450	0.519360	0.443340
O551	O55	0.887300	0.832150	0.855800
O561	O56	0.880910	0.918850	0.778680
O571	O57	0.908770	0.583520	0.589970
O581	O58	0.881260	0.667940	0.510920
O591	O59	0.759290	0.007450	0.020710
O601	O60	0.728510	0.925910	0.938850
O611	O61	0.851600	0.151990	0.643600
O621	O62	0.846600	0.221560	0.768330
O631	O63	0.945450	0.980640	0.943340
O641	O64	0.112700	0.332150	0.644200
O651	O65	0.119090	0.418850	0.721320
O661	O66	0.091230	0.083520	0.910030
O671	O67	0.118740	0.167940	0.989080
O681	O68	0.240710	0.507450	0.479290
O691	O69	0.271490	0.425910	0.561150
O701	O70	0.148400	0.651990	0.856400
O711	O71	0.153400	0.721560	0.731670
O721	O72	0.054550	0.480640	0.556660
