data_DOGZIJ_clean_PM
_symmetry_space_group_name_H-M	'P1'
_cell_length_a	8.473000
_cell_length_b	10.154000
_cell_length_c	13.397000
_cell_angle_alpha	68.210000
_cell_angle_beta	78.640000
_cell_angle_gamma	77.460000
_symmetry_Int_Tables_number 1

loop_
_symmetry_equiv_pos_as_xyz
'x,y,z'

loop_
_atom_site_label
_atom_site_type_symbol
_atom_site_fract_x
_atom_site_fract_y
_atom_site_fract_z
Zn11	Zn1	0.943370	0.435150	0.158220
Zn21	Zn2	0.056630	0.564850	0.841780
H11	H1	0.255200	0.252300	0.082500
H21	H2	0.461500	0.229100	0.323700
H31	H3	0.193000	0.373900	0.330600
H41	H4	0.638800	0.186400	0.114500
H51	H5	0.598000	0.050000	0.210900
H61	H6	0.433100	0.918700	0.269600
H71	H7	0.344500	0.811800	0.249800
H81	H8	0.532500	0.775500	0.256200
H91	H9	0.586300	0.321400	0.973000
H101	H10	0.692300	0.288800	0.872400
H111	H11	0.506500	0.351500	0.869000
H121	H12	0.923600	0.040000	0.163300
H131	H13	0.070400	0.185900	0.842800
H141	H14	0.752300	0.532600	0.518900
H151	H15	0.465800	0.457700	0.348900
H161	H16	0.744800	0.747700	0.917500
H171	H17	0.538500	0.770900	0.676300
H181	H18	0.807000	0.626100	0.669400
H191	H19	0.361200	0.813600	0.885500
H201	H20	0.402000	0.950000	0.789100
H211	H21	0.566900	0.081300	0.730400
H221	H22	0.655500	0.188200	0.750200
H231	H23	0.467500	0.224500	0.743800
H241	H24	0.413700	0.678600	0.027000
H251	H25	0.307700	0.711200	0.127600
H261	H26	0.493500	0.648500	0.131000
H271	H27	0.076400	0.960000	0.836700
H281	H28	0.929600	0.814100	0.157200
H291	H29	0.247700	0.467400	0.481100
H301	H30	0.534200	0.542300	0.651100
C11	C1	0.273500	0.266200	0.143800
C21	C2	0.387200	0.252200	0.274800
C31	C3	0.238500	0.332100	0.278200
C41	C4	0.556600	0.126200	0.149600
C51	C5	0.523000	0.062600	0.071050
C61	C6	0.475900	0.927100	0.112220
C71	C7	0.545600	0.137300	0.959600
C81	C8	0.443500	0.851400	0.232900
C91	C9	0.586500	0.288700	0.914300
C101	C10	0.986500	0.281960	0.007540
C111	C11	0.993900	0.134840	0.004040
C121	C12	0.953700	0.023680	0.097730
C131	C13	0.041800	0.111400	0.905550
C141	C14	0.772200	0.488400	0.333440
C151	C15	0.631500	0.493500	0.420350
C161	C16	0.650900	0.519300	0.511000
C171	C17	0.480100	0.474700	0.409890
C181	C18	0.726500	0.733800	0.856200
C191	C19	0.612800	0.747800	0.725200
C201	C20	0.761500	0.667900	0.721800
C211	C21	0.443400	0.873800	0.850400
C221	C22	0.477000	0.937400	0.928950
C231	C23	0.524100	0.072900	0.887780
C241	C24	0.454400	0.862700	0.040400
C251	C25	0.556500	0.148600	0.767100
C261	C26	0.413500	0.711300	0.085700
C271	C27	0.013500	0.718040	0.992460
C281	C28	0.006100	0.865160	0.995960
C291	C29	0.046300	0.976320	0.902270
C301	C30	0.958200	0.888600	0.094450
C311	C31	0.227800	0.511600	0.666560
C321	C32	0.368500	0.506500	0.579650
C331	C33	0.349100	0.480700	0.489000
C341	C34	0.519900	0.525300	0.590110
N11	N1	0.165700	0.342470	0.194890
N21	N2	0.408300	0.212000	0.187630
N31	N3	0.834300	0.657530	0.805110
N41	N4	0.591700	0.788000	0.812370
O11	O1	0.897130	0.312290	0.085650
O21	O2	0.073410	0.363520	0.933830
O31	O3	0.755450	0.428940	0.267840
O41	O4	0.896000	0.538390	0.326940
O51	O5	0.102870	0.687710	0.914350
O61	O6	0.926590	0.636480	0.066170
O71	O7	0.244550	0.571060	0.732160
O81	O8	0.104000	0.461610	0.673060
