data_DOHXUV_clean_PM
_symmetry_space_group_name_H-M	'P1'
_cell_length_a	22.665500
_cell_length_b	18.865600
_cell_length_c	24.603600
_cell_angle_alpha	90.000000
_cell_angle_beta	107.228000
_cell_angle_gamma	90.000000
_symmetry_Int_Tables_number 1

loop_
_symmetry_equiv_pos_as_xyz
'x,y,z'

loop_
_atom_site_label
_atom_site_type_symbol
_atom_site_fract_x
_atom_site_fract_y
_atom_site_fract_z
Ag11	Ag1	0.236630	0.595380	0.947110
Ag21	Ag2	0.067880	0.072250	0.522350
Ag31	Ag3	0.834100	0.727470	0.483530
Cl11	Cl1	0.310200	0.673960	0.031400
C11	C1	0.230100	0.589800	0.823400
H11	H1	0.234600	0.542200	0.833600
C21	C2	0.223900	0.607900	0.768200
H21	H2	0.223800	0.573300	0.741300
C31	C3	0.217600	0.679300	0.752800
C41	C4	0.218700	0.729300	0.794100
H31	H3	0.216000	0.777500	0.785500
C51	C5	0.224000	0.705700	0.848700
H41	H4	0.223200	0.739200	0.876200
C61	C6	0.194100	0.557600	0.472400
H51	H5	0.180500	0.562800	0.433000
C71	C7	0.183900	0.613200	0.505900
H61	H6	0.162000	0.653200	0.489200
C81	C8	0.206900	0.607500	0.563900
C91	C9	0.237100	0.546000	0.587100
H71	H7	0.252000	0.540400	0.626400
C101	C10	0.244800	0.493100	0.551300
H81	H8	0.266400	0.452600	0.567300
C111	C11	0.138600	0.969600	0.613900
H91	H9	0.133600	0.005100	0.638400
C121	C12	0.161700	0.905900	0.636900
H101	H10	0.172500	0.898700	0.676100
C131	C13	0.168500	0.852400	0.601000
C141	C14	0.154500	0.867300	0.542500
H111	H11	0.160000	0.833100	0.517100
C151	C15	0.132500	0.933900	0.523700
H121	H12	0.124000	0.944400	0.485200
C161	C16	0.209400	0.698800	0.693000
C171	C17	0.202100	0.664700	0.603600
C181	C18	0.186200	0.777800	0.621400
C191	C19	0.002300	0.156200	0.418300
H131	H13	0.010600	0.115700	0.400300
C201	C20	0.980600	0.214800	0.386800
H141	H14	0.975100	0.214400	0.347800
C211	C21	0.966700	0.274300	0.411800
C221	C22	0.972400	0.272800	0.469900
H151	H15	0.961000	0.311500	0.487900
C231	C23	0.995500	0.211700	0.499600
H161	H16	0.999600	0.209900	0.538300
C241	C24	0.920300	0.449700	0.144800
H171	H17	0.922400	0.490900	0.124800
C251	C25	0.923200	0.455800	0.201300
H181	H18	0.925300	0.499800	0.218700
C261	C26	0.922700	0.393200	0.231500
C271	C27	0.920000	0.330300	0.205200
H191	H19	0.921500	0.288300	0.225300
C281	C28	0.914800	0.329200	0.147500
H201	H20	0.911400	0.285500	0.129400
C291	C29	0.898000	0.586600	0.478600
H211	H21	0.910900	0.592800	0.517900
C301	C30	0.916600	0.526600	0.455600
H221	H22	0.941000	0.492700	0.479400
C311	C31	0.898800	0.517000	0.397100
C321	C32	0.861300	0.569200	0.363300
H231	H23	0.847800	0.564600	0.323900
C331	C33	0.844800	0.627700	0.389600
H241	H24	0.820700	0.662700	0.367000
C341	C34	0.945600	0.340100	0.377900
C351	C35	0.925200	0.396000	0.294400
C361	C36	0.916600	0.453900	0.370700
N11	N1	0.230100	0.638600	0.863800
N21	N2	0.222500	0.497200	0.494000
N31	N3	0.123100	0.984000	0.559000
N41	N4	0.198100	0.766800	0.677500
N51	N5	0.211200	0.646200	0.657200
N61	N6	0.187300	0.730000	0.582400
N71	N7	0.012100	0.155200	0.475200
N81	N8	0.914600	0.387300	0.117000
N91	N9	0.862000	0.635900	0.445900
N101	N10	0.935100	0.398200	0.404500
N111	N11	0.939600	0.335000	0.322200
N121	N12	0.912300	0.456500	0.315400
Ag41	Ag4	0.736630	0.095380	0.947110
Ag51	Ag5	0.567880	0.572250	0.522350
Ag61	Ag6	0.334100	0.227470	0.483530
Cl21	Cl2	0.810200	0.173960	0.031400
C371	C37	0.730100	0.089800	0.823400
H251	H25	0.734600	0.042200	0.833600
C381	C38	0.723900	0.107900	0.768200
H261	H26	0.723800	0.073300	0.741300
C391	C39	0.717600	0.179300	0.752800
C401	C40	0.718700	0.229300	0.794100
H271	H27	0.716000	0.277500	0.785500
C411	C41	0.724000	0.205700	0.848700
H281	H28	0.723200	0.239200	0.876200
C421	C42	0.694100	0.057600	0.472400
H291	H29	0.680500	0.062800	0.433000
C431	C43	0.683900	0.113200	0.505900
H301	H30	0.662000	0.153200	0.489200
C441	C44	0.706900	0.107500	0.563900
C451	C45	0.737100	0.046000	0.587100
H311	H31	0.752000	0.040400	0.626400
C461	C46	0.744800	0.993100	0.551300
H321	H32	0.766400	0.952600	0.567300
C471	C47	0.638600	0.469600	0.613900
H331	H33	0.633600	0.505100	0.638400
C481	C48	0.661700	0.405900	0.636900
H341	H34	0.672500	0.398700	0.676100
C491	C49	0.668500	0.352400	0.601000
C501	C50	0.654500	0.367300	0.542500
H351	H35	0.660000	0.333100	0.517100
C511	C51	0.632500	0.433900	0.523700
H361	H36	0.624000	0.444400	0.485200
C521	C52	0.709400	0.198800	0.693000
C531	C53	0.702100	0.164700	0.603600
C541	C54	0.686200	0.277800	0.621400
C551	C55	0.502300	0.656200	0.418300
H371	H37	0.510600	0.615700	0.400300
C561	C56	0.480600	0.714800	0.386800
H381	H38	0.475100	0.714400	0.347800
C571	C57	0.466700	0.774300	0.411800
C581	C58	0.472400	0.772800	0.469900
H391	H39	0.461000	0.811500	0.487900
C591	C59	0.495500	0.711700	0.499600
H401	H40	0.499600	0.709900	0.538300
C601	C60	0.420300	0.949700	0.144800
H411	H41	0.422400	0.990900	0.124800
C611	C61	0.423200	0.955800	0.201300
H421	H42	0.425300	0.999800	0.218700
C621	C62	0.422700	0.893200	0.231500
C631	C63	0.420000	0.830300	0.205200
H431	H43	0.421500	0.788300	0.225300
C641	C64	0.414800	0.829200	0.147500
H441	H44	0.411400	0.785500	0.129400
C651	C65	0.398000	0.086600	0.478600
H451	H45	0.410900	0.092800	0.517900
C661	C66	0.416600	0.026600	0.455600
H461	H46	0.441000	0.992700	0.479400
C671	C67	0.398800	0.017000	0.397100
C681	C68	0.361300	0.069200	0.363300
H471	H47	0.347800	0.064600	0.323900
C691	C69	0.344800	0.127700	0.389600
H481	H48	0.320700	0.162700	0.367000
C701	C70	0.445600	0.840100	0.377900
C711	C71	0.425200	0.896000	0.294400
C721	C72	0.416600	0.953900	0.370700
N131	N13	0.730100	0.138600	0.863800
N141	N14	0.722500	0.997200	0.494000
N151	N15	0.623100	0.484000	0.559000
N161	N16	0.698100	0.266800	0.677500
N171	N17	0.711200	0.146200	0.657200
N181	N18	0.687300	0.230000	0.582400
N191	N19	0.512100	0.655200	0.475200
N201	N20	0.414600	0.887300	0.117000
N211	N21	0.362000	0.135900	0.445900
N221	N22	0.435100	0.898200	0.404500
N231	N23	0.439600	0.835000	0.322200
N241	N24	0.412300	0.956500	0.315400
Ag71	Ag7	0.236630	0.404620	0.447110
Ag81	Ag8	0.067880	0.927750	0.022350
Ag91	Ag9	0.834100	0.272530	0.983530
Cl31	Cl3	0.310200	0.326040	0.531400
C731	C73	0.230100	0.410200	0.323400
H491	H49	0.234600	0.457800	0.333600
C741	C74	0.223900	0.392100	0.268200
H501	H50	0.223800	0.426700	0.241300
C751	C75	0.217600	0.320700	0.252800
C761	C76	0.218700	0.270700	0.294100
H511	H51	0.216000	0.222500	0.285500
C771	C77	0.224000	0.294300	0.348700
H521	H52	0.223200	0.260800	0.376200
C781	C78	0.194100	0.442400	0.972400
H531	H53	0.180500	0.437200	0.933000
C791	C79	0.183900	0.386800	0.005900
H541	H54	0.162000	0.346800	0.989200
C801	C80	0.206900	0.392500	0.063900
C811	C81	0.237100	0.454000	0.087100
H551	H55	0.252000	0.459600	0.126400
C821	C82	0.244800	0.506900	0.051300
H561	H56	0.266400	0.547400	0.067300
C831	C83	0.138600	0.030400	0.113900
H571	H57	0.133600	0.994900	0.138400
C841	C84	0.161700	0.094100	0.136900
H581	H58	0.172500	0.101300	0.176100
C851	C85	0.168500	0.147600	0.101000
C861	C86	0.154500	0.132700	0.042500
H591	H59	0.160000	0.166900	0.017100
C871	C87	0.132500	0.066100	0.023700
H601	H60	0.124000	0.055600	0.985200
C881	C88	0.209400	0.301200	0.193000
C891	C89	0.202100	0.335300	0.103600
C901	C90	0.186200	0.222200	0.121400
C911	C91	0.002300	0.843800	0.918300
H611	H61	0.010600	0.884300	0.900300
C921	C92	0.980600	0.785200	0.886800
H621	H62	0.975100	0.785600	0.847800
C931	C93	0.966700	0.725700	0.911800
C941	C94	0.972400	0.727200	0.969900
H631	H63	0.961000	0.688500	0.987900
C951	C95	0.995500	0.788300	0.999600
H641	H64	0.999600	0.790100	0.038300
C961	C96	0.920300	0.550300	0.644800
H651	H65	0.922400	0.509100	0.624800
C971	C97	0.923200	0.544200	0.701300
H661	H66	0.925300	0.500200	0.718700
C981	C98	0.922700	0.606800	0.731500
C991	C99	0.920000	0.669700	0.705200
H671	H67	0.921500	0.711700	0.725300
C1001	C100	0.914800	0.670800	0.647500
H681	H68	0.911400	0.714500	0.629400
C1011	C101	0.898000	0.413400	0.978600
H691	H69	0.910900	0.407200	0.017900
C1021	C102	0.916600	0.473400	0.955600
H701	H70	0.941000	0.507300	0.979400
C1031	C103	0.898800	0.483000	0.897100
C1041	C104	0.861300	0.430800	0.863300
H711	H71	0.847800	0.435400	0.823900
C1051	C105	0.844800	0.372300	0.889600
H721	H72	0.820700	0.337300	0.867000
C1061	C106	0.945600	0.659900	0.877900
C1071	C107	0.925200	0.604000	0.794400
C1081	C108	0.916600	0.546100	0.870700
N251	N25	0.230100	0.361400	0.363800
N261	N26	0.222500	0.502800	0.994000
N271	N27	0.123100	0.016000	0.059000
N281	N28	0.198100	0.233200	0.177500
N291	N29	0.211200	0.353800	0.157200
N301	N30	0.187300	0.270000	0.082400
N311	N31	0.012100	0.844800	0.975200
N321	N32	0.914600	0.612700	0.617000
N331	N33	0.862000	0.364100	0.945900
N341	N34	0.935100	0.601800	0.904500
N351	N35	0.939600	0.665000	0.822200
N361	N36	0.912300	0.543500	0.815400
Ag101	Ag10	0.736630	0.904620	0.447110
Ag111	Ag11	0.567880	0.427750	0.022350
Ag121	Ag12	0.334100	0.772530	0.983530
Cl41	Cl4	0.810200	0.826040	0.531400
C1091	C109	0.730100	0.910200	0.323400
H731	H73	0.734600	0.957800	0.333600
C1101	C110	0.723900	0.892100	0.268200
H741	H74	0.723800	0.926700	0.241300
C1111	C111	0.717600	0.820700	0.252800
C1121	C112	0.718700	0.770700	0.294100
H751	H75	0.716000	0.722500	0.285500
C1131	C113	0.724000	0.794300	0.348700
H761	H76	0.723200	0.760800	0.376200
C1141	C114	0.694100	0.942400	0.972400
H771	H77	0.680500	0.937200	0.933000
C1151	C115	0.683900	0.886800	0.005900
H781	H78	0.662000	0.846800	0.989200
C1161	C116	0.706900	0.892500	0.063900
C1171	C117	0.737100	0.954000	0.087100
H791	H79	0.752000	0.959600	0.126400
C1181	C118	0.744800	0.006900	0.051300
H801	H80	0.766400	0.047400	0.067300
C1191	C119	0.638600	0.530400	0.113900
H811	H81	0.633600	0.494900	0.138400
C1201	C120	0.661700	0.594100	0.136900
H821	H82	0.672500	0.601300	0.176100
C1211	C121	0.668500	0.647600	0.101000
C1221	C122	0.654500	0.632700	0.042500
H831	H83	0.660000	0.666900	0.017100
C1231	C123	0.632500	0.566100	0.023700
H841	H84	0.624000	0.555600	0.985200
C1241	C124	0.709400	0.801200	0.193000
C1251	C125	0.702100	0.835300	0.103600
C1261	C126	0.686200	0.722200	0.121400
C1271	C127	0.502300	0.343800	0.918300
H851	H85	0.510600	0.384300	0.900300
C1281	C128	0.480600	0.285200	0.886800
H861	H86	0.475100	0.285600	0.847800
C1291	C129	0.466700	0.225700	0.911800
C1301	C130	0.472400	0.227200	0.969900
H871	H87	0.461000	0.188500	0.987900
C1311	C131	0.495500	0.288300	0.999600
H881	H88	0.499600	0.290100	0.038300
C1321	C132	0.420300	0.050300	0.644800
H891	H89	0.422400	0.009100	0.624800
C1331	C133	0.423200	0.044200	0.701300
H901	H90	0.425300	0.000200	0.718700
C1341	C134	0.422700	0.106800	0.731500
C1351	C135	0.420000	0.169700	0.705200
H911	H91	0.421500	0.211700	0.725300
C1361	C136	0.414800	0.170800	0.647500
H921	H92	0.411400	0.214500	0.629400
C1371	C137	0.398000	0.913400	0.978600
H931	H93	0.410900	0.907200	0.017900
C1381	C138	0.416600	0.973400	0.955600
H941	H94	0.441000	0.007300	0.979400
C1391	C139	0.398800	0.983000	0.897100
C1401	C140	0.361300	0.930800	0.863300
H951	H95	0.347800	0.935400	0.823900
C1411	C141	0.344800	0.872300	0.889600
H961	H96	0.320700	0.837300	0.867000
C1421	C142	0.445600	0.159900	0.877900
C1431	C143	0.425200	0.104000	0.794400
C1441	C144	0.416600	0.046100	0.870700
N371	N37	0.730100	0.861400	0.363800
N381	N38	0.722500	0.002800	0.994000
N391	N39	0.623100	0.516000	0.059000
N401	N40	0.698100	0.733200	0.177500
N411	N41	0.711200	0.853800	0.157200
N421	N42	0.687300	0.770000	0.082400
N431	N43	0.512100	0.344800	0.975200
N441	N44	0.414600	0.112700	0.617000
N451	N45	0.362000	0.864100	0.945900
N461	N46	0.435100	0.101800	0.904500
N471	N47	0.439600	0.165000	0.822200
N481	N48	0.412300	0.043500	0.815400
Ag131	Ag13	0.763370	0.595380	0.552890
Ag141	Ag14	0.932120	0.072250	0.977650
Ag151	Ag15	0.165900	0.727470	0.016470
Cl51	Cl5	0.689800	0.673960	0.468600
C1451	C145	0.769900	0.589800	0.676600
H971	H97	0.765400	0.542200	0.666400
C1461	C146	0.776100	0.607900	0.731800
H981	H98	0.776200	0.573300	0.758700
C1471	C147	0.782400	0.679300	0.747200
C1481	C148	0.781300	0.729300	0.705900
H991	H99	0.784000	0.777500	0.714500
C1491	C149	0.776000	0.705700	0.651300
H1001	H100	0.776800	0.739200	0.623800
C1501	C150	0.805900	0.557600	0.027600
H1011	H101	0.819500	0.562800	0.067000
C1511	C151	0.816100	0.613200	0.994100
H1021	H102	0.838000	0.653200	0.010800
C1521	C152	0.793100	0.607500	0.936100
C1531	C153	0.762900	0.546000	0.912900
H1031	H103	0.748000	0.540400	0.873600
C1541	C154	0.755200	0.493100	0.948700
H1041	H104	0.733600	0.452600	0.932700
C1551	C155	0.861400	0.969600	0.886100
H1051	H105	0.866400	0.005100	0.861600
C1561	C156	0.838300	0.905900	0.863100
H1061	H106	0.827500	0.898700	0.823900
C1571	C157	0.831500	0.852400	0.899000
C1581	C158	0.845500	0.867300	0.957500
H1071	H107	0.840000	0.833100	0.982900
C1591	C159	0.867500	0.933900	0.976300
H1081	H108	0.876000	0.944400	0.014800
C1601	C160	0.790600	0.698800	0.807000
C1611	C161	0.797900	0.664700	0.896400
C1621	C162	0.813800	0.777800	0.878600
C1631	C163	0.997700	0.156200	0.081700
H1091	H109	0.989400	0.115700	0.099700
C1641	C164	0.019400	0.214800	0.113200
H1101	H110	0.024900	0.214400	0.152200
C1651	C165	0.033300	0.274300	0.088200
C1661	C166	0.027600	0.272800	0.030100
H1111	H111	0.039000	0.311500	0.012100
C1671	C167	0.004500	0.211700	0.000400
H1121	H112	0.000400	0.209900	0.961700
C1681	C168	0.079700	0.449700	0.355200
H1131	H113	0.077600	0.490900	0.375200
C1691	C169	0.076800	0.455800	0.298700
H1141	H114	0.074700	0.499800	0.281300
C1701	C170	0.077300	0.393200	0.268500
C1711	C171	0.080000	0.330300	0.294800
H1151	H115	0.078500	0.288300	0.274700
C1721	C172	0.085200	0.329200	0.352500
H1161	H116	0.088600	0.285500	0.370600
C1731	C173	0.102000	0.586600	0.021400
H1171	H117	0.089100	0.592800	0.982100
C1741	C174	0.083400	0.526600	0.044400
H1181	H118	0.059000	0.492700	0.020600
C1751	C175	0.101200	0.517000	0.102900
C1761	C176	0.138700	0.569200	0.136700
H1191	H119	0.152200	0.564600	0.176100
C1771	C177	0.155200	0.627700	0.110400
H1201	H120	0.179300	0.662700	0.133000
C1781	C178	0.054400	0.340100	0.122100
C1791	C179	0.074800	0.396000	0.205600
C1801	C180	0.083400	0.453900	0.129300
N491	N49	0.769900	0.638600	0.636200
N501	N50	0.777500	0.497200	0.006000
N511	N51	0.876900	0.984000	0.941000
N521	N52	0.801900	0.766800	0.822500
N531	N53	0.788800	0.646200	0.842800
N541	N54	0.812700	0.730000	0.917600
N551	N55	0.987900	0.155200	0.024800
N561	N56	0.085400	0.387300	0.383000
N571	N57	0.138000	0.635900	0.054100
N581	N58	0.064900	0.398200	0.095500
N591	N59	0.060400	0.335000	0.177800
N601	N60	0.087700	0.456500	0.184600
Ag161	Ag16	0.263370	0.095380	0.552890
Ag171	Ag17	0.432120	0.572250	0.977650
Ag181	Ag18	0.665900	0.227470	0.016470
Cl61	Cl6	0.189800	0.173960	0.468600
C1811	C181	0.269900	0.089800	0.676600
H1211	H121	0.265400	0.042200	0.666400
C1821	C182	0.276100	0.107900	0.731800
H1221	H122	0.276200	0.073300	0.758700
C1831	C183	0.282400	0.179300	0.747200
C1841	C184	0.281300	0.229300	0.705900
H1231	H123	0.284000	0.277500	0.714500
C1851	C185	0.276000	0.205700	0.651300
H1241	H124	0.276800	0.239200	0.623800
C1861	C186	0.305900	0.057600	0.027600
H1251	H125	0.319500	0.062800	0.067000
C1871	C187	0.316100	0.113200	0.994100
H1261	H126	0.338000	0.153200	0.010800
C1881	C188	0.293100	0.107500	0.936100
C1891	C189	0.262900	0.046000	0.912900
H1271	H127	0.248000	0.040400	0.873600
C1901	C190	0.255200	0.993100	0.948700
H1281	H128	0.233600	0.952600	0.932700
C1911	C191	0.361400	0.469600	0.886100
H1291	H129	0.366400	0.505100	0.861600
C1921	C192	0.338300	0.405900	0.863100
H1301	H130	0.327500	0.398700	0.823900
C1931	C193	0.331500	0.352400	0.899000
C1941	C194	0.345500	0.367300	0.957500
H1311	H131	0.340000	0.333100	0.982900
C1951	C195	0.367500	0.433900	0.976300
H1321	H132	0.376000	0.444400	0.014800
C1961	C196	0.290600	0.198800	0.807000
C1971	C197	0.297900	0.164700	0.896400
C1981	C198	0.313800	0.277800	0.878600
C1991	C199	0.497700	0.656200	0.081700
H1331	H133	0.489400	0.615700	0.099700
C2001	C200	0.519400	0.714800	0.113200
H1341	H134	0.524900	0.714400	0.152200
C2011	C201	0.533300	0.774300	0.088200
C2021	C202	0.527600	0.772800	0.030100
H1351	H135	0.539000	0.811500	0.012100
C2031	C203	0.504500	0.711700	0.000400
H1361	H136	0.500400	0.709900	0.961700
C2041	C204	0.579700	0.949700	0.355200
H1371	H137	0.577600	0.990900	0.375200
C2051	C205	0.576800	0.955800	0.298700
H1381	H138	0.574700	0.999800	0.281300
C2061	C206	0.577300	0.893200	0.268500
C2071	C207	0.580000	0.830300	0.294800
H1391	H139	0.578500	0.788300	0.274700
C2081	C208	0.585200	0.829200	0.352500
H1401	H140	0.588600	0.785500	0.370600
C2091	C209	0.602000	0.086600	0.021400
H1411	H141	0.589100	0.092800	0.982100
C2101	C210	0.583400	0.026600	0.044400
H1421	H142	0.559000	0.992700	0.020600
C2111	C211	0.601200	0.017000	0.102900
C2121	C212	0.638700	0.069200	0.136700
H1431	H143	0.652200	0.064600	0.176100
C2131	C213	0.655200	0.127700	0.110400
H1441	H144	0.679300	0.162700	0.133000
C2141	C214	0.554400	0.840100	0.122100
C2151	C215	0.574800	0.896000	0.205600
C2161	C216	0.583400	0.953900	0.129300
N611	N61	0.269900	0.138600	0.636200
N621	N62	0.277500	0.997200	0.006000
N631	N63	0.376900	0.484000	0.941000
N641	N64	0.301900	0.266800	0.822500
N651	N65	0.288800	0.146200	0.842800
N661	N66	0.312700	0.230000	0.917600
N671	N67	0.487900	0.655200	0.024800
N681	N68	0.585400	0.887300	0.383000
N691	N69	0.638000	0.135900	0.054100
N701	N70	0.564900	0.898200	0.095500
N711	N71	0.560400	0.835000	0.177800
N721	N72	0.587700	0.956500	0.184600
Ag191	Ag19	0.763370	0.404620	0.052890
Ag201	Ag20	0.932120	0.927750	0.477650
Ag211	Ag21	0.165900	0.272530	0.516470
Cl71	Cl7	0.689800	0.326040	0.968600
C2171	C217	0.769900	0.410200	0.176600
H1451	H145	0.765400	0.457800	0.166400
C2181	C218	0.776100	0.392100	0.231800
H1461	H146	0.776200	0.426700	0.258700
C2191	C219	0.782400	0.320700	0.247200
C2201	C220	0.781300	0.270700	0.205900
H1471	H147	0.784000	0.222500	0.214500
C2211	C221	0.776000	0.294300	0.151300
H1481	H148	0.776800	0.260800	0.123800
C2221	C222	0.805900	0.442400	0.527600
H1491	H149	0.819500	0.437200	0.567000
C2231	C223	0.816100	0.386800	0.494100
H1501	H150	0.838000	0.346800	0.510800
C2241	C224	0.793100	0.392500	0.436100
C2251	C225	0.762900	0.454000	0.412900
H1511	H151	0.748000	0.459600	0.373600
C2261	C226	0.755200	0.506900	0.448700
H1521	H152	0.733600	0.547400	0.432700
C2271	C227	0.861400	0.030400	0.386100
H1531	H153	0.866400	0.994900	0.361600
C2281	C228	0.838300	0.094100	0.363100
H1541	H154	0.827500	0.101300	0.323900
C2291	C229	0.831500	0.147600	0.399000
C2301	C230	0.845500	0.132700	0.457500
H1551	H155	0.840000	0.166900	0.482900
C2311	C231	0.867500	0.066100	0.476300
H1561	H156	0.876000	0.055600	0.514800
C2321	C232	0.790600	0.301200	0.307000
C2331	C233	0.797900	0.335300	0.396400
C2341	C234	0.813800	0.222200	0.378600
C2351	C235	0.997700	0.843800	0.581700
H1571	H157	0.989400	0.884300	0.599700
C2361	C236	0.019400	0.785200	0.613200
H1581	H158	0.024900	0.785600	0.652200
C2371	C237	0.033300	0.725700	0.588200
C2381	C238	0.027600	0.727200	0.530100
H1591	H159	0.039000	0.688500	0.512100
C2391	C239	0.004500	0.788300	0.500400
H1601	H160	0.000400	0.790100	0.461700
C2401	C240	0.079700	0.550300	0.855200
H1611	H161	0.077600	0.509100	0.875200
C2411	C241	0.076800	0.544200	0.798700
H1621	H162	0.074700	0.500200	0.781300
C2421	C242	0.077300	0.606800	0.768500
C2431	C243	0.080000	0.669700	0.794800
H1631	H163	0.078500	0.711700	0.774700
C2441	C244	0.085200	0.670800	0.852500
H1641	H164	0.088600	0.714500	0.870600
C2451	C245	0.102000	0.413400	0.521400
H1651	H165	0.089100	0.407200	0.482100
C2461	C246	0.083400	0.473400	0.544400
H1661	H166	0.059000	0.507300	0.520600
C2471	C247	0.101200	0.483000	0.602900
C2481	C248	0.138700	0.430800	0.636700
H1671	H167	0.152200	0.435400	0.676100
C2491	C249	0.155200	0.372300	0.610400
H1681	H168	0.179300	0.337300	0.633000
C2501	C250	0.054400	0.659900	0.622100
C2511	C251	0.074800	0.604000	0.705600
C2521	C252	0.083400	0.546100	0.629300
N731	N73	0.769900	0.361400	0.136200
N741	N74	0.777500	0.502800	0.506000
N751	N75	0.876900	0.016000	0.441000
N761	N76	0.801900	0.233200	0.322500
N771	N77	0.788800	0.353800	0.342800
N781	N78	0.812700	0.270000	0.417600
N791	N79	0.987900	0.844800	0.524800
N801	N80	0.085400	0.612700	0.883000
N811	N81	0.138000	0.364100	0.554100
N821	N82	0.064900	0.601800	0.595500
N831	N83	0.060400	0.665000	0.677800
N841	N84	0.087700	0.543500	0.684600
Ag221	Ag22	0.263370	0.904620	0.052890
Ag231	Ag23	0.432120	0.427750	0.477650
Ag241	Ag24	0.665900	0.772530	0.516470
Cl81	Cl8	0.189800	0.826040	0.968600
C2531	C253	0.269900	0.910200	0.176600
H1691	H169	0.265400	0.957800	0.166400
C2541	C254	0.276100	0.892100	0.231800
H1701	H170	0.276200	0.926700	0.258700
C2551	C255	0.282400	0.820700	0.247200
C2561	C256	0.281300	0.770700	0.205900
H1711	H171	0.284000	0.722500	0.214500
C2571	C257	0.276000	0.794300	0.151300
H1721	H172	0.276800	0.760800	0.123800
C2581	C258	0.305900	0.942400	0.527600
H1731	H173	0.319500	0.937200	0.567000
C2591	C259	0.316100	0.886800	0.494100
H1741	H174	0.338000	0.846800	0.510800
C2601	C260	0.293100	0.892500	0.436100
C2611	C261	0.262900	0.954000	0.412900
H1751	H175	0.248000	0.959600	0.373600
C2621	C262	0.255200	0.006900	0.448700
H1761	H176	0.233600	0.047400	0.432700
C2631	C263	0.361400	0.530400	0.386100
H1771	H177	0.366400	0.494900	0.361600
C2641	C264	0.338300	0.594100	0.363100
H1781	H178	0.327500	0.601300	0.323900
C2651	C265	0.331500	0.647600	0.399000
C2661	C266	0.345500	0.632700	0.457500
H1791	H179	0.340000	0.666900	0.482900
C2671	C267	0.367500	0.566100	0.476300
H1801	H180	0.376000	0.555600	0.514800
C2681	C268	0.290600	0.801200	0.307000
C2691	C269	0.297900	0.835300	0.396400
C2701	C270	0.313800	0.722200	0.378600
C2711	C271	0.497700	0.343800	0.581700
H1811	H181	0.489400	0.384300	0.599700
C2721	C272	0.519400	0.285200	0.613200
H1821	H182	0.524900	0.285600	0.652200
C2731	C273	0.533300	0.225700	0.588200
C2741	C274	0.527600	0.227200	0.530100
H1831	H183	0.539000	0.188500	0.512100
C2751	C275	0.504500	0.288300	0.500400
H1841	H184	0.500400	0.290100	0.461700
C2761	C276	0.579700	0.050300	0.855200
H1851	H185	0.577600	0.009100	0.875200
C2771	C277	0.576800	0.044200	0.798700
H1861	H186	0.574700	0.000200	0.781300
C2781	C278	0.577300	0.106800	0.768500
C2791	C279	0.580000	0.169700	0.794800
H1871	H187	0.578500	0.211700	0.774700
C2801	C280	0.585200	0.170800	0.852500
H1881	H188	0.588600	0.214500	0.870600
C2811	C281	0.602000	0.913400	0.521400
H1891	H189	0.589100	0.907200	0.482100
C2821	C282	0.583400	0.973400	0.544400
H1901	H190	0.559000	0.007300	0.520600
C2831	C283	0.601200	0.983000	0.602900
C2841	C284	0.638700	0.930800	0.636700
H1911	H191	0.652200	0.935400	0.676100
C2851	C285	0.655200	0.872300	0.610400
H1921	H192	0.679300	0.837300	0.633000
C2861	C286	0.554400	0.159900	0.622100
C2871	C287	0.574800	0.104000	0.705600
C2881	C288	0.583400	0.046100	0.629300
N851	N85	0.269900	0.861400	0.136200
N861	N86	0.277500	0.002800	0.506000
N871	N87	0.376900	0.516000	0.441000
N881	N88	0.301900	0.733200	0.322500
N891	N89	0.288800	0.853800	0.342800
N901	N90	0.312700	0.770000	0.417600
N911	N91	0.487900	0.344800	0.524800
N921	N92	0.585400	0.112700	0.883000
N931	N93	0.638000	0.864100	0.554100
N941	N94	0.564900	0.101800	0.595500
N951	N95	0.560400	0.165000	0.677800
N961	N96	0.587700	0.043500	0.684600
