data_DOJXOQ_clean_PM
_symmetry_space_group_name_H-M	'P1'
_cell_length_a	9.505100
_cell_length_b	14.624300
_cell_length_c	13.560300
_cell_angle_alpha	90.000000
_cell_angle_beta	90.000000
_cell_angle_gamma	90.000000
_symmetry_Int_Tables_number 1

loop_
_symmetry_equiv_pos_as_xyz
'x,y,z'

loop_
_atom_site_label
_atom_site_type_symbol
_atom_site_fract_x
_atom_site_fract_y
_atom_site_fract_z
O11	O1	0.081900	0.110960	0.550620
O21	O2	0.907690	0.118300	0.443810
C11	C1	0.031200	0.289490	0.617190
O31	O3	0.204560	0.391170	0.749820
C21	C2	0.006600	0.379830	0.643500
C31	C3	0.087900	0.424150	0.725300
C41	C4	0.907600	0.430110	0.591400
C51	C5	0.984000	0.151920	0.509850
C61	C6	0.956600	0.249090	0.540510
C71	C7	0.857200	0.300330	0.490190
C81	C8	0.834600	0.390420	0.514600
O41	O4	0.035770	0.493610	0.768410
H11	H1	0.096000	0.254900	0.649600
H21	H2	0.804000	0.274900	0.442000
H31	H3	0.881000	0.488000	0.617000
H41	H4	0.769000	0.422000	0.478000
O51	O5	0.418100	0.889040	0.550620
O61	O6	0.592310	0.881700	0.443810
C91	C9	0.468800	0.710510	0.617190
O71	O7	0.295440	0.608830	0.749820
C101	C10	0.493400	0.620170	0.643500
C111	C11	0.412100	0.575850	0.725300
C121	C12	0.592400	0.569890	0.591400
C131	C13	0.516000	0.848080	0.509850
C141	C14	0.543400	0.750910	0.540510
C151	C15	0.642800	0.699670	0.490190
C161	C16	0.665400	0.609580	0.514600
O81	O8	0.464230	0.506390	0.768410
H51	H5	0.404000	0.745100	0.649600
H61	H6	0.696000	0.725100	0.442000
H71	H7	0.619000	0.512000	0.617000
H81	H8	0.731000	0.578000	0.478000
O91	O9	0.418100	0.610960	0.949380
O101	O10	0.592310	0.618300	0.056190
C171	C17	0.468800	0.789490	0.882810
O111	O11	0.295440	0.891170	0.750180
C181	C18	0.493400	0.879830	0.856500
C191	C19	0.412100	0.924150	0.774700
C201	C20	0.592400	0.930110	0.908600
C211	C21	0.516000	0.651920	0.990150
C221	C22	0.543400	0.749090	0.959490
C231	C23	0.642800	0.800330	0.009810
C241	C24	0.665400	0.890420	0.985400
O121	O12	0.464230	0.993610	0.731590
H91	H9	0.404000	0.754900	0.850400
H101	H10	0.696000	0.774900	0.058000
H111	H11	0.619000	0.988000	0.883000
H121	H12	0.731000	0.922000	0.022000
O131	O13	0.081900	0.389040	0.949380
O141	O14	0.907690	0.381700	0.056190
C251	C25	0.031200	0.210510	0.882810
O151	O15	0.204560	0.108830	0.750180
C261	C26	0.006600	0.120170	0.856500
C271	C27	0.087900	0.075850	0.774700
C281	C28	0.907600	0.069890	0.908600
C291	C29	0.984000	0.348080	0.990150
C301	C30	0.956600	0.250910	0.959490
C311	C31	0.857200	0.199670	0.009810
C321	C32	0.834600	0.109580	0.985400
O161	O16	0.035770	0.006390	0.731590
H131	H13	0.096000	0.245100	0.850400
H141	H14	0.804000	0.225100	0.058000
H151	H15	0.881000	0.012000	0.883000
H161	H16	0.769000	0.078000	0.022000
O171	O17	0.918100	0.889040	0.449380
O181	O18	0.092310	0.881700	0.556190
C331	C33	0.968800	0.710510	0.382810
O191	O19	0.795440	0.608830	0.250180
C341	C34	0.993400	0.620170	0.356500
C351	C35	0.912100	0.575850	0.274700
C361	C36	0.092400	0.569890	0.408600
C371	C37	0.016000	0.848080	0.490150
C381	C38	0.043400	0.750910	0.459490
C391	C39	0.142800	0.699670	0.509810
C401	C40	0.165400	0.609580	0.485400
O201	O20	0.964230	0.506390	0.231590
H171	H17	0.904000	0.745100	0.350400
H181	H18	0.196000	0.725100	0.558000
H191	H19	0.119000	0.512000	0.383000
H201	H20	0.231000	0.578000	0.522000
O211	O21	0.581900	0.110960	0.449380
O221	O22	0.407690	0.118300	0.556190
C411	C41	0.531200	0.289490	0.382810
O231	O23	0.704560	0.391170	0.250180
C421	C42	0.506600	0.379830	0.356500
C431	C43	0.587900	0.424150	0.274700
C441	C44	0.407600	0.430110	0.408600
C451	C45	0.484000	0.151920	0.490150
C461	C46	0.456600	0.249090	0.459490
C471	C47	0.357200	0.300330	0.509810
C481	C48	0.334600	0.390420	0.485400
O241	O24	0.535770	0.493610	0.231590
H211	H21	0.596000	0.254900	0.350400
H221	H22	0.304000	0.274900	0.558000
H231	H23	0.381000	0.488000	0.383000
H241	H24	0.269000	0.422000	0.522000
O251	O25	0.581900	0.389040	0.050620
O261	O26	0.407690	0.381700	0.943810
C491	C49	0.531200	0.210510	0.117190
O271	O27	0.704560	0.108830	0.249820
C501	C50	0.506600	0.120170	0.143500
C511	C51	0.587900	0.075850	0.225300
C521	C52	0.407600	0.069890	0.091400
C531	C53	0.484000	0.348080	0.009850
C541	C54	0.456600	0.250910	0.040510
C551	C55	0.357200	0.199670	0.990190
C561	C56	0.334600	0.109580	0.014600
O281	O28	0.535770	0.006390	0.268410
H251	H25	0.596000	0.245100	0.149600
H261	H26	0.304000	0.225100	0.942000
H271	H27	0.381000	0.012000	0.117000
H281	H28	0.269000	0.078000	0.978000
O291	O29	0.918100	0.610960	0.050620
O301	O30	0.092310	0.618300	0.943810
C571	C57	0.968800	0.789490	0.117190
O311	O31	0.795440	0.891170	0.249820
C581	C58	0.993400	0.879830	0.143500
C591	C59	0.912100	0.924150	0.225300
C601	C60	0.092400	0.930110	0.091400
C611	C61	0.016000	0.651920	0.009850
C621	C62	0.043400	0.749090	0.040510
C631	C63	0.142800	0.800330	0.990190
C641	C64	0.165400	0.890420	0.014600
O321	O32	0.964230	0.993610	0.268410
H291	H29	0.904000	0.754900	0.149600
H301	H30	0.196000	0.774900	0.942000
H311	H31	0.119000	0.988000	0.117000
H321	H32	0.231000	0.922000	0.978000
Pr11	Pr1	0.250000	0.000000	0.604660
Pr21	Pr2	0.250000	0.500000	0.895340
Pr31	Pr3	0.750000	0.000000	0.395340
Pr41	Pr4	0.750000	0.500000	0.104660
