data_DOJXIK_clean_PM
_symmetry_space_group_name_H-M	'P1'
_cell_length_a	9.527700
_cell_length_b	14.692000
_cell_length_c	13.677200
_cell_angle_alpha	90.000000
_cell_angle_beta	90.000000
_cell_angle_gamma	90.000000
_symmetry_Int_Tables_number 1

loop_
_symmetry_equiv_pos_as_xyz
'x,y,z'

loop_
_atom_site_label
_atom_site_type_symbol
_atom_site_fract_x
_atom_site_fract_y
_atom_site_fract_z
H11	H1	0.767000	0.423000	0.971000
H21	H2	0.887000	0.486100	0.111000
H31	H3	0.804000	0.276000	0.940700
H41	H4	0.093500	0.256800	0.153500
O11	O1	0.077780	0.111860	0.051970
O21	O2	0.909470	0.120450	0.942830
O31	O3	0.035290	0.493980	0.265590
O41	O4	0.201950	0.390330	0.247990
C11	C1	0.029200	0.290350	0.116630
C21	C2	0.005400	0.380180	0.142480
C31	C3	0.982900	0.153330	0.009990
C41	C4	0.834000	0.391000	0.014300
C51	C5	0.955100	0.250150	0.040210
C61	C6	0.906700	0.430430	0.090500
C71	C7	0.857000	0.301000	0.990360
C81	C8	0.086500	0.423960	0.223500
H51	H5	0.733000	0.577000	0.971000
H61	H6	0.613000	0.513900	0.111000
H71	H7	0.696000	0.724000	0.940700
H81	H8	0.406500	0.743200	0.153500
O51	O5	0.422220	0.888140	0.051970
O61	O6	0.590530	0.879550	0.942830
O71	O7	0.464710	0.506020	0.265590
O81	O8	0.298050	0.609670	0.247990
C91	C9	0.470800	0.709650	0.116630
C101	C10	0.494600	0.619820	0.142480
C111	C11	0.517100	0.846670	0.009990
C121	C12	0.666000	0.609000	0.014300
C131	C13	0.544900	0.749850	0.040210
C141	C14	0.593300	0.569570	0.090500
C151	C15	0.643000	0.699000	0.990360
C161	C16	0.413500	0.576040	0.223500
H91	H9	0.733000	0.923000	0.529000
H101	H10	0.613000	0.986100	0.389000
H111	H11	0.696000	0.776000	0.559300
H121	H12	0.406500	0.756800	0.346500
O91	O9	0.422220	0.611860	0.448030
O101	O10	0.590530	0.620450	0.557170
O111	O11	0.464710	0.993980	0.234410
O121	O12	0.298050	0.890330	0.252010
C171	C17	0.470800	0.790350	0.383370
C181	C18	0.494600	0.880180	0.357520
C191	C19	0.517100	0.653330	0.490010
C201	C20	0.666000	0.891000	0.485700
C211	C21	0.544900	0.750150	0.459790
C221	C22	0.593300	0.930430	0.409500
C231	C23	0.643000	0.801000	0.509640
C241	C24	0.413500	0.923960	0.276500
H131	H13	0.767000	0.077000	0.529000
H141	H14	0.887000	0.013900	0.389000
H151	H15	0.804000	0.224000	0.559300
H161	H16	0.093500	0.243200	0.346500
O131	O13	0.077780	0.388140	0.448030
O141	O14	0.909470	0.379550	0.557170
O151	O15	0.035290	0.006020	0.234410
O161	O16	0.201950	0.109670	0.252010
C251	C25	0.029200	0.209650	0.383370
C261	C26	0.005400	0.119820	0.357520
C271	C27	0.982900	0.346670	0.490010
C281	C28	0.834000	0.109000	0.485700
C291	C29	0.955100	0.249850	0.459790
C301	C30	0.906700	0.069570	0.409500
C311	C31	0.857000	0.199000	0.509640
C321	C32	0.086500	0.076040	0.276500
H171	H17	0.233000	0.577000	0.029000
H181	H18	0.113000	0.513900	0.889000
H191	H19	0.196000	0.724000	0.059300
H201	H20	0.906500	0.743200	0.846500
O171	O17	0.922220	0.888140	0.948030
O181	O18	0.090530	0.879550	0.057170
O191	O19	0.964710	0.506020	0.734410
O201	O20	0.798050	0.609670	0.752010
C331	C33	0.970800	0.709650	0.883370
C341	C34	0.994600	0.619820	0.857520
C351	C35	0.017100	0.846670	0.990010
C361	C36	0.166000	0.609000	0.985700
C371	C37	0.044900	0.749850	0.959790
C381	C38	0.093300	0.569570	0.909500
C391	C39	0.143000	0.699000	0.009640
C401	C40	0.913500	0.576040	0.776500
H211	H21	0.267000	0.423000	0.029000
H221	H22	0.387000	0.486100	0.889000
H231	H23	0.304000	0.276000	0.059300
H241	H24	0.593500	0.256800	0.846500
O211	O21	0.577780	0.111860	0.948030
O221	O22	0.409470	0.120450	0.057170
O231	O23	0.535290	0.493980	0.734410
O241	O24	0.701950	0.390330	0.752010
C411	C41	0.529200	0.290350	0.883370
C421	C42	0.505400	0.380180	0.857520
C431	C43	0.482900	0.153330	0.990010
C441	C44	0.334000	0.391000	0.985700
C451	C45	0.455100	0.250150	0.959790
C461	C46	0.406700	0.430430	0.909500
C471	C47	0.357000	0.301000	0.009640
C481	C48	0.586500	0.423960	0.776500
H251	H25	0.267000	0.077000	0.471000
H261	H26	0.387000	0.013900	0.611000
H271	H27	0.304000	0.224000	0.440700
H281	H28	0.593500	0.243200	0.653500
O251	O25	0.577780	0.388140	0.551970
O261	O26	0.409470	0.379550	0.442830
O271	O27	0.535290	0.006020	0.765590
O281	O28	0.701950	0.109670	0.747990
C491	C49	0.529200	0.209650	0.616630
C501	C50	0.505400	0.119820	0.642480
C511	C51	0.482900	0.346670	0.509990
C521	C52	0.334000	0.109000	0.514300
C531	C53	0.455100	0.249850	0.540210
C541	C54	0.406700	0.069570	0.590500
C551	C55	0.357000	0.199000	0.490360
C561	C56	0.586500	0.076040	0.723500
H291	H29	0.233000	0.923000	0.471000
H301	H30	0.113000	0.986100	0.611000
H311	H31	0.196000	0.776000	0.440700
H321	H32	0.906500	0.756800	0.653500
O291	O29	0.922220	0.611860	0.551970
O301	O30	0.090530	0.620450	0.442830
O311	O31	0.964710	0.993980	0.765590
O321	O32	0.798050	0.890330	0.747990
C571	C57	0.970800	0.790350	0.616630
C581	C58	0.994600	0.880180	0.642480
C591	C59	0.017100	0.653330	0.509990
C601	C60	0.166000	0.891000	0.514300
C611	C61	0.044900	0.750150	0.540210
C621	C62	0.093300	0.930430	0.590500
C631	C63	0.143000	0.801000	0.490360
C641	C64	0.913500	0.923960	0.723500
La11	La1	0.250000	0.000000	0.105810
La21	La2	0.250000	0.500000	0.394190
La31	La3	0.750000	0.000000	0.894190
La41	La4	0.750000	0.500000	0.605810
