data_DOJYAD_clean_PM
_symmetry_space_group_name_H-M	'P1'
_cell_length_a	9.430000
_cell_length_b	14.480000
_cell_length_c	13.306000
_cell_angle_alpha	90.000000
_cell_angle_beta	90.000000
_cell_angle_gamma	90.000000
_symmetry_Int_Tables_number 1

loop_
_symmetry_equiv_pos_as_xyz
'x,y,z'

loop_
_atom_site_label
_atom_site_type_symbol
_atom_site_fract_x
_atom_site_fract_y
_atom_site_fract_z
O11	O1	0.209800	0.393210	0.245210
O21	O2	0.036100	0.492900	0.225460
O31	O3	0.089500	0.108970	0.452310
O41	O4	0.904000	0.113480	0.553160
C11	C1	0.090900	0.424420	0.270580
C21	C2	0.010300	0.379310	0.354190
C31	C3	0.910500	0.430600	0.407100
C41	C4	0.834800	0.389100	0.484600
C51	C5	0.858300	0.298500	0.509000
C61	C6	0.958500	0.246520	0.458760
C71	C7	0.034700	0.288590	0.381190
C81	C8	0.986300	0.148300	0.489710
H11	H1	0.093000	0.257200	0.348500
H21	H2	0.869000	0.484000	0.377000
H31	H3	0.814000	0.272000	0.560000
H41	H4	0.768000	0.417000	0.516000
O51	O5	0.290200	0.606790	0.245210
O61	O6	0.463900	0.507100	0.225460
O71	O7	0.410500	0.891030	0.452310
O81	O8	0.596000	0.886520	0.553160
C91	C9	0.409100	0.575580	0.270580
C101	C10	0.489700	0.620690	0.354190
C111	C11	0.589500	0.569400	0.407100
C121	C12	0.665200	0.610900	0.484600
C131	C13	0.641700	0.701500	0.509000
C141	C14	0.541500	0.753480	0.458760
C151	C15	0.465300	0.711410	0.381190
C161	C16	0.513700	0.851700	0.489710
H51	H5	0.407000	0.742800	0.348500
H61	H6	0.631000	0.516000	0.377000
H71	H7	0.686000	0.728000	0.560000
H81	H8	0.732000	0.583000	0.516000
O91	O9	0.290200	0.893210	0.254790
O101	O10	0.463900	0.992900	0.274540
O111	O11	0.410500	0.608970	0.047690
O121	O12	0.596000	0.613480	0.946840
C171	C17	0.409100	0.924420	0.229420
C181	C18	0.489700	0.879310	0.145810
C191	C19	0.589500	0.930600	0.092900
C201	C20	0.665200	0.889100	0.015400
C211	C21	0.641700	0.798500	0.991000
C221	C22	0.541500	0.746520	0.041240
C231	C23	0.465300	0.788590	0.118810
C241	C24	0.513700	0.648300	0.010290
H91	H9	0.407000	0.757200	0.151500
H101	H10	0.631000	0.984000	0.123000
H111	H11	0.686000	0.772000	0.940000
H121	H12	0.732000	0.917000	0.984000
O131	O13	0.209800	0.106790	0.254790
O141	O14	0.036100	0.007100	0.274540
O151	O15	0.089500	0.391030	0.047690
O161	O16	0.904000	0.386520	0.946840
C251	C25	0.090900	0.075580	0.229420
C261	C26	0.010300	0.120690	0.145810
C271	C27	0.910500	0.069400	0.092900
C281	C28	0.834800	0.110900	0.015400
C291	C29	0.858300	0.201500	0.991000
C301	C30	0.958500	0.253480	0.041240
C311	C31	0.034700	0.211410	0.118810
C321	C32	0.986300	0.351700	0.010290
H131	H13	0.093000	0.242800	0.151500
H141	H14	0.869000	0.016000	0.123000
H151	H15	0.814000	0.228000	0.940000
H161	H16	0.768000	0.083000	0.984000
O171	O17	0.790200	0.606790	0.754790
O181	O18	0.963900	0.507100	0.774540
O191	O19	0.910500	0.891030	0.547690
O201	O20	0.096000	0.886520	0.446840
C331	C33	0.909100	0.575580	0.729420
C341	C34	0.989700	0.620690	0.645810
C351	C35	0.089500	0.569400	0.592900
C361	C36	0.165200	0.610900	0.515400
C371	C37	0.141700	0.701500	0.491000
C381	C38	0.041500	0.753480	0.541240
C391	C39	0.965300	0.711410	0.618810
C401	C40	0.013700	0.851700	0.510290
H171	H17	0.907000	0.742800	0.651500
H181	H18	0.131000	0.516000	0.623000
H191	H19	0.186000	0.728000	0.440000
H201	H20	0.232000	0.583000	0.484000
O211	O21	0.709800	0.393210	0.754790
O221	O22	0.536100	0.492900	0.774540
O231	O23	0.589500	0.108970	0.547690
O241	O24	0.404000	0.113480	0.446840
C411	C41	0.590900	0.424420	0.729420
C421	C42	0.510300	0.379310	0.645810
C431	C43	0.410500	0.430600	0.592900
C441	C44	0.334800	0.389100	0.515400
C451	C45	0.358300	0.298500	0.491000
C461	C46	0.458500	0.246520	0.541240
C471	C47	0.534700	0.288590	0.618810
C481	C48	0.486300	0.148300	0.510290
H211	H21	0.593000	0.257200	0.651500
H221	H22	0.369000	0.484000	0.623000
H231	H23	0.314000	0.272000	0.440000
H241	H24	0.268000	0.417000	0.484000
O251	O25	0.709800	0.106790	0.745210
O261	O26	0.536100	0.007100	0.725460
O271	O27	0.589500	0.391030	0.952310
O281	O28	0.404000	0.386520	0.053160
C491	C49	0.590900	0.075580	0.770580
C501	C50	0.510300	0.120690	0.854190
C511	C51	0.410500	0.069400	0.907100
C521	C52	0.334800	0.110900	0.984600
C531	C53	0.358300	0.201500	0.009000
C541	C54	0.458500	0.253480	0.958760
C551	C55	0.534700	0.211410	0.881190
C561	C56	0.486300	0.351700	0.989710
H251	H25	0.593000	0.242800	0.848500
H261	H26	0.369000	0.016000	0.877000
H271	H27	0.314000	0.228000	0.060000
H281	H28	0.268000	0.083000	0.016000
O291	O29	0.790200	0.893210	0.745210
O301	O30	0.963900	0.992900	0.725460
O311	O31	0.910500	0.608970	0.952310
O321	O32	0.096000	0.613480	0.053160
C571	C57	0.909100	0.924420	0.770580
C581	C58	0.989700	0.879310	0.854190
C591	C59	0.089500	0.930600	0.907100
C601	C60	0.165200	0.889100	0.984600
C611	C61	0.141700	0.798500	0.009000
C621	C62	0.041500	0.746520	0.958760
C631	C63	0.965300	0.788590	0.881190
C641	C64	0.013700	0.648300	0.989710
H291	H29	0.907000	0.757200	0.848500
H301	H30	0.131000	0.984000	0.877000
H311	H31	0.186000	0.772000	0.060000
H321	H32	0.232000	0.917000	0.016000
Dy11	Dy1	0.250000	0.500000	0.101950
Dy21	Dy2	0.250000	0.000000	0.398050
Dy31	Dy3	0.750000	0.500000	0.898050
Dy41	Dy4	0.750000	0.000000	0.601950
