data_DOMGET_clean_PM
_symmetry_space_group_name_H-M	'P1'
_cell_length_a	11.492400
_cell_length_b	23.928200
_cell_length_c	23.928200
_cell_angle_alpha	93.555700
_cell_angle_beta	103.366000
_cell_angle_gamma	103.366000
_symmetry_Int_Tables_number 1

loop_
_symmetry_equiv_pos_as_xyz
'x,y,z'

loop_
_atom_site_label
_atom_site_type_symbol
_atom_site_fract_x
_atom_site_fract_y
_atom_site_fract_z
Na11	Na1	0.987390	0.325280	0.170660
Na21	Na2	0.491170	0.266740	0.266740
Na31	Na3	0.007310	0.823880	0.823880
Na41	Na4	0.012610	0.829340	0.674720
Na51	Na5	0.987390	0.170660	0.325280
Na61	Na6	0.508830	0.733260	0.733260
Na71	Na7	0.992690	0.176120	0.176120
Na81	Na8	0.012610	0.674720	0.829340
Dy11	Dy1	0.232060	0.762830	0.762830
Dy21	Dy2	0.794910	0.707690	0.707690
Dy31	Dy3	0.767940	0.237170	0.237170
Dy41	Dy4	0.205090	0.292310	0.292310
Zn11	Zn1	0.295270	0.797640	0.274840
Zn21	Zn2	0.704730	0.725160	0.202360
Zn31	Zn3	0.704730	0.202360	0.725160
Zn41	Zn4	0.295270	0.274840	0.797640
H11	H1	0.851200	0.433400	0.170800
H21	H2	0.272200	0.902300	0.092100
H31	H3	0.703900	0.308900	0.545500
H41	H4	0.121700	0.791300	0.045700
H51	H5	0.878300	0.954300	0.208700
H61	H6	0.551100	0.692500	0.858700
H71	H7	0.379500	0.923300	0.471100
H81	H8	0.478400	0.048400	0.307000
H91	H9	0.448900	0.141300	0.307500
H101	H10	0.464800	0.777000	0.611400
H111	H11	0.877400	0.797700	0.531100
H121	H12	0.727800	0.097700	0.907900
H131	H13	0.463300	0.329100	0.595900
H141	H14	0.121700	0.045700	0.791300
H151	H15	0.535200	0.388600	0.223000
H161	H16	0.122600	0.468900	0.202300
H171	H17	0.481500	0.796100	0.072100
H181	H18	0.715900	0.623100	0.384300
H191	H19	0.460300	0.790400	0.972200
H201	H20	0.634700	0.600300	0.006900
H211	H21	0.379500	0.471100	0.923300
H221	H22	0.463300	0.595900	0.329100
H231	H23	0.148800	0.829200	0.566600
H241	H24	0.727900	0.022600	0.831200
H251	H25	0.887900	0.018300	0.736100
H261	H26	0.101600	0.946700	0.788300
H271	H27	0.918100	0.925800	0.737400
H281	H28	0.564500	0.503800	0.670600
H291	H29	0.481500	0.072100	0.796100
H301	H30	0.296100	0.454500	0.691100
H311	H31	0.620500	0.528900	0.076700
H321	H32	0.367500	0.621100	0.165300
H331	H33	0.632500	0.378900	0.834700
H341	H34	0.081900	0.262600	0.074200
H351	H35	0.632500	0.834700	0.378900
H361	H36	0.877400	0.531100	0.797700
H371	H37	0.112100	0.981700	0.263900
H381	H38	0.535200	0.223000	0.388600
H391	H39	0.272100	0.168800	0.977400
H401	H40	0.284100	0.376900	0.615700
H411	H41	0.851200	0.170800	0.433400
H421	H42	0.514700	0.483000	0.219000
H431	H43	0.369500	0.095400	0.693000
H441	H44	0.369500	0.693000	0.095400
H451	H45	0.715900	0.384300	0.623100
H461	H46	0.485300	0.517000	0.781000
H471	H47	0.170500	0.834700	0.473100
H481	H48	0.727800	0.907900	0.097700
H491	H49	0.464800	0.611400	0.777000
H501	H50	0.630500	0.904600	0.307000
H511	H51	0.634700	0.006900	0.600300
H521	H52	0.518500	0.927900	0.203900
H531	H53	0.152000	0.200500	0.568500
H541	H54	0.898400	0.211700	0.053300
H551	H55	0.829500	0.526900	0.165300
H561	H56	0.514700	0.219000	0.483000
H571	H57	0.878300	0.208700	0.954300
H581	H58	0.536700	0.404100	0.670900
H591	H59	0.101600	0.788300	0.946700
H601	H60	0.478400	0.307000	0.048400
H611	H61	0.448900	0.307500	0.141300
H621	H62	0.848000	0.799500	0.431500
H631	H63	0.272100	0.977400	0.168800
H641	H64	0.122600	0.202300	0.468900
H651	H65	0.887900	0.736100	0.018300
H661	H66	0.829500	0.165300	0.526900
H671	H67	0.152000	0.568500	0.200500
H681	H68	0.081900	0.074200	0.262600
H691	H69	0.727900	0.831200	0.022600
H701	H70	0.918100	0.737400	0.925800
H711	H71	0.551100	0.858700	0.692500
H721	H72	0.521600	0.951600	0.693000
H731	H73	0.435500	0.329400	0.496200
H741	H74	0.521600	0.693000	0.951600
H751	H75	0.630500	0.307000	0.904600
H761	H76	0.272200	0.092100	0.902300
H771	H77	0.620500	0.076700	0.528900
H781	H78	0.170500	0.473100	0.834700
H791	H79	0.365300	0.399700	0.993100
H801	H80	0.485300	0.781000	0.517000
H811	H81	0.296100	0.691100	0.454500
H821	H82	0.518500	0.203900	0.927900
H831	H83	0.367500	0.165300	0.621100
H841	H84	0.848000	0.431500	0.799500
H851	H85	0.564500	0.670600	0.503800
H861	H86	0.460300	0.972200	0.790400
H871	H87	0.112100	0.263900	0.981700
H881	H88	0.703900	0.545500	0.308900
H891	H89	0.435500	0.496200	0.329400
H901	H90	0.148800	0.566600	0.829200
H911	H91	0.284100	0.615700	0.376900
H921	H92	0.536700	0.670900	0.404100
H931	H93	0.539700	0.209600	0.027800
H941	H94	0.539700	0.027800	0.209600
H951	H95	0.898400	0.053300	0.211700
H961	H96	0.365300	0.993100	0.399700
C11	C1	0.364100	0.914720	0.430360
C21	C2	0.746600	0.590530	0.728390
C31	C3	0.208300	0.554220	0.228040
C41	C4	0.791700	0.445780	0.771960
C51	C5	0.355700	0.658840	0.171060
C61	C6	0.297900	0.005010	0.283870
C71	C7	0.300500	0.848050	0.160210
C81	C8	0.319600	0.271320	0.656760
C91	C9	0.281600	0.174050	0.939530
C101	C10	0.403100	0.793660	0.046780
C111	C11	0.665200	0.577090	0.194170
C121	C12	0.278400	0.785600	0.949460
C131	C13	0.208300	0.228040	0.554220
C141	C14	0.836400	0.930740	0.728320
C151	C15	0.163600	0.271680	0.069260
C161	C16	0.379200	0.297850	0.108870
C171	C17	0.607700	0.429660	0.696200
C181	C18	0.603300	0.702470	0.946730
C191	C19	0.603300	0.946730	0.702470
C201	C20	0.818200	0.727940	0.985980
C211	C21	0.717900	0.101460	0.867940
C221	C22	0.770500	0.177980	0.499260
C231	C23	0.643200	0.866980	0.302100
C241	C24	0.624000	0.696000	0.489260
C251	C25	0.241200	0.176270	0.283750
C261	C26	0.693100	0.406950	0.732590
C271	C27	0.364100	0.430360	0.914720
C281	C28	0.302900	0.069070	0.793770
C291	C29	0.718500	0.206690	0.343350
C301	C30	0.392300	0.303800	0.570340
C311	C31	0.315000	0.132950	0.797210
C321	C32	0.699500	0.151950	0.839790
C331	C33	0.718400	0.825950	0.060470
C341	C34	0.304000	0.416530	0.696930
C351	C35	0.635900	0.569640	0.085280
C361	C36	0.758800	0.823730	0.716250
C371	C37	0.821300	0.211640	0.028160
C381	C38	0.666400	0.777830	0.315290
C391	C39	0.737100	0.882840	0.715560
C401	C40	0.262900	0.284440	0.117160
C411	C41	0.315300	0.684070	0.324310
C421	C42	0.698600	0.199770	0.402310
C431	C43	0.583900	0.473180	0.209540
C441	C44	0.261700	0.885590	0.779550
C451	C45	0.191700	0.030990	0.791170
C461	C46	0.697100	0.206230	0.930930
C471	C47	0.297700	0.656030	0.374350
C481	C48	0.334800	0.160260	0.748880
C491	C49	0.282100	0.132060	0.898540
C501	C50	0.403600	0.787590	0.582990
C511	C51	0.298100	0.914810	0.227830
C521	C52	0.635900	0.085280	0.569640
C531	C53	0.687000	0.717550	0.055610
C541	C54	0.746600	0.728390	0.590530
C551	C55	0.738300	0.114410	0.220450
C561	C56	0.334800	0.748880	0.160260
C571	C57	0.620800	0.702150	0.891130
C581	C58	0.725400	0.526940	0.732360
C591	C59	0.702300	0.343970	0.625650
C601	C60	0.335200	0.335300	0.921120
C611	C61	0.301400	0.597690	0.800230
C621	C62	0.737100	0.715560	0.882840
C631	C63	0.229500	0.822020	0.500740
C641	C64	0.808300	0.208830	0.969010
C651	C65	0.783300	0.181310	0.443610
C661	C66	0.609900	0.210070	0.013070
C671	C67	0.241200	0.283750	0.176270
C681	C68	0.376000	0.510740	0.304000
C691	C69	0.403600	0.582990	0.787590
C701	C70	0.671100	0.193080	0.515300
C711	C71	0.282100	0.898540	0.132060
C721	C72	0.325300	0.751940	0.393200
C731	C73	0.643200	0.302100	0.866980
C741	C74	0.178700	0.788360	0.971840
C751	C75	0.262900	0.117160	0.284440
C761	C76	0.718400	0.060470	0.825950
C771	C77	0.333600	0.222170	0.684710
C781	C78	0.229500	0.500740	0.822020
C791	C79	0.319600	0.656760	0.271320
C801	C80	0.191400	0.494790	0.228630
C811	C81	0.297700	0.374350	0.656030
C821	C82	0.624000	0.489260	0.696000
C831	C83	0.596400	0.212410	0.417010
C841	C84	0.783300	0.443610	0.181310
C851	C85	0.685000	0.867050	0.202790
C861	C86	0.721600	0.050540	0.214400
C871	C87	0.253400	0.409470	0.271610
C881	C88	0.671100	0.515300	0.193080
C891	C89	0.609900	0.013070	0.210070
C901	C90	0.396700	0.297530	0.053270
C911	C91	0.304000	0.696930	0.416530
C921	C92	0.281600	0.939530	0.174050
C931	C93	0.390100	0.789930	0.986930
C941	C94	0.216700	0.818690	0.556390
C951	C95	0.693100	0.732590	0.406950
C961	C96	0.334800	0.805830	0.422910
C971	C97	0.396700	0.053270	0.297530
C981	C98	0.356800	0.697900	0.133020
C991	C99	0.216700	0.556390	0.818690
C1001	C100	0.808600	0.771370	0.505210
C1011	C101	0.596400	0.417010	0.212410
C1021	C102	0.390100	0.986930	0.789930
C1031	C103	0.181800	0.272060	0.014020
C1041	C104	0.333600	0.684710	0.222170
C1051	C105	0.698600	0.402310	0.199770
C1061	C106	0.300500	0.160210	0.848050
C1071	C107	0.281500	0.793310	0.656650
C1081	C108	0.738300	0.220450	0.114410
C1091	C109	0.665200	0.839740	0.251120
C1101	C110	0.181800	0.014020	0.272060
C1111	C111	0.596900	0.206340	0.953220
C1121	C112	0.163600	0.069260	0.271680
C1131	C113	0.301400	0.800230	0.597690
C1141	C114	0.642800	0.608410	0.047130
C1151	C115	0.298100	0.227830	0.914810
C1161	C116	0.687000	0.055610	0.717550
C1171	C117	0.721600	0.214400	0.050540
C1181	C118	0.302900	0.793770	0.069070
C1191	C119	0.808600	0.505210	0.771370
C1201	C120	0.770500	0.499260	0.177980
C1211	C121	0.357200	0.391590	0.952870
C1221	C122	0.656000	0.141630	0.601230
C1231	C123	0.666400	0.315290	0.777830
C1241	C124	0.274600	0.267640	0.473060
C1251	C125	0.357200	0.952870	0.391590
C1261	C126	0.758800	0.716250	0.823730
C1271	C127	0.416100	0.526820	0.790460
C1281	C128	0.664800	0.664700	0.078880
C1291	C129	0.583900	0.209540	0.473180
C1301	C130	0.325300	0.393200	0.751940
C1311	C131	0.685000	0.202790	0.867050
C1321	C132	0.664800	0.078880	0.664700
C1331	C133	0.717900	0.867940	0.101460
C1341	C134	0.684700	0.315930	0.675690
C1351	C135	0.313000	0.282450	0.944390
C1361	C136	0.680400	0.343240	0.728680
C1371	C137	0.335200	0.921120	0.335300
C1381	C138	0.416100	0.790460	0.526820
C1391	C139	0.665200	0.251120	0.839740
C1401	C140	0.000000	0.764800	0.235200
C1411	C141	0.791700	0.771960	0.445780
C1421	C142	0.306900	0.593050	0.267410
C1431	C143	0.702100	0.994990	0.716130
C1441	C144	0.274600	0.473060	0.267640
C1451	C145	0.656000	0.601230	0.141630
C1461	C146	0.642800	0.047130	0.608410
C1471	C147	0.697100	0.930930	0.206230
C1481	C148	0.701900	0.085190	0.772170
C1491	C149	0.392300	0.570340	0.303800
C1501	C150	0.836400	0.728320	0.930740
C1511	C151	0.674700	0.248060	0.606800
C1521	C152	0.191400	0.228630	0.494790
C1531	C153	0.315300	0.324310	0.684070
C1541	C154	0.379200	0.108870	0.297850
C1551	C155	0.344000	0.398770	0.858370
C1561	C156	0.297900	0.283870	0.005010
C1571	C157	0.725400	0.732360	0.526940
C1581	C158	0.253400	0.271610	0.409470
C1591	C159	0.644300	0.341160	0.828940
C1601	C160	0.356800	0.133020	0.697900
C1611	C161	0.178700	0.971840	0.788360
C1621	C162	0.328900	0.806920	0.484700
C1631	C163	0.821300	0.028160	0.211640
C1641	C164	0.684700	0.675690	0.315930
C1651	C165	0.818200	0.985980	0.727940
C1661	C166	0.403100	0.046780	0.793660
C1671	C167	0.665200	0.194170	0.577090
C1681	C168	0.278400	0.949460	0.785600
C1691	C169	0.702100	0.716130	0.994990
C1701	C170	0.306900	0.267410	0.593050
C1711	C171	0.718500	0.343350	0.206690
C1721	C172	0.808300	0.969010	0.208830
C1731	C173	0.701900	0.772170	0.085190
C1741	C174	0.674700	0.606800	0.248060
C1751	C175	0.355700	0.171060	0.658840
C1761	C176	0.596900	0.953220	0.206340
C1771	C177	0.696000	0.583470	0.303070
C1781	C178	0.315000	0.797210	0.132950
C1791	C179	0.696000	0.303070	0.583470
C1801	C180	0.699500	0.839790	0.151950
C1811	C181	0.334800	0.422910	0.805830
C1821	C182	0.191700	0.791170	0.030990
C1831	C183	0.261700	0.779550	0.885590
C1841	C184	0.644300	0.828940	0.341160
C1851	C185	0.680400	0.728680	0.343240
C1861	C186	0.376000	0.304000	0.510740
C1871	C187	0.620800	0.891130	0.702150
C1881	C188	0.313000	0.944390	0.282450
C1891	C189	0.344000	0.858370	0.398770
C1901	C190	0.328900	0.484700	0.806920
C1911	C191	0.702300	0.625650	0.343970
C1921	C192	0.607700	0.696200	0.429660
C1931	C193	0.000000	0.235200	0.764800
C1941	C194	0.281500	0.656650	0.793310
N11	N1	0.327100	0.215360	0.740160
N21	N2	0.672900	0.259840	0.784640
N31	N3	0.691500	0.141200	0.781780
N41	N4	0.982900	0.310850	0.310850
N51	N5	0.327100	0.740160	0.215360
N61	N6	0.330700	0.341220	0.864140
N71	N7	0.669900	0.663240	0.257500
N81	N8	0.330100	0.742500	0.336760
N91	N9	0.669900	0.257500	0.663240
N101	N10	0.308500	0.218220	0.858800
N111	N11	0.308500	0.858800	0.218220
N121	N12	0.672900	0.784640	0.259840
N131	N13	0.017100	0.689150	0.689150
N141	N14	0.669300	0.135860	0.658780
N151	N15	0.330700	0.864140	0.341220
N161	N16	0.669300	0.658780	0.135860
N171	N17	0.691500	0.781780	0.141200
N181	N18	0.330100	0.336760	0.742500
O11	O1	0.353400	0.864910	0.782030
O21	O2	0.812200	0.195700	0.331260
O31	O3	0.896700	0.742550	0.230610
O41	O4	0.868100	0.734700	0.818360
O51	O5	0.153700	0.771390	0.852630
O61	O6	0.812200	0.331260	0.195700
O71	O7	0.672500	0.690050	0.608350
O81	O8	0.669000	0.779770	0.697710
O91	O9	0.911900	0.658550	0.658550
O101	O10	0.641500	0.225150	0.306490
O111	O11	0.646600	0.217970	0.135090
O121	O12	0.103300	0.769390	0.257450
O131	O13	0.846300	0.147370	0.228610
O141	O14	0.672500	0.608350	0.690050
O151	O15	0.159800	0.238800	0.374420
O161	O16	0.131900	0.181640	0.265300
O171	O17	0.013000	0.729320	0.729320
O181	O18	0.641500	0.306490	0.225150
O191	O19	0.840200	0.761200	0.625580
O201	O20	0.896700	0.230610	0.742550
O211	O21	0.646600	0.135090	0.217970
O221	O22	0.187800	0.804300	0.668740
O231	O23	0.121600	0.684950	0.684950
O241	O24	0.353400	0.782030	0.864910
O251	O25	0.103300	0.257450	0.769390
O261	O26	0.088100	0.341450	0.341450
O271	O27	0.153700	0.852630	0.771390
O281	O28	0.327500	0.309950	0.391650
O291	O29	0.331000	0.220230	0.302290
O301	O30	0.327500	0.391650	0.309950
O311	O31	0.331000	0.302290	0.220230
O321	O32	0.878400	0.315050	0.315050
O331	O33	0.187800	0.668740	0.804300
O341	O34	0.669000	0.697710	0.779770
O351	O35	0.358500	0.774850	0.693510
O361	O36	0.868100	0.818360	0.734700
O371	O37	0.131900	0.265300	0.181640
O381	O38	0.846300	0.228610	0.147370
O391	O39	0.840200	0.625580	0.761200
O401	O40	0.987000	0.270680	0.270680
O411	O41	0.159800	0.374420	0.238800
O421	O42	0.358500	0.693510	0.774850
