data_DOMKEX_clean_PM
_symmetry_space_group_name_H-M	'P1'
_cell_length_a	6.405900
_cell_length_b	16.350200
_cell_length_c	17.819600
_cell_angle_alpha	98.109000
_cell_angle_beta	94.056000
_cell_angle_gamma	95.651000
_symmetry_Int_Tables_number 1

loop_
_symmetry_equiv_pos_as_xyz
'x,y,z'

loop_
_atom_site_label
_atom_site_type_symbol
_atom_site_fract_x
_atom_site_fract_y
_atom_site_fract_z
Na11	Na1	0.570750	0.396400	0.519290
Na21	Na2	0.874310	0.508790	0.413510
Na31	Na3	0.849600	0.412050	0.728590
Na41	Na4	0.273400	0.311000	0.641020
O11	O1	0.219300	0.514550	0.374200
O21	O2	0.512300	0.465470	0.414040
O31	O3	0.906100	0.390560	0.469130
O41	O4	0.201100	0.358140	0.524340
O51	O5	0.195600	0.455610	0.707610
O61	O6	0.491000	0.403850	0.738760
O71	O7	0.920200	0.279100	0.679650
O81	O8	0.148500	0.189400	0.697300
O91	O9	0.578200	0.275030	0.578600
H11	H1	0.692100	0.279800	0.612100
H21	H2	0.545600	0.227100	0.546600
N11	N1	0.133300	0.953690	0.901410
H31	H3	0.075700	0.973700	0.942700
N21	N2	0.234600	0.095060	0.023160
C11	C1	0.343700	0.459050	0.372580
C21	C2	0.286900	0.380640	0.315480
C31	C3	0.036000	0.340010	0.479520
C41	C4	0.424900	0.320260	0.306930
H41	H4	0.553400	0.327000	0.338300
C51	C5	0.046900	0.298400	0.216800
H51	H5	0.915900	0.290700	0.186800
C61	C6	0.187000	0.238900	0.206400
C71	C7	0.298200	0.995200	0.871900
C81	C8	0.096800	0.369300	0.270900
H61	H6	0.000500	0.409800	0.277300
C91	C9	0.364000	0.456900	0.748900
C101	C10	0.389500	0.113700	0.977000
C111	C11	0.418100	0.068700	0.906300
C121	C12	0.045800	0.887700	0.848400
C131	C13	0.133800	0.165700	0.145100
C141	C14	0.375600	0.250300	0.252800
H71	H7	0.471300	0.209400	0.247200
C151	C15	0.165000	0.886300	0.784000
H81	H8	0.141500	0.846600	0.739000
C161	C16	0.264300	0.157200	0.084700
C171	C17	0.572400	0.107700	0.858500
C181	C18	0.319100	0.951800	0.797700
H91	H9	0.421300	0.965900	0.764200
C191	C19	0.980300	0.218700	0.709300
C201	C20	0.840100	0.179900	0.762300
C211	C21	0.521100	0.187800	0.010900
H101	H10	0.640300	0.212700	0.990400
C221	C22	0.444400	0.215300	0.076800
H111	H11	0.498000	0.263500	0.111600
C231	C23	0.994700	0.253500	0.435800
H121	H12	0.844200	0.234400	0.433300
H131	H13	0.075300	0.215900	0.461500
H141	H14	0.037900	0.253700	0.384100
C241	C24	0.411400	0.526700	0.815400
H151	H15	0.322900	0.515500	0.856200
H161	H16	0.382000	0.579300	0.798700
H171	H17	0.560100	0.530400	0.834200
C251	C25	0.763700	0.077800	0.844600
H181	H18	0.804200	0.032300	0.867800
C261	C26	0.895900	0.113700	0.797100
H191	H19	0.026400	0.092600	0.788300
C271	C27	0.651600	0.211300	0.777900
H201	H20	0.613000	0.258200	0.756400
C281	C28	0.520200	0.174500	0.824700
H211	H21	0.390100	0.195900	0.833800
Na51	Na5	0.429250	0.603600	0.480710
Na61	Na6	0.125690	0.491210	0.586490
Na71	Na7	0.150400	0.587950	0.271410
Na81	Na8	0.726600	0.689000	0.358980
O101	O10	0.780700	0.485450	0.625800
O111	O11	0.487700	0.534530	0.585960
O121	O12	0.093900	0.609440	0.530870
O131	O13	0.798900	0.641860	0.475660
O141	O14	0.804400	0.544390	0.292390
O151	O15	0.509000	0.596150	0.261240
O161	O16	0.079800	0.720900	0.320350
O171	O17	0.851500	0.810600	0.302700
O181	O18	0.421800	0.724970	0.421400
H221	H22	0.307900	0.720200	0.387900
H231	H23	0.454400	0.772900	0.453400
N31	N3	0.866700	0.046310	0.098590
H241	H24	0.924300	0.026300	0.057300
N41	N4	0.765400	0.904940	0.976840
C291	C29	0.656300	0.540950	0.627420
C301	C30	0.713100	0.619360	0.684520
C311	C31	0.964000	0.659990	0.520480
C321	C32	0.575100	0.679740	0.693070
H251	H25	0.446600	0.673000	0.661700
C331	C33	0.953100	0.701600	0.783200
H261	H26	0.084100	0.709300	0.813200
C341	C34	0.813000	0.761100	0.793600
C351	C35	0.701800	0.004800	0.128100
C361	C36	0.903200	0.630700	0.729100
H271	H27	0.999500	0.590200	0.722700
C371	C37	0.636000	0.543100	0.251100
C381	C38	0.610500	0.886300	0.023000
C391	C39	0.581900	0.931300	0.093700
C401	C40	0.954200	0.112300	0.151600
C411	C41	0.866200	0.834300	0.854900
C421	C42	0.624400	0.749700	0.747200
H281	H28	0.528700	0.790600	0.752800
C431	C43	0.835000	0.113700	0.216000
H291	H29	0.858500	0.153400	0.261000
C441	C44	0.735700	0.842800	0.915300
C451	C45	0.427600	0.892300	0.141500
C461	C46	0.680900	0.048200	0.202300
H301	H30	0.578700	0.034100	0.235800
C471	C47	0.019700	0.781300	0.290700
C481	C48	0.159900	0.820100	0.237700
C491	C49	0.478900	0.812200	0.989100
H311	H31	0.359700	0.787300	0.009600
C501	C50	0.555600	0.784700	0.923200
H321	H32	0.502000	0.736500	0.888400
C511	C51	0.005300	0.746500	0.564200
H331	H33	0.155800	0.765600	0.566700
H341	H34	0.924700	0.784100	0.538500
H351	H35	0.962100	0.746300	0.615900
C521	C52	0.588600	0.473300	0.184600
H361	H36	0.677100	0.484500	0.143800
H371	H37	0.618000	0.420700	0.201300
H381	H38	0.439900	0.469600	0.165800
C531	C53	0.236300	0.922200	0.155400
H391	H39	0.195800	0.967700	0.132200
C541	C54	0.104100	0.886300	0.202900
H401	H40	0.973600	0.907400	0.211700
C551	C55	0.348400	0.788700	0.222100
H411	H41	0.387000	0.741800	0.243600
C561	C56	0.479800	0.825500	0.175300
H421	H42	0.609900	0.804100	0.166200
