data_DONKOI_clean_PM
_symmetry_space_group_name_H-M	'P1'
_cell_length_a	16.719000
_cell_length_b	16.719000
_cell_length_c	24.598000
_cell_angle_alpha	90.000000
_cell_angle_beta	90.000000
_cell_angle_gamma	120.000000
_symmetry_Int_Tables_number 1

loop_
_symmetry_equiv_pos_as_xyz
'x,y,z'

loop_
_atom_site_label
_atom_site_type_symbol
_atom_site_fract_x
_atom_site_fract_y
_atom_site_fract_z
Ni11	Ni1	0.408100	0.685580	0.750500
Ni21	Ni2	0.494590	0.256320	0.468770
C11	C1	0.046200	0.829200	0.559900
H11	H1	0.100700	0.833100	0.544500
H21	H2	0.051700	0.833100	0.598800
H31	H3	0.038900	0.879100	0.546500
C21	C2	0.962100	0.737400	0.544000
H41	H4	0.970600	0.688400	0.559800
C31	C3	0.872600	0.725900	0.567100
C41	C4	0.787700	0.641600	0.558300
C51	C5	0.705200	0.626100	0.579300
H51	H5	0.651400	0.569900	0.573600
C61	C6	0.703100	0.696100	0.609500
C71	C7	0.783200	0.781700	0.616900
C81	C8	0.865100	0.791700	0.596000
H61	H6	0.919000	0.847500	0.602200
C91	C9	0.730600	0.530400	0.487400
H71	H7	0.763000	0.534800	0.453800
H81	H8	0.696000	0.562200	0.482000
C101	C10	0.664000	0.429900	0.499700
C111	C11	0.544500	0.596600	0.632600
H91	H9	0.561100	0.551800	0.645200
H101	H10	0.521600	0.580500	0.595700
C121	C12	0.468700	0.592700	0.668900
C131	C13	0.778700	0.860200	0.645500
H111	H11	0.734100	0.832100	0.675200
C141	C14	0.869000	0.930600	0.671400
H121	H12	0.861300	0.977800	0.688600
H131	H13	0.915800	0.957900	0.643900
H141	H14	0.887100	0.900700	0.698000
C151	C15	0.741600	0.907400	0.608300
C161	C16	0.698100	0.950300	0.629700
C171	C17	0.667400	0.998300	0.597700
H151	H15	0.638800	0.027700	0.613800
C181	C18	0.679400	0.002400	0.541900
C191	C19	0.724000	0.956900	0.517900
C201	C20	0.753000	0.911800	0.551900
H161	H16	0.782200	0.882300	0.536600
C211	C21	0.598400	0.882000	0.702300
H171	H17	0.583700	0.824400	0.684600
H181	H18	0.552600	0.898300	0.691500
C221	C22	0.596500	0.870100	0.764400
C231	C23	0.609000	0.093400	0.530400
H191	H19	0.649200	0.134500	0.558600
H201	H20	0.551100	0.049200	0.547400
C241	C24	0.591300	0.148300	0.489000
O11	O1	0.796000	0.575000	0.529400
O21	O2	0.673900	0.399600	0.544100
O31	O3	0.604100	0.387100	0.463000
O41	O4	0.624400	0.686400	0.633000
O51	O5	0.389400	0.525900	0.662100
O61	O6	0.490700	0.654400	0.705100
O71	O7	0.686000	0.951300	0.686460
O81	O8	0.656200	0.928600	0.791900
O91	O9	0.524300	0.800700	0.783920
O101	O10	0.650400	0.045800	0.506900
O111	O11	0.595900	0.135400	0.440300
O121	O12	0.569800	0.204600	0.508040
Ni31	Ni3	0.314420	0.722520	0.083830
Ni41	Ni4	0.743680	0.238270	0.802100
C251	C25	0.170800	0.217000	0.893230
H211	H21	0.166900	0.267600	0.877830
H221	H22	0.166900	0.218600	0.932130
H231	H23	0.120900	0.159800	0.879830
C261	C26	0.262600	0.224700	0.877330
H241	H24	0.311600	0.282200	0.893130
C271	C27	0.274100	0.146700	0.900430
C281	C28	0.358400	0.146100	0.891630
C291	C29	0.373900	0.079100	0.912630
H251	H25	0.430100	0.081500	0.906930
C301	C30	0.303900	0.007000	0.942830
C311	C31	0.218300	0.001500	0.950230
C321	C32	0.208300	0.073400	0.929330
H261	H26	0.152500	0.071500	0.935530
C331	C33	0.469600	0.200200	0.820730
H271	H27	0.465200	0.228200	0.787130
H281	H28	0.437800	0.133800	0.815330
C341	C34	0.570100	0.234100	0.833030
C351	C35	0.403400	0.947900	0.965930
H291	H29	0.448200	0.009300	0.978530
H301	H30	0.419500	0.941100	0.929030
C361	C36	0.407300	0.876000	0.002230
C371	C37	0.139800	0.918500	0.978830
H311	H31	0.167900	0.902000	0.008530
C381	C38	0.069400	0.938400	0.004730
H321	H32	0.022200	0.883500	0.021930
H331	H33	0.042100	0.957900	0.977230
H341	H34	0.099300	0.986400	0.031330
C391	C39	0.092600	0.834200	0.941630
C401	C40	0.049700	0.747800	0.963030
C411	C41	0.001700	0.669100	0.931030
H351	H35	0.972300	0.611100	0.947130
C421	C42	0.997600	0.677000	0.875230
C431	C43	0.043100	0.767100	0.851230
C441	C44	0.088200	0.841200	0.885230
H361	H36	0.117700	0.899900	0.869930
C451	C45	0.118000	0.716400	0.035630
H371	H37	0.175600	0.759300	0.017930
H381	H38	0.101700	0.654300	0.024830
C461	C46	0.129900	0.726400	0.097730
C471	C47	0.906600	0.515600	0.863730
H391	H39	0.865500	0.514700	0.891930
H401	H40	0.950800	0.501900	0.880730
C481	C48	0.851700	0.443000	0.822330
O131	O13	0.425000	0.221000	0.862730
O141	O14	0.600400	0.274300	0.877430
O151	O15	0.612900	0.217000	0.796330
O161	O16	0.313600	0.938000	0.966330
O171	O17	0.474100	0.863500	0.995430
O181	O18	0.345600	0.836300	0.038430
O191	O19	0.048700	0.734700	0.019790
O201	O20	0.071400	0.727600	0.125230
O211	O21	0.199300	0.723600	0.117250
O221	O22	0.954200	0.604600	0.840230
O231	O23	0.864600	0.460500	0.773630
O241	O24	0.795400	0.365200	0.841370
Ni51	Ni5	0.277480	0.591900	0.417170
Ni61	Ni6	0.761730	0.505410	0.135440
C491	C49	0.783000	0.953800	0.226570
H411	H41	0.732400	0.899300	0.211170
H421	H42	0.781400	0.948300	0.265470
H431	H43	0.840200	0.961100	0.213170
C501	C50	0.775300	0.037900	0.210670
H441	H44	0.717800	0.029400	0.226470
C511	C51	0.853300	0.127400	0.233770
C521	C52	0.853900	0.212300	0.224970
C531	C53	0.920900	0.294800	0.245970
H451	H45	0.918500	0.348600	0.240270
C541	C54	0.993000	0.296900	0.276170
C551	C55	0.998500	0.216800	0.283570
C561	C56	0.926600	0.134900	0.262670
H461	H46	0.928500	0.081000	0.268870
C571	C57	0.799800	0.269400	0.154070
H471	H47	0.771800	0.237000	0.120470
H481	H48	0.866200	0.304000	0.148670
C581	C58	0.765900	0.336000	0.166370
C591	C59	0.052100	0.455500	0.299270
H491	H49	0.990700	0.438900	0.311870
H501	H50	0.058900	0.478400	0.262370
C601	C60	0.124000	0.531300	0.335570
C611	C61	0.081500	0.221300	0.312170
H511	H51	0.098000	0.265900	0.341870
C621	C62	0.061600	0.131000	0.338070
H521	H52	0.116500	0.138700	0.355270
H531	H53	0.042100	0.084200	0.310570
H541	H54	0.013600	0.112900	0.364670
C631	C63	0.165800	0.258400	0.274970
C641	C64	0.252200	0.301900	0.296370
C651	C65	0.330900	0.332600	0.264370
H551	H55	0.388900	0.361200	0.280470
C661	C66	0.323000	0.320600	0.208570
C671	C67	0.232900	0.276000	0.184570
C681	C68	0.158800	0.247000	0.218570
H561	H56	0.100100	0.217800	0.203270
C691	C69	0.283600	0.401600	0.368970
H571	H57	0.240700	0.416300	0.351270
H581	H58	0.345700	0.447400	0.358170
C701	C70	0.273600	0.403500	0.431070
C711	C71	0.484400	0.391000	0.197070
H591	H59	0.485300	0.350800	0.225270
H601	H60	0.498100	0.448900	0.214070
C721	C72	0.557000	0.408700	0.155670
O251	O25	0.779000	0.204000	0.196070
O261	O26	0.725700	0.326100	0.210770
O271	O27	0.783000	0.395900	0.129670
O281	O28	0.062000	0.375600	0.299670
O291	O29	0.136500	0.610600	0.328770
O301	O30	0.163700	0.509300	0.371770
O311	O31	0.265300	0.314000	0.353130
O321	O32	0.272400	0.343800	0.458570
O331	O33	0.276400	0.475700	0.450590
O341	O34	0.395400	0.349600	0.173570
O351	O35	0.539500	0.404100	0.106970
O361	O36	0.634800	0.430200	0.174710
Ni71	Ni7	0.685580	0.408100	0.249500
Ni81	Ni8	0.256320	0.494590	0.531230
C731	C73	0.829200	0.046200	0.440100
H611	H61	0.833100	0.100700	0.455500
H621	H62	0.833100	0.051700	0.401200
H631	H63	0.879100	0.038900	0.453500
C741	C74	0.737400	0.962100	0.456000
H641	H64	0.688400	0.970600	0.440200
C751	C75	0.725900	0.872600	0.432900
C761	C76	0.641600	0.787700	0.441700
C771	C77	0.626100	0.705200	0.420700
H651	H65	0.569900	0.651400	0.426400
C781	C78	0.696100	0.703100	0.390500
C791	C79	0.781700	0.783200	0.383100
C801	C80	0.791700	0.865100	0.404000
H661	H66	0.847500	0.919000	0.397800
C811	C81	0.530400	0.730600	0.512600
H671	H67	0.534800	0.763000	0.546200
H681	H68	0.562200	0.696000	0.518000
C821	C82	0.429900	0.664000	0.500300
C831	C83	0.596600	0.544500	0.367400
H691	H69	0.551800	0.561100	0.354800
H701	H70	0.580500	0.521600	0.404300
C841	C84	0.592700	0.468700	0.331100
C851	C85	0.860200	0.778700	0.354500
H711	H71	0.832100	0.734100	0.324800
C861	C86	0.930600	0.869000	0.328600
H721	H72	0.977800	0.861300	0.311400
H731	H73	0.957900	0.915800	0.356100
H741	H74	0.900700	0.887100	0.302000
C871	C87	0.907400	0.741600	0.391700
C881	C88	0.950300	0.698100	0.370300
C891	C89	0.998300	0.667400	0.402300
H751	H75	0.027700	0.638800	0.386200
C901	C90	0.002400	0.679400	0.458100
C911	C91	0.956900	0.724000	0.482100
C921	C92	0.911800	0.753000	0.448100
H761	H76	0.882300	0.782200	0.463400
C931	C93	0.882000	0.598400	0.297700
H771	H77	0.824400	0.583700	0.315400
H781	H78	0.898300	0.552600	0.308500
C941	C94	0.870100	0.596500	0.235600
C951	C95	0.093400	0.609000	0.469600
H791	H79	0.134500	0.649200	0.441400
H801	H80	0.049200	0.551100	0.452600
C961	C96	0.148300	0.591300	0.511000
O371	O37	0.575000	0.796000	0.470600
O381	O38	0.399600	0.673900	0.455900
O391	O39	0.387100	0.604100	0.537000
O401	O40	0.686400	0.624400	0.367000
O411	O41	0.525900	0.389400	0.337900
O421	O42	0.654400	0.490700	0.294900
O431	O43	0.951300	0.686000	0.313540
O441	O44	0.928600	0.656200	0.208100
O451	O45	0.800700	0.524300	0.216080
O461	O46	0.045800	0.650400	0.493100
O471	O47	0.135400	0.595900	0.559700
O481	O48	0.204600	0.569800	0.491960
Ni91	Ni9	0.722520	0.314420	0.916170
Ni101	Ni10	0.238270	0.743680	0.197900
C971	C97	0.217000	0.170800	0.106770
H811	H81	0.267600	0.166900	0.122170
H821	H82	0.218600	0.166900	0.067870
H831	H83	0.159800	0.120900	0.120170
C981	C98	0.224700	0.262600	0.122670
H841	H84	0.282200	0.311600	0.106870
C991	C99	0.146700	0.274100	0.099570
C1001	C100	0.146100	0.358400	0.108370
C1011	C101	0.079100	0.373900	0.087370
H851	H85	0.081500	0.430100	0.093070
C1021	C102	0.007000	0.303900	0.057170
C1031	C103	0.001500	0.218300	0.049770
C1041	C104	0.073400	0.208300	0.070670
H861	H86	0.071500	0.152500	0.064470
C1051	C105	0.200200	0.469600	0.179270
H871	H87	0.228200	0.465200	0.212870
H881	H88	0.133800	0.437800	0.184670
C1061	C106	0.234100	0.570100	0.166970
C1071	C107	0.947900	0.403400	0.034070
H891	H89	0.009300	0.448200	0.021470
H901	H90	0.941100	0.419500	0.070970
C1081	C108	0.876000	0.407300	0.997770
C1091	C109	0.918500	0.139800	0.021170
H911	H91	0.902000	0.167900	0.991470
C1101	C110	0.938400	0.069400	0.995270
H921	H92	0.883500	0.022200	0.978070
H931	H93	0.957900	0.042100	0.022770
H941	H94	0.986400	0.099300	0.968670
C1111	C111	0.834200	0.092600	0.058370
C1121	C112	0.747800	0.049700	0.036970
C1131	C113	0.669100	0.001700	0.068970
H951	H95	0.611100	0.972300	0.052870
C1141	C114	0.677000	0.997600	0.124770
C1151	C115	0.767100	0.043100	0.148770
C1161	C116	0.841200	0.088200	0.114770
H961	H96	0.899900	0.117700	0.130070
C1171	C117	0.716400	0.118000	0.964370
H971	H97	0.759300	0.175600	0.982070
H981	H98	0.654300	0.101700	0.975170
C1181	C118	0.726400	0.129900	0.902270
C1191	C119	0.515600	0.906600	0.136270
H991	H99	0.514700	0.865500	0.108070
H1001	H100	0.501900	0.950800	0.119270
C1201	C120	0.443000	0.851700	0.177670
O491	O49	0.221000	0.425000	0.137270
O501	O50	0.274300	0.600400	0.122570
O511	O51	0.217000	0.612900	0.203670
O521	O52	0.938000	0.313600	0.033670
O531	O53	0.863500	0.474100	0.004570
O541	O54	0.836300	0.345600	0.961570
O551	O55	0.734700	0.048700	0.980210
O561	O56	0.727600	0.071400	0.874770
O571	O57	0.723600	0.199300	0.882750
O581	O58	0.604600	0.954200	0.159770
O591	O59	0.460500	0.864600	0.226370
O601	O60	0.365200	0.795400	0.158630
Ni111	Ni11	0.591900	0.277480	0.582830
Ni121	Ni12	0.505410	0.761730	0.864560
C1211	C121	0.953800	0.783000	0.773430
H1011	H101	0.899300	0.732400	0.788830
H1021	H102	0.948300	0.781400	0.734530
H1031	H103	0.961100	0.840200	0.786830
C1221	C122	0.037900	0.775300	0.789330
H1041	H104	0.029400	0.717800	0.773530
C1231	C123	0.127400	0.853300	0.766230
C1241	C124	0.212300	0.853900	0.775030
C1251	C125	0.294800	0.920900	0.754030
H1051	H105	0.348600	0.918500	0.759730
C1261	C126	0.296900	0.993000	0.723830
C1271	C127	0.216800	0.998500	0.716430
C1281	C128	0.134900	0.926600	0.737330
H1061	H106	0.081000	0.928500	0.731130
C1291	C129	0.269400	0.799800	0.845930
H1071	H107	0.237000	0.771800	0.879530
H1081	H108	0.304000	0.866200	0.851330
C1301	C130	0.336000	0.765900	0.833630
C1311	C131	0.455500	0.052100	0.700730
H1091	H109	0.438900	0.990700	0.688130
H1101	H110	0.478400	0.058900	0.737630
C1321	C132	0.531300	0.124000	0.664430
C1331	C133	0.221300	0.081500	0.687830
H1111	H111	0.265900	0.098000	0.658130
C1341	C134	0.131000	0.061600	0.661930
H1121	H112	0.138700	0.116500	0.644730
H1131	H113	0.084200	0.042100	0.689430
H1141	H114	0.112900	0.013600	0.635330
C1351	C135	0.258400	0.165800	0.725030
C1361	C136	0.301900	0.252200	0.703630
C1371	C137	0.332600	0.330900	0.735630
H1151	H115	0.361200	0.388900	0.719530
C1381	C138	0.320600	0.323000	0.791430
C1391	C139	0.276000	0.232900	0.815430
C1401	C140	0.247000	0.158800	0.781430
H1161	H116	0.217800	0.100100	0.796730
C1411	C141	0.401600	0.283600	0.631030
H1171	H117	0.416300	0.240700	0.648730
H1181	H118	0.447400	0.345700	0.641830
C1421	C142	0.403500	0.273600	0.568930
C1431	C143	0.391000	0.484400	0.802930
H1191	H119	0.350800	0.485300	0.774730
H1201	H120	0.448900	0.498100	0.785930
C1441	C144	0.408700	0.557000	0.844330
O611	O61	0.204000	0.779000	0.803930
O621	O62	0.326100	0.725700	0.789230
O631	O63	0.395900	0.783000	0.870330
O641	O64	0.375600	0.062000	0.700330
O651	O65	0.610600	0.136500	0.671230
O661	O66	0.509300	0.163700	0.628230
O671	O67	0.314000	0.265300	0.646870
O681	O68	0.343800	0.272400	0.541430
O691	O69	0.475700	0.276400	0.549410
O701	O70	0.349600	0.395400	0.826430
O711	O71	0.404100	0.539500	0.893030
O721	O72	0.430200	0.634800	0.825290
