data_DONXUB_clean_PM
_symmetry_space_group_name_H-M	'P1'
_cell_length_a	16.842000
_cell_length_b	16.835000
_cell_length_c	20.258000
_cell_angle_alpha	90.000000
_cell_angle_beta	90.000000
_cell_angle_gamma	90.000000
_symmetry_Int_Tables_number 1

loop_
_symmetry_equiv_pos_as_xyz
'x,y,z'

loop_
_atom_site_label
_atom_site_type_symbol
_atom_site_fract_x
_atom_site_fract_y
_atom_site_fract_z
Co11	Co1	0.146280	0.698050	0.500700
Co21	Co2	0.050030	0.613590	0.759850
Co31	Co3	0.130060	0.744910	0.001550
Co41	Co4	0.037790	0.632050	0.242360
N11	N1	0.082600	0.803800	0.516700
N21	N2	0.015000	0.916100	0.490000
H11	H1	0.991900	0.951500	0.465400
N31	N3	0.995500	0.999400	0.725900
N41	N4	0.052600	0.881100	0.754500
H21	H2	0.070800	0.843200	0.779400
N51	N5	0.951500	0.681800	0.781100
N61	N6	0.840500	0.747600	0.755200
H31	H3	0.804800	0.771400	0.731300
N71	N7	0.740200	0.721700	0.987000
N81	N8	0.856000	0.667300	0.014900
H41	H4	0.892300	0.645900	0.039700
N91	N9	0.946900	0.706600	0.257200
N101	N10	0.832100	0.761400	0.234800
H51	H5	0.793200	0.781100	0.211800
N111	N11	0.762500	0.769500	0.475600
N121	N12	0.880900	0.716300	0.497900
H61	H6	0.920000	0.696400	0.520600
N131	N13	0.998500	0.520100	0.253900
N141	N14	0.931100	0.409600	0.234700
H71	H7	0.905800	0.372900	0.213000
N151	N15	0.942300	0.330600	0.473500
N161	N16	0.011300	0.441200	0.491400
H81	H8	0.037700	0.477000	0.513200
C11	C1	0.051200	0.846700	0.469200
H91	H9	0.053200	0.831500	0.424600
C21	C2	0.021300	0.952200	0.775500
H101	H10	0.018200	0.966700	0.820200
C31	C3	0.908900	0.720800	0.733900
H111	H11	0.926900	0.727700	0.690400
C41	C4	0.784700	0.690700	0.033700
H121	H12	0.767000	0.685600	0.077500
C51	C5	0.898100	0.732300	0.210700
H131	H13	0.909600	0.729900	0.165400
C61	C6	0.811800	0.744300	0.522800
H141	H14	0.799900	0.745900	0.568100
C71	C7	0.957400	0.476900	0.209000
H151	H15	0.948600	0.492800	0.165100
C81	C8	0.976600	0.373900	0.518900
H161	H16	0.977700	0.361300	0.564100
C91	C9	0.023200	0.917800	0.558100
C101	C10	0.062100	0.844900	0.575400
C111	C11	0.075900	0.826200	0.641100
H171	H17	0.101400	0.779100	0.654000
C121	C12	0.049500	0.881700	0.685900
C131	C13	0.013300	0.954400	0.668400
C141	C14	0.995300	0.973100	0.603100
H181	H18	0.966900	0.018900	0.590700
C151	C15	0.834800	0.732000	0.820900
C161	C16	0.906800	0.692200	0.837300
C171	C17	0.922300	0.671800	0.902400
H191	H19	0.971700	0.650900	0.915400
C181	C18	0.861800	0.683700	0.947100
C191	C19	0.787900	0.720200	0.929700
C201	C20	0.773400	0.746900	0.866200
H201	H20	0.726200	0.772900	0.854300
C211	C21	0.834500	0.755600	0.303600
C221	C22	0.908400	0.719000	0.317200
C231	C23	0.932400	0.705300	0.382000
H211	H21	0.982500	0.684000	0.392400
C241	C24	0.878100	0.725000	0.429700
C251	C25	0.802500	0.760800	0.415900
C261	C26	0.780100	0.777200	0.352500
H221	H22	0.731300	0.801400	0.342400
C271	C27	0.992200	0.477400	0.314100
C281	C28	0.949500	0.406000	0.300500
C291	C29	0.929300	0.349300	0.347900
H231	H23	0.899900	0.303100	0.338700
C301	C30	0.957700	0.369100	0.411000
C311	C31	0.997200	0.442500	0.423900
C321	C32	0.018100	0.495900	0.376300
H241	H24	0.048000	0.541700	0.385500
S11	S1	0.053160	0.605060	0.598980
S21	S2	0.141970	0.702170	0.853090
S31	S3	0.164100	0.704920	0.336030
S41	S4	0.063970	0.606580	0.094280
O11	O1	0.126300	0.653500	0.592800
O21	O2	0.016000	0.623300	0.662600
O31	O3	0.001100	0.626200	0.543900
O41	O4	0.071800	0.518000	0.597300
O51	O5	0.098900	0.623700	0.856400
O61	O6	0.111400	0.756700	0.905400
O71	O7	0.126500	0.738500	0.788800
O81	O8	0.225900	0.689400	0.863200
O91	O9	0.113000	0.642400	0.040100
O101	O10	0.094400	0.639500	0.158100
O111	O11	0.075200	0.519800	0.093500
O121	O12	0.979900	0.629100	0.091600
O131	O13	0.112500	0.636500	0.313900
O141	O14	0.139200	0.729200	0.403300
O151	O15	0.247100	0.680500	0.336400
O161	O16	0.152600	0.771700	0.290100
Co51	Co5	0.353720	0.301950	0.000700
Co61	Co6	0.449970	0.386410	0.259850
Co71	Co7	0.369940	0.255090	0.501550
Co81	Co8	0.462210	0.367950	0.742360
N171	N17	0.417400	0.196200	0.016700
N181	N18	0.485000	0.083900	0.990000
H251	H25	0.508100	0.048500	0.965400
N191	N19	0.504500	0.000600	0.225900
N201	N20	0.447400	0.118900	0.254500
H261	H26	0.429200	0.156800	0.279400
N211	N21	0.548500	0.318200	0.281100
N221	N22	0.659500	0.252400	0.255200
H271	H27	0.695200	0.228600	0.231300
N231	N23	0.759800	0.278300	0.487000
N241	N24	0.644000	0.332700	0.514900
H281	H28	0.607700	0.354100	0.539700
N251	N25	0.553100	0.293400	0.757200
N261	N26	0.667900	0.238600	0.734800
H291	H29	0.706800	0.218900	0.711800
N271	N27	0.737500	0.230500	0.975600
N281	N28	0.619100	0.283700	0.997900
H301	H30	0.580000	0.303600	0.020600
N291	N29	0.501500	0.479900	0.753900
N301	N30	0.568900	0.590400	0.734700
H311	H31	0.594200	0.627100	0.713000
N311	N31	0.557700	0.669400	0.973500
N321	N32	0.488700	0.558800	0.991400
H321	H32	0.462300	0.523000	0.013200
C331	C33	0.448800	0.153300	0.969200
H331	H33	0.446800	0.168500	0.924600
C341	C34	0.478700	0.047800	0.275500
H341	H34	0.481800	0.033300	0.320200
C351	C35	0.591100	0.279200	0.233900
H351	H35	0.573100	0.272300	0.190400
C361	C36	0.715300	0.309300	0.533700
H361	H36	0.733000	0.314400	0.577500
C371	C37	0.601900	0.267700	0.710700
H371	H37	0.590400	0.270100	0.665400
C381	C38	0.688200	0.255700	0.022800
H381	H38	0.700100	0.254100	0.068100
C391	C39	0.542600	0.523100	0.709000
H391	H39	0.551400	0.507200	0.665100
C401	C40	0.523400	0.626100	0.018900
H401	H40	0.522300	0.638700	0.064100
C411	C41	0.476800	0.082200	0.058100
C421	C42	0.437900	0.155100	0.075400
C431	C43	0.424100	0.173800	0.141100
H411	H41	0.398600	0.220900	0.154000
C441	C44	0.450500	0.118300	0.185900
C451	C45	0.486700	0.045600	0.168400
C461	C46	0.504700	0.026900	0.103100
H421	H42	0.533100	0.981100	0.090700
C471	C47	0.665200	0.268000	0.320900
C481	C48	0.593200	0.307800	0.337300
C491	C49	0.577700	0.328200	0.402400
H431	H43	0.528300	0.349100	0.415400
C501	C50	0.638200	0.316300	0.447100
C511	C51	0.712100	0.279800	0.429700
C521	C52	0.726600	0.253100	0.366200
H441	H44	0.773800	0.227100	0.354300
C531	C53	0.665500	0.244400	0.803600
C541	C54	0.591600	0.281000	0.817200
C551	C55	0.567600	0.294700	0.882000
H451	H45	0.517500	0.316000	0.892400
C561	C56	0.621900	0.275000	0.929700
C571	C57	0.697500	0.239200	0.915900
C581	C58	0.719900	0.222800	0.852500
H461	H46	0.768700	0.198600	0.842400
C591	C59	0.507800	0.522600	0.814100
C601	C60	0.550500	0.594000	0.800500
C611	C61	0.570700	0.650700	0.847900
H471	H47	0.600100	0.696900	0.838700
C621	C62	0.542300	0.630900	0.911000
C631	C63	0.502800	0.557500	0.923900
C641	C64	0.481900	0.504100	0.876300
H481	H48	0.452000	0.458300	0.885500
S51	S5	0.446840	0.394940	0.098980
S61	S6	0.358030	0.297830	0.353090
S71	S7	0.335900	0.295080	0.836030
S81	S8	0.436030	0.393420	0.594280
O171	O17	0.373700	0.346500	0.092800
O181	O18	0.484000	0.376700	0.162600
O191	O19	0.498900	0.373800	0.043900
O201	O20	0.428200	0.482000	0.097300
O211	O21	0.401100	0.376300	0.356400
O221	O22	0.388600	0.243300	0.405400
O231	O23	0.373500	0.261500	0.288800
O241	O24	0.274100	0.310600	0.363200
O251	O25	0.387000	0.357600	0.540100
O261	O26	0.405600	0.360500	0.658100
O271	O27	0.424800	0.480200	0.593500
O281	O28	0.520100	0.370900	0.591600
O291	O29	0.387500	0.363500	0.813900
O301	O30	0.360800	0.270800	0.903300
O311	O31	0.252900	0.319500	0.836400
O321	O32	0.347400	0.228300	0.790100
Co91	Co9	0.853720	0.198050	0.999300
Co101	Co10	0.949970	0.113590	0.740150
Co111	Co11	0.869940	0.244910	0.498450
Co121	Co12	0.962210	0.132050	0.257640
N331	N33	0.917400	0.303800	0.983300
N341	N34	0.985000	0.416100	0.010000
H491	H49	0.008100	0.451500	0.034600
N351	N35	0.004500	0.499400	0.774100
N361	N36	0.947400	0.381100	0.745500
H501	H50	0.929200	0.343200	0.720600
N371	N37	0.048500	0.181800	0.718900
N381	N38	0.159500	0.247600	0.744800
H511	H51	0.195200	0.271400	0.768700
N391	N39	0.259800	0.221700	0.513000
N401	N40	0.144000	0.167300	0.485100
H521	H52	0.107700	0.145900	0.460300
N411	N41	0.053100	0.206600	0.242800
N421	N42	0.167900	0.261400	0.265200
H531	H53	0.206800	0.281100	0.288200
N431	N43	0.237500	0.269500	0.024400
N441	N44	0.119100	0.216300	0.002100
H541	H54	0.080000	0.196400	0.979400
N451	N45	0.001500	0.020100	0.246100
N461	N46	0.068900	0.909600	0.265300
H551	H55	0.094200	0.872900	0.287000
N471	N47	0.057700	0.830600	0.026500
N481	N48	0.988700	0.941200	0.008600
H561	H56	0.962300	0.977000	0.986800
C651	C65	0.948800	0.346700	0.030800
H571	H57	0.946800	0.331500	0.075400
C661	C66	0.978700	0.452200	0.724500
H581	H58	0.981800	0.466700	0.679800
C671	C67	0.091100	0.220800	0.766100
H591	H59	0.073100	0.227700	0.809600
C681	C68	0.215300	0.190700	0.466300
H601	H60	0.233000	0.185600	0.422500
C691	C69	0.101900	0.232300	0.289300
H611	H61	0.090400	0.229900	0.334600
C701	C70	0.188200	0.244300	0.977200
H621	H62	0.200100	0.245900	0.931900
C711	C71	0.042600	0.976900	0.291000
H631	H63	0.051400	0.992800	0.334900
C721	C72	0.023400	0.873900	0.981100
H641	H64	0.022300	0.861300	0.935900
C731	C73	0.976800	0.417800	0.941900
C741	C74	0.937900	0.344900	0.924600
C751	C75	0.924100	0.326200	0.858900
H651	H65	0.898600	0.279100	0.846000
C761	C76	0.950500	0.381700	0.814100
C771	C77	0.986700	0.454400	0.831600
C781	C78	0.004700	0.473100	0.896900
H661	H66	0.033100	0.518900	0.909300
C791	C79	0.165200	0.232000	0.679100
C801	C80	0.093200	0.192200	0.662700
C811	C81	0.077700	0.171800	0.597600
H671	H67	0.028300	0.150900	0.584600
C821	C82	0.138200	0.183700	0.552900
C831	C83	0.212100	0.220200	0.570300
C841	C84	0.226600	0.246900	0.633800
H681	H68	0.273800	0.272900	0.645700
C851	C85	0.165500	0.255600	0.196400
C861	C86	0.091600	0.219000	0.182800
C871	C87	0.067600	0.205300	0.118000
H691	H69	0.017500	0.184000	0.107600
C881	C88	0.121900	0.225000	0.070300
C891	C89	0.197500	0.260800	0.084100
C901	C90	0.219900	0.277200	0.147500
H701	H70	0.268700	0.301400	0.157600
C911	C91	0.007800	0.977400	0.185900
C921	C92	0.050500	0.906000	0.199500
C931	C93	0.070700	0.849300	0.152100
H711	H71	0.100100	0.803100	0.161300
C941	C94	0.042300	0.869100	0.089000
C951	C95	0.002800	0.942500	0.076100
C961	C96	0.981900	0.995900	0.123700
H721	H72	0.952000	0.041700	0.114500
S91	S9	0.946840	0.105060	0.901020
S101	S10	0.858030	0.202170	0.646910
S111	S11	0.835900	0.204920	0.163970
S121	S12	0.936030	0.106580	0.405720
O331	O33	0.873700	0.153500	0.907200
O341	O34	0.984000	0.123300	0.837400
O351	O35	0.998900	0.126200	0.956100
O361	O36	0.928200	0.018000	0.902700
O371	O37	0.901100	0.123700	0.643600
O381	O38	0.888600	0.256700	0.594600
O391	O39	0.873500	0.238500	0.711200
O401	O40	0.774100	0.189400	0.636800
O411	O41	0.887000	0.142400	0.459900
O421	O42	0.905600	0.139500	0.341900
O431	O43	0.924800	0.019800	0.406500
O441	O44	0.020100	0.129100	0.408400
O451	O45	0.887500	0.136500	0.186100
O461	O46	0.860800	0.229200	0.096700
O471	O47	0.752900	0.180500	0.163600
O481	O48	0.847400	0.271700	0.209900
Co131	Co13	0.646280	0.801950	0.499300
Co141	Co14	0.550030	0.886410	0.240150
Co151	Co15	0.630060	0.755090	0.998450
Co161	Co16	0.537790	0.867950	0.757640
N491	N49	0.582600	0.696200	0.483300
N501	N50	0.515000	0.583900	0.510000
H731	H73	0.491900	0.548500	0.534600
N511	N51	0.495500	0.500600	0.274100
N521	N52	0.552600	0.618900	0.245500
H741	H74	0.570800	0.656800	0.220600
N531	N53	0.451500	0.818200	0.218900
N541	N54	0.340500	0.752400	0.244800
H751	H75	0.304800	0.728600	0.268700
N551	N55	0.240200	0.778300	0.013000
N561	N56	0.356000	0.832700	0.985100
H761	H76	0.392300	0.854100	0.960300
N571	N57	0.446900	0.793400	0.742800
N581	N58	0.332100	0.738600	0.765200
H771	H77	0.293200	0.718900	0.788200
N591	N59	0.262500	0.730500	0.524400
N601	N60	0.380900	0.783700	0.502100
H781	H78	0.420000	0.803600	0.479400
N611	N61	0.498500	0.979900	0.746100
N621	N62	0.431100	0.090400	0.765300
H791	H79	0.405800	0.127100	0.787000
N631	N63	0.442300	0.169400	0.526500
N641	N64	0.511300	0.058800	0.508600
H801	H80	0.537700	0.023000	0.486800
C971	C97	0.551200	0.653300	0.530800
H811	H81	0.553200	0.668500	0.575400
C981	C98	0.521300	0.547800	0.224500
H821	H82	0.518200	0.533300	0.179800
C991	C99	0.408900	0.779200	0.266100
H831	H83	0.426900	0.772300	0.309600
C1001	C100	0.284700	0.809300	0.966300
H841	H84	0.267000	0.814400	0.922500
C1011	C101	0.398100	0.767700	0.789300
H851	H85	0.409600	0.770100	0.834600
C1021	C102	0.311800	0.755700	0.477200
H861	H86	0.299900	0.754100	0.431900
C1031	C103	0.457400	0.023100	0.791000
H871	H87	0.448600	0.007200	0.834900
C1041	C104	0.476600	0.126100	0.481100
H881	H88	0.477700	0.138700	0.435900
C1051	C105	0.523200	0.582200	0.441900
C1061	C106	0.562100	0.655100	0.424600
C1071	C107	0.575900	0.673800	0.358900
H891	H89	0.601400	0.720900	0.346000
C1081	C108	0.549500	0.618300	0.314100
C1091	C109	0.513300	0.545600	0.331600
C1101	C110	0.495300	0.526900	0.396900
H901	H90	0.466900	0.481100	0.409300
C1111	C111	0.334800	0.768000	0.179100
C1121	C112	0.406800	0.807800	0.162700
C1131	C113	0.422300	0.828200	0.097600
H911	H91	0.471700	0.849100	0.084600
C1141	C114	0.361800	0.816300	0.052900
C1151	C115	0.287900	0.779800	0.070300
C1161	C116	0.273400	0.753100	0.133800
H921	H92	0.226200	0.727100	0.145700
C1171	C117	0.334500	0.744400	0.696400
C1181	C118	0.408400	0.781000	0.682800
C1191	C119	0.432400	0.794700	0.618000
H931	H93	0.482500	0.816000	0.607600
C1201	C120	0.378100	0.775000	0.570300
C1211	C121	0.302500	0.739200	0.584100
C1221	C122	0.280100	0.722800	0.647500
H941	H94	0.231300	0.698600	0.657600
C1231	C123	0.492200	0.022600	0.685900
C1241	C124	0.449500	0.094000	0.699500
C1251	C125	0.429300	0.150700	0.652100
H951	H95	0.399900	0.196900	0.661300
C1261	C126	0.457700	0.130900	0.589000
C1271	C127	0.497200	0.057500	0.576100
C1281	C128	0.518100	0.004100	0.623700
H961	H96	0.548000	0.958300	0.614500
S131	S13	0.553160	0.894940	0.401020
S141	S14	0.641970	0.797830	0.146910
S151	S15	0.664100	0.795080	0.663970
S161	S16	0.563970	0.893420	0.905720
O491	O49	0.626300	0.846500	0.407200
O501	O50	0.516000	0.876700	0.337400
O511	O51	0.501100	0.873800	0.456100
O521	O52	0.571800	0.982000	0.402700
O531	O53	0.598900	0.876300	0.143600
O541	O54	0.611400	0.743300	0.094600
O551	O55	0.626500	0.761500	0.211200
O561	O56	0.725900	0.810600	0.136800
O571	O57	0.613000	0.857600	0.959900
O581	O58	0.594400	0.860500	0.841900
O591	O59	0.575200	0.980200	0.906500
O601	O60	0.479900	0.870900	0.908400
O611	O61	0.612500	0.863500	0.686100
O621	O62	0.639200	0.770800	0.596700
O631	O63	0.747100	0.819500	0.663600
O641	O64	0.652600	0.728300	0.709900
