data_DOPJAV_clean_PM
_symmetry_space_group_name_H-M	'P1'
_cell_length_a	17.530000
_cell_length_b	20.037000
_cell_length_c	21.050000
_cell_angle_alpha	90.000000
_cell_angle_beta	90.000000
_cell_angle_gamma	90.000000
_symmetry_Int_Tables_number 1

loop_
_symmetry_equiv_pos_as_xyz
'x,y,z'

loop_
_atom_site_label
_atom_site_type_symbol
_atom_site_fract_x
_atom_site_fract_y
_atom_site_fract_z
Cu11	Cu1	0.133700	0.588330	0.049100
Cu21	Cu2	0.977010	0.665960	0.069680
O11	O1	0.112560	0.434250	0.891300
O21	O2	0.306390	0.820260	0.977200
O31	O3	0.433400	0.698400	0.855000
O41	O4	0.070290	0.564580	0.975080
O51	O5	0.965500	0.629290	0.984890
O61	O6	0.371100	0.691800	0.625200
O71	O7	0.398600	0.816030	0.048090
O81	O8	0.058000	0.613160	0.753790
O91	O9	0.987500	0.418660	0.893060
N11	N1	0.285100	0.614400	0.597030
O101	O10	0.177300	0.499570	0.447470
O111	O11	0.401300	0.563300	0.464080
O121	O12	0.432400	0.566600	0.070780
O131	O13	0.412200	0.541500	0.568240
O141	O14	0.446400	0.593770	0.968860
C11	C1	0.310200	0.669500	0.817300
C21	C2	0.978300	0.567300	0.891500
O151	O15	0.241100	0.484000	0.537300
N21	N2	0.103300	0.557000	0.840020
C31	C3	0.237500	0.645000	0.830600
C41	C4	0.213100	0.632600	0.718100
C51	C5	0.359400	0.789800	0.002600
N31	N3	0.338400	0.697600	0.925910
C61	C6	0.316000	0.654900	0.638600
C71	C7	0.365900	0.690900	0.868200
C81	C8	0.221100	0.519100	0.492100
C91	C9	0.047100	0.454400	0.882260
C101	C10	0.189300	0.627400	0.780900
C111	C11	0.287400	0.652800	0.705200
C121	C12	0.335000	0.673200	0.754600
C131	C13	0.380100	0.567500	0.521500
C141	C14	0.110800	0.599500	0.791200
C151	C15	0.031800	0.523500	0.853000
C161	C16	0.308900	0.612300	0.530700
C171	C17	0.423500	0.604000	0.023600
C181	C18	0.383800	0.719200	0.980300
C191	C19	0.007900	0.588500	0.956100
C201	C20	0.244000	0.592500	0.487100
C211	C21	0.378400	0.669400	0.035200
Cu31	Cu3	0.494240	0.514780	0.439130
H11	H1	0.930900	0.543300	0.897500
H21	H2	0.967100	0.607000	0.867000
H31	H3	0.221400	0.640400	0.872400
H41	H4	0.178500	0.623700	0.684700
H51	H5	0.290900	0.688800	0.932000
H61	H6	0.383400	0.689200	0.745500
H71	H7	0.323400	0.657800	0.518800
H81	H8	0.258500	0.601800	0.444000
H91	H9	0.199900	0.619800	0.497400
H101	H10	0.325400	0.658200	0.042200
H111	H11	0.397800	0.690300	0.073400
H121	H12	0.438900	0.723000	0.968300
H131	H13	0.146300	0.544500	0.867200
H141	H14	0.258800	0.585400	0.609600
H151	H15	0.012200	0.512900	0.813800
Cu41	Cu4	0.133700	0.411670	0.450900
Cu51	Cu5	0.977010	0.334040	0.430320
O161	O16	0.112560	0.565750	0.608700
O171	O17	0.306390	0.179740	0.522800
O181	O18	0.433400	0.301600	0.645000
O191	O19	0.070290	0.435420	0.524920
O201	O20	0.965500	0.370710	0.515110
O211	O21	0.371100	0.308200	0.874800
O221	O22	0.398600	0.183970	0.451910
O231	O23	0.058000	0.386840	0.746210
O241	O24	0.987500	0.581340	0.606940
N41	N4	0.285100	0.385600	0.902970
O251	O25	0.177300	0.500430	0.052530
O261	O26	0.401300	0.436700	0.035920
O271	O27	0.432400	0.433400	0.429220
O281	O28	0.412200	0.458500	0.931760
O291	O29	0.446400	0.406230	0.531140
C221	C22	0.310200	0.330500	0.682700
C231	C23	0.978300	0.432700	0.608500
O301	O30	0.241100	0.516000	0.962700
N51	N5	0.103300	0.443000	0.659980
C241	C24	0.237500	0.355000	0.669400
C251	C25	0.213100	0.367400	0.781900
C261	C26	0.359400	0.210200	0.497400
N61	N6	0.338400	0.302400	0.574090
C271	C27	0.316000	0.345100	0.861400
C281	C28	0.365900	0.309100	0.631800
C291	C29	0.221100	0.480900	0.007900
C301	C30	0.047100	0.545600	0.617740
C311	C31	0.189300	0.372600	0.719100
C321	C32	0.287400	0.347200	0.794800
C331	C33	0.335000	0.326800	0.745400
C341	C34	0.380100	0.432500	0.978500
C351	C35	0.110800	0.400500	0.708800
C361	C36	0.031800	0.476500	0.647000
C371	C37	0.308900	0.387700	0.969300
C381	C38	0.423500	0.396000	0.476400
C391	C39	0.383800	0.280800	0.519700
C401	C40	0.007900	0.411500	0.543900
C411	C41	0.244000	0.407500	0.012900
C421	C42	0.378400	0.330600	0.464800
Cu61	Cu6	0.494240	0.485220	0.060870
H161	H16	0.930900	0.456700	0.602500
H171	H17	0.967100	0.393000	0.633000
H181	H18	0.221400	0.359600	0.627600
H191	H19	0.178500	0.376300	0.815300
H201	H20	0.290900	0.311200	0.568000
H211	H21	0.383400	0.310800	0.754500
H221	H22	0.323400	0.342200	0.981200
H231	H23	0.258500	0.398200	0.056000
H241	H24	0.199900	0.380200	0.002600
H251	H25	0.325400	0.341800	0.457800
H261	H26	0.397800	0.309700	0.426600
H271	H27	0.438900	0.277000	0.531700
H281	H28	0.146300	0.455500	0.632800
H291	H29	0.258800	0.414600	0.890400
H301	H30	0.012200	0.487100	0.686200
Cu71	Cu7	0.366300	0.088330	0.450900
Cu81	Cu8	0.522990	0.165960	0.430320
O311	O31	0.387440	0.934250	0.608700
O321	O32	0.193610	0.320260	0.522800
O331	O33	0.066600	0.198400	0.645000
O341	O34	0.429710	0.064580	0.524920
O351	O35	0.534500	0.129290	0.515110
O361	O36	0.128900	0.191800	0.874800
O371	O37	0.101400	0.316030	0.451910
O381	O38	0.442000	0.113160	0.746210
O391	O39	0.512500	0.918660	0.606940
N71	N7	0.214900	0.114400	0.902970
O401	O40	0.322700	0.999570	0.052530
O411	O41	0.098700	0.063300	0.035920
O421	O42	0.067600	0.066600	0.429220
O431	O43	0.087800	0.041500	0.931760
O441	O44	0.053600	0.093770	0.531140
C431	C43	0.189800	0.169500	0.682700
C441	C44	0.521700	0.067300	0.608500
O451	O45	0.258900	0.984000	0.962700
N81	N8	0.396700	0.057000	0.659980
C451	C45	0.262500	0.145000	0.669400
C461	C46	0.286900	0.132600	0.781900
C471	C47	0.140600	0.289800	0.497400
N91	N9	0.161600	0.197600	0.574090
C481	C48	0.184000	0.154900	0.861400
C491	C49	0.134100	0.190900	0.631800
C501	C50	0.278900	0.019100	0.007900
C511	C51	0.452900	0.954400	0.617740
C521	C52	0.310700	0.127400	0.719100
C531	C53	0.212600	0.152800	0.794800
C541	C54	0.165000	0.173200	0.745400
C551	C55	0.119900	0.067500	0.978500
C561	C56	0.389200	0.099500	0.708800
C571	C57	0.468200	0.023500	0.647000
C581	C58	0.191100	0.112300	0.969300
C591	C59	0.076500	0.104000	0.476400
C601	C60	0.116200	0.219200	0.519700
C611	C61	0.492100	0.088500	0.543900
C621	C62	0.256000	0.092500	0.012900
C631	C63	0.121600	0.169400	0.464800
Cu91	Cu9	0.005760	0.014780	0.060870
H311	H31	0.569100	0.043300	0.602500
H321	H32	0.532900	0.107000	0.633000
H331	H33	0.278600	0.140400	0.627600
H341	H34	0.321500	0.123700	0.815300
H351	H35	0.209100	0.188800	0.568000
H361	H36	0.116600	0.189200	0.754500
H371	H37	0.176600	0.157800	0.981200
H381	H38	0.241500	0.101800	0.056000
H391	H39	0.300100	0.119800	0.002600
H401	H40	0.174600	0.158200	0.457800
H411	H41	0.102200	0.190300	0.426600
H421	H42	0.061100	0.223000	0.531700
H431	H43	0.353700	0.044500	0.632800
H441	H44	0.241200	0.085400	0.890400
H451	H45	0.487800	0.012900	0.686200
Cu101	Cu10	0.366300	0.911670	0.049100
Cu111	Cu11	0.522990	0.834040	0.069680
O461	O46	0.387440	0.065750	0.891300
O471	O47	0.193610	0.679740	0.977200
O481	O48	0.066600	0.801600	0.855000
O491	O49	0.429710	0.935420	0.975080
O501	O50	0.534500	0.870710	0.984890
O511	O51	0.128900	0.808200	0.625200
O521	O52	0.101400	0.683970	0.048090
O531	O53	0.442000	0.886840	0.753790
O541	O54	0.512500	0.081340	0.893060
N101	N10	0.214900	0.885600	0.597030
O551	O55	0.322700	0.000430	0.447470
O561	O56	0.098700	0.936700	0.464080
O571	O57	0.067600	0.933400	0.070780
O581	O58	0.087800	0.958500	0.568240
O591	O59	0.053600	0.906230	0.968860
C641	C64	0.189800	0.830500	0.817300
C651	C65	0.521700	0.932700	0.891500
O601	O60	0.258900	0.016000	0.537300
N111	N11	0.396700	0.943000	0.840020
C661	C66	0.262500	0.855000	0.830600
C671	C67	0.286900	0.867400	0.718100
C681	C68	0.140600	0.710200	0.002600
N121	N12	0.161600	0.802400	0.925910
C691	C69	0.184000	0.845100	0.638600
C701	C70	0.134100	0.809100	0.868200
C711	C71	0.278900	0.980900	0.492100
C721	C72	0.452900	0.045600	0.882260
C731	C73	0.310700	0.872600	0.780900
C741	C74	0.212600	0.847200	0.705200
C751	C75	0.165000	0.826800	0.754600
C761	C76	0.119900	0.932500	0.521500
C771	C77	0.389200	0.900500	0.791200
C781	C78	0.468200	0.976500	0.853000
C791	C79	0.191100	0.887700	0.530700
C801	C80	0.076500	0.896000	0.023600
C811	C81	0.116200	0.780800	0.980300
C821	C82	0.492100	0.911500	0.956100
C831	C83	0.256000	0.907500	0.487100
C841	C84	0.121600	0.830600	0.035200
Cu121	Cu12	0.005760	0.985220	0.439130
H461	H46	0.569100	0.956700	0.897500
H471	H47	0.532900	0.893000	0.867000
H481	H48	0.278600	0.859600	0.872400
H491	H49	0.321500	0.876300	0.684700
H501	H50	0.209100	0.811200	0.932000
H511	H51	0.116600	0.810800	0.745500
H521	H52	0.176600	0.842200	0.518800
H531	H53	0.241500	0.898200	0.444000
H541	H54	0.300100	0.880200	0.497400
H551	H55	0.174600	0.841800	0.042200
H561	H56	0.102200	0.809700	0.073400
H571	H57	0.061100	0.777000	0.968300
H581	H58	0.353700	0.955500	0.867200
H591	H59	0.241200	0.914600	0.609600
H601	H60	0.487800	0.987100	0.813800
Cu131	Cu13	0.866300	0.411670	0.950900
Cu141	Cu14	0.022990	0.334040	0.930320
O611	O61	0.887440	0.565750	0.108700
O621	O62	0.693610	0.179740	0.022800
O631	O63	0.566600	0.301600	0.145000
O641	O64	0.929710	0.435420	0.024920
O651	O65	0.034500	0.370710	0.015110
O661	O66	0.628900	0.308200	0.374800
O671	O67	0.601400	0.183970	0.951910
O681	O68	0.942000	0.386840	0.246210
O691	O69	0.012500	0.581340	0.106940
N131	N13	0.714900	0.385600	0.402970
O701	O70	0.822700	0.500430	0.552530
O711	O71	0.598700	0.436700	0.535920
O721	O72	0.567600	0.433400	0.929220
O731	O73	0.587800	0.458500	0.431760
O741	O74	0.553600	0.406230	0.031140
C851	C85	0.689800	0.330500	0.182700
C861	C86	0.021700	0.432700	0.108500
O751	O75	0.758900	0.516000	0.462700
N141	N14	0.896700	0.443000	0.159980
C871	C87	0.762500	0.355000	0.169400
C881	C88	0.786900	0.367400	0.281900
C891	C89	0.640600	0.210200	0.997400
N151	N15	0.661600	0.302400	0.074090
C901	C90	0.684000	0.345100	0.361400
C911	C91	0.634100	0.309100	0.131800
C921	C92	0.778900	0.480900	0.507900
C931	C93	0.952900	0.545600	0.117740
C941	C94	0.810700	0.372600	0.219100
C951	C95	0.712600	0.347200	0.294800
C961	C96	0.665000	0.326800	0.245400
C971	C97	0.619900	0.432500	0.478500
C981	C98	0.889200	0.400500	0.208800
C991	C99	0.968200	0.476500	0.147000
C1001	C100	0.691100	0.387700	0.469300
C1011	C101	0.576500	0.396000	0.976400
C1021	C102	0.616200	0.280800	0.019700
C1031	C103	0.992100	0.411500	0.043900
C1041	C104	0.756000	0.407500	0.512900
C1051	C105	0.621600	0.330600	0.964800
Cu151	Cu15	0.505760	0.485220	0.560870
H611	H61	0.069100	0.456700	0.102500
H621	H62	0.032900	0.393000	0.133000
H631	H63	0.778600	0.359600	0.127600
H641	H64	0.821500	0.376300	0.315300
H651	H65	0.709100	0.311200	0.068000
H661	H66	0.616600	0.310800	0.254500
H671	H67	0.676600	0.342200	0.481200
H681	H68	0.741500	0.398200	0.556000
H691	H69	0.800100	0.380200	0.502600
H701	H70	0.674600	0.341800	0.957800
H711	H71	0.602200	0.309700	0.926600
H721	H72	0.561100	0.277000	0.031700
H731	H73	0.853700	0.455500	0.132800
H741	H74	0.741200	0.414600	0.390400
H751	H75	0.987800	0.487100	0.186200
Cu161	Cu16	0.866300	0.588330	0.549100
Cu171	Cu17	0.022990	0.665960	0.569680
O761	O76	0.887440	0.434250	0.391300
O771	O77	0.693610	0.820260	0.477200
O781	O78	0.566600	0.698400	0.355000
O791	O79	0.929710	0.564580	0.475080
O801	O80	0.034500	0.629290	0.484890
O811	O81	0.628900	0.691800	0.125200
O821	O82	0.601400	0.816030	0.548090
O831	O83	0.942000	0.613160	0.253790
O841	O84	0.012500	0.418660	0.393060
N161	N16	0.714900	0.614400	0.097030
O851	O85	0.822700	0.499570	0.947470
O861	O86	0.598700	0.563300	0.964080
O871	O87	0.567600	0.566600	0.570780
O881	O88	0.587800	0.541500	0.068240
O891	O89	0.553600	0.593770	0.468860
C1061	C106	0.689800	0.669500	0.317300
C1071	C107	0.021700	0.567300	0.391500
O901	O90	0.758900	0.484000	0.037300
N171	N17	0.896700	0.557000	0.340020
C1081	C108	0.762500	0.645000	0.330600
C1091	C109	0.786900	0.632600	0.218100
C1101	C110	0.640600	0.789800	0.502600
N181	N18	0.661600	0.697600	0.425910
C1111	C111	0.684000	0.654900	0.138600
C1121	C112	0.634100	0.690900	0.368200
C1131	C113	0.778900	0.519100	0.992100
C1141	C114	0.952900	0.454400	0.382260
C1151	C115	0.810700	0.627400	0.280900
C1161	C116	0.712600	0.652800	0.205200
C1171	C117	0.665000	0.673200	0.254600
C1181	C118	0.619900	0.567500	0.021500
C1191	C119	0.889200	0.599500	0.291200
C1201	C120	0.968200	0.523500	0.353000
C1211	C121	0.691100	0.612300	0.030700
C1221	C122	0.576500	0.604000	0.523600
C1231	C123	0.616200	0.719200	0.480300
C1241	C124	0.992100	0.588500	0.456100
C1251	C125	0.756000	0.592500	0.987100
C1261	C126	0.621600	0.669400	0.535200
Cu181	Cu18	0.505760	0.514780	0.939130
H761	H76	0.069100	0.543300	0.397500
H771	H77	0.032900	0.607000	0.367000
H781	H78	0.778600	0.640400	0.372400
H791	H79	0.821500	0.623700	0.184700
H801	H80	0.709100	0.688800	0.432000
H811	H81	0.616600	0.689200	0.245500
H821	H82	0.676600	0.657800	0.018800
H831	H83	0.741500	0.601800	0.944000
H841	H84	0.800100	0.619800	0.997400
H851	H85	0.674600	0.658200	0.542200
H861	H86	0.602200	0.690300	0.573400
H871	H87	0.561100	0.723000	0.468300
H881	H88	0.853700	0.544500	0.367200
H891	H89	0.741200	0.585400	0.109600
H901	H90	0.987800	0.512900	0.313800
Cu191	Cu19	0.633700	0.911670	0.549100
Cu201	Cu20	0.477010	0.834040	0.569680
O911	O91	0.612560	0.065750	0.391300
O921	O92	0.806390	0.679740	0.477200
O931	O93	0.933400	0.801600	0.355000
O941	O94	0.570290	0.935420	0.475080
O951	O95	0.465500	0.870710	0.484890
O961	O96	0.871100	0.808200	0.125200
O971	O97	0.898600	0.683970	0.548090
O981	O98	0.558000	0.886840	0.253790
O991	O99	0.487500	0.081340	0.393060
N191	N19	0.785100	0.885600	0.097030
O1001	O100	0.677300	0.000430	0.947470
O1011	O101	0.901300	0.936700	0.964080
O1021	O102	0.932400	0.933400	0.570780
O1031	O103	0.912200	0.958500	0.068240
O1041	O104	0.946400	0.906230	0.468860
C1271	C127	0.810200	0.830500	0.317300
C1281	C128	0.478300	0.932700	0.391500
O1051	O105	0.741100	0.016000	0.037300
N201	N20	0.603300	0.943000	0.340020
C1291	C129	0.737500	0.855000	0.330600
C1301	C130	0.713100	0.867400	0.218100
C1311	C131	0.859400	0.710200	0.502600
N211	N21	0.838400	0.802400	0.425910
C1321	C132	0.816000	0.845100	0.138600
C1331	C133	0.865900	0.809100	0.368200
C1341	C134	0.721100	0.980900	0.992100
C1351	C135	0.547100	0.045600	0.382260
C1361	C136	0.689300	0.872600	0.280900
C1371	C137	0.787400	0.847200	0.205200
C1381	C138	0.835000	0.826800	0.254600
C1391	C139	0.880100	0.932500	0.021500
C1401	C140	0.610800	0.900500	0.291200
C1411	C141	0.531800	0.976500	0.353000
C1421	C142	0.808900	0.887700	0.030700
C1431	C143	0.923500	0.896000	0.523600
C1441	C144	0.883800	0.780800	0.480300
C1451	C145	0.507900	0.911500	0.456100
C1461	C146	0.744000	0.907500	0.987100
C1471	C147	0.878400	0.830600	0.535200
Cu211	Cu21	0.994240	0.985220	0.939130
H911	H91	0.430900	0.956700	0.397500
H921	H92	0.467100	0.893000	0.367000
H931	H93	0.721400	0.859600	0.372400
H941	H94	0.678500	0.876300	0.184700
H951	H95	0.790900	0.811200	0.432000
H961	H96	0.883400	0.810800	0.245500
H971	H97	0.823400	0.842200	0.018800
H981	H98	0.758500	0.898200	0.944000
H991	H99	0.699900	0.880200	0.997400
H1001	H100	0.825400	0.841800	0.542200
H1011	H101	0.897800	0.809700	0.573400
H1021	H102	0.938900	0.777000	0.468300
H1031	H103	0.646300	0.955500	0.367200
H1041	H104	0.758800	0.914600	0.109600
H1051	H105	0.512200	0.987100	0.313800
Cu221	Cu22	0.633700	0.088330	0.950900
Cu231	Cu23	0.477010	0.165960	0.930320
O1061	O106	0.612560	0.934250	0.108700
O1071	O107	0.806390	0.320260	0.022800
O1081	O108	0.933400	0.198400	0.145000
O1091	O109	0.570290	0.064580	0.024920
O1101	O110	0.465500	0.129290	0.015110
O1111	O111	0.871100	0.191800	0.374800
O1121	O112	0.898600	0.316030	0.951910
O1131	O113	0.558000	0.113160	0.246210
O1141	O114	0.487500	0.918660	0.106940
N221	N22	0.785100	0.114400	0.402970
O1151	O115	0.677300	0.999570	0.552530
O1161	O116	0.901300	0.063300	0.535920
O1171	O117	0.932400	0.066600	0.929220
O1181	O118	0.912200	0.041500	0.431760
O1191	O119	0.946400	0.093770	0.031140
C1481	C148	0.810200	0.169500	0.182700
C1491	C149	0.478300	0.067300	0.108500
O1201	O120	0.741100	0.984000	0.462700
N231	N23	0.603300	0.057000	0.159980
C1501	C150	0.737500	0.145000	0.169400
C1511	C151	0.713100	0.132600	0.281900
C1521	C152	0.859400	0.289800	0.997400
N241	N24	0.838400	0.197600	0.074090
C1531	C153	0.816000	0.154900	0.361400
C1541	C154	0.865900	0.190900	0.131800
C1551	C155	0.721100	0.019100	0.507900
C1561	C156	0.547100	0.954400	0.117740
C1571	C157	0.689300	0.127400	0.219100
C1581	C158	0.787400	0.152800	0.294800
C1591	C159	0.835000	0.173200	0.245400
C1601	C160	0.880100	0.067500	0.478500
C1611	C161	0.610800	0.099500	0.208800
C1621	C162	0.531800	0.023500	0.147000
C1631	C163	0.808900	0.112300	0.469300
C1641	C164	0.923500	0.104000	0.976400
C1651	C165	0.883800	0.219200	0.019700
C1661	C166	0.507900	0.088500	0.043900
C1671	C167	0.744000	0.092500	0.512900
C1681	C168	0.878400	0.169400	0.964800
Cu241	Cu24	0.994240	0.014780	0.560870
H1061	H106	0.430900	0.043300	0.102500
H1071	H107	0.467100	0.107000	0.133000
H1081	H108	0.721400	0.140400	0.127600
H1091	H109	0.678500	0.123700	0.315300
H1101	H110	0.790900	0.188800	0.068000
H1111	H111	0.883400	0.189200	0.254500
H1121	H112	0.823400	0.157800	0.481200
H1131	H113	0.758500	0.101800	0.556000
H1141	H114	0.699900	0.119800	0.502600
H1151	H115	0.825400	0.158200	0.957800
H1161	H116	0.897800	0.190300	0.926600
H1171	H117	0.938900	0.223000	0.031700
H1181	H118	0.646300	0.044500	0.132800
H1191	H119	0.758800	0.085400	0.390400
H1201	H120	0.512200	0.012900	0.186200
