data_DOQGUM_clean_PM
_symmetry_space_group_name_H-M	'P1'
_cell_length_a	7.199100
_cell_length_b	10.292600
_cell_length_c	13.383800
_cell_angle_alpha	90.000000
_cell_angle_beta	90.000000
_cell_angle_gamma	98.898000
_symmetry_Int_Tables_number 1

loop_
_symmetry_equiv_pos_as_xyz
'x,y,z'

loop_
_atom_site_label
_atom_site_type_symbol
_atom_site_fract_x
_atom_site_fract_y
_atom_site_fract_z
La11	La1	0.159280	0.282380	0.905940
La21	La2	0.840720	0.217620	0.405940
La31	La3	0.840720	0.717620	0.094060
La41	La4	0.159280	0.782380	0.594060
P11	P1	0.785020	0.073600	0.051930
P21	P2	0.214980	0.426400	0.551930
P31	P3	0.214980	0.926400	0.948070
P41	P4	0.785020	0.573600	0.448070
H11	H1	0.590000	0.192800	0.049100
H21	H2	0.873500	0.001800	0.255900
H31	H3	0.060200	0.087100	0.148100
H41	H4	0.410000	0.307200	0.549100
H51	H5	0.126500	0.498200	0.755900
H61	H6	0.939800	0.412900	0.648100
H71	H7	0.410000	0.807200	0.950900
H81	H8	0.126500	0.998200	0.744100
H91	H9	0.939800	0.912900	0.851900
H101	H10	0.590000	0.692800	0.450900
H111	H11	0.873500	0.501800	0.244100
H121	H12	0.060200	0.587100	0.351900
C11	C1	0.945400	0.126300	0.156000
C21	C2	0.997400	0.274500	0.162900
C31	C3	0.453500	0.554800	0.974000
C41	C4	0.054600	0.373700	0.656000
C51	C5	0.002600	0.225500	0.662900
C61	C6	0.546500	0.945200	0.474000
C71	C7	0.054600	0.873700	0.844000
C81	C8	0.002600	0.725500	0.837100
C91	C9	0.546500	0.445200	0.026000
C101	C10	0.945400	0.626300	0.344000
C111	C11	0.997400	0.774500	0.337100
C121	C12	0.453500	0.054800	0.526000
O11	O1	0.602200	0.129200	0.084000
O21	O2	0.864700	0.131500	0.955240
O31	O3	0.743100	0.926800	0.057940
O41	O4	0.850400	0.076000	0.244780
O51	O5	0.078700	0.332700	0.088910
O61	O6	0.959700	0.330300	0.242780
O71	O7	0.309900	0.520700	0.923530
O81	O8	0.532600	0.670800	0.990150
O91	O9	0.397800	0.370800	0.584000
O101	O10	0.135300	0.368500	0.455240
O111	O11	0.256900	0.573200	0.557940
O121	O12	0.149600	0.424000	0.744780
O131	O13	0.921300	0.167300	0.588910
O141	O14	0.040300	0.169700	0.742780
O151	O15	0.690100	0.979300	0.423530
O161	O16	0.467400	0.829200	0.490150
O171	O17	0.397800	0.870800	0.916000
O181	O18	0.135300	0.868500	0.044760
O191	O19	0.256900	0.073200	0.942060
O201	O20	0.149600	0.924000	0.755220
O211	O21	0.921300	0.667300	0.911090
O221	O22	0.040300	0.669700	0.757220
O231	O23	0.690100	0.479300	0.076470
O241	O24	0.467400	0.329200	0.009850
O251	O25	0.602200	0.629200	0.416000
O261	O26	0.864700	0.631500	0.544760
O271	O27	0.743100	0.426800	0.442060
O281	O28	0.850400	0.576000	0.255220
O291	O29	0.078700	0.832700	0.411090
O301	O30	0.959700	0.830300	0.257220
O311	O31	0.309900	0.020700	0.576470
O321	O32	0.532600	0.170800	0.509850
