data_DOQHAT_clean_PM
_symmetry_space_group_name_H-M	'P1'
_cell_length_a	7.226000
_cell_length_b	10.274500
_cell_length_c	13.291800
_cell_angle_alpha	90.000000
_cell_angle_beta	90.000000
_cell_angle_gamma	99.493000
_symmetry_Int_Tables_number 1

loop_
_symmetry_equiv_pos_as_xyz
'x,y,z'

loop_
_atom_site_label
_atom_site_type_symbol
_atom_site_fract_x
_atom_site_fract_y
_atom_site_fract_z
Ce11	Ce1	0.161440	0.281770	0.905560
Ce21	Ce2	0.838560	0.218230	0.405560
Ce31	Ce3	0.838560	0.718230	0.094440
Ce41	Ce4	0.161440	0.781770	0.594440
P11	P1	0.786280	0.072450	0.050610
P21	P2	0.213720	0.427550	0.550610
P31	P3	0.213720	0.927550	0.949390
P41	P4	0.786280	0.572450	0.449390
H11	H1	0.592400	0.190500	0.046500
H21	H2	0.870500	0.001300	0.257000
H31	H3	0.059000	0.086100	0.148700
H41	H4	0.407600	0.309500	0.546500
H51	H5	0.129500	0.498700	0.757000
H61	H6	0.941000	0.413900	0.648700
H71	H7	0.407600	0.809500	0.953500
H81	H8	0.129500	0.998700	0.743000
H91	H9	0.941000	0.913900	0.851300
H101	H10	0.592400	0.690500	0.453500
H111	H11	0.870500	0.501300	0.243000
H121	H12	0.059000	0.586100	0.351300
C11	C1	0.945100	0.125500	0.155900
C21	C2	0.998900	0.274500	0.162700
C31	C3	0.454000	0.554900	0.974700
C41	C4	0.054900	0.374500	0.655900
C51	C5	0.001100	0.225500	0.662700
C61	C6	0.546000	0.945100	0.474700
C71	C7	0.054900	0.874500	0.844100
C81	C8	0.001100	0.725500	0.837300
C91	C9	0.546000	0.445100	0.025300
C101	C10	0.945100	0.625500	0.344100
C111	C11	0.998900	0.774500	0.337300
C121	C12	0.454000	0.054900	0.525300
O11	O1	0.603700	0.126900	0.081800
O21	O2	0.867700	0.131900	0.954030
O31	O3	0.743800	0.924700	0.056200
O41	O4	0.848300	0.075500	0.245190
O51	O5	0.079300	0.333700	0.088030
O61	O6	0.960400	0.330700	0.243000
O71	O7	0.308700	0.519400	0.924800
O81	O8	0.532400	0.671800	0.991100
O91	O9	0.396300	0.373100	0.581800
O101	O10	0.132300	0.368100	0.454030
O111	O11	0.256200	0.575300	0.556200
O121	O12	0.151700	0.424500	0.745190
O131	O13	0.920700	0.166300	0.588030
O141	O14	0.039600	0.169300	0.743000
O151	O15	0.691300	0.980600	0.424800
O161	O16	0.467600	0.828200	0.491100
O171	O17	0.396300	0.873100	0.918200
O181	O18	0.132300	0.868100	0.045970
O191	O19	0.256200	0.075300	0.943800
O201	O20	0.151700	0.924500	0.754810
O211	O21	0.920700	0.666300	0.911970
O221	O22	0.039600	0.669300	0.757000
O231	O23	0.691300	0.480600	0.075200
O241	O24	0.467600	0.328200	0.008900
O251	O25	0.603700	0.626900	0.418200
O261	O26	0.867700	0.631900	0.545970
O271	O27	0.743800	0.424700	0.443800
O281	O28	0.848300	0.575500	0.254810
O291	O29	0.079300	0.833700	0.411970
O301	O30	0.960400	0.830700	0.257000
O311	O31	0.308700	0.019400	0.575200
O321	O32	0.532400	0.171800	0.508900
