data_DORFUM_clean_PM
_symmetry_space_group_name_H-M	'P1'
_cell_length_a	12.223400
_cell_length_b	18.184000
_cell_length_c	18.256000
_cell_angle_alpha	103.438000
_cell_angle_beta	90.000000
_cell_angle_gamma	90.000000
_symmetry_Int_Tables_number 1

loop_
_symmetry_equiv_pos_as_xyz
'x,y,z'

loop_
_atom_site_label
_atom_site_type_symbol
_atom_site_fract_x
_atom_site_fract_y
_atom_site_fract_z
K11	K1	0.467280	0.702170	0.860130
K21	K2	0.946430	0.898680	0.476350
K31	K3	0.967280	0.297830	0.639870
K41	K4	0.446430	0.101320	0.023650
K51	K5	0.532720	0.297830	0.139870
K61	K6	0.053570	0.101320	0.523650
K71	K7	0.032720	0.702170	0.360130
K81	K8	0.553570	0.898680	0.976350
Fe11	Fe1	0.916370	0.733450	0.564670
Fe21	Fe2	0.416370	0.266550	0.935330
Fe31	Fe3	0.083630	0.266550	0.435330
Fe41	Fe4	0.583630	0.733450	0.064670
H11	H1	0.821500	0.764400	0.763600
H21	H2	0.083300	0.701600	0.725300
H31	H3	0.864700	0.587400	0.672300
H41	H4	0.960300	0.764500	0.869200
H51	H5	0.918900	0.711800	0.922300
H61	H6	0.739400	0.716300	0.877500
H71	H7	0.783600	0.800000	0.912500
H81	H8	0.525300	0.887900	0.738500
H91	H9	0.508300	0.925600	0.627000
H101	H10	0.639000	0.889200	0.530100
H111	H11	0.058000	0.582000	0.786400
H121	H12	0.043700	0.614000	0.875100
H131	H13	0.124700	0.729300	0.866600
H141	H14	0.206200	0.660300	0.835200
H151	H15	0.396200	0.774700	0.652600
H161	H16	0.395900	0.812100	0.539900
H171	H17	0.234000	0.813800	0.472200
H181	H18	0.778100	0.618600	0.807300
H191	H19	0.852700	0.584200	0.863100
H201	H20	0.937900	0.502900	0.759800
H211	H21	0.808400	0.489300	0.757300
H221	H22	0.845500	0.391400	0.482900
H231	H23	0.856700	0.415600	0.362300
H241	H24	0.881400	0.536700	0.347800
H251	H25	0.321500	0.235600	0.736400
H261	H26	0.583300	0.298400	0.774700
H271	H27	0.364700	0.412600	0.827700
H281	H28	0.460300	0.235500	0.630800
H291	H29	0.418900	0.288200	0.577700
H301	H30	0.239400	0.283700	0.622500
H311	H31	0.283600	0.200000	0.587500
H321	H32	0.025300	0.112100	0.761500
H331	H33	0.008300	0.074400	0.873000
H341	H34	0.139000	0.110800	0.969900
H351	H35	0.558000	0.418000	0.713600
H361	H36	0.543700	0.386000	0.624900
H371	H37	0.624700	0.270700	0.633400
H381	H38	0.706200	0.339700	0.664800
H391	H39	0.896200	0.225300	0.847400
H401	H40	0.895900	0.187900	0.960100
H411	H41	0.734000	0.186200	0.027800
H421	H42	0.278100	0.381400	0.692700
H431	H43	0.352700	0.415800	0.636900
H441	H44	0.437900	0.497100	0.740200
H451	H45	0.308400	0.510700	0.742700
H461	H46	0.345500	0.608600	0.017100
H471	H47	0.356700	0.584400	0.137700
H481	H48	0.381400	0.463300	0.152200
H491	H49	0.178500	0.235600	0.236400
H501	H50	0.916700	0.298400	0.274700
H511	H51	0.135300	0.412600	0.327700
H521	H52	0.039700	0.235500	0.130800
H531	H53	0.081100	0.288200	0.077700
H541	H54	0.260600	0.283700	0.122500
H551	H55	0.216400	0.200000	0.087500
H561	H56	0.474700	0.112100	0.261500
H571	H57	0.491700	0.074400	0.373000
H581	H58	0.361000	0.110800	0.469900
H591	H59	0.942000	0.418000	0.213600
H601	H60	0.956300	0.386000	0.124900
H611	H61	0.875300	0.270700	0.133400
H621	H62	0.793800	0.339700	0.164800
H631	H63	0.603800	0.225300	0.347400
H641	H64	0.604100	0.187900	0.460100
H651	H65	0.766000	0.186200	0.527800
H661	H66	0.221900	0.381400	0.192700
H671	H67	0.147300	0.415800	0.136900
H681	H68	0.062100	0.497100	0.240200
H691	H69	0.191600	0.510700	0.242700
H701	H70	0.154500	0.608600	0.517100
H711	H71	0.143300	0.584400	0.637700
H721	H72	0.118600	0.463300	0.652200
H731	H73	0.678500	0.764400	0.263600
H741	H74	0.416700	0.701600	0.225300
H751	H75	0.635300	0.587400	0.172300
H761	H76	0.539700	0.764500	0.369200
H771	H77	0.581100	0.711800	0.422300
H781	H78	0.760600	0.716300	0.377500
H791	H79	0.716400	0.800000	0.412500
H801	H80	0.974700	0.887900	0.238500
H811	H81	0.991700	0.925600	0.127000
H821	H82	0.861000	0.889200	0.030100
H831	H83	0.442000	0.582000	0.286400
H841	H84	0.456300	0.614000	0.375100
H851	H85	0.375300	0.729300	0.366600
H861	H86	0.293800	0.660300	0.335200
H871	H87	0.103800	0.774700	0.152600
H881	H88	0.104100	0.812100	0.039900
H891	H89	0.266000	0.813800	0.972200
H901	H90	0.721900	0.618600	0.307300
H911	H91	0.647300	0.584200	0.363100
H921	H92	0.562100	0.502900	0.259800
H931	H93	0.691600	0.489300	0.257300
H941	H94	0.654500	0.391400	0.982900
H951	H95	0.643300	0.415600	0.862300
H961	H96	0.618600	0.536700	0.847800
C11	C1	0.907800	0.724100	0.872700
C21	C2	0.793100	0.754900	0.870600
C31	C3	0.679200	0.810300	0.787200
C41	C4	0.670000	0.831200	0.714500
C51	C5	0.580000	0.873900	0.700900
C61	C6	0.569300	0.895700	0.634300
C71	C7	0.647600	0.874400	0.576400
C81	C8	0.735900	0.832300	0.587800
C91	C9	0.748700	0.811200	0.657200
C101	C10	0.043600	0.628300	0.826000
C111	C11	0.136200	0.683700	0.825600
C121	C12	0.235300	0.731300	0.728900
C131	C13	0.232700	0.751700	0.654800
C141	C14	0.329600	0.774600	0.625800
C151	C15	0.329300	0.797000	0.558800
C161	C16	0.232800	0.797800	0.518200
C171	C17	0.135800	0.775600	0.544900
C181	C18	0.135900	0.750300	0.613200
C191	C19	0.851300	0.597400	0.813400
C201	C20	0.866500	0.525900	0.752700
C211	C21	0.856500	0.500700	0.540200
C221	C22	0.853100	0.441900	0.477500
C231	C23	0.860900	0.456300	0.405500
C241	C24	0.874300	0.527900	0.396800
C251	C25	0.854900	0.483700	0.617400
C261	C26	0.877600	0.589000	0.460300
C271	C27	0.407800	0.275900	0.627300
C281	C28	0.293100	0.245100	0.629400
C291	C29	0.179200	0.189700	0.712800
C301	C30	0.170000	0.168800	0.785500
C311	C31	0.080000	0.126100	0.799100
C321	C32	0.069300	0.104300	0.865700
C331	C33	0.147600	0.125600	0.923600
C341	C34	0.235900	0.167700	0.912200
C351	C35	0.248700	0.188800	0.842800
C361	C36	0.543600	0.371700	0.674000
C371	C37	0.636200	0.316300	0.674400
C381	C38	0.735300	0.268700	0.771100
C391	C39	0.732700	0.248300	0.845200
C401	C40	0.829600	0.225400	0.874200
C411	C41	0.829300	0.203000	0.941200
C421	C42	0.732800	0.202200	0.981800
C431	C43	0.635800	0.224400	0.955100
C441	C44	0.635900	0.249700	0.886800
C451	C45	0.351300	0.402600	0.686600
C461	C46	0.366500	0.474100	0.747300
C471	C47	0.356500	0.499300	0.959800
C481	C48	0.353100	0.558100	0.022500
C491	C49	0.360900	0.543700	0.094500
C501	C50	0.374300	0.472100	0.103200
C511	C51	0.354900	0.516300	0.882600
C521	C52	0.377600	0.411000	0.039700
C531	C53	0.092200	0.275900	0.127300
C541	C54	0.206900	0.245100	0.129400
C551	C55	0.320800	0.189700	0.212800
C561	C56	0.330000	0.168800	0.285500
C571	C57	0.420000	0.126100	0.299100
C581	C58	0.430700	0.104300	0.365700
C591	C59	0.352400	0.125600	0.423600
C601	C60	0.264100	0.167700	0.412200
C611	C61	0.251300	0.188800	0.342800
C621	C62	0.956400	0.371700	0.174000
C631	C63	0.863800	0.316300	0.174400
C641	C64	0.764700	0.268700	0.271100
C651	C65	0.767300	0.248300	0.345200
C661	C66	0.670400	0.225400	0.374200
C671	C67	0.670700	0.203000	0.441200
C681	C68	0.767200	0.202200	0.481800
C691	C69	0.864200	0.224400	0.455100
C701	C70	0.864100	0.249700	0.386800
C711	C71	0.148700	0.402600	0.186600
C721	C72	0.133500	0.474100	0.247300
C731	C73	0.143500	0.499300	0.459800
C741	C74	0.146900	0.558100	0.522500
C751	C75	0.139100	0.543700	0.594500
C761	C76	0.125700	0.472100	0.603200
C771	C77	0.145100	0.516300	0.382600
C781	C78	0.122400	0.411000	0.539700
C791	C79	0.592200	0.724100	0.372700
C801	C80	0.706900	0.754900	0.370600
C811	C81	0.820800	0.810300	0.287200
C821	C82	0.830000	0.831200	0.214500
C831	C83	0.920000	0.873900	0.200900
C841	C84	0.930700	0.895700	0.134300
C851	C85	0.852400	0.874400	0.076400
C861	C86	0.764100	0.832300	0.087800
C871	C87	0.751300	0.811200	0.157200
C881	C88	0.456400	0.628300	0.326000
C891	C89	0.363800	0.683700	0.325600
C901	C90	0.264700	0.731300	0.228900
C911	C91	0.267300	0.751700	0.154800
C921	C92	0.170400	0.774600	0.125800
C931	C93	0.170700	0.797000	0.058800
C941	C94	0.267200	0.797800	0.018200
C951	C95	0.364200	0.775600	0.044900
C961	C96	0.364100	0.750300	0.113200
C971	C97	0.648700	0.597400	0.313400
C981	C98	0.633500	0.525900	0.252700
C991	C99	0.643500	0.500700	0.040200
C1001	C100	0.646900	0.441900	0.977500
C1011	C101	0.639100	0.456300	0.905500
C1021	C102	0.625700	0.527900	0.896800
C1031	C103	0.645100	0.483700	0.117400
C1041	C104	0.622400	0.589000	0.960300
N11	N1	0.934300	0.656500	0.813400
N21	N2	0.772100	0.775200	0.799600
N31	N3	0.142300	0.705500	0.753600
N41	N4	0.862300	0.540600	0.677600
N51	N5	0.865000	0.572300	0.529800
N61	N6	0.434300	0.343500	0.686600
N71	N7	0.272100	0.224800	0.700400
N81	N8	0.642300	0.294500	0.746400
N91	N9	0.362300	0.459400	0.822400
N101	N10	0.365000	0.427700	0.970200
N111	N11	0.065700	0.343500	0.186600
N121	N12	0.227900	0.224800	0.200400
N131	N13	0.857700	0.294500	0.246400
N141	N14	0.137700	0.459400	0.322400
N151	N15	0.135000	0.427700	0.470200
N161	N16	0.565700	0.656500	0.313400
N171	N17	0.727900	0.775200	0.299600
N181	N18	0.357700	0.705500	0.253600
N191	N19	0.637700	0.540600	0.177600
N201	N20	0.635000	0.572300	0.029800
O11	O1	0.838300	0.771900	0.662800
O21	O2	0.814500	0.807100	0.536600
O31	O3	0.606700	0.824100	0.836700
O41	O4	0.040400	0.725300	0.632700
O51	O5	0.037500	0.775300	0.511900
O61	O6	0.320400	0.737300	0.767400
O71	O7	0.863200	0.633500	0.587800
O81	O8	0.892200	0.658600	0.460300
O91	O9	0.849000	0.417200	0.621000
O101	O10	0.083400	0.976900	0.579800
O111	O11	0.338300	0.228100	0.837200
O121	O12	0.314500	0.192900	0.963400
O131	O13	0.106700	0.175900	0.663300
O141	O14	0.540400	0.274700	0.867300
O151	O15	0.537500	0.224700	0.988100
O161	O16	0.820400	0.262700	0.732600
O171	O17	0.363200	0.366500	0.912200
O181	O18	0.392200	0.341400	0.039700
O191	O19	0.349000	0.582800	0.879000
O201	O20	0.583400	0.023100	0.920200
O211	O21	0.161700	0.228100	0.337200
O221	O22	0.185500	0.192900	0.463400
O231	O23	0.393300	0.175900	0.163300
O241	O24	0.959600	0.274700	0.367300
O251	O25	0.962500	0.224700	0.488100
O261	O26	0.679600	0.262700	0.232600
O271	O27	0.136800	0.366500	0.412200
O281	O28	0.107800	0.341400	0.539700
O291	O29	0.151000	0.582800	0.379000
O301	O30	0.916600	0.023100	0.420200
O311	O31	0.661700	0.771900	0.162800
O321	O32	0.685500	0.807100	0.036600
O331	O33	0.893300	0.824100	0.336700
O341	O34	0.459600	0.725300	0.132700
O351	O35	0.462500	0.775300	0.011900
O361	O36	0.179600	0.737300	0.267400
O371	O37	0.636800	0.633500	0.087800
O381	O38	0.607800	0.658600	0.960300
O391	O39	0.651000	0.417200	0.121000
O401	O40	0.416600	0.976900	0.079800
