data_DOTTEM_clean_PM
_symmetry_space_group_name_H-M	'P1'
_cell_length_a	17.410000
_cell_length_b	6.744400
_cell_length_c	12.164600
_cell_angle_alpha	90.000000
_cell_angle_beta	90.000000
_cell_angle_gamma	90.000000
_symmetry_Int_Tables_number 1

loop_
_symmetry_equiv_pos_as_xyz
'x,y,z'

loop_
_atom_site_label
_atom_site_type_symbol
_atom_site_fract_x
_atom_site_fract_y
_atom_site_fract_z
O11	O1	0.073870	0.916920	0.886100
O21	O2	0.410900	0.916800	0.588810
C11	C1	0.273750	0.928100	0.701700
H11	H1	0.296500	0.047600	0.681800
C21	C2	0.205710	0.928000	0.760600
H21	H2	0.182800	0.047500	0.780200
O31	O3	0.426130	0.083080	0.386100
O41	O4	0.089100	0.083200	0.088810
C31	C3	0.226250	0.071900	0.201700
H31	H3	0.203500	0.952400	0.181800
C41	C4	0.294290	0.072000	0.260600
H41	H4	0.317200	0.952500	0.280200
O51	O5	0.926130	0.416920	0.113900
O61	O6	0.589100	0.416800	0.411190
C51	C5	0.726250	0.428100	0.298300
H51	H5	0.703500	0.547600	0.318200
C61	C6	0.794290	0.428000	0.239400
H61	H6	0.817200	0.547500	0.219800
O71	O7	0.573870	0.583080	0.613900
O81	O8	0.910900	0.583200	0.911190
C71	C7	0.773750	0.571900	0.798300
H71	H7	0.796500	0.452400	0.818200
C81	C8	0.705710	0.572000	0.739400
H81	H8	0.682800	0.452500	0.719800
O91	O9	0.926130	0.083080	0.113900
O101	O10	0.589100	0.083200	0.411190
C91	C9	0.726250	0.071900	0.298300
H91	H9	0.703500	0.952400	0.318200
C101	C10	0.794290	0.072000	0.239400
H101	H10	0.817200	0.952500	0.219800
O111	O11	0.573870	0.916920	0.613900
O121	O12	0.910900	0.916800	0.911190
C111	C11	0.773750	0.928100	0.798300
H111	H11	0.796500	0.047600	0.818200
C121	C12	0.705710	0.928000	0.739400
H121	H12	0.682800	0.047500	0.719800
O131	O13	0.073870	0.583080	0.886100
O141	O14	0.410900	0.583200	0.588810
C131	C13	0.273750	0.571900	0.701700
H131	H13	0.296500	0.452400	0.681800
C141	C14	0.205710	0.572000	0.760600
H141	H14	0.182800	0.452500	0.780200
O151	O15	0.426130	0.416920	0.386100
O161	O16	0.089100	0.416800	0.088810
C151	C15	0.226250	0.428100	0.201700
H151	H15	0.203500	0.547600	0.181800
C161	C16	0.294290	0.428000	0.260600
H161	H16	0.317200	0.547500	0.280200
Ga11	Ga1	0.000000	0.000000	0.000000
Ga21	Ga2	0.500000	0.000000	0.500000
Ga31	Ga3	0.000000	0.500000	0.000000
Ga41	Ga4	0.500000	0.500000	0.500000
O171	O17	0.005630	0.750000	0.071300
H171	H17	0.018000	0.750000	0.114000
C171	C17	0.382880	0.750000	0.611200
C181	C18	0.307960	0.750000	0.672400
C191	C19	0.171690	0.750000	0.790300
C201	C20	0.100460	0.750000	0.860000
O181	O18	0.494370	0.250000	0.571300
H181	H18	0.482000	0.250000	0.614000
C211	C21	0.117120	0.250000	0.111200
C221	C22	0.192040	0.250000	0.172400
C231	C23	0.328310	0.250000	0.290300
C241	C24	0.399540	0.250000	0.360000
O191	O19	0.994370	0.250000	0.928700
H191	H19	0.982000	0.250000	0.886000
C251	C25	0.617120	0.250000	0.388800
C261	C26	0.692040	0.250000	0.327600
C271	C27	0.828310	0.250000	0.209700
C281	C28	0.899540	0.250000	0.140000
O201	O20	0.505630	0.750000	0.428700
H201	H20	0.518000	0.750000	0.386000
C291	C29	0.882880	0.750000	0.888800
C301	C30	0.807960	0.750000	0.827600
C311	C31	0.671690	0.750000	0.709700
C321	C32	0.600460	0.750000	0.640000
