data_DOYBEA_clean_PM
_symmetry_space_group_name_H-M	'P1'
_cell_length_a	6.841900
_cell_length_b	12.087700
_cell_length_c	14.207000
_cell_angle_alpha	90.000000
_cell_angle_beta	122.547000
_cell_angle_gamma	90.000000
_symmetry_Int_Tables_number 1

loop_
_symmetry_equiv_pos_as_xyz
'x,y,z'

loop_
_atom_site_label
_atom_site_type_symbol
_atom_site_fract_x
_atom_site_fract_y
_atom_site_fract_z
O11	O1	0.247050	0.400150	0.115910
O21	O2	0.538440	0.368770	0.084380
O31	O3	0.450600	0.093300	0.379670
O41	O4	0.782760	0.113340	0.399420
C11	C1	0.429770	0.346990	0.133820
C21	C2	0.554440	0.264960	0.222030
C31	C3	0.455780	0.227920	0.273810
C41	C4	0.578690	0.140990	0.360400
H11	H1	0.729680	0.232170	0.243060
H21	H2	0.277720	0.257870	0.251620
O51	O5	0.819880	0.482690	0.059850
H31	H3	0.922950	0.525580	0.130660
O61	O6	0.752950	0.900150	0.384090
O71	O7	0.461560	0.868770	0.415620
O81	O8	0.549400	0.593300	0.120330
O91	O9	0.217240	0.613340	0.100580
C51	C5	0.570230	0.846990	0.366180
C61	C6	0.445560	0.764960	0.277970
C71	C7	0.544220	0.727920	0.226190
C81	C8	0.421310	0.640990	0.139600
H41	H4	0.270320	0.732170	0.256940
H51	H5	0.722280	0.757870	0.248380
O101	O10	0.180120	0.982690	0.440150
H61	H6	0.077050	0.025580	0.369340
O111	O11	0.752950	0.599850	0.884090
O121	O12	0.461560	0.631230	0.915620
O131	O13	0.549400	0.906700	0.620330
O141	O14	0.217240	0.886660	0.600580
C91	C9	0.570230	0.653010	0.866180
C101	C10	0.445560	0.735040	0.777970
C111	C11	0.544220	0.772080	0.726190
C121	C12	0.421310	0.859010	0.639600
H71	H7	0.270320	0.767830	0.756940
H81	H8	0.722280	0.742130	0.748380
O151	O15	0.180120	0.517310	0.940150
H91	H9	0.077050	0.474420	0.869340
O161	O16	0.247050	0.099850	0.615910
O171	O17	0.538440	0.131230	0.584380
O181	O18	0.450600	0.406700	0.879670
O191	O19	0.782760	0.386660	0.899420
C131	C13	0.429770	0.153010	0.633820
C141	C14	0.554440	0.235040	0.722030
C151	C15	0.455780	0.272080	0.773810
C161	C16	0.578690	0.359010	0.860400
H101	H10	0.729680	0.267830	0.743060
H111	H11	0.277720	0.242130	0.751620
O201	O20	0.819880	0.017310	0.559850
H121	H12	0.922950	0.974420	0.630660
Al11	Al1	0.500000	0.500000	0.000000
Al21	Al2	0.500000	0.000000	0.500000
Al31	Al3	0.000000	0.500000	0.000000
Al41	Al4	0.000000	0.000000	0.500000
