data_DOYHUW_clean_PM
_symmetry_space_group_name_H-M	'P1'
_cell_length_a	9.513700
_cell_length_b	16.113400
_cell_length_c	27.584500
_cell_angle_alpha	91.802000
_cell_angle_beta	91.489000
_cell_angle_gamma	94.441000
_symmetry_Int_Tables_number 1

loop_
_symmetry_equiv_pos_as_xyz
'x,y,z'

loop_
_atom_site_label
_atom_site_type_symbol
_atom_site_fract_x
_atom_site_fract_y
_atom_site_fract_z
Zn11	Zn1	0.971610	0.013310	0.151630
Zn21	Zn2	0.378930	0.461710	0.030750
Zn31	Zn3	0.125250	0.046500	0.474070
Zn41	Zn4	0.527230	0.532360	0.344590
O11	O1	0.404300	0.592450	0.300590
O21	O2	0.301400	0.094790	0.446890
O31	O3	0.575800	0.634570	0.017180
O41	O4	0.946300	0.093130	0.207710
O51	O5	0.201900	0.416080	0.057590
O61	O6	0.543200	0.428240	0.071270
O71	O7	0.409900	0.577620	0.064780
O81	O8	0.103600	0.948030	0.191520
O91	O9	0.549400	0.427080	0.306860
O101	O10	0.696800	0.391430	0.365340
O111	O11	0.842200	0.144320	0.144630
O121	O12	0.715400	0.480340	0.024280
O131	O13	0.260500	0.206710	0.404030
O141	O14	0.907400	0.870550	0.469770
O151	O15	0.783770	0.025650	0.477530
O161	O16	0.791820	0.948790	0.147840
O171	O17	0.958530	0.091790	0.439890
O181	O18	0.663070	0.615600	0.383210
O191	O19	0.238040	0.901370	0.133010
O201	O20	0.838050	0.903730	0.073290
C11	C1	0.089750	0.816440	0.362120
H11	H1	0.163200	0.860000	0.363900
C21	C2	0.815200	0.209800	0.223080
O211	O21	0.731900	0.587130	0.309550
C31	C3	0.870200	0.146200	0.189010
C41	C4	0.160900	0.824900	0.251390
H21	H2	0.086700	0.859800	0.257300
O221	O22	0.330700	0.676350	0.358900
C51	C5	0.832100	0.075200	0.448020
C61	C6	0.731300	0.343800	0.242810
H31	H3	0.716300	0.398900	0.233700
C71	C7	0.643800	0.383200	0.323760
C81	C8	0.779400	0.185500	0.269440
H41	H4	0.796800	0.130800	0.278700
C91	C9	0.834100	0.324500	0.161450
C101	C10	0.337900	0.153500	0.419340
C111	C11	0.727200	0.119100	0.418750
O231	O23	0.249900	0.322190	0.113220
C121	C12	0.587400	0.115400	0.431100
H51	H5	0.557000	0.083300	0.457800
O241	O24	0.078900	0.940300	0.432180
C131	C13	0.300300	0.715100	0.277620
C141	C14	0.719200	0.237400	0.302680
C151	C15	0.236900	0.835900	0.209640
C161	C16	0.169300	0.366200	0.091270
C171	C17	0.972800	0.324300	0.146920
H61	H6	0.038900	0.297300	0.166000
C181	C18	0.790600	0.290900	0.209320
C191	C19	0.346300	0.783800	0.201190
C201	C20	0.347700	0.656900	0.315640
C211	C21	0.510000	0.712200	0.086130
C221	C22	0.086900	0.755800	0.325190
C231	C23	0.670900	0.439610	0.059460
C241	C24	0.769600	0.162000	0.377610
H71	H7	0.865300	0.163500	0.368400
C251	C25	0.693100	0.319300	0.289080
C261	C26	0.764700	0.901900	0.110100
C271	C27	0.016500	0.363300	0.104740
C281	C28	0.777100	0.399400	0.089870
C291	C29	0.489900	0.158000	0.404950
C301	C30	0.187800	0.765500	0.285020
C311	C31	0.917300	0.401800	0.076770
H81	H8	0.946000	0.429900	0.048500
C321	C32	0.673400	0.202600	0.350020
C331	C33	0.875500	0.751100	0.393370
H91	H9	0.802900	0.749700	0.416400
C341	C34	0.421000	0.717800	0.124600
H101	H10	0.348300	0.675000	0.128800
C351	C35	0.620200	0.773900	0.080040
H111	H11	0.681600	0.769800	0.053600
C361	C36	0.734900	0.360600	0.132670
H121	H12	0.639200	0.359100	0.141900
C371	C37	0.496700	0.635300	0.053440
C381	C38	0.991100	0.881500	0.436120
C391	C39	0.984500	0.813600	0.396790
C401	C40	0.376300	0.725100	0.235530
H131	H13	0.451400	0.690800	0.229900
C411	C41	0.638400	0.841600	0.113380
C421	C42	0.545000	0.846800	0.151700
H141	H14	0.556300	0.893000	0.174100
C431	C43	0.533900	0.203000	0.364750
H151	H15	0.469000	0.233800	0.347500
C441	C44	0.979200	0.693400	0.322650
H161	H16	0.977900	0.651600	0.297500
C451	C45	0.749300	0.626300	0.348670
C461	C46	0.872600	0.690500	0.356150
C471	C47	0.436800	0.785900	0.157510
C481	C48	0.191600	0.899400	0.174700
Zn51	Zn5	0.028390	0.986690	0.848370
Zn61	Zn6	0.621070	0.538290	0.969250
Zn71	Zn7	0.874750	0.953500	0.525930
Zn81	Zn8	0.472770	0.467640	0.655410
O251	O25	0.595700	0.407550	0.699410
O261	O26	0.698600	0.905210	0.553110
O271	O27	0.424200	0.365430	0.982820
O281	O28	0.053700	0.906870	0.792290
O291	O29	0.798100	0.583920	0.942410
O301	O30	0.456800	0.571760	0.928730
O311	O31	0.590100	0.422380	0.935220
O321	O32	0.896400	0.051970	0.808480
O331	O33	0.450600	0.572920	0.693140
O341	O34	0.303200	0.608570	0.634660
O351	O35	0.157800	0.855680	0.855370
O361	O36	0.284600	0.519660	0.975720
O371	O37	0.739500	0.793290	0.595970
O381	O38	0.092600	0.129450	0.530230
O391	O39	0.216230	0.974350	0.522470
O401	O40	0.208180	0.051210	0.852160
O411	O41	0.041470	0.908210	0.560110
O421	O42	0.336930	0.384400	0.616790
O431	O43	0.761960	0.098630	0.866990
O441	O44	0.161950	0.096270	0.926710
C491	C49	0.910250	0.183560	0.637880
H171	H17	0.836800	0.140000	0.636100
C501	C50	0.184800	0.790200	0.776920
O451	O45	0.268100	0.412870	0.690450
C511	C51	0.129800	0.853800	0.810990
C521	C52	0.839100	0.175100	0.748610
H181	H18	0.913300	0.140200	0.742700
O461	O46	0.669300	0.323650	0.641100
C531	C53	0.167900	0.924800	0.551980
C541	C54	0.268700	0.656200	0.757190
H191	H19	0.283700	0.601100	0.766300
C551	C55	0.356200	0.616800	0.676240
C561	C56	0.220600	0.814500	0.730560
H201	H20	0.203200	0.869200	0.721300
C571	C57	0.165900	0.675500	0.838550
C581	C58	0.662100	0.846500	0.580660
C591	C59	0.272800	0.880900	0.581250
O471	O47	0.750100	0.677810	0.886780
C601	C60	0.412600	0.884600	0.568900
H211	H21	0.443000	0.916700	0.542200
O481	O48	0.921100	0.059700	0.567820
C611	C61	0.699700	0.284900	0.722380
C621	C62	0.280800	0.762600	0.697320
C631	C63	0.763100	0.164100	0.790360
C641	C64	0.830700	0.633800	0.908730
C651	C65	0.027200	0.675700	0.853080
H221	H22	0.961100	0.702700	0.834000
C661	C66	0.209400	0.709100	0.790680
C671	C67	0.653700	0.216200	0.798810
C681	C68	0.652300	0.343100	0.684360
C691	C69	0.490000	0.287800	0.913870
C701	C70	0.913100	0.244200	0.674810
C711	C71	0.329100	0.560390	0.940540
C721	C72	0.230400	0.838000	0.622390
H231	H23	0.134700	0.836500	0.631600
C731	C73	0.306900	0.680700	0.710920
C741	C74	0.235300	0.098100	0.889900
C751	C75	0.983500	0.636700	0.895260
C761	C76	0.222900	0.600600	0.910130
C771	C77	0.510100	0.842000	0.595050
C781	C78	0.812200	0.234500	0.714980
C791	C79	0.082700	0.598200	0.923230
H241	H24	0.054000	0.570100	0.951500
C801	C80	0.326600	0.797400	0.649980
C811	C81	0.124500	0.248900	0.606630
H251	H25	0.197100	0.250300	0.583600
C821	C82	0.579000	0.282200	0.875400
H261	H26	0.651700	0.325000	0.871200
C831	C83	0.379800	0.226100	0.919960
H271	H27	0.318400	0.230200	0.946400
C841	C84	0.265100	0.639400	0.867330
H281	H28	0.360800	0.640900	0.858100
C851	C85	0.503300	0.364700	0.946560
C861	C86	0.008900	0.118500	0.563880
C871	C87	0.015500	0.186400	0.603210
C881	C88	0.623700	0.274900	0.764470
H291	H29	0.548600	0.309200	0.770100
C891	C89	0.361600	0.158400	0.886620
C901	C90	0.455000	0.153200	0.848300
H301	H30	0.443700	0.107000	0.825900
C911	C91	0.466100	0.797000	0.635250
H311	H31	0.531000	0.766200	0.652500
C921	C92	0.020800	0.306600	0.677350
H321	H32	0.022100	0.348400	0.702500
C931	C93	0.250700	0.373700	0.651330
C941	C94	0.127400	0.309500	0.643850
C951	C95	0.563200	0.214100	0.842490
C961	C96	0.808400	0.100600	0.825300
