data_DOYHOQ_clean_PM
_symmetry_space_group_name_H-M	'P1'
_cell_length_a	12.475200
_cell_length_b	15.376300
_cell_length_c	17.955100
_cell_angle_alpha	69.517000
_cell_angle_beta	75.565000
_cell_angle_gamma	86.284000
_symmetry_Int_Tables_number 1

loop_
_symmetry_equiv_pos_as_xyz
'x,y,z'

loop_
_atom_site_label
_atom_site_type_symbol
_atom_site_fract_x
_atom_site_fract_y
_atom_site_fract_z
Zn11	Zn1	0.006270	0.238680	0.348080
Zn21	Zn2	0.127370	0.413990	0.167990
Zn31	Zn3	0.822170	0.961570	0.188560
O11	O1	0.170100	0.246600	0.300700
O21	O2	0.257000	0.340100	0.175990
O31	O3	0.012300	0.332700	0.168300
O41	O4	0.861400	0.496600	0.939600
O51	O5	0.981300	0.845800	0.543200
O61	O6	0.921100	0.220000	0.276300
O71	O7	0.699400	0.045800	0.170500
O81	O8	0.158300	0.842200	0.540400
O91	O9	0.730500	0.433100	0.911800
O101	O10	0.786200	0.827800	0.224400
O111	O11	0.640800	0.969400	0.303400
O121	O12	0.893800	0.981500	0.266000
O131	O13	0.952500	0.360100	0.356900
O141	O14	0.062000	0.469000	0.251200
C11	C1	0.348600	0.204700	0.239700
C21	C2	0.202700	0.993400	0.392800
H11	H1	0.254800	0.981000	0.425600
O151	O15	0.968800	0.802900	0.208800
C31	C3	0.842100	0.281800	0.161600
C41	C4	0.228300	0.058900	0.314500
C51	C5	0.337000	0.109300	0.279700
C61	C6	0.659100	0.244300	0.159200
C71	C7	0.744900	0.229500	0.198700
H21	H2	0.736600	0.183300	0.251500
C81	C8	0.453400	0.246800	0.200800
H31	H3	0.459800	0.312200	0.173600
C91	C9	0.053600	0.019400	0.295300
C101	C10	0.548300	0.194400	0.201200
C111	C11	0.931400	0.276100	0.205200
C121	C12	0.100400	0.945000	0.423900
C131	C13	0.432600	0.056700	0.281100
H41	H4	0.425700	0.991600	0.309500
C141	C14	0.537700	0.097000	0.242200
C151	C15	0.975600	0.443300	0.308400
C161	C16	0.250100	0.266500	0.239500
C171	C17	0.631000	0.033400	0.239500
C181	C18	0.674300	0.308800	0.081300
H51	H5	0.616000	0.317700	0.054200
C191	C19	0.856000	0.349000	0.082700
H61	H6	0.922200	0.385900	0.057900
C201	C20	0.027900	0.958200	0.375700
H71	H7	0.958800	0.925100	0.397200
C211	C21	0.771800	0.361600	0.040800
C221	C22	0.078400	0.873700	0.508300
C231	C23	0.895800	0.517300	0.320900
C241	C24	0.153700	0.071000	0.264400
H81	H8	0.171200	0.114000	0.209900
C251	C25	0.786500	0.434200	0.957800
C261	C26	0.505200	0.564700	0.424900
C271	C27	0.982400	0.028500	0.236900
C281	C28	0.920300	0.609500	0.273300
H91	H9	0.989800	0.627300	0.235000
C291	C29	0.842000	0.675700	0.282300
C301	C30	0.603500	0.529600	0.443100
C311	C31	0.738700	0.650200	0.334700
H101	H10	0.684900	0.696300	0.337500
C321	C32	0.791400	0.490000	0.377300
H111	H11	0.775300	0.426700	0.410400
C331	C33	0.711900	0.558100	0.383500
C341	C34	0.870300	0.776900	0.233300
C351	C35	0.403600	0.537000	0.479400
H121	H12	0.338000	0.563500	0.464000
O161	O16	0.016900	0.077700	0.163800
O171	O17	0.522100	0.627000	0.282100
O181	O18	0.429200	0.716900	0.349900
C361	C36	0.482700	0.641900	0.349100
Zn41	Zn4	0.993730	0.761320	0.651920
Zn51	Zn5	0.872630	0.586010	0.832010
Zn61	Zn6	0.177830	0.038430	0.811440
O191	O19	0.829900	0.753400	0.699300
O201	O20	0.743000	0.659900	0.824010
O211	O21	0.987700	0.667300	0.831700
O221	O22	0.138600	0.503400	0.060400
O231	O23	0.018700	0.154200	0.456800
O241	O24	0.078900	0.780000	0.723700
O251	O25	0.300600	0.954200	0.829500
O261	O26	0.841700	0.157800	0.459600
O271	O27	0.269500	0.566900	0.088200
O281	O28	0.213800	0.172200	0.775600
O291	O29	0.359200	0.030600	0.696600
O301	O30	0.106200	0.018500	0.734000
O311	O31	0.047500	0.639900	0.643100
O321	O32	0.938000	0.531000	0.748800
C371	C37	0.651400	0.795300	0.760300
C381	C38	0.797300	0.006600	0.607200
H131	H13	0.745200	0.019000	0.574400
O331	O33	0.031200	0.197100	0.791200
C391	C39	0.157900	0.718200	0.838400
C401	C40	0.771700	0.941100	0.685500
C411	C41	0.663000	0.890700	0.720300
C421	C42	0.340900	0.755700	0.840800
C431	C43	0.255100	0.770500	0.801300
H141	H14	0.263400	0.816700	0.748500
C441	C44	0.546600	0.753200	0.799200
H151	H15	0.540200	0.687800	0.826400
C451	C45	0.946400	0.980600	0.704700
C461	C46	0.451700	0.805600	0.798800
C471	C47	0.068600	0.723900	0.794800
C481	C48	0.899600	0.055000	0.576100
C491	C49	0.567400	0.943300	0.718900
H161	H16	0.574300	0.008400	0.690500
C501	C50	0.462300	0.903000	0.757800
C511	C51	0.024400	0.556700	0.691600
C521	C52	0.749900	0.733500	0.760500
C531	C53	0.369000	0.966600	0.760500
C541	C54	0.325700	0.691200	0.918700
H171	H17	0.384000	0.682300	0.945800
C551	C55	0.144000	0.651000	0.917300
H181	H18	0.077800	0.614100	0.942100
C561	C56	0.972100	0.041800	0.624300
H191	H19	0.041200	0.074900	0.602800
C571	C57	0.228200	0.638400	0.959200
C581	C58	0.921600	0.126300	0.491700
C591	C59	0.104200	0.482700	0.679100
C601	C60	0.846300	0.929000	0.735600
H201	H20	0.828800	0.886000	0.790100
C611	C61	0.213500	0.565800	0.042200
C621	C62	0.494800	0.435300	0.575100
C631	C63	0.017600	0.971500	0.763100
C641	C64	0.079700	0.390500	0.726700
H211	H21	0.010200	0.372700	0.765000
C651	C65	0.158000	0.324300	0.717700
C661	C66	0.396500	0.470400	0.556900
C671	C67	0.261300	0.349800	0.665300
H221	H22	0.315100	0.303700	0.662500
C681	C68	0.208600	0.510000	0.622700
H231	H23	0.224700	0.573300	0.589600
C691	C69	0.288100	0.441900	0.616500
C701	C70	0.129700	0.223100	0.766700
C711	C71	0.596400	0.463000	0.520600
H241	H24	0.662000	0.436500	0.536000
O341	O34	0.983100	0.922300	0.836200
O351	O35	0.477900	0.373000	0.717900
O361	O36	0.570800	0.283100	0.650100
C721	C72	0.517300	0.358100	0.650900
