data_DOYLEI_clean_PM
_symmetry_space_group_name_H-M	'P1'
_cell_length_a	9.774000
_cell_length_b	13.918000
_cell_length_c	7.715000
_cell_angle_alpha	90.410000
_cell_angle_beta	90.430000
_cell_angle_gamma	93.180000
_symmetry_Int_Tables_number 1

loop_
_symmetry_equiv_pos_as_xyz
'x,y,z'

loop_
_atom_site_label
_atom_site_type_symbol
_atom_site_fract_x
_atom_site_fract_y
_atom_site_fract_z
Cd11	Cd1	0.095210	0.264370	0.503490
C11	C1	0.029000	0.092300	0.173000
C21	C2	0.073000	0.425900	0.173000
C31	C3	0.083000	0.428600	0.831000
C41	C4	0.043000	0.091500	0.831000
C51	C5	0.418000	0.320400	0.513000
C61	C6	0.568000	0.299000	0.494000
C71	C7	0.664000	0.385600	0.522000
C81	C8	0.814000	0.371000	0.480000
N11	N1	0.048000	0.147900	0.279000
N21	N2	0.115000	0.379900	0.283000
N31	N3	0.130000	0.384000	0.724000
N41	N4	0.069000	0.147200	0.726000
N51	N5	0.322100	0.238600	0.485000
N61	N6	0.864000	0.286100	0.539000
H11	H1	0.339690	0.212270	0.353180
H21	H2	0.345590	0.185170	0.575200
H31	H3	0.401570	0.348820	0.640850
H41	H4	0.394140	0.376720	0.419250
H51	H5	0.582760	0.271220	0.364480
H61	H6	0.591260	0.246000	0.587110
H71	H7	0.660140	0.406610	0.654230
H81	H8	0.629850	0.442890	0.440220
H91	H9	0.876270	0.431650	0.526350
H101	H10	0.824160	0.368980	0.336360
H111	H11	0.806820	0.223140	0.487410
H121	H12	0.845330	0.283310	0.684370
Cd21	Cd2	0.904790	0.735630	0.496510
C91	C9	0.971000	0.907700	0.827000
C101	C10	0.927000	0.574100	0.827000
C111	C11	0.917000	0.571400	0.169000
C121	C12	0.957000	0.908500	0.169000
C131	C13	0.582000	0.679600	0.487000
C141	C14	0.432000	0.701000	0.506000
C151	C15	0.336000	0.614400	0.478000
C161	C16	0.186000	0.629000	0.520000
N71	N7	0.952000	0.852100	0.721000
N81	N8	0.885000	0.620100	0.717000
N91	N9	0.870000	0.616000	0.276000
N101	N10	0.931000	0.852800	0.274000
N111	N11	0.677900	0.761400	0.515000
N121	N12	0.136000	0.713900	0.461000
H131	H13	0.660310	0.787730	0.646820
H141	H14	0.654410	0.814830	0.424800
H151	H15	0.598430	0.651180	0.359150
H161	H16	0.605860	0.623280	0.580750
H171	H17	0.417240	0.728780	0.635520
H181	H18	0.408740	0.754000	0.412890
H191	H19	0.339860	0.593390	0.345770
H201	H20	0.370150	0.557110	0.559780
H211	H21	0.123730	0.568350	0.473650
H221	H22	0.175840	0.631020	0.663640
H231	H23	0.193180	0.776860	0.512590
H241	H24	0.154670	0.716690	0.315630
Ni11	Ni1	0.000000	0.000000	0.000000
Ni21	Ni2	0.000000	0.500000	0.000000
