data_DOZCEC_clean_PM
_symmetry_space_group_name_H-M	'P1'
_cell_length_a	20.315700
_cell_length_b	20.315700
_cell_length_c	19.918000
_cell_angle_alpha	90.000000
_cell_angle_beta	90.000000
_cell_angle_gamma	90.000000
_symmetry_Int_Tables_number 1

loop_
_symmetry_equiv_pos_as_xyz
'x,y,z'

loop_
_atom_site_label
_atom_site_type_symbol
_atom_site_fract_x
_atom_site_fract_y
_atom_site_fract_z
N11	N1	0.054690	0.179320	0.127650
N21	N2	0.031920	0.143040	0.077260
C11	C1	0.941200	0.308700	0.299200
H11	H1	0.901500	0.322600	0.317500
C21	C2	0.942900	0.264700	0.244500
H21	H2	0.903300	0.249700	0.226600
N31	N3	0.945310	0.820680	0.127650
N41	N4	0.968080	0.856960	0.077260
C31	C3	0.058800	0.691300	0.299200
H31	H3	0.098500	0.677400	0.317500
C41	C4	0.057100	0.735300	0.244500
H41	H4	0.096700	0.750300	0.226600
N51	N5	0.820680	0.054690	0.127650
N61	N6	0.856960	0.031920	0.077260
C51	C5	0.691300	0.941200	0.299200
H51	H5	0.677400	0.901500	0.317500
C61	C6	0.735300	0.942900	0.244500
H61	H6	0.750300	0.903300	0.226600
N71	N7	0.179320	0.945310	0.127650
N81	N8	0.143040	0.968080	0.077260
C71	C7	0.308700	0.058800	0.299200
H71	H7	0.322600	0.098500	0.317500
C81	C8	0.264700	0.057100	0.244500
H81	H8	0.249700	0.096700	0.226600
N91	N9	0.945310	0.179320	0.872350
N101	N10	0.968080	0.143040	0.922740
C91	C9	0.058800	0.308700	0.700800
H91	H9	0.098500	0.322600	0.682500
C101	C10	0.057100	0.264700	0.755500
H101	H10	0.096700	0.249700	0.773400
N111	N11	0.054690	0.820680	0.872350
N121	N12	0.031920	0.856960	0.922740
C111	C11	0.941200	0.691300	0.700800
H111	H11	0.901500	0.677400	0.682500
C121	C12	0.942900	0.735300	0.755500
H121	H12	0.903300	0.750300	0.773400
N131	N13	0.179320	0.054690	0.872350
N141	N14	0.143040	0.031920	0.922740
C131	C13	0.308700	0.941200	0.700800
H131	H13	0.322600	0.901500	0.682500
C141	C14	0.264700	0.942900	0.755500
H141	H14	0.249700	0.903300	0.773400
N151	N15	0.820680	0.945310	0.872350
N161	N16	0.856960	0.968080	0.922740
C151	C15	0.691300	0.058800	0.700800
H151	H15	0.677400	0.098500	0.682500
C161	C16	0.735300	0.057100	0.755500
H161	H16	0.750300	0.096700	0.773400
N171	N17	0.945310	0.820680	0.872350
N181	N18	0.968080	0.856960	0.922740
C171	C17	0.058800	0.691300	0.700800
H171	H17	0.098500	0.677400	0.682500
C181	C18	0.057100	0.735300	0.755500
H181	H18	0.096700	0.750300	0.773400
N191	N19	0.054690	0.179320	0.872350
N201	N20	0.031920	0.143040	0.922740
C191	C19	0.941200	0.308700	0.700800
H191	H19	0.901500	0.322600	0.682500
C201	C20	0.942900	0.264700	0.755500
H201	H20	0.903300	0.249700	0.773400
N211	N21	0.179320	0.945310	0.872350
N221	N22	0.143040	0.968080	0.922740
C211	C21	0.308700	0.058800	0.700800
H211	H21	0.322600	0.098500	0.682500
C221	C22	0.264700	0.057100	0.755500
H221	H22	0.249700	0.096700	0.773400
N231	N23	0.820680	0.054690	0.872350
N241	N24	0.856960	0.031920	0.922740
C231	C23	0.691300	0.941200	0.700800
H231	H23	0.677400	0.901500	0.682500
C241	C24	0.735300	0.942900	0.755500
H241	H24	0.750300	0.903300	0.773400
N251	N25	0.054690	0.820680	0.127650
N261	N26	0.031920	0.856960	0.077260
C251	C25	0.941200	0.691300	0.299200
H251	H25	0.901500	0.677400	0.317500
C261	C26	0.942900	0.735300	0.244500
H261	H26	0.903300	0.750300	0.226600
N271	N27	0.945310	0.179320	0.127650
N281	N28	0.968080	0.143040	0.077260
C271	C27	0.058800	0.308700	0.299200
H271	H27	0.098500	0.322600	0.317500
C281	C28	0.057100	0.264700	0.244500
H281	H28	0.096700	0.249700	0.226600
N291	N29	0.820680	0.945310	0.127650
N301	N30	0.856960	0.968080	0.077260
C291	C29	0.691300	0.058800	0.299200
H291	H29	0.677400	0.098500	0.317500
C301	C30	0.735300	0.057100	0.244500
H301	H30	0.750300	0.096700	0.226600
N311	N31	0.179320	0.054690	0.127650
N321	N32	0.143040	0.031920	0.077260
C311	C31	0.308700	0.941200	0.299200
H311	H31	0.322600	0.901500	0.317500
C321	C32	0.264700	0.942900	0.244500
H321	H32	0.249700	0.903300	0.226600
Mn11	Mn1	0.000000	0.500000	0.500000
Mn21	Mn2	0.500000	0.000000	0.500000
Mn31	Mn3	0.094270	0.094270	0.000000
Mn41	Mn4	0.905730	0.905730	0.000000
Mn51	Mn5	0.905730	0.094270	0.000000
Mn61	Mn6	0.094270	0.905730	0.000000
Cl11	Cl1	0.000000	0.000000	0.000000
N331	N33	0.000000	0.401600	0.500000
N341	N34	0.000000	0.598400	0.500000
N351	N35	0.598400	0.000000	0.500000
N361	N36	0.401600	0.000000	0.500000
N371	N37	0.000000	0.500000	0.400200
N381	N38	0.500000	0.000000	0.400200
N391	N39	0.000000	0.500000	0.599800
N401	N40	0.500000	0.000000	0.599800
C331	C33	0.000000	0.360200	0.444700
C341	C34	0.000000	0.379700	0.379500
C351	C35	0.000000	0.447400	0.358200
C361	C36	0.000000	0.293000	0.467200
H331	H33	0.000000	0.255900	0.439800
C371	C37	0.000000	0.467800	0.290400
H341	H34	0.000000	0.440600	0.252800
C381	C38	0.000000	0.330400	0.324700
C391	C39	0.000000	0.243400	0.217100
C401	C40	0.000000	0.200100	0.157600
C411	C41	0.000000	0.639800	0.444700
C421	C42	0.000000	0.620300	0.379500
C431	C43	0.000000	0.552600	0.358200
C441	C44	0.000000	0.707000	0.467200
H351	H35	0.000000	0.744100	0.439800
C451	C45	0.000000	0.532200	0.290400
H361	H36	0.000000	0.559400	0.252800
C461	C46	0.000000	0.669600	0.324700
C471	C47	0.000000	0.756600	0.217100
C481	C48	0.000000	0.799900	0.157600
C491	C49	0.639800	0.000000	0.444700
C501	C50	0.620300	0.000000	0.379500
C511	C51	0.552600	0.000000	0.358200
C521	C52	0.707000	0.000000	0.467200
H371	H37	0.744100	0.000000	0.439800
C531	C53	0.532200	0.000000	0.290400
H381	H38	0.559400	0.000000	0.252800
C541	C54	0.669600	0.000000	0.324700
C551	C55	0.756600	0.000000	0.217100
C561	C56	0.799900	0.000000	0.157600
C571	C57	0.360200	0.000000	0.444700
C581	C58	0.379700	0.000000	0.379500
C591	C59	0.447400	0.000000	0.358200
C601	C60	0.293000	0.000000	0.467200
H391	H39	0.255900	0.000000	0.439800
C611	C61	0.467800	0.000000	0.290400
H401	H40	0.440600	0.000000	0.252800
C621	C62	0.330400	0.000000	0.324700
C631	C63	0.243400	0.000000	0.217100
C641	C64	0.200100	0.000000	0.157600
C651	C65	0.000000	0.360200	0.555300
C661	C66	0.000000	0.379700	0.620500
C671	C67	0.000000	0.447400	0.641800
C681	C68	0.000000	0.293000	0.532800
H411	H41	0.000000	0.255900	0.560200
C691	C69	0.000000	0.467800	0.709600
H421	H42	0.000000	0.440600	0.747200
C701	C70	0.000000	0.330400	0.675300
C711	C71	0.000000	0.243400	0.782900
C721	C72	0.000000	0.200100	0.842400
C731	C73	0.000000	0.639800	0.555300
C741	C74	0.000000	0.620300	0.620500
C751	C75	0.000000	0.552600	0.641800
C761	C76	0.000000	0.707000	0.532800
H431	H43	0.000000	0.744100	0.560200
C771	C77	0.000000	0.532200	0.709600
H441	H44	0.000000	0.559400	0.747200
C781	C78	0.000000	0.669600	0.675300
C791	C79	0.000000	0.756600	0.782900
C801	C80	0.000000	0.799900	0.842400
C811	C81	0.360200	0.000000	0.555300
C821	C82	0.379700	0.000000	0.620500
C831	C83	0.447400	0.000000	0.641800
C841	C84	0.293000	0.000000	0.532800
H451	H45	0.255900	0.000000	0.560200
C851	C85	0.467800	0.000000	0.709600
H461	H46	0.440600	0.000000	0.747200
C861	C86	0.330400	0.000000	0.675300
C871	C87	0.243400	0.000000	0.782900
C881	C88	0.200100	0.000000	0.842400
C891	C89	0.639800	0.000000	0.555300
C901	C90	0.620300	0.000000	0.620500
C911	C91	0.552600	0.000000	0.641800
C921	C92	0.707000	0.000000	0.532800
H471	H47	0.744100	0.000000	0.560200
C931	C93	0.532200	0.000000	0.709600
H481	H48	0.559400	0.000000	0.747200
C941	C94	0.669600	0.000000	0.675300
C951	C95	0.756600	0.000000	0.782900
C961	C96	0.799900	0.000000	0.842400
Cl21	Cl2	0.125800	0.500000	0.500000
Cl31	Cl3	0.874200	0.500000	0.500000
Cl41	Cl4	0.500000	0.125800	0.500000
Cl51	Cl5	0.500000	0.874200	0.500000
