data_DUBKAO_clean_PM
_symmetry_space_group_name_H-M	'P1'
_cell_length_a	19.670000
_cell_length_b	22.239000
_cell_length_c	11.639200
_cell_angle_alpha	90.000000
_cell_angle_beta	116.746000
_cell_angle_gamma	90.000000
_symmetry_Int_Tables_number 1

loop_
_symmetry_equiv_pos_as_xyz
'x,y,z'

loop_
_atom_site_label
_atom_site_type_symbol
_atom_site_fract_x
_atom_site_fract_y
_atom_site_fract_z
Ni11	Ni1	0.189360	0.120400	0.387870
N11	N1	0.218800	0.138300	0.575600
N21	N2	0.359600	0.209400	0.030300
N31	N3	0.598100	0.321200	0.315300
O11	O1	0.268000	0.176870	0.363600
O21	O2	0.190400	0.119900	0.203600
O31	O3	0.267340	0.050060	0.440700
O41	O4	0.116380	0.050100	0.364500
C11	C1	0.174000	0.128200	0.632600
H11	H1	0.126000	0.111900	0.583400
C21	C2	0.195400	0.140600	0.759900
H21	H2	0.161900	0.132900	0.794500
C31	C3	0.267400	0.164600	0.837500
C41	C4	0.313300	0.175600	0.778400
H31	H3	0.361500	0.192200	0.825000
C51	C5	0.287400	0.161900	0.649700
H41	H4	0.319600	0.169400	0.612300
C61	C6	0.294900	0.178800	0.975500
C71	C7	0.256300	0.160100	0.045200
H51	H5	0.211200	0.138400	0.005000
C81	C8	0.285800	0.174200	0.173900
C91	C9	0.354700	0.204600	0.232300
H61	H6	0.376800	0.213500	0.319700
C101	C10	0.390000	0.221300	0.156500
C111	C11	0.587800	0.275200	0.380800
H71	H7	0.626900	0.265100	0.460800
C121	C12	0.520600	0.242300	0.332600
H81	H8	0.514600	0.211800	0.381900
C131	C13	0.462900	0.254600	0.212400
C141	C14	0.474800	0.301600	0.142700
H91	H9	0.438000	0.311100	0.060200
C151	C15	0.542100	0.333500	0.198900
H101	H10	0.548900	0.365300	0.153100
C161	C16	0.245100	0.155800	0.251200
Ni21	Ni2	0.689360	0.620400	0.387870
N41	N4	0.718800	0.638300	0.575600
N51	N5	0.859600	0.709400	0.030300
N61	N6	0.098100	0.821200	0.315300
O51	O5	0.768000	0.676870	0.363600
O61	O6	0.690400	0.619900	0.203600
O71	O7	0.767340	0.550060	0.440700
O81	O8	0.616380	0.550100	0.364500
C171	C17	0.674000	0.628200	0.632600
H111	H11	0.626000	0.611900	0.583400
C181	C18	0.695400	0.640600	0.759900
H121	H12	0.661900	0.632900	0.794500
C191	C19	0.767400	0.664600	0.837500
C201	C20	0.813300	0.675600	0.778400
H131	H13	0.861500	0.692200	0.825000
C211	C21	0.787400	0.661900	0.649700
H141	H14	0.819600	0.669400	0.612300
C221	C22	0.794900	0.678800	0.975500
C231	C23	0.756300	0.660100	0.045200
H151	H15	0.711200	0.638400	0.005000
C241	C24	0.785800	0.674200	0.173900
C251	C25	0.854700	0.704600	0.232300
H161	H16	0.876800	0.713500	0.319700
C261	C26	0.890000	0.721300	0.156500
C271	C27	0.087800	0.775200	0.380800
H171	H17	0.126900	0.765100	0.460800
C281	C28	0.020600	0.742300	0.332600
H181	H18	0.014600	0.711800	0.381900
C291	C29	0.962900	0.754600	0.212400
C301	C30	0.974800	0.801600	0.142700
H191	H19	0.938000	0.811100	0.060200
C311	C31	0.042100	0.833500	0.198900
H201	H20	0.048900	0.865300	0.153100
C321	C32	0.745100	0.655800	0.251200
Ni31	Ni3	0.189360	0.879600	0.387870
N71	N7	0.218800	0.861700	0.575600
N81	N8	0.359600	0.790600	0.030300
N91	N9	0.598100	0.678800	0.315300
O91	O9	0.268000	0.823130	0.363600
O101	O10	0.190400	0.880100	0.203600
O111	O11	0.267340	0.949940	0.440700
O121	O12	0.116380	0.949900	0.364500
C331	C33	0.174000	0.871800	0.632600
H211	H21	0.126000	0.888100	0.583400
C341	C34	0.195400	0.859400	0.759900
H221	H22	0.161900	0.867100	0.794500
C351	C35	0.267400	0.835400	0.837500
C361	C36	0.313300	0.824400	0.778400
H231	H23	0.361500	0.807800	0.825000
C371	C37	0.287400	0.838100	0.649700
H241	H24	0.319600	0.830600	0.612300
C381	C38	0.294900	0.821200	0.975500
C391	C39	0.256300	0.839900	0.045200
H251	H25	0.211200	0.861600	0.005000
C401	C40	0.285800	0.825800	0.173900
C411	C41	0.354700	0.795400	0.232300
H261	H26	0.376800	0.786500	0.319700
C421	C42	0.390000	0.778700	0.156500
C431	C43	0.587800	0.724800	0.380800
H271	H27	0.626900	0.734900	0.460800
C441	C44	0.520600	0.757700	0.332600
H281	H28	0.514600	0.788200	0.381900
C451	C45	0.462900	0.745400	0.212400
C461	C46	0.474800	0.698400	0.142700
H291	H29	0.438000	0.688900	0.060200
C471	C47	0.542100	0.666500	0.198900
H301	H30	0.548900	0.634700	0.153100
C481	C48	0.245100	0.844200	0.251200
Ni41	Ni4	0.689360	0.379600	0.387870
N101	N10	0.718800	0.361700	0.575600
N111	N11	0.859600	0.290600	0.030300
N121	N12	0.098100	0.178800	0.315300
O131	O13	0.768000	0.323130	0.363600
O141	O14	0.690400	0.380100	0.203600
O151	O15	0.767340	0.449940	0.440700
O161	O16	0.616380	0.449900	0.364500
C491	C49	0.674000	0.371800	0.632600
H311	H31	0.626000	0.388100	0.583400
C501	C50	0.695400	0.359400	0.759900
H321	H32	0.661900	0.367100	0.794500
C511	C51	0.767400	0.335400	0.837500
C521	C52	0.813300	0.324400	0.778400
H331	H33	0.861500	0.307800	0.825000
C531	C53	0.787400	0.338100	0.649700
H341	H34	0.819600	0.330600	0.612300
C541	C54	0.794900	0.321200	0.975500
C551	C55	0.756300	0.339900	0.045200
H351	H35	0.711200	0.361600	0.005000
C561	C56	0.785800	0.325800	0.173900
C571	C57	0.854700	0.295400	0.232300
H361	H36	0.876800	0.286500	0.319700
C581	C58	0.890000	0.278700	0.156500
C591	C59	0.087800	0.224800	0.380800
H371	H37	0.126900	0.234900	0.460800
C601	C60	0.020600	0.257700	0.332600
H381	H38	0.014600	0.288200	0.381900
C611	C61	0.962900	0.245400	0.212400
C621	C62	0.974800	0.198400	0.142700
H391	H39	0.938000	0.188900	0.060200
C631	C63	0.042100	0.166500	0.198900
H401	H40	0.048900	0.134700	0.153100
C641	C64	0.745100	0.344200	0.251200
C651	C65	0.235900	0.000000	0.424900
C661	C66	0.148400	0.000000	0.381000
C671	C67	0.735900	0.500000	0.424900
C681	C68	0.648400	0.500000	0.381000
Ni51	Ni5	0.810640	0.120400	0.612130
N131	N13	0.781200	0.138300	0.424400
N141	N14	0.640400	0.209400	0.969700
N151	N15	0.401900	0.321200	0.684700
O171	O17	0.732000	0.176870	0.636400
O181	O18	0.809600	0.119900	0.796400
O191	O19	0.732660	0.050060	0.559300
O201	O20	0.883620	0.050100	0.635500
C691	C69	0.826000	0.128200	0.367400
H411	H41	0.874000	0.111900	0.416600
C701	C70	0.804600	0.140600	0.240100
H421	H42	0.838100	0.132900	0.205500
C711	C71	0.732600	0.164600	0.162500
C721	C72	0.686700	0.175600	0.221600
H431	H43	0.638500	0.192200	0.175000
C731	C73	0.712600	0.161900	0.350300
H441	H44	0.680400	0.169400	0.387700
C741	C74	0.705100	0.178800	0.024500
C751	C75	0.743700	0.160100	0.954800
H451	H45	0.788800	0.138400	0.995000
C761	C76	0.714200	0.174200	0.826100
C771	C77	0.645300	0.204600	0.767700
H461	H46	0.623200	0.213500	0.680300
C781	C78	0.610000	0.221300	0.843500
C791	C79	0.412200	0.275200	0.619200
H471	H47	0.373100	0.265100	0.539200
C801	C80	0.479400	0.242300	0.667400
H481	H48	0.485400	0.211800	0.618100
C811	C81	0.537100	0.254600	0.787600
C821	C82	0.525200	0.301600	0.857300
H491	H49	0.562000	0.311100	0.939800
C831	C83	0.457900	0.333500	0.801100
H501	H50	0.451100	0.365300	0.846900
C841	C84	0.754900	0.155800	0.748800
Ni61	Ni6	0.310640	0.620400	0.612130
N161	N16	0.281200	0.638300	0.424400
N171	N17	0.140400	0.709400	0.969700
N181	N18	0.901900	0.821200	0.684700
O211	O21	0.232000	0.676870	0.636400
O221	O22	0.309600	0.619900	0.796400
O231	O23	0.232660	0.550060	0.559300
O241	O24	0.383620	0.550100	0.635500
C851	C85	0.326000	0.628200	0.367400
H511	H51	0.374000	0.611900	0.416600
C861	C86	0.304600	0.640600	0.240100
H521	H52	0.338100	0.632900	0.205500
C871	C87	0.232600	0.664600	0.162500
C881	C88	0.186700	0.675600	0.221600
H531	H53	0.138500	0.692200	0.175000
C891	C89	0.212600	0.661900	0.350300
H541	H54	0.180400	0.669400	0.387700
C901	C90	0.205100	0.678800	0.024500
C911	C91	0.243700	0.660100	0.954800
H551	H55	0.288800	0.638400	0.995000
C921	C92	0.214200	0.674200	0.826100
C931	C93	0.145300	0.704600	0.767700
H561	H56	0.123200	0.713500	0.680300
C941	C94	0.110000	0.721300	0.843500
C951	C95	0.912200	0.775200	0.619200
H571	H57	0.873100	0.765100	0.539200
C961	C96	0.979400	0.742300	0.667400
H581	H58	0.985400	0.711800	0.618100
C971	C97	0.037100	0.754600	0.787600
C981	C98	0.025200	0.801600	0.857300
H591	H59	0.062000	0.811100	0.939800
C991	C99	0.957900	0.833500	0.801100
H601	H60	0.951100	0.865300	0.846900
C1001	C100	0.254900	0.655800	0.748800
Ni71	Ni7	0.810640	0.879600	0.612130
N191	N19	0.781200	0.861700	0.424400
N201	N20	0.640400	0.790600	0.969700
N211	N21	0.401900	0.678800	0.684700
O251	O25	0.732000	0.823130	0.636400
O261	O26	0.809600	0.880100	0.796400
O271	O27	0.732660	0.949940	0.559300
O281	O28	0.883620	0.949900	0.635500
C1011	C101	0.826000	0.871800	0.367400
H611	H61	0.874000	0.888100	0.416600
C1021	C102	0.804600	0.859400	0.240100
H621	H62	0.838100	0.867100	0.205500
C1031	C103	0.732600	0.835400	0.162500
C1041	C104	0.686700	0.824400	0.221600
H631	H63	0.638500	0.807800	0.175000
C1051	C105	0.712600	0.838100	0.350300
H641	H64	0.680400	0.830600	0.387700
C1061	C106	0.705100	0.821200	0.024500
C1071	C107	0.743700	0.839900	0.954800
H651	H65	0.788800	0.861600	0.995000
C1081	C108	0.714200	0.825800	0.826100
C1091	C109	0.645300	0.795400	0.767700
H661	H66	0.623200	0.786500	0.680300
C1101	C110	0.610000	0.778700	0.843500
C1111	C111	0.412200	0.724800	0.619200
H671	H67	0.373100	0.734900	0.539200
C1121	C112	0.479400	0.757700	0.667400
H681	H68	0.485400	0.788200	0.618100
C1131	C113	0.537100	0.745400	0.787600
C1141	C114	0.525200	0.698400	0.857300
H691	H69	0.562000	0.688900	0.939800
C1151	C115	0.457900	0.666500	0.801100
H701	H70	0.451100	0.634700	0.846900
C1161	C116	0.754900	0.844200	0.748800
Ni81	Ni8	0.310640	0.379600	0.612130
N221	N22	0.281200	0.361700	0.424400
N231	N23	0.140400	0.290600	0.969700
N241	N24	0.901900	0.178800	0.684700
O291	O29	0.232000	0.323130	0.636400
O301	O30	0.309600	0.380100	0.796400
O311	O31	0.232660	0.449940	0.559300
O321	O32	0.383620	0.449900	0.635500
C1171	C117	0.326000	0.371800	0.367400
H711	H71	0.374000	0.388100	0.416600
C1181	C118	0.304600	0.359400	0.240100
H721	H72	0.338100	0.367100	0.205500
C1191	C119	0.232600	0.335400	0.162500
C1201	C120	0.186700	0.324400	0.221600
H731	H73	0.138500	0.307800	0.175000
C1211	C121	0.212600	0.338100	0.350300
H741	H74	0.180400	0.330600	0.387700
C1221	C122	0.205100	0.321200	0.024500
C1231	C123	0.243700	0.339900	0.954800
H751	H75	0.288800	0.361600	0.995000
C1241	C124	0.214200	0.325800	0.826100
C1251	C125	0.145300	0.295400	0.767700
H761	H76	0.123200	0.286500	0.680300
C1261	C126	0.110000	0.278700	0.843500
C1271	C127	0.912200	0.224800	0.619200
H771	H77	0.873100	0.234900	0.539200
C1281	C128	0.979400	0.257700	0.667400
H781	H78	0.985400	0.288200	0.618100
C1291	C129	0.037100	0.245400	0.787600
C1301	C130	0.025200	0.198400	0.857300
H791	H79	0.062000	0.188900	0.939800
C1311	C131	0.957900	0.166500	0.801100
H801	H80	0.951100	0.134700	0.846900
C1321	C132	0.254900	0.344200	0.748800
C1331	C133	0.764100	0.000000	0.575100
C1341	C134	0.851600	0.000000	0.619000
C1351	C135	0.264100	0.500000	0.575100
C1361	C136	0.351600	0.500000	0.619000
