data_DUDKOE_clean_PM
_symmetry_space_group_name_H-M	'P1'
_cell_length_a	21.767200
_cell_length_b	19.633000
_cell_length_c	29.402800
_cell_angle_alpha	90.000000
_cell_angle_beta	99.478000
_cell_angle_gamma	90.000000
_symmetry_Int_Tables_number 1

loop_
_symmetry_equiv_pos_as_xyz
'x,y,z'

loop_
_atom_site_label
_atom_site_type_symbol
_atom_site_fract_x
_atom_site_fract_y
_atom_site_fract_z
Zn11	Zn1	0.691480	0.257520	0.518080
Zn21	Zn2	0.807500	0.193180	0.495330
Zn31	Zn3	0.523730	0.474810	0.204860
O11	O1	0.680180	0.154260	0.508130
O21	O2	0.763530	0.101400	0.488870
O31	O3	0.661600	0.271710	0.449210
O41	O4	0.750530	0.223770	0.436090
O51	O5	0.743990	0.236500	0.580120
O61	O6	0.825890	0.177170	0.563780
O71	O7	0.759340	0.846090	0.483930
O81	O8	0.670950	0.793820	0.493160
O91	O9	0.535160	0.398520	0.318100
O101	O10	0.573290	0.407210	0.252030
O111	O11	0.929750	0.051090	0.759030
O121	O12	0.950570	0.040690	0.687120
N11	N1	0.512860	0.971840	0.499740
N21	N2	0.754400	0.239890	0.270150
N31	N3	0.771340	0.230370	0.756440
C11	C1	0.708640	0.102660	0.497560
C21	C2	0.673950	0.036240	0.495650
C31	C3	0.703710	0.974200	0.491000
H11	H1	0.745500	0.973600	0.487800
C41	C4	0.671240	0.913420	0.491150
C51	C5	0.608210	0.914600	0.494670
H21	H2	0.586300	0.874000	0.495000
C61	C6	0.578070	0.976560	0.497650
C71	C7	0.611040	0.036790	0.498880
H31	H3	0.591000	0.078000	0.501900
C81	C8	0.699530	0.254450	0.423570
C91	C9	0.684530	0.272620	0.373390
C101	C10	0.723100	0.248900	0.343340
H41	H4	0.756400	0.220400	0.354300
C111	C11	0.712210	0.267400	0.297400
C121	C12	0.663010	0.310700	0.280700
H51	H5	0.656200	0.323600	0.249900
C131	C13	0.624430	0.334360	0.310050
C141	C14	0.634810	0.314550	0.356230
H61	H6	0.608100	0.329600	0.375700
C151	C15	0.573110	0.384040	0.291660
C161	C16	0.792390	0.201340	0.591080
C171	C17	0.811680	0.185250	0.641450
C181	C18	0.781420	0.216600	0.673700
H71	H7	0.750000	0.248200	0.664400
C191	C19	0.798530	0.200300	0.720230
C201	C20	0.843910	0.151900	0.734000
H81	H8	0.854100	0.140300	0.765000
C211	C21	0.874400	0.120240	0.701610
C221	C22	0.858720	0.138120	0.655530
H91	H9	0.879900	0.118400	0.633800
C231	C23	0.922290	0.066490	0.716890
C241	C24	0.703260	0.845810	0.488990
Zn41	Zn4	0.191480	0.757520	0.018080
Zn51	Zn5	0.307500	0.693180	0.995330
Zn61	Zn6	0.023730	0.974810	0.704860
O131	O13	0.180180	0.654260	0.008130
O141	O14	0.263530	0.601400	0.988870
O151	O15	0.161600	0.771710	0.949210
O161	O16	0.250530	0.723770	0.936090
O171	O17	0.243990	0.736500	0.080120
O181	O18	0.325890	0.677170	0.063780
O191	O19	0.259340	0.346090	0.983930
O201	O20	0.170950	0.293820	0.993160
O211	O21	0.035160	0.898520	0.818100
O221	O22	0.073290	0.907210	0.752030
O231	O23	0.429750	0.551090	0.259030
O241	O24	0.450570	0.540690	0.187120
N41	N4	0.012860	0.471840	0.999740
N51	N5	0.254400	0.739890	0.770150
N61	N6	0.271340	0.730370	0.256440
C251	C25	0.208640	0.602660	0.997560
C261	C26	0.173950	0.536240	0.995650
C271	C27	0.203710	0.474200	0.991000
H101	H10	0.245500	0.473600	0.987800
C281	C28	0.171240	0.413420	0.991150
C291	C29	0.108210	0.414600	0.994670
H111	H11	0.086300	0.374000	0.995000
C301	C30	0.078070	0.476560	0.997650
C311	C31	0.111040	0.536790	0.998880
H121	H12	0.091000	0.578000	0.001900
C321	C32	0.199530	0.754450	0.923570
C331	C33	0.184530	0.772620	0.873390
C341	C34	0.223100	0.748900	0.843340
H131	H13	0.256400	0.720400	0.854300
C351	C35	0.212210	0.767400	0.797400
C361	C36	0.163010	0.810700	0.780700
H141	H14	0.156200	0.823600	0.749900
C371	C37	0.124430	0.834360	0.810050
C381	C38	0.134810	0.814550	0.856230
H151	H15	0.108100	0.829600	0.875700
C391	C39	0.073110	0.884040	0.791660
C401	C40	0.292390	0.701340	0.091080
C411	C41	0.311680	0.685250	0.141450
C421	C42	0.281420	0.716600	0.173700
H161	H16	0.250000	0.748200	0.164400
C431	C43	0.298530	0.700300	0.220230
C441	C44	0.343910	0.651900	0.234000
H171	H17	0.354100	0.640300	0.265000
C451	C45	0.374400	0.620240	0.201610
C461	C46	0.358720	0.638120	0.155530
H181	H18	0.379900	0.618400	0.133800
C471	C47	0.422290	0.566490	0.216890
C481	C48	0.203260	0.345810	0.988990
Zn71	Zn7	0.308520	0.257520	0.981920
Zn81	Zn8	0.192500	0.193180	0.004670
Zn91	Zn9	0.476270	0.474810	0.295140
O251	O25	0.319820	0.154260	0.991870
O261	O26	0.236470	0.101400	0.011130
O271	O27	0.338400	0.271710	0.050790
O281	O28	0.249470	0.223770	0.063910
O291	O29	0.256010	0.236500	0.919880
O301	O30	0.174110	0.177170	0.936220
O311	O31	0.240660	0.846090	0.016070
O321	O32	0.329050	0.793820	0.006840
O331	O33	0.464840	0.398520	0.181900
O341	O34	0.426710	0.407210	0.247970
O351	O35	0.070250	0.051090	0.740970
O361	O36	0.049430	0.040690	0.812880
N71	N7	0.487140	0.971840	0.000260
N81	N8	0.245600	0.239890	0.229850
N91	N9	0.228660	0.230370	0.743560
C491	C49	0.291360	0.102660	0.002440
C501	C50	0.326050	0.036240	0.004350
C511	C51	0.296290	0.974200	0.009000
H191	H19	0.254500	0.973600	0.012200
C521	C52	0.328760	0.913420	0.008850
C531	C53	0.391790	0.914600	0.005330
H201	H20	0.413700	0.874000	0.005000
C541	C54	0.421930	0.976560	0.002350
C551	C55	0.388960	0.036790	0.001120
H211	H21	0.409000	0.078000	0.998100
C561	C56	0.300470	0.254450	0.076430
C571	C57	0.315470	0.272620	0.126610
C581	C58	0.276900	0.248900	0.156660
H221	H22	0.243600	0.220400	0.145700
C591	C59	0.287790	0.267400	0.202600
C601	C60	0.336990	0.310700	0.219300
H231	H23	0.343800	0.323600	0.250100
C611	C61	0.375570	0.334360	0.189950
C621	C62	0.365190	0.314550	0.143770
H241	H24	0.391900	0.329600	0.124300
C631	C63	0.426890	0.384040	0.208340
C641	C64	0.207610	0.201340	0.908920
C651	C65	0.188320	0.185250	0.858550
C661	C66	0.218580	0.216600	0.826300
H251	H25	0.250000	0.248200	0.835600
C671	C67	0.201470	0.200300	0.779770
C681	C68	0.156090	0.151900	0.766000
H261	H26	0.145900	0.140300	0.735000
C691	C69	0.125600	0.120240	0.798390
C701	C70	0.141280	0.138120	0.844470
H271	H27	0.120100	0.118400	0.866200
C711	C71	0.077710	0.066490	0.783110
C721	C72	0.296740	0.845810	0.011010
Zn101	Zn10	0.808520	0.757520	0.481920
Zn111	Zn11	0.692500	0.693180	0.504670
Zn121	Zn12	0.976270	0.974810	0.795140
O371	O37	0.819820	0.654260	0.491870
O381	O38	0.736470	0.601400	0.511130
O391	O39	0.838400	0.771710	0.550790
O401	O40	0.749470	0.723770	0.563910
O411	O41	0.756010	0.736500	0.419880
O421	O42	0.674110	0.677170	0.436220
O431	O43	0.740660	0.346090	0.516070
O441	O44	0.829050	0.293820	0.506840
O451	O45	0.964840	0.898520	0.681900
O461	O46	0.926710	0.907210	0.747970
O471	O47	0.570250	0.551090	0.240970
O481	O48	0.549430	0.540690	0.312880
N101	N10	0.987140	0.471840	0.500260
N111	N11	0.745600	0.739890	0.729850
N121	N12	0.728660	0.730370	0.243560
C731	C73	0.791360	0.602660	0.502440
C741	C74	0.826050	0.536240	0.504350
C751	C75	0.796290	0.474200	0.509000
H281	H28	0.754500	0.473600	0.512200
C761	C76	0.828760	0.413420	0.508850
C771	C77	0.891790	0.414600	0.505330
H291	H29	0.913700	0.374000	0.505000
C781	C78	0.921930	0.476560	0.502350
C791	C79	0.888960	0.536790	0.501120
H301	H30	0.909000	0.578000	0.498100
C801	C80	0.800470	0.754450	0.576430
C811	C81	0.815470	0.772620	0.626610
C821	C82	0.776900	0.748900	0.656660
H311	H31	0.743600	0.720400	0.645700
C831	C83	0.787790	0.767400	0.702600
C841	C84	0.836990	0.810700	0.719300
H321	H32	0.843800	0.823600	0.750100
C851	C85	0.875570	0.834360	0.689950
C861	C86	0.865190	0.814550	0.643770
H331	H33	0.891900	0.829600	0.624300
C871	C87	0.926890	0.884040	0.708340
C881	C88	0.707610	0.701340	0.408920
C891	C89	0.688320	0.685250	0.358550
C901	C90	0.718580	0.716600	0.326300
H341	H34	0.750000	0.748200	0.335600
C911	C91	0.701470	0.700300	0.279770
C921	C92	0.656090	0.651900	0.266000
H351	H35	0.645900	0.640300	0.235000
C931	C93	0.625600	0.620240	0.298390
C941	C94	0.641280	0.638120	0.344470
H361	H36	0.620100	0.618400	0.366200
C951	C95	0.577710	0.566490	0.283110
C961	C96	0.796740	0.345810	0.511010
Zn131	Zn13	0.308520	0.742480	0.481920
Zn141	Zn14	0.192500	0.806820	0.504670
Zn151	Zn15	0.476270	0.525190	0.795140
O491	O49	0.319820	0.845740	0.491870
O501	O50	0.236470	0.898600	0.511130
O511	O51	0.338400	0.728290	0.550790
O521	O52	0.249470	0.776230	0.563910
O531	O53	0.256010	0.763500	0.419880
O541	O54	0.174110	0.822830	0.436220
O551	O55	0.240660	0.153910	0.516070
O561	O56	0.329050	0.206180	0.506840
O571	O57	0.464840	0.601480	0.681900
O581	O58	0.426710	0.592790	0.747970
O591	O59	0.070250	0.948910	0.240970
O601	O60	0.049430	0.959310	0.312880
N131	N13	0.487140	0.028160	0.500260
N141	N14	0.245600	0.760110	0.729850
N151	N15	0.228660	0.769630	0.243560
C971	C97	0.291360	0.897340	0.502440
C981	C98	0.326050	0.963760	0.504350
C991	C99	0.296290	0.025800	0.509000
H371	H37	0.254500	0.026400	0.512200
C1001	C100	0.328760	0.086580	0.508850
C1011	C101	0.391790	0.085400	0.505330
H381	H38	0.413700	0.126000	0.505000
C1021	C102	0.421930	0.023440	0.502350
C1031	C103	0.388960	0.963210	0.501120
H391	H39	0.409000	0.922000	0.498100
C1041	C104	0.300470	0.745550	0.576430
C1051	C105	0.315470	0.727380	0.626610
C1061	C106	0.276900	0.751100	0.656660
H401	H40	0.243600	0.779600	0.645700
C1071	C107	0.287790	0.732600	0.702600
C1081	C108	0.336990	0.689300	0.719300
H411	H41	0.343800	0.676400	0.750100
C1091	C109	0.375570	0.665640	0.689950
C1101	C110	0.365190	0.685450	0.643770
H421	H42	0.391900	0.670400	0.624300
C1111	C111	0.426890	0.615960	0.708340
C1121	C112	0.207610	0.798660	0.408920
C1131	C113	0.188320	0.814750	0.358550
C1141	C114	0.218580	0.783400	0.326300
H431	H43	0.250000	0.751800	0.335600
C1151	C115	0.201470	0.799700	0.279770
C1161	C116	0.156090	0.848100	0.266000
H441	H44	0.145900	0.859700	0.235000
C1171	C117	0.125600	0.879760	0.298390
C1181	C118	0.141280	0.861880	0.344470
H451	H45	0.120100	0.881600	0.366200
C1191	C119	0.077710	0.933510	0.283110
C1201	C120	0.296740	0.154190	0.511010
Zn161	Zn16	0.808520	0.242480	0.981920
Zn171	Zn17	0.692500	0.306820	0.004670
Zn181	Zn18	0.976270	0.025190	0.295140
O611	O61	0.819820	0.345740	0.991870
O621	O62	0.736470	0.398600	0.011130
O631	O63	0.838400	0.228290	0.050790
O641	O64	0.749470	0.276230	0.063910
O651	O65	0.756010	0.263500	0.919880
O661	O66	0.674110	0.322830	0.936220
O671	O67	0.740660	0.653910	0.016070
O681	O68	0.829050	0.706180	0.006840
O691	O69	0.964840	0.101480	0.181900
O701	O70	0.926710	0.092790	0.247970
O711	O71	0.570250	0.448910	0.740970
O721	O72	0.549430	0.459310	0.812880
N161	N16	0.987140	0.528160	0.000260
N171	N17	0.745600	0.260110	0.229850
N181	N18	0.728660	0.269630	0.743560
C1211	C121	0.791360	0.397340	0.002440
C1221	C122	0.826050	0.463760	0.004350
C1231	C123	0.796290	0.525800	0.009000
H461	H46	0.754500	0.526400	0.012200
C1241	C124	0.828760	0.586580	0.008850
C1251	C125	0.891790	0.585400	0.005330
H471	H47	0.913700	0.626000	0.005000
C1261	C126	0.921930	0.523440	0.002350
C1271	C127	0.888960	0.463210	0.001120
H481	H48	0.909000	0.422000	0.998100
C1281	C128	0.800470	0.245550	0.076430
C1291	C129	0.815470	0.227380	0.126610
C1301	C130	0.776900	0.251100	0.156660
H491	H49	0.743600	0.279600	0.145700
C1311	C131	0.787790	0.232600	0.202600
C1321	C132	0.836990	0.189300	0.219300
H501	H50	0.843800	0.176400	0.250100
C1331	C133	0.875570	0.165640	0.189950
C1341	C134	0.865190	0.185450	0.143770
H511	H51	0.891900	0.170400	0.124300
C1351	C135	0.926890	0.115960	0.208340
C1361	C136	0.707610	0.298660	0.908920
C1371	C137	0.688320	0.314750	0.858550
C1381	C138	0.718580	0.283400	0.826300
H521	H52	0.750000	0.251800	0.835600
C1391	C139	0.701470	0.299700	0.779770
C1401	C140	0.656090	0.348100	0.766000
H531	H53	0.645900	0.359700	0.735000
C1411	C141	0.625600	0.379760	0.798390
C1421	C142	0.641280	0.361880	0.844470
H541	H54	0.620100	0.381600	0.866200
C1431	C143	0.577710	0.433510	0.783110
C1441	C144	0.796740	0.654190	0.011010
Zn191	Zn19	0.691480	0.742480	0.018080
Zn201	Zn20	0.807500	0.806820	0.995330
Zn211	Zn21	0.523730	0.525190	0.704860
O731	O73	0.680180	0.845740	0.008130
O741	O74	0.763530	0.898600	0.988870
O751	O75	0.661600	0.728290	0.949210
O761	O76	0.750530	0.776230	0.936090
O771	O77	0.743990	0.763500	0.080120
O781	O78	0.825890	0.822830	0.063780
O791	O79	0.759340	0.153910	0.983930
O801	O80	0.670950	0.206180	0.993160
O811	O81	0.535160	0.601480	0.818100
O821	O82	0.573290	0.592790	0.752030
O831	O83	0.929750	0.948910	0.259030
O841	O84	0.950570	0.959310	0.187120
N191	N19	0.512860	0.028160	0.999740
N201	N20	0.754400	0.760110	0.770150
N211	N21	0.771340	0.769630	0.256440
C1451	C145	0.708640	0.897340	0.997560
C1461	C146	0.673950	0.963760	0.995650
C1471	C147	0.703710	0.025800	0.991000
H551	H55	0.745500	0.026400	0.987800
C1481	C148	0.671240	0.086580	0.991150
C1491	C149	0.608210	0.085400	0.994670
H561	H56	0.586300	0.126000	0.995000
C1501	C150	0.578070	0.023440	0.997650
C1511	C151	0.611040	0.963210	0.998880
H571	H57	0.591000	0.922000	0.001900
C1521	C152	0.699530	0.745550	0.923570
C1531	C153	0.684530	0.727380	0.873390
C1541	C154	0.723100	0.751100	0.843340
H581	H58	0.756400	0.779600	0.854300
C1551	C155	0.712210	0.732600	0.797400
C1561	C156	0.663010	0.689300	0.780700
H591	H59	0.656200	0.676400	0.749900
C1571	C157	0.624430	0.665640	0.810050
C1581	C158	0.634810	0.685450	0.856230
H601	H60	0.608100	0.670400	0.875700
C1591	C159	0.573110	0.615960	0.791660
C1601	C160	0.792390	0.798660	0.091080
C1611	C161	0.811680	0.814750	0.141450
C1621	C162	0.781420	0.783400	0.173700
H611	H61	0.750000	0.751800	0.164400
C1631	C163	0.798530	0.799700	0.220230
C1641	C164	0.843910	0.848100	0.234000
H621	H62	0.854100	0.859700	0.265000
C1651	C165	0.874400	0.879760	0.201610
C1661	C166	0.858720	0.861880	0.155530
H631	H63	0.879900	0.881600	0.133800
C1671	C167	0.922290	0.933510	0.216890
C1681	C168	0.703260	0.154190	0.988990
Zn221	Zn22	0.191480	0.242480	0.518080
Zn231	Zn23	0.307500	0.306820	0.495330
Zn241	Zn24	0.023730	0.025190	0.204860
O851	O85	0.180180	0.345740	0.508130
O861	O86	0.263530	0.398600	0.488870
O871	O87	0.161600	0.228290	0.449210
O881	O88	0.250530	0.276230	0.436090
O891	O89	0.243990	0.263500	0.580120
O901	O90	0.325890	0.322830	0.563780
O911	O91	0.259340	0.653910	0.483930
O921	O92	0.170950	0.706180	0.493160
O931	O93	0.035160	0.101480	0.318100
O941	O94	0.073290	0.092790	0.252030
O951	O95	0.429750	0.448910	0.759030
O961	O96	0.450570	0.459310	0.687120
N221	N22	0.012860	0.528160	0.499740
N231	N23	0.254400	0.260110	0.270150
N241	N24	0.271340	0.269630	0.756440
C1691	C169	0.208640	0.397340	0.497560
C1701	C170	0.173950	0.463760	0.495650
C1711	C171	0.203710	0.525800	0.491000
H641	H64	0.245500	0.526400	0.487800
C1721	C172	0.171240	0.586580	0.491150
C1731	C173	0.108210	0.585400	0.494670
H651	H65	0.086300	0.626000	0.495000
C1741	C174	0.078070	0.523440	0.497650
C1751	C175	0.111040	0.463210	0.498880
H661	H66	0.091000	0.422000	0.501900
C1761	C176	0.199530	0.245550	0.423570
C1771	C177	0.184530	0.227380	0.373390
C1781	C178	0.223100	0.251100	0.343340
H671	H67	0.256400	0.279600	0.354300
C1791	C179	0.212210	0.232600	0.297400
C1801	C180	0.163010	0.189300	0.280700
H681	H68	0.156200	0.176400	0.249900
C1811	C181	0.124430	0.165640	0.310050
C1821	C182	0.134810	0.185450	0.356230
H691	H69	0.108100	0.170400	0.375700
C1831	C183	0.073110	0.115960	0.291660
C1841	C184	0.292390	0.298660	0.591080
C1851	C185	0.311680	0.314750	0.641450
C1861	C186	0.281420	0.283400	0.673700
H701	H70	0.250000	0.251800	0.664400
C1871	C187	0.298530	0.299700	0.720230
C1881	C188	0.343910	0.348100	0.734000
H711	H71	0.354100	0.359700	0.765000
C1891	C189	0.374400	0.379760	0.701610
C1901	C190	0.358720	0.361880	0.655530
H721	H72	0.379900	0.381600	0.633800
C1911	C191	0.422290	0.433510	0.716890
C1921	C192	0.203260	0.654190	0.488990
