data_DUDZOT_clean_PM
_symmetry_space_group_name_H-M	'P1'
_cell_length_a	4.505400
_cell_length_b	10.335400
_cell_length_c	10.801700
_cell_angle_alpha	77.933000
_cell_angle_beta	79.230000
_cell_angle_gamma	83.148000
_symmetry_Int_Tables_number 1

loop_
_symmetry_equiv_pos_as_xyz
'x,y,z'

loop_
_atom_site_label
_atom_site_type_symbol
_atom_site_fract_x
_atom_site_fract_y
_atom_site_fract_z
Gd11	Gd1	0.171780	0.113260	0.578490
O11	O1	0.784900	0.252000	0.680000
O21	O2	0.367600	0.143000	0.758300
O31	O3	0.051800	0.049400	0.248200
O41	O4	0.712800	0.089900	0.499300
O51	O5	0.249000	0.177500	0.349800
N11	N1	0.925000	0.468200	0.049000
C11	C1	0.573300	0.208900	0.769200
C21	C2	0.571000	0.241400	0.899900
C31	C3	0.752500	0.336600	0.907800
H11	H1	0.875400	0.377800	0.834600
C41	C4	0.750900	0.370800	0.026400
C51	C5	0.574600	0.303900	0.135000
H21	H2	0.575400	0.325200	0.214400
C61	C6	0.397700	0.206100	0.127000
C71	C7	0.391600	0.175000	0.009400
H31	H3	0.270100	0.110800	0.002900
C81	C8	0.219000	0.136900	0.250700
Gd21	Gd2	0.828220	0.886740	0.421510
O61	O6	0.215100	0.748000	0.320000
O71	O7	0.632400	0.857000	0.241700
O81	O8	0.948200	0.950600	0.751800
O91	O9	0.287200	0.910100	0.500700
O101	O10	0.751000	0.822500	0.650200
N21	N2	0.075000	0.531800	0.951000
C91	C9	0.426700	0.791100	0.230800
C101	C10	0.429000	0.758600	0.100100
C111	C11	0.247500	0.663400	0.092200
H41	H4	0.124600	0.622200	0.165400
C121	C12	0.249100	0.629200	0.973600
C131	C13	0.425400	0.696100	0.865000
H51	H5	0.424600	0.674800	0.785600
C141	C14	0.602300	0.793900	0.873000
C151	C15	0.608400	0.825000	0.990600
H61	H6	0.729900	0.889200	0.997100
C161	C16	0.781000	0.863100	0.749300
