data_DUFGOB_clean_PM
_symmetry_space_group_name_H-M	'P1'
_cell_length_a	11.734100
_cell_length_b	17.518900
_cell_length_c	20.157900
_cell_angle_alpha	99.510000
_cell_angle_beta	90.000000
_cell_angle_gamma	90.000000
_symmetry_Int_Tables_number 1

loop_
_symmetry_equiv_pos_as_xyz
'x,y,z'

loop_
_atom_site_label
_atom_site_type_symbol
_atom_site_fract_x
_atom_site_fract_y
_atom_site_fract_z
K11	K1	0.311900	0.592280	0.454300
K21	K2	0.450400	0.940200	0.534560
K31	K3	0.260200	0.013200	0.970860
K41	K4	0.811900	0.407720	0.545700
K51	K5	0.950400	0.059800	0.465440
K61	K6	0.760200	0.986800	0.029140
U11	U1	0.366310	0.966760	0.753810
U21	U2	0.866310	0.033240	0.246190
H11	H1	0.093900	0.961500	0.816100
H21	H2	0.902700	0.967000	0.797900
H31	H3	0.839100	0.962700	0.684500
H41	H4	0.977400	0.969900	0.603000
H51	H5	0.165600	0.968700	0.628500
H61	H6	0.296500	0.815400	0.832700
H71	H7	0.274000	0.680600	0.820400
H81	H8	0.278100	0.610100	0.716400
H91	H9	0.292500	0.670400	0.620200
H101	H10	0.313600	0.805200	0.638700
H111	H11	0.579000	0.848100	0.676700
H121	H12	0.746500	0.783600	0.690500
H131	H13	0.808200	0.777400	0.800600
H141	H14	0.693000	0.837000	0.891400
H151	H15	0.536900	0.902100	0.869100
H161	H16	0.591500	0.051700	0.684000
H171	H17	0.756200	0.121400	0.700200
H181	H18	0.810300	0.167000	0.811000
H191	H19	0.703800	0.133700	0.899100
H201	H20	0.542500	0.064900	0.876100
H211	H21	0.317600	0.106900	0.664800
H221	H22	0.304900	0.227600	0.648600
H231	H23	0.318000	0.315000	0.750600
H241	H24	0.315400	0.275700	0.854200
H251	H25	0.314200	0.141600	0.859700
H261	H26	0.593900	0.038500	0.183900
H271	H27	0.402700	0.033000	0.202100
H281	H28	0.339100	0.037300	0.315500
H291	H29	0.477400	0.030100	0.397000
H301	H30	0.665600	0.031300	0.371500
H311	H31	0.796500	0.184600	0.167300
H321	H32	0.774000	0.319400	0.179600
H331	H33	0.778100	0.389900	0.283600
H341	H34	0.792500	0.329600	0.379800
H351	H35	0.813600	0.194800	0.361300
H361	H36	0.079000	0.151900	0.323300
H371	H37	0.246500	0.216400	0.309500
H381	H38	0.308200	0.222600	0.199400
H391	H39	0.193000	0.163000	0.108600
H401	H40	0.036900	0.097900	0.130900
H411	H41	0.091500	0.948300	0.316000
H421	H42	0.256200	0.878600	0.299800
H431	H43	0.310300	0.833000	0.189000
H441	H44	0.203800	0.866300	0.100900
H451	H45	0.042500	0.935100	0.123900
H461	H46	0.817600	0.893100	0.335200
H471	H47	0.804900	0.772400	0.351400
H481	H48	0.818000	0.685000	0.249400
H491	H49	0.815400	0.724300	0.145800
H501	H50	0.814200	0.858400	0.140300
C11	C1	0.069200	0.964200	0.772700
C21	C2	0.954000	0.965700	0.762500
C31	C3	0.916200	0.965000	0.695400
C41	C4	0.999200	0.967900	0.647000
C51	C5	0.112300	0.967700	0.662500
C61	C6	0.296300	0.785600	0.790000
C71	C7	0.283200	0.704600	0.782900
C81	C8	0.284200	0.663700	0.721500
C91	C9	0.294100	0.698900	0.663400
C101	C10	0.306500	0.779200	0.675200
C111	C11	0.603700	0.846500	0.720200
C121	C12	0.704900	0.806700	0.727700
C131	C13	0.741200	0.803000	0.792900
C141	C14	0.673000	0.839300	0.847100
C151	C15	0.579500	0.877000	0.833100
C161	C16	0.615300	0.069200	0.727900
C171	C17	0.713300	0.110900	0.736500
C181	C18	0.745200	0.136700	0.802000
C191	C19	0.681100	0.117900	0.854700
C201	C20	0.585800	0.076500	0.840400
C211	C21	0.315100	0.144200	0.703400
C221	C22	0.310400	0.213200	0.690900
C231	C23	0.314900	0.262200	0.751600
C241	C24	0.315300	0.239000	0.815100
C251	C25	0.315600	0.159600	0.818800
C261	C26	0.610000	0.611600	0.544300
C271	C27	0.118500	0.818000	0.461600
C281	C28	0.742000	0.820500	0.521000
C291	C29	0.956000	0.181800	0.997400
C301	C30	0.569200	0.035800	0.227300
C311	C31	0.454000	0.034300	0.237500
C321	C32	0.416200	0.035000	0.304600
C331	C33	0.499200	0.032100	0.353000
C341	C34	0.612300	0.032300	0.337500
C351	C35	0.796300	0.214400	0.210000
C361	C36	0.783200	0.295400	0.217100
C371	C37	0.784200	0.336300	0.278500
C381	C38	0.794100	0.301100	0.336600
C391	C39	0.806500	0.220800	0.324800
C401	C40	0.103700	0.153500	0.279800
C411	C41	0.204900	0.193300	0.272300
C421	C42	0.241200	0.197000	0.207100
C431	C43	0.173000	0.160700	0.152900
C441	C44	0.079500	0.123000	0.166900
C451	C45	0.115300	0.930800	0.272100
C461	C46	0.213300	0.889100	0.263500
C471	C47	0.245200	0.863300	0.198000
C481	C48	0.181100	0.882100	0.145300
C491	C49	0.085800	0.923500	0.159600
C501	C50	0.815100	0.855800	0.296600
C511	C51	0.810400	0.786800	0.309100
C521	C52	0.814900	0.737800	0.248400
C531	C53	0.815300	0.761000	0.184900
C541	C54	0.815600	0.840400	0.181200
C551	C55	0.110000	0.388400	0.455700
C561	C56	0.618500	0.182000	0.538400
C571	C57	0.242000	0.179500	0.479000
C581	C58	0.456000	0.818200	0.002600
S11	S1	0.576200	0.507100	0.530670
S21	S2	0.263800	0.787300	0.457100
S31	S3	0.725900	0.920350	0.511680
S41	S4	0.991200	0.095500	0.962600
S51	S5	0.076200	0.492900	0.469330
S61	S6	0.763800	0.212700	0.542900
S71	S7	0.225900	0.079650	0.488320
S81	S8	0.491200	0.904500	0.037400
N11	N1	0.149400	0.966300	0.726000
N21	N2	0.308300	0.819400	0.736700
N31	N3	0.541400	0.881400	0.769400
N41	N4	0.549300	0.051000	0.778400
N51	N5	0.317900	0.111900	0.760300
N61	N6	0.649400	0.033700	0.274000
N71	N7	0.808300	0.180600	0.263300
N81	N8	0.041400	0.118600	0.230600
N91	N9	0.049300	0.949000	0.221600
N101	N10	0.817900	0.888100	0.239700
O11	O1	0.396200	0.957300	0.664100
O21	O2	0.333000	0.975100	0.844100
O31	O3	0.456700	0.507200	0.514800
O41	O4	0.645500	0.473200	0.475100
O51	O5	0.608600	0.483700	0.594100
O61	O6	0.270100	0.727100	0.400400
O71	O7	0.317000	0.787000	0.519800
O81	O8	0.321800	0.852800	0.432800
O91	O9	0.643400	0.920000	0.458900
O101	O10	0.686900	0.954000	0.576000
O111	O11	0.841500	0.940300	0.496000
O121	O12	0.039900	0.056000	0.015300
O131	O13	0.055600	0.092800	0.904900
O141	O14	0.885100	0.056300	0.947800
O151	O15	0.896200	0.042700	0.335900
O161	O16	0.833000	0.024900	0.155900
O171	O17	0.956700	0.492800	0.485200
O181	O18	0.145500	0.526800	0.524900
O191	O19	0.108600	0.516300	0.405900
O201	O20	0.770100	0.272900	0.599600
O211	O21	0.817000	0.213000	0.480200
O221	O22	0.821800	0.147200	0.567200
O231	O23	0.143400	0.080000	0.541100
O241	O24	0.186900	0.046000	0.424000
O251	O25	0.341500	0.059700	0.504000
O261	O26	0.539900	0.944000	0.984700
O271	O27	0.555600	0.907200	0.095100
O281	O28	0.385100	0.943700	0.052200
F11	F1	0.576500	0.639400	0.489900
F21	F2	0.555500	0.648600	0.596300
F31	F3	0.720200	0.622300	0.553600
F41	F4	0.064800	0.773800	0.485800
F51	F5	0.081800	0.843000	0.411400
F61	F6	0.121000	0.885300	0.510400
F71	F7	0.817700	0.811000	0.567600
F81	F8	0.782000	0.776800	0.466200
F91	F9	0.641000	0.793800	0.540400
F101	F10	0.893900	0.184900	0.051600
F111	F11	0.037600	0.226200	0.017900
F121	F12	0.891600	0.224700	0.952200
F131	F13	0.076500	0.360600	0.510100
F141	F14	0.055500	0.351400	0.403700
F151	F15	0.220200	0.377700	0.446400
F161	F16	0.564800	0.226200	0.514200
F171	F17	0.581800	0.157000	0.588600
F181	F18	0.621000	0.114700	0.489600
F191	F19	0.317700	0.189000	0.432400
F201	F20	0.282000	0.223200	0.533800
F211	F21	0.141000	0.206200	0.459600
F221	F22	0.393900	0.815100	0.948400
F231	F23	0.537600	0.773800	0.982100
F241	F24	0.391600	0.775300	0.047800
