data_DUFXOT_clean_PM
_symmetry_space_group_name_H-M	'P1'
_cell_length_a	7.183400
_cell_length_b	22.367000
_cell_length_c	8.485200
_cell_angle_alpha	90.000000
_cell_angle_beta	90.000000
_cell_angle_gamma	90.000000
_symmetry_Int_Tables_number 1

loop_
_symmetry_equiv_pos_as_xyz
'x,y,z'

loop_
_atom_site_label
_atom_site_type_symbol
_atom_site_fract_x
_atom_site_fract_y
_atom_site_fract_z
O11	O1	0.083300	0.685400	0.024700
O21	O2	0.083300	0.185400	0.524700
O31	O3	0.916700	0.314600	0.024700
O41	O4	0.916700	0.814600	0.524700
O51	O5	0.583300	0.314600	0.024700
O61	O6	0.583300	0.814600	0.524700
O71	O7	0.416700	0.685400	0.024700
O81	O8	0.416700	0.185400	0.524700
Sr11	Sr1	0.250000	0.817490	0.424280
S11	S1	0.250000	0.680770	0.120300
O91	O9	0.250000	0.720700	0.253500
O101	O10	0.250000	0.394600	0.146100
O111	O11	0.250000	0.443800	0.924900
O121	O12	0.250000	0.478100	0.645900
H11	H1	0.250000	0.476100	0.742400
O131	O13	0.250000	0.575100	0.698800
C11	C1	0.250000	0.442800	0.070800
C21	C2	0.250000	0.533800	0.602700
C31	C3	0.250000	0.606800	0.203200
C41	C4	0.250000	0.556800	0.099900
H21	H2	0.250000	0.561800	0.991100
C51	C5	0.250000	0.499700	0.167800
C61	C6	0.250000	0.493300	0.329600
H31	H3	0.250000	0.455000	0.372700
C71	C7	0.250000	0.543200	0.431000
C81	C8	0.250000	0.599900	0.363300
H41	H4	0.250000	0.633500	0.427800
Sr21	Sr2	0.250000	0.317490	0.924280
S21	S2	0.250000	0.180770	0.620300
O141	O14	0.250000	0.220700	0.753500
O151	O15	0.250000	0.894600	0.646100
O161	O16	0.250000	0.943800	0.424900
O171	O17	0.250000	0.978100	0.145900
H51	H5	0.250000	0.976100	0.242400
O181	O18	0.250000	0.075100	0.198800
C91	C9	0.250000	0.942800	0.570800
C101	C10	0.250000	0.033800	0.102700
C111	C11	0.250000	0.106800	0.703200
C121	C12	0.250000	0.056800	0.599900
H61	H6	0.250000	0.061800	0.491100
C131	C13	0.250000	0.999700	0.667800
C141	C14	0.250000	0.993300	0.829600
H71	H7	0.250000	0.955000	0.872700
C151	C15	0.250000	0.043200	0.931000
C161	C16	0.250000	0.099900	0.863300
H81	H8	0.250000	0.133500	0.927800
Sr31	Sr3	0.750000	0.182510	0.424280
S31	S3	0.750000	0.319230	0.120300
O191	O19	0.750000	0.279300	0.253500
O201	O20	0.750000	0.605400	0.146100
O211	O21	0.750000	0.556200	0.924900
O221	O22	0.750000	0.521900	0.645900
H91	H9	0.750000	0.523900	0.742400
O231	O23	0.750000	0.424900	0.698800
C171	C17	0.750000	0.557200	0.070800
C181	C18	0.750000	0.466200	0.602700
C191	C19	0.750000	0.393200	0.203200
C201	C20	0.750000	0.443200	0.099900
H101	H10	0.750000	0.438200	0.991100
C211	C21	0.750000	0.500300	0.167800
C221	C22	0.750000	0.506700	0.329600
H111	H11	0.750000	0.545000	0.372700
C231	C23	0.750000	0.456800	0.431000
C241	C24	0.750000	0.400100	0.363300
H121	H12	0.750000	0.366500	0.427800
Sr41	Sr4	0.750000	0.682510	0.924280
S41	S4	0.750000	0.819230	0.620300
O241	O24	0.750000	0.779300	0.753500
O251	O25	0.750000	0.105400	0.646100
O261	O26	0.750000	0.056200	0.424900
O271	O27	0.750000	0.021900	0.145900
H131	H13	0.750000	0.023900	0.242400
O281	O28	0.750000	0.924900	0.198800
C251	C25	0.750000	0.057200	0.570800
C261	C26	0.750000	0.966200	0.102700
C271	C27	0.750000	0.893200	0.703200
C281	C28	0.750000	0.943200	0.599900
H141	H14	0.750000	0.938200	0.491100
C291	C29	0.750000	0.000300	0.667800
C301	C30	0.750000	0.006700	0.829600
H151	H15	0.750000	0.045000	0.872700
C311	C31	0.750000	0.956800	0.931000
C321	C32	0.750000	0.900100	0.863300
H161	H16	0.750000	0.866500	0.927800
