data_DUFZUA_clean_PM
_symmetry_space_group_name_H-M	'P1'
_cell_length_a	15.291000
_cell_length_b	15.291000
_cell_length_c	15.573000
_cell_angle_alpha	90.000000
_cell_angle_beta	90.000000
_cell_angle_gamma	120.000000
_symmetry_Int_Tables_number 1

loop_
_symmetry_equiv_pos_as_xyz
'x,y,z'

loop_
_atom_site_label
_atom_site_type_symbol
_atom_site_fract_x
_atom_site_fract_y
_atom_site_fract_z
Gd11	Gd1	0.666670	0.333340	0.750000
Gd21	Gd2	0.333330	0.666660	0.750000
Gd31	Gd3	0.333330	0.666660	0.250000
Gd41	Gd4	0.666670	0.333340	0.250000
Fe11	Fe1	0.500000	0.000000	0.000000
Fe21	Fe2	0.500000	0.500000	0.000000
Fe31	Fe3	0.000000	0.500000	0.000000
Fe41	Fe4	0.500000	0.000000	0.500000
Fe51	Fe5	0.000000	0.500000	0.500000
Fe61	Fe6	0.500000	0.500000	0.500000
H11	H1	0.286900	0.052800	0.841900
H21	H2	0.765900	0.713100	0.841900
H31	H3	0.947200	0.234100	0.841900
H41	H4	0.713100	0.947200	0.841900
H51	H5	0.234100	0.286900	0.841900
H61	H6	0.052800	0.765900	0.841900
H71	H7	0.234100	0.947200	0.658100
H81	H8	0.052800	0.286900	0.658100
H91	H9	0.713100	0.765900	0.658100
H101	H10	0.765900	0.052800	0.658100
H111	H11	0.947200	0.713100	0.658100
H121	H12	0.286900	0.234100	0.658100
H131	H13	0.713100	0.947200	0.158100
H141	H14	0.234100	0.286900	0.158100
H151	H15	0.052800	0.765900	0.158100
H161	H16	0.286900	0.052800	0.158100
H171	H17	0.765900	0.713100	0.158100
H181	H18	0.947200	0.234100	0.158100
H191	H19	0.765900	0.052800	0.341900
H201	H20	0.947200	0.713100	0.341900
H211	H21	0.286900	0.234100	0.341900
H221	H22	0.234100	0.947200	0.341900
H231	H23	0.052800	0.286900	0.341900
H241	H24	0.713100	0.765900	0.341900
H251	H25	0.200100	0.100050	0.750000
H261	H26	0.899950	0.799900	0.750000
H271	H27	0.899950	0.100050	0.750000
H281	H28	0.799900	0.899950	0.750000
H291	H29	0.100050	0.200100	0.750000
H301	H30	0.100050	0.899950	0.750000
H311	H31	0.799900	0.899950	0.250000
H321	H32	0.100050	0.200100	0.250000
H331	H33	0.100050	0.899950	0.250000
H341	H34	0.200100	0.100050	0.250000
H351	H35	0.899950	0.799900	0.250000
H361	H36	0.899950	0.100050	0.250000
C11	C1	0.321500	0.107300	0.804800
C21	C2	0.426000	0.161700	0.804100
C31	C3	0.491600	0.138900	0.861500
C41	C4	0.785800	0.678500	0.804800
C51	C5	0.735700	0.574000	0.804100
C61	C6	0.647300	0.508400	0.861500
C71	C7	0.892700	0.214200	0.804800
C81	C8	0.838300	0.264300	0.804100
C91	C9	0.861100	0.352700	0.861500
C101	C10	0.678500	0.892700	0.804800
C111	C11	0.574000	0.838300	0.804100
C121	C12	0.508400	0.861100	0.861500
C131	C13	0.214200	0.321500	0.804800
C141	C14	0.264300	0.426000	0.804100
C151	C15	0.352700	0.491600	0.861500
C161	C16	0.107300	0.785800	0.804800
C171	C17	0.161700	0.735700	0.804100
C181	C18	0.138900	0.647300	0.861500
C191	C19	0.214200	0.892700	0.695200
C201	C20	0.264300	0.838300	0.695900
C211	C21	0.352700	0.861100	0.638500
C221	C22	0.107300	0.321500	0.695200
C231	C23	0.161700	0.426000	0.695900
C241	C24	0.138900	0.491600	0.638500
C251	C25	0.678500	0.785800	0.695200
C261	C26	0.574000	0.735700	0.695900
C271	C27	0.508400	0.647300	0.638500
C281	C28	0.785800	0.107300	0.695200
C291	C29	0.735700	0.161700	0.695900
C301	C30	0.647300	0.138900	0.638500
C311	C31	0.892700	0.678500	0.695200
C321	C32	0.838300	0.574000	0.695900
C331	C33	0.861100	0.508400	0.638500
C341	C34	0.321500	0.214200	0.695200
C351	C35	0.426000	0.264300	0.695900
C361	C36	0.491600	0.352700	0.638500
C371	C37	0.678500	0.892700	0.195200
C381	C38	0.574000	0.838300	0.195900
C391	C39	0.508400	0.861100	0.138500
C401	C40	0.214200	0.321500	0.195200
C411	C41	0.264300	0.426000	0.195900
C421	C42	0.352700	0.491600	0.138500
C431	C43	0.107300	0.785800	0.195200
C441	C44	0.161700	0.735700	0.195900
C451	C45	0.138900	0.647300	0.138500
C461	C46	0.321500	0.107300	0.195200
C471	C47	0.426000	0.161700	0.195900
C481	C48	0.491600	0.138900	0.138500
C491	C49	0.785800	0.678500	0.195200
C501	C50	0.735700	0.574000	0.195900
C511	C51	0.647300	0.508400	0.138500
C521	C52	0.892700	0.214200	0.195200
C531	C53	0.838300	0.264300	0.195900
C541	C54	0.861100	0.352700	0.138500
C551	C55	0.785800	0.107300	0.304800
C561	C56	0.735700	0.161700	0.304100
C571	C57	0.647300	0.138900	0.361500
C581	C58	0.892700	0.678500	0.304800
C591	C59	0.838300	0.574000	0.304100
C601	C60	0.861100	0.508400	0.361500
C611	C61	0.321500	0.214200	0.304800
C621	C62	0.426000	0.264300	0.304100
C631	C63	0.491600	0.352700	0.361500
C641	C64	0.214200	0.892700	0.304800
C651	C65	0.264300	0.838300	0.304100
C661	C66	0.352700	0.861100	0.361500
C671	C67	0.107300	0.321500	0.304800
C681	C68	0.161700	0.426000	0.304100
C691	C69	0.138900	0.491600	0.361500
C701	C70	0.678500	0.785800	0.304800
C711	C71	0.574000	0.735700	0.304100
C721	C72	0.508400	0.647300	0.361500
C731	C73	0.270300	0.135150	0.750000
C741	C74	0.864850	0.729700	0.750000
C751	C75	0.864850	0.135150	0.750000
C761	C76	0.729700	0.864850	0.750000
C771	C77	0.135150	0.270300	0.750000
C781	C78	0.135150	0.864850	0.750000
C791	C79	0.729700	0.864850	0.250000
C801	C80	0.135150	0.270300	0.250000
C811	C81	0.135150	0.864850	0.250000
C821	C82	0.270300	0.135150	0.250000
C831	C83	0.864850	0.729700	0.250000
C841	C84	0.864850	0.135150	0.250000
N11	N1	0.477700	0.238850	0.750000
N21	N2	0.761150	0.522300	0.750000
N31	N3	0.761150	0.238850	0.750000
N41	N4	0.522300	0.761150	0.750000
N51	N5	0.238850	0.477700	0.750000
N61	N6	0.238850	0.761150	0.750000
N71	N7	0.522300	0.761150	0.250000
N81	N8	0.238850	0.477700	0.250000
N91	N9	0.238850	0.761150	0.250000
N101	N10	0.477700	0.238850	0.250000
N111	N11	0.761150	0.522300	0.250000
N121	N12	0.761150	0.238850	0.250000
O11	O1	0.586200	0.199300	0.856700
O21	O2	0.447100	0.062400	0.907900
O31	O3	0.613100	0.413800	0.856700
O41	O4	0.615300	0.552900	0.907900
O51	O5	0.800700	0.386900	0.856700
O61	O6	0.937600	0.384700	0.907900
O71	O7	0.413800	0.800700	0.856700
O81	O8	0.552900	0.937600	0.907900
O91	O9	0.386900	0.586200	0.856700
O101	O10	0.384700	0.447100	0.907900
O111	O11	0.199300	0.613100	0.856700
O121	O12	0.062400	0.615300	0.907900
O131	O13	0.386900	0.800700	0.643300
O141	O14	0.384700	0.937600	0.592100
O151	O15	0.199300	0.586200	0.643300
O161	O16	0.062400	0.447100	0.592100
O171	O17	0.413800	0.613100	0.643300
O181	O18	0.552900	0.615300	0.592100
O191	O19	0.613100	0.199300	0.643300
O201	O20	0.615300	0.062400	0.592100
O211	O21	0.800700	0.413800	0.643300
O221	O22	0.937600	0.552900	0.592100
O231	O23	0.586200	0.386900	0.643300
O241	O24	0.447100	0.384700	0.592100
O251	O25	0.413800	0.800700	0.143300
O261	O26	0.552900	0.937600	0.092100
O271	O27	0.386900	0.586200	0.143300
O281	O28	0.384700	0.447100	0.092100
O291	O29	0.199300	0.613100	0.143300
O301	O30	0.062400	0.615300	0.092100
O311	O31	0.586200	0.199300	0.143300
O321	O32	0.447100	0.062400	0.092100
O331	O33	0.613100	0.413800	0.143300
O341	O34	0.615300	0.552900	0.092100
O351	O35	0.800700	0.386900	0.143300
O361	O36	0.937600	0.384700	0.092100
O371	O37	0.613100	0.199300	0.356700
O381	O38	0.615300	0.062400	0.407900
O391	O39	0.800700	0.413800	0.356700
O401	O40	0.937600	0.552900	0.407900
O411	O41	0.586200	0.386900	0.356700
O421	O42	0.447100	0.384700	0.407900
O431	O43	0.386900	0.800700	0.356700
O441	O44	0.384700	0.937600	0.407900
O451	O45	0.199300	0.586200	0.356700
O461	O46	0.062400	0.447100	0.407900
O471	O47	0.413800	0.613100	0.356700
O481	O48	0.552900	0.615300	0.407900
