data_DUJRAD_clean_PM
_symmetry_space_group_name_H-M	'P1'
_cell_length_a	12.721000
_cell_length_b	13.820000
_cell_length_c	14.866000
_cell_angle_alpha	90.000000
_cell_angle_beta	90.000000
_cell_angle_gamma	90.000000
_symmetry_Int_Tables_number 1

loop_
_symmetry_equiv_pos_as_xyz
'x,y,z'

loop_
_atom_site_label
_atom_site_type_symbol
_atom_site_fract_x
_atom_site_fract_y
_atom_site_fract_z
Cu11	Cu1	0.499880	0.362490	0.485070
Ba11	Ba1	0.295080	0.198970	0.419920
C11	C1	0.586100	0.486400	0.600400
C21	C2	0.594100	0.558300	0.678100
C31	C3	0.681200	0.584900	0.726300
H11	H1	0.748300	0.561300	0.714800
C41	C4	0.659000	0.650700	0.793800
H21	H2	0.710000	0.677400	0.831100
C51	C5	0.555300	0.672200	0.800100
C61	C6	0.500300	0.736200	0.866800
C71	C7	0.602200	0.223500	0.396700
C81	C8	0.629300	0.141400	0.334100
C91	C9	0.722000	0.094500	0.328300
H31	H3	0.779600	0.109000	0.364300
C101	C10	0.722900	0.021200	0.262200
H41	H4	0.780900	0.983000	0.248400
C111	C11	0.626600	0.013900	0.221100
C121	C12	0.598400	0.949200	0.144300
O11	O1	0.495600	0.464700	0.575000
O21	O2	0.669700	0.456300	0.570600
O31	O3	0.404700	0.751500	0.855700
O41	O4	0.557800	0.768800	0.929500
O51	O5	0.508900	0.253200	0.395900
O61	O6	0.672400	0.256800	0.444600
O71	O7	0.505500	0.956400	0.114000
O81	O8	0.666400	0.892300	0.113200
S11	S1	0.482350	0.613580	0.719470
S21	S2	0.538940	0.095800	0.260870
Cu21	Cu2	0.000120	0.637510	0.985070
Ba21	Ba2	0.204920	0.801030	0.919920
C131	C13	0.913900	0.513600	0.100400
C141	C14	0.905900	0.441700	0.178100
C151	C15	0.818800	0.415100	0.226300
H51	H5	0.751700	0.438700	0.214800
C161	C16	0.841000	0.349300	0.293800
H61	H6	0.790000	0.322600	0.331100
C171	C17	0.944700	0.327800	0.300100
C181	C18	0.999700	0.263800	0.366800
C191	C19	0.897800	0.776500	0.896700
C201	C20	0.870700	0.858600	0.834100
C211	C21	0.778000	0.905500	0.828300
H71	H7	0.720400	0.891000	0.864300
C221	C22	0.777100	0.978800	0.762200
H81	H8	0.719100	0.017000	0.748400
C231	C23	0.873400	0.986100	0.721100
C241	C24	0.901600	0.050800	0.644300
O91	O9	0.004400	0.535300	0.075000
O101	O10	0.830300	0.543700	0.070600
O111	O11	0.095300	0.248500	0.355700
O121	O12	0.942200	0.231200	0.429500
O131	O13	0.991100	0.746800	0.895900
O141	O14	0.827600	0.743200	0.944600
O151	O15	0.994500	0.043600	0.614000
O161	O16	0.833600	0.107700	0.613200
S31	S3	0.017650	0.386420	0.219470
S41	S4	0.961060	0.904200	0.760870
Cu31	Cu3	0.500120	0.862490	0.014930
Ba31	Ba3	0.704920	0.698970	0.080080
C251	C25	0.413900	0.986400	0.899600
C261	C26	0.405900	0.058300	0.821900
C271	C27	0.318800	0.084900	0.773700
H91	H9	0.251700	0.061300	0.785200
C281	C28	0.341000	0.150700	0.706200
H101	H10	0.290000	0.177400	0.668900
C291	C29	0.444700	0.172200	0.699900
C301	C30	0.499700	0.236200	0.633200
C311	C31	0.397800	0.723500	0.103300
C321	C32	0.370700	0.641400	0.165900
C331	C33	0.278000	0.594500	0.171700
H111	H11	0.220400	0.609000	0.135700
C341	C34	0.277100	0.521200	0.237800
H121	H12	0.219100	0.483000	0.251600
C351	C35	0.373400	0.513900	0.278900
C361	C36	0.401600	0.449200	0.355700
O171	O17	0.504400	0.964700	0.925000
O181	O18	0.330300	0.956300	0.929400
O191	O19	0.595300	0.251500	0.644300
O201	O20	0.442200	0.268800	0.570500
O211	O21	0.491100	0.753200	0.104100
O221	O22	0.327600	0.756800	0.055400
O231	O23	0.494500	0.456400	0.386000
O241	O24	0.333600	0.392300	0.386800
S51	S5	0.517650	0.113580	0.780530
S61	S6	0.461060	0.595800	0.239130
Cu41	Cu4	0.999880	0.137510	0.514930
Ba41	Ba4	0.795080	0.301030	0.580080
C371	C37	0.086100	0.013600	0.399600
C381	C38	0.094100	0.941700	0.321900
C391	C39	0.181200	0.915100	0.273700
H131	H13	0.248300	0.938700	0.285200
C401	C40	0.159000	0.849300	0.206200
H141	H14	0.210000	0.822600	0.168900
C411	C41	0.055300	0.827800	0.199900
C421	C42	0.000300	0.763800	0.133200
C431	C43	0.102200	0.276500	0.603300
C441	C44	0.129300	0.358600	0.665900
C451	C45	0.222000	0.405500	0.671700
H151	H15	0.279600	0.391000	0.635700
C461	C46	0.222900	0.478800	0.737800
H161	H16	0.280900	0.517000	0.751600
C471	C47	0.126600	0.486100	0.778900
C481	C48	0.098400	0.550800	0.855700
O251	O25	0.995600	0.035300	0.425000
O261	O26	0.169700	0.043700	0.429400
O271	O27	0.904700	0.748500	0.144300
O281	O28	0.057800	0.731200	0.070500
O291	O29	0.008900	0.246800	0.604100
O301	O30	0.172400	0.243200	0.555400
O311	O31	0.005500	0.543600	0.886000
O321	O32	0.166400	0.607700	0.886800
S71	S7	0.982350	0.886420	0.280530
S81	S8	0.038940	0.404200	0.739130
