data_DULCAQ_clean_PM
_symmetry_space_group_name_H-M	'P1'
_cell_length_a	12.886000
_cell_length_b	16.478300
_cell_length_c	18.254100
_cell_angle_alpha	80.202000
_cell_angle_beta	86.039000
_cell_angle_gamma	81.673000
_symmetry_Int_Tables_number 1

loop_
_symmetry_equiv_pos_as_xyz
'x,y,z'

loop_
_atom_site_label
_atom_site_type_symbol
_atom_site_fract_x
_atom_site_fract_y
_atom_site_fract_z
Zn11	Zn1	0.832260	0.708570	0.325950
Zn21	Zn2	0.756660	0.236950	0.987740
Zn31	Zn3	0.486600	0.275130	0.263920
C11	C1	0.934200	0.588300	0.426600
C21	C2	0.952400	0.530300	0.499700
H11	H1	0.955800	0.563500	0.538300
H21	H2	0.892300	0.500400	0.512200
C31	C3	0.901500	0.102500	0.987400
C41	C4	0.945700	0.010100	0.994800
H31	H3	0.908700	0.980100	0.036500
H41	H4	0.930200	0.990100	0.950300
C51	C5	0.534600	0.285900	0.000100
C61	C6	0.426100	0.261500	0.016000
H51	H5	0.401400	0.249300	0.970500
H61	H6	0.379300	0.308500	0.029900
C71	C7	0.418500	0.186700	0.077000
H71	H7	0.466500	0.139700	0.064000
H81	H8	0.347900	0.172000	0.079700
C81	C8	0.444100	0.202400	0.153600
C91	C9	0.947700	0.846900	0.239300
H91	H9	0.895100	0.867300	0.205800
C101	C10	0.039100	0.875800	0.238100
H101	H10	0.061500	0.919400	0.204300
C111	C11	0.032900	0.775200	0.329200
H111	H11	0.051400	0.736100	0.370900
C121	C12	0.506600	0.443500	0.175500
H121	H12	0.491400	0.421800	0.134200
C131	C13	0.522900	0.519700	0.172300
H131	H13	0.521200	0.561600	0.131000
C141	C14	0.532100	0.448300	0.285500
H141	H14	0.537800	0.436700	0.336800
C151	C15	0.200500	0.838600	0.317600
H151	H15	0.217000	0.893300	0.295300
H161	H16	0.198900	0.835500	0.371200
C161	C16	0.285100	0.775500	0.295800
C171	C17	0.354400	0.793000	0.235200
H171	H17	0.344200	0.844600	0.204800
C181	C18	0.437600	0.735600	0.219400
H181	H18	0.479800	0.744800	0.176100
C191	C19	0.456600	0.660900	0.272500
C201	C20	0.384800	0.643100	0.324200
H191	H19	0.391500	0.590200	0.352500
C211	C21	0.300300	0.699000	0.338600
H201	H20	0.252800	0.684800	0.377700
C221	C22	0.558300	0.602000	0.268500
H211	H21	0.608300	0.629500	0.234400
H221	H22	0.587700	0.589000	0.317300
C231	C23	0.886800	0.303200	0.851900
H231	H23	0.938900	0.257500	0.857800
C241	C24	0.885900	0.369300	0.796900
H241	H24	0.936200	0.377700	0.758300
C251	C25	0.747200	0.386100	0.869700
H251	H25	0.683900	0.409700	0.889700
C261	C26	0.269100	0.679900	0.874100
H261	H26	0.335300	0.652600	0.887000
C271	C27	0.224200	0.675100	0.812100
H271	H27	0.250700	0.644200	0.775100
C281	C28	0.122000	0.757300	0.878400
H281	H28	0.064900	0.793200	0.893200
C291	C29	0.762100	0.502600	0.764300
H291	H29	0.693800	0.524700	0.783800
H301	H30	0.754500	0.495400	0.713400
C301	C30	0.837600	0.563800	0.764900
C311	C31	0.832500	0.613200	0.821500
H311	H31	0.781900	0.607500	0.860200
C321	C32	0.901300	0.669100	0.819700
H321	H32	0.896900	0.701000	0.857500
C331	C33	0.977100	0.679600	0.763100
C341	C34	0.982900	0.631000	0.709500
H331	H33	0.034700	0.635900	0.671500
C351	C35	0.913800	0.574600	0.710200
H341	H34	0.919300	0.542900	0.672200
C361	C36	0.050400	0.744300	0.758000
H351	H35	0.085800	0.749800	0.709100
H361	H36	0.009000	0.797400	0.762600
C371	C37	0.332200	0.312900	0.391400
H371	H37	0.369300	0.352400	0.404200
C381	C38	0.243000	0.290300	0.425300
H381	H38	0.208200	0.310300	0.466300
C391	C39	0.285100	0.220700	0.334400
H391	H39	0.283200	0.184200	0.301000
C401	C40	0.330900	0.775100	0.636300
H401	H40	0.350900	0.732100	0.609000
C411	C41	0.244700	0.831800	0.627000
H411	H41	0.195700	0.835300	0.591200
C421	C42	0.330200	0.855100	0.716900
H421	H42	0.348500	0.879500	0.755700
C431	C43	0.119800	0.188100	0.408600
H431	H43	0.109600	0.158000	0.369000
H441	H44	0.057800	0.228400	0.413200
C441	C44	0.132300	0.127700	0.480900
C451	C45	0.228600	0.100600	0.513600
H451	H45	0.288600	0.119900	0.489900
C461	C46	0.237900	0.045500	0.580800
H461	H46	0.302900	0.030000	0.601900
C471	C47	0.150900	0.014300	0.615600
C481	C48	0.056200	0.045900	0.587400
H471	H47	0.996000	0.027500	0.611700
C491	C49	0.046400	0.104600	0.523700
H481	H48	0.979700	0.129200	0.509300
C501	C50	0.161700	0.951500	0.687100
H491	H49	0.180900	0.978100	0.726700
H501	H50	0.094800	0.931600	0.701700
C511	C51	0.836800	0.556900	0.254100
H511	H51	0.843000	0.521500	0.299500
C521	C52	0.837300	0.532700	0.186400
H521	H52	0.844000	0.478400	0.176900
C531	C53	0.819700	0.666900	0.172000
H531	H53	0.811800	0.722300	0.149500
C541	C54	0.823400	0.607200	0.053800
H541	H54	0.825200	0.664100	0.029200
H551	H55	0.758400	0.590000	0.042200
C551	C55	0.914300	0.552400	0.025000
C561	C56	0.014800	0.576200	0.016900
H561	H56	0.025100	0.627100	0.028500
C571	C57	0.657000	0.843800	0.276100
H571	H57	0.690200	0.856400	0.229600
C581	C58	0.567300	0.882300	0.298300
H581	H58	0.526100	0.926200	0.270500
C591	C59	0.624800	0.786700	0.385600
H591	H59	0.630100	0.751500	0.431200
C601	C60	0.455100	0.875200	0.415900
H601	H60	0.432600	0.828200	0.449600
H611	H61	0.397600	0.899400	0.384100
N11	N1	0.942700	0.783200	0.296600
N21	N2	0.093200	0.829700	0.295300
N31	N3	0.513900	0.396500	0.247300
N41	N4	0.542900	0.524200	0.243700
N51	N5	0.798700	0.314000	0.897900
N61	N6	0.797200	0.420700	0.809200
N71	N7	0.206500	0.730100	0.917300
N81	N8	0.129700	0.725900	0.814300
N91	N9	0.359800	0.267600	0.334100
N101	N10	0.212400	0.232300	0.388800
N111	N11	0.384500	0.792400	0.694000
N121	N12	0.240300	0.882200	0.677000
N131	N13	0.825800	0.641800	0.244500
N141	N14	0.826100	0.603500	0.135400
N151	N15	0.694600	0.782000	0.332100
N161	N16	0.544800	0.846000	0.370300
O11	O1	0.844100	0.635300	0.421850
O21	O2	0.001000	0.591000	0.376110
O31	O3	0.804100	0.118700	0.986900
O41	O4	0.961000	0.156600	0.982500
O51	O5	0.607100	0.224400	0.000600
O61	O6	0.552000	0.358700	0.986600
O71	O7	0.459000	0.273900	0.159800
O81	O8	0.447600	0.146900	0.207100
C611	C61	0.902300	0.474900	0.007900
H621	H62	0.836100	0.457800	0.013500
C621	C62	0.478700	0.939100	0.460700
C631	C63	0.476800	0.021300	0.427300
H631	H63	0.460600	0.036300	0.377500
C641	C64	0.501600	0.918100	0.533800
H641	H64	0.502800	0.863400	0.557600
Zn41	Zn4	0.167740	0.291430	0.674050
Zn51	Zn5	0.243340	0.763050	0.012260
Zn61	Zn6	0.513400	0.724870	0.736080
C651	C65	0.065800	0.411700	0.573400
C661	C66	0.047600	0.469700	0.500300
H651	H65	0.044200	0.436500	0.461700
H661	H66	0.107700	0.499600	0.487800
C671	C67	0.098500	0.897500	0.012600
C681	C68	0.054300	0.989900	0.005200
H671	H67	0.091300	0.019900	0.963500
H681	H68	0.069800	0.009900	0.049700
C691	C69	0.465400	0.714100	0.999900
C701	C70	0.573900	0.738500	0.984000
H691	H69	0.598600	0.750700	0.029500
H701	H70	0.620700	0.691500	0.970100
C711	C71	0.581500	0.813300	0.923000
H711	H71	0.533500	0.860300	0.936000
H721	H72	0.652100	0.828000	0.920300
C721	C72	0.555900	0.797600	0.846400
C731	C73	0.052300	0.153100	0.760700
H731	H73	0.104900	0.132700	0.794200
C741	C74	0.960900	0.124200	0.761900
H741	H74	0.938500	0.080600	0.795700
C751	C75	0.967100	0.224800	0.670800
H751	H75	0.948600	0.263900	0.629100
C761	C76	0.493400	0.556500	0.824500
H761	H76	0.508600	0.578200	0.865800
C771	C77	0.477100	0.480300	0.827700
H771	H77	0.478800	0.438400	0.869000
C781	C78	0.467900	0.551700	0.714500
H781	H78	0.462200	0.563300	0.663200
C791	C79	0.799500	0.161400	0.682400
H791	H79	0.783000	0.106700	0.704700
H801	H80	0.801100	0.164500	0.628800
C801	C80	0.714900	0.224500	0.704200
C811	C81	0.645600	0.207000	0.764800
H811	H81	0.655800	0.155400	0.795200
C821	C82	0.562400	0.264400	0.780600
H821	H82	0.520200	0.255200	0.823900
C831	C83	0.543400	0.339100	0.727500
C841	C84	0.615200	0.356900	0.675800
H831	H83	0.608500	0.409800	0.647500
C851	C85	0.699700	0.301000	0.661400
H841	H84	0.747200	0.315200	0.622300
C861	C86	0.441700	0.398000	0.731500
H851	H85	0.391700	0.370500	0.765600
H861	H86	0.412300	0.411000	0.682700
C871	C87	0.113200	0.696800	0.148100
H871	H87	0.061100	0.742500	0.142200
C881	C88	0.114100	0.630700	0.203100
H881	H88	0.063800	0.622300	0.241700
C891	C89	0.252800	0.613900	0.130300
H891	H89	0.316100	0.590300	0.110300
C901	C90	0.730900	0.320100	0.125900
H901	H90	0.664700	0.347400	0.113000
C911	C91	0.775800	0.324900	0.187900
H911	H91	0.749300	0.355800	0.224900
C921	C92	0.878000	0.242700	0.121600
H921	H92	0.935100	0.206800	0.106800
C931	C93	0.237900	0.497400	0.235700
H931	H93	0.306200	0.475300	0.216200
H941	H94	0.245500	0.504600	0.286600
C941	C94	0.162400	0.436200	0.235100
C951	C95	0.167500	0.386800	0.178500
H951	H95	0.218100	0.392500	0.139800
C961	C96	0.098700	0.330900	0.180300
H961	H96	0.103100	0.299000	0.142500
C971	C97	0.022900	0.320400	0.236900
C981	C98	0.017100	0.369000	0.290500
H971	H97	0.965300	0.364100	0.328500
C991	C99	0.086200	0.425400	0.289800
H981	H98	0.080700	0.457100	0.327800
C1001	C100	0.949600	0.255700	0.242000
H991	H99	0.914200	0.250200	0.290900
H1001	H100	0.991000	0.202600	0.237400
C1011	C101	0.667800	0.687100	0.608600
H1011	H101	0.630700	0.647600	0.595800
C1021	C102	0.757000	0.709700	0.574700
H1021	H102	0.791800	0.689700	0.533700
C1031	C103	0.714900	0.779300	0.665600
H1031	H103	0.716800	0.815800	0.699000
C1041	C104	0.669100	0.224900	0.363700
H1041	H104	0.649100	0.267900	0.391000
C1051	C105	0.755300	0.168200	0.373000
H1051	H105	0.804300	0.164700	0.408800
C1061	C106	0.669800	0.144900	0.283100
H1061	H106	0.651500	0.120500	0.244300
C1071	C107	0.880200	0.811900	0.591400
H1071	H107	0.890400	0.842000	0.631000
H1081	H108	0.942200	0.771600	0.586800
C1081	C108	0.867700	0.872300	0.519100
C1091	C109	0.771400	0.899400	0.486400
H1091	H109	0.711400	0.880100	0.510100
C1101	C110	0.762100	0.954500	0.419200
H1101	H110	0.697100	0.970000	0.398100
C1111	C111	0.849100	0.985700	0.384400
C1121	C112	0.943800	0.954100	0.412600
H1111	H111	0.004000	0.972500	0.388300
C1131	C113	0.953600	0.895400	0.476300
H1121	H112	0.020300	0.870800	0.490700
C1141	C114	0.838300	0.048500	0.312900
H1131	H113	0.819100	0.021900	0.273300
H1141	H114	0.905200	0.068400	0.298300
C1151	C115	0.163200	0.443100	0.745900
H1151	H115	0.157000	0.478500	0.700500
C1161	C116	0.162700	0.467300	0.813600
H1161	H116	0.156000	0.521600	0.823100
C1171	C117	0.180300	0.333100	0.828000
H1171	H117	0.188200	0.277700	0.850500
C1181	C118	0.176600	0.392800	0.946200
H1181	H118	0.174800	0.335900	0.970800
H1191	H119	0.241600	0.410000	0.957800
C1191	C119	0.085700	0.447600	0.975000
C1201	C120	0.985200	0.423800	0.983100
H1201	H120	0.974900	0.372900	0.971500
C1211	C121	0.343000	0.156200	0.723900
H1211	H121	0.309800	0.143600	0.770400
C1221	C122	0.432700	0.117700	0.701700
H1221	H122	0.473900	0.073800	0.729500
C1231	C123	0.375200	0.213300	0.614400
H1231	H123	0.369900	0.248500	0.568800
C1241	C124	0.544900	0.124800	0.584100
H1241	H124	0.567400	0.171800	0.550400
H1251	H125	0.602400	0.100600	0.615900
N171	N17	0.057300	0.216800	0.703400
N181	N18	0.906800	0.170300	0.704700
N191	N19	0.486100	0.603500	0.752700
N201	N20	0.457100	0.475800	0.756300
N211	N21	0.201300	0.686000	0.102100
N221	N22	0.202800	0.579300	0.190800
N231	N23	0.793500	0.269900	0.082700
N241	N24	0.870300	0.274100	0.185700
N251	N25	0.640200	0.732400	0.665900
N261	N26	0.787600	0.767700	0.611200
N271	N27	0.615500	0.207600	0.306000
N281	N28	0.759700	0.117800	0.323000
N291	N29	0.174200	0.358200	0.755500
N301	N30	0.173900	0.396500	0.864600
N311	N31	0.305400	0.218000	0.667900
N321	N32	0.455200	0.154000	0.629700
O91	O9	0.155900	0.364700	0.578150
O101	O10	0.999000	0.409000	0.623890
O111	O11	0.195900	0.881300	0.013100
O121	O12	0.039000	0.843400	0.017500
O131	O13	0.392900	0.775600	0.999400
O141	O14	0.448000	0.641300	0.013400
O151	O15	0.541000	0.726100	0.840200
O161	O16	0.552400	0.853100	0.792900
C1251	C125	0.097700	0.525100	0.992100
H1261	H126	0.163900	0.542200	0.986500
C1261	C126	0.521300	0.060900	0.539300
C1271	C127	0.523200	0.978700	0.572700
H1271	H127	0.539400	0.963700	0.622500
C1281	C128	0.498400	0.081900	0.466200
H1281	H128	0.497200	0.136600	0.442400
