data_DUNXUH14_clean_PM
_symmetry_space_group_name_H-M	'P1'
_cell_length_a	11.258200
_cell_length_b	11.881200
_cell_length_c	16.212200
_cell_angle_alpha	90.000000
_cell_angle_beta	129.572000
_cell_angle_gamma	90.000000
_symmetry_Int_Tables_number 1

loop_
_symmetry_equiv_pos_as_xyz
'x,y,z'

loop_
_atom_site_label
_atom_site_type_symbol
_atom_site_fract_x
_atom_site_fract_y
_atom_site_fract_z
C11	C1	0.141700	0.893780	0.768290
C21	C2	0.083100	0.805670	0.696340
H11	H1	0.978900	0.785200	0.655300
C31	C3	0.179520	0.747260	0.684980
C41	C4	0.117900	0.650340	0.609470
C51	C5	0.333020	0.779040	0.745080
H21	H2	0.398000	0.740000	0.737300
C61	C6	0.390900	0.868370	0.816670
C71	C7	0.295700	0.925300	0.829330
H31	H3	0.334900	0.984700	0.878700
C81	C8	0.555800	0.903420	0.879930
O11	O1	0.066530	0.928200	0.886990
O21	O2	0.865770	0.939330	0.696360
O31	O3	0.060000	0.086010	0.791040
O41	O4	0.214480	0.579270	0.626250
O51	O5	0.974890	0.646540	0.534640
O61	O6	0.640420	0.852900	0.867670
O71	O7	0.606260	0.984270	0.944210
S11	S1	0.022210	0.969540	0.784790
Zn11	Zn1	0.177200	0.025970	0.017960
C91	C9	0.858300	0.393780	0.731710
C101	C10	0.916900	0.305670	0.803660
H41	H4	0.021100	0.285200	0.844700
C111	C11	0.820480	0.247260	0.815020
C121	C12	0.882100	0.150340	0.890530
C131	C13	0.666980	0.279040	0.754920
H51	H5	0.602000	0.240000	0.762700
C141	C14	0.609100	0.368370	0.683330
C151	C15	0.704300	0.425300	0.670670
H61	H6	0.665100	0.484700	0.621300
C161	C16	0.444200	0.403420	0.620070
O81	O8	0.933470	0.428200	0.613010
O91	O9	0.134230	0.439330	0.803640
O101	O10	0.940000	0.586010	0.708960
O111	O11	0.785520	0.079270	0.873750
O121	O12	0.025110	0.146540	0.965360
O131	O13	0.359580	0.352900	0.632330
O141	O14	0.393740	0.484270	0.555790
S21	S2	0.977790	0.469540	0.715210
Zn21	Zn2	0.822800	0.525970	0.482040
C171	C17	0.858300	0.106220	0.231710
C181	C18	0.916900	0.194330	0.303660
H71	H7	0.021100	0.214800	0.344700
C191	C19	0.820480	0.252740	0.315020
C201	C20	0.882100	0.349660	0.390530
C211	C21	0.666980	0.220960	0.254920
H81	H8	0.602000	0.260000	0.262700
C221	C22	0.609100	0.131630	0.183330
C231	C23	0.704300	0.074700	0.170670
H91	H9	0.665100	0.015300	0.121300
C241	C24	0.444200	0.096580	0.120070
O151	O15	0.933470	0.071800	0.113010
O161	O16	0.134230	0.060670	0.303640
O171	O17	0.940000	0.913990	0.208960
O181	O18	0.785520	0.420730	0.373750
O191	O19	0.025110	0.353460	0.465360
O201	O20	0.359580	0.147100	0.132330
O211	O21	0.393740	0.015730	0.055790
S31	S3	0.977790	0.030460	0.215210
Zn31	Zn3	0.822800	0.974030	0.982040
C251	C25	0.141700	0.606220	0.268290
C261	C26	0.083100	0.694330	0.196340
H101	H10	0.978900	0.714800	0.155300
C271	C27	0.179520	0.752740	0.184980
C281	C28	0.117900	0.849660	0.109470
C291	C29	0.333020	0.720960	0.245080
H111	H11	0.398000	0.760000	0.237300
C301	C30	0.390900	0.631630	0.316670
C311	C31	0.295700	0.574700	0.329330
H121	H12	0.334900	0.515300	0.378700
C321	C32	0.555800	0.596580	0.379930
O221	O22	0.066530	0.571800	0.386990
O231	O23	0.865770	0.560670	0.196360
O241	O24	0.060000	0.413990	0.291040
O251	O25	0.214480	0.920730	0.126250
O261	O26	0.974890	0.853460	0.034640
O271	O27	0.640420	0.647100	0.367670
O281	O28	0.606260	0.515730	0.444210
S41	S4	0.022210	0.530460	0.284790
Zn41	Zn4	0.177200	0.474030	0.517960
