data_DUQCAU_clean_PM
_symmetry_space_group_name_H-M	'P1'
_cell_length_a	8.281100
_cell_length_b	9.883400
_cell_length_c	10.181800
_cell_angle_alpha	99.053000
_cell_angle_beta	90.000000
_cell_angle_gamma	90.000000
_symmetry_Int_Tables_number 1

loop_
_symmetry_equiv_pos_as_xyz
'x,y,z'

loop_
_atom_site_label
_atom_site_type_symbol
_atom_site_fract_x
_atom_site_fract_y
_atom_site_fract_z
Pr11	Pr1	0.901610	0.815000	0.562930
Pr21	Pr2	0.401610	0.185000	0.937070
Pr31	Pr3	0.098390	0.185000	0.437070
Pr41	Pr4	0.598390	0.815000	0.062930
C11	C1	0.595000	0.022200	0.670900
C21	C2	0.603200	0.917100	0.768100
C31	C3	0.983500	0.494600	0.573900
C41	C4	0.095000	0.977800	0.829100
C51	C5	0.103200	0.082900	0.731900
C61	C6	0.483500	0.505400	0.926100
C71	C7	0.405000	0.977800	0.329100
C81	C8	0.396800	0.082900	0.231900
C91	C9	0.016500	0.505400	0.426100
C101	C10	0.905000	0.022200	0.170900
C111	C11	0.896800	0.917100	0.268100
C121	C12	0.516500	0.494600	0.073900
O11	O1	0.683300	0.995800	0.569800
O21	O2	0.505500	0.122900	0.700900
O31	O3	0.690800	0.816200	0.739000
O41	O4	0.519800	0.943600	0.873860
O51	O5	0.933500	0.598900	0.647100
O61	O6	0.009000	0.380100	0.607600
O71	O7	0.183300	0.004200	0.930200
O81	O8	0.005500	0.877100	0.799100
O91	O9	0.190800	0.183800	0.761000
O101	O10	0.019800	0.056400	0.626140
O111	O11	0.433500	0.401100	0.852900
O121	O12	0.509000	0.619900	0.892400
O131	O13	0.316700	0.004200	0.430200
O141	O14	0.494500	0.877100	0.299100
O151	O15	0.309200	0.183800	0.261000
O161	O16	0.480200	0.056400	0.126140
O171	O17	0.066500	0.401100	0.352900
O181	O18	0.991000	0.619900	0.392400
O191	O19	0.816700	0.995800	0.069800
O201	O20	0.994500	0.122900	0.200900
O211	O21	0.809200	0.816200	0.239000
O221	O22	0.980200	0.943600	0.373860
O231	O23	0.566500	0.598900	0.147100
O241	O24	0.491000	0.380100	0.107600
