data_DUQCAU01_clean_PM
_symmetry_space_group_name_H-M	'P1'
_cell_length_a	8.288300
_cell_length_b	9.891700
_cell_length_c	10.188700
_cell_angle_alpha	99.040000
_cell_angle_beta	90.000000
_cell_angle_gamma	90.000000
_symmetry_Int_Tables_number 1

loop_
_symmetry_equiv_pos_as_xyz
'x,y,z'

loop_
_atom_site_label
_atom_site_type_symbol
_atom_site_fract_x
_atom_site_fract_y
_atom_site_fract_z
Pr11	Pr1	0.901550	0.315020	0.562930
Pr21	Pr2	0.401550	0.684980	0.937070
Pr31	Pr3	0.098450	0.684980	0.437070
Pr41	Pr4	0.598450	0.315020	0.062930
C11	C1	0.602000	0.417500	0.768000
C21	C2	0.595100	0.522700	0.670400
C31	C3	0.015700	0.005500	0.425700
C41	C4	0.102000	0.582500	0.732000
C51	C5	0.095100	0.477300	0.829600
C61	C6	0.515700	0.994500	0.074300
C71	C7	0.398000	0.582500	0.232000
C81	C8	0.404900	0.477300	0.329600
C91	C9	0.984300	0.994500	0.574300
C101	C10	0.898000	0.417500	0.268000
C111	C11	0.904900	0.522700	0.170400
C121	C12	0.484300	0.005500	0.925700
O11	O1	0.690900	0.316100	0.739000
O21	O2	0.520000	0.443600	0.873900
O31	O3	0.683500	0.495900	0.569600
O41	O4	0.505500	0.623100	0.700500
O51	O5	0.990300	0.119700	0.392500
O61	O6	0.066400	0.900900	0.352700
O71	O7	0.190900	0.683900	0.761000
O81	O8	0.020000	0.556400	0.626100
O91	O9	0.183500	0.504100	0.930400
O101	O10	0.005500	0.376900	0.799500
O111	O11	0.490300	0.880300	0.107500
O121	O12	0.566400	0.099100	0.147300
O131	O13	0.309100	0.683900	0.261000
O141	O14	0.480000	0.556400	0.126100
O151	O15	0.316500	0.504100	0.430400
O161	O16	0.494500	0.376900	0.299500
O171	O17	0.009700	0.880300	0.607500
O181	O18	0.933600	0.099100	0.647300
O191	O19	0.809100	0.316100	0.239000
O201	O20	0.980000	0.443600	0.373900
O211	O21	0.816500	0.495900	0.069600
O221	O22	0.994500	0.623100	0.200500
O231	O23	0.509700	0.119700	0.892500
O241	O24	0.433600	0.900900	0.852700
