data_DUQSEO_clean_PM
_symmetry_space_group_name_H-M	'P1'
_cell_length_a	8.884000
_cell_length_b	10.281900
_cell_length_c	10.281900
_cell_angle_alpha	79.092600
_cell_angle_beta	64.404100
_cell_angle_gamma	64.404100
_symmetry_Int_Tables_number 1

loop_
_symmetry_equiv_pos_as_xyz
'x,y,z'

loop_
_atom_site_label
_atom_site_type_symbol
_atom_site_fract_x
_atom_site_fract_y
_atom_site_fract_z
La11	La1	0.205950	0.544050	0.044050
La21	La2	0.294050	0.955950	0.455950
H11	H1	0.008500	0.361200	0.404600
H21	H2	0.225700	0.904600	0.861200
H31	H3	0.491500	0.595400	0.638800
H41	H4	0.274300	0.138800	0.095400
H51	H5	0.750000	0.388500	0.611500
H61	H6	0.250000	0.111500	0.888500
C11	C1	0.903290	0.444010	0.416810
C21	C2	0.235890	0.916810	0.944010
C31	C3	0.596710	0.583190	0.555990
C41	C4	0.264110	0.055990	0.083190
C51	C5	0.750000	0.773590	0.226410
C61	C6	0.750000	0.661340	0.338660
C71	C7	0.750000	0.459500	0.540500
C81	C8	0.250000	0.726410	0.273590
C91	C9	0.250000	0.838660	0.161340
C101	C10	0.250000	0.040500	0.959500
C111	C11	0.563000	0.250000	0.250000
C121	C12	0.394900	0.250000	0.250000
C131	C13	0.937000	0.750000	0.750000
C141	C14	0.105100	0.750000	0.750000
N11	N1	0.895940	0.769230	0.110430
N21	N2	0.837190	0.891090	0.037530
N31	N3	0.904930	0.545720	0.312880
N41	N4	0.661970	0.317740	0.152200
N51	N5	0.798020	0.290180	0.191620
N61	N6	0.224400	0.610430	0.269230
N71	N7	0.234190	0.537530	0.391090
N81	N8	0.236470	0.812880	0.045720
N91	N9	0.868090	0.652200	0.817740
N101	N10	0.720180	0.691620	0.790180
N111	N11	0.604060	0.889570	0.230770
N121	N12	0.662810	0.962470	0.108910
N131	N13	0.595070	0.687120	0.454280
N141	N14	0.838030	0.847800	0.682260
N151	N15	0.701980	0.808380	0.709820
N161	N16	0.275600	0.730770	0.389570
N171	N17	0.265810	0.608910	0.462470
N181	N18	0.263530	0.954280	0.187120
N191	N19	0.631910	0.182260	0.347800
N201	N20	0.779820	0.209820	0.308380
O11	O1	0.341410	0.321180	0.154600
O21	O2	0.182810	0.654600	0.821180
O31	O3	0.158590	0.845400	0.678820
O41	O4	0.317190	0.178820	0.345400
