data_DUWBEE_clean_PM
_symmetry_space_group_name_H-M	'P1'
_cell_length_a	26.706300
_cell_length_b	19.513000
_cell_length_c	28.893800
_cell_angle_alpha	90.000000
_cell_angle_beta	90.000000
_cell_angle_gamma	90.000000
_symmetry_Int_Tables_number 1

loop_
_symmetry_equiv_pos_as_xyz
'x,y,z'

loop_
_atom_site_label
_atom_site_type_symbol
_atom_site_fract_x
_atom_site_fract_y
_atom_site_fract_z
Cd11	Cd1	0.520180	0.728440	0.015500
Cd21	Cd2	0.464810	0.868890	0.078530
Cd31	Cd3	0.847450	0.878750	0.204390
Cd41	Cd4	0.764010	0.743670	0.245570
O11	O1	0.722580	0.352590	0.771780
O21	O2	0.691890	0.252490	0.791710
O31	O3	0.559380	0.239640	0.911610
O41	O4	0.525920	0.335460	0.939330
O51	O5	0.695480	0.657250	0.770330
O61	O6	0.688830	0.747300	0.816420
O71	O7	0.580730	0.729610	0.957520
O81	O8	0.548910	0.629780	0.976490
O91	O9	0.542070	0.828060	0.053320
O101	O10	0.591000	0.742030	0.072490
O111	O11	0.550210	0.125240	0.997130
O121	O12	0.538240	0.226090	0.032400
O131	O13	0.638040	0.272520	0.174580
O141	O14	0.679490	0.185490	0.207220
O151	O15	0.731060	0.791040	0.183060
O161	O16	0.770770	0.891220	0.173040
C11	C1	0.556010	0.302800	0.913750
C21	C2	0.591210	0.344200	0.884140
C31	C3	0.622870	0.312100	0.853190
H11	H1	0.621700	0.263700	0.849600
C41	C4	0.656620	0.350900	0.827280
C51	C5	0.691980	0.316400	0.794840
C61	C6	0.658030	0.421200	0.833230
H21	H2	0.681600	0.447300	0.816100
C71	C7	0.625890	0.454820	0.863640
C81	C8	0.592180	0.415300	0.888820
H31	H3	0.569500	0.437000	0.909500
C91	C9	0.627720	0.530800	0.869880
C101	C10	0.652100	0.571800	0.837240
H41	H4	0.667100	0.551400	0.810800
C111	C11	0.654470	0.642700	0.843380
C121	C12	0.631470	0.673500	0.880980
H51	H5	0.633400	0.721700	0.885100
C131	C13	0.605410	0.633300	0.912840
C141	C14	0.604470	0.562400	0.907200
H61	H6	0.587500	0.535100	0.929400
C151	C15	0.680900	0.685760	0.808280
C161	C16	0.576750	0.666100	0.951680
C171	C17	0.580790	0.804300	0.073400
C181	C18	0.615600	0.854100	0.096530
C191	C19	0.656520	0.831000	0.121330
H71	H7	0.661800	0.783100	0.125000
C201	C20	0.690120	0.877100	0.141040
C211	C21	0.681310	0.947300	0.136550
H81	H8	0.704500	0.979000	0.149300
C221	C22	0.638550	0.972000	0.113370
C231	C23	0.606220	0.924200	0.093200
H91	H9	0.577400	0.939800	0.077000
C241	C24	0.627390	0.046700	0.109880
C251	C25	0.600260	0.072900	0.072420
H101	H10	0.591400	0.043200	0.047700
C261	C26	0.585920	0.141500	0.070640
C271	C27	0.600880	0.185500	0.105800
H111	H11	0.590600	0.232100	0.105200
C281	C28	0.630590	0.162100	0.141710
C291	C29	0.643330	0.092700	0.144080
H121	H12	0.663000	0.076600	0.169200
C301	C30	0.650960	0.211000	0.177210
C311	C31	0.555840	0.166700	0.029900
C321	C32	0.734430	0.851300	0.167790
Cd51	Cd5	0.979820	0.771560	0.515500
Cd61	Cd6	0.035190	0.631110	0.578530
Cd71	Cd7	0.652550	0.621250	0.704390
Cd81	Cd8	0.735990	0.756330	0.745570
O171	O17	0.777420	0.147410	0.271780
O181	O18	0.808110	0.247510	0.291710
O191	O19	0.940620	0.260360	0.411610
O201	O20	0.974080	0.164540	0.439330
O211	O21	0.804520	0.842750	0.270330
O221	O22	0.811170	0.752700	0.316420
O231	O23	0.919270	0.770390	0.457520
O241	O24	0.951090	0.870220	0.476490
O251	O25	0.957930	0.671940	0.553320
O261	O26	0.909000	0.757970	0.572490
O271	O27	0.949790	0.374760	0.497130
O281	O28	0.961760	0.273910	0.532400
O291	O29	0.861960	0.227480	0.674580
O301	O30	0.820510	0.314510	0.707220
O311	O31	0.768940	0.708960	0.683060
O321	O32	0.729230	0.608780	0.673040
C331	C33	0.943990	0.197200	0.413750
C341	C34	0.908790	0.155800	0.384140
C351	C35	0.877130	0.187900	0.353190
H131	H13	0.878300	0.236300	0.349600
C361	C36	0.843380	0.149100	0.327280
C371	C37	0.808020	0.183600	0.294840
C381	C38	0.841970	0.078800	0.333230
H141	H14	0.818400	0.052700	0.316100
C391	C39	0.874110	0.045180	0.363640
C401	C40	0.907820	0.084700	0.388820
H151	H15	0.930500	0.063000	0.409500
C411	C41	0.872280	0.969200	0.369880
C421	C42	0.847900	0.928200	0.337240
H161	H16	0.832900	0.948600	0.310800
C431	C43	0.845530	0.857300	0.343380
C441	C44	0.868530	0.826500	0.380980
H171	H17	0.866600	0.778300	0.385100
C451	C45	0.894590	0.866700	0.412840
C461	C46	0.895530	0.937600	0.407200
H181	H18	0.912500	0.964900	0.429400
C471	C47	0.819100	0.814240	0.308280
C481	C48	0.923250	0.833900	0.451680
C491	C49	0.919210	0.695700	0.573400
C501	C50	0.884400	0.645900	0.596530
C511	C51	0.843480	0.669000	0.621330
H191	H19	0.838200	0.716900	0.625000
C521	C52	0.809880	0.622900	0.641040
C531	C53	0.818690	0.552700	0.636550
H201	H20	0.795500	0.521000	0.649300
C541	C54	0.861450	0.528000	0.613370
C551	C55	0.893780	0.575800	0.593200
H211	H21	0.922600	0.560200	0.577000
C561	C56	0.872610	0.453300	0.609880
C571	C57	0.899740	0.427100	0.572420
H221	H22	0.908600	0.456800	0.547700
C581	C58	0.914080	0.358500	0.570640
C591	C59	0.899120	0.314500	0.605800
H231	H23	0.909400	0.267900	0.605200
C601	C60	0.869410	0.337900	0.641710
C611	C61	0.856670	0.407300	0.644080
H241	H24	0.837000	0.423400	0.669200
C621	C62	0.849040	0.289000	0.677210
C631	C63	0.944160	0.333300	0.529900
C641	C64	0.765570	0.648700	0.667790
Cd91	Cd9	0.479820	0.728440	0.484500
Cd101	Cd10	0.535190	0.868890	0.421470
Cd111	Cd11	0.152550	0.878750	0.295610
Cd121	Cd12	0.235990	0.743670	0.254430
O331	O33	0.277420	0.352590	0.728220
O341	O34	0.308110	0.252490	0.708290
O351	O35	0.440620	0.239640	0.588390
O361	O36	0.474080	0.335460	0.560670
O371	O37	0.304520	0.657250	0.729670
O381	O38	0.311170	0.747300	0.683580
O391	O39	0.419270	0.729610	0.542480
O401	O40	0.451090	0.629780	0.523510
O411	O41	0.457930	0.828060	0.446680
O421	O42	0.409000	0.742030	0.427510
O431	O43	0.449790	0.125240	0.502870
O441	O44	0.461760	0.226090	0.467600
O451	O45	0.361960	0.272520	0.325420
O461	O46	0.320510	0.185490	0.292780
O471	O47	0.268940	0.791040	0.316940
O481	O48	0.229230	0.891220	0.326960
C651	C65	0.443990	0.302800	0.586250
C661	C66	0.408790	0.344200	0.615860
C671	C67	0.377130	0.312100	0.646810
H251	H25	0.378300	0.263700	0.650400
C681	C68	0.343380	0.350900	0.672720
C691	C69	0.308020	0.316400	0.705160
C701	C70	0.341970	0.421200	0.666770
H261	H26	0.318400	0.447300	0.683900
C711	C71	0.374110	0.454820	0.636360
C721	C72	0.407820	0.415300	0.611180
H271	H27	0.430500	0.437000	0.590500
C731	C73	0.372280	0.530800	0.630120
C741	C74	0.347900	0.571800	0.662760
H281	H28	0.332900	0.551400	0.689200
C751	C75	0.345530	0.642700	0.656620
C761	C76	0.368530	0.673500	0.619020
H291	H29	0.366600	0.721700	0.614900
C771	C77	0.394590	0.633300	0.587160
C781	C78	0.395530	0.562400	0.592800
H301	H30	0.412500	0.535100	0.570600
C791	C79	0.319100	0.685760	0.691720
C801	C80	0.423250	0.666100	0.548320
C811	C81	0.419210	0.804300	0.426600
C821	C82	0.384400	0.854100	0.403470
C831	C83	0.343480	0.831000	0.378670
H311	H31	0.338200	0.783100	0.375000
C841	C84	0.309880	0.877100	0.358960
C851	C85	0.318690	0.947300	0.363450
H321	H32	0.295500	0.979000	0.350700
C861	C86	0.361450	0.972000	0.386630
C871	C87	0.393780	0.924200	0.406800
H331	H33	0.422600	0.939800	0.423000
C881	C88	0.372610	0.046700	0.390120
C891	C89	0.399740	0.072900	0.427580
H341	H34	0.408600	0.043200	0.452300
C901	C90	0.414080	0.141500	0.429360
C911	C91	0.399120	0.185500	0.394200
H351	H35	0.409400	0.232100	0.394800
C921	C92	0.369410	0.162100	0.358290
C931	C93	0.356670	0.092700	0.355920
H361	H36	0.337000	0.076600	0.330800
C941	C94	0.349040	0.211000	0.322790
C951	C95	0.444160	0.166700	0.470100
C961	C96	0.265570	0.851300	0.332210
Cd131	Cd13	0.020180	0.771560	0.984500
Cd141	Cd14	0.964810	0.631110	0.921470
Cd151	Cd15	0.347450	0.621250	0.795610
Cd161	Cd16	0.264010	0.756330	0.754430
O491	O49	0.222580	0.147410	0.228220
O501	O50	0.191890	0.247510	0.208290
O511	O51	0.059380	0.260360	0.088390
O521	O52	0.025920	0.164540	0.060670
O531	O53	0.195480	0.842750	0.229670
O541	O54	0.188830	0.752700	0.183580
O551	O55	0.080730	0.770390	0.042480
O561	O56	0.048910	0.870220	0.023510
O571	O57	0.042070	0.671940	0.946680
O581	O58	0.091000	0.757970	0.927510
O591	O59	0.050210	0.374760	0.002870
O601	O60	0.038240	0.273910	0.967600
O611	O61	0.138040	0.227480	0.825420
O621	O62	0.179490	0.314510	0.792780
O631	O63	0.231060	0.708960	0.816940
O641	O64	0.270770	0.608780	0.826960
C971	C97	0.056010	0.197200	0.086250
C981	C98	0.091210	0.155800	0.115860
C991	C99	0.122870	0.187900	0.146810
H371	H37	0.121700	0.236300	0.150400
C1001	C100	0.156620	0.149100	0.172720
C1011	C101	0.191980	0.183600	0.205160
C1021	C102	0.158030	0.078800	0.166770
H381	H38	0.181600	0.052700	0.183900
C1031	C103	0.125890	0.045180	0.136360
C1041	C104	0.092180	0.084700	0.111180
H391	H39	0.069500	0.063000	0.090500
C1051	C105	0.127720	0.969200	0.130120
C1061	C106	0.152100	0.928200	0.162760
H401	H40	0.167100	0.948600	0.189200
C1071	C107	0.154470	0.857300	0.156620
C1081	C108	0.131470	0.826500	0.119020
H411	H41	0.133400	0.778300	0.114900
C1091	C109	0.105410	0.866700	0.087160
C1101	C110	0.104470	0.937600	0.092800
H421	H42	0.087500	0.964900	0.070600
C1111	C111	0.180900	0.814240	0.191720
C1121	C112	0.076750	0.833900	0.048320
C1131	C113	0.080790	0.695700	0.926600
C1141	C114	0.115600	0.645900	0.903470
C1151	C115	0.156520	0.669000	0.878670
H431	H43	0.161800	0.716900	0.875000
C1161	C116	0.190120	0.622900	0.858960
C1171	C117	0.181310	0.552700	0.863450
H441	H44	0.204500	0.521000	0.850700
C1181	C118	0.138550	0.528000	0.886630
C1191	C119	0.106220	0.575800	0.906800
H451	H45	0.077400	0.560200	0.923000
C1201	C120	0.127390	0.453300	0.890120
C1211	C121	0.100260	0.427100	0.927580
H461	H46	0.091400	0.456800	0.952300
C1221	C122	0.085920	0.358500	0.929360
C1231	C123	0.100880	0.314500	0.894200
H471	H47	0.090600	0.267900	0.894800
C1241	C124	0.130590	0.337900	0.858290
C1251	C125	0.143330	0.407300	0.855920
H481	H48	0.163000	0.423400	0.830800
C1261	C126	0.150960	0.289000	0.822790
C1271	C127	0.055840	0.333300	0.970100
C1281	C128	0.234430	0.648700	0.832210
Cd171	Cd17	0.479820	0.271560	0.984500
Cd181	Cd18	0.535190	0.131110	0.921470
Cd191	Cd19	0.152550	0.121250	0.795610
Cd201	Cd20	0.235990	0.256330	0.754430
O651	O65	0.277420	0.647410	0.228220
O661	O66	0.308110	0.747510	0.208290
O671	O67	0.440620	0.760360	0.088390
O681	O68	0.474080	0.664540	0.060670
O691	O69	0.304520	0.342750	0.229670
O701	O70	0.311170	0.252700	0.183580
O711	O71	0.419270	0.270390	0.042480
O721	O72	0.451090	0.370220	0.023510
O731	O73	0.457930	0.171940	0.946680
O741	O74	0.409000	0.257970	0.927510
O751	O75	0.449790	0.874760	0.002870
O761	O76	0.461760	0.773910	0.967600
O771	O77	0.361960	0.727480	0.825420
O781	O78	0.320510	0.814510	0.792780
O791	O79	0.268940	0.208960	0.816940
O801	O80	0.229230	0.108780	0.826960
C1291	C129	0.443990	0.697200	0.086250
C1301	C130	0.408790	0.655800	0.115860
C1311	C131	0.377130	0.687900	0.146810
H491	H49	0.378300	0.736300	0.150400
C1321	C132	0.343380	0.649100	0.172720
C1331	C133	0.308020	0.683600	0.205160
C1341	C134	0.341970	0.578800	0.166770
H501	H50	0.318400	0.552700	0.183900
C1351	C135	0.374110	0.545180	0.136360
C1361	C136	0.407820	0.584700	0.111180
H511	H51	0.430500	0.563000	0.090500
C1371	C137	0.372280	0.469200	0.130120
C1381	C138	0.347900	0.428200	0.162760
H521	H52	0.332900	0.448600	0.189200
C1391	C139	0.345530	0.357300	0.156620
C1401	C140	0.368530	0.326500	0.119020
H531	H53	0.366600	0.278300	0.114900
C1411	C141	0.394590	0.366700	0.087160
C1421	C142	0.395530	0.437600	0.092800
H541	H54	0.412500	0.464900	0.070600
C1431	C143	0.319100	0.314240	0.191720
C1441	C144	0.423250	0.333900	0.048320
C1451	C145	0.419210	0.195700	0.926600
C1461	C146	0.384400	0.145900	0.903470
C1471	C147	0.343480	0.169000	0.878670
H551	H55	0.338200	0.216900	0.875000
C1481	C148	0.309880	0.122900	0.858960
C1491	C149	0.318690	0.052700	0.863450
H561	H56	0.295500	0.021000	0.850700
C1501	C150	0.361450	0.028000	0.886630
C1511	C151	0.393780	0.075800	0.906800
H571	H57	0.422600	0.060200	0.923000
C1521	C152	0.372610	0.953300	0.890120
C1531	C153	0.399740	0.927100	0.927580
H581	H58	0.408600	0.956800	0.952300
C1541	C154	0.414080	0.858500	0.929360
C1551	C155	0.399120	0.814500	0.894200
H591	H59	0.409400	0.767900	0.894800
C1561	C156	0.369410	0.837900	0.858290
C1571	C157	0.356670	0.907300	0.855920
H601	H60	0.337000	0.923400	0.830800
C1581	C158	0.349040	0.789000	0.822790
C1591	C159	0.444160	0.833300	0.970100
C1601	C160	0.265570	0.148700	0.832210
Cd211	Cd21	0.020180	0.228440	0.484500
Cd221	Cd22	0.964810	0.368890	0.421470
Cd231	Cd23	0.347450	0.378750	0.295610
Cd241	Cd24	0.264010	0.243670	0.254430
O811	O81	0.222580	0.852590	0.728220
O821	O82	0.191890	0.752490	0.708290
O831	O83	0.059380	0.739640	0.588390
O841	O84	0.025920	0.835460	0.560670
O851	O85	0.195480	0.157250	0.729670
O861	O86	0.188830	0.247300	0.683580
O871	O87	0.080730	0.229610	0.542480
O881	O88	0.048910	0.129780	0.523510
O891	O89	0.042070	0.328060	0.446680
O901	O90	0.091000	0.242030	0.427510
O911	O91	0.050210	0.625240	0.502870
O921	O92	0.038240	0.726090	0.467600
O931	O93	0.138040	0.772520	0.325420
O941	O94	0.179490	0.685490	0.292780
O951	O95	0.231060	0.291040	0.316940
O961	O96	0.270770	0.391220	0.326960
C1611	C161	0.056010	0.802800	0.586250
C1621	C162	0.091210	0.844200	0.615860
C1631	C163	0.122870	0.812100	0.646810
H611	H61	0.121700	0.763700	0.650400
C1641	C164	0.156620	0.850900	0.672720
C1651	C165	0.191980	0.816400	0.705160
C1661	C166	0.158030	0.921200	0.666770
H621	H62	0.181600	0.947300	0.683900
C1671	C167	0.125890	0.954820	0.636360
C1681	C168	0.092180	0.915300	0.611180
H631	H63	0.069500	0.937000	0.590500
C1691	C169	0.127720	0.030800	0.630120
C1701	C170	0.152100	0.071800	0.662760
H641	H64	0.167100	0.051400	0.689200
C1711	C171	0.154470	0.142700	0.656620
C1721	C172	0.131470	0.173500	0.619020
H651	H65	0.133400	0.221700	0.614900
C1731	C173	0.105410	0.133300	0.587160
C1741	C174	0.104470	0.062400	0.592800
H661	H66	0.087500	0.035100	0.570600
C1751	C175	0.180900	0.185760	0.691720
C1761	C176	0.076750	0.166100	0.548320
C1771	C177	0.080790	0.304300	0.426600
C1781	C178	0.115600	0.354100	0.403470
C1791	C179	0.156520	0.331000	0.378670
H671	H67	0.161800	0.283100	0.375000
C1801	C180	0.190120	0.377100	0.358960
C1811	C181	0.181310	0.447300	0.363450
H681	H68	0.204500	0.479000	0.350700
C1821	C182	0.138550	0.472000	0.386630
C1831	C183	0.106220	0.424200	0.406800
H691	H69	0.077400	0.439800	0.423000
C1841	C184	0.127390	0.546700	0.390120
C1851	C185	0.100260	0.572900	0.427580
H701	H70	0.091400	0.543200	0.452300
C1861	C186	0.085920	0.641500	0.429360
C1871	C187	0.100880	0.685500	0.394200
H711	H71	0.090600	0.732100	0.394800
C1881	C188	0.130590	0.662100	0.358290
C1891	C189	0.143330	0.592700	0.355920
H721	H72	0.163000	0.576600	0.330800
C1901	C190	0.150960	0.711000	0.322790
C1911	C191	0.055840	0.666700	0.470100
C1921	C192	0.234430	0.351300	0.332210
Cd251	Cd25	0.520180	0.271560	0.515500
Cd261	Cd26	0.464810	0.131110	0.578530
Cd271	Cd27	0.847450	0.121250	0.704390
Cd281	Cd28	0.764010	0.256330	0.745570
O971	O97	0.722580	0.647410	0.271780
O981	O98	0.691890	0.747510	0.291710
O991	O99	0.559380	0.760360	0.411610
O1001	O100	0.525920	0.664540	0.439330
O1011	O101	0.695480	0.342750	0.270330
O1021	O102	0.688830	0.252700	0.316420
O1031	O103	0.580730	0.270390	0.457520
O1041	O104	0.548910	0.370220	0.476490
O1051	O105	0.542070	0.171940	0.553320
O1061	O106	0.591000	0.257970	0.572490
O1071	O107	0.550210	0.874760	0.497130
O1081	O108	0.538240	0.773910	0.532400
O1091	O109	0.638040	0.727480	0.674580
O1101	O110	0.679490	0.814510	0.707220
O1111	O111	0.731060	0.208960	0.683060
O1121	O112	0.770770	0.108780	0.673040
C1931	C193	0.556010	0.697200	0.413750
C1941	C194	0.591210	0.655800	0.384140
C1951	C195	0.622870	0.687900	0.353190
H731	H73	0.621700	0.736300	0.349600
C1961	C196	0.656620	0.649100	0.327280
C1971	C197	0.691980	0.683600	0.294840
C1981	C198	0.658030	0.578800	0.333230
H741	H74	0.681600	0.552700	0.316100
C1991	C199	0.625890	0.545180	0.363640
C2001	C200	0.592180	0.584700	0.388820
H751	H75	0.569500	0.563000	0.409500
C2011	C201	0.627720	0.469200	0.369880
C2021	C202	0.652100	0.428200	0.337240
H761	H76	0.667100	0.448600	0.310800
C2031	C203	0.654470	0.357300	0.343380
C2041	C204	0.631470	0.326500	0.380980
H771	H77	0.633400	0.278300	0.385100
C2051	C205	0.605410	0.366700	0.412840
C2061	C206	0.604470	0.437600	0.407200
H781	H78	0.587500	0.464900	0.429400
C2071	C207	0.680900	0.314240	0.308280
C2081	C208	0.576750	0.333900	0.451680
C2091	C209	0.580790	0.195700	0.573400
C2101	C210	0.615600	0.145900	0.596530
C2111	C211	0.656520	0.169000	0.621330
H791	H79	0.661800	0.216900	0.625000
C2121	C212	0.690120	0.122900	0.641040
C2131	C213	0.681310	0.052700	0.636550
H801	H80	0.704500	0.021000	0.649300
C2141	C214	0.638550	0.028000	0.613370
C2151	C215	0.606220	0.075800	0.593200
H811	H81	0.577400	0.060200	0.577000
C2161	C216	0.627390	0.953300	0.609880
C2171	C217	0.600260	0.927100	0.572420
H821	H82	0.591400	0.956800	0.547700
C2181	C218	0.585920	0.858500	0.570640
C2191	C219	0.600880	0.814500	0.605800
H831	H83	0.590600	0.767900	0.605200
C2201	C220	0.630590	0.837900	0.641710
C2211	C221	0.643330	0.907300	0.644080
H841	H84	0.663000	0.923400	0.669200
C2221	C222	0.650960	0.789000	0.677210
C2231	C223	0.555840	0.833300	0.529900
C2241	C224	0.734430	0.148700	0.667790
Cd291	Cd29	0.979820	0.228440	0.015500
Cd301	Cd30	0.035190	0.368890	0.078530
Cd311	Cd31	0.652550	0.378750	0.204390
Cd321	Cd32	0.735990	0.243670	0.245570
O1131	O113	0.777420	0.852590	0.771780
O1141	O114	0.808110	0.752490	0.791710
O1151	O115	0.940620	0.739640	0.911610
O1161	O116	0.974080	0.835460	0.939330
O1171	O117	0.804520	0.157250	0.770330
O1181	O118	0.811170	0.247300	0.816420
O1191	O119	0.919270	0.229610	0.957520
O1201	O120	0.951090	0.129780	0.976490
O1211	O121	0.957930	0.328060	0.053320
O1221	O122	0.909000	0.242030	0.072490
O1231	O123	0.949790	0.625240	0.997130
O1241	O124	0.961760	0.726090	0.032400
O1251	O125	0.861960	0.772520	0.174580
O1261	O126	0.820510	0.685490	0.207220
O1271	O127	0.768940	0.291040	0.183060
O1281	O128	0.729230	0.391220	0.173040
C2251	C225	0.943990	0.802800	0.913750
C2261	C226	0.908790	0.844200	0.884140
C2271	C227	0.877130	0.812100	0.853190
H851	H85	0.878300	0.763700	0.849600
C2281	C228	0.843380	0.850900	0.827280
C2291	C229	0.808020	0.816400	0.794840
C2301	C230	0.841970	0.921200	0.833230
H861	H86	0.818400	0.947300	0.816100
C2311	C231	0.874110	0.954820	0.863640
C2321	C232	0.907820	0.915300	0.888820
H871	H87	0.930500	0.937000	0.909500
C2331	C233	0.872280	0.030800	0.869880
C2341	C234	0.847900	0.071800	0.837240
H881	H88	0.832900	0.051400	0.810800
C2351	C235	0.845530	0.142700	0.843380
C2361	C236	0.868530	0.173500	0.880980
H891	H89	0.866600	0.221700	0.885100
C2371	C237	0.894590	0.133300	0.912840
C2381	C238	0.895530	0.062400	0.907200
H901	H90	0.912500	0.035100	0.929400
C2391	C239	0.819100	0.185760	0.808280
C2401	C240	0.923250	0.166100	0.951680
C2411	C241	0.919210	0.304300	0.073400
C2421	C242	0.884400	0.354100	0.096530
C2431	C243	0.843480	0.331000	0.121330
H911	H91	0.838200	0.283100	0.125000
C2441	C244	0.809880	0.377100	0.141040
C2451	C245	0.818690	0.447300	0.136550
H921	H92	0.795500	0.479000	0.149300
C2461	C246	0.861450	0.472000	0.113370
C2471	C247	0.893780	0.424200	0.093200
H931	H93	0.922600	0.439800	0.077000
C2481	C248	0.872610	0.546700	0.109880
C2491	C249	0.899740	0.572900	0.072420
H941	H94	0.908600	0.543200	0.047700
C2501	C250	0.914080	0.641500	0.070640
C2511	C251	0.899120	0.685500	0.105800
H951	H95	0.909400	0.732100	0.105200
C2521	C252	0.869410	0.662100	0.141710
C2531	C253	0.856670	0.592700	0.144080
H961	H96	0.837000	0.576600	0.169200
C2541	C254	0.849040	0.711000	0.177210
C2551	C255	0.944160	0.666700	0.029900
C2561	C256	0.765570	0.351300	0.167790
