data_DUWFAE_clean_PM
_symmetry_space_group_name_H-M	'P1'
_cell_length_a	12.809700
_cell_length_b	8.178500
_cell_length_c	23.338700
_cell_angle_alpha	90.000000
_cell_angle_beta	104.414000
_cell_angle_gamma	90.000000
_symmetry_Int_Tables_number 1

loop_
_symmetry_equiv_pos_as_xyz
'x,y,z'

loop_
_atom_site_label
_atom_site_type_symbol
_atom_site_fract_x
_atom_site_fract_y
_atom_site_fract_z
Cd11	Cd1	0.310750	0.770390	0.403660
O11	O1	0.130600	0.758100	0.341010
S11	S1	0.030520	0.843960	0.342160
C11	C1	0.742700	0.246600	0.472000
H11	H1	0.700100	0.153200	0.467400
C21	C2	0.042100	0.888900	0.228840
H21	H2	0.104500	0.826700	0.240700
N11	N1	0.384900	0.845700	0.328520
O21	O2	0.175200	0.010600	0.130400
N21	N2	0.756900	0.329500	0.521990
C31	C3	0.787800	0.291000	0.426120
C41	C4	0.008900	0.943500	0.170510
C51	C5	0.637600	0.033300	0.306700
C61	C6	0.814700	0.059200	0.289810
C71	C7	0.710500	0.999300	0.273100
H31	H3	0.689100	0.935800	0.239100
C81	C8	0.983200	0.926600	0.268930
C91	C9	0.338400	0.796700	0.273300
H41	H4	0.275700	0.734800	0.266900
N31	N3	0.664500	0.125700	0.356150
C101	C10	0.527600	0.961400	0.292490
C111	C11	0.764200	0.189000	0.371220
O31	O3	0.946800	0.737400	0.351550
C121	C12	0.916600	0.036300	0.152740
H51	H5	0.895000	0.074900	0.114100
C131	C13	0.817600	0.463400	0.528200
H61	H6	0.828800	0.522000	0.563400
C141	C14	0.864700	0.518800	0.484900
H71	H7	0.905600	0.614200	0.490400
C151	C15	0.841700	0.158200	0.339970
H81	H8	0.910400	0.203000	0.352400
C161	C16	0.888600	0.019200	0.251740
C171	C17	0.850400	0.431300	0.433400
H91	H9	0.882300	0.465600	0.403700
C181	C18	0.856500	0.071600	0.192930
H101	H10	0.793100	0.131500	0.180500
C191	C19	0.378800	0.833500	0.226100
H111	H11	0.341700	0.802200	0.188200
O41	O4	0.051400	0.983500	0.382220
C201	C20	0.474500	0.917000	0.234800
H121	H12	0.503300	0.943200	0.203100
C211	C21	0.477700	0.926600	0.337000
H131	H13	0.510700	0.961600	0.375100
S21	S2	0.086510	0.893860	0.119790
O51	O5	0.127600	0.729500	0.135000
O61	O6	0.016000	0.909300	0.062190
Cd21	Cd2	0.189250	0.270390	0.096340
O71	O7	0.369400	0.258100	0.158990
S31	S3	0.469480	0.343960	0.157840
C221	C22	0.757300	0.746600	0.028000
H141	H14	0.799900	0.653200	0.032600
C231	C23	0.457900	0.388900	0.271160
H151	H15	0.395500	0.326700	0.259300
N41	N4	0.115100	0.345700	0.171480
O81	O8	0.324800	0.510600	0.369600
N51	N5	0.743100	0.829500	0.978010
C241	C24	0.712200	0.791000	0.073880
C251	C25	0.491100	0.443500	0.329490
C261	C26	0.862400	0.533300	0.193300
C271	C27	0.685300	0.559200	0.210190
C281	C28	0.789500	0.499300	0.226900
H161	H16	0.810900	0.435800	0.260900
C291	C29	0.516800	0.426600	0.231070
C301	C30	0.161600	0.296700	0.226700
H171	H17	0.224300	0.234800	0.233100
N61	N6	0.835500	0.625700	0.143850
C311	C31	0.972400	0.461400	0.207510
C321	C32	0.735800	0.689000	0.128780
O91	O9	0.553200	0.237400	0.148450
C331	C33	0.583400	0.536300	0.347260
H181	H18	0.605000	0.574900	0.385900
C341	C34	0.682400	0.963400	0.971800
H191	H19	0.671200	0.022000	0.936600
C351	C35	0.635300	0.018800	0.015100
H201	H20	0.594400	0.114200	0.009600
C361	C36	0.658300	0.658200	0.160030
H211	H21	0.589600	0.703000	0.147600
C371	C37	0.611400	0.519200	0.248260
C381	C38	0.649600	0.931300	0.066600
H221	H22	0.617700	0.965600	0.096300
C391	C39	0.643500	0.571600	0.307070
H231	H23	0.706900	0.631500	0.319500
C401	C40	0.121200	0.333500	0.273900
H241	H24	0.158300	0.302200	0.311800
O101	O10	0.448600	0.483500	0.117780
C411	C41	0.025500	0.417000	0.265200
H251	H25	0.996700	0.443200	0.296900
C421	C42	0.022300	0.426600	0.163000
H261	H26	0.989300	0.461600	0.124900
S41	S4	0.413490	0.393860	0.380210
O111	O11	0.372400	0.229500	0.365000
O121	O12	0.484000	0.409300	0.437810
Cd31	Cd3	0.689250	0.229610	0.596340
O131	O13	0.869400	0.241900	0.658990
S51	S5	0.969480	0.156040	0.657840
C431	C43	0.257300	0.753400	0.528000
H271	H27	0.299900	0.846800	0.532600
C441	C44	0.957900	0.111100	0.771160
H281	H28	0.895500	0.173300	0.759300
N71	N7	0.615100	0.154300	0.671480
O141	O14	0.824800	0.989400	0.869600
N81	N8	0.243100	0.670500	0.478010
C451	C45	0.212200	0.709000	0.573880
C461	C46	0.991100	0.056500	0.829490
C471	C47	0.362400	0.966700	0.693300
C481	C48	0.185300	0.940800	0.710190
C491	C49	0.289500	0.000700	0.726900
H291	H29	0.310900	0.064200	0.760900
C501	C50	0.016800	0.073400	0.731070
C511	C51	0.661600	0.203300	0.726700
H301	H30	0.724300	0.265200	0.733100
N91	N9	0.335500	0.874300	0.643850
C521	C52	0.472400	0.038600	0.707510
C531	C53	0.235800	0.811000	0.628780
O151	O15	0.053200	0.262600	0.648450
C541	C54	0.083400	0.963700	0.847260
H311	H31	0.105000	0.925100	0.885900
C551	C55	0.182400	0.536600	0.471800
H321	H32	0.171200	0.478000	0.436600
C561	C56	0.135300	0.481200	0.515100
H331	H33	0.094400	0.385800	0.509600
C571	C57	0.158300	0.841800	0.660030
H341	H34	0.089600	0.797000	0.647600
C581	C58	0.111400	0.980800	0.748260
C591	C59	0.149600	0.568700	0.566600
H351	H35	0.117700	0.534400	0.596300
C601	C60	0.143500	0.928400	0.807070
H361	H36	0.206900	0.868500	0.819500
C611	C61	0.621200	0.166500	0.773900
H371	H37	0.658300	0.197800	0.811800
O161	O16	0.948600	0.016500	0.617780
C621	C62	0.525500	0.083000	0.765200
H381	H38	0.496700	0.056800	0.796900
C631	C63	0.522300	0.073400	0.663000
H391	H39	0.489300	0.038400	0.624900
S61	S6	0.913490	0.106140	0.880210
O171	O17	0.872400	0.270500	0.865000
O181	O18	0.984000	0.090700	0.937810
Cd41	Cd4	0.810750	0.729610	0.903660
O191	O19	0.630600	0.741900	0.841010
S71	S7	0.530520	0.656040	0.842160
C641	C64	0.242700	0.253400	0.972000
H401	H40	0.200100	0.346800	0.967400
C651	C65	0.542100	0.611100	0.728840
H411	H41	0.604500	0.673300	0.740700
N101	N10	0.884900	0.654300	0.828520
O201	O20	0.675200	0.489400	0.630400
N111	N11	0.256900	0.170500	0.021990
C661	C66	0.287800	0.209000	0.926120
C671	C67	0.508900	0.556500	0.670510
C681	C68	0.137600	0.466700	0.806700
C691	C69	0.314700	0.440800	0.789810
C701	C70	0.210500	0.500700	0.773100
H421	H42	0.189100	0.564200	0.739100
C711	C71	0.483200	0.573400	0.768930
C721	C72	0.838400	0.703300	0.773300
H431	H43	0.775700	0.765200	0.766900
N121	N12	0.164500	0.374300	0.856150
C731	C73	0.027600	0.538600	0.792490
C741	C74	0.264200	0.311000	0.871220
O211	O21	0.446800	0.762600	0.851550
C751	C75	0.416600	0.463700	0.652740
H441	H44	0.395000	0.425100	0.614100
C761	C76	0.317600	0.036600	0.028200
H451	H45	0.328800	0.978000	0.063400
C771	C77	0.364700	0.981200	0.984900
H461	H46	0.405600	0.885800	0.990400
C781	C78	0.341700	0.341800	0.839970
H471	H47	0.410400	0.297000	0.852400
C791	C79	0.388600	0.480800	0.751740
C801	C80	0.350400	0.068700	0.933400
H481	H48	0.382300	0.034400	0.903700
C811	C81	0.356500	0.428400	0.692930
H491	H49	0.293100	0.368500	0.680500
C821	C82	0.878800	0.666500	0.726100
H501	H50	0.841700	0.697800	0.688200
O221	O22	0.551400	0.516500	0.882220
C831	C83	0.974500	0.583000	0.734800
H511	H51	0.003300	0.556800	0.703100
C841	C84	0.977700	0.573400	0.837000
H521	H52	0.010700	0.538400	0.875100
S81	S8	0.586510	0.606140	0.619790
O231	O23	0.627600	0.770500	0.635000
O241	O24	0.516000	0.590700	0.562190
