data_DUWFOS_clean_PM
_symmetry_space_group_name_H-M	'P1'
_cell_length_a	20.071000
_cell_length_b	9.698000
_cell_length_c	10.986000
_cell_angle_alpha	90.000000
_cell_angle_beta	90.000000
_cell_angle_gamma	90.000000
_symmetry_Int_Tables_number 1

loop_
_symmetry_equiv_pos_as_xyz
'x,y,z'

loop_
_atom_site_label
_atom_site_type_symbol
_atom_site_fract_x
_atom_site_fract_y
_atom_site_fract_z
Zn11	Zn1	0.647440	0.867790	0.507030
O11	O1	0.555070	0.759300	0.532000
N11	N1	0.739170	0.006600	0.493300
N21	N2	0.780830	0.984700	0.590400
N31	N3	0.819390	0.092000	0.603700
N41	N4	0.803430	0.187100	0.516800
N51	N5	0.623900	0.919600	0.333800
N61	N6	0.610230	0.820700	0.248300
N71	N7	0.611100	0.876900	0.142000
N81	N8	0.625130	0.013400	0.154800
C11	C1	0.754470	0.132700	0.451800
C21	C2	0.723850	0.201800	0.344800
H11	H1	0.747300	0.172500	0.272000
H21	H2	0.730100	0.300600	0.352800
C31	C3	0.649470	0.173000	0.327800
H31	H3	0.627800	0.179400	0.406500
H41	H4	0.630800	0.244400	0.276300
C41	C4	0.633180	0.035400	0.273100
Zn21	Zn2	0.147440	0.367790	0.507030
O21	O2	0.055070	0.259300	0.532000
N91	N9	0.239170	0.506600	0.493300
N101	N10	0.280830	0.484700	0.590400
N111	N11	0.319390	0.592000	0.603700
N121	N12	0.303430	0.687100	0.516800
N131	N13	0.123900	0.419600	0.333800
N141	N14	0.110230	0.320700	0.248300
N151	N15	0.111100	0.376900	0.142000
N161	N16	0.125130	0.513400	0.154800
C51	C5	0.254470	0.632700	0.451800
C61	C6	0.223850	0.701800	0.344800
H51	H5	0.247300	0.672500	0.272000
H61	H6	0.230100	0.800600	0.352800
C71	C7	0.149470	0.673000	0.327800
H71	H7	0.127800	0.679400	0.406500
H81	H8	0.130800	0.744400	0.276300
C81	C8	0.133180	0.535400	0.273100
Zn31	Zn3	0.352560	0.132210	0.007030
O31	O3	0.444930	0.240700	0.032000
N171	N17	0.260830	0.993400	0.993300
N181	N18	0.219170	0.015300	0.090400
N191	N19	0.180610	0.908000	0.103700
N201	N20	0.196570	0.812900	0.016800
N211	N21	0.376100	0.080400	0.833800
N221	N22	0.389770	0.179300	0.748300
N231	N23	0.388900	0.123100	0.642000
N241	N24	0.374870	0.986600	0.654800
C91	C9	0.245530	0.867300	0.951800
C101	C10	0.276150	0.798200	0.844800
H91	H9	0.252700	0.827500	0.772000
H101	H10	0.269900	0.699400	0.852800
C111	C11	0.350530	0.827000	0.827800
H111	H11	0.372200	0.820600	0.906500
H121	H12	0.369200	0.755600	0.776300
C121	C12	0.366820	0.964600	0.773100
Zn41	Zn4	0.852560	0.632210	0.007030
O41	O4	0.944930	0.740700	0.032000
N251	N25	0.760830	0.493400	0.993300
N261	N26	0.719170	0.515300	0.090400
N271	N27	0.680610	0.408000	0.103700
N281	N28	0.696570	0.312900	0.016800
N291	N29	0.876100	0.580400	0.833800
N301	N30	0.889770	0.679300	0.748300
N311	N31	0.888900	0.623100	0.642000
N321	N32	0.874870	0.486600	0.654800
C131	C13	0.745530	0.367300	0.951800
C141	C14	0.776150	0.298200	0.844800
H131	H13	0.752700	0.327500	0.772000
H141	H14	0.769900	0.199400	0.852800
C151	C15	0.850530	0.327000	0.827800
H151	H15	0.872200	0.320600	0.906500
H161	H16	0.869200	0.255600	0.776300
C161	C16	0.866820	0.464600	0.773100
Zn51	Zn5	0.647440	0.132210	0.007030
O51	O5	0.555070	0.240700	0.032000
N331	N33	0.739170	0.993400	0.993300
N341	N34	0.780830	0.015300	0.090400
N351	N35	0.819390	0.908000	0.103700
N361	N36	0.803430	0.812900	0.016800
N371	N37	0.623900	0.080400	0.833800
N381	N38	0.610230	0.179300	0.748300
N391	N39	0.611100	0.123100	0.642000
N401	N40	0.625130	0.986600	0.654800
C171	C17	0.754470	0.867300	0.951800
C181	C18	0.723850	0.798200	0.844800
H171	H17	0.747300	0.827500	0.772000
H181	H18	0.730100	0.699400	0.852800
C191	C19	0.649470	0.827000	0.827800
H191	H19	0.627800	0.820600	0.906500
H201	H20	0.630800	0.755600	0.776300
C201	C20	0.633180	0.964600	0.773100
Zn61	Zn6	0.147440	0.632210	0.007030
O61	O6	0.055070	0.740700	0.032000
N411	N41	0.239170	0.493400	0.993300
N421	N42	0.280830	0.515300	0.090400
N431	N43	0.319390	0.408000	0.103700
N441	N44	0.303430	0.312900	0.016800
N451	N45	0.123900	0.580400	0.833800
N461	N46	0.110230	0.679300	0.748300
N471	N47	0.111100	0.623100	0.642000
N481	N48	0.125130	0.486600	0.654800
C211	C21	0.254470	0.367300	0.951800
C221	C22	0.223850	0.298200	0.844800
H211	H21	0.247300	0.327500	0.772000
H221	H22	0.230100	0.199400	0.852800
C231	C23	0.149470	0.327000	0.827800
H231	H23	0.127800	0.320600	0.906500
H241	H24	0.130800	0.255600	0.776300
C241	C24	0.133180	0.464600	0.773100
Zn71	Zn7	0.352560	0.867790	0.507030
O71	O7	0.444930	0.759300	0.532000
N491	N49	0.260830	0.006600	0.493300
N501	N50	0.219170	0.984700	0.590400
N511	N51	0.180610	0.092000	0.603700
N521	N52	0.196570	0.187100	0.516800
N531	N53	0.376100	0.919600	0.333800
N541	N54	0.389770	0.820700	0.248300
N551	N55	0.388900	0.876900	0.142000
N561	N56	0.374870	0.013400	0.154800
C251	C25	0.245530	0.132700	0.451800
C261	C26	0.276150	0.201800	0.344800
H251	H25	0.252700	0.172500	0.272000
H261	H26	0.269900	0.300600	0.352800
C271	C27	0.350530	0.173000	0.327800
H271	H27	0.372200	0.179400	0.406500
H281	H28	0.369200	0.244400	0.276300
C281	C28	0.366820	0.035400	0.273100
Zn81	Zn8	0.852560	0.367790	0.507030
O81	O8	0.944930	0.259300	0.532000
N571	N57	0.760830	0.506600	0.493300
N581	N58	0.719170	0.484700	0.590400
N591	N59	0.680610	0.592000	0.603700
N601	N60	0.696570	0.687100	0.516800
N611	N61	0.876100	0.419600	0.333800
N621	N62	0.889770	0.320700	0.248300
N631	N63	0.888900	0.376900	0.142000
N641	N64	0.874870	0.513400	0.154800
C291	C29	0.745530	0.632700	0.451800
C301	C30	0.776150	0.701800	0.344800
H291	H29	0.752700	0.672500	0.272000
H301	H30	0.769900	0.800600	0.352800
C311	C31	0.850530	0.673000	0.327800
H311	H31	0.872200	0.679400	0.406500
H321	H32	0.869200	0.744400	0.276300
C321	C32	0.866820	0.535400	0.273100
C331	C33	0.500000	0.817600	0.534300
H331	H33	0.500000	0.873900	0.607300
H341	H34	0.500000	0.881200	0.466200
C341	C34	0.000000	0.317600	0.534300
H351	H35	0.000000	0.373900	0.607300
H361	H36	0.000000	0.381200	0.466200
C351	C35	0.500000	0.182400	0.034300
H371	H37	0.500000	0.126100	0.107300
H381	H38	0.500000	0.118800	0.966200
C361	C36	0.000000	0.682400	0.034300
H391	H39	0.000000	0.626100	0.107300
H401	H40	0.000000	0.618800	0.966200
