data_DUWGEJ_clean_PM
_symmetry_space_group_name_H-M	'P1'
_cell_length_a	18.314800
_cell_length_b	9.450600
_cell_length_c	19.099300
_cell_angle_alpha	90.000000
_cell_angle_beta	106.091000
_cell_angle_gamma	90.000000
_symmetry_Int_Tables_number 1

loop_
_symmetry_equiv_pos_as_xyz
'x,y,z'

loop_
_atom_site_label
_atom_site_type_symbol
_atom_site_fract_x
_atom_site_fract_y
_atom_site_fract_z
Cd11	Cd1	0.284660	0.558530	0.444550
C11	C1	0.380040	0.086300	0.093080
C21	C2	0.379590	0.151500	0.164750
C31	C3	0.311300	0.196800	0.175030
C41	C4	0.308330	0.258800	0.239330
C51	C5	0.375170	0.276600	0.295880
C61	C6	0.443610	0.229800	0.286430
C71	C7	0.446000	0.168500	0.221020
C81	C8	0.373940	0.345400	0.367140
C91	C9	0.394830	0.770100	0.482720
C101	C10	0.448830	0.888800	0.491950
C111	C11	0.448180	0.999000	0.541480
C121	C12	0.499360	0.109600	0.548750
H11	H1	0.498900	0.183000	0.581100
C131	C13	0.024300	0.393200	0.462750
H21	H2	0.040900	0.321300	0.437600
C141	C14	0.043460	0.623000	0.519240
C151	C15	0.067260	0.513300	0.481350
C161	C16	0.141670	0.527400	0.460530
O11	O1	0.443880	0.046000	0.087790
O21	O2	0.318340	0.073400	0.045950
O31	O3	0.516180	0.127200	0.217710
H31	H3	0.512900	0.091800	0.177800
O41	O4	0.239260	0.305300	0.244300
H41	H4	0.244400	0.343300	0.284000
O51	O5	0.310910	0.394100	0.369550
O61	O6	0.433530	0.348290	0.416670
O71	O7	0.404760	0.660370	0.448120
O81	O8	0.337630	0.778620	0.507290
O91	O9	0.397930	0.002300	0.582790
H51	H5	0.367600	0.937000	0.570800
O101	O10	0.179040	0.638200	0.478070
O111	O11	0.163670	0.430000	0.427960
O121	O12	0.082330	0.743300	0.536700
H61	H6	0.121000	0.739700	0.523100
O131	O13	0.244900	0.176900	0.126900
H71	H7	0.251300	0.139200	0.090400
O141	O14	0.511000	0.254300	0.331800
H81	H8	0.505900	0.289100	0.369500
Cd21	Cd2	0.715340	0.058530	0.055450
C171	C17	0.619960	0.586300	0.406920
C181	C18	0.620410	0.651500	0.335250
C191	C19	0.688700	0.696800	0.324970
C201	C20	0.691670	0.758800	0.260670
C211	C21	0.624830	0.776600	0.204120
C221	C22	0.556390	0.729800	0.213570
C231	C23	0.554000	0.668500	0.278980
C241	C24	0.626060	0.845400	0.132860
C251	C25	0.605170	0.270100	0.017280
C261	C26	0.551170	0.388800	0.008050
C271	C27	0.551820	0.499000	0.958520
C281	C28	0.500640	0.609600	0.951250
H91	H9	0.501100	0.683000	0.918900
C291	C29	0.975700	0.893200	0.037250
H101	H10	0.959100	0.821300	0.062400
C301	C30	0.956540	0.123000	0.980760
C311	C31	0.932740	0.013300	0.018650
C321	C32	0.858330	0.027400	0.039470
O151	O15	0.556120	0.546000	0.412210
O161	O16	0.681660	0.573400	0.454050
O171	O17	0.483820	0.627200	0.282290
H111	H11	0.487100	0.591800	0.322200
O181	O18	0.760740	0.805300	0.255700
H121	H12	0.755600	0.843300	0.216000
O191	O19	0.689090	0.894100	0.130450
O201	O20	0.566470	0.848290	0.083330
O211	O21	0.595240	0.160370	0.051880
O221	O22	0.662370	0.278620	0.992710
O231	O23	0.602070	0.502300	0.917210
H131	H13	0.632400	0.437000	0.929200
O241	O24	0.820960	0.138200	0.021930
O251	O25	0.836330	0.930000	0.072040
O261	O26	0.917670	0.243300	0.963300
H141	H14	0.879000	0.239700	0.976900
O271	O27	0.755100	0.676900	0.373100
H151	H15	0.748700	0.639200	0.409600
O281	O28	0.489000	0.754300	0.168200
H161	H16	0.494100	0.789100	0.130500
Cd31	Cd3	0.715340	0.441470	0.555450
C331	C33	0.619960	0.913700	0.906920
C341	C34	0.620410	0.848500	0.835250
C351	C35	0.688700	0.803200	0.824970
C361	C36	0.691670	0.741200	0.760670
C371	C37	0.624830	0.723400	0.704120
C381	C38	0.556390	0.770200	0.713570
C391	C39	0.554000	0.831500	0.778980
C401	C40	0.626060	0.654600	0.632860
C411	C41	0.605170	0.229900	0.517280
C421	C42	0.551170	0.111200	0.508050
C431	C43	0.551820	0.001000	0.458520
C441	C44	0.500640	0.890400	0.451250
H171	H17	0.501100	0.817000	0.418900
C451	C45	0.975700	0.606800	0.537250
H181	H18	0.959100	0.678700	0.562400
C461	C46	0.956540	0.377000	0.480760
C471	C47	0.932740	0.486700	0.518650
C481	C48	0.858330	0.472600	0.539470
O291	O29	0.556120	0.954000	0.912210
O301	O30	0.681660	0.926600	0.954050
O311	O31	0.483820	0.872800	0.782290
H191	H19	0.487100	0.908200	0.822200
O321	O32	0.760740	0.694700	0.755700
H201	H20	0.755600	0.656700	0.716000
O331	O33	0.689090	0.605900	0.630450
O341	O34	0.566470	0.651710	0.583330
O351	O35	0.595240	0.339630	0.551880
O361	O36	0.662370	0.221380	0.492710
O371	O37	0.602070	0.997700	0.417210
H211	H21	0.632400	0.063000	0.429200
O381	O38	0.820960	0.361800	0.521930
O391	O39	0.836330	0.570000	0.572040
O401	O40	0.917670	0.256700	0.463300
H221	H22	0.879000	0.260300	0.476900
O411	O41	0.755100	0.823100	0.873100
H231	H23	0.748700	0.860800	0.909600
O421	O42	0.489000	0.745700	0.668200
H241	H24	0.494100	0.710900	0.630500
Cd41	Cd4	0.284660	0.941470	0.944550
C491	C49	0.380040	0.413700	0.593080
C501	C50	0.379590	0.348500	0.664750
C511	C51	0.311300	0.303200	0.675030
C521	C52	0.308330	0.241200	0.739330
C531	C53	0.375170	0.223400	0.795880
C541	C54	0.443610	0.270200	0.786430
C551	C55	0.446000	0.331500	0.721020
C561	C56	0.373940	0.154600	0.867140
C571	C57	0.394830	0.729900	0.982720
C581	C58	0.448830	0.611200	0.991950
C591	C59	0.448180	0.501000	0.041480
C601	C60	0.499360	0.390400	0.048750
H251	H25	0.498900	0.317000	0.081100
C611	C61	0.024300	0.106800	0.962750
H261	H26	0.040900	0.178700	0.937600
C621	C62	0.043460	0.877000	0.019240
C631	C63	0.067260	0.986700	0.981350
C641	C64	0.141670	0.972600	0.960530
O431	O43	0.443880	0.454000	0.587790
O441	O44	0.318340	0.426600	0.545950
O451	O45	0.516180	0.372800	0.717710
H271	H27	0.512900	0.408200	0.677800
O461	O46	0.239260	0.194700	0.744300
H281	H28	0.244400	0.156700	0.784000
O471	O47	0.310910	0.105900	0.869550
O481	O48	0.433530	0.151710	0.916670
O491	O49	0.404760	0.839630	0.948120
O501	O50	0.337630	0.721380	0.007290
O511	O51	0.397930	0.497700	0.082790
H291	H29	0.367600	0.563000	0.070800
O521	O52	0.179040	0.861800	0.978070
O531	O53	0.163670	0.070000	0.927960
O541	O54	0.082330	0.756700	0.036700
H301	H30	0.121000	0.760300	0.023100
O551	O55	0.244900	0.323100	0.626900
H311	H31	0.251300	0.360800	0.590400
O561	O56	0.511000	0.245700	0.831800
H321	H32	0.505900	0.210900	0.869500
Cd51	Cd5	0.500000	0.500000	0.500000
Cd61	Cd6	0.500000	0.000000	0.000000
