data_DUXSIA_clean_PM
_symmetry_space_group_name_H-M	'P1'
_cell_length_a	11.573000
_cell_length_b	13.892000
_cell_length_c	14.655000
_cell_angle_alpha	62.631000
_cell_angle_beta	68.977000
_cell_angle_gamma	68.800000
_symmetry_Int_Tables_number 1

loop_
_symmetry_equiv_pos_as_xyz
'x,y,z'

loop_
_atom_site_label
_atom_site_type_symbol
_atom_site_fract_x
_atom_site_fract_y
_atom_site_fract_z
C11	C1	0.942000	0.351900	0.344000
H11	H1	0.889800	0.390000	0.388100
C21	C2	0.892800	0.297100	0.313600
C31	C3	0.969000	0.239700	0.248400
H21	H2	0.934300	0.204300	0.227600
C41	C4	0.096600	0.236200	0.215200
C51	C5	0.150200	0.289900	0.243600
H31	H3	0.237100	0.286600	0.220600
C61	C6	0.070800	0.348600	0.307400
C71	C7	0.086200	0.514400	0.321200
H41	H4	0.017000	0.565800	0.293800
C81	C8	0.288900	0.200600	0.075900
H51	H5	0.327600	0.255000	0.063600
C91	C9	0.155500	0.092600	0.140500
H61	H6	0.085800	0.061300	0.180300
C101	C10	0.663700	0.376600	0.377400
H71	H7	0.672300	0.443000	0.372100
C111	C11	0.710300	0.213100	0.370100
H81	H8	0.754500	0.147000	0.359300
C121	C12	0.584000	0.245400	0.406500
H91	H9	0.525000	0.204300	0.426000
C131	C13	0.225600	0.366400	0.376400
H101	H10	0.271900	0.292500	0.394600
C141	C14	0.165100	0.535300	0.353400
H111	H11	0.160400	0.604200	0.352000
C151	C15	0.539300	0.016500	0.191500
C161	C16	0.446000	0.943200	0.259100
C171	C17	0.472400	0.838800	0.257400
H121	H12	0.547200	0.813400	0.214300
C181	C18	0.387000	0.772500	0.319900
C191	C19	0.272500	0.813800	0.379200
H131	H13	0.214600	0.769200	0.421000
C201	C20	0.243700	0.919200	0.377200
C211	C21	0.332000	0.983000	0.318900
H141	H14	0.314700	0.053500	0.319800
C221	C22	0.117400	0.962100	0.440000
C231	C23	0.009700	0.932600	0.451500
H151	H15	0.015700	0.887400	0.418100
C241	C24	0.106500	0.031300	0.488700
H161	H16	0.177500	0.053300	0.481000
C251	C25	0.417100	0.655600	0.326100
C261	C26	0.273600	0.311400	0.646000
C271	C27	0.184300	0.288600	0.751400
C281	C28	0.110300	0.214300	0.786700
H171	H17	0.124400	0.171600	0.748400
C291	C29	0.015000	0.202500	0.878700
C301	C30	0.993800	0.267800	0.934600
H181	H18	0.929300	0.260800	0.995900
C311	C31	0.066900	0.343000	0.900500
C321	C32	0.162300	0.351900	0.809000
H191	H19	0.212800	0.401500	0.785600
C331	C33	0.033000	0.423200	0.953000
C341	C34	0.909300	0.456000	0.003400
H201	H20	0.846700	0.426800	0.006300
C351	C35	0.123500	0.467400	0.949900
H211	H21	0.207800	0.446000	0.916000
C361	C36	0.927700	0.132400	0.907800
C371	C37	0.331700	0.128100	0.028900
H221	H22	0.405800	0.124400	0.976100
Co11	Co1	0.384010	0.432840	0.453970
Co21	Co2	0.727180	0.056650	0.984410
N11	N1	0.556300	0.347200	0.410300
N21	N2	0.760000	0.296400	0.352300
N31	N3	0.175600	0.179400	0.146500
N41	N4	0.123700	0.406400	0.335100
O11	O1	0.525600	0.098700	0.207500
O21	O2	0.622800	0.985800	0.121900
O31	O3	0.476500	0.634100	0.247400
O41	O4	0.375900	0.588000	0.415300
O51	O5	0.306300	0.403600	0.604500
O61	O6	0.307600	0.248500	0.599000
O71	O7	0.922300	0.102700	0.842500
N51	N5	0.252200	0.441500	0.388000
O81	O8	0.854400	0.108400	0.997400
N61	N6	0.249700	0.059100	0.070000
C381	C38	0.058000	0.648100	0.656000
H231	H23	0.110200	0.610000	0.611900
C391	C39	0.107200	0.702900	0.686400
C401	C40	0.031000	0.760300	0.751600
H241	H24	0.065700	0.795700	0.772400
C411	C41	0.903400	0.763800	0.784800
C421	C42	0.849800	0.710100	0.756400
H251	H25	0.762900	0.713400	0.779400
C431	C43	0.929200	0.651400	0.692600
C441	C44	0.913800	0.485600	0.678800
H261	H26	0.983000	0.434200	0.706200
C451	C45	0.711100	0.799400	0.924100
H271	H27	0.672400	0.745000	0.936400
C461	C46	0.844500	0.907400	0.859500
H281	H28	0.914200	0.938700	0.819700
C471	C47	0.336300	0.623400	0.622600
H291	H29	0.327700	0.557000	0.627900
C481	C48	0.289700	0.786900	0.629900
H301	H30	0.245500	0.853000	0.640700
C491	C49	0.416000	0.754600	0.593500
H311	H31	0.475000	0.795700	0.574000
C501	C50	0.774400	0.633600	0.623600
H321	H32	0.728100	0.707500	0.605400
C511	C51	0.834900	0.464700	0.646600
H331	H33	0.839600	0.395800	0.648000
C521	C52	0.460700	0.983500	0.808500
C531	C53	0.554000	0.056800	0.740900
C541	C54	0.527600	0.161200	0.742600
H341	H34	0.452800	0.186600	0.785700
C551	C55	0.613000	0.227500	0.680100
C561	C56	0.727500	0.186200	0.620800
H351	H35	0.785400	0.230800	0.579000
C571	C57	0.756300	0.080800	0.622800
C581	C58	0.668000	0.017000	0.681100
H361	H36	0.685300	0.946500	0.680200
C591	C59	0.882600	0.037900	0.560000
C601	C60	0.990300	0.067400	0.548500
H371	H37	0.984300	0.112600	0.581900
C611	C61	0.893500	0.968700	0.511300
H381	H38	0.822500	0.946700	0.519000
C621	C62	0.582900	0.344400	0.673900
C631	C63	0.726400	0.688600	0.354000
C641	C64	0.815700	0.711400	0.248600
C651	C65	0.889700	0.785700	0.213300
H391	H39	0.875600	0.828400	0.251600
C661	C66	0.985000	0.797500	0.121300
C671	C67	0.006200	0.732200	0.065400
H401	H40	0.070700	0.739200	0.004100
C681	C68	0.933100	0.657000	0.099500
C691	C69	0.837700	0.648100	0.191000
H411	H41	0.787200	0.598500	0.214400
C701	C70	0.967000	0.576800	0.047000
C711	C71	0.090700	0.544000	0.996600
H421	H42	0.153300	0.573200	0.993700
C721	C72	0.876500	0.532600	0.050100
H431	H43	0.792200	0.554000	0.084000
C731	C73	0.072300	0.867600	0.092200
C741	C74	0.668300	0.871900	0.971100
H441	H44	0.594200	0.875600	0.023900
Co31	Co3	0.615990	0.567160	0.546030
Co41	Co4	0.272820	0.943350	0.015590
N71	N7	0.443700	0.652800	0.589700
N81	N8	0.240000	0.703600	0.647700
N91	N9	0.824400	0.820600	0.853500
N101	N10	0.876300	0.593600	0.664900
O91	O9	0.474400	0.901300	0.792500
O101	O10	0.377200	0.014200	0.878100
O111	O11	0.523500	0.365900	0.752600
O121	O12	0.624100	0.412000	0.584700
O131	O13	0.693700	0.596400	0.395500
O141	O14	0.692400	0.751500	0.401000
O151	O15	0.077700	0.897300	0.157500
N111	N11	0.747800	0.558500	0.612000
O161	O16	0.145600	0.891600	0.002600
N121	N12	0.750300	0.940900	0.930000
