data_DUZPUL_clean_PM
_symmetry_space_group_name_H-M	'P1'
_cell_length_a	14.278600
_cell_length_b	13.026800
_cell_length_c	17.825500
_cell_angle_alpha	90.000000
_cell_angle_beta	95.847000
_cell_angle_gamma	90.000000
_symmetry_Int_Tables_number 1

loop_
_symmetry_equiv_pos_as_xyz
'x,y,z'

loop_
_atom_site_label
_atom_site_type_symbol
_atom_site_fract_x
_atom_site_fract_y
_atom_site_fract_z
Zn11	Zn1	0.007760	0.556050	0.726530
Zn21	Zn2	0.073310	0.719410	0.864640
C11	C1	0.169600	0.786600	0.640100
C21	C2	0.224100	0.868600	0.669600
H11	H1	0.225300	0.885500	0.720300
C31	C3	0.275700	0.924100	0.623600
C41	C4	0.274900	0.899500	0.547200
H21	H2	0.307900	0.939800	0.515800
C51	C5	0.224500	0.814400	0.518200
C61	C6	0.172600	0.760100	0.564900
H31	H3	0.138300	0.703600	0.545700
C71	C7	0.112600	0.724200	0.690600
C81	C8	0.340100	0.008500	0.656300
C91	C9	0.230200	0.782100	0.437600
C101	C10	0.300800	0.818600	0.396900
H41	H4	0.347200	0.861000	0.420400
C111	C11	0.303300	0.792900	0.322000
C121	C12	0.236700	0.728500	0.287200
H51	H5	0.236900	0.713800	0.236100
C131	C13	0.169100	0.685200	0.327700
C141	C14	0.164900	0.714100	0.401800
H61	H6	0.117500	0.687700	0.428300
C151	C15	0.376500	0.837600	0.276900
C161	C16	0.101400	0.607200	0.289700
O11	O1	0.067600	0.649600	0.659440
O21	O2	0.115300	0.749600	0.757190
O31	O3	0.375000	0.993500	0.722660
O41	O4	0.354200	0.084500	0.615580
O51	O5	0.454700	0.869000	0.313190
O61	O6	0.361200	0.846700	0.209170
O71	O7	0.096300	0.594300	0.222580
O81	O8	0.052400	0.556300	0.333850
Zn31	Zn3	0.492240	0.056050	0.773470
Zn41	Zn4	0.426690	0.219410	0.635360
C171	C17	0.330400	0.286600	0.859900
C181	C18	0.275900	0.368600	0.830400
H71	H7	0.274700	0.385500	0.779700
C191	C19	0.224300	0.424100	0.876400
C201	C20	0.225100	0.399500	0.952800
H81	H8	0.192100	0.439800	0.984200
C211	C21	0.275500	0.314400	0.981800
C221	C22	0.327400	0.260100	0.935100
H91	H9	0.361700	0.203600	0.954300
C231	C23	0.387400	0.224200	0.809400
C241	C24	0.159900	0.508500	0.843700
C251	C25	0.269800	0.282100	0.062400
C261	C26	0.199200	0.318600	0.103100
H101	H10	0.152800	0.361000	0.079600
C271	C27	0.196700	0.292900	0.178000
C281	C28	0.263300	0.228500	0.212800
H111	H11	0.263100	0.213800	0.263900
C291	C29	0.330900	0.185200	0.172300
C301	C30	0.335100	0.214100	0.098200
H121	H12	0.382500	0.187700	0.071700
C311	C31	0.123500	0.337600	0.223100
C321	C32	0.398600	0.107200	0.210300
O91	O9	0.432400	0.149600	0.840560
O101	O10	0.384700	0.249600	0.742810
O111	O11	0.125000	0.493500	0.777340
O121	O12	0.145800	0.584500	0.884420
O131	O13	0.045300	0.369000	0.186810
O141	O14	0.138800	0.346700	0.290830
O151	O15	0.403700	0.094300	0.277420
O161	O16	0.447600	0.056300	0.166150
Zn51	Zn5	0.992240	0.443950	0.273470
Zn61	Zn6	0.926690	0.280590	0.135360
C331	C33	0.830400	0.213400	0.359900
C341	C34	0.775900	0.131400	0.330400
H131	H13	0.774700	0.114500	0.279700
C351	C35	0.724300	0.075900	0.376400
C361	C36	0.725100	0.100500	0.452800
H141	H14	0.692100	0.060200	0.484200
C371	C37	0.775500	0.185600	0.481800
C381	C38	0.827400	0.239900	0.435100
H151	H15	0.861700	0.296400	0.454300
C391	C39	0.887400	0.275800	0.309400
C401	C40	0.659900	0.991500	0.343700
C411	C41	0.769800	0.217900	0.562400
C421	C42	0.699200	0.181400	0.603100
H161	H16	0.652800	0.139000	0.579600
C431	C43	0.696700	0.207100	0.678000
C441	C44	0.763300	0.271500	0.712800
H171	H17	0.763100	0.286200	0.763900
C451	C45	0.830900	0.314800	0.672300
C461	C46	0.835100	0.285900	0.598200
H181	H18	0.882500	0.312300	0.571700
C471	C47	0.623500	0.162400	0.723100
C481	C48	0.898600	0.392800	0.710300
O171	O17	0.932400	0.350400	0.340560
O181	O18	0.884700	0.250400	0.242810
O191	O19	0.625000	0.006500	0.277340
O201	O20	0.645800	0.915500	0.384420
O211	O21	0.545300	0.131000	0.686810
O221	O22	0.638800	0.153300	0.790830
O231	O23	0.903700	0.405700	0.777420
O241	O24	0.947600	0.443700	0.666150
Zn71	Zn7	0.507760	0.943950	0.226530
Zn81	Zn8	0.573310	0.780590	0.364640
C491	C49	0.669600	0.713400	0.140100
C501	C50	0.724100	0.631400	0.169600
H191	H19	0.725300	0.614500	0.220300
C511	C51	0.775700	0.575900	0.123600
C521	C52	0.774900	0.600500	0.047200
H201	H20	0.807900	0.560200	0.015800
C531	C53	0.724500	0.685600	0.018200
C541	C54	0.672600	0.739900	0.064900
H211	H21	0.638300	0.796400	0.045700
C551	C55	0.612600	0.775800	0.190600
C561	C56	0.840100	0.491500	0.156300
C571	C57	0.730200	0.717900	0.937600
C581	C58	0.800800	0.681400	0.896900
H221	H22	0.847200	0.639000	0.920400
C591	C59	0.803300	0.707100	0.822000
C601	C60	0.736700	0.771500	0.787200
H231	H23	0.736900	0.786200	0.736100
C611	C61	0.669100	0.814800	0.827700
C621	C62	0.664900	0.785900	0.901800
H241	H24	0.617500	0.812300	0.928300
C631	C63	0.876500	0.662400	0.776900
C641	C64	0.601400	0.892800	0.789700
O251	O25	0.567600	0.850400	0.159440
O261	O26	0.615300	0.750400	0.257190
O271	O27	0.875000	0.506500	0.222660
O281	O28	0.854200	0.415500	0.115580
O291	O29	0.954700	0.631000	0.813190
O301	O30	0.861200	0.653300	0.709170
O311	O31	0.596300	0.905700	0.722580
O321	O32	0.552400	0.943700	0.833850
