data_EBANAY_clean_PM
_symmetry_space_group_name_H-M	'P1'
_cell_length_a	8.098700
_cell_length_b	9.772800
_cell_length_c	11.180600
_cell_angle_alpha	97.126900
_cell_angle_beta	90.000000
_cell_angle_gamma	114.478000
_symmetry_Int_Tables_number 1

loop_
_symmetry_equiv_pos_as_xyz
'x,y,z'

loop_
_atom_site_label
_atom_site_type_symbol
_atom_site_fract_x
_atom_site_fract_y
_atom_site_fract_z
Sr11	Sr1	0.892560	0.517160	0.686090
Sr21	Sr2	0.375400	0.482840	0.813910
Sr31	Sr3	0.107440	0.482840	0.313910
Sr41	Sr4	0.624600	0.517160	0.186090
H11	H1	0.995200	0.253600	0.660900
H21	H2	0.096200	0.350000	0.588500
H31	H3	0.360500	0.052200	0.844500
H41	H4	0.741600	0.746400	0.839100
H51	H5	0.746200	0.650000	0.911500
H61	H6	0.308300	0.947800	0.655500
H71	H7	0.004800	0.746400	0.339100
H81	H8	0.903800	0.650000	0.411500
H91	H9	0.639500	0.947800	0.155500
H101	H10	0.258400	0.253600	0.160900
H111	H11	0.253800	0.350000	0.088500
H121	H12	0.691700	0.052200	0.344500
C11	C1	0.195300	0.760800	0.855600
C21	C2	0.349300	0.884000	0.934600
C31	C3	0.431810	0.851820	0.030600
C41	C4	0.417680	0.030960	0.907200
C51	C5	0.361580	0.697560	0.075200
C61	C6	0.434500	0.239200	0.644400
C71	C7	0.465300	0.116000	0.565400
C81	C8	0.579990	0.148180	0.469400
C91	C9	0.386720	0.969040	0.592800
C101	C10	0.664020	0.302440	0.424800
C111	C11	0.804700	0.239200	0.144400
C121	C12	0.650700	0.116000	0.065400
C131	C13	0.568190	0.148180	0.969400
C141	C14	0.582320	0.969040	0.092800
C151	C15	0.638420	0.302440	0.924800
C161	C16	0.565500	0.760800	0.355600
C171	C17	0.534700	0.884000	0.434600
C181	C18	0.420010	0.851820	0.530600
C191	C19	0.613280	0.030960	0.407200
C201	C20	0.335980	0.697560	0.575200
O11	O1	0.169920	0.624640	0.857200
O21	O2	0.101480	0.798760	0.788700
O31	O3	0.444190	0.615580	0.044900
O41	O4	0.233260	0.666520	0.144400
O51	O5	0.067470	0.346340	0.661400
O61	O6	0.545280	0.375360	0.642800
O71	O7	0.302720	0.201240	0.711300
O81	O8	0.828610	0.384420	0.455100
O91	O9	0.566740	0.333480	0.355600
O101	O10	0.721130	0.653660	0.838600
O111	O11	0.830080	0.375360	0.142800
O121	O12	0.898520	0.201240	0.211300
O131	O13	0.555810	0.384420	0.955100
O141	O14	0.766740	0.333480	0.855600
O151	O15	0.932530	0.653660	0.338600
O161	O16	0.454720	0.624640	0.357200
O171	O17	0.697280	0.798760	0.288700
O181	O18	0.171390	0.615580	0.544900
O191	O19	0.433260	0.666520	0.644400
O201	O20	0.278870	0.346340	0.161400
