data_EBATUY_clean_PM
_symmetry_space_group_name_H-M	'P1'
_cell_length_a	11.341000
_cell_length_b	12.230000
_cell_length_c	15.251000
_cell_angle_alpha	93.340000
_cell_angle_beta	107.371000
_cell_angle_gamma	117.031000
_symmetry_Int_Tables_number 1

loop_
_symmetry_equiv_pos_as_xyz
'x,y,z'

loop_
_atom_site_label
_atom_site_type_symbol
_atom_site_fract_x
_atom_site_fract_y
_atom_site_fract_z
Cd11	Cd1	0.232320	0.297270	0.371930
Cd21	Cd2	0.767680	0.702730	0.628070
Cd31	Cd3	0.000000	0.000000	0.000000
H11	H1	0.671100	0.611400	0.124000
H21	H2	0.522400	0.298100	0.379800
H31	H3	0.743100	0.351400	0.452100
H41	H4	0.323500	0.439100	0.213400
H51	H5	0.173900	0.242300	0.565200
H61	H6	0.969300	0.330400	0.351800
H71	H7	0.815400	0.766900	0.071300
H81	H8	0.698700	0.504500	0.213900
H91	H9	0.038000	0.250700	0.646300
H101	H10	0.404900	0.668800	0.986500
H111	H11	0.866400	0.306400	0.581100
H121	H12	0.669100	0.928500	0.892400
H131	H13	0.447900	0.814700	0.896000
H141	H14	0.328900	0.388600	0.876000
H151	H15	0.477600	0.701900	0.620200
H161	H16	0.256900	0.648600	0.547900
H171	H17	0.676500	0.560900	0.786600
H181	H18	0.826100	0.757700	0.434800
H191	H19	0.030700	0.669600	0.648200
H201	H20	0.184600	0.233100	0.928700
H211	H21	0.301300	0.495500	0.786100
H221	H22	0.962000	0.749300	0.353700
H231	H23	0.595100	0.331200	0.013500
H241	H24	0.133600	0.693600	0.418900
H251	H25	0.330900	0.071500	0.107600
H261	H26	0.552100	0.185300	0.104000
C11	C1	0.518700	0.345500	0.334500
C21	C2	0.469800	0.614700	0.447900
C31	C3	0.630700	0.398000	0.302400
C41	C4	0.020100	0.233300	0.148200
C51	C5	0.756600	0.378400	0.333100
C61	C6	0.606300	0.702100	0.039800
C71	C7	0.122000	0.025400	0.236100
C81	C8	0.402600	0.428800	0.236500
C91	C9	0.103100	0.261900	0.537600
C101	C10	0.487400	0.555500	0.128100
C111	C11	0.897800	0.322700	0.457600
C121	C12	0.982500	0.314200	0.411800
C131	C13	0.508600	0.484100	0.201300
C141	C14	0.739900	0.776600	0.035700
C151	C15	0.624300	0.468000	0.235700
C161	C16	0.023300	0.268100	0.586700
C171	C17	0.495800	0.717100	0.985900
C181	C18	0.920200	0.300100	0.547600
C191	C19	0.654200	0.871500	0.931200
C201	C20	0.521200	0.802800	0.932200
C211	C21	0.481300	0.654500	0.665500
C221	C22	0.530200	0.385300	0.552100
C231	C23	0.369300	0.602000	0.697600
C241	C24	0.979900	0.766700	0.851800
C251	C25	0.243400	0.621600	0.666900
C261	C26	0.393700	0.297900	0.960200
C271	C27	0.878000	0.974600	0.763900
C281	C28	0.597400	0.571200	0.763500
C291	C29	0.896900	0.738100	0.462400
C301	C30	0.512600	0.444500	0.871900
C311	C31	0.102200	0.677300	0.542400
C321	C32	0.017500	0.685800	0.588200
C331	C33	0.491400	0.515900	0.798700
C341	C34	0.260100	0.223400	0.964300
C351	C35	0.375700	0.532000	0.764300
C361	C36	0.976700	0.731900	0.413300
C371	C37	0.504200	0.282900	0.014100
C381	C38	0.079800	0.699900	0.452400
C391	C39	0.345800	0.128500	0.068800
C401	C40	0.478800	0.197200	0.067800
S11	S1	0.298010	0.553650	0.394900
S21	S2	0.182100	0.060600	0.351970
S31	S3	0.954000	0.196900	0.032530
S41	S4	0.701990	0.446350	0.605100
S51	S5	0.817900	0.939400	0.648030
S61	S6	0.046000	0.803100	0.967470
N11	N1	0.082600	0.283600	0.450100
N21	N2	0.405800	0.361600	0.301700
N31	N3	0.589600	0.656400	0.484200
N41	N4	0.598100	0.620800	0.101100
N51	N5	0.792000	0.351000	0.418600
N61	N6	0.763300	0.861000	0.982900
N71	N7	0.067000	0.262000	0.229200
N81	N8	0.076800	0.995900	0.154600
N91	N9	0.917400	0.716400	0.549900
N101	N10	0.594200	0.638400	0.698300
N111	N11	0.410400	0.343600	0.515800
N121	N12	0.401900	0.379200	0.898900
N131	N13	0.208000	0.649000	0.581400
N141	N14	0.236700	0.139000	0.017100
N151	N15	0.933000	0.738000	0.770800
N161	N16	0.923200	0.004100	0.845400
O11	O1	0.372800	0.550600	0.093000
O21	O2	0.820600	0.387200	0.282400
O31	O3	0.627200	0.449400	0.907000
O41	O4	0.179400	0.612800	0.717600
