data_EBAVIP_clean_PM
_symmetry_space_group_name_H-M	'P1'
_cell_length_a	24.028000
_cell_length_b	13.413000
_cell_length_c	24.048000
_cell_angle_alpha	90.000000
_cell_angle_beta	113.111000
_cell_angle_gamma	90.000000
_symmetry_Int_Tables_number 1

loop_
_symmetry_equiv_pos_as_xyz
'x,y,z'

loop_
_atom_site_label
_atom_site_type_symbol
_atom_site_fract_x
_atom_site_fract_y
_atom_site_fract_z
Co11	Co1	0.383910	0.852650	0.950300
O11	O1	0.443530	0.205000	0.191240
O21	O2	0.375350	0.324420	0.170410
O31	O3	0.395940	0.924040	0.035240
O41	O4	0.308410	0.939330	0.957910
O51	O5	0.959580	0.144680	0.007880
O61	O6	0.965030	0.288220	0.964070
N11	N1	0.527070	0.395890	0.201300
N21	N2	0.565480	0.531010	0.179100
N31	N3	0.835950	0.685400	0.359340
N41	N4	0.759820	0.699610	0.271690
N51	N5	0.586590	0.015050	0.079440
N61	N6	0.590420	0.871340	0.124360
C11	C1	0.577980	0.700790	0.151800
H11	H1	0.537300	0.702400	0.126100
C21	C2	0.603200	0.616580	0.186000
C31	C3	0.663480	0.613200	0.224700
H21	H2	0.680000	0.556100	0.247000
C41	C4	0.698650	0.696800	0.229360
C51	C5	0.675140	0.781270	0.195260
H31	H3	0.699600	0.836400	0.198200
C61	C6	0.615300	0.782590	0.157110
C71	C7	0.570020	0.463210	0.222090
H41	H4	0.599600	0.464000	0.261200
C81	C8	0.493620	0.422000	0.142600
H51	H5	0.460200	0.387100	0.116400
C91	C9	0.515930	0.505000	0.128280
H61	H6	0.501000	0.538300	0.091400
C101	C10	0.779490	0.662600	0.328630
H71	H7	0.755700	0.625800	0.343800
C111	C11	0.854300	0.739600	0.321410
H81	H8	0.892900	0.765500	0.331200
C121	C12	0.807460	0.749400	0.267440
H91	H9	0.807600	0.783500	0.233800
C131	C13	0.621850	0.941800	0.108390
H101	H10	0.663100	0.938400	0.116900
C141	C14	0.530030	0.991400	0.076170
H111	H11	0.495600	0.030400	0.057700
C151	C15	0.531520	0.903800	0.103650
H121	H12	0.499100	0.871400	0.107800
C161	C16	0.390900	0.239800	0.162040
C171	C17	0.346380	0.172350	0.116140
C181	C18	0.365520	0.092270	0.091450
H131	H13	0.406500	0.076800	0.105400
C191	C19	0.323590	0.035320	0.045920
C201	C20	0.343600	0.960490	0.011620
C211	C21	0.262020	0.054550	0.028130
H141	H14	0.234000	0.014900	0.998600
C221	C22	0.241640	0.131800	0.053720
C231	C23	0.285060	0.192400	0.096320
H151	H15	0.272400	0.247500	0.111700
C241	C24	0.176480	0.150820	0.036100
C251	C25	0.152720	0.246690	0.022110
H161	H16	0.178500	0.299700	0.024300
C261	C26	0.091900	0.264460	0.005060
H171	H17	0.077000	0.328700	0.994500
C271	C27	0.052290	0.187330	0.003340
C281	C28	0.987430	0.207340	0.990420
C291	C29	0.076080	0.091230	0.017460
H181	H18	0.050600	0.038600	0.016700
C301	C30	0.136720	0.073030	0.032530
H191	H19	0.151300	0.008100	0.040400
Co21	Co2	0.883910	0.352650	0.950300
O71	O7	0.943530	0.705000	0.191240
O81	O8	0.875350	0.824420	0.170410
O91	O9	0.895940	0.424040	0.035240
O101	O10	0.808410	0.439330	0.957910
O111	O11	0.459580	0.644680	0.007880
O121	O12	0.465030	0.788220	0.964070
N71	N7	0.027070	0.895890	0.201300
N81	N8	0.065480	0.031010	0.179100
N91	N9	0.335950	0.185400	0.359340
N101	N10	0.259820	0.199610	0.271690
N111	N11	0.086590	0.515050	0.079440
N121	N12	0.090420	0.371340	0.124360
C311	C31	0.077980	0.200790	0.151800
H201	H20	0.037300	0.202400	0.126100
C321	C32	0.103200	0.116580	0.186000
C331	C33	0.163480	0.113200	0.224700
H211	H21	0.180000	0.056100	0.247000
C341	C34	0.198650	0.196800	0.229360
C351	C35	0.175140	0.281270	0.195260
H221	H22	0.199600	0.336400	0.198200
C361	C36	0.115300	0.282590	0.157110
C371	C37	0.070020	0.963210	0.222090
H231	H23	0.099600	0.964000	0.261200
C381	C38	0.993620	0.922000	0.142600
H241	H24	0.960200	0.887100	0.116400
C391	C39	0.015930	0.005000	0.128280
H251	H25	0.001000	0.038300	0.091400
C401	C40	0.279490	0.162600	0.328630
H261	H26	0.255700	0.125800	0.343800
C411	C41	0.354300	0.239600	0.321410
H271	H27	0.392900	0.265500	0.331200
C421	C42	0.307460	0.249400	0.267440
H281	H28	0.307600	0.283500	0.233800
C431	C43	0.121850	0.441800	0.108390
H291	H29	0.163100	0.438400	0.116900
C441	C44	0.030030	0.491400	0.076170
H301	H30	0.995600	0.530400	0.057700
C451	C45	0.031520	0.403800	0.103650
H311	H31	0.999100	0.371400	0.107800
C461	C46	0.890900	0.739800	0.162040
C471	C47	0.846380	0.672350	0.116140
C481	C48	0.865520	0.592270	0.091450
H321	H32	0.906500	0.576800	0.105400
C491	C49	0.823590	0.535320	0.045920
C501	C50	0.843600	0.460490	0.011620
C511	C51	0.762020	0.554550	0.028130
H331	H33	0.734000	0.514900	0.998600
C521	C52	0.741640	0.631800	0.053720
C531	C53	0.785060	0.692400	0.096320
H341	H34	0.772400	0.747500	0.111700
C541	C54	0.676480	0.650820	0.036100
C551	C55	0.652720	0.746690	0.022110
H351	H35	0.678500	0.799700	0.024300
C561	C56	0.591900	0.764460	0.005060
H361	H36	0.577000	0.828700	0.994500
C571	C57	0.552290	0.687330	0.003340
C581	C58	0.487430	0.707340	0.990420
C591	C59	0.576080	0.591230	0.017460
H371	H37	0.550600	0.538600	0.016700
C601	C60	0.636720	0.573030	0.032530
H381	H38	0.651300	0.508100	0.040400
Co31	Co3	0.616090	0.852650	0.549700
O131	O13	0.556470	0.205000	0.308760
O141	O14	0.624650	0.324420	0.329590
O151	O15	0.604060	0.924040	0.464760
O161	O16	0.691590	0.939330	0.542090
O171	O17	0.040420	0.144680	0.492120
O181	O18	0.034970	0.288220	0.535930
N131	N13	0.472930	0.395890	0.298700
N141	N14	0.434520	0.531010	0.320900
N151	N15	0.164050	0.685400	0.140660
N161	N16	0.240180	0.699610	0.228310
N171	N17	0.413410	0.015050	0.420560
N181	N18	0.409580	0.871340	0.375640
C611	C61	0.422020	0.700790	0.348200
H391	H39	0.462700	0.702400	0.373900
C621	C62	0.396800	0.616580	0.314000
C631	C63	0.336520	0.613200	0.275300
H401	H40	0.320000	0.556100	0.253000
C641	C64	0.301350	0.696800	0.270640
C651	C65	0.324860	0.781270	0.304740
H411	H41	0.300400	0.836400	0.301800
C661	C66	0.384700	0.782590	0.342890
C671	C67	0.429980	0.463210	0.277910
H421	H42	0.400400	0.464000	0.238800
C681	C68	0.506380	0.422000	0.357400
H431	H43	0.539800	0.387100	0.383600
C691	C69	0.484070	0.505000	0.371720
H441	H44	0.499000	0.538300	0.408600
C701	C70	0.220510	0.662600	0.171370
H451	H45	0.244300	0.625800	0.156200
C711	C71	0.145700	0.739600	0.178590
H461	H46	0.107100	0.765500	0.168800
C721	C72	0.192540	0.749400	0.232560
H471	H47	0.192400	0.783500	0.266200
C731	C73	0.378150	0.941800	0.391610
H481	H48	0.336900	0.938400	0.383100
C741	C74	0.469970	0.991400	0.423830
H491	H49	0.504400	0.030400	0.442300
C751	C75	0.468480	0.903800	0.396350
H501	H50	0.500900	0.871400	0.392200
C761	C76	0.609100	0.239800	0.337960
C771	C77	0.653620	0.172350	0.383860
C781	C78	0.634480	0.092270	0.408550
H511	H51	0.593500	0.076800	0.394600
C791	C79	0.676410	0.035320	0.454080
C801	C80	0.656400	0.960490	0.488380
C811	C81	0.737980	0.054550	0.471870
H521	H52	0.766000	0.014900	0.501400
C821	C82	0.758360	0.131800	0.446280
C831	C83	0.714940	0.192400	0.403680
H531	H53	0.727600	0.247500	0.388300
C841	C84	0.823520	0.150820	0.463900
C851	C85	0.847280	0.246690	0.477890
H541	H54	0.821500	0.299700	0.475700
C861	C86	0.908100	0.264460	0.494940
H551	H55	0.923000	0.328700	0.505500
C871	C87	0.947710	0.187330	0.496660
C881	C88	0.012570	0.207340	0.509580
C891	C89	0.923920	0.091230	0.482540
H561	H56	0.949400	0.038600	0.483300
C901	C90	0.863280	0.073030	0.467470
H571	H57	0.848700	0.008100	0.459600
Co41	Co4	0.116090	0.352650	0.549700
O191	O19	0.056470	0.705000	0.308760
O201	O20	0.124650	0.824420	0.329590
O211	O21	0.104060	0.424040	0.464760
O221	O22	0.191590	0.439330	0.542090
O231	O23	0.540420	0.644680	0.492120
O241	O24	0.534970	0.788220	0.535930
N191	N19	0.972930	0.895890	0.298700
N201	N20	0.934520	0.031010	0.320900
N211	N21	0.664050	0.185400	0.140660
N221	N22	0.740180	0.199610	0.228310
N231	N23	0.913410	0.515050	0.420560
N241	N24	0.909580	0.371340	0.375640
C911	C91	0.922020	0.200790	0.348200
H581	H58	0.962700	0.202400	0.373900
C921	C92	0.896800	0.116580	0.314000
C931	C93	0.836520	0.113200	0.275300
H591	H59	0.820000	0.056100	0.253000
C941	C94	0.801350	0.196800	0.270640
C951	C95	0.824860	0.281270	0.304740
H601	H60	0.800400	0.336400	0.301800
C961	C96	0.884700	0.282590	0.342890
C971	C97	0.929980	0.963210	0.277910
H611	H61	0.900400	0.964000	0.238800
C981	C98	0.006380	0.922000	0.357400
H621	H62	0.039800	0.887100	0.383600
C991	C99	0.984070	0.005000	0.371720
H631	H63	0.999000	0.038300	0.408600
C1001	C100	0.720510	0.162600	0.171370
H641	H64	0.744300	0.125800	0.156200
C1011	C101	0.645700	0.239600	0.178590
H651	H65	0.607100	0.265500	0.168800
C1021	C102	0.692540	0.249400	0.232560
H661	H66	0.692400	0.283500	0.266200
C1031	C103	0.878150	0.441800	0.391610
H671	H67	0.836900	0.438400	0.383100
C1041	C104	0.969970	0.491400	0.423830
H681	H68	0.004400	0.530400	0.442300
C1051	C105	0.968480	0.403800	0.396350
H691	H69	0.000900	0.371400	0.392200
C1061	C106	0.109100	0.739800	0.337960
C1071	C107	0.153620	0.672350	0.383860
C1081	C108	0.134480	0.592270	0.408550
H701	H70	0.093500	0.576800	0.394600
C1091	C109	0.176410	0.535320	0.454080
C1101	C110	0.156400	0.460490	0.488380
C1111	C111	0.237980	0.554550	0.471870
H711	H71	0.266000	0.514900	0.501400
C1121	C112	0.258360	0.631800	0.446280
C1131	C113	0.214940	0.692400	0.403680
H721	H72	0.227600	0.747500	0.388300
C1141	C114	0.323520	0.650820	0.463900
C1151	C115	0.347280	0.746690	0.477890
H731	H73	0.321500	0.799700	0.475700
C1161	C116	0.408100	0.764460	0.494940
H741	H74	0.423000	0.828700	0.505500
C1171	C117	0.447710	0.687330	0.496660
C1181	C118	0.512570	0.707340	0.509580
C1191	C119	0.423920	0.591230	0.482540
H751	H75	0.449400	0.538600	0.483300
C1201	C120	0.363280	0.573030	0.467470
H761	H76	0.348700	0.508100	0.459600
Co51	Co5	0.616090	0.147350	0.049700
O251	O25	0.556470	0.795000	0.808760
O261	O26	0.624650	0.675580	0.829590
O271	O27	0.604060	0.075960	0.964760
O281	O28	0.691590	0.060670	0.042090
O291	O29	0.040420	0.855320	0.992120
O301	O30	0.034970	0.711780	0.035930
N251	N25	0.472930	0.604110	0.798700
N261	N26	0.434520	0.468990	0.820900
N271	N27	0.164050	0.314600	0.640660
N281	N28	0.240180	0.300390	0.728310
N291	N29	0.413410	0.984950	0.920560
N301	N30	0.409580	0.128660	0.875640
C1211	C121	0.422020	0.299210	0.848200
H771	H77	0.462700	0.297600	0.873900
C1221	C122	0.396800	0.383420	0.814000
C1231	C123	0.336520	0.386800	0.775300
H781	H78	0.320000	0.443900	0.753000
C1241	C124	0.301350	0.303200	0.770640
C1251	C125	0.324860	0.218730	0.804740
H791	H79	0.300400	0.163600	0.801800
C1261	C126	0.384700	0.217410	0.842890
C1271	C127	0.429980	0.536790	0.777910
H801	H80	0.400400	0.536000	0.738800
C1281	C128	0.506380	0.578000	0.857400
H811	H81	0.539800	0.612900	0.883600
C1291	C129	0.484070	0.495000	0.871720
H821	H82	0.499000	0.461700	0.908600
C1301	C130	0.220510	0.337400	0.671370
H831	H83	0.244300	0.374200	0.656200
C1311	C131	0.145700	0.260400	0.678590
H841	H84	0.107100	0.234500	0.668800
C1321	C132	0.192540	0.250600	0.732560
H851	H85	0.192400	0.216500	0.766200
C1331	C133	0.378150	0.058200	0.891610
H861	H86	0.336900	0.061600	0.883100
C1341	C134	0.469970	0.008600	0.923830
H871	H87	0.504400	0.969600	0.942300
C1351	C135	0.468480	0.096200	0.896350
H881	H88	0.500900	0.128600	0.892200
C1361	C136	0.609100	0.760200	0.837960
C1371	C137	0.653620	0.827650	0.883860
C1381	C138	0.634480	0.907730	0.908550
H891	H89	0.593500	0.923200	0.894600
C1391	C139	0.676410	0.964680	0.954080
C1401	C140	0.656400	0.039510	0.988380
C1411	C141	0.737980	0.945450	0.971870
H901	H90	0.766000	0.985100	0.001400
C1421	C142	0.758360	0.868200	0.946280
C1431	C143	0.714940	0.807600	0.903680
H911	H91	0.727600	0.752500	0.888300
C1441	C144	0.823520	0.849180	0.963900
C1451	C145	0.847280	0.753310	0.977890
H921	H92	0.821500	0.700300	0.975700
C1461	C146	0.908100	0.735540	0.994940
H931	H93	0.923000	0.671300	0.005500
C1471	C147	0.947710	0.812670	0.996660
C1481	C148	0.012570	0.792660	0.009580
C1491	C149	0.923920	0.908770	0.982540
H941	H94	0.949400	0.961400	0.983300
C1501	C150	0.863280	0.926970	0.967470
H951	H95	0.848700	0.991900	0.959600
Co61	Co6	0.116090	0.647350	0.049700
O311	O31	0.056470	0.295000	0.808760
O321	O32	0.124650	0.175580	0.829590
O331	O33	0.104060	0.575960	0.964760
O341	O34	0.191590	0.560670	0.042090
O351	O35	0.540420	0.355320	0.992120
O361	O36	0.534970	0.211780	0.035930
N311	N31	0.972930	0.104110	0.798700
N321	N32	0.934520	0.968990	0.820900
N331	N33	0.664050	0.814600	0.640660
N341	N34	0.740180	0.800390	0.728310
N351	N35	0.913410	0.484950	0.920560
N361	N36	0.909580	0.628660	0.875640
C1511	C151	0.922020	0.799210	0.848200
H961	H96	0.962700	0.797600	0.873900
C1521	C152	0.896800	0.883420	0.814000
C1531	C153	0.836520	0.886800	0.775300
H971	H97	0.820000	0.943900	0.753000
C1541	C154	0.801350	0.803200	0.770640
C1551	C155	0.824860	0.718730	0.804740
H981	H98	0.800400	0.663600	0.801800
C1561	C156	0.884700	0.717410	0.842890
C1571	C157	0.929980	0.036790	0.777910
H991	H99	0.900400	0.036000	0.738800
C1581	C158	0.006380	0.078000	0.857400
H1001	H100	0.039800	0.112900	0.883600
C1591	C159	0.984070	0.995000	0.871720
H1011	H101	0.999000	0.961700	0.908600
C1601	C160	0.720510	0.837400	0.671370
H1021	H102	0.744300	0.874200	0.656200
C1611	C161	0.645700	0.760400	0.678590
H1031	H103	0.607100	0.734500	0.668800
C1621	C162	0.692540	0.750600	0.732560
H1041	H104	0.692400	0.716500	0.766200
C1631	C163	0.878150	0.558200	0.891610
H1051	H105	0.836900	0.561600	0.883100
C1641	C164	0.969970	0.508600	0.923830
H1061	H106	0.004400	0.469600	0.942300
C1651	C165	0.968480	0.596200	0.896350
H1071	H107	0.000900	0.628600	0.892200
C1661	C166	0.109100	0.260200	0.837960
C1671	C167	0.153620	0.327650	0.883860
C1681	C168	0.134480	0.407730	0.908550
H1081	H108	0.093500	0.423200	0.894600
C1691	C169	0.176410	0.464680	0.954080
C1701	C170	0.156400	0.539510	0.988380
C1711	C171	0.237980	0.445450	0.971870
H1091	H109	0.266000	0.485100	0.001400
C1721	C172	0.258360	0.368200	0.946280
C1731	C173	0.214940	0.307600	0.903680
H1101	H110	0.227600	0.252500	0.888300
C1741	C174	0.323520	0.349180	0.963900
C1751	C175	0.347280	0.253310	0.977890
H1111	H111	0.321500	0.200300	0.975700
C1761	C176	0.408100	0.235540	0.994940
H1121	H112	0.423000	0.171300	0.005500
C1771	C177	0.447710	0.312670	0.996660
C1781	C178	0.512570	0.292660	0.009580
C1791	C179	0.423920	0.408770	0.982540
H1131	H113	0.449400	0.461400	0.983300
C1801	C180	0.363280	0.426970	0.967470
H1141	H114	0.348700	0.491900	0.959600
Co71	Co7	0.383910	0.147350	0.450300
O371	O37	0.443530	0.795000	0.691240
O381	O38	0.375350	0.675580	0.670410
O391	O39	0.395940	0.075960	0.535240
O401	O40	0.308410	0.060670	0.457910
O411	O41	0.959580	0.855320	0.507880
O421	O42	0.965030	0.711780	0.464070
N371	N37	0.527070	0.604110	0.701300
N381	N38	0.565480	0.468990	0.679100
N391	N39	0.835950	0.314600	0.859340
N401	N40	0.759820	0.300390	0.771690
N411	N41	0.586590	0.984950	0.579440
N421	N42	0.590420	0.128660	0.624360
C1811	C181	0.577980	0.299210	0.651800
H1151	H115	0.537300	0.297600	0.626100
C1821	C182	0.603200	0.383420	0.686000
C1831	C183	0.663480	0.386800	0.724700
H1161	H116	0.680000	0.443900	0.747000
C1841	C184	0.698650	0.303200	0.729360
C1851	C185	0.675140	0.218730	0.695260
H1171	H117	0.699600	0.163600	0.698200
C1861	C186	0.615300	0.217410	0.657110
C1871	C187	0.570020	0.536790	0.722090
H1181	H118	0.599600	0.536000	0.761200
C1881	C188	0.493620	0.578000	0.642600
H1191	H119	0.460200	0.612900	0.616400
C1891	C189	0.515930	0.495000	0.628280
H1201	H120	0.501000	0.461700	0.591400
C1901	C190	0.779490	0.337400	0.828630
H1211	H121	0.755700	0.374200	0.843800
C1911	C191	0.854300	0.260400	0.821410
H1221	H122	0.892900	0.234500	0.831200
C1921	C192	0.807460	0.250600	0.767440
H1231	H123	0.807600	0.216500	0.733800
C1931	C193	0.621850	0.058200	0.608390
H1241	H124	0.663100	0.061600	0.616900
C1941	C194	0.530030	0.008600	0.576170
H1251	H125	0.495600	0.969600	0.557700
C1951	C195	0.531520	0.096200	0.603650
H1261	H126	0.499100	0.128600	0.607800
C1961	C196	0.390900	0.760200	0.662040
C1971	C197	0.346380	0.827650	0.616140
C1981	C198	0.365520	0.907730	0.591450
H1271	H127	0.406500	0.923200	0.605400
C1991	C199	0.323590	0.964680	0.545920
C2001	C200	0.343600	0.039510	0.511620
C2011	C201	0.262020	0.945450	0.528130
H1281	H128	0.234000	0.985100	0.498600
C2021	C202	0.241640	0.868200	0.553720
C2031	C203	0.285060	0.807600	0.596320
H1291	H129	0.272400	0.752500	0.611700
C2041	C204	0.176480	0.849180	0.536100
C2051	C205	0.152720	0.753310	0.522110
H1301	H130	0.178500	0.700300	0.524300
C2061	C206	0.091900	0.735540	0.505060
H1311	H131	0.077000	0.671300	0.494500
C2071	C207	0.052290	0.812670	0.503340
C2081	C208	0.987430	0.792660	0.490420
C2091	C209	0.076080	0.908770	0.517460
H1321	H132	0.050600	0.961400	0.516700
C2101	C210	0.136720	0.926970	0.532530
H1331	H133	0.151300	0.991900	0.540400
Co81	Co8	0.883910	0.647350	0.450300
O431	O43	0.943530	0.295000	0.691240
O441	O44	0.875350	0.175580	0.670410
O451	O45	0.895940	0.575960	0.535240
O461	O46	0.808410	0.560670	0.457910
O471	O47	0.459580	0.355320	0.507880
O481	O48	0.465030	0.211780	0.464070
N431	N43	0.027070	0.104110	0.701300
N441	N44	0.065480	0.968990	0.679100
N451	N45	0.335950	0.814600	0.859340
N461	N46	0.259820	0.800390	0.771690
N471	N47	0.086590	0.484950	0.579440
N481	N48	0.090420	0.628660	0.624360
C2111	C211	0.077980	0.799210	0.651800
H1341	H134	0.037300	0.797600	0.626100
C2121	C212	0.103200	0.883420	0.686000
C2131	C213	0.163480	0.886800	0.724700
H1351	H135	0.180000	0.943900	0.747000
C2141	C214	0.198650	0.803200	0.729360
C2151	C215	0.175140	0.718730	0.695260
H1361	H136	0.199600	0.663600	0.698200
C2161	C216	0.115300	0.717410	0.657110
C2171	C217	0.070020	0.036790	0.722090
H1371	H137	0.099600	0.036000	0.761200
C2181	C218	0.993620	0.078000	0.642600
H1381	H138	0.960200	0.112900	0.616400
C2191	C219	0.015930	0.995000	0.628280
H1391	H139	0.001000	0.961700	0.591400
C2201	C220	0.279490	0.837400	0.828630
H1401	H140	0.255700	0.874200	0.843800
C2211	C221	0.354300	0.760400	0.821410
H1411	H141	0.392900	0.734500	0.831200
C2221	C222	0.307460	0.750600	0.767440
H1421	H142	0.307600	0.716500	0.733800
C2231	C223	0.121850	0.558200	0.608390
H1431	H143	0.163100	0.561600	0.616900
C2241	C224	0.030030	0.508600	0.576170
H1441	H144	0.995600	0.469600	0.557700
C2251	C225	0.031520	0.596200	0.603650
H1451	H145	0.999100	0.628600	0.607800
C2261	C226	0.890900	0.260200	0.662040
C2271	C227	0.846380	0.327650	0.616140
C2281	C228	0.865520	0.407730	0.591450
H1461	H146	0.906500	0.423200	0.605400
C2291	C229	0.823590	0.464680	0.545920
C2301	C230	0.843600	0.539510	0.511620
C2311	C231	0.762020	0.445450	0.528130
H1471	H147	0.734000	0.485100	0.498600
C2321	C232	0.741640	0.368200	0.553720
C2331	C233	0.785060	0.307600	0.596320
H1481	H148	0.772400	0.252500	0.611700
C2341	C234	0.676480	0.349180	0.536100
C2351	C235	0.652720	0.253310	0.522110
H1491	H149	0.678500	0.200300	0.524300
C2361	C236	0.591900	0.235540	0.505060
H1501	H150	0.577000	0.171300	0.494500
C2371	C237	0.552290	0.312670	0.503340
C2381	C238	0.487430	0.292660	0.490420
C2391	C239	0.576080	0.408770	0.517460
H1511	H151	0.550600	0.461400	0.516700
C2401	C240	0.636720	0.426970	0.532530
H1521	H152	0.651300	0.491900	0.540400
Co91	Co9	0.500000	0.296480	0.250000
Co101	Co10	0.000000	0.796480	0.250000
Co111	Co11	0.500000	0.703520	0.750000
Co121	Co12	0.000000	0.203520	0.750000
