data_EBAVUB_clean_PM
_symmetry_space_group_name_H-M	'P1'
_cell_length_a	23.409200
_cell_length_b	13.386500
_cell_length_c	25.295400
_cell_angle_alpha	90.000000
_cell_angle_beta	114.823000
_cell_angle_gamma	90.000000
_symmetry_Int_Tables_number 1

loop_
_symmetry_equiv_pos_as_xyz
'x,y,z'

loop_
_atom_site_label
_atom_site_type_symbol
_atom_site_fract_x
_atom_site_fract_y
_atom_site_fract_z
Ni11	Ni1	0.879480	0.351820	0.450010
N11	N1	0.985180	0.911000	0.801930
N21	N2	0.942080	0.041600	0.824050
N31	N3	0.665130	0.195510	0.636080
N41	N4	0.737340	0.201400	0.723370
N51	N5	0.909270	0.515070	0.923630
N61	N6	0.905800	0.377000	0.877630
O11	O1	0.902150	0.787620	0.695440
O21	O2	0.971760	0.693530	0.683220
O31	O3	0.463660	0.789680	0.465870
O41	O4	0.455640	0.642610	0.503090
O51	O5	0.805900	0.438730	0.459600
O61	O6	0.898460	0.416310	0.531820
C11	C1	0.923190	0.208200	0.851800
H11	H1	0.964700	0.210800	0.879400
C21	C2	0.900830	0.124200	0.817160
C31	C3	0.838820	0.118800	0.775430
H21	H2	0.823800	0.062100	0.752400
C41	C4	0.800100	0.201000	0.769300
C51	C5	0.820990	0.284500	0.803380
H31	H3	0.794100	0.338100	0.798900
C61	C6	0.883330	0.287900	0.844970
C71	C7	0.941020	0.979000	0.782070
H41	H4	0.912200	0.983500	0.743300
C81	C8	0.016690	0.930700	0.860760
H51	H5	0.050400	0.893800	0.886800
C91	C9	0.991660	0.010500	0.874850
H61	H6	0.004900	0.039400	0.911500
C101	C10	0.722300	0.171800	0.668570
H71	H7	0.749300	0.139000	0.655900
C111	C11	0.638540	0.232500	0.670000
H81	H8	0.596300	0.248800	0.657900
C121	C12	0.684240	0.241500	0.724550
H91	H9	0.680300	0.269400	0.756500
C131	C13	0.872130	0.444400	0.892270
H101	H10	0.829000	0.441100	0.881600
C141	C14	0.967620	0.497300	0.927350
H111	H11	0.002500	0.538300	0.945700
C151	C15	0.967090	0.411700	0.900490
H121	H12	0.001300	0.381100	0.897600
C161	C16	0.915660	0.716600	0.669160
C171	C17	0.863390	0.661100	0.620910
C181	C18	0.799900	0.685300	0.605430
H131	H13	0.789900	0.737000	0.624600
C191	C19	0.877750	0.584000	0.592200
H141	H14	0.919500	0.565700	0.603400
C201	C20	0.751630	0.632200	0.561440
C211	C21	0.830450	0.533400	0.546800
C221	C22	0.767640	0.557600	0.532060
H151	H15	0.736000	0.523200	0.502000
C231	C23	0.683790	0.653800	0.544440
C241	C24	0.659380	0.749900	0.529530
H161	H16	0.686200	0.803200	0.533000
C251	C25	0.642520	0.576600	0.539730
H171	H17	0.658100	0.511900	0.548700
C261	C26	0.579380	0.592800	0.522220
H181	H18	0.553000	0.539800	0.520500
C271	C27	0.595360	0.766100	0.509570
H191	H19	0.579400	0.829900	0.497700
C281	C28	0.554510	0.689500	0.506790
C291	C29	0.485810	0.707700	0.490070
C301	C30	0.845670	0.458200	0.511390
Ni21	Ni2	0.379480	0.851820	0.450010
N71	N7	0.485180	0.411000	0.801930
N81	N8	0.442080	0.541600	0.824050
N91	N9	0.165130	0.695510	0.636080
N101	N10	0.237340	0.701400	0.723370
N111	N11	0.409270	0.015070	0.923630
N121	N12	0.405800	0.877000	0.877630
O71	O7	0.402150	0.287620	0.695440
O81	O8	0.471760	0.193530	0.683220
O91	O9	0.963660	0.289680	0.465870
O101	O10	0.955640	0.142610	0.503090
O111	O11	0.305900	0.938730	0.459600
O121	O12	0.398460	0.916310	0.531820
C311	C31	0.423190	0.708200	0.851800
H201	H20	0.464700	0.710800	0.879400
C321	C32	0.400830	0.624200	0.817160
C331	C33	0.338820	0.618800	0.775430
H211	H21	0.323800	0.562100	0.752400
C341	C34	0.300100	0.701000	0.769300
C351	C35	0.320990	0.784500	0.803380
H221	H22	0.294100	0.838100	0.798900
C361	C36	0.383330	0.787900	0.844970
C371	C37	0.441020	0.479000	0.782070
H231	H23	0.412200	0.483500	0.743300
C381	C38	0.516690	0.430700	0.860760
H241	H24	0.550400	0.393800	0.886800
C391	C39	0.491660	0.510500	0.874850
H251	H25	0.504900	0.539400	0.911500
C401	C40	0.222300	0.671800	0.668570
H261	H26	0.249300	0.639000	0.655900
C411	C41	0.138540	0.732500	0.670000
H271	H27	0.096300	0.748800	0.657900
C421	C42	0.184240	0.741500	0.724550
H281	H28	0.180300	0.769400	0.756500
C431	C43	0.372130	0.944400	0.892270
H291	H29	0.329000	0.941100	0.881600
C441	C44	0.467620	0.997300	0.927350
H301	H30	0.502500	0.038300	0.945700
C451	C45	0.467090	0.911700	0.900490
H311	H31	0.501300	0.881100	0.897600
C461	C46	0.415660	0.216600	0.669160
C471	C47	0.363390	0.161100	0.620910
C481	C48	0.299900	0.185300	0.605430
H321	H32	0.289900	0.237000	0.624600
C491	C49	0.377750	0.084000	0.592200
H331	H33	0.419500	0.065700	0.603400
C501	C50	0.251630	0.132200	0.561440
C511	C51	0.330450	0.033400	0.546800
C521	C52	0.267640	0.057600	0.532060
H341	H34	0.236000	0.023200	0.502000
C531	C53	0.183790	0.153800	0.544440
C541	C54	0.159380	0.249900	0.529530
H351	H35	0.186200	0.303200	0.533000
C551	C55	0.142520	0.076600	0.539730
H361	H36	0.158100	0.011900	0.548700
C561	C56	0.079380	0.092800	0.522220
H371	H37	0.053000	0.039800	0.520500
C571	C57	0.095360	0.266100	0.509570
H381	H38	0.079400	0.329900	0.497700
C581	C58	0.054510	0.189500	0.506790
C591	C59	0.985810	0.207700	0.490070
C601	C60	0.345670	0.958200	0.511390
Ni31	Ni3	0.120520	0.351820	0.049990
N131	N13	0.014820	0.911000	0.698070
N141	N14	0.057920	0.041600	0.675950
N151	N15	0.334870	0.195510	0.863920
N161	N16	0.262660	0.201400	0.776630
N171	N17	0.090730	0.515070	0.576370
N181	N18	0.094200	0.377000	0.622370
O131	O13	0.097850	0.787620	0.804560
O141	O14	0.028240	0.693530	0.816780
O151	O15	0.536340	0.789680	0.034130
O161	O16	0.544360	0.642610	0.996910
O171	O17	0.194100	0.438730	0.040400
O181	O18	0.101540	0.416310	0.968180
C611	C61	0.076810	0.208200	0.648200
H391	H39	0.035300	0.210800	0.620600
C621	C62	0.099170	0.124200	0.682840
C631	C63	0.161180	0.118800	0.724570
H401	H40	0.176200	0.062100	0.747600
C641	C64	0.199900	0.201000	0.730700
C651	C65	0.179010	0.284500	0.696620
H411	H41	0.205900	0.338100	0.701100
C661	C66	0.116670	0.287900	0.655030
C671	C67	0.058980	0.979000	0.717930
H421	H42	0.087800	0.983500	0.756700
C681	C68	0.983310	0.930700	0.639240
H431	H43	0.949600	0.893800	0.613200
C691	C69	0.008340	0.010500	0.625150
H441	H44	0.995100	0.039400	0.588500
C701	C70	0.277700	0.171800	0.831430
H451	H45	0.250700	0.139000	0.844100
C711	C71	0.361460	0.232500	0.830000
H461	H46	0.403700	0.248800	0.842100
C721	C72	0.315760	0.241500	0.775450
H471	H47	0.319700	0.269400	0.743500
C731	C73	0.127870	0.444400	0.607730
H481	H48	0.171000	0.441100	0.618400
C741	C74	0.032380	0.497300	0.572650
H491	H49	0.997500	0.538300	0.554300
C751	C75	0.032910	0.411700	0.599510
H501	H50	0.998700	0.381100	0.602400
C761	C76	0.084340	0.716600	0.830840
C771	C77	0.136610	0.661100	0.879090
C781	C78	0.200100	0.685300	0.894570
H511	H51	0.210100	0.737000	0.875400
C791	C79	0.122250	0.584000	0.907800
H521	H52	0.080500	0.565700	0.896600
C801	C80	0.248370	0.632200	0.938560
C811	C81	0.169550	0.533400	0.953200
C821	C82	0.232360	0.557600	0.967940
H531	H53	0.264000	0.523200	0.998000
C831	C83	0.316210	0.653800	0.955560
C841	C84	0.340620	0.749900	0.970470
H541	H54	0.313800	0.803200	0.967000
C851	C85	0.357480	0.576600	0.960270
H551	H55	0.341900	0.511900	0.951300
C861	C86	0.420620	0.592800	0.977780
H561	H56	0.447000	0.539800	0.979500
C871	C87	0.404640	0.766100	0.990430
H571	H57	0.420600	0.829900	0.002300
C881	C88	0.445490	0.689500	0.993210
C891	C89	0.514190	0.707700	0.009930
C901	C90	0.154330	0.458200	0.988610
Ni41	Ni4	0.620520	0.851820	0.049990
N191	N19	0.514820	0.411000	0.698070
N201	N20	0.557920	0.541600	0.675950
N211	N21	0.834870	0.695510	0.863920
N221	N22	0.762660	0.701400	0.776630
N231	N23	0.590730	0.015070	0.576370
N241	N24	0.594200	0.877000	0.622370
O191	O19	0.597850	0.287620	0.804560
O201	O20	0.528240	0.193530	0.816780
O211	O21	0.036340	0.289680	0.034130
O221	O22	0.044360	0.142610	0.996910
O231	O23	0.694100	0.938730	0.040400
O241	O24	0.601540	0.916310	0.968180
C911	C91	0.576810	0.708200	0.648200
H581	H58	0.535300	0.710800	0.620600
C921	C92	0.599170	0.624200	0.682840
C931	C93	0.661180	0.618800	0.724570
H591	H59	0.676200	0.562100	0.747600
C941	C94	0.699900	0.701000	0.730700
C951	C95	0.679010	0.784500	0.696620
H601	H60	0.705900	0.838100	0.701100
C961	C96	0.616670	0.787900	0.655030
C971	C97	0.558980	0.479000	0.717930
H611	H61	0.587800	0.483500	0.756700
C981	C98	0.483310	0.430700	0.639240
H621	H62	0.449600	0.393800	0.613200
C991	C99	0.508340	0.510500	0.625150
H631	H63	0.495100	0.539400	0.588500
C1001	C100	0.777700	0.671800	0.831430
H641	H64	0.750700	0.639000	0.844100
C1011	C101	0.861460	0.732500	0.830000
H651	H65	0.903700	0.748800	0.842100
C1021	C102	0.815760	0.741500	0.775450
H661	H66	0.819700	0.769400	0.743500
C1031	C103	0.627870	0.944400	0.607730
H671	H67	0.671000	0.941100	0.618400
C1041	C104	0.532380	0.997300	0.572650
H681	H68	0.497500	0.038300	0.554300
C1051	C105	0.532910	0.911700	0.599510
H691	H69	0.498700	0.881100	0.602400
C1061	C106	0.584340	0.216600	0.830840
C1071	C107	0.636610	0.161100	0.879090
C1081	C108	0.700100	0.185300	0.894570
H701	H70	0.710100	0.237000	0.875400
C1091	C109	0.622250	0.084000	0.907800
H711	H71	0.580500	0.065700	0.896600
C1101	C110	0.748370	0.132200	0.938560
C1111	C111	0.669550	0.033400	0.953200
C1121	C112	0.732360	0.057600	0.967940
H721	H72	0.764000	0.023200	0.998000
C1131	C113	0.816210	0.153800	0.955560
C1141	C114	0.840620	0.249900	0.970470
H731	H73	0.813800	0.303200	0.967000
C1151	C115	0.857480	0.076600	0.960270
H741	H74	0.841900	0.011900	0.951300
C1161	C116	0.920620	0.092800	0.977780
H751	H75	0.947000	0.039800	0.979500
C1171	C117	0.904640	0.266100	0.990430
H761	H76	0.920600	0.329900	0.002300
C1181	C118	0.945490	0.189500	0.993210
C1191	C119	0.014190	0.207700	0.009930
C1201	C120	0.654330	0.958200	0.988610
Ni51	Ni5	0.120520	0.648180	0.549990
N251	N25	0.014820	0.089000	0.198070
N261	N26	0.057920	0.958400	0.175950
N271	N27	0.334870	0.804490	0.363920
N281	N28	0.262660	0.798600	0.276630
N291	N29	0.090730	0.484930	0.076370
N301	N30	0.094200	0.623000	0.122370
O251	O25	0.097850	0.212380	0.304560
O261	O26	0.028240	0.306470	0.316780
O271	O27	0.536340	0.210320	0.534130
O281	O28	0.544360	0.357390	0.496910
O291	O29	0.194100	0.561270	0.540400
O301	O30	0.101540	0.583690	0.468180
C1211	C121	0.076810	0.791800	0.148200
H771	H77	0.035300	0.789200	0.120600
C1221	C122	0.099170	0.875800	0.182840
C1231	C123	0.161180	0.881200	0.224570
H781	H78	0.176200	0.937900	0.247600
C1241	C124	0.199900	0.799000	0.230700
C1251	C125	0.179010	0.715500	0.196620
H791	H79	0.205900	0.661900	0.201100
C1261	C126	0.116670	0.712100	0.155030
C1271	C127	0.058980	0.021000	0.217930
H801	H80	0.087800	0.016500	0.256700
C1281	C128	0.983310	0.069300	0.139240
H811	H81	0.949600	0.106200	0.113200
C1291	C129	0.008340	0.989500	0.125150
H821	H82	0.995100	0.960600	0.088500
C1301	C130	0.277700	0.828200	0.331430
H831	H83	0.250700	0.861000	0.344100
C1311	C131	0.361460	0.767500	0.330000
H841	H84	0.403700	0.751200	0.342100
C1321	C132	0.315760	0.758500	0.275450
H851	H85	0.319700	0.730600	0.243500
C1331	C133	0.127870	0.555600	0.107730
H861	H86	0.171000	0.558900	0.118400
C1341	C134	0.032380	0.502700	0.072650
H871	H87	0.997500	0.461700	0.054300
C1351	C135	0.032910	0.588300	0.099510
H881	H88	0.998700	0.618900	0.102400
C1361	C136	0.084340	0.283400	0.330840
C1371	C137	0.136610	0.338900	0.379090
C1381	C138	0.200100	0.314700	0.394570
H891	H89	0.210100	0.263000	0.375400
C1391	C139	0.122250	0.416000	0.407800
H901	H90	0.080500	0.434300	0.396600
C1401	C140	0.248370	0.367800	0.438560
C1411	C141	0.169550	0.466600	0.453200
C1421	C142	0.232360	0.442400	0.467940
H911	H91	0.264000	0.476800	0.498000
C1431	C143	0.316210	0.346200	0.455560
C1441	C144	0.340620	0.250100	0.470470
H921	H92	0.313800	0.196800	0.467000
C1451	C145	0.357480	0.423400	0.460270
H931	H93	0.341900	0.488100	0.451300
C1461	C146	0.420620	0.407200	0.477780
H941	H94	0.447000	0.460200	0.479500
C1471	C147	0.404640	0.233900	0.490430
H951	H95	0.420600	0.170100	0.502300
C1481	C148	0.445490	0.310500	0.493210
C1491	C149	0.514190	0.292300	0.509930
C1501	C150	0.154330	0.541800	0.488610
Ni61	Ni6	0.620520	0.148180	0.549990
N311	N31	0.514820	0.589000	0.198070
N321	N32	0.557920	0.458400	0.175950
N331	N33	0.834870	0.304490	0.363920
N341	N34	0.762660	0.298600	0.276630
N351	N35	0.590730	0.984930	0.076370
N361	N36	0.594200	0.123000	0.122370
O311	O31	0.597850	0.712380	0.304560
O321	O32	0.528240	0.806470	0.316780
O331	O33	0.036340	0.710320	0.534130
O341	O34	0.044360	0.857390	0.496910
O351	O35	0.694100	0.061270	0.540400
O361	O36	0.601540	0.083690	0.468180
C1511	C151	0.576810	0.291800	0.148200
H961	H96	0.535300	0.289200	0.120600
C1521	C152	0.599170	0.375800	0.182840
C1531	C153	0.661180	0.381200	0.224570
H971	H97	0.676200	0.437900	0.247600
C1541	C154	0.699900	0.299000	0.230700
C1551	C155	0.679010	0.215500	0.196620
H981	H98	0.705900	0.161900	0.201100
C1561	C156	0.616670	0.212100	0.155030
C1571	C157	0.558980	0.521000	0.217930
H991	H99	0.587800	0.516500	0.256700
C1581	C158	0.483310	0.569300	0.139240
H1001	H100	0.449600	0.606200	0.113200
C1591	C159	0.508340	0.489500	0.125150
H1011	H101	0.495100	0.460600	0.088500
C1601	C160	0.777700	0.328200	0.331430
H1021	H102	0.750700	0.361000	0.344100
C1611	C161	0.861460	0.267500	0.330000
H1031	H103	0.903700	0.251200	0.342100
C1621	C162	0.815760	0.258500	0.275450
H1041	H104	0.819700	0.230600	0.243500
C1631	C163	0.627870	0.055600	0.107730
H1051	H105	0.671000	0.058900	0.118400
C1641	C164	0.532380	0.002700	0.072650
H1061	H106	0.497500	0.961700	0.054300
C1651	C165	0.532910	0.088300	0.099510
H1071	H107	0.498700	0.118900	0.102400
C1661	C166	0.584340	0.783400	0.330840
C1671	C167	0.636610	0.838900	0.379090
C1681	C168	0.700100	0.814700	0.394570
H1081	H108	0.710100	0.763000	0.375400
C1691	C169	0.622250	0.916000	0.407800
H1091	H109	0.580500	0.934300	0.396600
C1701	C170	0.748370	0.867800	0.438560
C1711	C171	0.669550	0.966600	0.453200
C1721	C172	0.732360	0.942400	0.467940
H1101	H110	0.764000	0.976800	0.498000
C1731	C173	0.816210	0.846200	0.455560
C1741	C174	0.840620	0.750100	0.470470
H1111	H111	0.813800	0.696800	0.467000
C1751	C175	0.857480	0.923400	0.460270
H1121	H112	0.841900	0.988100	0.451300
C1761	C176	0.920620	0.907200	0.477780
H1131	H113	0.947000	0.960200	0.479500
C1771	C177	0.904640	0.733900	0.490430
H1141	H114	0.920600	0.670100	0.502300
C1781	C178	0.945490	0.810500	0.493210
C1791	C179	0.014190	0.792300	0.509930
C1801	C180	0.654330	0.041800	0.488610
Ni71	Ni7	0.879480	0.648180	0.950010
N371	N37	0.985180	0.089000	0.301930
N381	N38	0.942080	0.958400	0.324050
N391	N39	0.665130	0.804490	0.136080
N401	N40	0.737340	0.798600	0.223370
N411	N41	0.909270	0.484930	0.423630
N421	N42	0.905800	0.623000	0.377630
O371	O37	0.902150	0.212380	0.195440
O381	O38	0.971760	0.306470	0.183220
O391	O39	0.463660	0.210320	0.965870
O401	O40	0.455640	0.357390	0.003090
O411	O41	0.805900	0.561270	0.959600
O421	O42	0.898460	0.583690	0.031820
C1811	C181	0.923190	0.791800	0.351800
H1151	H115	0.964700	0.789200	0.379400
C1821	C182	0.900830	0.875800	0.317160
C1831	C183	0.838820	0.881200	0.275430
H1161	H116	0.823800	0.937900	0.252400
C1841	C184	0.800100	0.799000	0.269300
C1851	C185	0.820990	0.715500	0.303380
H1171	H117	0.794100	0.661900	0.298900
C1861	C186	0.883330	0.712100	0.344970
C1871	C187	0.941020	0.021000	0.282070
H1181	H118	0.912200	0.016500	0.243300
C1881	C188	0.016690	0.069300	0.360760
H1191	H119	0.050400	0.106200	0.386800
C1891	C189	0.991660	0.989500	0.374850
H1201	H120	0.004900	0.960600	0.411500
C1901	C190	0.722300	0.828200	0.168570
H1211	H121	0.749300	0.861000	0.155900
C1911	C191	0.638540	0.767500	0.170000
H1221	H122	0.596300	0.751200	0.157900
C1921	C192	0.684240	0.758500	0.224550
H1231	H123	0.680300	0.730600	0.256500
C1931	C193	0.872130	0.555600	0.392270
H1241	H124	0.829000	0.558900	0.381600
C1941	C194	0.967620	0.502700	0.427350
H1251	H125	0.002500	0.461700	0.445700
C1951	C195	0.967090	0.588300	0.400490
H1261	H126	0.001300	0.618900	0.397600
C1961	C196	0.915660	0.283400	0.169160
C1971	C197	0.863390	0.338900	0.120910
C1981	C198	0.799900	0.314700	0.105430
H1271	H127	0.789900	0.263000	0.124600
C1991	C199	0.877750	0.416000	0.092200
H1281	H128	0.919500	0.434300	0.103400
C2001	C200	0.751630	0.367800	0.061440
C2011	C201	0.830450	0.466600	0.046800
C2021	C202	0.767640	0.442400	0.032060
H1291	H129	0.736000	0.476800	0.002000
C2031	C203	0.683790	0.346200	0.044440
C2041	C204	0.659380	0.250100	0.029530
H1301	H130	0.686200	0.196800	0.033000
C2051	C205	0.642520	0.423400	0.039730
H1311	H131	0.658100	0.488100	0.048700
C2061	C206	0.579380	0.407200	0.022220
H1321	H132	0.553000	0.460200	0.020500
C2071	C207	0.595360	0.233900	0.009570
H1331	H133	0.579400	0.170100	0.997700
C2081	C208	0.554510	0.310500	0.006790
C2091	C209	0.485810	0.292300	0.990070
C2101	C210	0.845670	0.541800	0.011390
Ni81	Ni8	0.379480	0.148180	0.950010
N431	N43	0.485180	0.589000	0.301930
N441	N44	0.442080	0.458400	0.324050
N451	N45	0.165130	0.304490	0.136080
N461	N46	0.237340	0.298600	0.223370
N471	N47	0.409270	0.984930	0.423630
N481	N48	0.405800	0.123000	0.377630
O431	O43	0.402150	0.712380	0.195440
O441	O44	0.471760	0.806470	0.183220
O451	O45	0.963660	0.710320	0.965870
O461	O46	0.955640	0.857390	0.003090
O471	O47	0.305900	0.061270	0.959600
O481	O48	0.398460	0.083690	0.031820
C2111	C211	0.423190	0.291800	0.351800
H1341	H134	0.464700	0.289200	0.379400
C2121	C212	0.400830	0.375800	0.317160
C2131	C213	0.338820	0.381200	0.275430
H1351	H135	0.323800	0.437900	0.252400
C2141	C214	0.300100	0.299000	0.269300
C2151	C215	0.320990	0.215500	0.303380
H1361	H136	0.294100	0.161900	0.298900
C2161	C216	0.383330	0.212100	0.344970
C2171	C217	0.441020	0.521000	0.282070
H1371	H137	0.412200	0.516500	0.243300
C2181	C218	0.516690	0.569300	0.360760
H1381	H138	0.550400	0.606200	0.386800
C2191	C219	0.491660	0.489500	0.374850
H1391	H139	0.504900	0.460600	0.411500
C2201	C220	0.222300	0.328200	0.168570
H1401	H140	0.249300	0.361000	0.155900
C2211	C221	0.138540	0.267500	0.170000
H1411	H141	0.096300	0.251200	0.157900
C2221	C222	0.184240	0.258500	0.224550
H1421	H142	0.180300	0.230600	0.256500
C2231	C223	0.372130	0.055600	0.392270
H1431	H143	0.329000	0.058900	0.381600
C2241	C224	0.467620	0.002700	0.427350
H1441	H144	0.502500	0.961700	0.445700
C2251	C225	0.467090	0.088300	0.400490
H1451	H145	0.501300	0.118900	0.397600
C2261	C226	0.415660	0.783400	0.169160
C2271	C227	0.363390	0.838900	0.120910
C2281	C228	0.299900	0.814700	0.105430
H1461	H146	0.289900	0.763000	0.124600
C2291	C229	0.377750	0.916000	0.092200
H1471	H147	0.419500	0.934300	0.103400
C2301	C230	0.251630	0.867800	0.061440
C2311	C231	0.330450	0.966600	0.046800
C2321	C232	0.267640	0.942400	0.032060
H1481	H148	0.236000	0.976800	0.002000
C2331	C233	0.183790	0.846200	0.044440
C2341	C234	0.159380	0.750100	0.029530
H1491	H149	0.186200	0.696800	0.033000
C2351	C235	0.142520	0.923400	0.039730
H1501	H150	0.158100	0.988100	0.048700
C2361	C236	0.079380	0.907200	0.022220
H1511	H151	0.053000	0.960200	0.020500
C2371	C237	0.095360	0.733900	0.009570
H1521	H152	0.079400	0.670100	0.997700
C2381	C238	0.054510	0.810500	0.006790
C2391	C239	0.985810	0.792300	0.990070
C2401	C240	0.345670	0.041800	0.011390
Ni91	Ni9	0.000000	0.806500	0.750000
Ni101	Ni10	0.500000	0.306500	0.750000
Ni111	Ni11	0.000000	0.193500	0.250000
Ni121	Ni12	0.500000	0.693500	0.250000
