data_EBAVOV_clean_PM
_symmetry_space_group_name_H-M	'P1'
_cell_length_a	23.979200
_cell_length_b	13.372100
_cell_length_c	24.222700
_cell_angle_alpha	90.000000
_cell_angle_beta	112.706000
_cell_angle_gamma	90.000000
_symmetry_Int_Tables_number 1

loop_
_symmetry_equiv_pos_as_xyz
'x,y,z'

loop_
_atom_site_label
_atom_site_type_symbol
_atom_site_fract_x
_atom_site_fract_y
_atom_site_fract_z
Co11	Co1	0.383880	0.648670	0.451590
N11	N1	0.470500	0.896620	0.297650
N21	N2	0.430730	0.030280	0.320510
N31	N3	0.412120	0.516710	0.420870
N41	N4	0.407920	0.372800	0.375040
N51	N5	0.163670	0.191370	0.136970
N61	N6	0.239040	0.206410	0.224570
O11	O1	0.444140	0.708870	0.190660
O21	O2	0.375830	0.828780	0.168500
O31	O3	0.396660	0.424180	0.035860
O41	O4	0.308490	0.435190	0.961200
O51	O5	0.965180	0.788010	0.964390
O61	O6	0.960220	0.642310	0.006990
C11	C1	0.334220	0.115900	0.273750
H11	H1	0.317700	0.059100	0.251200
C21	C2	0.393720	0.117550	0.313650
C31	C3	0.419200	0.200810	0.348050
H21	H2	0.459500	0.200600	0.374500
C41	C4	0.383300	0.284370	0.342170
C51	C5	0.323450	0.285620	0.302320
H31	H3	0.299700	0.342200	0.298700
C61	C6	0.299680	0.202090	0.268230
C71	C7	0.428660	0.965950	0.277000
H41	H4	0.401200	0.970000	0.237500
C81	C8	0.500850	0.917800	0.357320
H51	H5	0.533100	0.881000	0.383600
C91	C9	0.476930	0.999700	0.371970
H61	H6	0.489200	0.029500	0.409500
C101	C10	0.377080	0.443630	0.391440
H71	H7	0.335800	0.440700	0.382800
C111	C11	0.468830	0.491910	0.423830
H81	H8	0.503300	0.530600	0.442200
C121	C12	0.467420	0.403900	0.396520
H91	H9	0.499900	0.370800	0.392800
C131	C13	0.220330	0.167750	0.169380
H101	H10	0.244400	0.128900	0.155600
C141	C14	0.145540	0.248700	0.174340
H111	H11	0.107300	0.276500	0.163900
C151	C15	0.191160	0.258800	0.228200
H121	H12	0.190400	0.294000	0.261100
C161	C16	0.391530	0.743190	0.161380
C171	C17	0.347230	0.674760	0.116030
C181	C18	0.366360	0.593340	0.091940
H131	H13	0.407200	0.577200	0.105900
C191	C19	0.324540	0.536170	0.047070
C201	C20	0.262900	0.556380	0.029230
H141	H14	0.234900	0.517000	0.999900
C211	C21	0.242690	0.634370	0.054660
C221	C22	0.285490	0.695080	0.096750
H151	H15	0.272700	0.750100	0.112300
C231	C23	0.344610	0.459560	0.013560
C241	C24	0.177000	0.652910	0.036240
C251	C25	0.153670	0.749610	0.024390
H161	H16	0.179600	0.803400	0.028500
C261	C26	0.092410	0.766180	0.006540
H171	H17	0.077200	0.830600	0.996600
C271	C27	0.053250	0.687850	0.003310
C281	C28	0.076620	0.591570	0.015300
H181	H18	0.051000	0.538200	0.013000
C291	C29	0.137480	0.574260	0.030580
H191	H19	0.152200	0.509100	0.037200
C301	C30	0.987600	0.707020	0.990160
Co21	Co2	0.883880	0.148670	0.451590
N71	N7	0.970500	0.396620	0.297650
N81	N8	0.930730	0.530280	0.320510
N91	N9	0.912120	0.016710	0.420870
N101	N10	0.907920	0.872800	0.375040
N111	N11	0.663670	0.691370	0.136970
N121	N12	0.739040	0.706410	0.224570
O71	O7	0.944140	0.208870	0.190660
O81	O8	0.875830	0.328780	0.168500
O91	O9	0.896660	0.924180	0.035860
O101	O10	0.808490	0.935190	0.961200
O111	O11	0.465180	0.288010	0.964390
O121	O12	0.460220	0.142310	0.006990
C311	C31	0.834220	0.615900	0.273750
H201	H20	0.817700	0.559100	0.251200
C321	C32	0.893720	0.617550	0.313650
C331	C33	0.919200	0.700810	0.348050
H211	H21	0.959500	0.700600	0.374500
C341	C34	0.883300	0.784370	0.342170
C351	C35	0.823450	0.785620	0.302320
H221	H22	0.799700	0.842200	0.298700
C361	C36	0.799680	0.702090	0.268230
C371	C37	0.928660	0.465950	0.277000
H231	H23	0.901200	0.470000	0.237500
C381	C38	0.000850	0.417800	0.357320
H241	H24	0.033100	0.381000	0.383600
C391	C39	0.976930	0.499700	0.371970
H251	H25	0.989200	0.529500	0.409500
C401	C40	0.877080	0.943630	0.391440
H261	H26	0.835800	0.940700	0.382800
C411	C41	0.968830	0.991910	0.423830
H271	H27	0.003300	0.030600	0.442200
C421	C42	0.967420	0.903900	0.396520
H281	H28	0.999900	0.870800	0.392800
C431	C43	0.720330	0.667750	0.169380
H291	H29	0.744400	0.628900	0.155600
C441	C44	0.645540	0.748700	0.174340
H301	H30	0.607300	0.776500	0.163900
C451	C45	0.691160	0.758800	0.228200
H311	H31	0.690400	0.794000	0.261100
C461	C46	0.891530	0.243190	0.161380
C471	C47	0.847230	0.174760	0.116030
C481	C48	0.866360	0.093340	0.091940
H321	H32	0.907200	0.077200	0.105900
C491	C49	0.824540	0.036170	0.047070
C501	C50	0.762900	0.056380	0.029230
H331	H33	0.734900	0.017000	0.999900
C511	C51	0.742690	0.134370	0.054660
C521	C52	0.785490	0.195080	0.096750
H341	H34	0.772700	0.250100	0.112300
C531	C53	0.844610	0.959560	0.013560
C541	C54	0.677000	0.152910	0.036240
C551	C55	0.653670	0.249610	0.024390
H351	H35	0.679600	0.303400	0.028500
C561	C56	0.592410	0.266180	0.006540
H361	H36	0.577200	0.330600	0.996600
C571	C57	0.553250	0.187850	0.003310
C581	C58	0.576620	0.091570	0.015300
H371	H37	0.551000	0.038200	0.013000
C591	C59	0.637480	0.074260	0.030580
H381	H38	0.652200	0.009100	0.037200
C601	C60	0.487600	0.207020	0.990160
Co31	Co3	0.616120	0.648670	0.048410
N131	N13	0.529500	0.896620	0.202350
N141	N14	0.569270	0.030280	0.179490
N151	N15	0.587880	0.516710	0.079130
N161	N16	0.592080	0.372800	0.124960
N171	N17	0.836330	0.191370	0.363030
N181	N18	0.760960	0.206410	0.275430
O131	O13	0.555860	0.708870	0.309340
O141	O14	0.624170	0.828780	0.331500
O151	O15	0.603340	0.424180	0.464140
O161	O16	0.691510	0.435190	0.538800
O171	O17	0.034820	0.788010	0.535610
O181	O18	0.039780	0.642310	0.493010
C611	C61	0.665780	0.115900	0.226250
H391	H39	0.682300	0.059100	0.248800
C621	C62	0.606280	0.117550	0.186350
C631	C63	0.580800	0.200810	0.151950
H401	H40	0.540500	0.200600	0.125500
C641	C64	0.616700	0.284370	0.157830
C651	C65	0.676550	0.285620	0.197680
H411	H41	0.700300	0.342200	0.201300
C661	C66	0.700320	0.202090	0.231770
C671	C67	0.571340	0.965950	0.223000
H421	H42	0.598800	0.970000	0.262500
C681	C68	0.499150	0.917800	0.142680
H431	H43	0.466900	0.881000	0.116400
C691	C69	0.523070	0.999700	0.128030
H441	H44	0.510800	0.029500	0.090500
C701	C70	0.622920	0.443630	0.108560
H451	H45	0.664200	0.440700	0.117200
C711	C71	0.531170	0.491910	0.076170
H461	H46	0.496700	0.530600	0.057800
C721	C72	0.532580	0.403900	0.103480
H471	H47	0.500100	0.370800	0.107200
C731	C73	0.779670	0.167750	0.330620
H481	H48	0.755600	0.128900	0.344400
C741	C74	0.854460	0.248700	0.325660
H491	H49	0.892700	0.276500	0.336100
C751	C75	0.808840	0.258800	0.271800
H501	H50	0.809600	0.294000	0.238900
C761	C76	0.608470	0.743190	0.338620
C771	C77	0.652770	0.674760	0.383970
C781	C78	0.633640	0.593340	0.408060
H511	H51	0.592800	0.577200	0.394100
C791	C79	0.675460	0.536170	0.452930
C801	C80	0.737100	0.556380	0.470770
H521	H52	0.765100	0.517000	0.500100
C811	C81	0.757310	0.634370	0.445340
C821	C82	0.714510	0.695080	0.403250
H531	H53	0.727300	0.750100	0.387700
C831	C83	0.655390	0.459560	0.486440
C841	C84	0.823000	0.652910	0.463760
C851	C85	0.846330	0.749610	0.475610
H541	H54	0.820400	0.803400	0.471500
C861	C86	0.907590	0.766180	0.493460
H551	H55	0.922800	0.830600	0.503400
C871	C87	0.946750	0.687850	0.496690
C881	C88	0.923380	0.591570	0.484700
H561	H56	0.949000	0.538200	0.487000
C891	C89	0.862520	0.574260	0.469420
H571	H57	0.847800	0.509100	0.462800
C901	C90	0.012400	0.707020	0.509840
Co41	Co4	0.116120	0.148670	0.048410
N191	N19	0.029500	0.396620	0.202350
N201	N20	0.069270	0.530280	0.179490
N211	N21	0.087880	0.016710	0.079130
N221	N22	0.092080	0.872800	0.124960
N231	N23	0.336330	0.691370	0.363030
N241	N24	0.260960	0.706410	0.275430
O191	O19	0.055860	0.208870	0.309340
O201	O20	0.124170	0.328780	0.331500
O211	O21	0.103340	0.924180	0.464140
O221	O22	0.191510	0.935190	0.538800
O231	O23	0.534820	0.288010	0.535610
O241	O24	0.539780	0.142310	0.493010
C911	C91	0.165780	0.615900	0.226250
H581	H58	0.182300	0.559100	0.248800
C921	C92	0.106280	0.617550	0.186350
C931	C93	0.080800	0.700810	0.151950
H591	H59	0.040500	0.700600	0.125500
C941	C94	0.116700	0.784370	0.157830
C951	C95	0.176550	0.785620	0.197680
H601	H60	0.200300	0.842200	0.201300
C961	C96	0.200320	0.702090	0.231770
C971	C97	0.071340	0.465950	0.223000
H611	H61	0.098800	0.470000	0.262500
C981	C98	0.999150	0.417800	0.142680
H621	H62	0.966900	0.381000	0.116400
C991	C99	0.023070	0.499700	0.128030
H631	H63	0.010800	0.529500	0.090500
C1001	C100	0.122920	0.943630	0.108560
H641	H64	0.164200	0.940700	0.117200
C1011	C101	0.031170	0.991910	0.076170
H651	H65	0.996700	0.030600	0.057800
C1021	C102	0.032580	0.903900	0.103480
H661	H66	0.000100	0.870800	0.107200
C1031	C103	0.279670	0.667750	0.330620
H671	H67	0.255600	0.628900	0.344400
C1041	C104	0.354460	0.748700	0.325660
H681	H68	0.392700	0.776500	0.336100
C1051	C105	0.308840	0.758800	0.271800
H691	H69	0.309600	0.794000	0.238900
C1061	C106	0.108470	0.243190	0.338620
C1071	C107	0.152770	0.174760	0.383970
C1081	C108	0.133640	0.093340	0.408060
H701	H70	0.092800	0.077200	0.394100
C1091	C109	0.175460	0.036170	0.452930
C1101	C110	0.237100	0.056380	0.470770
H711	H71	0.265100	0.017000	0.500100
C1111	C111	0.257310	0.134370	0.445340
C1121	C112	0.214510	0.195080	0.403250
H721	H72	0.227300	0.250100	0.387700
C1131	C113	0.155390	0.959560	0.486440
C1141	C114	0.323000	0.152910	0.463760
C1151	C115	0.346330	0.249610	0.475610
H731	H73	0.320400	0.303400	0.471500
C1161	C116	0.407590	0.266180	0.493460
H741	H74	0.422800	0.330600	0.503400
C1171	C117	0.446750	0.187850	0.496690
C1181	C118	0.423380	0.091570	0.484700
H751	H75	0.449000	0.038200	0.487000
C1191	C119	0.362520	0.074260	0.469420
H761	H76	0.347800	0.009100	0.462800
C1201	C120	0.512400	0.207020	0.509840
Co51	Co5	0.616120	0.351330	0.548410
N251	N25	0.529500	0.103380	0.702350
N261	N26	0.569270	0.969720	0.679490
N271	N27	0.587880	0.483290	0.579130
N281	N28	0.592080	0.627200	0.624960
N291	N29	0.836330	0.808630	0.863030
N301	N30	0.760960	0.793590	0.775430
O251	O25	0.555860	0.291130	0.809340
O261	O26	0.624170	0.171220	0.831500
O271	O27	0.603340	0.575820	0.964140
O281	O28	0.691510	0.564810	0.038800
O291	O29	0.034820	0.211990	0.035610
O301	O30	0.039780	0.357690	0.993010
C1211	C121	0.665780	0.884100	0.726250
H771	H77	0.682300	0.940900	0.748800
C1221	C122	0.606280	0.882450	0.686350
C1231	C123	0.580800	0.799190	0.651950
H781	H78	0.540500	0.799400	0.625500
C1241	C124	0.616700	0.715630	0.657830
C1251	C125	0.676550	0.714380	0.697680
H791	H79	0.700300	0.657800	0.701300
C1261	C126	0.700320	0.797910	0.731770
C1271	C127	0.571340	0.034050	0.723000
H801	H80	0.598800	0.030000	0.762500
C1281	C128	0.499150	0.082200	0.642680
H811	H81	0.466900	0.119000	0.616400
C1291	C129	0.523070	0.000300	0.628030
H821	H82	0.510800	0.970500	0.590500
C1301	C130	0.622920	0.556370	0.608560
H831	H83	0.664200	0.559300	0.617200
C1311	C131	0.531170	0.508090	0.576170
H841	H84	0.496700	0.469400	0.557800
C1321	C132	0.532580	0.596100	0.603480
H851	H85	0.500100	0.629200	0.607200
C1331	C133	0.779670	0.832250	0.830620
H861	H86	0.755600	0.871100	0.844400
C1341	C134	0.854460	0.751300	0.825660
H871	H87	0.892700	0.723500	0.836100
C1351	C135	0.808840	0.741200	0.771800
H881	H88	0.809600	0.706000	0.738900
C1361	C136	0.608470	0.256810	0.838620
C1371	C137	0.652770	0.325240	0.883970
C1381	C138	0.633640	0.406660	0.908060
H891	H89	0.592800	0.422800	0.894100
C1391	C139	0.675460	0.463830	0.952930
C1401	C140	0.737100	0.443620	0.970770
H901	H90	0.765100	0.483000	0.000100
C1411	C141	0.757310	0.365630	0.945340
C1421	C142	0.714510	0.304920	0.903250
H911	H91	0.727300	0.249900	0.887700
C1431	C143	0.655390	0.540440	0.986440
C1441	C144	0.823000	0.347090	0.963760
C1451	C145	0.846330	0.250390	0.975610
H921	H92	0.820400	0.196600	0.971500
C1461	C146	0.907590	0.233820	0.993460
H931	H93	0.922800	0.169400	0.003400
C1471	C147	0.946750	0.312150	0.996690
C1481	C148	0.923380	0.408430	0.984700
H941	H94	0.949000	0.461800	0.987000
C1491	C149	0.862520	0.425740	0.969420
H951	H95	0.847800	0.490900	0.962800
C1501	C150	0.012400	0.292980	0.009840
Co61	Co6	0.116120	0.851330	0.548410
N311	N31	0.029500	0.603380	0.702350
N321	N32	0.069270	0.469720	0.679490
N331	N33	0.087880	0.983290	0.579130
N341	N34	0.092080	0.127200	0.624960
N351	N35	0.336330	0.308630	0.863030
N361	N36	0.260960	0.293590	0.775430
O311	O31	0.055860	0.791130	0.809340
O321	O32	0.124170	0.671220	0.831500
O331	O33	0.103340	0.075820	0.964140
O341	O34	0.191510	0.064810	0.038800
O351	O35	0.534820	0.711990	0.035610
O361	O36	0.539780	0.857690	0.993010
C1511	C151	0.165780	0.384100	0.726250
H961	H96	0.182300	0.440900	0.748800
C1521	C152	0.106280	0.382450	0.686350
C1531	C153	0.080800	0.299190	0.651950
H971	H97	0.040500	0.299400	0.625500
C1541	C154	0.116700	0.215630	0.657830
C1551	C155	0.176550	0.214380	0.697680
H981	H98	0.200300	0.157800	0.701300
C1561	C156	0.200320	0.297910	0.731770
C1571	C157	0.071340	0.534050	0.723000
H991	H99	0.098800	0.530000	0.762500
C1581	C158	0.999150	0.582200	0.642680
H1001	H100	0.966900	0.619000	0.616400
C1591	C159	0.023070	0.500300	0.628030
H1011	H101	0.010800	0.470500	0.590500
C1601	C160	0.122920	0.056370	0.608560
H1021	H102	0.164200	0.059300	0.617200
C1611	C161	0.031170	0.008090	0.576170
H1031	H103	0.996700	0.969400	0.557800
C1621	C162	0.032580	0.096100	0.603480
H1041	H104	0.000100	0.129200	0.607200
C1631	C163	0.279670	0.332250	0.830620
H1051	H105	0.255600	0.371100	0.844400
C1641	C164	0.354460	0.251300	0.825660
H1061	H106	0.392700	0.223500	0.836100
C1651	C165	0.308840	0.241200	0.771800
H1071	H107	0.309600	0.206000	0.738900
C1661	C166	0.108470	0.756810	0.838620
C1671	C167	0.152770	0.825240	0.883970
C1681	C168	0.133640	0.906660	0.908060
H1081	H108	0.092800	0.922800	0.894100
C1691	C169	0.175460	0.963830	0.952930
C1701	C170	0.237100	0.943620	0.970770
H1091	H109	0.265100	0.983000	0.000100
C1711	C171	0.257310	0.865630	0.945340
C1721	C172	0.214510	0.804920	0.903250
H1101	H110	0.227300	0.749900	0.887700
C1731	C173	0.155390	0.040440	0.986440
C1741	C174	0.323000	0.847090	0.963760
C1751	C175	0.346330	0.750390	0.975610
H1111	H111	0.320400	0.696600	0.971500
C1761	C176	0.407590	0.733820	0.993460
H1121	H112	0.422800	0.669400	0.003400
C1771	C177	0.446750	0.812150	0.996690
C1781	C178	0.423380	0.908430	0.984700
H1131	H113	0.449000	0.961800	0.987000
C1791	C179	0.362520	0.925740	0.969420
H1141	H114	0.347800	0.990900	0.962800
C1801	C180	0.512400	0.792980	0.009840
Co71	Co7	0.383880	0.351330	0.951590
N371	N37	0.470500	0.103380	0.797650
N381	N38	0.430730	0.969720	0.820510
N391	N39	0.412120	0.483290	0.920870
N401	N40	0.407920	0.627200	0.875040
N411	N41	0.163670	0.808630	0.636970
N421	N42	0.239040	0.793590	0.724570
O371	O37	0.444140	0.291130	0.690660
O381	O38	0.375830	0.171220	0.668500
O391	O39	0.396660	0.575820	0.535860
O401	O40	0.308490	0.564810	0.461200
O411	O41	0.965180	0.211990	0.464390
O421	O42	0.960220	0.357690	0.506990
C1811	C181	0.334220	0.884100	0.773750
H1151	H115	0.317700	0.940900	0.751200
C1821	C182	0.393720	0.882450	0.813650
C1831	C183	0.419200	0.799190	0.848050
H1161	H116	0.459500	0.799400	0.874500
C1841	C184	0.383300	0.715630	0.842170
C1851	C185	0.323450	0.714380	0.802320
H1171	H117	0.299700	0.657800	0.798700
C1861	C186	0.299680	0.797910	0.768230
C1871	C187	0.428660	0.034050	0.777000
H1181	H118	0.401200	0.030000	0.737500
C1881	C188	0.500850	0.082200	0.857320
H1191	H119	0.533100	0.119000	0.883600
C1891	C189	0.476930	0.000300	0.871970
H1201	H120	0.489200	0.970500	0.909500
C1901	C190	0.377080	0.556370	0.891440
H1211	H121	0.335800	0.559300	0.882800
C1911	C191	0.468830	0.508090	0.923830
H1221	H122	0.503300	0.469400	0.942200
C1921	C192	0.467420	0.596100	0.896520
H1231	H123	0.499900	0.629200	0.892800
C1931	C193	0.220330	0.832250	0.669380
H1241	H124	0.244400	0.871100	0.655600
C1941	C194	0.145540	0.751300	0.674340
H1251	H125	0.107300	0.723500	0.663900
C1951	C195	0.191160	0.741200	0.728200
H1261	H126	0.190400	0.706000	0.761100
C1961	C196	0.391530	0.256810	0.661380
C1971	C197	0.347230	0.325240	0.616030
C1981	C198	0.366360	0.406660	0.591940
H1271	H127	0.407200	0.422800	0.605900
C1991	C199	0.324540	0.463830	0.547070
C2001	C200	0.262900	0.443620	0.529230
H1281	H128	0.234900	0.483000	0.499900
C2011	C201	0.242690	0.365630	0.554660
C2021	C202	0.285490	0.304920	0.596750
H1291	H129	0.272700	0.249900	0.612300
C2031	C203	0.344610	0.540440	0.513560
C2041	C204	0.177000	0.347090	0.536240
C2051	C205	0.153670	0.250390	0.524390
H1301	H130	0.179600	0.196600	0.528500
C2061	C206	0.092410	0.233820	0.506540
H1311	H131	0.077200	0.169400	0.496600
C2071	C207	0.053250	0.312150	0.503310
C2081	C208	0.076620	0.408430	0.515300
H1321	H132	0.051000	0.461800	0.513000
C2091	C209	0.137480	0.425740	0.530580
H1331	H133	0.152200	0.490900	0.537200
C2101	C210	0.987600	0.292980	0.490160
Co81	Co8	0.883880	0.851330	0.951590
N431	N43	0.970500	0.603380	0.797650
N441	N44	0.930730	0.469720	0.820510
N451	N45	0.912120	0.983290	0.920870
N461	N46	0.907920	0.127200	0.875040
N471	N47	0.663670	0.308630	0.636970
N481	N48	0.739040	0.293590	0.724570
O431	O43	0.944140	0.791130	0.690660
O441	O44	0.875830	0.671220	0.668500
O451	O45	0.896660	0.075820	0.535860
O461	O46	0.808490	0.064810	0.461200
O471	O47	0.465180	0.711990	0.464390
O481	O48	0.460220	0.857690	0.506990
C2111	C211	0.834220	0.384100	0.773750
H1341	H134	0.817700	0.440900	0.751200
C2121	C212	0.893720	0.382450	0.813650
C2131	C213	0.919200	0.299190	0.848050
H1351	H135	0.959500	0.299400	0.874500
C2141	C214	0.883300	0.215630	0.842170
C2151	C215	0.823450	0.214380	0.802320
H1361	H136	0.799700	0.157800	0.798700
C2161	C216	0.799680	0.297910	0.768230
C2171	C217	0.928660	0.534050	0.777000
H1371	H137	0.901200	0.530000	0.737500
C2181	C218	0.000850	0.582200	0.857320
H1381	H138	0.033100	0.619000	0.883600
C2191	C219	0.976930	0.500300	0.871970
H1391	H139	0.989200	0.470500	0.909500
C2201	C220	0.877080	0.056370	0.891440
H1401	H140	0.835800	0.059300	0.882800
C2211	C221	0.968830	0.008090	0.923830
H1411	H141	0.003300	0.969400	0.942200
C2221	C222	0.967420	0.096100	0.896520
H1421	H142	0.999900	0.129200	0.892800
C2231	C223	0.720330	0.332250	0.669380
H1431	H143	0.744400	0.371100	0.655600
C2241	C224	0.645540	0.251300	0.674340
H1441	H144	0.607300	0.223500	0.663900
C2251	C225	0.691160	0.241200	0.728200
H1451	H145	0.690400	0.206000	0.761100
C2261	C226	0.891530	0.756810	0.661380
C2271	C227	0.847230	0.825240	0.616030
C2281	C228	0.866360	0.906660	0.591940
H1461	H146	0.907200	0.922800	0.605900
C2291	C229	0.824540	0.963830	0.547070
C2301	C230	0.762900	0.943620	0.529230
H1471	H147	0.734900	0.983000	0.499900
C2311	C231	0.742690	0.865630	0.554660
C2321	C232	0.785490	0.804920	0.596750
H1481	H148	0.772700	0.749900	0.612300
C2331	C233	0.844610	0.040440	0.513560
C2341	C234	0.677000	0.847090	0.536240
C2351	C235	0.653670	0.750390	0.524390
H1491	H149	0.679600	0.696600	0.528500
C2361	C236	0.592410	0.733820	0.506540
H1501	H150	0.577200	0.669400	0.496600
C2371	C237	0.553250	0.812150	0.503310
C2381	C238	0.576620	0.908430	0.515300
H1511	H151	0.551000	0.961800	0.513000
C2391	C239	0.637480	0.925740	0.530580
H1521	H152	0.652200	0.990900	0.537200
C2401	C240	0.487600	0.792980	0.490160
Co91	Co9	0.500000	0.800230	0.250000
Co101	Co10	0.000000	0.300230	0.250000
Co111	Co11	0.500000	0.199770	0.750000
Co121	Co12	0.000000	0.699770	0.750000
