data_EBEGID_clean_PM
_symmetry_space_group_name_H-M	'P1'
_cell_length_a	31.119000
_cell_length_b	11.298400
_cell_length_c	7.491600
_cell_angle_alpha	90.000000
_cell_angle_beta	92.839000
_cell_angle_gamma	90.000000
_symmetry_Int_Tables_number 1

loop_
_symmetry_equiv_pos_as_xyz
'x,y,z'

loop_
_atom_site_label
_atom_site_type_symbol
_atom_site_fract_x
_atom_site_fract_y
_atom_site_fract_z
Mo11	Mo1	0.793170	0.485000	0.328290
Mo21	Mo2	0.910510	0.477660	0.269890
O11	O1	0.752900	0.593200	0.341000
O21	O2	0.767000	0.364600	0.226500
O31	O3	0.800300	0.555400	0.053700
O41	O4	0.853900	0.436000	0.276100
O51	O5	0.910500	0.541200	0.052600
O61	O6	0.961400	0.575900	0.354900
N11	N1	0.898200	0.135100	0.502800
N21	N2	0.821600	0.761600	0.433000
N31	N3	0.835800	0.653500	0.387700
N41	N4	0.877200	0.657800	0.363600
N51	N5	0.891400	0.766900	0.387400
H11	H1	0.917100	0.792700	0.376500
C11	C1	0.857500	0.958500	0.456400
C21	C2	0.896600	0.013600	0.487300
H21	H2	0.921800	0.969200	0.497600
C31	C3	0.862200	0.201400	0.490400
H31	H3	0.863900	0.283200	0.503300
C41	C4	0.822800	0.147600	0.458500
H41	H4	0.797800	0.192900	0.448400
C51	C5	0.820500	0.025000	0.441400
H51	H5	0.794100	0.988100	0.419900
C61	C6	0.856600	0.829400	0.432600
Mo31	Mo3	0.293170	0.985000	0.328290
Mo41	Mo4	0.410510	0.977660	0.269890
O71	O7	0.252900	0.093200	0.341000
O81	O8	0.267000	0.864600	0.226500
O91	O9	0.300300	0.055400	0.053700
O101	O10	0.353900	0.936000	0.276100
O111	O11	0.410500	0.041200	0.052600
O121	O12	0.461400	0.075900	0.354900
N61	N6	0.398200	0.635100	0.502800
N71	N7	0.321600	0.261600	0.433000
N81	N8	0.335800	0.153500	0.387700
N91	N9	0.377200	0.157800	0.363600
N101	N10	0.391400	0.266900	0.387400
H61	H6	0.417100	0.292700	0.376500
C71	C7	0.357500	0.458500	0.456400
C81	C8	0.396600	0.513600	0.487300
H71	H7	0.421800	0.469200	0.497600
C91	C9	0.362200	0.701400	0.490400
H81	H8	0.363900	0.783200	0.503300
C101	C10	0.322800	0.647600	0.458500
H91	H9	0.297800	0.692900	0.448400
C111	C11	0.320500	0.525000	0.441400
H101	H10	0.294100	0.488100	0.419900
C121	C12	0.356600	0.329400	0.432600
Mo51	Mo5	0.206830	0.485000	0.171710
Mo61	Mo6	0.089490	0.477660	0.230110
O131	O13	0.247100	0.593200	0.159000
O141	O14	0.233000	0.364600	0.273500
O151	O15	0.199700	0.555400	0.446300
O161	O16	0.146100	0.436000	0.223900
O171	O17	0.089500	0.541200	0.447400
O181	O18	0.038600	0.575900	0.145100
N111	N11	0.101800	0.135100	0.997200
N121	N12	0.178400	0.761600	0.067000
N131	N13	0.164200	0.653500	0.112300
N141	N14	0.122800	0.657800	0.136400
N151	N15	0.108600	0.766900	0.112600
H111	H11	0.082900	0.792700	0.123500
C131	C13	0.142500	0.958500	0.043600
C141	C14	0.103400	0.013600	0.012700
H121	H12	0.078200	0.969200	0.002400
C151	C15	0.137800	0.201400	0.009600
H131	H13	0.136100	0.283200	0.996700
C161	C16	0.177200	0.147600	0.041500
H141	H14	0.202200	0.192900	0.051600
C171	C17	0.179500	0.025000	0.058600
H151	H15	0.205900	0.988100	0.080100
C181	C18	0.143400	0.829400	0.067400
Mo71	Mo7	0.706830	0.985000	0.171710
Mo81	Mo8	0.589490	0.977660	0.230110
O191	O19	0.747100	0.093200	0.159000
O201	O20	0.733000	0.864600	0.273500
O211	O21	0.699700	0.055400	0.446300
O221	O22	0.646100	0.936000	0.223900
O231	O23	0.589500	0.041200	0.447400
O241	O24	0.538600	0.075900	0.145100
N161	N16	0.601800	0.635100	0.997200
N171	N17	0.678400	0.261600	0.067000
N181	N18	0.664200	0.153500	0.112300
N191	N19	0.622800	0.157800	0.136400
N201	N20	0.608600	0.266900	0.112600
H161	H16	0.582900	0.292700	0.123500
C191	C19	0.642500	0.458500	0.043600
C201	C20	0.603400	0.513600	0.012700
H171	H17	0.578200	0.469200	0.002400
C211	C21	0.637800	0.701400	0.009600
H181	H18	0.636100	0.783200	0.996700
C221	C22	0.677200	0.647600	0.041500
H191	H19	0.702200	0.692900	0.051600
C231	C23	0.679500	0.525000	0.058600
H201	H20	0.705900	0.488100	0.080100
C241	C24	0.643400	0.329400	0.067400
Mo91	Mo9	0.206830	0.515000	0.671710
Mo101	Mo10	0.089490	0.522340	0.730110
O251	O25	0.247100	0.406800	0.659000
O261	O26	0.233000	0.635400	0.773500
O271	O27	0.199700	0.444600	0.946300
O281	O28	0.146100	0.564000	0.723900
O291	O29	0.089500	0.458800	0.947400
O301	O30	0.038600	0.424100	0.645100
N211	N21	0.101800	0.864900	0.497200
N221	N22	0.178400	0.238400	0.567000
N231	N23	0.164200	0.346500	0.612300
N241	N24	0.122800	0.342200	0.636400
N251	N25	0.108600	0.233100	0.612600
H211	H21	0.082900	0.207300	0.623500
C251	C25	0.142500	0.041500	0.543600
C261	C26	0.103400	0.986400	0.512700
H221	H22	0.078200	0.030800	0.502400
C271	C27	0.137800	0.798600	0.509600
H231	H23	0.136100	0.716800	0.496700
C281	C28	0.177200	0.852400	0.541500
H241	H24	0.202200	0.807100	0.551600
C291	C29	0.179500	0.975000	0.558600
H251	H25	0.205900	0.011900	0.580100
C301	C30	0.143400	0.170600	0.567400
Mo111	Mo11	0.706830	0.015000	0.671710
Mo121	Mo12	0.589490	0.022340	0.730110
O311	O31	0.747100	0.906800	0.659000
O321	O32	0.733000	0.135400	0.773500
O331	O33	0.699700	0.944600	0.946300
O341	O34	0.646100	0.064000	0.723900
O351	O35	0.589500	0.958800	0.947400
O361	O36	0.538600	0.924100	0.645100
N261	N26	0.601800	0.364900	0.497200
N271	N27	0.678400	0.738400	0.567000
N281	N28	0.664200	0.846500	0.612300
N291	N29	0.622800	0.842200	0.636400
N301	N30	0.608600	0.733100	0.612600
H261	H26	0.582900	0.707300	0.623500
C311	C31	0.642500	0.541500	0.543600
C321	C32	0.603400	0.486400	0.512700
H271	H27	0.578200	0.530800	0.502400
C331	C33	0.637800	0.298600	0.509600
H281	H28	0.636100	0.216800	0.496700
C341	C34	0.677200	0.352400	0.541500
H291	H29	0.702200	0.307100	0.551600
C351	C35	0.679500	0.475000	0.558600
H301	H30	0.705900	0.511900	0.580100
C361	C36	0.643400	0.670600	0.567400
Mo131	Mo13	0.793170	0.515000	0.828290
Mo141	Mo14	0.910510	0.522340	0.769890
O371	O37	0.752900	0.406800	0.841000
O381	O38	0.767000	0.635400	0.726500
O391	O39	0.800300	0.444600	0.553700
O401	O40	0.853900	0.564000	0.776100
O411	O41	0.910500	0.458800	0.552600
O421	O42	0.961400	0.424100	0.854900
N311	N31	0.898200	0.864900	0.002800
N321	N32	0.821600	0.238400	0.933000
N331	N33	0.835800	0.346500	0.887700
N341	N34	0.877200	0.342200	0.863600
N351	N35	0.891400	0.233100	0.887400
H311	H31	0.917100	0.207300	0.876500
C371	C37	0.857500	0.041500	0.956400
C381	C38	0.896600	0.986400	0.987300
H321	H32	0.921800	0.030800	0.997600
C391	C39	0.862200	0.798600	0.990400
H331	H33	0.863900	0.716800	0.003300
C401	C40	0.822800	0.852400	0.958500
H341	H34	0.797800	0.807100	0.948400
C411	C41	0.820500	0.975000	0.941400
H351	H35	0.794100	0.011900	0.919900
C421	C42	0.856600	0.170600	0.932600
Mo151	Mo15	0.293170	0.015000	0.828290
Mo161	Mo16	0.410510	0.022340	0.769890
O431	O43	0.252900	0.906800	0.841000
O441	O44	0.267000	0.135400	0.726500
O451	O45	0.300300	0.944600	0.553700
O461	O46	0.353900	0.064000	0.776100
O471	O47	0.410500	0.958800	0.552600
O481	O48	0.461400	0.924100	0.854900
N361	N36	0.398200	0.364900	0.002800
N371	N37	0.321600	0.738400	0.933000
N381	N38	0.335800	0.846500	0.887700
N391	N39	0.377200	0.842200	0.863600
N401	N40	0.391400	0.733100	0.887400
H361	H36	0.417100	0.707300	0.876500
C431	C43	0.357500	0.541500	0.956400
C441	C44	0.396600	0.486400	0.987300
H371	H37	0.421800	0.530800	0.997600
C451	C45	0.362200	0.298600	0.990400
H381	H38	0.363900	0.216800	0.003300
C461	C46	0.322800	0.352400	0.958500
H391	H39	0.297800	0.307100	0.948400
C471	C47	0.320500	0.475000	0.941400
H401	H40	0.294100	0.511900	0.919900
C481	C48	0.356600	0.670600	0.932600
Mo171	Mo17	0.000000	0.669330	0.250000
Mo181	Mo18	0.500000	0.169330	0.250000
Mo191	Mo19	0.000000	0.330670	0.750000
Mo201	Mo20	0.500000	0.830670	0.750000
Mn11	Mn1	0.750000	0.750000	0.500000
Mn21	Mn2	0.250000	0.750000	0.000000
Mn31	Mn3	0.250000	0.250000	0.500000
Mn41	Mn4	0.750000	0.250000	0.000000
