data_EBEMEF_clean_PM
_symmetry_space_group_name_H-M	'P1'
_cell_length_a	7.465300
_cell_length_b	7.465300
_cell_length_c	12.414200
_cell_angle_alpha	81.725700
_cell_angle_beta	81.725700
_cell_angle_gamma	64.273000
_symmetry_Int_Tables_number 1

loop_
_symmetry_equiv_pos_as_xyz
'x,y,z'

loop_
_atom_site_label
_atom_site_type_symbol
_atom_site_fract_x
_atom_site_fract_y
_atom_site_fract_z
Zn11	Zn1	0.123150	0.876850	0.250000
Zn21	Zn2	0.876850	0.123150	0.750000
Ni11	Ni1	0.000000	0.500000	0.000000
Ni21	Ni2	0.500000	0.000000	0.500000
C11	C1	0.040400	0.270400	0.093980
C21	C2	0.076500	0.607700	0.102100
C31	C3	0.729600	0.959600	0.406020
C41	C4	0.392300	0.923500	0.397900
C51	C5	0.959600	0.729600	0.906020
C61	C6	0.923500	0.392300	0.897900
C71	C7	0.270400	0.040400	0.593980
C81	C8	0.607700	0.076500	0.602100
N11	N1	0.067260	0.126460	0.150030
N21	N2	0.123150	0.678950	0.161780
N31	N3	0.873540	0.932740	0.349970
N41	N4	0.321050	0.876850	0.338220
N51	N5	0.932740	0.873540	0.849970
N61	N6	0.876850	0.321050	0.838220
N71	N7	0.126460	0.067260	0.650030
N81	N8	0.678950	0.123150	0.661780
