data_EBEXEQ01_clean_PM
_symmetry_space_group_name_H-M	'P1'
_cell_length_a	10.339000
_cell_length_b	10.339000
_cell_length_c	14.057000
_cell_angle_alpha	90.000000
_cell_angle_beta	90.000000
_cell_angle_gamma	90.000000
_symmetry_Int_Tables_number 1

loop_
_symmetry_equiv_pos_as_xyz
'x,y,z'

loop_
_atom_site_label
_atom_site_type_symbol
_atom_site_fract_x
_atom_site_fract_y
_atom_site_fract_z
Gd11	Gd1	0.871970	0.863500	0.833910
Gd21	Gd2	0.128030	0.136500	0.333910
Gd31	Gd3	0.136500	0.871970	0.083910
Gd41	Gd4	0.863500	0.128030	0.583910
H11	H1	0.115500	0.991600	0.697400
H21	H2	0.453300	0.903100	0.828200
H31	H3	0.452500	0.005800	0.548700
H41	H4	0.884500	0.008400	0.197400
H51	H5	0.546700	0.096900	0.328200
H61	H6	0.547500	0.994200	0.048700
H71	H7	0.008400	0.115500	0.947400
H81	H8	0.096900	0.453300	0.078200
H91	H9	0.994200	0.452500	0.798700
H101	H10	0.991600	0.884500	0.447400
H111	H11	0.903100	0.546700	0.578200
H121	H12	0.005800	0.547500	0.298700
C11	C1	0.201800	0.038200	0.521900
C21	C2	0.273300	0.001900	0.609500
C31	C3	0.206800	0.981200	0.694900
C41	C4	0.275000	0.945400	0.776000
C51	C5	0.407600	0.929800	0.772900
C61	C6	0.474500	0.953400	0.688300
C71	C7	0.407100	0.989600	0.606300
C81	C8	0.200900	0.923300	0.866700
C91	C9	0.620900	0.953700	0.690100
C101	C10	0.798200	0.961800	0.021900
C111	C11	0.726700	0.998100	0.109500
C121	C12	0.793200	0.018800	0.194900
C131	C13	0.725000	0.054600	0.276000
C141	C14	0.592400	0.070200	0.272900
C151	C15	0.525500	0.046600	0.188300
C161	C16	0.592900	0.010400	0.106300
C171	C17	0.799100	0.076700	0.366700
C181	C18	0.379100	0.046300	0.190100
C191	C19	0.961800	0.201800	0.771900
C201	C20	0.998100	0.273300	0.859500
C211	C21	0.018800	0.206800	0.944900
C221	C22	0.054600	0.275000	0.026000
C231	C23	0.070200	0.407600	0.022900
C241	C24	0.046600	0.474500	0.938300
C251	C25	0.010400	0.407100	0.856300
C261	C26	0.076700	0.200900	0.116700
C271	C27	0.046300	0.620900	0.940100
C281	C28	0.038200	0.798200	0.271900
C291	C29	0.001900	0.726700	0.359500
C301	C30	0.981200	0.793200	0.444900
C311	C31	0.945400	0.725000	0.526000
C321	C32	0.929800	0.592400	0.522900
C331	C33	0.953400	0.525500	0.438300
C341	C34	0.989600	0.592900	0.356300
C351	C35	0.923300	0.799100	0.616700
C361	C36	0.953700	0.379100	0.440100
O11	O1	0.252200	0.006800	0.441300
O21	O2	0.095800	0.101800	0.523140
O31	O3	0.079800	0.927800	0.864730
O41	O4	0.262200	0.905700	0.942310
O51	O5	0.676700	0.890900	0.755140
O61	O6	0.675300	0.018400	0.625680
O71	O7	0.747800	0.993200	0.941300
O81	O8	0.904200	0.898200	0.023140
O91	O9	0.920200	0.072200	0.364730
O101	O10	0.737800	0.094300	0.442310
O111	O11	0.323300	0.109100	0.255140
O121	O12	0.324700	0.981600	0.125680
O131	O13	0.993200	0.252200	0.691300
O141	O14	0.898200	0.095800	0.773140
O151	O15	0.072200	0.079800	0.114730
O161	O16	0.094300	0.262200	0.192310
O171	O17	0.109100	0.676700	0.005140
O181	O18	0.981600	0.675300	0.875680
O191	O19	0.006800	0.747800	0.191300
O201	O20	0.101800	0.904200	0.273140
O211	O21	0.927800	0.920200	0.614730
O221	O22	0.905700	0.737800	0.692310
O231	O23	0.890900	0.323300	0.505140
O241	O24	0.018400	0.324700	0.375680
