data_EBEXAM_clean_PM
_symmetry_space_group_name_H-M	'P1'
_cell_length_a	10.471000
_cell_length_b	10.471000
_cell_length_c	14.645000
_cell_angle_alpha	90.000000
_cell_angle_beta	90.000000
_cell_angle_gamma	90.000000
_symmetry_Int_Tables_number 1

loop_
_symmetry_equiv_pos_as_xyz
'x,y,z'

loop_
_atom_site_label
_atom_site_type_symbol
_atom_site_fract_x
_atom_site_fract_y
_atom_site_fract_z
Gd11	Gd1	0.142730	0.857270	0.875000
Gd21	Gd2	0.857270	0.142730	0.375000
Gd31	Gd3	0.142730	0.142730	0.625000
Gd41	Gd4	0.857270	0.857270	0.125000
H11	H1	0.064300	0.444000	0.869200
H21	H2	0.935700	0.556000	0.369200
H31	H3	0.556000	0.064300	0.619200
H41	H4	0.444000	0.935700	0.119200
H51	H5	0.935700	0.444000	0.130800
H61	H6	0.064300	0.556000	0.630800
H71	H7	0.444000	0.064300	0.380800
H81	H8	0.556000	0.935700	0.880800
H91	H9	0.000000	0.109500	0.000000
H101	H10	0.000000	0.890500	0.500000
H111	H11	0.890500	0.000000	0.750000
H121	H12	0.109500	0.000000	0.250000
C11	C1	0.075500	0.189700	0.836700
C21	C2	0.038400	0.399500	0.920900
C31	C3	0.037600	0.264900	0.920600
C41	C4	0.924500	0.810300	0.336700
C51	C5	0.961600	0.600500	0.420900
C61	C6	0.962400	0.735100	0.420600
C71	C7	0.810300	0.075500	0.586700
C81	C8	0.600500	0.038400	0.670900
C91	C9	0.735100	0.037600	0.670600
C101	C10	0.189700	0.924500	0.086700
C111	C11	0.399500	0.961600	0.170900
C121	C12	0.264900	0.962400	0.170600
C131	C13	0.924500	0.189700	0.163300
C141	C14	0.961600	0.399500	0.079100
C151	C15	0.962400	0.264900	0.079400
C161	C16	0.075500	0.810300	0.663300
C171	C17	0.038400	0.600500	0.579100
C181	C18	0.037600	0.735100	0.579400
C191	C19	0.189700	0.075500	0.413300
C201	C20	0.399500	0.038400	0.329100
C211	C21	0.264900	0.037600	0.329400
C221	C22	0.810300	0.924500	0.913300
C231	C23	0.600500	0.961600	0.829100
C241	C24	0.735100	0.962400	0.829400
C251	C25	0.000000	0.612700	0.000000
C261	C26	0.000000	0.466900	0.000000
C271	C27	0.000000	0.198300	0.000000
C281	C28	0.000000	0.387300	0.500000
C291	C29	0.000000	0.533100	0.500000
C301	C30	0.000000	0.801700	0.500000
C311	C31	0.387300	0.000000	0.750000
C321	C32	0.533100	0.000000	0.750000
C331	C33	0.801700	0.000000	0.750000
C341	C34	0.612700	0.000000	0.250000
C351	C35	0.466900	0.000000	0.250000
C361	C36	0.198300	0.000000	0.250000
O11	O1	0.068600	0.668200	0.940800
O21	O2	0.075700	0.247500	0.760700
O31	O3	0.102800	0.076200	0.843000
O41	O4	0.931400	0.331800	0.440800
O51	O5	0.924300	0.752500	0.260700
O61	O6	0.897200	0.923800	0.343000
O71	O7	0.331800	0.068600	0.690800
O81	O8	0.752500	0.075700	0.510700
O91	O9	0.923800	0.102800	0.593000
O101	O10	0.668200	0.931400	0.190800
O111	O11	0.247500	0.924300	0.010700
O121	O12	0.076200	0.897200	0.093000
O131	O13	0.931400	0.668200	0.059200
O141	O14	0.924300	0.247500	0.239300
O151	O15	0.897200	0.076200	0.157000
O161	O16	0.068600	0.331800	0.559200
O171	O17	0.075700	0.752500	0.739300
O181	O18	0.102800	0.923800	0.657000
O191	O19	0.668200	0.068600	0.309200
O201	O20	0.247500	0.075700	0.489300
O211	O21	0.076200	0.102800	0.407000
O221	O22	0.331800	0.931400	0.809200
O231	O23	0.752500	0.924300	0.989300
O241	O24	0.923800	0.897200	0.907000
