data_EBIPOX_clean_PM
_symmetry_space_group_name_H-M	'P1'
_cell_length_a	10.333200
_cell_length_b	11.763500
_cell_length_c	20.452400
_cell_angle_alpha	90.000000
_cell_angle_beta	90.000000
_cell_angle_gamma	90.000000
_symmetry_Int_Tables_number 1

loop_
_symmetry_equiv_pos_as_xyz
'x,y,z'

loop_
_atom_site_label
_atom_site_type_symbol
_atom_site_fract_x
_atom_site_fract_y
_atom_site_fract_z
Zn11	Zn1	0.450830	0.422330	0.009750
Zn21	Zn2	0.138420	0.324060	0.007500
O11	O1	0.336900	0.272600	0.003900
O21	O2	0.455400	0.118100	0.982500
O31	O3	0.116000	0.160000	0.990900
C11	C1	0.350600	0.169500	0.986500
C21	C2	0.227600	0.105300	0.966900
H11	H1	0.231400	0.026500	0.985200
C31	C3	0.223900	0.098300	0.892200
H21	H2	0.167900	0.035200	0.878800
H31	H3	0.311600	0.085500	0.875500
H41	H4	0.189900	0.169600	0.874400
O41	O4	0.367700	0.461500	0.093500
O51	O5	0.170600	0.380600	0.098100
C41	C4	0.266500	0.431500	0.122700
C51	C5	0.258400	0.461800	0.194000
C61	C6	0.176700	0.400100	0.235200
H51	H5	0.124700	0.340300	0.218400
C71	C7	0.172800	0.427700	0.301100
H61	H6	0.119000	0.384900	0.329600
C81	C8	0.245500	0.516000	0.326100
C91	C9	0.327000	0.575900	0.285100
H71	H7	0.379100	0.635500	0.302100
C101	C10	0.333000	0.549400	0.218900
H81	H8	0.388400	0.591400	0.190800
C111	C11	0.235600	0.548400	0.397800
O61	O6	0.130000	0.526500	0.425300
O71	O7	0.335000	0.590900	0.423500
Zn31	Zn3	0.049170	0.577670	0.509750
Zn41	Zn4	0.361580	0.675940	0.507500
O81	O8	0.163100	0.727400	0.503900
O91	O9	0.044600	0.881900	0.482500
O101	O10	0.384000	0.840000	0.490900
C121	C12	0.149400	0.830500	0.486500
C131	C13	0.272400	0.894700	0.466900
H91	H9	0.268600	0.973500	0.485200
C141	C14	0.276100	0.901700	0.392200
H101	H10	0.332100	0.964800	0.378800
H111	H11	0.188400	0.914500	0.375500
H121	H12	0.310100	0.830400	0.374400
O111	O11	0.132300	0.538500	0.593500
O121	O12	0.329400	0.619400	0.598100
C151	C15	0.233500	0.568500	0.622700
C161	C16	0.241600	0.538200	0.694000
C171	C17	0.323300	0.599900	0.735200
H131	H13	0.375300	0.659700	0.718400
C181	C18	0.327200	0.572300	0.801100
H141	H14	0.381000	0.615100	0.829600
C191	C19	0.254500	0.484000	0.826100
C201	C20	0.173000	0.424100	0.785100
H151	H15	0.120900	0.364500	0.802100
C211	C21	0.167000	0.450600	0.718900
H161	H16	0.111600	0.408600	0.690800
C221	C22	0.264400	0.451600	0.897800
O131	O13	0.370000	0.473500	0.925300
O141	O14	0.165000	0.409100	0.923500
Zn51	Zn5	0.549170	0.922330	0.490250
Zn61	Zn6	0.861580	0.824060	0.492500
O151	O15	0.663100	0.772600	0.496100
O161	O16	0.544600	0.618100	0.517500
O171	O17	0.884000	0.660000	0.509100
C231	C23	0.649400	0.669500	0.513500
C241	C24	0.772400	0.605300	0.533100
H171	H17	0.768600	0.526500	0.514800
C251	C25	0.776100	0.598300	0.607800
H181	H18	0.832100	0.535200	0.621200
H191	H19	0.688400	0.585500	0.624500
H201	H20	0.810100	0.669600	0.625600
O181	O18	0.632300	0.961500	0.406500
O191	O19	0.829400	0.880600	0.401900
C261	C26	0.733500	0.931500	0.377300
C271	C27	0.741600	0.961800	0.306000
C281	C28	0.823300	0.900100	0.264800
H211	H21	0.875300	0.840300	0.281600
C291	C29	0.827200	0.927700	0.198900
H221	H22	0.881000	0.884900	0.170400
C301	C30	0.754500	0.016000	0.173900
C311	C31	0.673000	0.075900	0.214900
H231	H23	0.620900	0.135500	0.197900
C321	C32	0.667000	0.049400	0.281100
H241	H24	0.611600	0.091400	0.309200
C331	C33	0.764400	0.048400	0.102200
O201	O20	0.870000	0.026500	0.074700
O211	O21	0.665000	0.090900	0.076500
Zn71	Zn7	0.950830	0.077670	0.990250
Zn81	Zn8	0.638420	0.175940	0.992500
O221	O22	0.836900	0.227400	0.996100
O231	O23	0.955400	0.381900	0.017500
O241	O24	0.616000	0.340000	0.009100
C341	C34	0.850600	0.330500	0.013500
C351	C35	0.727600	0.394700	0.033100
H251	H25	0.731400	0.473500	0.014800
C361	C36	0.723900	0.401700	0.107800
H261	H26	0.667900	0.464800	0.121200
H271	H27	0.811600	0.414500	0.124500
H281	H28	0.689900	0.330400	0.125600
O251	O25	0.867700	0.038500	0.906500
O261	O26	0.670600	0.119400	0.901900
C371	C37	0.766500	0.068500	0.877300
C381	C38	0.758400	0.038200	0.806000
C391	C39	0.676700	0.099900	0.764800
H291	H29	0.624700	0.159700	0.781600
C401	C40	0.672800	0.072300	0.698900
H301	H30	0.619000	0.115100	0.670400
C411	C41	0.745500	0.984000	0.673900
C421	C42	0.827000	0.924100	0.714900
H311	H31	0.879100	0.864500	0.697900
C431	C43	0.833000	0.950600	0.781100
H321	H32	0.888400	0.908600	0.809200
C441	C44	0.735600	0.951600	0.602200
O271	O27	0.630000	0.973500	0.574700
O281	O28	0.835000	0.909100	0.576500
