data_EBOBIJ_clean_PM
_symmetry_space_group_name_H-M	'P1'
_cell_length_a	8.897900
_cell_length_b	21.458700
_cell_length_c	13.485100
_cell_angle_alpha	90.000000
_cell_angle_beta	96.780400
_cell_angle_gamma	90.000000
_symmetry_Int_Tables_number 1

loop_
_symmetry_equiv_pos_as_xyz
'x,y,z'

loop_
_atom_site_label
_atom_site_type_symbol
_atom_site_fract_x
_atom_site_fract_y
_atom_site_fract_z
O11	O1	0.602800	0.705930	0.846320
O21	O2	0.707100	0.622980	0.921900
N11	N1	0.353300	0.594900	0.818180
C11	C1	0.687100	0.679050	0.916800
C21	C2	0.761000	0.720090	0.996700
H11	H1	0.828400	0.701600	0.046000
C31	C3	0.397700	0.541510	0.865200
H21	H2	0.495200	0.527000	0.861000
C41	C4	0.304100	0.507500	0.919300
H31	H3	0.338300	0.470600	0.950300
C51	C5	0.159800	0.528540	0.927400
C61	C6	0.114300	0.583220	0.878100
H41	H4	0.017800	0.599000	0.881900
C71	C7	0.212800	0.614100	0.823300
H51	H5	0.179200	0.649900	0.788600
C81	C8	0.067200	0.492300	0.990800
H61	H6	0.108400	0.455800	0.019400
O31	O3	0.102800	0.205930	0.846320
O41	O4	0.207100	0.122980	0.921900
N21	N2	0.853300	0.094900	0.818180
C91	C9	0.187100	0.179050	0.916800
C101	C10	0.261000	0.220090	0.996700
H71	H7	0.328400	0.201600	0.046000
C111	C11	0.897700	0.041510	0.865200
H81	H8	0.995200	0.027000	0.861000
C121	C12	0.804100	0.007500	0.919300
H91	H9	0.838300	0.970600	0.950300
C131	C13	0.659800	0.028540	0.927400
C141	C14	0.614300	0.083220	0.878100
H101	H10	0.517800	0.099000	0.881900
C151	C15	0.712800	0.114100	0.823300
H111	H11	0.679200	0.149900	0.788600
C161	C16	0.567200	0.992300	0.990800
H121	H12	0.608400	0.955800	0.019400
O51	O5	0.397200	0.705930	0.653680
O61	O6	0.292900	0.622980	0.578100
N31	N3	0.646700	0.594900	0.681820
C171	C17	0.312900	0.679050	0.583200
C181	C18	0.239000	0.720090	0.503300
H131	H13	0.171600	0.701600	0.454000
C191	C19	0.602300	0.541510	0.634800
H141	H14	0.504800	0.527000	0.639000
C201	C20	0.695900	0.507500	0.580700
H151	H15	0.661700	0.470600	0.549700
C211	C21	0.840200	0.528540	0.572600
C221	C22	0.885700	0.583220	0.621900
H161	H16	0.982200	0.599000	0.618100
C231	C23	0.787200	0.614100	0.676700
H171	H17	0.820800	0.649900	0.711400
C241	C24	0.932800	0.492300	0.509200
H181	H18	0.891600	0.455800	0.480600
O71	O7	0.897200	0.205930	0.653680
O81	O8	0.792900	0.122980	0.578100
N41	N4	0.146700	0.094900	0.681820
C251	C25	0.812900	0.179050	0.583200
C261	C26	0.739000	0.220090	0.503300
H191	H19	0.671600	0.201600	0.454000
C271	C27	0.102300	0.041510	0.634800
H201	H20	0.004800	0.027000	0.639000
C281	C28	0.195900	0.007500	0.580700
H211	H21	0.161700	0.970600	0.549700
C291	C29	0.340200	0.028540	0.572600
C301	C30	0.385700	0.083220	0.621900
H221	H22	0.482200	0.099000	0.618100
C311	C31	0.287200	0.114100	0.676700
H231	H23	0.320800	0.149900	0.711400
C321	C32	0.432800	0.992300	0.509200
H241	H24	0.391600	0.955800	0.480600
O91	O9	0.397200	0.294070	0.153680
O101	O10	0.292900	0.377020	0.078100
N51	N5	0.646700	0.405100	0.181820
C331	C33	0.312900	0.320950	0.083200
C341	C34	0.239000	0.279910	0.003300
H251	H25	0.171600	0.298400	0.954000
C351	C35	0.602300	0.458490	0.134800
H261	H26	0.504800	0.473000	0.139000
C361	C36	0.695900	0.492500	0.080700
H271	H27	0.661700	0.529400	0.049700
C371	C37	0.840200	0.471460	0.072600
C381	C38	0.885700	0.416780	0.121900
H281	H28	0.982200	0.401000	0.118100
C391	C39	0.787200	0.385900	0.176700
H291	H29	0.820800	0.350100	0.211400
C401	C40	0.932800	0.507700	0.009200
H301	H30	0.891600	0.544200	0.980600
O111	O11	0.897200	0.794070	0.153680
O121	O12	0.792900	0.877020	0.078100
N61	N6	0.146700	0.905100	0.181820
C411	C41	0.812900	0.820950	0.083200
C421	C42	0.739000	0.779910	0.003300
H311	H31	0.671600	0.798400	0.954000
C431	C43	0.102300	0.958490	0.134800
H321	H32	0.004800	0.973000	0.139000
C441	C44	0.195900	0.992500	0.080700
H331	H33	0.161700	0.029400	0.049700
C451	C45	0.340200	0.971460	0.072600
C461	C46	0.385700	0.916780	0.121900
H341	H34	0.482200	0.901000	0.118100
C471	C47	0.287200	0.885900	0.176700
H351	H35	0.320800	0.850100	0.211400
C481	C48	0.432800	0.007700	0.009200
H361	H36	0.391600	0.044200	0.980600
O131	O13	0.602800	0.294070	0.346320
O141	O14	0.707100	0.377020	0.421900
N71	N7	0.353300	0.405100	0.318180
C491	C49	0.687100	0.320950	0.416800
C501	C50	0.761000	0.279910	0.496700
H371	H37	0.828400	0.298400	0.546000
C511	C51	0.397700	0.458490	0.365200
H381	H38	0.495200	0.473000	0.361000
C521	C52	0.304100	0.492500	0.419300
H391	H39	0.338300	0.529400	0.450300
C531	C53	0.159800	0.471460	0.427400
C541	C54	0.114300	0.416780	0.378100
H401	H40	0.017800	0.401000	0.381900
C551	C55	0.212800	0.385900	0.323300
H411	H41	0.179200	0.350100	0.288600
C561	C56	0.067200	0.507700	0.490800
H421	H42	0.108400	0.544200	0.519400
O151	O15	0.102800	0.794070	0.346320
O161	O16	0.207100	0.877020	0.421900
N81	N8	0.853300	0.905100	0.318180
C571	C57	0.187100	0.820950	0.416800
C581	C58	0.261000	0.779910	0.496700
H431	H43	0.328400	0.798400	0.546000
C591	C59	0.897700	0.958490	0.365200
H441	H44	0.995200	0.973000	0.361000
C601	C60	0.804100	0.992500	0.419300
H451	H45	0.838300	0.029400	0.450300
C611	C61	0.659800	0.971460	0.427400
C621	C62	0.614300	0.916780	0.378100
H461	H46	0.517800	0.901000	0.381900
C631	C63	0.712800	0.885900	0.323300
H471	H47	0.679200	0.850100	0.288600
C641	C64	0.567200	0.007700	0.490800
H481	H48	0.608400	0.044200	0.519400
Zn11	Zn1	0.500000	0.647320	0.750000
Zn21	Zn2	0.000000	0.147320	0.750000
Zn31	Zn3	0.500000	0.352680	0.250000
Zn41	Zn4	0.000000	0.852680	0.250000
