data_EBUFUE_clean_PM
_symmetry_space_group_name_H-M	'P1'
_cell_length_a	16.839600
_cell_length_b	21.486300
_cell_length_c	21.486300
_cell_angle_alpha	81.166600
_cell_angle_beta	66.929200
_cell_angle_gamma	66.929100
_symmetry_Int_Tables_number 1

loop_
_symmetry_equiv_pos_as_xyz
'x,y,z'

loop_
_atom_site_label
_atom_site_type_symbol
_atom_site_fract_x
_atom_site_fract_y
_atom_site_fract_z
Co11	Co1	0.358140	0.242380	0.537980
Co21	Co2	0.638500	0.257620	0.962020
Co31	Co3	0.896120	0.462020	0.742380
Co41	Co4	0.600510	0.037990	0.757620
H11	H1	0.367600	0.141700	0.653300
H21	H2	0.299100	0.128800	0.766200
H31	H3	0.124900	0.319100	0.774700
H41	H4	0.199700	0.326100	0.660900
H51	H5	0.205200	0.132700	0.987700
H61	H6	0.276500	0.147200	0.874200
H71	H7	0.030300	0.276400	0.873000
H81	H8	0.970600	0.257700	0.987300
H91	H9	0.497700	0.150000	0.414200
H101	H10	0.551400	0.150300	0.298900
H111	H11	0.393300	0.344800	0.305800
H121	H12	0.345200	0.338800	0.420600
H131	H13	0.629300	0.540300	0.556300
H141	H14	0.751600	0.509300	0.593500
H151	H15	0.579500	0.500900	0.784500
H161	H16	0.457000	0.532000	0.747400
H171	H17	0.310700	0.560900	0.615700
H181	H18	0.286600	0.479700	0.573100
H191	H19	0.527100	0.341600	0.580000
H201	H20	0.551300	0.422700	0.622500
H211	H21	0.662600	0.358300	0.846700
H221	H22	0.694100	0.371200	0.733800
H231	H23	0.718700	0.180900	0.725300
H241	H24	0.686700	0.173900	0.839100
H251	H25	0.825600	0.367300	0.512300
H261	H26	0.797900	0.352800	0.625800
H271	H27	0.679700	0.223600	0.627000
H281	H28	0.715600	0.242300	0.512700
H291	H29	0.561900	0.350000	0.085800
H301	H30	0.500600	0.349700	0.201100
H311	H31	0.543900	0.155200	0.194200
H321	H32	0.604600	0.161200	0.079400
H331	H33	0.225900	0.959700	0.943700
H341	H34	0.354400	0.990700	0.906500
H351	H35	0.364900	0.999100	0.715500
H361	H36	0.236400	0.968000	0.752600
H371	H37	0.987300	0.939100	0.884300
H381	H38	0.839400	0.020300	0.926900
H391	H39	0.948700	0.158400	0.920000
H401	H40	0.096500	0.077300	0.877500
H411	H41	0.020900	0.346700	0.641700
H421	H42	0.065300	0.233800	0.628800
H431	H43	0.899600	0.225300	0.819100
H441	H44	0.860600	0.339100	0.826100
H451	H45	0.192900	0.012300	0.632700
H461	H46	0.150700	0.125800	0.647200
H471	H47	0.903300	0.127000	0.776400
H481	H48	0.957900	0.012700	0.757700
H491	H49	0.911900	0.585800	0.650000
H501	H50	0.850300	0.701100	0.650300
H511	H51	0.699100	0.694200	0.844800
H521	H52	0.765800	0.579400	0.838800
H531	H53	0.185600	0.443700	0.040300
H541	H54	0.345100	0.406500	0.009300
H551	H55	0.364000	0.215500	0.000900
H561	H56	0.204400	0.252600	0.032000
H571	H57	0.926400	0.384300	0.060900
H581	H58	0.859700	0.426900	0.979700
H591	H59	0.107100	0.420000	0.841600
H601	H60	0.173800	0.377500	0.922700
H611	H61	0.509300	0.153300	0.858300
H621	H62	0.427900	0.266200	0.871200
H631	H63	0.444000	0.274700	0.680900
H641	H64	0.525800	0.160900	0.673900
H651	H65	0.337900	0.487700	0.867300
H661	H66	0.423700	0.374200	0.852800
H671	H67	0.306700	0.373000	0.723600
H681	H68	0.228300	0.487300	0.742300
H691	H69	0.647700	0.914200	0.850000
H701	H70	0.701700	0.798900	0.849700
H711	H71	0.738100	0.805800	0.655200
H721	H72	0.684000	0.920600	0.661200
H731	H73	0.169600	0.056300	0.459700
H741	H74	0.260900	0.093500	0.490700
H751	H75	0.080400	0.284500	0.499100
H761	H76	0.989000	0.247400	0.468000
H771	H77	0.871600	0.115700	0.439100
H781	H78	0.766300	0.073100	0.520300
H791	H79	0.868700	0.080000	0.658400
H801	H80	0.974000	0.122500	0.577300
C11	C1	0.318050	0.178340	0.677960
C21	C2	0.277300	0.170280	0.746120
C31	C3	0.204460	0.222860	0.785020
C41	C4	0.175010	0.281850	0.751330
C51	C5	0.220510	0.285360	0.682420
C61	C6	0.169200	0.162200	0.964200
C71	C7	0.213130	0.170380	0.895560
C81	C8	0.160790	0.213950	0.859070
C91	C9	0.068740	0.246580	0.894540
C101	C10	0.033400	0.234300	0.963900
C111	C11	0.476810	0.190200	0.391980
C121	C12	0.509730	0.190070	0.322470
C131	C13	0.480980	0.248820	0.287820
C141	C14	0.417190	0.304210	0.326410
C151	C15	0.388040	0.299970	0.395750
C161	C16	0.379700	0.350700	0.555500
C171	C17	0.760400	0.484500	0.707700
C181	C18	0.531000	0.539300	0.648100
C191	C19	0.619300	0.532400	0.602000
C201	C20	0.692600	0.513800	0.624400
C211	C21	0.677700	0.501900	0.692700
C221	C22	0.589400	0.508800	0.738800
C231	C23	0.516100	0.527500	0.716500
C241	C24	0.433400	0.499900	0.623300
C251	C25	0.354100	0.516900	0.608500
C261	C26	0.339600	0.468300	0.583100
C271	C27	0.404400	0.402600	0.572400
C281	C28	0.483800	0.385500	0.587100
C291	C29	0.498200	0.434200	0.612600
C301	C30	0.674350	0.321660	0.822040
C311	C31	0.693700	0.329720	0.753880
C321	C32	0.712340	0.277140	0.714980
C331	C33	0.708190	0.218150	0.748670
C341	C34	0.688290	0.214640	0.817580
C351	C35	0.795600	0.337800	0.535800
C361	C36	0.779070	0.329620	0.604440
C371	C37	0.733810	0.286050	0.640930
C381	C38	0.709860	0.253420	0.605460
C391	C39	0.731600	0.265700	0.536100
C401	C40	0.558990	0.309800	0.108020
C411	C41	0.522270	0.309930	0.177530
C421	C42	0.517620	0.251180	0.212180
C431	C43	0.547810	0.195790	0.173590
C441	C44	0.583760	0.200030	0.104250
C451	C45	0.785900	0.149300	0.944500
C461	C46	0.452600	0.015500	0.792300
C471	C47	0.218400	0.960700	0.851900
C481	C48	0.253700	0.967600	0.898000
C491	C49	0.330800	0.986200	0.875600
C501	C50	0.372300	0.998100	0.807300
C511	C51	0.337000	0.991200	0.761200
C521	C52	0.260100	0.972500	0.783500
C531	C53	0.056600	0.000100	0.876700
C541	C54	0.979500	0.983100	0.891500
C551	C55	0.891000	0.031700	0.916900
C561	C56	0.879400	0.097400	0.927600
C571	C57	0.956400	0.114500	0.912900
C581	C58	0.045000	0.065800	0.887400
C591	C59	0.996010	0.322040	0.678340
C601	C60	0.023420	0.253880	0.670280
C611	C61	0.989480	0.214980	0.722860
C621	C62	0.926340	0.248670	0.781850
C631	C63	0.902930	0.317580	0.785360
C641	C64	0.133400	0.035800	0.662200
C651	C65	0.108690	0.104440	0.670380
C661	C66	0.019860	0.140930	0.713950
C671	C67	0.963280	0.105460	0.746580
C681	C68	0.997300	0.036100	0.734300
C691	C69	0.868790	0.608020	0.690200
C701	C70	0.832200	0.677530	0.690070
C711	C71	0.768800	0.712180	0.748820
C721	C72	0.743600	0.673590	0.804210
C731	C73	0.783790	0.604250	0.799970
C741	C74	0.935200	0.444500	0.850700
C751	C75	0.468100	0.292300	0.984500
C761	C76	0.179100	0.351900	0.039300
C771	C77	0.221300	0.398000	0.032400
C781	C78	0.317000	0.375600	0.013800
C791	C79	0.370400	0.307300	0.001900
C801	C80	0.328200	0.261200	0.008800
C811	C81	0.232600	0.283500	0.027500
C821	C82	0.056700	0.376700	0.999900
C831	C83	0.962600	0.391500	0.016900
C841	C84	0.922700	0.416900	0.968300
C851	C85	0.976800	0.427600	0.902600
C861	C86	0.070900	0.412900	0.885500
C871	C87	0.110800	0.387400	0.934200
C881	C88	0.496390	0.177960	0.821660
C891	C89	0.447580	0.246120	0.829720
C901	C90	0.427320	0.285020	0.777140
C911	C91	0.456860	0.251330	0.718150
C921	C92	0.505870	0.182420	0.714640
C931	C93	0.331400	0.464200	0.837800
C941	C94	0.383510	0.395560	0.829620
C951	C95	0.374740	0.359070	0.786050
C961	C96	0.315320	0.394540	0.753420
C971	C97	0.267700	0.463900	0.765700
C981	C98	0.667010	0.891980	0.809800
C991	C99	0.699800	0.822470	0.809930
C1001	C100	0.729800	0.787820	0.751180
C1011	C101	0.721400	0.826410	0.695790
C1021	C102	0.688010	0.895750	0.700030
C1031	C103	0.730400	0.055500	0.649300
C1041	C104	0.244900	0.207700	0.515500
C1051	C105	0.070300	0.148100	0.460700
C1061	C106	0.151700	0.102000	0.467600
C1071	C107	0.206400	0.124400	0.486200
C1081	C108	0.179600	0.192700	0.498100
C1091	C109	0.098200	0.238800	0.491200
C1101	C110	0.043600	0.216500	0.472500
C1111	C111	0.933300	0.123300	0.500100
C1121	C112	0.871000	0.108500	0.483100
C1131	C113	0.807900	0.083100	0.531700
C1141	C114	0.807000	0.072400	0.597400
C1151	C115	0.869300	0.087100	0.614500
C1161	C116	0.932400	0.112600	0.565800
N11	N1	0.291080	0.235300	0.645140
N21	N2	0.080800	0.192800	0.998600
N31	N3	0.416580	0.245050	0.428990
N41	N4	0.671520	0.264700	0.854860
N51	N5	0.772200	0.307200	0.501400
N61	N6	0.590620	0.254950	0.071010
N71	N7	0.936220	0.354860	0.735300
N81	N8	0.079400	0.001400	0.692800
N91	N9	0.845570	0.571010	0.745050
N101	N10	0.526380	0.145140	0.764700
N111	N11	0.273600	0.498600	0.807200
N121	N12	0.661630	0.928990	0.754950
O11	O1	0.434800	0.287600	0.550400
O21	O2	0.308100	0.360000	0.546200
O31	O3	0.759500	0.473300	0.766500
O41	O4	0.845700	0.473570	0.660630
O51	O5	0.442000	0.548700	0.649700
O61	O6	0.772800	0.212400	0.949600
O71	O7	0.714300	0.140000	0.953800
O81	O8	0.499300	0.026700	0.733500
O91	O9	0.479900	0.026430	0.839370
O101	O10	0.140400	0.951300	0.850300
O111	O11	0.985200	0.449600	0.787600
O121	O12	0.854300	0.453800	0.860000
O131	O13	0.526000	0.233500	0.973300
O141	O14	0.506330	0.339370	0.973570
O151	O15	0.091700	0.350300	0.048700
O161	O16	0.722400	0.050400	0.712400
O171	O17	0.668100	0.046200	0.640000
O181	O18	0.232800	0.266500	0.526700
O191	O19	0.319270	0.160630	0.526430
O201	O20	0.990700	0.149700	0.451300
Co51	Co5	0.641860	0.757620	0.462020
Co61	Co6	0.361500	0.742380	0.037980
Co71	Co7	0.103870	0.537990	0.257620
Co81	Co8	0.399490	0.962010	0.242380
H811	H81	0.632400	0.858300	0.346700
H821	H82	0.700900	0.871200	0.233800
H831	H83	0.875100	0.680900	0.225300
H841	H84	0.800300	0.673900	0.339100
H851	H85	0.794800	0.867300	0.012300
H861	H86	0.723500	0.852800	0.125800
H871	H87	0.969700	0.723600	0.127000
H881	H88	0.029400	0.742300	0.012700
H891	H89	0.502300	0.850000	0.585800
H901	H90	0.448600	0.849700	0.701100
H911	H91	0.606700	0.655200	0.694200
H921	H92	0.654800	0.661200	0.579400
H931	H93	0.370700	0.459700	0.443700
H941	H94	0.248400	0.490700	0.406500
H951	H95	0.420500	0.499100	0.215500
H961	H96	0.543000	0.468000	0.252600
H971	H97	0.689300	0.439100	0.384300
H981	H98	0.713400	0.520300	0.426900
H991	H99	0.472900	0.658400	0.420000
H1001	H100	0.448700	0.577300	0.377500
H1011	H101	0.337400	0.641700	0.153300
H1021	H102	0.305900	0.628800	0.266200
H1031	H103	0.281300	0.819100	0.274700
H1041	H104	0.313300	0.826100	0.160900
H1051	H105	0.174400	0.632700	0.487700
H1061	H106	0.202100	0.647200	0.374200
H1071	H107	0.320300	0.776400	0.373000
H1081	H108	0.284400	0.757700	0.487300
H1091	H109	0.438100	0.650000	0.914200
H1101	H110	0.499400	0.650300	0.798900
H1111	H111	0.456100	0.844800	0.805800
H1121	H112	0.395400	0.838800	0.920600
H1131	H113	0.774100	0.040300	0.056300
H1141	H114	0.645600	0.009300	0.093500
H1151	H115	0.635100	0.000900	0.284500
H1161	H116	0.763600	0.032000	0.247400
H1171	H117	0.012700	0.060900	0.115700
H1181	H118	0.160600	0.979700	0.073100
H1191	H119	0.051300	0.841600	0.080000
H1201	H120	0.903500	0.922700	0.122500
H1211	H121	0.979100	0.653300	0.358300
H1221	H122	0.934700	0.766200	0.371200
H1231	H123	0.100400	0.774700	0.180900
H1241	H124	0.139400	0.660900	0.173900
H1251	H125	0.807100	0.987700	0.367300
H1261	H126	0.849300	0.874200	0.352800
H1271	H127	0.096700	0.873000	0.223600
H1281	H128	0.042100	0.987300	0.242300
H1291	H129	0.088100	0.414200	0.350000
H1301	H130	0.149700	0.298900	0.349700
H1311	H131	0.300900	0.305800	0.155200
H1321	H132	0.234200	0.420600	0.161200
H1331	H133	0.814400	0.556300	0.959700
H1341	H134	0.654900	0.593500	0.990700
H1351	H135	0.636000	0.784500	0.999100
H1361	H136	0.795600	0.747400	0.968000
H1371	H137	0.073600	0.615700	0.939100
H1381	H138	0.140300	0.573100	0.020300
H1391	H139	0.892900	0.580000	0.158400
H1401	H140	0.826200	0.622500	0.077300
H1411	H141	0.490700	0.846700	0.141700
H1421	H142	0.572100	0.733800	0.128800
H1431	H143	0.556000	0.725300	0.319100
H1441	H144	0.474200	0.839100	0.326100
H1451	H145	0.662100	0.512300	0.132700
H1461	H146	0.576300	0.625800	0.147200
H1471	H147	0.693300	0.627000	0.276400
H1481	H148	0.771700	0.512700	0.257700
H1491	H149	0.352300	0.085800	0.150000
H1501	H150	0.298300	0.201100	0.150300
H1511	H151	0.261900	0.194200	0.344800
H1521	H152	0.316000	0.079400	0.338800
H1531	H153	0.830400	0.943700	0.540300
H1541	H154	0.739100	0.906500	0.509300
H1551	H155	0.919600	0.715500	0.500900
H1561	H156	0.011000	0.752600	0.532000
H1571	H157	0.128400	0.884300	0.560900
H1581	H158	0.233700	0.926900	0.479700
H1591	H159	0.131300	0.920000	0.341600
H1601	H160	0.026000	0.877500	0.422700
C1171	C117	0.681950	0.821660	0.322040
C1181	C118	0.722700	0.829720	0.253880
C1191	C119	0.795540	0.777140	0.214980
C1201	C120	0.824990	0.718150	0.248670
C1211	C121	0.779490	0.714640	0.317580
C1221	C122	0.830800	0.837800	0.035800
C1231	C123	0.786870	0.829620	0.104440
C1241	C124	0.839210	0.786050	0.140930
C1251	C125	0.931260	0.753420	0.105460
C1261	C126	0.966600	0.765700	0.036100
C1271	C127	0.523190	0.809800	0.608020
C1281	C128	0.490270	0.809930	0.677530
C1291	C129	0.519020	0.751180	0.712180
C1301	C130	0.582810	0.695790	0.673590
C1311	C131	0.611960	0.700030	0.604250
C1321	C132	0.620300	0.649300	0.444500
C1331	C133	0.239600	0.515500	0.292300
C1341	C134	0.469000	0.460700	0.351900
C1351	C135	0.380700	0.467600	0.398000
C1361	C136	0.307400	0.486200	0.375600
C1371	C137	0.322300	0.498100	0.307300
C1381	C138	0.410600	0.491200	0.261200
C1391	C139	0.483900	0.472500	0.283500
C1401	C140	0.566600	0.500100	0.376700
C1411	C141	0.645900	0.483100	0.391500
C1421	C142	0.660400	0.531700	0.416900
C1431	C143	0.595600	0.597400	0.427600
C1441	C144	0.516200	0.614500	0.412900
C1451	C145	0.501800	0.565800	0.387400
C1461	C146	0.325650	0.678340	0.177960
C1471	C147	0.306300	0.670280	0.246120
C1481	C148	0.287660	0.722860	0.285020
C1491	C149	0.291810	0.781850	0.251330
C1501	C150	0.311710	0.785360	0.182420
C1511	C151	0.204400	0.662200	0.464200
C1521	C152	0.220930	0.670380	0.395560
C1531	C153	0.266190	0.713950	0.359070
C1541	C154	0.290140	0.746580	0.394540
C1551	C155	0.268400	0.734300	0.463900
C1561	C156	0.441010	0.690200	0.891980
C1571	C157	0.477730	0.690070	0.822470
C1581	C158	0.482380	0.748820	0.787820
C1591	C159	0.452190	0.804210	0.826410
C1601	C160	0.416240	0.799970	0.895750
C1611	C161	0.214100	0.850700	0.055500
C1621	C162	0.547400	0.984500	0.207700
C1631	C163	0.781600	0.039300	0.148100
C1641	C164	0.746300	0.032400	0.102000
C1651	C165	0.669200	0.013800	0.124400
C1661	C166	0.627700	0.001900	0.192700
C1671	C167	0.663000	0.008800	0.238800
C1681	C168	0.739900	0.027500	0.216500
C1691	C169	0.943400	0.999900	0.123300
C1701	C170	0.020500	0.016900	0.108500
C1711	C171	0.109000	0.968300	0.083100
C1721	C172	0.120600	0.902600	0.072400
C1731	C173	0.043600	0.885500	0.087100
C1741	C174	0.955000	0.934200	0.112600
C1751	C175	0.003990	0.677960	0.321660
C1761	C176	0.976580	0.746120	0.329720
C1771	C177	0.010520	0.785020	0.277140
C1781	C178	0.073660	0.751330	0.218150
C1791	C179	0.097070	0.682420	0.214640
C1801	C180	0.866600	0.964200	0.337800
C1811	C181	0.891310	0.895560	0.329620
C1821	C182	0.980140	0.859070	0.286050
C1831	C183	0.036720	0.894540	0.253420
C1841	C184	0.002700	0.963900	0.265700
C1851	C185	0.131210	0.391980	0.309800
C1861	C186	0.167800	0.322470	0.309930
C1871	C187	0.231200	0.287820	0.251180
C1881	C188	0.256400	0.326410	0.195790
C1891	C189	0.216210	0.395750	0.200030
C1901	C190	0.064800	0.555500	0.149300
C1911	C191	0.531900	0.707700	0.015500
C1921	C192	0.820900	0.648100	0.960700
C1931	C193	0.778700	0.602000	0.967600
C1941	C194	0.683000	0.624400	0.986200
C1951	C195	0.629600	0.692700	0.998100
C1961	C196	0.671800	0.738800	0.991200
C1971	C197	0.767400	0.716500	0.972500
C1981	C198	0.943300	0.623300	0.000100
C1991	C199	0.037400	0.608500	0.983100
C2001	C200	0.077300	0.583100	0.031700
C2011	C201	0.023200	0.572400	0.097400
C2021	C202	0.929100	0.587100	0.114500
C2031	C203	0.889200	0.612600	0.065800
C2041	C204	0.503610	0.822040	0.178340
C2051	C205	0.552420	0.753880	0.170280
C2061	C206	0.572680	0.714980	0.222860
C2071	C207	0.543140	0.748670	0.281850
C2081	C208	0.494130	0.817580	0.285360
C2091	C209	0.668600	0.535800	0.162200
C2101	C210	0.616490	0.604440	0.170380
C2111	C211	0.625260	0.640930	0.213950
C2121	C212	0.684680	0.605460	0.246580
C2131	C213	0.732300	0.536100	0.234300
C2141	C214	0.332990	0.108020	0.190200
C2151	C215	0.300200	0.177530	0.190070
C2161	C216	0.270200	0.212180	0.248820
C2171	C217	0.278600	0.173590	0.304210
C2181	C218	0.311990	0.104250	0.299970
C2191	C219	0.269600	0.944500	0.350700
C2201	C220	0.755100	0.792300	0.484500
C2211	C221	0.929700	0.851900	0.539300
C2221	C222	0.848300	0.898000	0.532400
C2231	C223	0.793600	0.875600	0.513800
C2241	C224	0.820400	0.807300	0.501900
C2251	C225	0.901800	0.761200	0.508800
C2261	C226	0.956400	0.783500	0.527500
C2271	C227	0.066700	0.876700	0.499900
C2281	C228	0.129000	0.891500	0.516900
C2291	C229	0.192100	0.916900	0.468300
C2301	C230	0.193000	0.927600	0.402600
C2311	C231	0.130700	0.912900	0.385500
C2321	C232	0.067600	0.887400	0.434200
N131	N13	0.708920	0.764700	0.354860
N141	N14	0.919200	0.807200	0.001400
N151	N15	0.583420	0.754950	0.571010
N161	N16	0.328480	0.735300	0.145140
N171	N17	0.227800	0.692800	0.498600
N181	N18	0.409380	0.745050	0.928990
N191	N19	0.063780	0.645140	0.264700
N201	N20	0.920600	0.998600	0.307200
N211	N21	0.154430	0.428990	0.254950
N221	N22	0.473620	0.854860	0.235300
N231	N23	0.726400	0.501400	0.192800
N241	N24	0.338370	0.071010	0.245050
O211	O21	0.565200	0.712400	0.449600
O221	O22	0.691900	0.640000	0.453800
O231	O23	0.240500	0.526700	0.233500
O241	O24	0.154300	0.526430	0.339370
O251	O25	0.558000	0.451300	0.350300
O261	O26	0.227200	0.787600	0.050400
O271	O27	0.285700	0.860000	0.046200
O281	O28	0.500700	0.973300	0.266500
O291	O29	0.520100	0.973570	0.160630
O301	O30	0.859600	0.048700	0.149700
O311	O31	0.014800	0.550400	0.212400
O321	O32	0.145700	0.546200	0.140000
O331	O33	0.474000	0.766500	0.026700
O341	O34	0.493670	0.660630	0.026430
O351	O35	0.908300	0.649700	0.951300
O361	O36	0.277600	0.949600	0.287600
O371	O37	0.331900	0.953800	0.360000
O381	O38	0.767200	0.733500	0.473300
O391	O39	0.680730	0.839370	0.473570
O401	O40	0.009300	0.850300	0.548700
