data_EBUQEX_clean_PM
_symmetry_space_group_name_H-M	'P1'
_cell_length_a	16.266800
_cell_length_b	16.266800
_cell_length_c	24.016000
_cell_angle_alpha	91.313600
_cell_angle_beta	91.313600
_cell_angle_gamma	107.353000
_symmetry_Int_Tables_number 1

loop_
_symmetry_equiv_pos_as_xyz
'x,y,z'

loop_
_atom_site_label
_atom_site_type_symbol
_atom_site_fract_x
_atom_site_fract_y
_atom_site_fract_z
Na11	Na1	0.932880	0.074300	0.009950
Na21	Na2	0.925700	0.067120	0.490050
Na31	Na3	0.067120	0.925700	0.990050
Na41	Na4	0.074300	0.932880	0.509950
H11	H1	0.459500	0.354500	0.848700
H21	H2	0.462200	0.492400	0.895400
H31	H3	0.777700	0.550700	0.937600
H41	H4	0.771000	0.406800	0.901700
H51	H5	0.516200	0.136000	0.818100
H61	H6	0.373000	0.122600	0.778100
H71	H7	0.175900	0.334300	0.762300
H81	H8	0.174200	0.464800	0.815000
H91	H9	0.389400	0.679400	0.961800
H101	H10	0.540700	0.703900	0.989100
H111	H11	0.666000	0.618600	0.051300
H121	H12	0.771200	0.731800	0.093300
H131	H13	0.834400	0.831600	0.944600
H141	H14	0.727200	0.719800	0.902900
H151	H15	0.934200	0.913200	0.121400
H161	H16	0.670200	0.225400	0.785500
H171	H17	0.767800	0.147600	0.790700
H181	H18	0.778300	0.174300	0.956900
H191	H19	0.682100	0.252900	0.952100
H201	H20	0.917700	0.058100	0.835700
H211	H21	0.150200	0.185800	0.801500
H221	H22	0.051400	0.091200	0.742000
H231	H23	0.236200	0.102400	0.633000
H241	H24	0.334400	0.199800	0.691100
H251	H25	0.217000	0.546200	0.972900
H261	H26	0.134500	0.637100	0.988700
H271	H27	0.183200	0.727800	0.836500
H281	H28	0.270900	0.641900	0.822100
H291	H29	0.052200	0.827600	0.884800
H301	H30	0.645500	0.540500	0.651300
H311	H31	0.507600	0.537800	0.604600
H321	H32	0.449300	0.222300	0.562400
H331	H33	0.593200	0.229000	0.598300
H341	H34	0.864000	0.483800	0.681900
H351	H35	0.877400	0.627000	0.721900
H361	H36	0.665700	0.824100	0.737700
H371	H37	0.535200	0.825800	0.685000
H381	H38	0.320600	0.610600	0.538200
H391	H39	0.296100	0.459300	0.510900
H401	H40	0.381400	0.334000	0.448700
H411	H41	0.268200	0.228800	0.406700
H421	H42	0.168400	0.165600	0.555400
H431	H43	0.280200	0.272800	0.597100
H441	H44	0.086800	0.065800	0.378600
H451	H45	0.774600	0.329800	0.714500
H461	H46	0.852400	0.232200	0.709300
H471	H47	0.825700	0.221700	0.543100
H481	H48	0.747100	0.317900	0.547900
H491	H49	0.941900	0.082300	0.664300
H501	H50	0.814200	0.849800	0.698500
H511	H51	0.908800	0.948600	0.758000
H521	H52	0.897600	0.763800	0.867000
H531	H53	0.800200	0.665600	0.808900
H541	H54	0.453800	0.783000	0.527100
H551	H55	0.362900	0.865500	0.511300
H561	H56	0.272200	0.816800	0.663500
H571	H57	0.358100	0.729100	0.677900
H581	H58	0.172400	0.947800	0.615200
H591	H59	0.540500	0.645500	0.151300
H601	H60	0.537800	0.507600	0.104600
H611	H61	0.222300	0.449300	0.062400
H621	H62	0.229000	0.593200	0.098300
H631	H63	0.483800	0.864000	0.181900
H641	H64	0.627000	0.877400	0.221900
H651	H65	0.824100	0.665700	0.237700
H661	H66	0.825800	0.535200	0.185000
H671	H67	0.610600	0.320600	0.038200
H681	H68	0.459300	0.296100	0.010900
H691	H69	0.334000	0.381400	0.948700
H701	H70	0.228800	0.268200	0.906700
H711	H71	0.165600	0.168400	0.055400
H721	H72	0.272800	0.280200	0.097100
H731	H73	0.065800	0.086800	0.878600
H741	H74	0.329800	0.774600	0.214500
H751	H75	0.232200	0.852400	0.209300
H761	H76	0.221700	0.825700	0.043100
H771	H77	0.317900	0.747100	0.047900
H781	H78	0.082300	0.941900	0.164300
H791	H79	0.849800	0.814200	0.198500
H801	H80	0.948600	0.908800	0.258000
H811	H81	0.763800	0.897600	0.367000
H821	H82	0.665600	0.800200	0.308900
H831	H83	0.783000	0.453800	0.027100
H841	H84	0.865500	0.362900	0.011300
H851	H85	0.816800	0.272200	0.163500
H861	H86	0.729100	0.358100	0.177900
H871	H87	0.947800	0.172400	0.115200
H881	H88	0.354500	0.459500	0.348700
H891	H89	0.492400	0.462200	0.395400
H901	H90	0.550700	0.777700	0.437600
H911	H91	0.406800	0.771000	0.401700
H921	H92	0.136000	0.516200	0.318100
H931	H93	0.122600	0.373000	0.278100
H941	H94	0.334300	0.175900	0.262300
H951	H95	0.464800	0.174200	0.315000
H961	H96	0.679400	0.389400	0.461800
H971	H97	0.703900	0.540700	0.489100
H981	H98	0.618600	0.666000	0.551300
H991	H99	0.731800	0.771200	0.593300
H1001	H100	0.831600	0.834400	0.444600
H1011	H101	0.719800	0.727200	0.402900
H1021	H102	0.913200	0.934200	0.621400
H1031	H103	0.225400	0.670200	0.285500
H1041	H104	0.147600	0.767800	0.290700
H1051	H105	0.174300	0.778300	0.456900
H1061	H106	0.252900	0.682100	0.452100
H1071	H107	0.058100	0.917700	0.335700
H1081	H108	0.185800	0.150200	0.301500
H1091	H109	0.091200	0.051400	0.242000
H1101	H110	0.102400	0.236200	0.133000
H1111	H111	0.199800	0.334400	0.191100
H1121	H112	0.546200	0.217000	0.472900
H1131	H113	0.637100	0.134500	0.488700
H1141	H114	0.727800	0.183200	0.336500
H1151	H115	0.641900	0.270900	0.322100
H1161	H116	0.827600	0.052200	0.384800
C11	C1	0.533830	0.589030	0.943530
C21	C2	0.617290	0.582950	0.945010
C31	C3	0.642170	0.514350	0.923370
C41	C4	0.728320	0.507980	0.924990
C51	C5	0.724810	0.428930	0.904920
C61	C6	0.635420	0.384880	0.889310
C71	C7	0.604350	0.300830	0.866790
C81	C8	0.522110	0.263970	0.843080
C91	C9	0.488570	0.178430	0.818590
C101	C10	0.409420	0.171280	0.796480
C111	C11	0.390970	0.251210	0.806140
C121	C12	0.315710	0.270030	0.789380
C131	C13	0.294780	0.344560	0.805390
C141	C14	0.217520	0.365220	0.788350
C151	C15	0.216650	0.437310	0.817040
C161	C16	0.294490	0.463450	0.851550
C171	C17	0.317180	0.534780	0.889080
C181	C18	0.395930	0.566450	0.918570
C191	C19	0.423140	0.644460	0.952130
C201	C20	0.506700	0.657920	0.967190
C211	C21	0.685930	0.656590	0.972070
C221	C22	0.699930	0.661510	0.029530
C231	C23	0.763290	0.729090	0.054740
C241	C24	0.815030	0.792790	0.023080
C251	C25	0.800550	0.788630	0.966390
C261	C26	0.736310	0.721250	0.941310
C271	C27	0.882760	0.867400	0.048470
C281	C28	0.664950	0.247050	0.868390
C291	C29	0.691770	0.215330	0.820080
C301	C30	0.750440	0.168880	0.823200
C311	C31	0.783750	0.153690	0.874360
C321	C32	0.757080	0.184820	0.922430
C331	C33	0.698910	0.231470	0.919410
C341	C34	0.848070	0.105350	0.879100
C351	C35	0.252940	0.205360	0.752250
C361	C36	0.167620	0.170360	0.767250
C371	C37	0.108450	0.112810	0.731690
C381	C38	0.132960	0.087300	0.681430
C391	C39	0.218560	0.119960	0.666590
C401	C40	0.277510	0.178310	0.701600
C411	C41	0.069250	0.023330	0.643110
C421	C42	0.255400	0.585740	0.896560
C431	C43	0.211940	0.584080	0.945530
C441	C44	0.161090	0.637630	0.954730
C451	C45	0.149870	0.690970	0.914240
C461	C46	0.190890	0.691950	0.864430
C471	C47	0.243350	0.640150	0.855760
C481	C48	0.097390	0.750490	0.924260
C491	C49	0.410970	0.466170	0.556470
C501	C50	0.417050	0.382710	0.554990
C511	C51	0.485650	0.357830	0.576630
C521	C52	0.492020	0.271680	0.575010
C531	C53	0.571070	0.275190	0.595080
C541	C54	0.615120	0.364580	0.610690
C551	C55	0.699170	0.395650	0.633210
C561	C56	0.736030	0.477890	0.656920
C571	C57	0.821570	0.511430	0.681410
C581	C58	0.828720	0.590580	0.703520
C591	C59	0.748790	0.609030	0.693860
C601	C60	0.729970	0.684290	0.710620
C611	C61	0.655440	0.705220	0.694610
C621	C62	0.634780	0.782480	0.711650
C631	C63	0.562690	0.783350	0.682960
C641	C64	0.536550	0.705510	0.648450
C651	C65	0.465220	0.682820	0.610920
C661	C66	0.433550	0.604070	0.581430
C671	C67	0.355540	0.576860	0.547870
C681	C68	0.342080	0.493300	0.532810
C691	C69	0.343410	0.314070	0.527930
C701	C70	0.338490	0.300070	0.470470
C711	C71	0.270910	0.236710	0.445260
C721	C72	0.207210	0.184970	0.476920
C731	C73	0.211370	0.199450	0.533610
C741	C74	0.278750	0.263690	0.558690
C751	C75	0.132600	0.117240	0.451530
C761	C76	0.752950	0.335050	0.631610
C771	C77	0.784670	0.308230	0.679920
C781	C78	0.831120	0.249560	0.676800
C791	C79	0.846310	0.216250	0.625640
C801	C80	0.815180	0.242920	0.577570
C811	C81	0.768530	0.301090	0.580590
C821	C82	0.894650	0.151930	0.620900
C831	C83	0.794640	0.747060	0.747750
C841	C84	0.829640	0.832380	0.732750
C851	C85	0.887190	0.891550	0.768310
C861	C86	0.912700	0.867040	0.818570
C871	C87	0.880040	0.781440	0.833410
C881	C88	0.821690	0.722490	0.798400
C891	C89	0.976670	0.930750	0.856890
C901	C90	0.414260	0.744600	0.603440
C911	C91	0.415920	0.788060	0.554470
C921	C92	0.362370	0.838910	0.545270
C931	C93	0.309030	0.850130	0.585760
C941	C94	0.308050	0.809110	0.635570
C951	C95	0.359850	0.756650	0.644240
C961	C96	0.249510	0.902610	0.575740
C971	C97	0.466170	0.410970	0.056470
C981	C98	0.382710	0.417050	0.054990
C991	C99	0.357830	0.485650	0.076630
C1001	C100	0.271680	0.492020	0.075010
C1011	C101	0.275190	0.571070	0.095080
C1021	C102	0.364580	0.615120	0.110690
C1031	C103	0.395650	0.699170	0.133210
C1041	C104	0.477890	0.736030	0.156920
C1051	C105	0.511430	0.821570	0.181410
C1061	C106	0.590580	0.828720	0.203520
C1071	C107	0.609030	0.748790	0.193860
C1081	C108	0.684290	0.729970	0.210620
C1091	C109	0.705220	0.655440	0.194610
C1101	C110	0.782480	0.634780	0.211650
C1111	C111	0.783350	0.562690	0.182960
C1121	C112	0.705510	0.536550	0.148450
C1131	C113	0.682820	0.465220	0.110920
C1141	C114	0.604070	0.433550	0.081430
C1151	C115	0.576860	0.355540	0.047870
C1161	C116	0.493300	0.342080	0.032810
C1171	C117	0.314070	0.343410	0.027930
C1181	C118	0.300070	0.338490	0.970470
C1191	C119	0.236710	0.270910	0.945260
C1201	C120	0.184970	0.207210	0.976920
C1211	C121	0.199450	0.211370	0.033610
C1221	C122	0.263690	0.278750	0.058690
C1231	C123	0.117240	0.132600	0.951530
C1241	C124	0.335050	0.752950	0.131610
C1251	C125	0.308230	0.784670	0.179920
C1261	C126	0.249560	0.831120	0.176800
C1271	C127	0.216250	0.846310	0.125640
C1281	C128	0.242920	0.815180	0.077570
C1291	C129	0.301090	0.768530	0.080590
C1301	C130	0.151930	0.894650	0.120900
C1311	C131	0.747060	0.794640	0.247750
C1321	C132	0.832380	0.829640	0.232750
C1331	C133	0.891550	0.887190	0.268310
C1341	C134	0.867040	0.912700	0.318570
C1351	C135	0.781440	0.880040	0.333410
C1361	C136	0.722490	0.821690	0.298400
C1371	C137	0.930750	0.976670	0.356890
C1381	C138	0.744600	0.414260	0.103440
C1391	C139	0.788060	0.415920	0.054470
C1401	C140	0.838910	0.362370	0.045270
C1411	C141	0.850130	0.309030	0.085760
C1421	C142	0.809110	0.308050	0.135570
C1431	C143	0.756650	0.359850	0.144240
C1441	C144	0.902610	0.249510	0.075740
C1451	C145	0.589030	0.533830	0.443530
C1461	C146	0.582950	0.617290	0.445010
C1471	C147	0.514350	0.642170	0.423370
C1481	C148	0.507980	0.728320	0.424990
C1491	C149	0.428930	0.724810	0.404920
C1501	C150	0.384880	0.635420	0.389310
C1511	C151	0.300830	0.604350	0.366790
C1521	C152	0.263970	0.522110	0.343080
C1531	C153	0.178430	0.488570	0.318590
C1541	C154	0.171280	0.409420	0.296480
C1551	C155	0.251210	0.390970	0.306140
C1561	C156	0.270030	0.315710	0.289380
C1571	C157	0.344560	0.294780	0.305390
C1581	C158	0.365220	0.217520	0.288350
C1591	C159	0.437310	0.216650	0.317040
C1601	C160	0.463450	0.294490	0.351550
C1611	C161	0.534780	0.317180	0.389080
C1621	C162	0.566450	0.395930	0.418570
C1631	C163	0.644460	0.423140	0.452130
C1641	C164	0.657920	0.506700	0.467190
C1651	C165	0.656590	0.685930	0.472070
C1661	C166	0.661510	0.699930	0.529530
C1671	C167	0.729090	0.763290	0.554740
C1681	C168	0.792790	0.815030	0.523080
C1691	C169	0.788630	0.800550	0.466390
C1701	C170	0.721250	0.736310	0.441310
C1711	C171	0.867400	0.882760	0.548470
C1721	C172	0.247050	0.664950	0.368390
C1731	C173	0.215330	0.691770	0.320080
C1741	C174	0.168880	0.750440	0.323200
C1751	C175	0.153690	0.783750	0.374360
C1761	C176	0.184820	0.757080	0.422430
C1771	C177	0.231470	0.698910	0.419410
C1781	C178	0.105350	0.848070	0.379100
C1791	C179	0.205360	0.252940	0.252250
C1801	C180	0.170360	0.167620	0.267250
C1811	C181	0.112810	0.108450	0.231690
C1821	C182	0.087300	0.132960	0.181430
C1831	C183	0.119960	0.218560	0.166590
C1841	C184	0.178310	0.277510	0.201600
C1851	C185	0.023330	0.069250	0.143110
C1861	C186	0.585740	0.255400	0.396560
C1871	C187	0.584080	0.211940	0.445530
C1881	C188	0.637630	0.161090	0.454730
C1891	C189	0.690970	0.149870	0.414240
C1901	C190	0.691950	0.190890	0.364430
C1911	C191	0.640150	0.243350	0.355760
C1921	C192	0.750490	0.097390	0.424260
N11	N1	0.586720	0.439620	0.899670
N21	N2	0.460850	0.304950	0.835610
N31	N3	0.341470	0.407390	0.843120
N41	N4	0.463980	0.533780	0.915560
N51	N5	0.560380	0.413280	0.600330
N61	N6	0.695050	0.539150	0.664390
N71	N7	0.592610	0.658530	0.656880
N81	N8	0.466220	0.536020	0.584440
N91	N9	0.413280	0.560380	0.100330
N101	N10	0.539150	0.695050	0.164390
N111	N11	0.658530	0.592610	0.156880
N121	N12	0.536020	0.466220	0.084440
N131	N13	0.439620	0.586720	0.399670
N141	N14	0.304950	0.460850	0.335610
N151	N15	0.407390	0.341470	0.343120
N161	N16	0.533780	0.463980	0.415560
O11	O1	0.927460	0.924700	0.020060
O21	O2	0.891850	0.867670	0.102310
O31	O3	0.874390	0.085490	0.829910
O41	O4	0.874810	0.086070	0.923110
O51	O5	0.989910	0.005950	0.653910
O61	O6	0.096700	0.989440	0.603050
O71	O7	0.076780	0.770500	0.969570
O81	O8	0.077180	0.782800	0.877630
O91	O9	0.075300	0.072540	0.479940
O101	O10	0.132330	0.108150	0.397690
O111	O11	0.914510	0.125610	0.670090
O121	O12	0.913930	0.125190	0.576890
O131	O13	0.994050	0.010090	0.846090
O141	O14	0.010560	0.903300	0.896950
O151	O15	0.229500	0.923220	0.530430
O161	O16	0.217200	0.922820	0.622370
O171	O17	0.072540	0.075300	0.979940
O181	O18	0.108150	0.132330	0.897690
O191	O19	0.125610	0.914510	0.170090
O201	O20	0.125190	0.913930	0.076890
O211	O21	0.010090	0.994050	0.346090
O221	O22	0.903300	0.010560	0.396950
O231	O23	0.923220	0.229500	0.030430
O241	O24	0.922820	0.217200	0.122370
O251	O25	0.924700	0.927460	0.520060
O261	O26	0.867670	0.891850	0.602310
O271	O27	0.085490	0.874390	0.329910
O281	O28	0.086070	0.874810	0.423110
O291	O29	0.005950	0.989910	0.153910
O301	O30	0.989440	0.096700	0.103050
O311	O31	0.770500	0.076780	0.469570
O321	O32	0.782800	0.077180	0.377630
