data_EBUREA_clean_PM
_symmetry_space_group_name_H-M	'P1'
_cell_length_a	7.247000
_cell_length_b	15.587300
_cell_length_c	19.337000
_cell_angle_alpha	106.369000
_cell_angle_beta	90.000000
_cell_angle_gamma	103.442000
_symmetry_Int_Tables_number 1

loop_
_symmetry_equiv_pos_as_xyz
'x,y,z'

loop_
_atom_site_label
_atom_site_type_symbol
_atom_site_fract_x
_atom_site_fract_y
_atom_site_fract_z
Mn11	Mn1	0.838750	0.353660	0.089920
Mn21	Mn2	0.870620	0.584060	0.049050
Mn31	Mn3	0.399810	0.569080	0.230720
Mn41	Mn4	0.514910	0.353660	0.589920
Mn51	Mn5	0.713440	0.584060	0.549050
Mn61	Mn6	0.169270	0.569080	0.730720
H11	H1	0.368500	0.216600	0.202300
H21	H2	0.223500	0.238600	0.405800
H31	H3	0.502000	0.464400	0.354000
H41	H4	0.995600	0.951200	0.107500
H51	H5	0.817100	0.801400	0.087100
H61	H6	0.842700	0.830600	0.300100
H71	H7	0.019200	0.982600	0.322500
H81	H8	0.326900	0.788200	0.306200
H91	H9	0.490400	0.937800	0.358100
H101	H10	0.511100	0.983000	0.162100
H111	H11	0.340100	0.831800	0.109800
H121	H12	0.682200	0.223400	0.397400
H131	H13	0.001800	0.459000	0.370900
H141	H14	0.882100	0.228800	0.202800
H151	H15	0.848100	0.216600	0.702300
H161	H16	0.015100	0.238600	0.905800
H171	H17	0.962400	0.464400	0.854000
H181	H18	0.955600	0.951200	0.607500
H191	H19	0.984300	0.801400	0.587100
H201	H20	0.987900	0.830600	0.800100
H211	H21	0.963400	0.982600	0.822500
H221	H22	0.461300	0.788200	0.806200
H231	H23	0.447400	0.937800	0.858100
H241	H24	0.471900	0.983000	0.662100
H251	H25	0.491700	0.831800	0.609800
H261	H26	0.541200	0.223400	0.897400
H271	H27	0.457200	0.459000	0.870900
H281	H28	0.346700	0.228800	0.702800
C11	C1	0.560100	0.392000	0.216100
C21	C2	0.452700	0.347000	0.269700
C31	C3	0.365600	0.253200	0.249300
C41	C4	0.272500	0.214800	0.302000
C51	C5	0.277700	0.266000	0.371400
C61	C6	0.364500	0.360800	0.391900
C71	C7	0.371600	0.416400	0.469200
C81	C8	0.448500	0.401400	0.341000
C91	C9	0.021000	0.980800	0.215300
C101	C10	0.964500	0.927400	0.146100
C111	C11	0.860200	0.837200	0.134000
C121	C12	0.819400	0.799800	0.190900
C131	C13	0.703100	0.701200	0.175800
C141	C14	0.875200	0.855000	0.261700
C151	C15	0.978900	0.946000	0.275600
C161	C16	0.199500	0.697400	0.168500
C171	C17	0.316100	0.793200	0.202200
C181	C18	0.363200	0.827000	0.277400
C191	C19	0.461700	0.916400	0.308400
C201	C20	0.519300	0.975800	0.265800
C211	C21	0.473600	0.943800	0.190700
C221	C22	0.371600	0.853000	0.159300
C231	C23	0.768600	0.208400	0.294700
C241	C24	0.751100	0.255200	0.368000
C251	C25	0.838700	0.350400	0.396200
C261	C26	0.799500	0.400000	0.469400
C271	C27	0.943100	0.396800	0.352200
C281	C28	0.961200	0.351600	0.280400
C291	C29	0.071800	0.402800	0.232200
C301	C30	0.872400	0.258200	0.251300
C311	C31	0.831900	0.392000	0.716100
C321	C32	0.894300	0.347000	0.769700
C331	C33	0.887600	0.253200	0.749300
C341	C34	0.942300	0.214800	0.802000
C351	C35	0.988300	0.266000	0.871400
C361	C36	0.996300	0.360800	0.891900
C371	C37	0.044800	0.416400	0.969200
C381	C38	0.952900	0.401400	0.841000
C391	C39	0.959800	0.980800	0.715300
C401	C40	0.962900	0.927400	0.646100
C411	C41	0.977000	0.837200	0.634000
C421	C42	0.980400	0.799800	0.690900
C431	C43	0.998100	0.701200	0.675800
C441	C44	0.979800	0.855000	0.761700
C451	C45	0.967100	0.946000	0.775600
C461	C46	0.497900	0.697400	0.668500
C471	C47	0.477100	0.793200	0.702200
C481	C48	0.463800	0.827000	0.777400
C491	C49	0.454700	0.916400	0.808400
C501	C50	0.456500	0.975800	0.765800
C511	C51	0.470200	0.943800	0.690700
C521	C52	0.481400	0.853000	0.659300
C531	C53	0.439800	0.208400	0.794700
C541	C54	0.504100	0.255200	0.868000
C551	C55	0.511700	0.350400	0.896200
C561	C56	0.600500	0.400000	0.969400
C571	C57	0.453700	0.396800	0.852200
C581	C58	0.390400	0.351600	0.780400
C591	C59	0.331000	0.402800	0.732200
C601	C60	0.385800	0.258200	0.751300
N11	N1	0.179900	0.119400	0.288600
N21	N2	0.121600	0.076200	0.225100
N31	N3	0.620200	0.067800	0.301700
N41	N4	0.680000	0.115600	0.261100
N51	N5	0.939500	0.119400	0.788600
N61	N6	0.954600	0.076200	0.725100
N71	N7	0.447600	0.067800	0.801700
N81	N8	0.435600	0.115600	0.761100
O11	O1	0.602730	0.338260	0.159200
O21	O2	0.601970	0.478340	0.232000
O31	O3	0.454310	0.501220	0.486200
O41	O4	0.301130	0.376860	0.516400
O51	O5	0.645560	0.675320	0.230800
O61	O6	0.672200	0.652400	0.112700
O71	O7	0.117840	0.681280	0.107200
O81	O8	0.181260	0.638920	0.204000
O91	O9	0.698790	0.354180	0.506400
O101	O10	0.866080	0.486360	0.491400
O111	O11	0.166570	0.483940	0.263100
O121	O12	0.060010	0.364020	0.164900
O131	O13	0.874130	0.509660	0.137400
O141	O14	0.735530	0.338260	0.659200
O151	O15	0.876370	0.478340	0.732000
O161	O16	0.046910	0.501220	0.986200
O171	O17	0.075730	0.376860	0.016400
O181	O18	0.029760	0.675320	0.730800
O191	O19	0.980200	0.652400	0.612700
O201	O20	0.563440	0.681280	0.607200
O211	O21	0.457660	0.638920	0.704000
O221	O22	0.655390	0.354180	0.006400
O231	O23	0.620280	0.486360	0.991400
O241	O24	0.317370	0.483940	0.763100
O251	O25	0.304010	0.364020	0.664900
O261	O26	0.635530	0.509660	0.637400
