data_ECASAD_clean_PM
_symmetry_space_group_name_H-M	'P1'
_cell_length_a	9.065600
_cell_length_b	10.229000
_cell_length_c	11.764000
_cell_angle_alpha	115.770000
_cell_angle_beta	90.189100
_cell_angle_gamma	90.000000
_symmetry_Int_Tables_number 1

loop_
_symmetry_equiv_pos_as_xyz
'x,y,z'

loop_
_atom_site_label
_atom_site_type_symbol
_atom_site_fract_x
_atom_site_fract_y
_atom_site_fract_z
Zn11	Zn1	0.929960	0.153760	0.446880
Zn21	Zn2	0.570040	0.706880	0.553120
Zn31	Zn3	0.070040	0.846240	0.553120
Zn41	Zn4	0.429960	0.293120	0.446880
P11	P1	0.736710	0.435440	0.556140
P21	P2	0.763290	0.879300	0.443860
P31	P3	0.263290	0.564560	0.443860
P41	P4	0.236710	0.120700	0.556140
H11	H1	0.885900	0.527300	0.693600
H21	H2	0.014600	0.855900	0.240200
H31	H3	0.153800	0.762000	0.060800
H41	H4	0.212700	0.165400	0.095400
H51	H5	0.068800	0.247800	0.274000
H61	H6	0.614100	0.833700	0.306400
H71	H7	0.485400	0.615700	0.759800
H81	H8	0.346200	0.701200	0.939200
H91	H9	0.287300	0.070000	0.904600
H101	H10	0.431200	0.973800	0.726000
H111	H11	0.114100	0.472700	0.306400
H121	H12	0.985400	0.144100	0.759800
H131	H13	0.846200	0.238000	0.939200
H141	H14	0.787300	0.834600	0.904600
H151	H15	0.931200	0.752200	0.726000
H161	H16	0.385900	0.166300	0.693600
H171	H17	0.514600	0.384300	0.240200
H181	H18	0.653800	0.298800	0.060800
H191	H19	0.712700	0.930000	0.095400
H201	H20	0.568800	0.026200	0.274000
C11	C1	0.054900	0.918900	0.210800
C21	C2	0.139200	0.861720	0.103040
C31	C3	0.202400	0.953450	0.057300
C41	C4	0.174000	0.099990	0.122980
C51	C5	0.087000	0.148740	0.230680
C61	C6	0.445100	0.708100	0.789200
C71	C7	0.360800	0.758680	0.896960
C81	C8	0.297600	0.896150	0.942700
C91	C9	0.326000	0.977010	0.877020
C101	C10	0.413000	0.918060	0.769320
C111	C11	0.945100	0.081100	0.789200
C121	C12	0.860800	0.138280	0.896960
C131	C13	0.797600	0.046550	0.942700
C141	C14	0.826000	0.900010	0.877020
C151	C15	0.913000	0.851260	0.769320
C161	C16	0.554900	0.291900	0.210800
C171	C17	0.639200	0.241320	0.103040
C181	C18	0.702400	0.103850	0.057300
C191	C19	0.674000	0.022990	0.122980
C201	C20	0.587000	0.081940	0.230680
N11	N1	0.028500	0.060880	0.274960
N21	N2	0.471500	0.785920	0.725040
N31	N3	0.971500	0.939120	0.725040
N41	N4	0.528500	0.214080	0.274960
O11	O1	0.841500	0.330440	0.459020
O21	O2	0.091600	0.199830	0.567860
O31	O3	0.715400	0.562530	0.525180
O41	O4	0.806000	0.488710	0.691420
O51	O5	0.658500	0.871420	0.540980
O61	O6	0.408400	0.631970	0.432140
O71	O7	0.784600	0.037350	0.474820
O81	O8	0.694000	0.797290	0.308580
O91	O9	0.158500	0.669560	0.540980
O101	O10	0.908400	0.800170	0.432140
O111	O11	0.284600	0.437470	0.474820
O121	O12	0.194000	0.511290	0.308580
O131	O13	0.341500	0.128580	0.459020
O141	O14	0.591600	0.368030	0.567860
O151	O15	0.215400	0.962650	0.525180
O161	O16	0.306000	0.202710	0.691420
