data_ECEDAU_clean_PM
_symmetry_space_group_name_H-M	'P1'
_cell_length_a	10.232500
_cell_length_b	10.457900
_cell_length_c	11.665000
_cell_angle_alpha	106.737000
_cell_angle_beta	108.856000
_cell_angle_gamma	104.541000
_symmetry_Int_Tables_number 1

loop_
_symmetry_equiv_pos_as_xyz
'x,y,z'

loop_
_atom_site_label
_atom_site_type_symbol
_atom_site_fract_x
_atom_site_fract_y
_atom_site_fract_z
Sr11	Sr1	0.360420	0.094670	0.433990
O11	O1	0.282800	0.318300	0.489400
O21	O2	0.119000	0.108400	0.447900
O31	O3	0.622700	0.331000	0.549500
H11	H1	0.641800	0.356900	0.641000
O41	O4	0.640300	0.117200	0.500400
O51	O5	0.559200	0.411100	0.870400
O61	O6	0.456400	0.207300	0.690100
O71	O7	0.399500	0.216600	0.283900
O81	O8	0.441000	0.415800	0.252000
C11	C1	0.165800	0.242400	0.490900
C21	C2	0.083300	0.320700	0.550100
C31	C3	0.935900	0.248800	0.524300
H21	H2	0.888800	0.149900	0.474000
C41	C4	0.859000	0.325100	0.573900
C51	C5	0.931300	0.472200	0.652400
H31	H3	0.879400	0.523500	0.684300
C61	C6	0.080900	0.543700	0.683600
C71	C7	0.154800	0.466300	0.629100
H41	H4	0.253500	0.513700	0.646400
C81	C8	0.696800	0.253000	0.539800
C91	C9	0.158600	0.695900	0.764300
C101	C10	0.230100	0.821300	0.826900
C111	C11	0.312200	0.974500	0.893000
C121	C12	0.370400	0.047100	0.826800
H51	H5	0.359900	0.995800	0.742500
C131	C13	0.444000	0.196100	0.886300
C141	C14	0.462000	0.273200	0.012800
H61	H6	0.512300	0.372900	0.052700
C151	C15	0.404700	0.201500	0.080000
C161	C16	0.332300	0.052700	0.020700
H71	H7	0.296600	0.004300	0.066500
C171	C17	0.487200	0.269900	0.805100
C181	C18	0.416300	0.283700	0.214500
Sr21	Sr2	0.639580	0.905330	0.566010
O91	O9	0.717200	0.681700	0.510600
O101	O10	0.881000	0.891600	0.552100
O111	O11	0.377300	0.669000	0.450500
H81	H8	0.358200	0.643100	0.359000
O121	O12	0.359700	0.882800	0.499600
O131	O13	0.440800	0.588900	0.129600
O141	O14	0.543600	0.792700	0.309900
O151	O15	0.600500	0.783400	0.716100
O161	O16	0.559000	0.584200	0.748000
C191	C19	0.834200	0.757600	0.509100
C201	C20	0.916700	0.679300	0.449900
C211	C21	0.064100	0.751200	0.475700
H91	H9	0.111200	0.850100	0.526000
C221	C22	0.141000	0.674900	0.426100
C231	C23	0.068700	0.527800	0.347600
H101	H10	0.120600	0.476500	0.315700
C241	C24	0.919100	0.456300	0.316400
C251	C25	0.845200	0.533700	0.370900
H111	H11	0.746500	0.486300	0.353600
C261	C26	0.303200	0.747000	0.460200
C271	C27	0.841400	0.304100	0.235700
C281	C28	0.769900	0.178700	0.173100
C291	C29	0.687800	0.025500	0.107000
C301	C30	0.629600	0.952900	0.173200
H121	H12	0.640100	0.004200	0.257500
C311	C31	0.556000	0.803900	0.113700
C321	C32	0.538000	0.726800	0.987200
H131	H13	0.487700	0.627100	0.947300
C331	C33	0.595300	0.798500	0.920000
C341	C34	0.667700	0.947300	0.979300
H141	H14	0.703400	0.995700	0.933500
C351	C35	0.512800	0.730100	0.194900
C361	C36	0.583700	0.716300	0.785500
Sr31	Sr3	0.500000	0.500000	0.500000
