data_ECIWUJ_clean_PM
_symmetry_space_group_name_H-M	'P1'
_cell_length_a	7.791100
_cell_length_b	9.298400
_cell_length_c	10.628400
_cell_angle_alpha	65.320000
_cell_angle_beta	86.199000
_cell_angle_gamma	78.145000
_symmetry_Int_Tables_number 1

loop_
_symmetry_equiv_pos_as_xyz
'x,y,z'

loop_
_atom_site_label
_atom_site_type_symbol
_atom_site_fract_x
_atom_site_fract_y
_atom_site_fract_z
Zn11	Zn1	0.364880	0.436750	0.455890
Zn21	Zn2	0.635120	0.563250	0.544110
H11	H1	0.070200	0.188500	0.572200
H21	H2	0.718200	0.037700	0.411400
H31	H3	0.354800	0.243500	0.288400
H41	H4	0.204800	0.269200	0.098900
H51	H5	0.299000	0.004000	0.842000
H61	H6	0.016000	0.592000	0.322000
H71	H7	0.653000	0.207000	0.928000
H81	H8	0.877000	0.621000	0.125000
H91	H9	0.929800	0.811500	0.427800
H101	H10	0.281800	0.962300	0.588600
H111	H11	0.645200	0.756500	0.711600
H121	H12	0.795200	0.730800	0.901100
H131	H13	0.701000	0.996000	0.158000
H141	H14	0.984000	0.408000	0.678000
H151	H15	0.347000	0.793000	0.072000
H161	H16	0.123000	0.379000	0.875000
C11	C1	0.438300	0.267200	0.729100
C21	C2	0.467600	0.129200	0.870400
C31	C3	0.375800	0.005000	0.909900
C41	C4	0.591700	0.123700	0.961300
C51	C5	0.739800	0.279700	0.479400
C61	C6	0.042300	0.112400	0.542800
C71	C7	0.832500	0.022300	0.446900
C81	C8	0.260300	0.332300	0.249000
C91	C9	0.175000	0.350300	0.133200
C101	C10	0.045000	0.485100	0.064900
C111	C11	0.974100	0.559400	0.147800
C121	C12	0.062200	0.531400	0.266300
C131	C13	0.874800	0.135600	0.488800
C141	C14	0.561700	0.732800	0.270900
C151	C15	0.532400	0.870800	0.129600
C161	C16	0.624200	0.995000	0.090100
C171	C17	0.408300	0.876300	0.038700
C181	C18	0.260200	0.720300	0.520600
C191	C19	0.957700	0.887600	0.457200
C201	C20	0.167500	0.977700	0.553100
C211	C21	0.739700	0.667700	0.751000
C221	C22	0.825000	0.649700	0.866800
C231	C23	0.955000	0.514900	0.935100
C241	C24	0.025900	0.440600	0.852200
C251	C25	0.937800	0.468600	0.733700
C261	C26	0.125200	0.864400	0.511200
N11	N1	0.215500	0.434200	0.307100
N21	N2	0.784500	0.565800	0.692900
O11	O1	0.327600	0.266900	0.648700
O21	O2	0.528300	0.373400	0.700800
O31	O3	0.584200	0.284200	0.446000
O41	O4	0.789700	0.383800	0.509000
O51	O5	0.672400	0.733100	0.351300
O61	O6	0.471700	0.626600	0.299200
O71	O7	0.415800	0.715800	0.554000
O81	O8	0.210300	0.616200	0.491000
