data_ECODIK_clean_PM
_symmetry_space_group_name_H-M	'P1'
_cell_length_a	12.389000
_cell_length_b	13.259000
_cell_length_c	14.146000
_cell_angle_alpha	90.000000
_cell_angle_beta	90.000000
_cell_angle_gamma	112.676000
_symmetry_Int_Tables_number 1

loop_
_symmetry_equiv_pos_as_xyz
'x,y,z'

loop_
_atom_site_label
_atom_site_type_symbol
_atom_site_fract_x
_atom_site_fract_y
_atom_site_fract_z
Cu11	Cu1	0.164660	0.421590	0.592620
Cu21	Cu2	0.526290	0.092910	0.931840
Cu31	Cu3	0.335340	0.078410	0.092620
Cu41	Cu4	0.973710	0.407090	0.431840
Cu51	Cu5	0.835340	0.578410	0.407380
Cu61	Cu6	0.473710	0.907090	0.068160
Cu71	Cu7	0.664660	0.921590	0.907380
Cu81	Cu8	0.026290	0.592910	0.568160
H11	H1	0.566700	0.076300	0.730100
H21	H2	0.706100	0.148900	0.617500
H31	H3	0.915500	0.338900	0.816400
H41	H4	0.769900	0.258900	0.925300
H51	H5	0.313200	0.297000	0.600300
H61	H6	0.387100	0.208900	0.705500
H71	H7	0.217700	0.295200	0.910700
H81	H8	0.146800	0.377100	0.798700
H91	H9	0.933300	0.423700	0.230100
H101	H10	0.793900	0.351100	0.117500
H111	H11	0.584500	0.161100	0.316400
H121	H12	0.730100	0.241100	0.425300
H131	H13	0.186800	0.203000	0.100300
H141	H14	0.112900	0.291100	0.205500
H151	H15	0.282300	0.204800	0.410700
H161	H16	0.353200	0.122900	0.298700
H171	H17	0.433300	0.923700	0.269900
H181	H18	0.293900	0.851100	0.382500
H191	H19	0.084500	0.661100	0.183600
H201	H20	0.230100	0.741100	0.074700
H211	H21	0.686800	0.703000	0.399700
H221	H22	0.612900	0.791100	0.294500
H231	H23	0.782300	0.704800	0.089300
H241	H24	0.853200	0.622900	0.201300
H251	H25	0.066700	0.576300	0.769900
H261	H26	0.206100	0.648900	0.882500
H271	H27	0.415500	0.838900	0.683600
H281	H28	0.269900	0.758900	0.574700
H291	H29	0.813200	0.797000	0.899700
H301	H30	0.887100	0.708900	0.794500
H311	H31	0.717700	0.795200	0.589300
H321	H32	0.646800	0.877100	0.701300
C11	C1	0.638200	0.129900	0.747400
C21	C2	0.720800	0.173400	0.679600
C31	C3	0.825600	0.253400	0.703600
C41	C4	0.844600	0.285500	0.797500
C51	C5	0.756600	0.237000	0.862500
C61	C6	0.919900	0.305200	0.629440
C71	C7	0.292600	0.295400	0.663700
C81	C8	0.338700	0.243100	0.726600
C91	C9	0.311800	0.242300	0.820800
C101	C10	0.238100	0.293800	0.847600
C111	C11	0.195800	0.342600	0.779800
C121	C12	0.361700	0.189700	0.893900
C131	C13	0.861800	0.370100	0.247400
C141	C14	0.779200	0.326600	0.179600
C151	C15	0.674400	0.246600	0.203600
C161	C16	0.655400	0.214500	0.297500
C171	C17	0.743400	0.263000	0.362500
C181	C18	0.580100	0.194800	0.129440
C191	C19	0.207400	0.204600	0.163700
C201	C20	0.161300	0.256900	0.226600
C211	C21	0.188200	0.257700	0.320800
C221	C22	0.261900	0.206200	0.347600
C231	C23	0.304200	0.157400	0.279800
C241	C24	0.138300	0.310300	0.393900
C251	C25	0.361800	0.870100	0.252600
C261	C26	0.279200	0.826600	0.320400
C271	C27	0.174400	0.746600	0.296400
C281	C28	0.155400	0.714500	0.202500
C291	C29	0.243400	0.763000	0.137500
C301	C30	0.080100	0.694800	0.370560
C311	C31	0.707400	0.704600	0.336300
C321	C32	0.661300	0.756900	0.273400
C331	C33	0.688200	0.757700	0.179200
C341	C34	0.761900	0.706200	0.152400
C351	C35	0.804200	0.657400	0.220200
C361	C36	0.638300	0.810300	0.106100
C371	C37	0.138200	0.629900	0.752600
C381	C38	0.220800	0.673400	0.820400
C391	C39	0.325600	0.753400	0.796400
C401	C40	0.344600	0.785500	0.702500
C411	C41	0.256600	0.737000	0.637500
C421	C42	0.419900	0.805200	0.870560
C431	C43	0.792600	0.795400	0.836300
C441	C44	0.838700	0.743100	0.773400
C451	C45	0.811800	0.742300	0.679200
C461	C46	0.738100	0.793800	0.652400
C471	C47	0.695800	0.842600	0.720200
C481	C48	0.861700	0.689700	0.606100
N11	N1	0.655300	0.161360	0.839540
N21	N2	0.221000	0.343300	0.688160
N31	N3	0.844700	0.338640	0.339540
N41	N4	0.279000	0.156700	0.188160
N51	N5	0.344700	0.838640	0.160460
N61	N6	0.779000	0.656700	0.311840
N71	N7	0.155300	0.661360	0.660460
N81	N8	0.721000	0.843300	0.811840
O11	O1	0.016640	0.376840	0.661590
O21	O2	0.898590	0.280790	0.546330
O31	O3	0.334200	0.190250	0.977580
O41	O4	0.430770	0.148260	0.859720
O51	O5	0.108590	0.506980	0.506530
O61	O6	0.483360	0.123160	0.161590
O71	O7	0.601410	0.219210	0.046330
O81	O8	0.165800	0.309750	0.477580
O91	O9	0.069230	0.351740	0.359720
O101	O10	0.391410	0.993020	0.006530
O111	O11	0.983360	0.623160	0.338410
O121	O12	0.101410	0.719210	0.453670
O131	O13	0.665800	0.809750	0.022420
O141	O14	0.569230	0.851740	0.140280
O151	O15	0.891410	0.493020	0.493470
O161	O16	0.516640	0.876840	0.838410
O171	O17	0.398590	0.780790	0.953670
O181	O18	0.834200	0.690250	0.522420
O191	O19	0.930770	0.648260	0.640280
O201	O20	0.608590	0.006980	0.993470
