data_ECODOQ_clean_PM
_symmetry_space_group_name_H-M	'P1'
_cell_length_a	12.741000
_cell_length_b	12.068000
_cell_length_c	11.988000
_cell_angle_alpha	90.000000
_cell_angle_beta	94.902000
_cell_angle_gamma	90.000000
_symmetry_Int_Tables_number 1

loop_
_symmetry_equiv_pos_as_xyz
'x,y,z'

loop_
_atom_site_label
_atom_site_type_symbol
_atom_site_fract_x
_atom_site_fract_y
_atom_site_fract_z
Ga11	Ga1	0.246720	0.959670	0.206020
P11	P1	0.202150	0.223840	0.177580
P21	P2	0.172710	0.020160	0.446090
F11	F1	0.092500	0.972800	0.202600
F21	F2	0.393400	0.953800	0.205600
O11	O1	0.264000	0.117400	0.168700
O21	O2	0.224400	0.080600	0.547600
O31	O3	0.254300	0.994300	0.364700
O41	O4	0.079500	0.086800	0.394900
O51	O5	0.087600	0.204400	0.193000
O61	O6	0.258100	0.301200	0.263600
H11	H1	0.138000	0.923000	0.480000
H21	H2	0.201000	0.276000	0.079000
Ga21	Ga2	0.746720	0.459670	0.206020
P31	P3	0.702150	0.723840	0.177580
P41	P4	0.672710	0.520160	0.446090
F31	F3	0.592500	0.472800	0.202600
F41	F4	0.893400	0.453800	0.205600
O71	O7	0.764000	0.617400	0.168700
O81	O8	0.724400	0.580600	0.547600
O91	O9	0.754300	0.494300	0.364700
O101	O10	0.579500	0.586800	0.394900
O111	O11	0.587600	0.704400	0.193000
O121	O12	0.758100	0.801200	0.263600
H31	H3	0.638000	0.423000	0.480000
H41	H4	0.701000	0.776000	0.079000
Ga31	Ga3	0.753280	0.959670	0.293980
P51	P5	0.797850	0.223840	0.322420
P61	P6	0.827290	0.020160	0.053910
F51	F5	0.907500	0.972800	0.297400
F61	F6	0.606600	0.953800	0.294400
O131	O13	0.736000	0.117400	0.331300
O141	O14	0.775600	0.080600	0.952400
O151	O15	0.745700	0.994300	0.135300
O161	O16	0.920500	0.086800	0.105100
O171	O17	0.912400	0.204400	0.307000
O181	O18	0.741900	0.301200	0.236400
H51	H5	0.862000	0.923000	0.020000
H61	H6	0.799000	0.276000	0.421000
Ga41	Ga4	0.253280	0.459670	0.293980
P71	P7	0.297850	0.723840	0.322420
P81	P8	0.327290	0.520160	0.053910
F71	F7	0.407500	0.472800	0.297400
F81	F8	0.106600	0.453800	0.294400
O191	O19	0.236000	0.617400	0.331300
O201	O20	0.275600	0.580600	0.952400
O211	O21	0.245700	0.494300	0.135300
O221	O22	0.420500	0.586800	0.105100
O231	O23	0.412400	0.704400	0.307000
O241	O24	0.241900	0.801200	0.236400
H71	H7	0.362000	0.423000	0.020000
H81	H8	0.299000	0.776000	0.421000
Ga51	Ga5	0.753280	0.040330	0.793980
P91	P9	0.797850	0.776160	0.822420
P101	P10	0.827290	0.979840	0.553910
F91	F9	0.907500	0.027200	0.797400
F101	F10	0.606600	0.046200	0.794400
O251	O25	0.736000	0.882600	0.831300
O261	O26	0.775600	0.919400	0.452400
O271	O27	0.745700	0.005700	0.635300
O281	O28	0.920500	0.913200	0.605100
O291	O29	0.912400	0.795600	0.807000
O301	O30	0.741900	0.698800	0.736400
H91	H9	0.862000	0.077000	0.520000
H101	H10	0.799000	0.724000	0.921000
Ga61	Ga6	0.253280	0.540330	0.793980
P111	P11	0.297850	0.276160	0.822420
P121	P12	0.327290	0.479840	0.553910
F111	F11	0.407500	0.527200	0.797400
F121	F12	0.106600	0.546200	0.794400
O311	O31	0.236000	0.382600	0.831300
O321	O32	0.275600	0.419400	0.452400
O331	O33	0.245700	0.505700	0.635300
O341	O34	0.420500	0.413200	0.605100
O351	O35	0.412400	0.295600	0.807000
O361	O36	0.241900	0.198800	0.736400
H111	H11	0.362000	0.577000	0.520000
H121	H12	0.299000	0.224000	0.921000
Ga71	Ga7	0.246720	0.040330	0.706020
P131	P13	0.202150	0.776160	0.677580
P141	P14	0.172710	0.979840	0.946090
F131	F13	0.092500	0.027200	0.702600
F141	F14	0.393400	0.046200	0.705600
O371	O37	0.264000	0.882600	0.668700
O381	O38	0.224400	0.919400	0.047600
O391	O39	0.254300	0.005700	0.864700
O401	O40	0.079500	0.913200	0.894900
O411	O41	0.087600	0.795600	0.693000
O421	O42	0.258100	0.698800	0.763600
H131	H13	0.138000	0.077000	0.980000
H141	H14	0.201000	0.724000	0.579000
Ga81	Ga8	0.746720	0.540330	0.706020
P151	P15	0.702150	0.276160	0.677580
P161	P16	0.672710	0.479840	0.946090
F151	F15	0.592500	0.527200	0.702600
F161	F16	0.893400	0.546200	0.705600
O431	O43	0.764000	0.382600	0.668700
O441	O44	0.724400	0.419400	0.047600
O451	O45	0.754300	0.505700	0.864700
O461	O46	0.579500	0.413200	0.894900
O471	O47	0.587600	0.295600	0.693000
O481	O48	0.758100	0.198800	0.763600
H151	H15	0.638000	0.577000	0.980000
H161	H16	0.701000	0.224000	0.579000
Ga91	Ga9	0.000000	0.088960	0.250000
Ga101	Ga10	0.500000	0.588960	0.250000
Ga111	Ga11	0.000000	0.911040	0.750000
Ga121	Ga12	0.500000	0.411040	0.750000
