data_ECOKAJ_clean_PM
_symmetry_space_group_name_H-M	'P1'
_cell_length_a	29.497000
_cell_length_b	29.497000
_cell_length_c	29.497000
_cell_angle_alpha	90.000000
_cell_angle_beta	90.000000
_cell_angle_gamma	90.000000
_symmetry_Int_Tables_number 1

loop_
_symmetry_equiv_pos_as_xyz
'x,y,z'

loop_
_atom_site_label
_atom_site_type_symbol
_atom_site_fract_x
_atom_site_fract_y
_atom_site_fract_z
Zn11	Zn1	0.555060	0.055060	0.444940
Zn21	Zn2	0.944940	0.944940	0.944940
Zn31	Zn3	0.444940	0.555060	0.055060
Zn41	Zn4	0.055060	0.444940	0.555060
Zn51	Zn5	0.805060	0.805060	0.805060
Zn61	Zn6	0.694940	0.194940	0.305060
Zn71	Zn7	0.305060	0.694940	0.194940
Zn81	Zn8	0.194940	0.305060	0.694940
Zn91	Zn9	0.625000	0.125000	0.375000
Zn101	Zn10	0.875000	0.875000	0.875000
Zn111	Zn11	0.375000	0.625000	0.125000
Zn121	Zn12	0.125000	0.375000	0.625000
H11	H1	0.449300	0.159000	0.444900
H21	H2	0.397200	0.215100	0.424100
H31	H3	0.468000	0.236600	0.307400
H41	H4	0.514100	0.180500	0.327000
H51	H5	0.050700	0.841000	0.944900
H61	H6	0.102800	0.784900	0.924100
H71	H7	0.032000	0.763400	0.807400
H81	H8	0.985900	0.819500	0.827000
H91	H9	0.550700	0.659000	0.055100
H101	H10	0.602800	0.715100	0.075900
H111	H11	0.532000	0.736600	0.192600
H121	H12	0.485900	0.680500	0.173000
H131	H13	0.949300	0.341000	0.555100
H141	H14	0.897200	0.284900	0.575900
H151	H15	0.968000	0.263400	0.692600
H161	H16	0.014100	0.319500	0.673000
H171	H17	0.444900	0.449300	0.159000
H181	H18	0.424100	0.397200	0.215100
H191	H19	0.307400	0.468000	0.236600
H201	H20	0.327000	0.514100	0.180500
H211	H21	0.944900	0.050700	0.841000
H221	H22	0.924100	0.102800	0.784900
H231	H23	0.807400	0.032000	0.763400
H241	H24	0.827000	0.985900	0.819500
H251	H25	0.055100	0.550700	0.659000
H261	H26	0.075900	0.602800	0.715100
H271	H27	0.192600	0.532000	0.736600
H281	H28	0.173000	0.485900	0.680500
H291	H29	0.555100	0.949300	0.341000
H301	H30	0.575900	0.897200	0.284900
H311	H31	0.692600	0.968000	0.263400
H321	H32	0.673000	0.014100	0.319500
H331	H33	0.159000	0.444900	0.449300
H341	H34	0.215100	0.424100	0.397200
H351	H35	0.236600	0.307400	0.468000
H361	H36	0.180500	0.327000	0.514100
H371	H37	0.841000	0.944900	0.050700
H381	H38	0.784900	0.924100	0.102800
H391	H39	0.763400	0.807400	0.032000
H401	H40	0.819500	0.827000	0.985900
H411	H41	0.659000	0.055100	0.550700
H421	H42	0.715100	0.075900	0.602800
H431	H43	0.736600	0.192600	0.532000
H441	H44	0.680500	0.173000	0.485900
H451	H45	0.341000	0.555100	0.949300
H461	H46	0.284900	0.575900	0.897200
H471	H47	0.263400	0.692600	0.968000
H481	H48	0.319500	0.673000	0.014100
H491	H49	0.909000	0.699300	0.805100
H501	H50	0.965100	0.647200	0.825900
H511	H51	0.986600	0.718000	0.942600
H521	H52	0.930500	0.764100	0.923000
H531	H53	0.591000	0.300700	0.305100
H541	H54	0.534900	0.352800	0.325900
H551	H55	0.513400	0.282000	0.442600
H561	H56	0.569500	0.235900	0.423000
H571	H57	0.409000	0.800700	0.194900
H581	H58	0.465100	0.852800	0.174100
H591	H59	0.486600	0.782000	0.057400
H601	H60	0.430500	0.735900	0.077000
H611	H61	0.091000	0.199300	0.694900
H621	H62	0.034900	0.147200	0.674100
H631	H63	0.013400	0.218000	0.557400
H641	H64	0.069500	0.264100	0.577000
H651	H65	0.199300	0.694900	0.091000
H661	H66	0.147200	0.674100	0.034900
H671	H67	0.218000	0.557400	0.013400
H681	H68	0.264100	0.577000	0.069500
H691	H69	0.800700	0.194900	0.409000
H701	H70	0.852800	0.174100	0.465100
H711	H71	0.782000	0.057400	0.486600
H721	H72	0.735900	0.077000	0.430500
H731	H73	0.300700	0.305100	0.591000
H741	H74	0.352800	0.325900	0.534900
H751	H75	0.282000	0.442600	0.513400
H761	H76	0.235900	0.423000	0.569500
H771	H77	0.699300	0.805100	0.909000
H781	H78	0.647200	0.825900	0.965100
H791	H79	0.718000	0.942600	0.986600
H801	H80	0.764100	0.923000	0.930500
H811	H81	0.194900	0.409000	0.800700
H821	H82	0.174100	0.465100	0.852800
H831	H83	0.057400	0.486600	0.782000
H841	H84	0.077000	0.430500	0.735900
H851	H85	0.694900	0.091000	0.199300
H861	H86	0.674100	0.034900	0.147200
H871	H87	0.557400	0.013400	0.218000
H881	H88	0.577000	0.069500	0.264100
H891	H89	0.805100	0.909000	0.699300
H901	H90	0.825900	0.965100	0.647200
H911	H91	0.942600	0.986600	0.718000
H921	H92	0.923000	0.930500	0.764100
H931	H93	0.305100	0.591000	0.300700
H941	H94	0.325900	0.534900	0.352800
H951	H95	0.442600	0.513400	0.282000
H961	H96	0.423000	0.569500	0.235900
C11	C1	0.487700	0.162800	0.386800
C21	C2	0.452200	0.174200	0.417400
C31	C3	0.421900	0.208500	0.405700
C41	C4	0.429800	0.234600	0.362600
C51	C5	0.463700	0.221900	0.334900
C61	C6	0.490900	0.188000	0.346900
C71	C7	0.523100	0.127700	0.396500
C81	C8	0.395800	0.276400	0.355500
C91	C9	0.335100	0.316100	0.375100
C101	C10	0.012300	0.837200	0.886800
C111	C11	0.047800	0.825800	0.917400
C121	C12	0.078100	0.791500	0.905700
C131	C13	0.070200	0.765400	0.862600
C141	C14	0.036300	0.778100	0.834900
C151	C15	0.009100	0.812000	0.846900
C161	C16	0.976900	0.872300	0.896500
C171	C17	0.104200	0.723600	0.855500
C181	C18	0.164900	0.683900	0.875100
C191	C19	0.512300	0.662800	0.113200
C201	C20	0.547800	0.674200	0.082600
C211	C21	0.578100	0.708500	0.094300
C221	C22	0.570200	0.734600	0.137400
C231	C23	0.536300	0.721900	0.165100
C241	C24	0.509100	0.688000	0.153100
C251	C25	0.476900	0.627700	0.103500
C261	C26	0.604200	0.776400	0.144500
C271	C27	0.664900	0.816100	0.124900
C281	C28	0.987700	0.337200	0.613200
C291	C29	0.952200	0.325800	0.582600
C301	C30	0.921900	0.291500	0.594300
C311	C31	0.929800	0.265400	0.637400
C321	C32	0.963700	0.278100	0.665100
C331	C33	0.990900	0.312000	0.653100
C341	C34	0.023100	0.372300	0.603500
C351	C35	0.895800	0.223600	0.644500
C361	C36	0.835100	0.183900	0.624900
C371	C37	0.386800	0.487700	0.162800
C381	C38	0.417400	0.452200	0.174200
C391	C39	0.405700	0.421900	0.208500
C401	C40	0.362600	0.429800	0.234600
C411	C41	0.334900	0.463700	0.221900
C421	C42	0.346900	0.490900	0.188000
C431	C43	0.396500	0.523100	0.127700
C441	C44	0.355500	0.395800	0.276400
C451	C45	0.375100	0.335100	0.316100
C461	C46	0.886800	0.012300	0.837200
C471	C47	0.917400	0.047800	0.825800
C481	C48	0.905700	0.078100	0.791500
C491	C49	0.862600	0.070200	0.765400
C501	C50	0.834900	0.036300	0.778100
C511	C51	0.846900	0.009100	0.812000
C521	C52	0.896500	0.976900	0.872300
C531	C53	0.855500	0.104200	0.723600
C541	C54	0.875100	0.164900	0.683900
C551	C55	0.113200	0.512300	0.662800
C561	C56	0.082600	0.547800	0.674200
C571	C57	0.094300	0.578100	0.708500
C581	C58	0.137400	0.570200	0.734600
C591	C59	0.165100	0.536300	0.721900
C601	C60	0.153100	0.509100	0.688000
C611	C61	0.103500	0.476900	0.627700
C621	C62	0.144500	0.604200	0.776400
C631	C63	0.124900	0.664900	0.816100
C641	C64	0.613200	0.987700	0.337200
C651	C65	0.582600	0.952200	0.325800
C661	C66	0.594300	0.921900	0.291500
C671	C67	0.637400	0.929800	0.265400
C681	C68	0.665100	0.963700	0.278100
C691	C69	0.653100	0.990900	0.312000
C701	C70	0.603500	0.023100	0.372300
C711	C71	0.644500	0.895800	0.223600
C721	C72	0.624900	0.835100	0.183900
C731	C73	0.162800	0.386800	0.487700
C741	C74	0.174200	0.417400	0.452200
C751	C75	0.208500	0.405700	0.421900
C761	C76	0.234600	0.362600	0.429800
C771	C77	0.221900	0.334900	0.463700
C781	C78	0.188000	0.346900	0.490900
C791	C79	0.127700	0.396500	0.523100
C801	C80	0.276400	0.355500	0.395800
C811	C81	0.316100	0.375100	0.335100
C821	C82	0.837200	0.886800	0.012300
C831	C83	0.825800	0.917400	0.047800
C841	C84	0.791500	0.905700	0.078100
C851	C85	0.765400	0.862600	0.070200
C861	C86	0.778100	0.834900	0.036300
C871	C87	0.812000	0.846900	0.009100
C881	C88	0.872300	0.896500	0.976900
C891	C89	0.723600	0.855500	0.104200
C901	C90	0.683900	0.875100	0.164900
C911	C91	0.662800	0.113200	0.512300
C921	C92	0.674200	0.082600	0.547800
C931	C93	0.708500	0.094300	0.578100
C941	C94	0.734600	0.137400	0.570200
C951	C95	0.721900	0.165100	0.536300
C961	C96	0.688000	0.153100	0.509100
C971	C97	0.627700	0.103500	0.476900
C981	C98	0.776400	0.144500	0.604200
C991	C99	0.816100	0.124900	0.664900
C1001	C100	0.337200	0.613200	0.987700
C1011	C101	0.325800	0.582600	0.952200
C1021	C102	0.291500	0.594300	0.921900
C1031	C103	0.265400	0.637400	0.929800
C1041	C104	0.278100	0.665100	0.963700
C1051	C105	0.312000	0.653100	0.990900
C1061	C106	0.372300	0.603500	0.023100
C1071	C107	0.223600	0.644500	0.895800
C1081	C108	0.183900	0.624900	0.835100
C1091	C109	0.912800	0.737700	0.863200
C1101	C110	0.924200	0.702200	0.832600
C1111	C111	0.958500	0.671900	0.844300
C1121	C112	0.984600	0.679800	0.887400
C1131	C113	0.971900	0.713700	0.915100
C1141	C114	0.938000	0.740900	0.903100
C1151	C115	0.877700	0.773100	0.853500
C1161	C116	0.026400	0.645800	0.894500
C1171	C117	0.066100	0.585100	0.874900
C1181	C118	0.587200	0.262300	0.363200
C1191	C119	0.575800	0.297800	0.332600
C1201	C120	0.541500	0.328100	0.344300
C1211	C121	0.515400	0.320200	0.387400
C1221	C122	0.528100	0.286300	0.415100
C1231	C123	0.562000	0.259100	0.403100
C1241	C124	0.622300	0.226900	0.353500
C1251	C125	0.473600	0.354200	0.394500
C1261	C126	0.433900	0.414900	0.374900
C1271	C127	0.412800	0.762300	0.136800
C1281	C128	0.424200	0.797800	0.167400
C1291	C129	0.458500	0.828100	0.155700
C1301	C130	0.484600	0.820200	0.112600
C1311	C131	0.471900	0.786300	0.084900
C1321	C132	0.438000	0.759100	0.096900
C1331	C133	0.377700	0.726900	0.146500
C1341	C134	0.526400	0.854200	0.105500
C1351	C135	0.566100	0.914900	0.125100
C1361	C136	0.087200	0.237700	0.636800
C1371	C137	0.075800	0.202200	0.667400
C1381	C138	0.041500	0.171900	0.655700
C1391	C139	0.015400	0.179800	0.612600
C1401	C140	0.028100	0.213700	0.584900
C1411	C141	0.062000	0.240900	0.596900
C1421	C142	0.122300	0.273100	0.646500
C1431	C143	0.973600	0.145800	0.605500
C1441	C144	0.933900	0.085100	0.625100
C1451	C145	0.237700	0.636800	0.087200
C1461	C146	0.202200	0.667400	0.075800
C1471	C147	0.171900	0.655700	0.041500
C1481	C148	0.179800	0.612600	0.015400
C1491	C149	0.213700	0.584900	0.028100
C1501	C150	0.240900	0.596900	0.062000
C1511	C151	0.273100	0.646500	0.122300
C1521	C152	0.145800	0.605500	0.973600
C1531	C153	0.085100	0.625100	0.933900
C1541	C154	0.762300	0.136800	0.412800
C1551	C155	0.797800	0.167400	0.424200
C1561	C156	0.828100	0.155700	0.458500
C1571	C157	0.820200	0.112600	0.484600
C1581	C158	0.786300	0.084900	0.471900
C1591	C159	0.759100	0.096900	0.438000
C1601	C160	0.726900	0.146500	0.377700
C1611	C161	0.854200	0.105500	0.526400
C1621	C162	0.914900	0.125100	0.566100
C1631	C163	0.262300	0.363200	0.587200
C1641	C164	0.297800	0.332600	0.575800
C1651	C165	0.328100	0.344300	0.541500
C1661	C166	0.320200	0.387400	0.515400
C1671	C167	0.286300	0.415100	0.528100
C1681	C168	0.259100	0.403100	0.562000
C1691	C169	0.226900	0.353500	0.622300
C1701	C170	0.354200	0.394500	0.473600
C1711	C171	0.414900	0.374900	0.433900
C1721	C172	0.737700	0.863200	0.912800
C1731	C173	0.702200	0.832600	0.924200
C1741	C174	0.671900	0.844300	0.958500
C1751	C175	0.679800	0.887400	0.984600
C1761	C176	0.713700	0.915100	0.971900
C1771	C177	0.740900	0.903100	0.938000
C1781	C178	0.773100	0.853500	0.877700
C1791	C179	0.645800	0.894500	0.026400
C1801	C180	0.585100	0.874900	0.066100
C1811	C181	0.136800	0.412800	0.762300
C1821	C182	0.167400	0.424200	0.797800
C1831	C183	0.155700	0.458500	0.828100
C1841	C184	0.112600	0.484600	0.820200
C1851	C185	0.084900	0.471900	0.786300
C1861	C186	0.096900	0.438000	0.759100
C1871	C187	0.146500	0.377700	0.726900
C1881	C188	0.105500	0.526400	0.854200
C1891	C189	0.125100	0.566100	0.914900
C1901	C190	0.636800	0.087200	0.237700
C1911	C191	0.667400	0.075800	0.202200
C1921	C192	0.655700	0.041500	0.171900
C1931	C193	0.612600	0.015400	0.179800
C1941	C194	0.584900	0.028100	0.213700
C1951	C195	0.596900	0.062000	0.240900
C1961	C196	0.646500	0.122300	0.273100
C1971	C197	0.605500	0.973600	0.145800
C1981	C198	0.625100	0.933900	0.085100
C1991	C199	0.863200	0.912800	0.737700
C2001	C200	0.832600	0.924200	0.702200
C2011	C201	0.844300	0.958500	0.671900
C2021	C202	0.887400	0.984600	0.679800
C2031	C203	0.915100	0.971900	0.713700
C2041	C204	0.903100	0.938000	0.740900
C2051	C205	0.853500	0.877700	0.773100
C2061	C206	0.894500	0.026400	0.645800
C2071	C207	0.874900	0.066100	0.585100
C2081	C208	0.363200	0.587200	0.262300
C2091	C209	0.332600	0.575800	0.297800
C2101	C210	0.344300	0.541500	0.328100
C2111	C211	0.387400	0.515400	0.320200
C2121	C212	0.415100	0.528100	0.286300
C2131	C213	0.403100	0.562000	0.259100
C2141	C214	0.353500	0.622300	0.226900
C2151	C215	0.394500	0.473600	0.354200
C2161	C216	0.374900	0.433900	0.414900
N11	N1	0.361500	0.279500	0.385700
N21	N2	0.405390	0.300200	0.320400
N31	N3	0.138500	0.720500	0.885700
N41	N4	0.094610	0.699800	0.820400
N51	N5	0.638500	0.779500	0.114300
N61	N6	0.594610	0.800200	0.179600
N71	N7	0.861500	0.220500	0.614300
N81	N8	0.905390	0.199800	0.679600
N91	N9	0.385700	0.361500	0.279500
N101	N10	0.320400	0.405390	0.300200
N111	N11	0.885700	0.138500	0.720500
N121	N12	0.820400	0.094610	0.699800
N131	N13	0.114300	0.638500	0.779500
N141	N14	0.179600	0.594610	0.800200
N151	N15	0.614300	0.861500	0.220500
N161	N16	0.679600	0.905390	0.199800
N171	N17	0.279500	0.385700	0.361500
N181	N18	0.300200	0.320400	0.405390
N191	N19	0.720500	0.885700	0.138500
N201	N20	0.699800	0.820400	0.094610
N211	N21	0.779500	0.114300	0.638500
N221	N22	0.800200	0.179600	0.594610
N231	N23	0.220500	0.614300	0.861500
N241	N24	0.199800	0.679600	0.905390
N251	N25	0.029500	0.611500	0.864300
N261	N26	0.050200	0.655390	0.929600
N271	N27	0.470500	0.388500	0.364300
N281	N28	0.449800	0.344610	0.429600
N291	N29	0.529500	0.888500	0.135700
N301	N30	0.550200	0.844610	0.070400
N311	N31	0.970500	0.111500	0.635700
N321	N32	0.949800	0.155390	0.570400
N331	N33	0.111500	0.635700	0.970500
N341	N34	0.155390	0.570400	0.949800
N351	N35	0.888500	0.135700	0.529500
N361	N36	0.844610	0.070400	0.550200
N371	N37	0.388500	0.364300	0.470500
N381	N38	0.344610	0.429600	0.449800
N391	N39	0.611500	0.864300	0.029500
N401	N40	0.655390	0.929600	0.050200
N411	N41	0.135700	0.529500	0.888500
N421	N42	0.070400	0.550200	0.844610
N431	N43	0.635700	0.970500	0.111500
N441	N44	0.570400	0.949800	0.155390
N451	N45	0.864300	0.029500	0.611500
N461	N46	0.929600	0.050200	0.655390
N471	N47	0.364300	0.470500	0.388500
N481	N48	0.429600	0.449800	0.344610
N491	N49	0.342430	0.342430	0.342430
N501	N50	0.157570	0.657570	0.842430
N511	N51	0.657570	0.842430	0.157570
N521	N52	0.842430	0.157570	0.657570
N531	N53	0.092430	0.592430	0.907570
N541	N54	0.407570	0.407570	0.407570
N551	N55	0.592430	0.907570	0.092430
N561	N56	0.907570	0.092430	0.592430
O11	O1	0.515730	0.103940	0.431130
O21	O2	0.562350	0.126180	0.370870
O31	O3	0.984270	0.896060	0.931130
O41	O4	0.937650	0.873820	0.870870
O51	O5	0.484270	0.603940	0.068870
O61	O6	0.437650	0.626180	0.129130
O71	O7	0.015730	0.396060	0.568870
O81	O8	0.062350	0.373820	0.629130
O91	O9	0.431130	0.515730	0.103940
O101	O10	0.370870	0.562350	0.126180
O111	O11	0.931130	0.984270	0.896060
O121	O12	0.870870	0.937650	0.873820
O131	O13	0.068870	0.484270	0.603940
O141	O14	0.129130	0.437650	0.626180
O151	O15	0.568870	0.015730	0.396060
O161	O16	0.629130	0.062350	0.373820
O171	O17	0.103940	0.431130	0.515730
O181	O18	0.126180	0.370870	0.562350
O191	O19	0.896060	0.931130	0.984270
O201	O20	0.873820	0.870870	0.937650
O211	O21	0.603940	0.068870	0.484270
O221	O22	0.626180	0.129130	0.437650
O231	O23	0.396060	0.568870	0.015730
O241	O24	0.373820	0.629130	0.062350
O251	O25	0.853940	0.765730	0.818870
O261	O26	0.876180	0.812350	0.879130
O271	O27	0.646060	0.234270	0.318870
O281	O28	0.623820	0.187650	0.379130
O291	O29	0.353940	0.734270	0.181130
O301	O30	0.376180	0.687650	0.120870
O311	O31	0.146060	0.265730	0.681130
O321	O32	0.123820	0.312350	0.620870
O331	O33	0.265730	0.681130	0.146060
O341	O34	0.312350	0.620870	0.123820
O351	O35	0.734270	0.181130	0.353940
O361	O36	0.687650	0.120870	0.376180
O371	O37	0.234270	0.318870	0.646060
O381	O38	0.187650	0.379130	0.623820
O391	O39	0.765730	0.818870	0.853940
O401	O40	0.812350	0.879130	0.876180
O411	O41	0.181130	0.353940	0.734270
O421	O42	0.120870	0.376180	0.687650
O431	O43	0.681130	0.146060	0.265730
O441	O44	0.620870	0.123820	0.312350
O451	O45	0.818870	0.853940	0.765730
O461	O46	0.879130	0.876180	0.812350
O471	O47	0.318870	0.646060	0.234270
O481	O48	0.379130	0.623820	0.187650
