data_ECOLEP_clean_PM
_symmetry_space_group_name_H-M	'P1'
_cell_length_a	18.640000
_cell_length_b	18.640000
_cell_length_c	18.640000
_cell_angle_alpha	90.000000
_cell_angle_beta	90.000000
_cell_angle_gamma	90.000000
_symmetry_Int_Tables_number 1

loop_
_symmetry_equiv_pos_as_xyz
'x,y,z'

loop_
_atom_site_label
_atom_site_type_symbol
_atom_site_fract_x
_atom_site_fract_y
_atom_site_fract_z
Co11	Co1	0.066720	0.933280	0.433280
Co21	Co2	0.433280	0.066720	0.933280
Co31	Co3	0.933280	0.433280	0.066720
Co41	Co4	0.566720	0.566720	0.566720
Co51	Co5	0.183280	0.816720	0.316720
Co61	Co6	0.316720	0.183280	0.816720
Co71	Co7	0.683280	0.683280	0.683280
Co81	Co8	0.816720	0.316720	0.183280
H11	H1	0.961800	0.625000	0.288200
H21	H2	0.538200	0.375000	0.788200
H31	H3	0.038200	0.125000	0.211800
H41	H4	0.461800	0.875000	0.711800
H51	H5	0.288200	0.961800	0.625000
H61	H6	0.788200	0.538200	0.375000
H71	H7	0.211800	0.038200	0.125000
H81	H8	0.711800	0.461800	0.875000
H91	H9	0.625000	0.288200	0.961800
H101	H10	0.375000	0.788200	0.538200
H111	H11	0.125000	0.211800	0.038200
H121	H12	0.875000	0.711800	0.461800
C11	C1	0.927450	0.677450	0.375000
C21	C2	0.983670	0.733670	0.375000
C31	C3	0.572550	0.322550	0.875000
C41	C4	0.516330	0.266330	0.875000
C51	C5	0.072550	0.177450	0.125000
C61	C6	0.016330	0.233670	0.125000
C71	C7	0.427450	0.822550	0.625000
C81	C8	0.483670	0.766330	0.625000
C91	C9	0.375000	0.927450	0.677450
C101	C10	0.375000	0.983670	0.733670
C111	C11	0.875000	0.572550	0.322550
C121	C12	0.875000	0.516330	0.266330
C131	C13	0.125000	0.072550	0.177450
C141	C14	0.125000	0.016330	0.233670
C151	C15	0.625000	0.427450	0.822550
C161	C16	0.625000	0.483670	0.766330
C171	C17	0.677450	0.375000	0.927450
C181	C18	0.733670	0.375000	0.983670
C191	C19	0.322550	0.875000	0.572550
C201	C20	0.266330	0.875000	0.516330
C211	C21	0.177450	0.125000	0.072550
C221	C22	0.233670	0.125000	0.016330
C231	C23	0.822550	0.625000	0.427450
C241	C24	0.766330	0.625000	0.483670
C251	C25	0.926500	0.625000	0.323500
C261	C26	0.573500	0.375000	0.823500
C271	C27	0.073500	0.125000	0.176500
C281	C28	0.426500	0.875000	0.676500
C291	C29	0.323500	0.926500	0.625000
C301	C30	0.823500	0.573500	0.375000
C311	C31	0.176500	0.073500	0.125000
C321	C32	0.676500	0.426500	0.875000
C331	C33	0.625000	0.323500	0.926500
C341	C34	0.375000	0.823500	0.573500
C351	C35	0.125000	0.176500	0.073500
C361	C36	0.875000	0.676500	0.426500
N11	N1	0.038550	0.829390	0.396790
N21	N2	0.978080	0.794490	0.412630
N31	N3	0.461450	0.170610	0.896790
N41	N4	0.521920	0.205510	0.912630
N51	N5	0.961450	0.329390	0.103210
N61	N6	0.021920	0.294490	0.087370
N71	N7	0.538550	0.670610	0.603210
N81	N8	0.478080	0.705510	0.587370
N91	N9	0.396790	0.038550	0.829390
N101	N10	0.412630	0.978080	0.794490
N111	N11	0.896790	0.461450	0.170610
N121	N12	0.912630	0.521920	0.205510
N131	N13	0.103210	0.961450	0.329390
N141	N14	0.087370	0.021920	0.294490
N151	N15	0.603210	0.538550	0.670610
N161	N16	0.587370	0.478080	0.705510
N171	N17	0.829390	0.396790	0.038550
N181	N18	0.794490	0.412630	0.978080
N191	N19	0.170610	0.896790	0.461450
N201	N20	0.205510	0.912630	0.521920
N211	N21	0.329390	0.103210	0.961450
N221	N22	0.294490	0.087370	0.021920
N231	N23	0.670610	0.603210	0.538550
N241	N24	0.705510	0.587370	0.478080
N251	N25	0.079390	0.788550	0.353210
N261	N26	0.044490	0.728080	0.337370
N271	N27	0.420610	0.211450	0.853210
N281	N28	0.455510	0.271920	0.837370
N291	N29	0.579390	0.711450	0.646790
N301	N30	0.544490	0.771920	0.662630
N311	N31	0.920610	0.288550	0.146790
N321	N32	0.955510	0.228080	0.162630
N331	N33	0.288550	0.146790	0.920610
N341	N34	0.228080	0.162630	0.955510
N351	N35	0.711450	0.646790	0.579390
N361	N36	0.771920	0.662630	0.544490
N371	N37	0.211450	0.853210	0.420610
N381	N38	0.271920	0.837370	0.455510
N391	N39	0.788550	0.353210	0.079390
N401	N40	0.728080	0.337370	0.044490
N411	N41	0.646790	0.579390	0.711450
N421	N42	0.662630	0.544490	0.771920
N431	N43	0.146790	0.920610	0.288550
N441	N44	0.162630	0.955510	0.228080
N451	N45	0.353210	0.079390	0.788550
N461	N46	0.337370	0.044490	0.728080
N471	N47	0.853210	0.420610	0.211450
N481	N48	0.837370	0.455510	0.271920
