data_ECOLOX_clean_PM
_symmetry_space_group_name_H-M	'P1'
_cell_length_a	9.444200
_cell_length_b	15.449000
_cell_length_c	9.571900
_cell_angle_alpha	90.000000
_cell_angle_beta	93.268000
_cell_angle_gamma	90.000000
_symmetry_Int_Tables_number 1

loop_
_symmetry_equiv_pos_as_xyz
'x,y,z'

loop_
_atom_site_label
_atom_site_type_symbol
_atom_site_fract_x
_atom_site_fract_y
_atom_site_fract_z
U11	U1	0.450780	0.229630	0.198320
P11	P1	0.203000	0.201400	0.968300
O11	O1	0.364500	0.201100	0.949300
O21	O2	0.196100	0.231100	0.117600
O31	O3	0.124800	0.264700	0.864800
O41	O4	0.147600	0.109200	0.946400
U21	U2	0.950780	0.729630	0.698320
P21	P2	0.703000	0.701400	0.468300
O51	O5	0.864500	0.701100	0.449300
O61	O6	0.696100	0.731100	0.617600
O71	O7	0.624800	0.764700	0.364800
O81	O8	0.647600	0.609200	0.446400
U31	U3	0.549220	0.229630	0.801680
P31	P3	0.797000	0.201400	0.031700
O91	O9	0.635500	0.201100	0.050700
O101	O10	0.803900	0.231100	0.882400
O111	O11	0.875200	0.264700	0.135200
O121	O12	0.852400	0.109200	0.053600
U41	U4	0.049220	0.729630	0.301680
P41	P4	0.297000	0.701400	0.531700
O131	O13	0.135500	0.701100	0.550700
O141	O14	0.303900	0.731100	0.382400
O151	O15	0.375200	0.764700	0.635200
O161	O16	0.352400	0.609200	0.553600
U51	U5	0.549220	0.770370	0.801680
P51	P5	0.797000	0.798600	0.031700
O171	O17	0.635500	0.798900	0.050700
O181	O18	0.803900	0.768900	0.882400
O191	O19	0.875200	0.735300	0.135200
O201	O20	0.852400	0.890800	0.053600
U61	U6	0.049220	0.270370	0.301680
P61	P6	0.297000	0.298600	0.531700
O211	O21	0.135500	0.298900	0.550700
O221	O22	0.303900	0.268900	0.382400
O231	O23	0.375200	0.235300	0.635200
O241	O24	0.352400	0.390800	0.553600
U71	U7	0.450780	0.770370	0.198320
P71	P7	0.203000	0.798600	0.968300
O251	O25	0.364500	0.798900	0.949300
O261	O26	0.196100	0.768900	0.117600
O271	O27	0.124800	0.735300	0.864800
O281	O28	0.147600	0.890800	0.946400
U81	U8	0.950780	0.270370	0.698320
P81	P8	0.703000	0.298600	0.468300
O291	O29	0.864500	0.298900	0.449300
O301	O30	0.696100	0.268900	0.617600
O311	O31	0.624800	0.235300	0.364800
O321	O32	0.647600	0.390800	0.446400
U91	U9	0.000000	0.000000	0.000000
U101	U10	0.500000	0.500000	0.500000
