data_ECOSIY_clean_PM
_symmetry_space_group_name_H-M	'P1'
_cell_length_a	8.303000
_cell_length_b	8.303000
_cell_length_c	20.334000
_cell_angle_alpha	90.000000
_cell_angle_beta	90.000000
_cell_angle_gamma	120.000000
_symmetry_Int_Tables_number 1

loop_
_symmetry_equiv_pos_as_xyz
'x,y,z'

loop_
_atom_site_label
_atom_site_type_symbol
_atom_site_fract_x
_atom_site_fract_y
_atom_site_fract_z
Co11	Co1	0.422240	0.285320	0.000660
Co21	Co2	0.863080	0.577760	0.000660
Co31	Co3	0.714680	0.136920	0.000660
Co41	Co4	0.136920	0.714680	0.499340
Co51	Co5	0.285320	0.422240	0.499340
Co61	Co6	0.577760	0.863080	0.499340
Co71	Co7	0.577760	0.714680	0.999340
Co81	Co8	0.136920	0.422240	0.999340
Co91	Co9	0.285320	0.863080	0.999340
Co101	Co10	0.863080	0.285320	0.500660
Co111	Co11	0.714680	0.577760	0.500660
Co121	Co12	0.422240	0.136920	0.500660
Co131	Co13	0.000000	0.000000	0.084720
Co141	Co14	0.000000	0.000000	0.415280
Co151	Co15	0.000000	0.000000	0.915280
Co161	Co16	0.000000	0.000000	0.584720
H11	H1	0.305000	0.085000	0.090000
H21	H2	0.477300	0.102800	0.903400
H31	H3	0.151100	0.873500	0.206600
H41	H4	0.942500	0.730400	0.189900
H51	H5	0.780000	0.695000	0.090000
H61	H6	0.625500	0.522700	0.903400
H71	H7	0.722400	0.848900	0.206600
H81	H8	0.787900	0.057500	0.189900
H91	H9	0.915000	0.220000	0.090000
H101	H10	0.897200	0.374500	0.903400
H111	H11	0.126500	0.277600	0.206600
H121	H12	0.269600	0.212100	0.189900
H131	H13	0.220000	0.915000	0.410000
H141	H14	0.374500	0.897200	0.596600
H151	H15	0.277600	0.126500	0.293400
H161	H16	0.212100	0.269600	0.310100
H171	H17	0.085000	0.305000	0.410000
H181	H18	0.102800	0.477300	0.596600
H191	H19	0.873500	0.151100	0.293400
H201	H20	0.730400	0.942500	0.310100
H211	H21	0.695000	0.780000	0.410000
H221	H22	0.522700	0.625500	0.596600
H231	H23	0.848900	0.722400	0.293400
H241	H24	0.057500	0.787900	0.310100
H251	H25	0.695000	0.915000	0.910000
H261	H26	0.522700	0.897200	0.096600
H271	H27	0.848900	0.126500	0.793400
H281	H28	0.057500	0.269600	0.810100
H291	H29	0.220000	0.305000	0.910000
H301	H30	0.374500	0.477300	0.096600
H311	H31	0.277600	0.151100	0.793400
H321	H32	0.212100	0.942500	0.810100
H331	H33	0.085000	0.780000	0.910000
H341	H34	0.102800	0.625500	0.096600
H351	H35	0.873500	0.722400	0.793400
H361	H36	0.730400	0.787900	0.810100
H371	H37	0.780000	0.085000	0.590000
H381	H38	0.625500	0.102800	0.403400
H391	H39	0.722400	0.873500	0.706600
H401	H40	0.787900	0.730400	0.689900
H411	H41	0.915000	0.695000	0.590000
H421	H42	0.897200	0.522700	0.403400
H431	H43	0.126500	0.848900	0.706600
H441	H44	0.269600	0.057500	0.689900
H451	H45	0.305000	0.220000	0.590000
H461	H46	0.477300	0.374500	0.403400
H471	H47	0.151100	0.277600	0.706600
H481	H48	0.942500	0.212100	0.689900
C11	C1	0.023800	0.845300	0.212900
C21	C2	0.821500	0.976200	0.212900
C31	C3	0.154700	0.178500	0.212900
C41	C4	0.178500	0.154700	0.287100
C51	C5	0.845300	0.023800	0.287100
C61	C6	0.976200	0.821500	0.287100
C71	C7	0.976200	0.154700	0.787100
C81	C8	0.178500	0.023800	0.787100
C91	C9	0.845300	0.821500	0.787100
C101	C10	0.821500	0.845300	0.712900
C111	C11	0.154700	0.976200	0.712900
C121	C12	0.023800	0.178500	0.712900
N11	N1	0.000000	0.000000	0.185500
N21	N2	0.000000	0.000000	0.314500
N31	N3	0.000000	0.000000	0.814500
N41	N4	0.000000	0.000000	0.685500
O11	O1	0.249900	0.053500	0.059500
O21	O2	0.477100	0.101600	0.952620
O31	O3	0.803600	0.750100	0.059500
O41	O4	0.624500	0.522900	0.952620
O51	O5	0.946500	0.196400	0.059500
O61	O6	0.898400	0.375500	0.952620
O71	O7	0.196400	0.946500	0.440500
O81	O8	0.375500	0.898400	0.547380
O91	O9	0.053500	0.249900	0.440500
O101	O10	0.101600	0.477100	0.547380
O111	O11	0.750100	0.803600	0.440500
O121	O12	0.522900	0.624500	0.547380
O131	O13	0.750100	0.946500	0.940500
O141	O14	0.522900	0.898400	0.047380
O151	O15	0.196400	0.249900	0.940500
O161	O16	0.375500	0.477100	0.047380
O171	O17	0.053500	0.803600	0.940500
O181	O18	0.101600	0.624500	0.047380
O191	O19	0.803600	0.053500	0.559500
O201	O20	0.624500	0.101600	0.452620
O211	O21	0.946500	0.750100	0.559500
O221	O22	0.898400	0.522900	0.452620
O231	O23	0.249900	0.196400	0.559500
O241	O24	0.477100	0.375500	0.452620
