data_ECUFEP_charged_PM
_symmetry_space_group_name_H-M	'P1'
_cell_length_a	9.492600
_cell_length_b	12.935700
_cell_length_c	12.935700
_cell_angle_alpha	92.373900
_cell_angle_beta	90.000000
_cell_angle_gamma	90.000000
_symmetry_Int_Tables_number 1

loop_
_symmetry_equiv_pos_as_xyz
'x,y,z'

loop_
_atom_site_label
_atom_site_type_symbol
_atom_site_fract_x
_atom_site_fract_y
_atom_site_fract_z
U11	U1	0.264630	0.318130	0.902490
U21	U2	0.764630	0.681870	0.097510
U31	U3	0.764630	0.097510	0.681870
U41	U4	0.264630	0.902490	0.318130
U51	U5	0.095100	0.791090	0.791090
U61	U6	0.595100	0.208910	0.208910
Ag11	Ag1	0.083000	0.003400	0.003400
Ag21	Ag2	0.583000	0.996600	0.996600
P11	P1	0.139000	0.070000	0.770800
P21	P2	0.071600	0.962300	0.570100
P31	P3	0.639000	0.930000	0.229200
P41	P4	0.571600	0.037700	0.429900
P51	P5	0.639000	0.229200	0.930000
P61	P6	0.571600	0.429900	0.037700
P71	P7	0.139000	0.770800	0.070000
P81	P8	0.071600	0.570100	0.962300
H11	H1	0.089800	0.188100	0.588100
H21	H2	0.215300	0.153900	0.515700
H31	H3	0.245500	0.208300	0.623900
H41	H4	0.333400	0.965200	0.588400
H51	H5	0.589800	0.811900	0.411900
H61	H6	0.715300	0.846100	0.484300
H71	H7	0.745500	0.791700	0.376100
H81	H8	0.833400	0.034800	0.411600
H91	H9	0.589800	0.411900	0.811900
H101	H10	0.715300	0.484300	0.846100
H111	H11	0.745500	0.376100	0.791700
H121	H12	0.833400	0.411600	0.034800
H131	H13	0.089800	0.588100	0.188100
H141	H14	0.215300	0.515700	0.153900
H151	H15	0.245500	0.623900	0.208300
H161	H16	0.333400	0.588400	0.965200
C11	C1	0.187200	0.057100	0.634900
C21	C2	0.184200	0.161400	0.586200
C31	C3	0.687200	0.942900	0.365100
C41	C4	0.684200	0.838600	0.413800
C51	C5	0.687200	0.365100	0.942900
C61	C6	0.684200	0.413800	0.838600
C71	C7	0.187200	0.634900	0.057100
C81	C8	0.184200	0.586200	0.161400
O11	O1	0.308100	0.368400	0.781200
O21	O2	0.019100	0.301400	0.840400
O31	O3	0.228800	0.153600	0.821200
O41	O4	0.159900	0.965900	0.819100
O51	O5	0.926200	0.013900	0.566300
O61	O6	0.067600	0.865600	0.632400
O71	O7	0.984000	0.100300	0.769900
O81	O8	0.216700	0.266600	0.023200
O91	O9	0.131600	0.941800	0.464200
O101	O10	0.330600	0.014000	0.631000
O111	O11	0.808100	0.631600	0.218800
O121	O12	0.519100	0.698600	0.159600
O131	O13	0.728800	0.846400	0.178800
O141	O14	0.659900	0.034100	0.180900
O151	O15	0.426200	0.986100	0.433700
O161	O16	0.567600	0.134400	0.367600
O171	O17	0.484000	0.899700	0.230100
O181	O18	0.716700	0.733400	0.976800
O191	O19	0.631600	0.058200	0.535800
O201	O20	0.830600	0.986000	0.369000
O211	O21	0.808100	0.218800	0.631600
O221	O22	0.519100	0.159600	0.698600
O231	O23	0.728800	0.178800	0.846400
O241	O24	0.659900	0.180900	0.034100
O251	O25	0.426200	0.433700	0.986100
O261	O26	0.567600	0.367600	0.134400
O271	O27	0.484000	0.230100	0.899700
O281	O28	0.716700	0.976800	0.733400
O291	O29	0.631600	0.535800	0.058200
O301	O30	0.830600	0.369000	0.986000
O311	O31	0.308100	0.781200	0.368400
O321	O32	0.019100	0.840400	0.301400
O331	O33	0.228800	0.821200	0.153600
O341	O34	0.159900	0.819100	0.965900
O351	O35	0.926200	0.566300	0.013900
O361	O36	0.067600	0.632400	0.865600
O371	O37	0.984000	0.769900	0.100300
O381	O38	0.216700	0.023200	0.266600
O391	O39	0.131600	0.464200	0.941800
O401	O40	0.330600	0.631000	0.014000
O411	O41	0.922000	0.819100	0.819100
O421	O42	0.018000	0.658700	0.658700
O431	O43	0.276100	0.759000	0.759000
O441	O44	0.172000	0.115200	0.115200
O451	O45	0.317000	0.024100	0.024100
O461	O46	0.422000	0.180900	0.180900
O471	O47	0.518000	0.341300	0.341300
O481	O48	0.776100	0.241000	0.241000
O491	O49	0.672000	0.884800	0.884800
O501	O50	0.817000	0.975900	0.975900
