data_EDADET_clean_PM
_symmetry_space_group_name_H-M	'P1'
_cell_length_a	6.798100
_cell_length_b	11.978000
_cell_length_c	13.515000
_cell_angle_alpha	90.000000
_cell_angle_beta	100.174000
_cell_angle_gamma	90.000000
_symmetry_Int_Tables_number 1

loop_
_symmetry_equiv_pos_as_xyz
'x,y,z'

loop_
_atom_site_label
_atom_site_type_symbol
_atom_site_fract_x
_atom_site_fract_y
_atom_site_fract_z
Pr11	Pr1	0.556280	0.670140	0.756510
Pr21	Pr2	0.443720	0.170140	0.743490
Pr31	Pr3	0.443720	0.329860	0.243490
Pr41	Pr4	0.556280	0.829860	0.256510
H11	H1	0.301000	0.935900	0.460600
H21	H2	0.962000	0.802600	0.645200
H31	H3	0.699000	0.435900	0.039400
H41	H4	0.038000	0.302600	0.854800
H51	H5	0.699000	0.064100	0.539400
H61	H6	0.038000	0.197400	0.354800
H71	H7	0.301000	0.564100	0.960600
H81	H8	0.962000	0.697400	0.145200
C11	C1	0.624000	0.766100	0.505300
C21	C2	0.829000	0.810600	0.499300
C31	C3	0.031000	0.878500	0.392100
C41	C4	0.046000	0.895700	0.283600
C51	C5	0.183000	0.902600	0.471600
C61	C6	0.156000	0.876200	0.567300
C71	C7	0.317000	0.900400	0.657000
C81	C8	0.979000	0.825800	0.581600
C91	C9	0.376000	0.266100	0.994700
C101	C10	0.171000	0.310600	0.000700
C111	C11	0.969000	0.378500	0.107900
C121	C12	0.954000	0.395700	0.216400
C131	C13	0.817000	0.402600	0.028400
C141	C14	0.844000	0.376200	0.932700
C151	C15	0.683000	0.400400	0.843000
C161	C16	0.021000	0.325800	0.918400
C171	C17	0.376000	0.233900	0.494700
C181	C18	0.171000	0.189400	0.500700
C191	C19	0.969000	0.121500	0.607900
C201	C20	0.954000	0.104300	0.716400
C211	C21	0.817000	0.097400	0.528400
C221	C22	0.844000	0.123800	0.432700
C231	C23	0.683000	0.099600	0.343000
C241	C24	0.021000	0.174200	0.418400
C251	C25	0.624000	0.733900	0.005300
C261	C26	0.829000	0.689400	0.999300
C271	C27	0.031000	0.621500	0.892100
C281	C28	0.046000	0.604300	0.783600
C291	C29	0.183000	0.597400	0.971600
C301	C30	0.156000	0.623800	0.067300
C311	C31	0.317000	0.599600	0.157000
C321	C32	0.979000	0.674200	0.081600
N11	N1	0.855000	0.836400	0.405900
N21	N2	0.145000	0.336400	0.094100
N31	N3	0.145000	0.163600	0.594100
N41	N4	0.855000	0.663600	0.905900
O11	O1	0.582800	0.742900	0.589500
O21	O2	0.504800	0.755900	0.422900
O31	O3	0.883700	0.899500	0.221700
O41	O4	0.216900	0.906000	0.261200
O51	O5	0.421100	0.986700	0.654700
O61	O6	0.335000	0.832100	0.728400
O71	O7	0.417200	0.242900	0.910500
O81	O8	0.495200	0.255900	0.077100
O91	O9	0.116300	0.399500	0.278300
O101	O10	0.783100	0.406000	0.238800
O111	O11	0.578900	0.486700	0.845300
O121	O12	0.665000	0.332100	0.771600
O131	O13	0.417200	0.257100	0.410500
O141	O14	0.495200	0.244100	0.577100
O151	O15	0.116300	0.100500	0.778300
O161	O16	0.783100	0.094000	0.738800
O171	O17	0.578900	0.013300	0.345300
O181	O18	0.665000	0.167900	0.271600
O191	O19	0.582800	0.757100	0.089500
O201	O20	0.504800	0.744100	0.922900
O211	O21	0.883700	0.600500	0.721700
O221	O22	0.216900	0.594000	0.761200
O231	O23	0.421100	0.513300	0.154700
O241	O24	0.335000	0.667900	0.228400
