data_EDATOT_clean_PM
_symmetry_space_group_name_H-M	'P1'
_cell_length_a	21.010000
_cell_length_b	15.988000
_cell_length_c	21.963000
_cell_angle_alpha	90.000000
_cell_angle_beta	90.339000
_cell_angle_gamma	90.000000
_symmetry_Int_Tables_number 1

loop_
_symmetry_equiv_pos_as_xyz
'x,y,z'

loop_
_atom_site_label
_atom_site_type_symbol
_atom_site_fract_x
_atom_site_fract_y
_atom_site_fract_z
Cr11	Cr1	0.126660	0.506700	0.247890
Cr21	Cr2	0.752730	0.761920	0.377220
Mn11	Mn1	0.868830	0.515400	0.244680
Mn21	Mn2	0.258690	0.751200	0.126130
O11	O1	0.193200	0.518100	0.187600
O21	O2	0.135100	0.632300	0.246200
O31	O3	0.185500	0.728300	0.192100
O41	O4	0.254900	0.614100	0.142100
O51	O5	0.130200	0.384300	0.249200
O61	O6	0.191300	0.483000	0.315600
O71	O7	0.167800	0.275500	0.303400
O81	O8	0.238000	0.387400	0.366400
O91	O9	0.055800	0.515300	0.304900
O101	O10	0.058200	0.514100	0.193700
O111	O11	0.947400	0.513300	0.308100
O121	O12	0.949100	0.527000	0.181600
O131	O13	0.751800	0.636500	0.370900
O141	O14	0.816100	0.752100	0.310800
O151	O15	0.799100	0.534500	0.317300
O161	O16	0.857400	0.655500	0.247200
O171	O17	0.746400	0.382600	0.126900
O181	O18	0.816300	0.279400	0.183800
O191	O19	0.797400	0.496400	0.169500
O201	O20	0.861700	0.376400	0.239300
O211	O21	0.314300	0.744700	0.943900
O221	O22	0.320900	0.740800	0.045600
O231	O23	0.195100	0.740500	0.944200
O241	O24	0.191900	0.746400	0.050000
C11	C1	0.173500	0.654900	0.211600
C21	C2	0.212600	0.592700	0.175900
C31	C3	0.160200	0.352000	0.286000
C41	C4	0.198400	0.413800	0.326600
C51	C5	0.001000	0.514000	0.279100
C61	C6	0.997200	0.520300	0.212500
C71	C7	0.786400	0.601100	0.332000
C81	C8	0.826500	0.680000	0.291500
C91	C9	0.790300	0.417300	0.162300
C101	C10	0.825000	0.355800	0.199000
C111	C11	0.287700	0.742100	0.995100
C121	C12	0.220100	0.741300	0.997900
Cr31	Cr3	0.373340	0.006700	0.252110
Cr41	Cr4	0.747270	0.261920	0.122780
Mn31	Mn3	0.631170	0.015400	0.255320
Mn41	Mn4	0.241310	0.251200	0.373870
O251	O25	0.306800	0.018100	0.312400
O261	O26	0.364900	0.132300	0.253800
O271	O27	0.314500	0.228300	0.307900
O281	O28	0.245100	0.114100	0.357900
O291	O29	0.369800	0.884300	0.250800
O301	O30	0.308700	0.983000	0.184400
O311	O31	0.332200	0.775500	0.196600
O321	O32	0.262000	0.887400	0.133600
O331	O33	0.444200	0.015300	0.195100
O341	O34	0.441800	0.014100	0.306300
O351	O35	0.552600	0.013300	0.191900
O361	O36	0.550900	0.027000	0.318400
O371	O37	0.748200	0.136500	0.129100
O381	O38	0.683900	0.252100	0.189200
O391	O39	0.700900	0.034500	0.182700
O401	O40	0.642600	0.155500	0.252800
O411	O41	0.753600	0.882600	0.373100
O421	O42	0.683700	0.779400	0.316200
O431	O43	0.702600	0.996400	0.330500
O441	O44	0.638300	0.876400	0.260700
O451	O45	0.185700	0.244700	0.556100
O461	O46	0.179100	0.240800	0.454400
O471	O47	0.304900	0.240500	0.555800
O481	O48	0.308100	0.246400	0.450000
C131	C13	0.326500	0.154900	0.288400
C141	C14	0.287400	0.092700	0.324100
C151	C15	0.339800	0.852000	0.214000
C161	C16	0.301600	0.913800	0.173400
C171	C17	0.499000	0.014000	0.220900
C181	C18	0.502800	0.020300	0.287500
C191	C19	0.713600	0.101100	0.168000
C201	C20	0.673500	0.180000	0.208500
C211	C21	0.709700	0.917300	0.337700
C221	C22	0.675000	0.855800	0.301000
C231	C23	0.212300	0.242100	0.504900
C241	C24	0.279900	0.241300	0.502100
Cr51	Cr5	0.873340	0.493300	0.752110
Cr61	Cr6	0.247270	0.238080	0.622780
Mn51	Mn5	0.131170	0.484600	0.755320
Mn61	Mn6	0.741310	0.248800	0.873870
O491	O49	0.806800	0.481900	0.812400
O501	O50	0.864900	0.367700	0.753800
O511	O51	0.814500	0.271700	0.807900
O521	O52	0.745100	0.385900	0.857900
O531	O53	0.869800	0.615700	0.750800
O541	O54	0.808700	0.517000	0.684400
O551	O55	0.832200	0.724500	0.696600
O561	O56	0.762000	0.612600	0.633600
O571	O57	0.944200	0.484700	0.695100
O581	O58	0.941800	0.485900	0.806300
O591	O59	0.052600	0.486700	0.691900
O601	O60	0.050900	0.473000	0.818400
O611	O61	0.248200	0.363500	0.629100
O621	O62	0.183900	0.247900	0.689200
O631	O63	0.200900	0.465500	0.682700
O641	O64	0.142600	0.344500	0.752800
O651	O65	0.253600	0.617400	0.873100
O661	O66	0.183700	0.720600	0.816200
O671	O67	0.202600	0.503600	0.830500
O681	O68	0.138300	0.623600	0.760700
O691	O69	0.685700	0.255300	0.056100
O701	O70	0.679100	0.259200	0.954400
O711	O71	0.804900	0.259500	0.055800
O721	O72	0.808100	0.253600	0.950000
C251	C25	0.826500	0.345100	0.788400
C261	C26	0.787400	0.407300	0.824100
C271	C27	0.839800	0.648000	0.714000
C281	C28	0.801600	0.586200	0.673400
C291	C29	0.999000	0.486000	0.720900
C301	C30	0.002800	0.479700	0.787500
C311	C31	0.213600	0.398900	0.668000
C321	C32	0.173500	0.320000	0.708500
C331	C33	0.209700	0.582700	0.837700
C341	C34	0.175000	0.644200	0.801000
C351	C35	0.712300	0.257900	0.004900
C361	C36	0.779900	0.258700	0.002100
Cr71	Cr7	0.626660	0.993300	0.747890
Cr81	Cr8	0.252730	0.738080	0.877220
Mn71	Mn7	0.368830	0.984600	0.744680
Mn81	Mn8	0.758690	0.748800	0.626130
O731	O73	0.693200	0.981900	0.687600
O741	O74	0.635100	0.867700	0.746200
O751	O75	0.685500	0.771700	0.692100
O761	O76	0.754900	0.885900	0.642100
O771	O77	0.630200	0.115700	0.749200
O781	O78	0.691300	0.017000	0.815600
O791	O79	0.667800	0.224500	0.803400
O801	O80	0.738000	0.112600	0.866400
O811	O81	0.555800	0.984700	0.804900
O821	O82	0.558200	0.985900	0.693700
O831	O83	0.447400	0.986700	0.808100
O841	O84	0.449100	0.973000	0.681600
O851	O85	0.251800	0.863500	0.870900
O861	O86	0.316100	0.747900	0.810800
O871	O87	0.299100	0.965500	0.817300
O881	O88	0.357400	0.844500	0.747200
O891	O89	0.246400	0.117400	0.626900
O901	O90	0.316300	0.220600	0.683800
O911	O91	0.297400	0.003600	0.669500
O921	O92	0.361700	0.123600	0.739300
O931	O93	0.814300	0.755300	0.443900
O941	O94	0.820900	0.759200	0.545600
O951	O95	0.695100	0.759500	0.444200
O961	O96	0.691900	0.753600	0.550000
C371	C37	0.673500	0.845100	0.711600
C381	C38	0.712600	0.907300	0.675900
C391	C39	0.660200	0.148000	0.786000
C401	C40	0.698400	0.086200	0.826600
C411	C41	0.501000	0.986000	0.779100
C421	C42	0.497200	0.979700	0.712500
C431	C43	0.286400	0.898900	0.832000
C441	C44	0.326500	0.820000	0.791500
C451	C45	0.290300	0.082700	0.662300
C461	C46	0.325000	0.144200	0.699000
C471	C47	0.787700	0.757900	0.495100
C481	C48	0.720100	0.758700	0.497900
