data_EDIKIL_clean_PM
_symmetry_space_group_name_H-M	'P1'
_cell_length_a	11.551600
_cell_length_b	17.167700
_cell_length_c	8.718500
_cell_angle_alpha	90.000000
_cell_angle_beta	130.635000
_cell_angle_gamma	90.000000
_symmetry_Int_Tables_number 1

loop_
_symmetry_equiv_pos_as_xyz
'x,y,z'

loop_
_atom_site_label
_atom_site_type_symbol
_atom_site_fract_x
_atom_site_fract_y
_atom_site_fract_z
Y11	Y1	0.441000	0.128000	0.260500
O11	O1	0.670600	0.170500	0.361500
O21	O2	0.568500	0.075900	0.584300
O31	O3	0.523800	0.236500	0.472200
O41	O4	0.708100	0.325000	0.652400
O51	O5	0.852300	0.263100	0.538400
O61	O6	0.572200	0.983400	0.770000
O71	O7	0.318500	0.921600	0.433000
O81	O8	0.309300	0.017600	0.253000
C11	C1	0.737100	0.234300	0.484200
C21	C2	0.652900	0.271700	0.549500
C31	C3	0.519000	0.019400	0.605600
C41	C4	0.371400	0.984400	0.413000
Y21	Y2	0.941000	0.628000	0.260500
O91	O9	0.170600	0.670500	0.361500
O101	O10	0.068500	0.575900	0.584300
O111	O11	0.023800	0.736500	0.472200
O121	O12	0.208100	0.825000	0.652400
O131	O13	0.352300	0.763100	0.538400
O141	O14	0.072200	0.483400	0.770000
O151	O15	0.818500	0.421600	0.433000
O161	O16	0.809300	0.517600	0.253000
C51	C5	0.237100	0.734300	0.484200
C61	C6	0.152900	0.771700	0.549500
C71	C7	0.019000	0.519400	0.605600
C81	C8	0.871400	0.484400	0.413000
Y31	Y3	0.441000	0.872000	0.760500
O171	O17	0.670600	0.829500	0.861500
O181	O18	0.568500	0.924100	0.084300
O191	O19	0.523800	0.763500	0.972200
O201	O20	0.708100	0.675000	0.152400
O211	O21	0.852300	0.736900	0.038400
O221	O22	0.572200	0.016600	0.270000
O231	O23	0.318500	0.078400	0.933000
O241	O24	0.309300	0.982400	0.753000
C91	C9	0.737100	0.765700	0.984200
C101	C10	0.652900	0.728300	0.049500
C111	C11	0.519000	0.980600	0.105600
C121	C12	0.371400	0.015600	0.913000
Y41	Y4	0.941000	0.372000	0.760500
O251	O25	0.170600	0.329500	0.861500
O261	O26	0.068500	0.424100	0.084300
O271	O27	0.023800	0.263500	0.972200
O281	O28	0.208100	0.175000	0.152400
O291	O29	0.352300	0.236900	0.038400
O301	O30	0.072200	0.516600	0.270000
O311	O31	0.818500	0.578400	0.933000
O321	O32	0.809300	0.482400	0.753000
C131	C13	0.237100	0.265700	0.984200
C141	C14	0.152900	0.228300	0.049500
C151	C15	0.019000	0.480600	0.105600
C161	C16	0.871400	0.515600	0.913000
