data_EDIKEH_clean_PM
_symmetry_space_group_name_H-M	'P1'
_cell_length_a	8.229300
_cell_length_b	9.738600
_cell_length_c	9.754300
_cell_angle_alpha	60.741000
_cell_angle_beta	72.357000
_cell_angle_gamma	84.666000
_symmetry_Int_Tables_number 1

loop_
_symmetry_equiv_pos_as_xyz
'x,y,z'

loop_
_atom_site_label
_atom_site_type_symbol
_atom_site_fract_x
_atom_site_fract_y
_atom_site_fract_z
Y11	Y1	0.670400	0.841300	0.786800
O11	O1	0.690200	0.906800	0.988100
O21	O2	0.470000	0.660500	0.036900
O31	O3	0.881700	0.828400	0.561400
O41	O4	0.560200	0.008200	0.153200
O51	O5	0.463200	0.812000	0.673200
O61	O6	0.086900	0.972000	0.328900
O71	O7	0.329800	0.422300	0.181100
O81	O8	0.340400	0.921700	0.470200
C11	C1	0.443000	0.923500	0.541100
C21	C2	0.572900	0.976000	0.039200
C31	C3	0.992900	0.943500	0.467400
C41	C4	0.441900	0.524000	0.063500
Y21	Y2	0.329600	0.158700	0.213200
O91	O9	0.309800	0.093200	0.011900
O101	O10	0.530000	0.339500	0.963100
O111	O11	0.118300	0.171600	0.438600
O121	O12	0.439800	0.991800	0.846800
O131	O13	0.536800	0.188000	0.326800
O141	O14	0.913100	0.028000	0.671100
O151	O15	0.670200	0.577700	0.818900
O161	O16	0.659600	0.078300	0.529800
C51	C5	0.557000	0.076500	0.458900
C61	C6	0.427100	0.024000	0.960800
C71	C7	0.007100	0.056500	0.532600
C81	C8	0.558100	0.476000	0.936500
N11	N1	0.987800	0.365500	0.653300
C91	C9	0.833800	0.422100	0.589200
C101	C10	0.150400	0.408600	0.518400
C111	C11	0.299900	0.350000	0.581400
H11	H1	0.992200	0.408100	0.715900
H21	H2	0.975400	0.260000	0.717200
H31	H3	0.823000	0.369500	0.529500
H41	H4	0.731000	0.394300	0.681400
H51	H5	0.144000	0.358400	0.454000
H61	H6	0.283700	0.237700	0.651800
H71	H7	0.401500	0.374700	0.490600
H81	H8	0.311300	0.399500	0.642600
N21	N2	0.012200	0.634500	0.346700
C121	C12	0.166200	0.577900	0.410800
C131	C13	0.849600	0.591400	0.481600
C141	C14	0.700100	0.650000	0.418600
H91	H9	0.007800	0.591900	0.284100
H101	H10	0.024600	0.740000	0.282800
H111	H11	0.177000	0.630500	0.470500
H121	H12	0.269000	0.605700	0.318600
H131	H13	0.856000	0.641600	0.546000
H141	H14	0.716300	0.762300	0.348200
H151	H15	0.598500	0.625300	0.509400
H161	H16	0.688700	0.600500	0.357400
