data_EDOMAM_clean_PM
_symmetry_space_group_name_H-M	'P1'
_cell_length_a	13.941000
_cell_length_b	15.075000
_cell_length_c	15.075000
_cell_angle_alpha	82.150000
_cell_angle_beta	87.230000
_cell_angle_gamma	87.230000
_symmetry_Int_Tables_number 1

loop_
_symmetry_equiv_pos_as_xyz
'x,y,z'

loop_
_atom_site_label
_atom_site_type_symbol
_atom_site_fract_x
_atom_site_fract_y
_atom_site_fract_z
Cu11	Cu1	0.793980	0.159340	0.382700
Cu21	Cu2	0.604970	0.165140	0.389930
H11	H1	0.839500	0.119300	0.666800
H21	H2	0.836500	0.108700	0.826300
H31	H3	0.563100	0.208100	0.813500
H41	H4	0.564500	0.190000	0.673600
H51	H5	0.845000	0.106600	0.952300
H61	H6	0.844500	0.112100	0.109000
H71	H7	0.573700	0.243400	0.101100
H81	H8	0.573300	0.228800	0.949800
H91	H9	0.550300	0.885300	0.433400
H101	H10	0.552900	0.731200	0.434900
H111	H11	0.836200	0.724000	0.341000
H121	H12	0.840200	0.878300	0.343300
H131	H13	0.575200	0.587600	0.467800
H141	H14	0.568900	0.439400	0.450800
H151	H15	0.825300	0.446000	0.313700
H161	H16	0.828000	0.601100	0.322500
H171	H17	0.429400	0.296100	0.345500
H181	H18	0.268000	0.300500	0.337000
H191	H19	0.277500	0.030000	0.408800
H201	H20	0.440800	0.037200	0.408200
H211	H21	0.123400	0.280900	0.288400
H221	H22	0.958500	0.275800	0.297800
H231	H23	0.964900	0.055700	0.466800
H241	H24	0.132700	0.049300	0.462300
C11	C1	0.701600	0.154000	0.554700
C21	C2	0.702600	0.155800	0.653500
C31	C3	0.781700	0.134100	0.698600
C41	C4	0.782200	0.133000	0.793800
C51	C5	0.704800	0.165300	0.835700
C61	C6	0.621000	0.187000	0.785000
C71	C7	0.623000	0.179000	0.704000
C81	C8	0.706500	0.168900	0.935000
C91	C9	0.792000	0.132000	0.983000
C101	C10	0.791000	0.136000	0.075000
C111	C11	0.709000	0.175700	0.119400
C121	C12	0.626000	0.215000	0.072000
C131	C13	0.628000	0.207000	0.982000
C141	C14	0.705200	0.174800	0.217300
C151	C15	0.700200	0.994700	0.391500
C161	C16	0.699300	0.895500	0.393700
C171	C17	0.607000	0.852000	0.418000
C181	C18	0.610000	0.762500	0.418000
C191	C19	0.696200	0.711100	0.391400
C201	C20	0.781000	0.756000	0.362000
C211	C21	0.784000	0.847000	0.363000
C221	C22	0.693800	0.612200	0.391400
C231	C23	0.624000	0.561000	0.433000
C241	C24	0.623000	0.471100	0.426000
C251	C25	0.690100	0.427100	0.387100
C261	C26	0.774000	0.476100	0.343300
C271	C27	0.775000	0.567600	0.347700
C281	C28	0.691100	0.330300	0.383300
C291	C29	0.397700	0.241200	0.359100
C301	C30	0.301900	0.245100	0.354400
C311	C31	0.252400	0.165000	0.376000
C321	C32	0.306800	0.086200	0.395900
C331	C33	0.405000	0.092100	0.396000
C341	C34	0.147200	0.164100	0.375900
C351	C35	0.092900	0.233100	0.325000
C361	C36	0.995200	0.228700	0.330500
C371	C37	0.997900	0.100600	0.428300
C381	C38	0.098700	0.097000	0.427700
N11	N1	0.453900	0.165400	0.381500
N21	N2	0.946900	0.161300	0.379600
O11	O1	0.780300	0.149300	0.511900
O21	O2	0.621600	0.154500	0.519900
O31	O3	0.786800	0.169100	0.252700
O41	O4	0.627900	0.179600	0.259300
O51	O5	0.624200	0.036400	0.396200
O61	O6	0.782100	0.029200	0.388800
O71	O7	0.612200	0.294000	0.385400
O81	O8	0.770700	0.290300	0.377300
Cu31	Cu3	0.206020	0.840660	0.617300
Cu41	Cu4	0.395030	0.834860	0.610070
H251	H25	0.160500	0.880700	0.333200
H261	H26	0.163500	0.891300	0.173700
H271	H27	0.436900	0.791900	0.186500
H281	H28	0.435500	0.810000	0.326400
H291	H29	0.155000	0.893400	0.047700
H301	H30	0.155500	0.887900	0.891000
H311	H31	0.426300	0.756600	0.898900
H321	H32	0.426700	0.771200	0.050200
H331	H33	0.449700	0.114700	0.566600
H341	H34	0.447100	0.268800	0.565100
H351	H35	0.163800	0.276000	0.659000
H361	H36	0.159800	0.121700	0.656700
H371	H37	0.424800	0.412400	0.532200
H381	H38	0.431100	0.560600	0.549200
H391	H39	0.174700	0.554000	0.686300
H401	H40	0.172000	0.398900	0.677500
H411	H41	0.570600	0.703900	0.654500
H421	H42	0.732000	0.699500	0.663000
H431	H43	0.722500	0.970000	0.591200
H441	H44	0.559200	0.962800	0.591800
H451	H45	0.876600	0.719100	0.711600
H461	H46	0.041500	0.724200	0.702200
H471	H47	0.035100	0.944300	0.533200
H481	H48	0.867300	0.950700	0.537700
C391	C39	0.298400	0.846000	0.445300
C401	C40	0.297400	0.844200	0.346500
C411	C41	0.218300	0.865900	0.301400
C421	C42	0.217800	0.867000	0.206200
C431	C43	0.295200	0.834700	0.164300
C441	C44	0.379000	0.813000	0.215000
C451	C45	0.377000	0.821000	0.296000
C461	C46	0.293500	0.831100	0.065000
C471	C47	0.208000	0.868000	0.017000
C481	C48	0.209000	0.864000	0.925000
C491	C49	0.291000	0.824300	0.880600
C501	C50	0.374000	0.785000	0.928000
C511	C51	0.372000	0.793000	0.018000
C521	C52	0.294800	0.825200	0.782700
C531	C53	0.299800	0.005300	0.608500
C541	C54	0.300700	0.104500	0.606300
C551	C55	0.393000	0.148000	0.582000
C561	C56	0.390000	0.237500	0.582000
C571	C57	0.303800	0.288900	0.608600
C581	C58	0.219000	0.244000	0.638000
C591	C59	0.216000	0.153000	0.637000
C601	C60	0.306200	0.387800	0.608600
C611	C61	0.376000	0.439000	0.567000
C621	C62	0.377000	0.528900	0.574000
C631	C63	0.309900	0.572900	0.612900
C641	C64	0.226000	0.523900	0.656700
C651	C65	0.225000	0.432400	0.652300
C661	C66	0.308900	0.669700	0.616700
C671	C67	0.602300	0.758800	0.640900
C681	C68	0.698100	0.754900	0.645600
C691	C69	0.747600	0.835000	0.624000
C701	C70	0.693200	0.913800	0.604100
C711	C71	0.595000	0.907900	0.604000
C721	C72	0.852800	0.835900	0.624100
C731	C73	0.907100	0.766900	0.675000
C741	C74	0.004800	0.771300	0.669500
C751	C75	0.002100	0.899400	0.571700
C761	C76	0.901300	0.903000	0.572300
N31	N3	0.546100	0.834600	0.618500
N41	N4	0.053100	0.838700	0.620400
O91	O9	0.219700	0.850700	0.488100
O101	O10	0.378400	0.845500	0.480100
O111	O11	0.213200	0.830900	0.747300
O121	O12	0.372100	0.820400	0.740700
O131	O13	0.375800	0.963600	0.603800
O141	O14	0.217900	0.970800	0.611200
O151	O15	0.387800	0.706000	0.614600
O161	O16	0.229300	0.709700	0.622700
