data_EDUSIF_clean_PM
_symmetry_space_group_name_H-M	'P1'
_cell_length_a	18.266000
_cell_length_b	18.266000
_cell_length_c	18.266000
_cell_angle_alpha	60.000000
_cell_angle_beta	60.000000
_cell_angle_gamma	60.000000
_symmetry_Int_Tables_number 1

loop_
_symmetry_equiv_pos_as_xyz
'x,y,z'

loop_
_atom_site_label
_atom_site_type_symbol
_atom_site_fract_x
_atom_site_fract_y
_atom_site_fract_z
Zn11	Zn1	0.293380	0.293380	0.293380
Zn21	Zn2	0.293380	0.293380	0.119860
Zn31	Zn3	0.293380	0.119860	0.293380
Zn41	Zn4	0.119860	0.293380	0.293380
Zn51	Zn5	0.706620	0.706620	0.706620
Zn61	Zn6	0.706620	0.706620	0.880140
Zn71	Zn7	0.880140	0.706620	0.706620
Zn81	Zn8	0.706620	0.880140	0.706620
H11	H1	0.154600	0.455200	0.455200
H21	H2	0.455200	0.154600	0.935000
H31	H3	0.455200	0.935000	0.154600
H41	H4	0.935000	0.455200	0.455200
H51	H5	0.154600	0.455200	0.935000
H61	H6	0.455200	0.935000	0.455200
H71	H7	0.455200	0.154600	0.455200
H81	H8	0.935000	0.455200	0.154600
H91	H9	0.154600	0.935000	0.455200
H101	H10	0.455200	0.455200	0.154600
H111	H11	0.455200	0.455200	0.935000
H121	H12	0.935000	0.154600	0.455200
H131	H13	0.544800	0.845400	0.544800
H141	H14	0.845400	0.544800	0.065000
H151	H15	0.065000	0.544800	0.845400
H161	H16	0.544800	0.065000	0.544800
H171	H17	0.544800	0.845400	0.065000
H181	H18	0.065000	0.544800	0.544800
H191	H19	0.845400	0.544800	0.544800
H201	H20	0.544800	0.065000	0.845400
H211	H21	0.065000	0.845400	0.544800
H221	H22	0.544800	0.544800	0.845400
H231	H23	0.544800	0.544800	0.065000
H241	H24	0.845400	0.065000	0.544800
C11	C1	0.092700	0.473100	0.473100
C21	C2	0.473100	0.092700	0.961100
C31	C3	0.473100	0.961100	0.092700
C41	C4	0.961100	0.473100	0.473100
C51	C5	0.092700	0.473100	0.961100
C61	C6	0.473100	0.961100	0.473100
C71	C7	0.473100	0.092700	0.473100
C81	C8	0.961100	0.473100	0.092700
C91	C9	0.092700	0.961100	0.473100
C101	C10	0.473100	0.473100	0.092700
C111	C11	0.473100	0.473100	0.961100
C121	C12	0.961100	0.092700	0.473100
C131	C13	0.526900	0.907300	0.526900
C141	C14	0.907300	0.526900	0.038900
C151	C15	0.038900	0.526900	0.907300
C161	C16	0.526900	0.038900	0.526900
C171	C17	0.526900	0.907300	0.038900
C181	C18	0.038900	0.526900	0.526900
C191	C19	0.907300	0.526900	0.526900
C201	C20	0.526900	0.038900	0.907300
C211	C21	0.038900	0.907300	0.526900
C221	C22	0.526900	0.526900	0.907300
C231	C23	0.526900	0.526900	0.038900
C241	C24	0.907300	0.038900	0.526900
C251	C25	0.111300	0.388700	0.388700
C261	C26	0.053800	0.446200	0.446200
C271	C27	0.388700	0.111300	0.111300
C281	C28	0.446200	0.053800	0.053800
C291	C29	0.111300	0.388700	0.111300
C301	C30	0.053800	0.446200	0.053800
C311	C31	0.388700	0.111300	0.388700
C321	C32	0.446200	0.053800	0.446200
C331	C33	0.111300	0.111300	0.388700
C341	C34	0.053800	0.053800	0.446200
C351	C35	0.388700	0.388700	0.111300
C361	C36	0.446200	0.446200	0.053800
C371	C37	0.611300	0.888700	0.611300
C381	C38	0.553800	0.946200	0.553800
C391	C39	0.888700	0.611300	0.888700
C401	C40	0.946200	0.553800	0.946200
C411	C41	0.611300	0.888700	0.888700
C421	C42	0.553800	0.946200	0.946200
C431	C43	0.888700	0.611300	0.611300
C441	C44	0.946200	0.553800	0.553800
C451	C45	0.888700	0.888700	0.611300
C461	C46	0.946200	0.946200	0.553800
C471	C47	0.611300	0.611300	0.888700
C481	C48	0.553800	0.553800	0.946200
O11	O1	0.250000	0.250000	0.250000
O21	O2	0.750000	0.750000	0.750000
O31	O3	0.197770	0.366000	0.366000
O41	O4	0.366000	0.197770	0.070230
O51	O5	0.366000	0.070230	0.197770
O61	O6	0.070230	0.366000	0.366000
O71	O7	0.197770	0.366000	0.070230
O81	O8	0.366000	0.070230	0.366000
O91	O9	0.366000	0.197770	0.366000
O101	O10	0.070230	0.366000	0.197770
O111	O11	0.197770	0.070230	0.366000
O121	O12	0.366000	0.366000	0.197770
O131	O13	0.366000	0.366000	0.070230
O141	O14	0.070230	0.197770	0.366000
O151	O15	0.634000	0.802230	0.634000
O161	O16	0.802230	0.634000	0.929770
O171	O17	0.929770	0.634000	0.802230
O181	O18	0.634000	0.929770	0.634000
O191	O19	0.634000	0.802230	0.929770
O201	O20	0.929770	0.634000	0.634000
O211	O21	0.802230	0.634000	0.634000
O221	O22	0.634000	0.929770	0.802230
O231	O23	0.929770	0.802230	0.634000
O241	O24	0.634000	0.634000	0.802230
O251	O25	0.634000	0.634000	0.929770
O261	O26	0.802230	0.929770	0.634000
