data_EDUSUR_clean_PM
_symmetry_space_group_name_H-M	'P1'
_cell_length_a	25.746500
_cell_length_b	25.746500
_cell_length_c	25.746500
_cell_angle_alpha	90.000000
_cell_angle_beta	90.000000
_cell_angle_gamma	90.000000
_symmetry_Int_Tables_number 1

loop_
_symmetry_equiv_pos_as_xyz
'x,y,z'

loop_
_atom_site_label
_atom_site_type_symbol
_atom_site_fract_x
_atom_site_fract_y
_atom_site_fract_z
Zn11	Zn1	0.293420	0.206580	0.206580
Zn21	Zn2	0.293420	0.706580	0.706580
Zn31	Zn3	0.706580	0.793420	0.206580
Zn41	Zn4	0.706580	0.293420	0.706580
Zn51	Zn5	0.206580	0.293420	0.206580
Zn61	Zn6	0.706580	0.206580	0.793420
Zn71	Zn7	0.706580	0.706580	0.293420
Zn81	Zn8	0.206580	0.206580	0.293420
Zn91	Zn9	0.293420	0.793420	0.793420
Zn101	Zn10	0.293420	0.293420	0.293420
Zn111	Zn11	0.206580	0.706580	0.793420
Zn121	Zn12	0.793420	0.706580	0.206580
Zn131	Zn13	0.793420	0.293420	0.793420
Zn141	Zn14	0.793420	0.206580	0.706580
Zn151	Zn15	0.206580	0.793420	0.706580
Zn161	Zn16	0.793420	0.793420	0.293420
Zn171	Zn17	0.206580	0.293420	0.793420
Zn181	Zn18	0.793420	0.706580	0.793420
Zn191	Zn19	0.793420	0.206580	0.293420
Zn201	Zn20	0.293420	0.206580	0.793420
Zn211	Zn21	0.206580	0.706580	0.206580
Zn221	Zn22	0.793420	0.293420	0.206580
Zn231	Zn23	0.293420	0.293420	0.706580
Zn241	Zn24	0.293420	0.706580	0.293420
Zn251	Zn25	0.706580	0.206580	0.206580
Zn261	Zn26	0.706580	0.706580	0.706580
Zn271	Zn27	0.706580	0.793420	0.793420
Zn281	Zn28	0.706580	0.293420	0.293420
Zn291	Zn29	0.206580	0.793420	0.293420
Zn301	Zn30	0.293420	0.793420	0.206580
Zn311	Zn31	0.206580	0.206580	0.706580
Zn321	Zn32	0.793420	0.793420	0.706580
O11	O1	0.280700	0.219300	0.134000
C11	C1	0.281000	0.219000	0.026600
N11	N1	0.317700	0.182300	0.047400
O21	O2	0.280700	0.719300	0.634000
C21	C2	0.281000	0.719000	0.526600
N21	N2	0.317700	0.682300	0.547400
O31	O3	0.719300	0.780700	0.134000
C31	C3	0.719000	0.781000	0.026600
N31	N3	0.682300	0.817700	0.047400
O41	O4	0.719300	0.280700	0.634000
C41	C4	0.719000	0.281000	0.526600
N41	N4	0.682300	0.317700	0.547400
O51	O5	0.219300	0.280700	0.134000
C51	C5	0.219000	0.281000	0.026600
N51	N5	0.182300	0.317700	0.047400
O61	O6	0.719300	0.219300	0.866000
C61	C6	0.719000	0.219000	0.973400
N61	N6	0.682300	0.182300	0.952600
O71	O7	0.719300	0.719300	0.366000
C71	C7	0.719000	0.719000	0.473400
N71	N7	0.682300	0.682300	0.452600
O81	O8	0.219300	0.219300	0.366000
C81	C8	0.219000	0.219000	0.473400
N81	N8	0.182300	0.182300	0.452600
O91	O9	0.280700	0.780700	0.866000
C91	C9	0.281000	0.781000	0.973400
N91	N9	0.317700	0.817700	0.952600
O101	O10	0.280700	0.280700	0.366000
C101	C10	0.281000	0.281000	0.473400
N101	N10	0.317700	0.317700	0.452600
O111	O11	0.134000	0.280700	0.219300
C111	C11	0.026600	0.281000	0.219000
N111	N11	0.047400	0.317700	0.182300
O121	O12	0.634000	0.280700	0.719300
C121	C12	0.526600	0.281000	0.719000
N121	N12	0.547400	0.317700	0.682300
O131	O13	0.134000	0.719300	0.780700
C131	C13	0.026600	0.719000	0.781000
N131	N13	0.047400	0.682300	0.817700
O141	O14	0.134000	0.219300	0.280700
C141	C14	0.026600	0.219000	0.281000
N141	N14	0.047400	0.182300	0.317700
O151	O15	0.634000	0.719300	0.280700
C151	C15	0.526600	0.719000	0.281000
N151	N15	0.547400	0.682300	0.317700
O161	O16	0.866000	0.719300	0.219300
C161	C16	0.973400	0.719000	0.219000
N161	N16	0.952600	0.682300	0.182300
O171	O17	0.366000	0.719300	0.719300
C171	C17	0.473400	0.719000	0.719000
N171	N17	0.452600	0.682300	0.682300
O181	O18	0.366000	0.219300	0.219300
C181	C18	0.473400	0.219000	0.219000
N181	N18	0.452600	0.182300	0.182300
O191	O19	0.866000	0.280700	0.780700
C191	C19	0.973400	0.281000	0.781000
N191	N19	0.952600	0.317700	0.817700
O201	O20	0.366000	0.280700	0.280700
C201	C20	0.473400	0.281000	0.281000
N201	N20	0.452600	0.317700	0.317700
O211	O21	0.219300	0.134000	0.280700
C211	C21	0.219000	0.026600	0.281000
N211	N21	0.182300	0.047400	0.317700
O221	O22	0.219300	0.634000	0.780700
C221	C22	0.219000	0.526600	0.781000
N221	N22	0.182300	0.547400	0.817700
O231	O23	0.780700	0.134000	0.719300
C231	C23	0.781000	0.026600	0.719000
N231	N23	0.817700	0.047400	0.682300
O241	O24	0.780700	0.634000	0.219300
C241	C24	0.781000	0.526600	0.219000
N241	N24	0.817700	0.547400	0.182300
O251	O25	0.280700	0.134000	0.219300
C251	C25	0.281000	0.026600	0.219000
N251	N25	0.317700	0.047400	0.182300
O261	O26	0.219300	0.866000	0.719300
C261	C26	0.219000	0.973400	0.719000
N261	N26	0.182300	0.952600	0.682300
O271	O27	0.219300	0.366000	0.219300
C271	C27	0.219000	0.473400	0.219000
N271	N27	0.182300	0.452600	0.182300
O281	O28	0.780700	0.866000	0.280700
C281	C28	0.781000	0.973400	0.281000
N281	N28	0.817700	0.952600	0.317700
O291	O29	0.780700	0.366000	0.780700
C291	C29	0.781000	0.473400	0.781000
N291	N29	0.817700	0.452600	0.817700
O301	O30	0.280700	0.366000	0.280700
C301	C30	0.281000	0.473400	0.281000
N301	N30	0.317700	0.452600	0.317700
O311	O31	0.219300	0.280700	0.866000
C311	C31	0.219000	0.281000	0.973400
N311	N31	0.182300	0.317700	0.952600
O321	O32	0.219300	0.780700	0.366000
C321	C32	0.219000	0.781000	0.473400
N321	N32	0.182300	0.817700	0.452600
O331	O33	0.780700	0.719300	0.866000
C331	C33	0.781000	0.719000	0.973400
N331	N33	0.817700	0.682300	0.952600
O341	O34	0.780700	0.219300	0.366000
C341	C34	0.781000	0.219000	0.473400
N341	N34	0.817700	0.182300	0.452600
O351	O35	0.280700	0.219300	0.866000
C351	C35	0.281000	0.219000	0.973400
N351	N35	0.317700	0.182300	0.952600
O361	O36	0.219300	0.719300	0.134000
C361	C36	0.219000	0.719000	0.026600
N361	N36	0.182300	0.682300	0.047400
O371	O37	0.219300	0.219300	0.634000
C371	C37	0.219000	0.219000	0.526600
N371	N37	0.182300	0.182300	0.547400
O381	O38	0.780700	0.280700	0.134000
C381	C38	0.781000	0.281000	0.026600
N381	N38	0.817700	0.317700	0.047400
O391	O39	0.780700	0.780700	0.634000
C391	C39	0.781000	0.781000	0.526600
N391	N39	0.817700	0.817700	0.547400
O401	O40	0.280700	0.280700	0.634000
C401	C40	0.281000	0.281000	0.526600
N401	N40	0.317700	0.317700	0.547400
O411	O41	0.280700	0.134000	0.780700
C411	C41	0.281000	0.026600	0.781000
N411	N41	0.317700	0.047400	0.817700
O421	O42	0.280700	0.634000	0.280700
C421	C42	0.281000	0.526600	0.281000
N421	N42	0.317700	0.547400	0.317700
O431	O43	0.719300	0.134000	0.219300
C431	C43	0.719000	0.026600	0.219000
N431	N43	0.682300	0.047400	0.182300
O441	O44	0.719300	0.634000	0.719300
C441	C44	0.719000	0.526600	0.719000
N441	N44	0.682300	0.547400	0.682300
O451	O45	0.219300	0.634000	0.219300
C451	C45	0.219000	0.526600	0.219000
N451	N45	0.182300	0.547400	0.182300
O461	O46	0.719300	0.866000	0.780700
C461	C46	0.719000	0.973400	0.781000
N461	N46	0.682300	0.952600	0.817700
O471	O47	0.719300	0.366000	0.280700
C471	C47	0.719000	0.473400	0.281000
N471	N47	0.682300	0.452600	0.317700
O481	O48	0.219300	0.866000	0.280700
C481	C48	0.219000	0.973400	0.281000
N481	N48	0.182300	0.952600	0.317700
O491	O49	0.280700	0.866000	0.219300
C491	C49	0.281000	0.973400	0.219000
N491	N49	0.317700	0.952600	0.182300
O501	O50	0.280700	0.366000	0.719300
C501	C50	0.281000	0.473400	0.719000
N501	N50	0.317700	0.452600	0.682300
O511	O51	0.134000	0.219300	0.719300
C511	C51	0.026600	0.219000	0.719000
N511	N51	0.047400	0.182300	0.682300
O521	O52	0.634000	0.219300	0.219300
C521	C52	0.526600	0.219000	0.219000
N521	N52	0.547400	0.182300	0.182300
O531	O53	0.134000	0.780700	0.280700
C531	C53	0.026600	0.781000	0.281000
N531	N53	0.047400	0.817700	0.317700
O541	O54	0.634000	0.780700	0.780700
C541	C54	0.526600	0.781000	0.781000
N541	N54	0.547400	0.817700	0.817700
O551	O55	0.634000	0.280700	0.280700
C551	C55	0.526600	0.281000	0.281000
N551	N55	0.547400	0.317700	0.317700
O561	O56	0.866000	0.219300	0.280700
C561	C56	0.973400	0.219000	0.281000
N561	N56	0.952600	0.182300	0.317700
O571	O57	0.366000	0.219300	0.780700
C571	C57	0.473400	0.219000	0.781000
N571	N57	0.452600	0.182300	0.817700
O581	O58	0.866000	0.780700	0.719300
C581	C58	0.973400	0.781000	0.719000
N581	N58	0.952600	0.817700	0.682300
O591	O59	0.866000	0.280700	0.219300
C591	C59	0.973400	0.281000	0.219000
N591	N59	0.952600	0.317700	0.182300
O601	O60	0.366000	0.780700	0.219300
C601	C60	0.473400	0.781000	0.219000
N601	N60	0.452600	0.817700	0.182300
O611	O61	0.719300	0.780700	0.866000
C611	C61	0.719000	0.781000	0.973400
N611	N61	0.682300	0.817700	0.952600
O621	O62	0.719300	0.280700	0.366000
C621	C62	0.719000	0.281000	0.473400
N621	N62	0.682300	0.317700	0.452600
O631	O63	0.280700	0.719300	0.366000
C631	C63	0.281000	0.719000	0.473400
N631	N63	0.317700	0.682300	0.452600
O641	O64	0.280700	0.780700	0.134000
C641	C64	0.281000	0.781000	0.026600
N641	N64	0.317700	0.817700	0.047400
O651	O65	0.719300	0.219300	0.134000
C651	C65	0.719000	0.219000	0.026600
N651	N65	0.682300	0.182300	0.047400
O661	O66	0.719300	0.719300	0.634000
C661	C66	0.719000	0.719000	0.526600
N661	N66	0.682300	0.682300	0.547400
O671	O67	0.866000	0.719300	0.780700
C671	C67	0.973400	0.719000	0.781000
N671	N67	0.952600	0.682300	0.817700
O681	O68	0.366000	0.719300	0.280700
C681	C68	0.473400	0.719000	0.281000
N681	N68	0.452600	0.682300	0.317700
O691	O69	0.366000	0.280700	0.719300
C691	C69	0.473400	0.281000	0.719000
N691	N69	0.452600	0.317700	0.682300
O701	O70	0.134000	0.280700	0.780700
C701	C70	0.026600	0.281000	0.781000
N701	N70	0.047400	0.317700	0.817700
O711	O71	0.134000	0.719300	0.219300
C711	C71	0.026600	0.719000	0.219000
N711	N71	0.047400	0.682300	0.182300
O721	O72	0.634000	0.719300	0.719300
C721	C72	0.526600	0.719000	0.719000
N721	N72	0.547400	0.682300	0.682300
O731	O73	0.780700	0.866000	0.719300
C731	C73	0.781000	0.973400	0.719000
N731	N73	0.817700	0.952600	0.682300
O741	O74	0.780700	0.366000	0.219300
C741	C74	0.781000	0.473400	0.219000
N741	N74	0.817700	0.452600	0.182300
O751	O75	0.219300	0.366000	0.780700
C751	C75	0.219000	0.473400	0.781000
N751	N75	0.182300	0.452600	0.817700
O761	O76	0.780700	0.134000	0.280700
C761	C76	0.781000	0.026600	0.281000
N761	N76	0.817700	0.047400	0.317700
O771	O77	0.780700	0.634000	0.780700
C771	C77	0.781000	0.526600	0.781000
N771	N77	0.817700	0.547400	0.817700
O781	O78	0.219300	0.134000	0.719300
C781	C78	0.219000	0.026600	0.719000
N781	N78	0.182300	0.047400	0.682300
O791	O79	0.780700	0.719300	0.134000
C791	C79	0.781000	0.719000	0.026600
N791	N79	0.817700	0.682300	0.047400
O801	O80	0.780700	0.219300	0.634000
C801	C80	0.781000	0.219000	0.526600
N801	N80	0.817700	0.182300	0.547400
O811	O81	0.219300	0.780700	0.634000
C811	C81	0.219000	0.781000	0.526600
N811	N81	0.182300	0.817700	0.547400
O821	O82	0.780700	0.280700	0.866000
C821	C82	0.781000	0.281000	0.973400
N821	N82	0.817700	0.317700	0.952600
O831	O83	0.780700	0.780700	0.366000
C831	C83	0.781000	0.781000	0.473400
N831	N83	0.817700	0.817700	0.452600
O841	O84	0.219300	0.719300	0.866000
C841	C84	0.219000	0.719000	0.973400
N841	N84	0.182300	0.682300	0.952600
O851	O85	0.719300	0.866000	0.219300
C851	C85	0.719000	0.973400	0.219000
N851	N85	0.682300	0.952600	0.182300
O861	O86	0.719300	0.366000	0.719300
C861	C86	0.719000	0.473400	0.719000
N861	N86	0.682300	0.452600	0.682300
O871	O87	0.280700	0.866000	0.780700
C871	C87	0.281000	0.973400	0.781000
N871	N87	0.317700	0.952600	0.817700
O881	O88	0.280700	0.634000	0.719300
C881	C88	0.281000	0.526600	0.719000
N881	N88	0.317700	0.547400	0.682300
O891	O89	0.719300	0.134000	0.780700
C891	C89	0.719000	0.026600	0.781000
N891	N89	0.682300	0.047400	0.817700
O901	O90	0.719300	0.634000	0.280700
C901	C90	0.719000	0.526600	0.281000
N901	N90	0.682300	0.547400	0.317700
O911	O91	0.866000	0.780700	0.280700
C911	C91	0.973400	0.781000	0.281000
N911	N91	0.952600	0.817700	0.317700
O921	O92	0.366000	0.780700	0.780700
C921	C92	0.473400	0.781000	0.781000
N921	N92	0.452600	0.817700	0.817700
O931	O93	0.866000	0.219300	0.719300
C931	C93	0.973400	0.219000	0.719000
N931	N93	0.952600	0.182300	0.682300
O941	O94	0.134000	0.780700	0.719300
C941	C94	0.026600	0.781000	0.719000
N941	N94	0.047400	0.817700	0.682300
O951	O95	0.634000	0.780700	0.219300
C951	C95	0.526600	0.781000	0.219000
N951	N95	0.547400	0.817700	0.182300
O961	O96	0.634000	0.219300	0.780700
C961	C96	0.526600	0.219000	0.781000
N961	N96	0.547400	0.182300	0.817700
O971	O97	0.250000	0.250000	0.250000
O981	O98	0.750000	0.750000	0.250000
O991	O99	0.750000	0.250000	0.750000
O1001	O100	0.250000	0.750000	0.750000
O1011	O101	0.250000	0.250000	0.750000
O1021	O102	0.750000	0.750000	0.750000
O1031	O103	0.750000	0.250000	0.250000
O1041	O104	0.250000	0.750000	0.250000
C971	C97	0.250000	0.250000	0.110500
C981	C98	0.250000	0.250000	0.055700
C991	C99	0.250000	0.750000	0.610500
C1001	C100	0.250000	0.750000	0.555700
C1011	C101	0.750000	0.750000	0.110500
C1021	C102	0.750000	0.750000	0.055700
C1031	C103	0.750000	0.250000	0.610500
C1041	C104	0.750000	0.250000	0.555700
C1051	C105	0.750000	0.250000	0.889500
C1061	C106	0.750000	0.250000	0.944300
C1071	C107	0.750000	0.750000	0.389500
C1081	C108	0.750000	0.750000	0.444300
C1091	C109	0.250000	0.250000	0.389500
C1101	C110	0.250000	0.250000	0.444300
C1111	C111	0.250000	0.750000	0.889500
C1121	C112	0.250000	0.750000	0.944300
C1131	C113	0.110500	0.250000	0.250000
C1141	C114	0.055700	0.250000	0.250000
C1151	C115	0.610500	0.250000	0.750000
C1161	C116	0.555700	0.250000	0.750000
C1171	C117	0.110500	0.750000	0.750000
C1181	C118	0.055700	0.750000	0.750000
C1191	C119	0.610500	0.750000	0.250000
C1201	C120	0.555700	0.750000	0.250000
C1211	C121	0.889500	0.750000	0.250000
C1221	C122	0.944300	0.750000	0.250000
C1231	C123	0.389500	0.750000	0.750000
C1241	C124	0.444300	0.750000	0.750000
C1251	C125	0.389500	0.250000	0.250000
C1261	C126	0.444300	0.250000	0.250000
C1271	C127	0.889500	0.250000	0.750000
C1281	C128	0.944300	0.250000	0.750000
C1291	C129	0.250000	0.110500	0.250000
C1301	C130	0.250000	0.055700	0.250000
C1311	C131	0.250000	0.610500	0.750000
C1321	C132	0.250000	0.555700	0.750000
C1331	C133	0.750000	0.110500	0.750000
C1341	C134	0.750000	0.055700	0.750000
C1351	C135	0.750000	0.610500	0.250000
C1361	C136	0.750000	0.555700	0.250000
C1371	C137	0.250000	0.889500	0.750000
C1381	C138	0.250000	0.944300	0.750000
C1391	C139	0.250000	0.389500	0.250000
C1401	C140	0.250000	0.444300	0.250000
C1411	C141	0.750000	0.889500	0.250000
C1421	C142	0.750000	0.944300	0.250000
C1431	C143	0.750000	0.389500	0.750000
C1441	C144	0.750000	0.444300	0.750000
C1451	C145	0.250000	0.250000	0.889500
C1461	C146	0.250000	0.250000	0.944300
C1471	C147	0.250000	0.750000	0.389500
C1481	C148	0.250000	0.750000	0.444300
C1491	C149	0.750000	0.750000	0.889500
C1501	C150	0.750000	0.750000	0.944300
C1511	C151	0.750000	0.250000	0.389500
C1521	C152	0.750000	0.250000	0.444300
C1531	C153	0.250000	0.750000	0.110500
C1541	C154	0.250000	0.750000	0.055700
C1551	C155	0.250000	0.250000	0.610500
C1561	C156	0.250000	0.250000	0.555700
C1571	C157	0.750000	0.250000	0.110500
C1581	C158	0.750000	0.250000	0.055700
C1591	C159	0.750000	0.750000	0.610500
C1601	C160	0.750000	0.750000	0.555700
C1611	C161	0.250000	0.110500	0.750000
C1621	C162	0.250000	0.055700	0.750000
C1631	C163	0.250000	0.610500	0.250000
C1641	C164	0.250000	0.555700	0.250000
C1651	C165	0.750000	0.110500	0.250000
C1661	C166	0.750000	0.055700	0.250000
C1671	C167	0.750000	0.610500	0.750000
C1681	C168	0.750000	0.555700	0.750000
C1691	C169	0.750000	0.889500	0.750000
C1701	C170	0.750000	0.944300	0.750000
C1711	C171	0.750000	0.389500	0.250000
C1721	C172	0.750000	0.444300	0.250000
C1731	C173	0.250000	0.889500	0.250000
C1741	C174	0.250000	0.944300	0.250000
C1751	C175	0.250000	0.389500	0.750000
C1761	C176	0.250000	0.444300	0.750000
C1771	C177	0.110500	0.250000	0.750000
C1781	C178	0.055700	0.250000	0.750000
C1791	C179	0.610500	0.250000	0.250000
C1801	C180	0.555700	0.250000	0.250000
C1811	C181	0.110500	0.750000	0.250000
C1821	C182	0.055700	0.750000	0.250000
C1831	C183	0.610500	0.750000	0.750000
C1841	C184	0.555700	0.750000	0.750000
C1851	C185	0.889500	0.250000	0.250000
C1861	C186	0.944300	0.250000	0.250000
C1871	C187	0.389500	0.250000	0.750000
C1881	C188	0.444300	0.250000	0.750000
C1891	C189	0.889500	0.750000	0.750000
C1901	C190	0.944300	0.750000	0.750000
C1911	C191	0.389500	0.750000	0.250000
C1921	C192	0.444300	0.750000	0.250000
