data_EFIMUB_clean_PM
_symmetry_space_group_name_H-M	'P1'
_cell_length_a	13.513700
_cell_length_b	9.011900
_cell_length_c	9.635700
_cell_angle_alpha	90.000000
_cell_angle_beta	134.507000
_cell_angle_gamma	90.000000
_symmetry_Int_Tables_number 1

loop_
_symmetry_equiv_pos_as_xyz
'x,y,z'

loop_
_atom_site_label
_atom_site_type_symbol
_atom_site_fract_x
_atom_site_fract_y
_atom_site_fract_z
P11	P1	0.333150	0.602840	0.220630
O11	O1	0.325100	0.569500	0.057400
O21	O2	0.465600	0.686200	0.389600
O31	O3	0.207600	0.693400	0.144300
O41	O4	0.320400	0.453200	0.280600
Be11	Be1	0.369200	0.647800	0.957800
P21	P2	0.833150	0.102840	0.220630
O51	O5	0.825100	0.069500	0.057400
O61	O6	0.965600	0.186200	0.389600
O71	O7	0.707600	0.193400	0.144300
O81	O8	0.820400	0.953200	0.280600
Be21	Be2	0.869200	0.147800	0.957800
P31	P3	0.666850	0.602840	0.279370
O91	O9	0.674900	0.569500	0.442600
O101	O10	0.534400	0.686200	0.110400
O111	O11	0.792400	0.693400	0.355700
O121	O12	0.679600	0.453200	0.219400
Be31	Be3	0.630800	0.647800	0.542200
P41	P4	0.166850	0.102840	0.279370
O131	O13	0.174900	0.069500	0.442600
O141	O14	0.034400	0.186200	0.110400
O151	O15	0.292400	0.193400	0.355700
O161	O16	0.179600	0.953200	0.219400
Be41	Be4	0.130800	0.147800	0.542200
P51	P5	0.666850	0.397160	0.779370
O171	O17	0.674900	0.430500	0.942600
O181	O18	0.534400	0.313800	0.610400
O191	O19	0.792400	0.306600	0.855700
O201	O20	0.679600	0.546800	0.719400
Be51	Be5	0.630800	0.352200	0.042200
P61	P6	0.166850	0.897160	0.779370
O211	O21	0.174900	0.930500	0.942600
O221	O22	0.034400	0.813800	0.610400
O231	O23	0.292400	0.806600	0.855700
O241	O24	0.179600	0.046800	0.719400
Be61	Be6	0.130800	0.852200	0.042200
P71	P7	0.333150	0.397160	0.720630
O251	O25	0.325100	0.430500	0.557400
O261	O26	0.465600	0.313800	0.889600
O271	O27	0.207600	0.306600	0.644300
O281	O28	0.320400	0.546800	0.780600
Be71	Be7	0.369200	0.352200	0.457800
P81	P8	0.833150	0.897160	0.720630
O291	O29	0.825100	0.930500	0.557400
O301	O30	0.965600	0.813800	0.889600
O311	O31	0.707600	0.806600	0.644300
O321	O32	0.820400	0.046800	0.780600
Be81	Be8	0.869200	0.852200	0.457800
