data_EFOSUO_clean_PM
_symmetry_space_group_name_H-M	'P1'
_cell_length_a	16.954000
_cell_length_b	16.954000
_cell_length_c	16.954000
_cell_angle_alpha	90.000000
_cell_angle_beta	90.000000
_cell_angle_gamma	90.000000
_symmetry_Int_Tables_number 1

loop_
_symmetry_equiv_pos_as_xyz
'x,y,z'

loop_
_atom_site_label
_atom_site_type_symbol
_atom_site_fract_x
_atom_site_fract_y
_atom_site_fract_z
Mn11	Mn1	0.893000	0.107000	0.607000
Mn21	Mn2	0.607000	0.893000	0.107000
Mn31	Mn3	0.107000	0.607000	0.893000
Mn41	Mn4	0.393000	0.393000	0.393000
Mn51	Mn5	0.107000	0.893000	0.393000
Mn61	Mn6	0.393000	0.107000	0.893000
Mn71	Mn7	0.893000	0.393000	0.107000
Mn81	Mn8	0.607000	0.607000	0.607000
Re11	Re1	0.970260	0.404970	0.543340
Re21	Re2	0.529740	0.595030	0.043340
Re31	Re3	0.029740	0.904970	0.956660
Re41	Re4	0.470260	0.095030	0.456660
Re51	Re5	0.543340	0.970260	0.404970
Re61	Re6	0.043340	0.529740	0.595030
Re71	Re7	0.956660	0.029740	0.904970
Re81	Re8	0.456660	0.470260	0.095030
Re91	Re9	0.404970	0.543340	0.970260
Re101	Re10	0.595030	0.043340	0.529740
Re111	Re11	0.904970	0.956660	0.029740
Re121	Re12	0.095030	0.456660	0.470260
Re131	Re13	0.029740	0.595030	0.456660
Re141	Re14	0.470260	0.404970	0.956660
Re151	Re15	0.970260	0.095030	0.043340
Re161	Re16	0.529740	0.904970	0.543340
Re171	Re17	0.456660	0.029740	0.595030
Re181	Re18	0.956660	0.470260	0.404970
Re191	Re19	0.043340	0.970260	0.095030
Re201	Re20	0.543340	0.529740	0.904970
Re211	Re21	0.595030	0.456660	0.029740
Re221	Re22	0.404970	0.956660	0.470260
Re231	Re23	0.095030	0.043340	0.970260
Re241	Re24	0.904970	0.543340	0.529740
C11	C1	0.933000	0.292000	0.591000
C21	C2	0.567000	0.708000	0.091000
C31	C3	0.067000	0.792000	0.909000
C41	C4	0.433000	0.208000	0.409000
C51	C5	0.591000	0.933000	0.292000
C61	C6	0.091000	0.567000	0.708000
C71	C7	0.909000	0.067000	0.792000
C81	C8	0.409000	0.433000	0.208000
C91	C9	0.292000	0.591000	0.933000
C101	C10	0.708000	0.091000	0.567000
C111	C11	0.792000	0.909000	0.067000
C121	C12	0.208000	0.409000	0.433000
C131	C13	0.067000	0.708000	0.409000
C141	C14	0.433000	0.292000	0.909000
C151	C15	0.933000	0.208000	0.091000
C161	C16	0.567000	0.792000	0.591000
C171	C17	0.409000	0.067000	0.708000
C181	C18	0.909000	0.433000	0.292000
C191	C19	0.091000	0.933000	0.208000
C201	C20	0.591000	0.567000	0.792000
C211	C21	0.708000	0.409000	0.067000
C221	C22	0.292000	0.909000	0.433000
C231	C23	0.208000	0.091000	0.933000
C241	C24	0.792000	0.591000	0.567000
S11	S1	0.924900	0.479300	0.655500
S21	S2	0.575100	0.520700	0.155500
S31	S3	0.075100	0.979300	0.844500
S41	S4	0.424900	0.020700	0.344500
S51	S5	0.655500	0.924900	0.479300
S61	S6	0.155500	0.575100	0.520700
S71	S7	0.844500	0.075100	0.979300
S81	S8	0.344500	0.424900	0.020700
S91	S9	0.479300	0.655500	0.924900
S101	S10	0.520700	0.155500	0.575100
S111	S11	0.979300	0.844500	0.075100
S121	S12	0.020700	0.344500	0.424900
S131	S13	0.075100	0.520700	0.344500
S141	S14	0.424900	0.479300	0.844500
S151	S15	0.924900	0.020700	0.155500
S161	S16	0.575100	0.979300	0.655500
S171	S17	0.344500	0.075100	0.520700
S181	S18	0.844500	0.424900	0.479300
S191	S19	0.155500	0.924900	0.020700
S201	S20	0.655500	0.575100	0.979300
S211	S21	0.520700	0.344500	0.075100
S221	S22	0.479300	0.844500	0.424900
S231	S23	0.020700	0.155500	0.924900
S241	S24	0.979300	0.655500	0.575100
S251	S25	0.100400	0.399600	0.600400
S261	S26	0.399600	0.600400	0.100400
S271	S27	0.899600	0.899600	0.899600
S281	S28	0.600400	0.100400	0.399600
S291	S29	0.899600	0.600400	0.399600
S301	S30	0.600400	0.399600	0.899600
S311	S31	0.100400	0.100400	0.100400
S321	S32	0.399600	0.899600	0.600400
N11	N1	0.915000	0.232000	0.614000
N21	N2	0.585000	0.768000	0.114000
N31	N3	0.085000	0.732000	0.886000
N41	N4	0.415000	0.268000	0.386000
N51	N5	0.614000	0.915000	0.232000
N61	N6	0.114000	0.585000	0.768000
N71	N7	0.886000	0.085000	0.732000
N81	N8	0.386000	0.415000	0.268000
N91	N9	0.232000	0.614000	0.915000
N101	N10	0.768000	0.114000	0.585000
N111	N11	0.732000	0.886000	0.085000
N121	N12	0.268000	0.386000	0.415000
N131	N13	0.085000	0.768000	0.386000
N141	N14	0.415000	0.232000	0.886000
N151	N15	0.915000	0.268000	0.114000
N161	N16	0.585000	0.732000	0.614000
N171	N17	0.386000	0.085000	0.768000
N181	N18	0.886000	0.415000	0.232000
N191	N19	0.114000	0.915000	0.268000
N201	N20	0.614000	0.585000	0.732000
N211	N21	0.768000	0.386000	0.085000
N221	N22	0.232000	0.886000	0.415000
N231	N23	0.268000	0.114000	0.915000
N241	N24	0.732000	0.614000	0.585000
