data_EFOTAV_clean_PM
_symmetry_space_group_name_H-M	'P1'
_cell_length_a	16.578000
_cell_length_b	16.680000
_cell_length_c	18.006000
_cell_angle_alpha	90.000000
_cell_angle_beta	90.000000
_cell_angle_gamma	90.000000
_symmetry_Int_Tables_number 1

loop_
_symmetry_equiv_pos_as_xyz
'x,y,z'

loop_
_atom_site_label
_atom_site_type_symbol
_atom_site_fract_x
_atom_site_fract_y
_atom_site_fract_z
Mn11	Mn1	0.605330	0.870070	0.868650
Mn21	Mn2	0.394670	0.629930	0.368650
Mn31	Mn3	0.105330	0.129930	0.631350
Mn41	Mn4	0.894670	0.370070	0.131350
Mn51	Mn5	0.394670	0.129930	0.131350
Mn61	Mn6	0.605330	0.370070	0.631350
Mn71	Mn7	0.894670	0.870070	0.368650
Mn81	Mn8	0.105330	0.629930	0.868650
Re11	Re1	0.901020	0.964680	0.966690
Re21	Re2	0.040850	0.897870	0.990550
Re31	Re3	0.029680	0.022030	0.903790
Re41	Re4	0.098980	0.535320	0.466690
Re51	Re5	0.959150	0.602130	0.490550
Re61	Re6	0.970320	0.477970	0.403790
Re71	Re7	0.401020	0.035320	0.533310
Re81	Re8	0.540850	0.102130	0.509450
Re91	Re9	0.529680	0.977970	0.596210
Re101	Re10	0.598980	0.464680	0.033310
Re111	Re11	0.459150	0.397870	0.009450
Re121	Re12	0.470320	0.522030	0.096210
Re131	Re13	0.098980	0.035320	0.033310
Re141	Re14	0.959150	0.102130	0.009450
Re151	Re15	0.970320	0.977970	0.096210
Re161	Re16	0.901020	0.464680	0.533310
Re171	Re17	0.040850	0.397870	0.509450
Re181	Re18	0.029680	0.522030	0.596210
Re191	Re19	0.598980	0.964680	0.466690
Re201	Re20	0.459150	0.897870	0.490550
Re211	Re21	0.470320	0.022030	0.403790
Re221	Re22	0.401020	0.535320	0.966690
Re231	Re23	0.540850	0.602130	0.990550
Re241	Re24	0.529680	0.477970	0.903790
C11	C1	0.788300	0.924800	0.925000
C21	C2	0.084800	0.780400	0.977300
C31	C3	0.066200	0.046200	0.791600
C41	C4	0.211700	0.575200	0.425000
C51	C5	0.915200	0.719600	0.477300
C61	C6	0.933800	0.453800	0.291600
C71	C7	0.288300	0.075200	0.575000
C81	C8	0.584800	0.219600	0.522700
C91	C9	0.566200	0.953800	0.708400
C101	C10	0.711700	0.424800	0.075000
C111	C11	0.415200	0.280400	0.022700
C121	C12	0.433800	0.546200	0.208400
C131	C13	0.211700	0.075200	0.075000
C141	C14	0.915200	0.219600	0.022700
C151	C15	0.933800	0.953800	0.208400
C161	C16	0.788300	0.424800	0.575000
C171	C17	0.084800	0.280400	0.522700
C181	C18	0.066200	0.546200	0.708400
C191	C19	0.711700	0.924800	0.425000
C201	C20	0.415200	0.780400	0.477300
C211	C21	0.433800	0.046200	0.291600
C221	C22	0.288300	0.575200	0.925000
C231	C23	0.584800	0.719600	0.977300
C241	C24	0.566200	0.453800	0.791600
S11	S1	0.974700	0.892900	0.872000
S21	S2	0.898400	0.082800	0.889100
S31	S3	0.918800	0.852600	0.050100
S41	S4	0.843500	0.040700	0.067300
S51	S5	0.025300	0.607100	0.372000
S61	S6	0.101600	0.417200	0.389100
S71	S7	0.081200	0.647400	0.550100
S81	S8	0.156500	0.459300	0.567300
S91	S9	0.474700	0.107100	0.628000
S101	S10	0.398400	0.917200	0.610900
S111	S11	0.418800	0.147400	0.449900
S121	S12	0.343500	0.959300	0.432700
S131	S13	0.525300	0.392900	0.128000
S141	S14	0.601600	0.582800	0.110900
S151	S15	0.581200	0.352600	0.949900
S161	S16	0.656500	0.540700	0.932700
S171	S17	0.025300	0.107100	0.128000
S181	S18	0.101600	0.917200	0.110900
S191	S19	0.081200	0.147400	0.949900
S201	S20	0.156500	0.959300	0.932700
S211	S21	0.974700	0.392900	0.628000
S221	S22	0.898400	0.582800	0.610900
S231	S23	0.918800	0.352600	0.449900
S241	S24	0.843500	0.540700	0.432700
S251	S25	0.525300	0.892900	0.372000
S261	S26	0.601600	0.082800	0.389100
S271	S27	0.581200	0.852600	0.550100
S281	S28	0.656500	0.040700	0.567300
S291	S29	0.474700	0.607100	0.872000
S301	S30	0.398400	0.417200	0.889100
S311	S31	0.418800	0.647400	0.050100
S321	S32	0.343500	0.459300	0.067300
N11	N1	0.729200	0.906800	0.898700
N21	N2	0.105900	0.714800	0.965100
N31	N3	0.086400	0.060800	0.734100
N41	N4	0.270800	0.593200	0.398700
N51	N5	0.894100	0.785200	0.465100
N61	N6	0.913600	0.439200	0.234100
N71	N7	0.229200	0.093200	0.601300
N81	N8	0.605900	0.285200	0.534900
N91	N9	0.586400	0.939200	0.765900
N101	N10	0.770800	0.406800	0.101300
N111	N11	0.394100	0.214800	0.034900
N121	N12	0.413600	0.560800	0.265900
N131	N13	0.270800	0.093200	0.101300
N141	N14	0.894100	0.285200	0.034900
N151	N15	0.913600	0.939200	0.265900
N161	N16	0.729200	0.406800	0.601300
N171	N17	0.105900	0.214800	0.534900
N181	N18	0.086400	0.560800	0.765900
N191	N19	0.770800	0.906800	0.398700
N201	N20	0.394100	0.714800	0.465100
N211	N21	0.413600	0.060800	0.234100
N221	N22	0.229200	0.593200	0.898700
N231	N23	0.605900	0.785200	0.965100
N241	N24	0.586400	0.439200	0.734100
