data_EFOTID_clean_PM
_symmetry_space_group_name_H-M	'P1'
_cell_length_a	17.013000
_cell_length_b	17.382000
_cell_length_c	17.935000
_cell_angle_alpha	90.000000
_cell_angle_beta	90.000000
_cell_angle_gamma	90.000000
_symmetry_Int_Tables_number 1

loop_
_symmetry_equiv_pos_as_xyz
'x,y,z'

loop_
_atom_site_label
_atom_site_type_symbol
_atom_site_fract_x
_atom_site_fract_y
_atom_site_fract_z
Mn11	Mn1	0.614900	0.363400	0.866900
Mn21	Mn2	0.385100	0.136600	0.366900
Mn31	Mn3	0.114900	0.636600	0.633100
Mn41	Mn4	0.885100	0.863400	0.133100
Mn51	Mn5	0.385100	0.636600	0.133100
Mn61	Mn6	0.614900	0.863400	0.633100
Mn71	Mn7	0.885100	0.363400	0.366900
Mn81	Mn8	0.114900	0.136600	0.866900
Re11	Re1	0.900310	0.465250	0.965130
Re21	Re2	0.957960	0.599990	0.013250
Re31	Re3	0.028870	0.525250	0.900780
Re41	Re4	0.099690	0.034750	0.465130
Re51	Re5	0.042040	0.900010	0.513250
Re61	Re6	0.971130	0.974750	0.400780
Re71	Re7	0.400310	0.534750	0.534870
Re81	Re8	0.457960	0.400010	0.486750
Re91	Re9	0.528870	0.474750	0.599220
Re101	Re10	0.599690	0.965250	0.034870
Re111	Re11	0.542040	0.099990	0.986750
Re121	Re12	0.471130	0.025250	0.099220
Re131	Re13	0.099690	0.534750	0.034870
Re141	Re14	0.042040	0.400010	0.986750
Re151	Re15	0.971130	0.474750	0.099220
Re161	Re16	0.900310	0.965250	0.534870
Re171	Re17	0.957960	0.099990	0.486750
Re181	Re18	0.028870	0.025250	0.599220
Re191	Re19	0.599690	0.465250	0.465130
Re201	Re20	0.542040	0.599990	0.513250
Re211	Re21	0.471130	0.525250	0.400780
Re221	Re22	0.400310	0.034750	0.965130
Re231	Re23	0.457960	0.900010	0.013250
Re241	Re24	0.528870	0.974750	0.900780
Te11	Te1	0.887720	0.591870	0.879240
Te21	Te2	0.971950	0.390390	0.853180
Te31	Te3	0.829650	0.538850	0.077750
Te41	Te4	0.913770	0.340340	0.052130
Te51	Te5	0.112280	0.908130	0.379240
Te61	Te6	0.028050	0.109610	0.353180
Te71	Te7	0.170350	0.961150	0.577750
Te81	Te8	0.086230	0.159660	0.552130
Te91	Te9	0.387720	0.408130	0.620760
Te101	Te10	0.471950	0.609610	0.646820
Te111	Te11	0.329650	0.461150	0.422250
Te121	Te12	0.413770	0.659660	0.447870
Te131	Te13	0.612280	0.091870	0.120760
Te141	Te14	0.528050	0.890390	0.146820
Te151	Te15	0.670350	0.038850	0.922250
Te161	Te16	0.586230	0.840340	0.947870
Te171	Te17	0.112280	0.408130	0.120760
Te181	Te18	0.028050	0.609610	0.146820
Te191	Te19	0.170350	0.461150	0.922250
Te201	Te20	0.086230	0.659660	0.947870
Te211	Te21	0.887720	0.091870	0.620760
Te221	Te22	0.971950	0.890390	0.646820
Te231	Te23	0.829650	0.038850	0.422250
Te241	Te24	0.913770	0.840340	0.447870
Te251	Te25	0.612280	0.591870	0.379240
Te261	Te26	0.528050	0.390390	0.353180
Te271	Te27	0.670350	0.538850	0.577750
Te281	Te28	0.586230	0.340340	0.552130
Te291	Te29	0.387720	0.908130	0.879240
Te301	Te30	0.471950	0.109610	0.853180
Te311	Te31	0.329650	0.961150	0.077750
Te321	Te32	0.413770	0.159660	0.052130
C11	C1	0.790900	0.425900	0.925500
C21	C2	0.064500	0.550900	0.790200
C31	C3	0.912900	0.712400	0.032800
C41	C4	0.209100	0.074100	0.425500
C51	C5	0.935500	0.949100	0.290200
C61	C6	0.087100	0.787600	0.532800
C71	C7	0.290900	0.574100	0.574500
C81	C8	0.564500	0.449100	0.709800
C91	C9	0.412900	0.287600	0.467200
C101	C10	0.709100	0.925900	0.074500
C111	C11	0.435500	0.050900	0.209800
C121	C12	0.587100	0.212400	0.967200
C131	C13	0.209100	0.574100	0.074500
C141	C14	0.935500	0.449100	0.209800
C151	C15	0.087100	0.287600	0.967200
C161	C16	0.790900	0.925900	0.574500
C171	C17	0.064500	0.050900	0.709800
C181	C18	0.912900	0.212400	0.467200
C191	C19	0.709100	0.425900	0.425500
C201	C20	0.435500	0.550900	0.290200
C211	C21	0.587100	0.712400	0.532800
C221	C22	0.290900	0.074100	0.925500
C231	C23	0.564500	0.949100	0.790200
C241	C24	0.412900	0.787600	0.032800
N11	N1	0.733700	0.403000	0.901900
N21	N2	0.085300	0.568600	0.734600
N31	N3	0.891400	0.774000	0.045700
N41	N4	0.266300	0.097000	0.401900
N51	N5	0.914700	0.931400	0.234600
N61	N6	0.108600	0.726000	0.545700
N71	N7	0.233700	0.597000	0.598100
N81	N8	0.585300	0.431400	0.765400
N91	N9	0.391400	0.226000	0.454300
N101	N10	0.766300	0.903000	0.098100
N111	N11	0.414700	0.068600	0.265400
N121	N12	0.608600	0.274000	0.954300
N131	N13	0.266300	0.597000	0.098100
N141	N14	0.914700	0.431400	0.265400
N151	N15	0.108600	0.226000	0.954300
N161	N16	0.733700	0.903000	0.598100
N171	N17	0.085300	0.068600	0.765400
N181	N18	0.891400	0.274000	0.454300
N191	N19	0.766300	0.403000	0.401900
N201	N20	0.414700	0.568600	0.234600
N211	N21	0.608600	0.774000	0.545700
N221	N22	0.233700	0.097000	0.901900
N231	N23	0.585300	0.931400	0.734600
N241	N24	0.391400	0.726000	0.045700
