data_EGAFOJ_clean_PM
_symmetry_space_group_name_H-M	'P1'
_cell_length_a	9.125800
_cell_length_b	11.138000
_cell_length_c	11.326200
_cell_angle_alpha	77.317000
_cell_angle_beta	68.681000
_cell_angle_gamma	79.250000
_symmetry_Int_Tables_number 1

loop_
_symmetry_equiv_pos_as_xyz
'x,y,z'

loop_
_atom_site_label
_atom_site_type_symbol
_atom_site_fract_x
_atom_site_fract_y
_atom_site_fract_z
La11	La1	0.234630	0.519220	0.518400
S11	S1	0.196400	0.619000	0.996090
S21	S2	0.411810	0.235350	0.939750
S31	S3	0.348380	0.050740	0.376360
O11	O1	0.067500	0.546700	0.376400
O21	O2	0.416900	0.400300	0.331700
O31	O3	0.927700	0.575600	0.249800
O41	O4	0.236700	0.292700	0.482300
O51	O5	0.648100	0.308300	0.665800
O61	O6	0.453400	0.395200	0.595100
C11	C1	0.413500	0.012600	0.517400
H11	H1	0.375900	0.081100	0.565100
H21	H2	0.366100	0.940300	0.573100
C21	C2	0.206000	0.600300	0.154600
H31	H3	0.288500	0.533400	0.162700
H41	H4	0.238200	0.675500	0.162800
C31	C3	0.381100	0.397900	0.952900
H51	H5	0.418900	0.407000	0.019800
H61	H6	0.445200	0.442700	0.872600
C41	C4	0.210500	0.457700	0.982800
H71	H7	0.144600	0.413800	0.062800
H81	H8	0.172000	0.452000	0.915100
C51	C5	0.392000	0.243100	0.785200
H91	H9	0.408400	0.159600	0.766900
H101	H10	0.284600	0.277500	0.790000
C61	C6	0.415600	0.196200	0.302000
H111	H11	0.530000	0.185700	0.278300
H121	H12	0.391100	0.220900	0.223000
C71	C7	0.056000	0.573300	0.265400
C81	C8	0.350400	0.302100	0.378500
C91	C9	0.506000	0.320000	0.675400
La21	La2	0.765370	0.480780	0.481600
S41	S4	0.803600	0.381000	0.003910
S51	S5	0.588190	0.764650	0.060250
S61	S6	0.651620	0.949260	0.623640
O71	O7	0.932500	0.453300	0.623600
O81	O8	0.583100	0.599700	0.668300
O91	O9	0.072300	0.424400	0.750200
O101	O10	0.763300	0.707300	0.517700
O111	O11	0.351900	0.691700	0.334200
O121	O12	0.546600	0.604800	0.404900
C101	C10	0.586500	0.987400	0.482600
H131	H13	0.624100	0.918900	0.434900
H141	H14	0.633900	0.059700	0.426900
C111	C11	0.794000	0.399700	0.845400
H151	H15	0.711500	0.466600	0.837300
H161	H16	0.761800	0.324500	0.837200
C121	C12	0.618900	0.602100	0.047100
H171	H17	0.581100	0.593000	0.980200
H181	H18	0.554800	0.557300	0.127400
C131	C13	0.789500	0.542300	0.017200
H191	H19	0.855400	0.586200	0.937200
H201	H20	0.828000	0.548000	0.084900
C141	C14	0.608000	0.756900	0.214800
H211	H21	0.591600	0.840400	0.233100
H221	H22	0.715400	0.722500	0.210000
C151	C15	0.584400	0.803800	0.698000
H231	H23	0.470000	0.814300	0.721700
H241	H24	0.608900	0.779100	0.777000
C161	C16	0.944000	0.426700	0.734600
C171	C17	0.649600	0.697900	0.621500
C181	C18	0.494000	0.680000	0.324600
