data_EGAGEA_clean_PM
_symmetry_space_group_name_H-M	'P1'
_cell_length_a	9.174200
_cell_length_b	11.115300
_cell_length_c	11.171400
_cell_angle_alpha	77.009000
_cell_angle_beta	68.082000
_cell_angle_gamma	78.222000
_symmetry_Int_Tables_number 1

loop_
_symmetry_equiv_pos_as_xyz
'x,y,z'

loop_
_atom_site_label
_atom_site_type_symbol
_atom_site_fract_x
_atom_site_fract_y
_atom_site_fract_z
Gd11	Gd1	0.725400	0.515980	0.020280
C11	C1	0.006000	0.672800	0.833300
S11	S1	0.847800	0.055700	0.876110
C21	C2	0.103500	0.757500	0.718800
H11	H1	0.214600	0.730700	0.707600
H21	H2	0.077500	0.841200	0.739500
C31	C3	0.114400	0.599500	0.553200
H31	H3	0.052700	0.554300	0.635600
H41	H4	0.076700	0.588700	0.486500
S21	S2	0.306420	0.379080	0.506740
O11	O1	0.912300	0.405100	0.837700
S31	S3	0.076670	0.762910	0.565630
O21	O2	0.729400	0.298500	0.984200
C41	C4	0.286700	0.541300	0.520600
H51	H5	0.325100	0.547700	0.588600
H61	H6	0.350600	0.586000	0.438700
O31	O3	0.567700	0.431900	0.244500
C51	C5	0.293200	0.397400	0.347400
H71	H7	0.265400	0.320700	0.339300
H81	H8	0.206800	0.462600	0.341800
O41	O4	0.863500	0.672500	0.851600
C61	C6	0.438900	0.428300	0.232700
C71	C7	0.912800	0.015300	0.018200
H91	H9	0.877300	0.084700	0.066100
H101	H10	0.863400	0.944300	0.075800
O51	O5	0.075100	0.605200	0.907400
C81	C8	0.915100	0.201300	0.803100
H111	H11	0.029300	0.189600	0.781200
H121	H12	0.894000	0.227200	0.721600
C91	C9	0.845800	0.307400	0.881900
O61	O6	0.425000	0.453200	0.121400
Gd21	Gd2	0.274600	0.484020	0.979720
C101	C10	0.994000	0.327200	0.166700
S41	S4	0.152200	0.944300	0.123890
C111	C11	0.896500	0.242500	0.281200
H131	H13	0.785400	0.269300	0.292400
H141	H14	0.922500	0.158800	0.260500
C121	C12	0.885600	0.400500	0.446800
H151	H15	0.947300	0.445700	0.364400
H161	H16	0.923300	0.411300	0.513500
S51	S5	0.693580	0.620920	0.493260
O71	O7	0.087700	0.594900	0.162300
S61	S6	0.923330	0.237090	0.434370
O81	O8	0.270600	0.701500	0.015800
C131	C13	0.713300	0.458700	0.479400
H171	H17	0.674900	0.452300	0.411400
H181	H18	0.649400	0.414000	0.561300
O91	O9	0.432300	0.568100	0.755500
C141	C14	0.706800	0.602600	0.652600
H191	H19	0.734600	0.679300	0.660700
H201	H20	0.793200	0.537400	0.658200
O101	O10	0.136500	0.327500	0.148400
C151	C15	0.561100	0.571700	0.767300
C161	C16	0.087200	0.984700	0.981800
H211	H21	0.122700	0.915300	0.933900
H221	H22	0.136600	0.055700	0.924200
O111	O11	0.924900	0.394800	0.092600
C171	C17	0.084900	0.798700	0.196900
H231	H23	0.970700	0.810400	0.218800
H241	H24	0.106000	0.772800	0.278400
C181	C18	0.154200	0.692600	0.118100
O121	O12	0.575000	0.546800	0.878600
