data_EGATOW_clean_PM
_symmetry_space_group_name_H-M	'P1'
_cell_length_a	11.760300
_cell_length_b	18.710700
_cell_length_c	18.710700
_cell_angle_alpha	90.000000
_cell_angle_beta	90.000000
_cell_angle_gamma	90.000000
_symmetry_Int_Tables_number 1

loop_
_symmetry_equiv_pos_as_xyz
'x,y,z'

loop_
_atom_site_label
_atom_site_type_symbol
_atom_site_fract_x
_atom_site_fract_y
_atom_site_fract_z
Zn11	Zn1	0.643860	0.285710	0.781620
Zn21	Zn2	0.643860	0.714290	0.218380
Zn31	Zn3	0.143860	0.218380	0.285710
Zn41	Zn4	0.143860	0.781620	0.714290
Zn51	Zn5	0.643860	0.785710	0.718380
Zn61	Zn6	0.643860	0.214290	0.281620
Zn71	Zn7	0.143860	0.718380	0.214290
Zn81	Zn8	0.143860	0.281620	0.785710
Co11	Co1	0.817940	0.153890	0.821680
Co21	Co2	0.817940	0.846110	0.178320
Co31	Co3	0.317940	0.178320	0.153890
Co41	Co4	0.317940	0.821680	0.846110
Co51	Co5	0.817940	0.653890	0.678320
Co61	Co6	0.817940	0.346110	0.321680
Co71	Co7	0.317940	0.678320	0.346110
Co81	Co8	0.317940	0.321680	0.653890
H11	H1	0.089800	0.271700	0.508700
H21	H2	0.709800	0.221000	0.556700
H31	H3	0.089800	0.728300	0.491300
H41	H4	0.709800	0.779000	0.443300
H51	H5	0.589800	0.491300	0.271700
H61	H6	0.209800	0.443300	0.221000
H71	H7	0.589800	0.508700	0.728300
H81	H8	0.209800	0.556700	0.779000
H91	H9	0.089800	0.771700	0.991300
H101	H10	0.709800	0.721000	0.943300
H111	H11	0.089800	0.228300	0.008700
H121	H12	0.709800	0.279000	0.056700
H131	H13	0.589800	0.991300	0.228300
H141	H14	0.209800	0.943300	0.279000
H151	H15	0.589800	0.008700	0.771700
H161	H16	0.209800	0.056700	0.721000
C11	C1	0.810100	0.240900	0.678300
C21	C2	0.859400	0.245800	0.604700
C31	C3	0.971500	0.262000	0.588700
C41	C4	0.011900	0.262100	0.518000
C51	C5	0.939000	0.248200	0.462400
C61	C6	0.822900	0.233200	0.475500
C71	C7	0.787100	0.231900	0.547000
C81	C8	0.057700	0.282100	0.644800
C91	C9	0.992500	0.251800	0.389400
C101	C10	0.733300	0.220800	0.419900
C111	C11	0.810100	0.759100	0.321700
C121	C12	0.859400	0.754200	0.395300
C131	C13	0.971500	0.738000	0.411300
C141	C14	0.011900	0.737900	0.482000
C151	C15	0.939000	0.751800	0.537600
C161	C16	0.822900	0.766800	0.524500
C171	C17	0.787100	0.768100	0.453000
C181	C18	0.057700	0.717900	0.355200
C191	C19	0.992500	0.748200	0.610600
C201	C20	0.733300	0.779200	0.580100
C211	C21	0.310100	0.321700	0.240900
C221	C22	0.359400	0.395300	0.245800
C231	C23	0.471500	0.411300	0.262000
C241	C24	0.511900	0.482000	0.262100
C251	C25	0.439000	0.537600	0.248200
C261	C26	0.322900	0.524500	0.233200
C271	C27	0.287100	0.453000	0.231900
C281	C28	0.557700	0.355200	0.282100
C291	C29	0.492500	0.610600	0.251800
C301	C30	0.233300	0.580100	0.220800
C311	C31	0.310100	0.678300	0.759100
C321	C32	0.359400	0.604700	0.754200
C331	C33	0.471500	0.588700	0.738000
C341	C34	0.511900	0.518000	0.737900
C351	C35	0.439000	0.462400	0.751800
C361	C36	0.322900	0.475500	0.766800
C371	C37	0.287100	0.547000	0.768100
C381	C38	0.557700	0.644800	0.717900
C391	C39	0.492500	0.389400	0.748200
C401	C40	0.233300	0.419900	0.779200
C411	C41	0.810100	0.740900	0.821700
C421	C42	0.859400	0.745800	0.895300
C431	C43	0.971500	0.762000	0.911300
C441	C44	0.011900	0.762100	0.982000
C451	C45	0.939000	0.748200	0.037600
C461	C46	0.822900	0.733200	0.024500
C471	C47	0.787100	0.731900	0.953000
C481	C48	0.057700	0.782100	0.855200
C491	C49	0.992500	0.751800	0.110600
C501	C50	0.733300	0.720800	0.080100
C511	C51	0.810100	0.259100	0.178300
C521	C52	0.859400	0.254200	0.104700
C531	C53	0.971500	0.238000	0.088700
C541	C54	0.011900	0.237900	0.018000
C551	C55	0.939000	0.251800	0.962400
C561	C56	0.822900	0.266800	0.975500
C571	C57	0.787100	0.268100	0.047000
C581	C58	0.057700	0.217900	0.144800
C591	C59	0.992500	0.248200	0.889400
C601	C60	0.733300	0.279200	0.919900
C611	C61	0.310100	0.821700	0.259100
C621	C62	0.359400	0.895300	0.254200
C631	C63	0.471500	0.911300	0.238000
C641	C64	0.511900	0.982000	0.237900
C651	C65	0.439000	0.037600	0.251800
C661	C66	0.322900	0.024500	0.266800
C671	C67	0.287100	0.953000	0.268100
C681	C68	0.557700	0.855200	0.217900
C691	C69	0.492500	0.110600	0.248200
C701	C70	0.233300	0.080100	0.279200
C711	C71	0.310100	0.178300	0.740900
C721	C72	0.359400	0.104700	0.745800
C731	C73	0.471500	0.088700	0.762000
C741	C74	0.511900	0.018000	0.762100
C751	C75	0.439000	0.962400	0.748200
C761	C76	0.322900	0.975500	0.733200
C771	C77	0.287100	0.047000	0.731900
C781	C78	0.557700	0.144800	0.782100
C791	C79	0.492500	0.889400	0.751800
C801	C80	0.233300	0.919900	0.720800
O11	O1	0.826800	0.187100	0.714900
O21	O2	0.740400	0.292000	0.695200
O31	O3	0.031200	0.277400	0.709000
O41	O4	0.153100	0.305300	0.622600
O51	O5	0.073000	0.207500	0.379500
O61	O6	0.971300	0.302100	0.345400
O71	O7	0.759800	0.237400	0.354400
O81	O8	0.638800	0.199600	0.435400
O91	O9	0.826800	0.812900	0.285100
O101	O10	0.740400	0.708000	0.304800
O111	O11	0.031200	0.722600	0.291000
O121	O12	0.153100	0.694700	0.377400
O131	O13	0.073000	0.792500	0.620500
O141	O14	0.971300	0.697900	0.654600
O151	O15	0.759800	0.762600	0.645600
O161	O16	0.638800	0.800400	0.564600
O171	O17	0.326800	0.285100	0.187100
O181	O18	0.240400	0.304800	0.292000
O191	O19	0.531200	0.291000	0.277400
O201	O20	0.653100	0.377400	0.305300
O211	O21	0.573000	0.620500	0.207500
O221	O22	0.471300	0.654600	0.302100
O231	O23	0.259800	0.645600	0.237400
O241	O24	0.138800	0.564600	0.199600
O251	O25	0.326800	0.714900	0.812900
O261	O26	0.240400	0.695200	0.708000
O271	O27	0.531200	0.709000	0.722600
O281	O28	0.653100	0.622600	0.694700
O291	O29	0.573000	0.379500	0.792500
O301	O30	0.471300	0.345400	0.697900
O311	O31	0.259800	0.354400	0.762600
O321	O32	0.138800	0.435400	0.800400
O331	O33	0.826800	0.687100	0.785100
O341	O34	0.740400	0.792000	0.804800
O351	O35	0.031200	0.777400	0.791000
O361	O36	0.153100	0.805300	0.877400
O371	O37	0.073000	0.707500	0.120500
O381	O38	0.971300	0.802100	0.154600
O391	O39	0.759800	0.737400	0.145600
O401	O40	0.638800	0.699600	0.064600
O411	O41	0.826800	0.312900	0.214900
O421	O42	0.740400	0.208000	0.195200
O431	O43	0.031200	0.222600	0.209000
O441	O44	0.153100	0.194700	0.122600
O451	O45	0.073000	0.292500	0.879500
O461	O46	0.971300	0.197900	0.845400
O471	O47	0.759800	0.262600	0.854400
O481	O48	0.638800	0.300400	0.935400
O491	O49	0.326800	0.785100	0.312900
O501	O50	0.240400	0.804800	0.208000
O511	O51	0.531200	0.791000	0.222600
O521	O52	0.653100	0.877400	0.194700
O531	O53	0.573000	0.120500	0.292500
O541	O54	0.471300	0.154600	0.197900
O551	O55	0.259800	0.145600	0.262600
O561	O56	0.138800	0.064600	0.300400
O571	O57	0.326800	0.214900	0.687100
O581	O58	0.240400	0.195200	0.792000
O591	O59	0.531200	0.209000	0.777400
O601	O60	0.653100	0.122600	0.805300
O611	O61	0.573000	0.879500	0.707500
O621	O62	0.471300	0.845400	0.802100
O631	O63	0.259800	0.854400	0.737400
O641	O64	0.138800	0.935400	0.699600
