data_EGATAI_clean_PM
_symmetry_space_group_name_H-M	'P1'
_cell_length_a	14.152000
_cell_length_b	14.152000
_cell_length_c	14.152000
_cell_angle_alpha	90.000000
_cell_angle_beta	90.000000
_cell_angle_gamma	90.000000
_symmetry_Int_Tables_number 1

loop_
_symmetry_equiv_pos_as_xyz
'x,y,z'

loop_
_atom_site_label
_atom_site_type_symbol
_atom_site_fract_x
_atom_site_fract_y
_atom_site_fract_z
O11	O1	0.565200	0.412000	0.775900
O21	O2	0.693200	0.373900	0.687800
O31	O3	0.808000	0.154000	0.776000
C11	C1	0.623900	0.424200	0.708900
C21	C2	0.599700	0.504100	0.641100
C31	C3	0.656400	0.522600	0.565700
H11	H1	0.708400	0.482000	0.553900
O41	O4	0.934800	0.588000	0.275900
O51	O5	0.806800	0.626100	0.187800
O61	O6	0.692000	0.846000	0.276000
C41	C4	0.876100	0.575800	0.208900
C51	C5	0.900300	0.495900	0.141100
C61	C6	0.843600	0.477400	0.065700
H21	H2	0.791600	0.518000	0.053900
O71	O7	0.434800	0.912000	0.724100
O81	O8	0.306800	0.873900	0.812200
O91	O9	0.192000	0.654000	0.724000
C71	C7	0.376100	0.924200	0.791100
C81	C8	0.400300	0.004100	0.858900
C91	C9	0.343600	0.022600	0.934300
H31	H3	0.291600	0.982000	0.946100
O101	O10	0.065200	0.088000	0.224100
O111	O11	0.193200	0.126100	0.312200
O121	O12	0.308000	0.346000	0.224000
C101	C10	0.123900	0.075800	0.291100
C111	C11	0.099700	0.995900	0.358900
C121	C12	0.156400	0.977400	0.434300
H41	H4	0.208400	0.018000	0.446100
O131	O13	0.775900	0.565200	0.412000
O141	O14	0.687800	0.693200	0.373900
O151	O15	0.776000	0.808000	0.154000
C131	C13	0.708900	0.623900	0.424200
C141	C14	0.641100	0.599700	0.504100
C151	C15	0.565700	0.656400	0.522600
H51	H5	0.553900	0.708400	0.482000
O161	O16	0.275900	0.934800	0.588000
O171	O17	0.187800	0.806800	0.626100
O181	O18	0.276000	0.692000	0.846000
C161	C16	0.208900	0.876100	0.575800
C171	C17	0.141100	0.900300	0.495900
C181	C18	0.065700	0.843600	0.477400
H61	H6	0.053900	0.791600	0.518000
O191	O19	0.724100	0.434800	0.912000
O201	O20	0.812200	0.306800	0.873900
O211	O21	0.724000	0.192000	0.654000
C191	C19	0.791100	0.376100	0.924200
C201	C20	0.858900	0.400300	0.004100
C211	C21	0.934300	0.343600	0.022600
H71	H7	0.946100	0.291600	0.982000
O221	O22	0.224100	0.065200	0.088000
O231	O23	0.312200	0.193200	0.126100
O241	O24	0.224000	0.308000	0.346000
C221	C22	0.291100	0.123900	0.075800
C231	C23	0.358900	0.099700	0.995900
C241	C24	0.434300	0.156400	0.977400
H81	H8	0.446100	0.208400	0.018000
O251	O25	0.412000	0.775900	0.565200
O261	O26	0.373900	0.687800	0.693200
O271	O27	0.154000	0.776000	0.808000
C251	C25	0.424200	0.708900	0.623900
C261	C26	0.504100	0.641100	0.599700
C271	C27	0.522600	0.565700	0.656400
H91	H9	0.482000	0.553900	0.708400
O281	O28	0.588000	0.275900	0.934800
O291	O29	0.626100	0.187800	0.806800
O301	O30	0.846000	0.276000	0.692000
C281	C28	0.575800	0.208900	0.876100
C291	C29	0.495900	0.141100	0.900300
C301	C30	0.477400	0.065700	0.843600
H101	H10	0.518000	0.053900	0.791600
O311	O31	0.912000	0.724100	0.434800
O321	O32	0.873900	0.812200	0.306800
O331	O33	0.654000	0.724000	0.192000
C311	C31	0.924200	0.791100	0.376100
C321	C32	0.004100	0.858900	0.400300
C331	C33	0.022600	0.934300	0.343600
H111	H11	0.982000	0.946100	0.291600
O341	O34	0.088000	0.224100	0.065200
O351	O35	0.126100	0.312200	0.193200
O361	O36	0.346000	0.224000	0.308000
C341	C34	0.075800	0.291100	0.123900
C351	C35	0.995900	0.358900	0.099700
C361	C36	0.977400	0.434300	0.156400
H121	H12	0.018000	0.446100	0.208400
Zn11	Zn1	0.728270	0.271730	0.771730
Co11	Co1	0.579700	0.420300	0.920300
O371	O37	0.868100	0.131900	0.631900
N11	N1	0.809500	0.190500	0.690500
Zn21	Zn2	0.771730	0.728270	0.271730
Co21	Co2	0.920300	0.579700	0.420300
O381	O38	0.631900	0.868100	0.131900
N21	N2	0.690500	0.809500	0.190500
Zn31	Zn3	0.271730	0.771730	0.728270
Co31	Co3	0.420300	0.920300	0.579700
O391	O39	0.131900	0.631900	0.868100
N31	N3	0.190500	0.690500	0.809500
Zn41	Zn4	0.228270	0.228270	0.228270
Co41	Co4	0.079700	0.079700	0.079700
O401	O40	0.368100	0.368100	0.368100
N41	N4	0.309500	0.309500	0.309500
