data_EGEJIK_manual_PM
_symmetry_space_group_name_H-M	'P1'
_cell_length_a	16.998100
_cell_length_b	16.998100
_cell_length_c	17.120000
_cell_angle_alpha	95.493500
_cell_angle_beta	95.493500
_cell_angle_gamma	95.768000
_symmetry_Int_Tables_number 1

loop_
_symmetry_equiv_pos_as_xyz
'x,y,z'

loop_
_atom_site_label
_atom_site_type_symbol
_atom_site_fract_x
_atom_site_fract_y
_atom_site_fract_z
Zn11	Zn1	0.903340	0.786150	0.678140
Zn21	Zn2	0.785150	0.902600	0.675920
Zn31	Zn3	0.915480	0.918650	0.812280
Zn41	Zn4	0.783560	0.784650	0.795490
H11	H1	0.131110	0.812200	0.628250
H21	H2	0.274010	0.811400	0.625380
H31	H3	0.314140	0.925500	0.863980
H41	H4	0.169760	0.927700	0.866680
H51	H5	0.397690	0.908950	0.629430
H61	H6	0.539250	0.896490	0.623440
H71	H7	0.550670	0.800760	0.848350
H81	H8	0.409060	0.814400	0.854620
H91	H9	0.799280	0.952560	0.299760
H101	H10	0.790000	0.948750	0.441280
H111	H11	0.812680	0.131620	0.624980
H121	H12	0.811890	0.274630	0.621690
H131	H13	0.905030	0.313900	0.867260
H141	H14	0.906890	0.169720	0.870510
H151	H15	0.909560	0.398450	0.633450
H161	H16	0.900680	0.540650	0.627510
H171	H17	0.787100	0.550750	0.842720
H181	H18	0.796980	0.408630	0.848920
H191	H19	0.906030	0.732670	0.291000
H201	H20	0.897920	0.729240	0.432870
C11	C1	0.050930	0.864120	0.749560
C21	C2	0.138780	0.869300	0.748050
C31	C3	0.170170	0.837600	0.680170
C41	C4	0.252180	0.837450	0.678240
C51	C5	0.305340	0.867890	0.744530
C61	C6	0.274440	0.900890	0.812250
C71	C7	0.191970	0.902480	0.813680
C81	C8	0.392320	0.863020	0.742680
C91	C9	0.430530	0.885240	0.677540
C101	C10	0.511590	0.878000	0.674110
C111	C11	0.556300	0.846930	0.735070
C121	C12	0.517900	0.824150	0.800020
C131	C13	0.437050	0.832770	0.804090
C141	C14	0.643230	0.842440	0.732890
C151	C15	0.820930	0.903480	0.328200
C161	C16	0.815020	0.900900	0.409210
C171	C17	0.856050	0.051500	0.749300
C181	C18	0.859290	0.139160	0.748250
C191	C19	0.833250	0.170600	0.678380
C201	C20	0.833210	0.252600	0.676250
C211	C21	0.858050	0.305490	0.744230
C221	C22	0.884870	0.274410	0.814130
C231	C23	0.886310	0.192070	0.815910
C241	C24	0.854280	0.392470	0.741850
C251	C25	0.882570	0.431140	0.679340
C261	C26	0.877460	0.512550	0.675970
C271	C27	0.842620	0.557060	0.734300
C281	C28	0.813640	0.518150	0.796450
C291	C29	0.820010	0.436980	0.800510
C301	C30	0.840200	0.644220	0.732620
C311	C31	0.832370	0.780290	0.062500
C321	C32	0.831710	0.777180	0.144030
C331	C33	0.886970	0.914820	0.167210
C341	C34	0.889440	0.917630	0.085600
C351	C35	0.880190	0.779880	0.323180
C361	C36	0.875620	0.778040	0.404510
C371	C37	0.857630	0.853340	0.944770
C381	C38	0.860830	0.850620	0.032010
C391	C39	0.857880	0.844810	0.197410
C401	C40	0.853230	0.842810	0.284040
C411	C41	0.842600	0.838320	0.448650
C421	C42	0.840470	0.838120	0.535780
O11	O1	0.019820	0.909640	0.798700
O21	O2	0.007940	0.813040	0.700260
O31	O3	0.679310	0.798810	0.777630
O41	O4	0.885730	0.681960	0.690750
O51	O5	0.884170	0.795060	0.573640
O61	O6	0.900070	0.021560	0.800540
O71	O7	0.808960	0.007510	0.697210
O81	O8	0.794590	0.680310	0.774900
O91	O9	0.680790	0.884410	0.687820
O101	O10	0.796970	0.882840	0.571920
O111	O11	0.847180	0.848270	0.740800
O121	O12	0.903840	0.903760	0.915400
O131	O13	0.807710	0.804010	0.900390
Zn51	Zn5	0.213850	0.096660	0.321860
Zn61	Zn6	0.097400	0.214850	0.324080
Zn71	Zn7	0.081350	0.084520	0.187720
Zn81	Zn8	0.215350	0.216440	0.204510
H211	H21	0.187800	0.868890	0.371750
H221	H22	0.188600	0.725990	0.374620
H231	H23	0.074500	0.685860	0.136020
H241	H24	0.072300	0.830240	0.133320
H251	H25	0.091050	0.602310	0.370570
H261	H26	0.103510	0.460750	0.376560
H271	H27	0.199240	0.449330	0.151650
H281	H28	0.185600	0.590940	0.145380
H291	H29	0.047440	0.200720	0.700240
H301	H30	0.051250	0.210000	0.558720
H311	H31	0.868380	0.187320	0.375020
H321	H32	0.725370	0.188110	0.378310
H331	H33	0.686100	0.094970	0.132740
H341	H34	0.830280	0.093110	0.129490
H351	H35	0.601550	0.090440	0.366550
H361	H36	0.459350	0.099320	0.372490
H371	H37	0.449250	0.212900	0.157280
H381	H38	0.591370	0.203020	0.151080
H391	H39	0.267330	0.093970	0.709000
H401	H40	0.270760	0.102080	0.567130
C431	C43	0.135880	0.949070	0.250440
C441	C44	0.130700	0.861220	0.251950
C451	C45	0.162400	0.829830	0.319830
C461	C46	0.162550	0.747820	0.321760
C471	C47	0.132110	0.694660	0.255470
C481	C48	0.099110	0.725560	0.187750
C491	C49	0.097520	0.808030	0.186320
C501	C50	0.136980	0.607680	0.257320
C511	C51	0.114760	0.569470	0.322460
C521	C52	0.122000	0.488410	0.325890
C531	C53	0.153070	0.443700	0.264930
C541	C54	0.175850	0.482100	0.199980
C551	C55	0.167230	0.562950	0.195910
C561	C56	0.157560	0.356770	0.267110
C571	C57	0.096520	0.179070	0.671800
C581	C58	0.099100	0.184980	0.590790
C591	C59	0.948500	0.143950	0.250700
C601	C60	0.860840	0.140710	0.251750
C611	C61	0.829400	0.166750	0.321620
C621	C62	0.747400	0.166790	0.323750
C631	C63	0.694510	0.141950	0.255770
C641	C64	0.725590	0.115130	0.185870
C651	C65	0.807930	0.113690	0.184090
C661	C66	0.607530	0.145720	0.258150
C671	C67	0.568860	0.117430	0.320660
C681	C68	0.487450	0.122540	0.324030
C691	C69	0.442940	0.157380	0.265700
C701	C70	0.481850	0.186360	0.203550
C711	C71	0.563020	0.179990	0.199490
C721	C72	0.355780	0.159800	0.267380
C731	C73	0.219710	0.167630	0.937500
C741	C74	0.222820	0.168290	0.855970
C751	C75	0.085180	0.113030	0.832790
C761	C76	0.082370	0.110560	0.914400
C771	C77	0.220120	0.119810	0.676820
C781	C78	0.221960	0.124380	0.595490
C791	C79	0.146660	0.142370	0.055230
C801	C80	0.149380	0.139170	0.967990
C811	C81	0.155190	0.142120	0.802590
C821	C82	0.157190	0.146770	0.715960
C831	C83	0.161680	0.157400	0.551350
C841	C84	0.161880	0.159530	0.464220
O141	O14	0.090360	0.980180	0.201300
O151	O15	0.186960	0.992060	0.299740
O161	O16	0.201190	0.320690	0.222370
O171	O17	0.318040	0.114270	0.309250
O181	O18	0.204940	0.115830	0.426360
O191	O19	0.978440	0.099930	0.199460
O201	O20	0.992490	0.191040	0.302790
O211	O21	0.319690	0.205410	0.225100
O221	O22	0.115590	0.319210	0.312180
O231	O23	0.117160	0.203030	0.428080
O241	O24	0.151730	0.152820	0.259200
O251	O25	0.096240	0.096160	0.084600
O261	O26	0.195990	0.192290	0.099610
H411	H41	0.810350	0.727340	0.023100
H421	H42	0.808700	0.722350	0.165280
H431	H43	0.907920	0.967140	0.207370
H441	H44	0.911820	0.972690	0.064360
H451	H45	0.272660	0.189650	0.976900
H461	H46	0.277650	0.191300	0.834720
H471	H47	0.032860	0.092080	0.792630
H481	H48	0.027310	0.088180	0.935640
