data_EGELUY01_manual_PM
_symmetry_space_group_name_H-M	'P1'
_cell_length_a	6.621800
_cell_length_b	16.214800
_cell_length_c	13.588600
_cell_angle_alpha	90.000000
_cell_angle_beta	90.000000
_cell_angle_gamma	90.000000
_symmetry_Int_Tables_number 1

loop_
_symmetry_equiv_pos_as_xyz
'x,y,z'

loop_
_atom_site_label
_atom_site_type_symbol
_atom_site_fract_x
_atom_site_fract_y
_atom_site_fract_z
C11	C1	0.813560	0.034380	0.967830
O21	O2	0.166010	0.171840	0.835430
H31	H3	0.670340	0.058810	0.943420
C41	C4	0.314050	0.534640	0.467500
O51	O5	0.668250	0.671800	0.335540
H61	H6	0.171220	0.559150	0.442600
C71	C7	0.177510	0.467400	0.969620
O81	O8	0.822580	0.330770	0.837190
H91	H9	0.320340	0.442440	0.945360
C101	C10	0.677970	0.967560	0.470050
O111	O11	0.324780	0.830630	0.337210
H121	H12	0.821170	0.942680	0.446200
C131	C13	0.178020	0.535550	0.034140
O141	O14	0.824630	0.672550	0.166860
H151	H15	0.321220	0.560360	0.058130
C161	C16	0.677450	0.036010	0.534100
O171	O17	0.322480	0.172850	0.666040
H181	H18	0.820250	0.061160	0.558130
C191	C19	0.814160	0.966650	0.032870
O201	O20	0.168090	0.831400	0.167460
H211	H21	0.671350	0.941660	0.057130
C221	C22	0.313460	0.467000	0.532730
O231	O23	0.665790	0.331320	0.667750
H241	H24	0.170270	0.442230	0.556710
C251	C25	0.177860	0.966950	0.032640
O261	O26	0.824980	0.830860	0.166710
H271	H27	0.321060	0.942200	0.056680
C281	C28	0.677140	0.466970	0.533390
O291	O29	0.322650	0.331020	0.666790
H301	H30	0.819920	0.442160	0.557920
C311	C31	0.814350	0.535770	0.034410
O321	O32	0.168200	0.672510	0.167040
H331	H33	0.671540	0.560740	0.058620
C341	C34	0.313750	0.035730	0.533830
O351	O35	0.665950	0.172720	0.666920
H361	H36	0.170560	0.060600	0.557650
C371	C37	0.813840	0.467660	0.969910
O381	O38	0.165900	0.330880	0.836330
H391	H39	0.670640	0.442950	0.945880
C401	C40	0.314270	0.967320	0.469810
O411	O41	0.668010	0.830700	0.337000
H421	H42	0.171450	0.942260	0.445750
C431	C43	0.177280	0.034690	0.967550
O441	O44	0.822510	0.172130	0.836410
H451	H45	0.320080	0.059400	0.942920
C461	C46	0.677730	0.534600	0.468110
O471	O47	0.324720	0.672320	0.336260
H481	H48	0.820920	0.559090	0.443750
Al491	Al49	0.243890	0.251690	0.751340
Al501	Al50	0.744090	0.251750	0.752060
Al511	Al51	0.745850	0.751820	0.251530
Al521	Al52	0.246010	0.751850	0.251880
O531	O53	0.993620	0.252190	0.699000
O541	O54	0.495790	0.752990	0.198970
O551	O55	0.995780	0.752510	0.304400
O561	O56	0.493630	0.251630	0.804460
C571	C57	0.996250	0.931670	0.066590
C581	C58	0.996560	0.860120	0.137650
C591	C59	0.495020	0.431880	0.566940
C601	C60	0.494440	0.360240	0.637930
C611	C61	0.996390	0.571190	0.067560
C621	C62	0.996480	0.643360	0.137810
C631	C63	0.495280	0.071530	0.567030
C641	C64	0.494520	0.143690	0.637230
C651	C65	0.995360	0.432010	0.936450
C661	C66	0.994560	0.359950	0.866030
C671	C67	0.496330	0.931810	0.436810
C681	C68	0.496450	0.859730	0.366460
C691	C69	0.995110	0.070120	0.934510
C701	C70	0.994490	0.142620	0.864780
C711	C71	0.496130	0.570170	0.434530
C721	C72	0.496490	0.642660	0.364750
H731	H73	0.493290	0.251480	0.867920
H741	H74	0.993280	0.252950	0.635560
H751	H75	0.995610	0.753420	0.367830
H761	H76	0.495630	0.754670	0.135550
