data_EGUNAX_clean_PM
_symmetry_space_group_name_H-M	'P1'
_cell_length_a	18.825000
_cell_length_b	8.391200
_cell_length_c	9.290100
_cell_angle_alpha	90.000000
_cell_angle_beta	94.064000
_cell_angle_gamma	90.000000
_symmetry_Int_Tables_number 1

loop_
_symmetry_equiv_pos_as_xyz
'x,y,z'

loop_
_atom_site_label
_atom_site_type_symbol
_atom_site_fract_x
_atom_site_fract_y
_atom_site_fract_z
O11	O1	0.580450	0.511100	0.326250
O21	O2	0.549130	0.663500	0.549500
O31	O3	0.616340	0.401700	0.568400
H11	H1	0.606700	0.415800	0.652200
P11	P1	0.602140	0.560560	0.479530
C11	C1	0.750350	0.436000	0.361700
H21	H2	0.798100	0.414000	0.337300
H31	H3	0.719000	0.436000	0.275500
H41	H4	0.735400	0.355400	0.426500
C21	C2	0.748030	0.597000	0.433600
C31	C3	0.686310	0.664100	0.484900
C41	C4	0.689660	0.814200	0.549400
H51	H5	0.648200	0.856800	0.582600
O41	O4	0.080450	0.011100	0.326250
O51	O5	0.049130	0.163500	0.549500
O61	O6	0.116340	0.901700	0.568400
H61	H6	0.106700	0.915800	0.652200
P21	P2	0.102140	0.060560	0.479530
C51	C5	0.250350	0.936000	0.361700
H71	H7	0.298100	0.914000	0.337300
H81	H8	0.219000	0.936000	0.275500
H91	H9	0.235400	0.855400	0.426500
C61	C6	0.248030	0.097000	0.433600
C71	C7	0.186310	0.164100	0.484900
C81	C8	0.189660	0.314200	0.549400
H101	H10	0.148200	0.356800	0.582600
O71	O7	0.419550	0.511100	0.173750
O81	O8	0.450870	0.663500	0.950500
O91	O9	0.383660	0.401700	0.931600
H111	H11	0.393300	0.415800	0.847800
P31	P3	0.397860	0.560560	0.020470
C91	C9	0.249650	0.436000	0.138300
H121	H12	0.201900	0.414000	0.162700
H131	H13	0.281000	0.436000	0.224500
H141	H14	0.264600	0.355400	0.073500
C101	C10	0.251970	0.597000	0.066400
C111	C11	0.313690	0.664100	0.015100
C121	C12	0.310340	0.814200	0.950600
H151	H15	0.351800	0.856800	0.917400
O101	O10	0.919550	0.011100	0.173750
O111	O11	0.950870	0.163500	0.950500
O121	O12	0.883660	0.901700	0.931600
H161	H16	0.893300	0.915800	0.847800
P41	P4	0.897860	0.060560	0.020470
C131	C13	0.749650	0.936000	0.138300
H171	H17	0.701900	0.914000	0.162700
H181	H18	0.781000	0.936000	0.224500
H191	H19	0.764600	0.855400	0.073500
C141	C14	0.751970	0.097000	0.066400
C151	C15	0.813690	0.164100	0.015100
C161	C16	0.810340	0.314200	0.950600
H201	H20	0.851800	0.356800	0.917400
O131	O13	0.419550	0.488900	0.673750
O141	O14	0.450870	0.336500	0.450500
O151	O15	0.383660	0.598300	0.431600
H211	H21	0.393300	0.584200	0.347800
P51	P5	0.397860	0.439440	0.520470
C171	C17	0.249650	0.564000	0.638300
H221	H22	0.201900	0.586000	0.662700
H231	H23	0.281000	0.564000	0.724500
H241	H24	0.264600	0.644600	0.573500
C181	C18	0.251970	0.403000	0.566400
C191	C19	0.313690	0.335900	0.515100
C201	C20	0.310340	0.185800	0.450600
H251	H25	0.351800	0.143200	0.417400
O161	O16	0.919550	0.988900	0.673750
O171	O17	0.950870	0.836500	0.450500
O181	O18	0.883660	0.098300	0.431600
H261	H26	0.893300	0.084200	0.347800
P61	P6	0.897860	0.939440	0.520470
C211	C21	0.749650	0.064000	0.638300
H271	H27	0.701900	0.086000	0.662700
H281	H28	0.781000	0.064000	0.724500
H291	H29	0.764600	0.144600	0.573500
C221	C22	0.751970	0.903000	0.566400
C231	C23	0.813690	0.835900	0.515100
C241	C24	0.810340	0.685800	0.450600
H301	H30	0.851800	0.643200	0.417400
O191	O19	0.580450	0.488900	0.826250
O201	O20	0.549130	0.336500	0.049500
O211	O21	0.616340	0.598300	0.068400
H311	H31	0.606700	0.584200	0.152200
P71	P7	0.602140	0.439440	0.979530
C251	C25	0.750350	0.564000	0.861700
H321	H32	0.798100	0.586000	0.837300
H331	H33	0.719000	0.564000	0.775500
H341	H34	0.735400	0.644600	0.926500
C261	C26	0.748030	0.403000	0.933600
C271	C27	0.686310	0.335900	0.984900
C281	C28	0.689660	0.185800	0.049400
H351	H35	0.648200	0.143200	0.082600
O221	O22	0.080450	0.988900	0.826250
O231	O23	0.049130	0.836500	0.049500
O241	O24	0.116340	0.098300	0.068400
H361	H36	0.106700	0.084200	0.152200
P81	P8	0.102140	0.939440	0.979530
C291	C29	0.250350	0.064000	0.861700
H371	H37	0.298100	0.086000	0.837300
H381	H38	0.219000	0.064000	0.775500
H391	H39	0.235400	0.144600	0.926500
C301	C30	0.248030	0.903000	0.933600
C311	C31	0.186310	0.835900	0.984900
C321	C32	0.189660	0.685800	0.049400
H401	H40	0.148200	0.643200	0.082600
Mn11	Mn1	0.500000	0.338670	0.250000
Mn21	Mn2	0.000000	0.838670	0.250000
Mn31	Mn3	0.500000	0.661330	0.750000
Mn41	Mn4	0.000000	0.161330	0.750000
