data_EHAFIE_clean_PM
_symmetry_space_group_name_H-M	'P1'
_cell_length_a	10.945300
_cell_length_b	11.485100
_cell_length_c	13.453000
_cell_angle_alpha	69.539000
_cell_angle_beta	80.095000
_cell_angle_gamma	62.420000
_symmetry_Int_Tables_number 1

loop_
_symmetry_equiv_pos_as_xyz
'x,y,z'

loop_
_atom_site_label
_atom_site_type_symbol
_atom_site_fract_x
_atom_site_fract_y
_atom_site_fract_z
U11	U1	0.632660	0.701780	0.833520
Ce11	Ce1	0.621990	0.213980	0.775130
O11	O1	0.858700	0.528700	0.905100
O21	O2	0.775300	0.484200	0.794400
O31	O3	0.856400	0.205900	0.761200
O41	O4	0.900900	0.355300	0.622600
O51	O5	0.428300	0.908100	0.827500
O61	O6	0.515500	0.060500	0.774900
O71	O7	0.475100	0.174100	0.931500
O81	O8	0.311800	0.214600	0.053800
O91	O9	0.508600	0.691400	0.712800
O101	O10	0.428800	0.698200	0.570400
O111	O11	0.739100	0.629700	0.533900
O121	O12	0.856300	0.751300	0.478600
C11	C1	0.008300	0.335900	0.845800
C21	C2	0.118000	0.311200	0.904900
H11	H1	0.099700	0.361100	0.951500
C31	C3	0.251000	0.215100	0.895200
C41	C4	0.278000	0.136700	0.826700
C51	C5	0.167100	0.155300	0.773700
H21	H2	0.183300	0.098700	0.732900
C61	C6	0.032600	0.256800	0.780600
C71	C7	0.620100	0.001100	0.451500
H31	H3	0.701600	0.002600	0.418600
C81	C8	0.618100	0.874300	0.503600
C91	C9	0.494600	0.873600	0.553400
C101	C10	0.872700	0.454700	0.848700
C111	C11	0.355900	0.198500	0.962200
C121	C12	0.419100	0.027800	0.809000
C131	C13	0.921100	0.274900	0.717100
C141	C14	0.479600	0.744700	0.616400
C151	C15	0.742200	0.744700	0.507800
U21	U2	0.367340	0.298220	0.166480
Ce21	Ce2	0.378010	0.786020	0.224870
O131	O13	0.141300	0.471300	0.094900
O141	O14	0.224700	0.515800	0.205600
O151	O15	0.143600	0.794100	0.238800
O161	O16	0.099100	0.644700	0.377400
O171	O17	0.571700	0.091900	0.172500
O181	O18	0.484500	0.939500	0.225100
O191	O19	0.524900	0.825900	0.068500
O201	O20	0.688200	0.785400	0.946200
O211	O21	0.491400	0.308600	0.287200
O221	O22	0.571200	0.301800	0.429600
O231	O23	0.260900	0.370300	0.466100
O241	O24	0.143700	0.248700	0.521400
C161	C16	0.991700	0.664100	0.154200
C171	C17	0.882000	0.688800	0.095100
H41	H4	0.900300	0.638900	0.048500
C181	C18	0.749000	0.784900	0.104800
C191	C19	0.722000	0.863300	0.173300
C201	C20	0.832900	0.844700	0.226300
H51	H5	0.816700	0.901300	0.267100
C211	C21	0.967400	0.743200	0.219400
C221	C22	0.379900	0.998900	0.548500
H61	H6	0.298400	0.997400	0.581400
C231	C23	0.381900	0.125700	0.496400
C241	C24	0.505400	0.126400	0.446600
C251	C25	0.127300	0.545300	0.151300
C261	C26	0.644100	0.801500	0.037800
C271	C27	0.580900	0.972200	0.191000
C281	C28	0.078900	0.725100	0.282900
C291	C29	0.520400	0.255300	0.383600
C301	C30	0.257800	0.255300	0.492200
U31	U3	0.000000	0.500000	0.500000
