data_EHAFEA_clean_PM
_symmetry_space_group_name_H-M	'P1'
_cell_length_a	10.509000
_cell_length_b	11.480000
_cell_length_c	13.426000
_cell_angle_alpha	69.137000
_cell_angle_beta	78.671000
_cell_angle_gamma	63.564000
_symmetry_Int_Tables_number 1

loop_
_symmetry_equiv_pos_as_xyz
'x,y,z'

loop_
_atom_site_label
_atom_site_type_symbol
_atom_site_fract_x
_atom_site_fract_y
_atom_site_fract_z
U11	U1	0.622330	0.714000	0.836030
Yb11	Yb1	0.597790	0.231170	0.750740
C11	C1	0.997000	0.342600	0.852300
C21	C2	0.109600	0.313000	0.910000
H11	H1	0.094400	0.359100	0.958800
C31	C3	0.245700	0.214900	0.895800
C41	C4	0.265600	0.142700	0.823300
C51	C5	0.146700	0.165000	0.773200
H21	H2	0.157400	0.112100	0.730800
C61	C6	0.012300	0.266800	0.787200
C71	C7	0.628700	0.001900	0.448000
H31	H3	0.714500	0.001700	0.413300
C81	C8	0.616500	0.876200	0.504900
C91	C9	0.486200	0.876800	0.555600
C101	C10	0.862400	0.462500	0.857400
C111	C11	0.360000	0.194600	0.956600
C121	C12	0.407500	0.042000	0.795000
C131	C13	0.892200	0.292900	0.724600
C141	C14	0.465500	0.749200	0.620100
C151	C15	0.743800	0.747500	0.506100
O11	O1	0.852300	0.534400	0.914000
O21	O2	0.761400	0.497100	0.799400
O31	O3	0.812100	0.234200	0.772600
O41	O4	0.885400	0.362500	0.626200
O51	O5	0.415300	0.921900	0.817000
O61	O6	0.504600	0.079200	0.755300
O71	O7	0.482700	0.179900	0.915400
O81	O8	0.328400	0.195100	0.051200
O91	O9	0.498400	0.694400	0.719000
O101	O10	0.409500	0.702600	0.579200
O111	O11	0.734700	0.634100	0.533400
O121	O12	0.863400	0.748300	0.481400
U21	U2	0.377670	0.286000	0.163970
Yb21	Yb2	0.402210	0.768830	0.249260
C161	C16	0.003000	0.657400	0.147700
C171	C17	0.890400	0.687000	0.090000
H41	H4	0.905600	0.640900	0.041200
C181	C18	0.754300	0.785100	0.104200
C191	C19	0.734400	0.857300	0.176700
C201	C20	0.853300	0.835000	0.226800
H51	H5	0.842600	0.887900	0.269200
C211	C21	0.987700	0.733200	0.212800
C221	C22	0.371300	0.998100	0.552000
H61	H6	0.285500	0.998300	0.586700
C231	C23	0.383500	0.123800	0.495100
C241	C24	0.513800	0.123200	0.444400
C251	C25	0.137600	0.537500	0.142600
C261	C26	0.640000	0.805400	0.043400
C271	C27	0.592500	0.958000	0.205000
C281	C28	0.107800	0.707100	0.275400
C291	C29	0.534500	0.250800	0.379900
C301	C30	0.256200	0.252500	0.493900
O131	O13	0.147700	0.465600	0.086000
O141	O14	0.238600	0.502900	0.200600
O151	O15	0.187900	0.765800	0.227400
O161	O16	0.114600	0.637500	0.373800
O171	O17	0.584700	0.078100	0.183000
O181	O18	0.495400	0.920800	0.244700
O191	O19	0.517300	0.820100	0.084600
O201	O20	0.671600	0.804900	0.948800
O211	O21	0.501600	0.305600	0.281000
O221	O22	0.590500	0.297400	0.420800
O231	O23	0.265300	0.365900	0.466600
O241	O24	0.136600	0.251700	0.518600
U31	U3	0.000000	0.500000	0.500000
