data_EHAFUQ_clean_PM
_symmetry_space_group_name_H-M	'P1'
_cell_length_a	10.876100
_cell_length_b	11.486600
_cell_length_c	13.422500
_cell_angle_alpha	69.499000
_cell_angle_beta	79.992000
_cell_angle_gamma	62.506000
_symmetry_Int_Tables_number 1

loop_
_symmetry_equiv_pos_as_xyz
'x,y,z'

loop_
_atom_site_label
_atom_site_type_symbol
_atom_site_fract_x
_atom_site_fract_y
_atom_site_fract_z
U11	U1	0.631560	0.702860	0.833060
Nd11	Nd1	0.620630	0.215190	0.774980
O11	O1	0.857100	0.528300	0.907000
O21	O2	0.774200	0.485300	0.794300
O31	O3	0.853500	0.207400	0.761200
O41	O4	0.898300	0.356700	0.622700
O51	O5	0.427000	0.909500	0.827100
O61	O6	0.517000	0.059400	0.776000
O71	O7	0.476300	0.176000	0.931500
O81	O8	0.312100	0.213500	0.054400
O91	O9	0.506800	0.691500	0.712400
O101	O10	0.425200	0.700100	0.569800
O111	O11	0.736200	0.631400	0.531800
O121	O12	0.857500	0.751200	0.477300
C11	C1	0.008300	0.337100	0.845900
C21	C2	0.117200	0.312400	0.904800
H11	H1	0.099200	0.362900	0.951000
C31	C3	0.250700	0.214600	0.895700
C41	C4	0.277300	0.134500	0.828100
C51	C5	0.166000	0.155100	0.774800
H21	H2	0.181500	0.098400	0.734200
C61	C6	0.032700	0.257600	0.780100
C71	C7	0.620800	0.002000	0.451800
H31	H3	0.703600	0.002500	0.419800
C81	C8	0.615200	0.875500	0.503300
C91	C9	0.492300	0.874800	0.552800
C101	C10	0.872100	0.455500	0.850000
C111	C11	0.356900	0.198600	0.962200
C121	C12	0.418800	0.029700	0.808700
C131	C13	0.919100	0.277500	0.717000
C141	C14	0.474500	0.745800	0.615400
C151	C15	0.742600	0.744400	0.505600
U21	U2	0.368440	0.297140	0.166940
Nd21	Nd2	0.379370	0.784810	0.225020
O131	O13	0.142900	0.471700	0.093000
O141	O14	0.225800	0.514700	0.205700
O151	O15	0.146500	0.792600	0.238800
O161	O16	0.101700	0.643300	0.377300
O171	O17	0.573000	0.090500	0.172900
O181	O18	0.483000	0.940600	0.224000
O191	O19	0.523700	0.824000	0.068500
O201	O20	0.687900	0.786500	0.945600
O211	O21	0.493200	0.308500	0.287600
O221	O22	0.574800	0.299900	0.430200
O231	O23	0.263800	0.368600	0.468200
O241	O24	0.142500	0.248800	0.522700
C161	C16	0.991700	0.662900	0.154100
C171	C17	0.882800	0.687600	0.095200
H41	H4	0.900800	0.637100	0.049000
C181	C18	0.749300	0.785400	0.104300
C191	C19	0.722700	0.865500	0.171900
C201	C20	0.834000	0.844900	0.225200
H51	H5	0.818500	0.901600	0.265800
C211	C21	0.967300	0.742400	0.219900
C221	C22	0.379200	0.998000	0.548200
H61	H6	0.296400	0.997500	0.580200
C231	C23	0.384800	0.124500	0.496700
C241	C24	0.507700	0.125200	0.447200
C251	C25	0.127900	0.544500	0.150000
C261	C26	0.643100	0.801400	0.037800
C271	C27	0.581200	0.970300	0.191300
C281	C28	0.080900	0.722500	0.283000
C291	C29	0.525500	0.254200	0.384600
C301	C30	0.257400	0.255600	0.494400
U31	U3	0.000000	0.500000	0.500000
