data_EHAFOK_clean_PM
_symmetry_space_group_name_H-M	'P1'
_cell_length_a	10.886000
_cell_length_b	11.473700
_cell_length_c	13.473400
_cell_angle_alpha	69.544000
_cell_angle_beta	80.149000
_cell_angle_gamma	62.652000
_symmetry_Int_Tables_number 1

loop_
_symmetry_equiv_pos_as_xyz
'x,y,z'

loop_
_atom_site_label
_atom_site_type_symbol
_atom_site_fract_x
_atom_site_fract_y
_atom_site_fract_z
U11	U1	0.631710	0.702530	0.833360
Pr11	Pr1	0.619750	0.215720	0.774690
O11	O1	0.858100	0.529500	0.905600
O21	O2	0.774300	0.484200	0.794800
O31	O3	0.852800	0.207500	0.761100
O41	O4	0.899900	0.355700	0.622600
O51	O5	0.427000	0.908900	0.827400
O61	O6	0.515100	0.060600	0.774800
O71	O7	0.475600	0.175000	0.931500
O81	O8	0.312400	0.213300	0.054500
O91	O9	0.508000	0.691000	0.712800
O101	O10	0.428400	0.696200	0.569700
O111	O11	0.739100	0.631700	0.535000
O121	O12	0.858300	0.751200	0.477200
C11	C1	0.009300	0.337000	0.844900
C21	C2	0.116600	0.311600	0.904100
H11	H1	0.097900	0.361600	0.950700
C31	C3	0.251100	0.213900	0.896100
C41	C4	0.277400	0.135500	0.827100
C51	C5	0.167400	0.155500	0.774400
H21	H2	0.183400	0.099100	0.733600
C61	C6	0.032300	0.257800	0.780000
C71	C7	0.620500	0.002000	0.451500
H31	H3	0.702500	0.003200	0.418700
C81	C8	0.616900	0.875500	0.504100
C91	C9	0.493600	0.873900	0.553800
C101	C10	0.871800	0.454600	0.849600
C111	C11	0.356100	0.198300	0.963200
C121	C12	0.418400	0.029200	0.808200
C131	C13	0.918600	0.276500	0.717200
C141	C14	0.477700	0.744300	0.614400
C151	C15	0.744100	0.745100	0.506300
U21	U2	0.368290	0.297470	0.166640
Pr21	Pr2	0.380250	0.784280	0.225310
O131	O13	0.141900	0.470500	0.094400
O141	O14	0.225700	0.515800	0.205200
O151	O15	0.147200	0.792500	0.238900
O161	O16	0.100100	0.644300	0.377400
O171	O17	0.573000	0.091100	0.172600
O181	O18	0.484900	0.939400	0.225200
O191	O19	0.524400	0.825000	0.068500
O201	O20	0.687600	0.786700	0.945500
O211	O21	0.492000	0.309000	0.287200
O221	O22	0.571600	0.303800	0.430300
O231	O23	0.260900	0.368300	0.465000
O241	O24	0.141700	0.248800	0.522800
C161	C16	0.990700	0.663000	0.155100
C171	C17	0.883400	0.688400	0.095900
H41	H4	0.902100	0.638400	0.049300
C181	C18	0.748900	0.786100	0.103900
C191	C19	0.722600	0.864500	0.172900
C201	C20	0.832600	0.844500	0.225600
H51	H5	0.816600	0.900900	0.266400
C211	C21	0.967700	0.742200	0.220000
C221	C22	0.379500	0.998000	0.548500
H61	H6	0.297500	0.996800	0.581300
C231	C23	0.383100	0.124500	0.495900
C241	C24	0.506400	0.126100	0.446200
C251	C25	0.128200	0.545400	0.150400
C261	C26	0.643900	0.801700	0.036800
C271	C27	0.581600	0.970800	0.191800
C281	C28	0.081400	0.723500	0.282800
C291	C29	0.522300	0.255700	0.385600
C301	C30	0.255900	0.254900	0.493700
U31	U3	0.000000	0.500000	0.500000
