data_EHALOP_manual_PM
_symmetry_space_group_name_H-M	'P1'
_cell_length_a	15.947300
_cell_length_b	6.631000
_cell_length_c	13.920500
_cell_angle_alpha	90.000000
_cell_angle_beta	90.000000
_cell_angle_gamma	90.000000
_symmetry_Int_Tables_number 1

loop_
_symmetry_equiv_pos_as_xyz
'x,y,z'

loop_
_atom_site_label
_atom_site_type_symbol
_atom_site_fract_x
_atom_site_fract_y
_atom_site_fract_z
C11	C1	0.216360	0.565100	0.718710
O21	O2	0.080620	0.574220	0.585050
H31	H3	0.191670	0.422230	0.694580
C41	C4	0.717220	0.065570	0.217190
O51	O5	0.581340	0.075420	0.082970
H61	H6	0.692400	0.922790	0.192920
C71	C7	0.783810	0.927290	0.716700
O81	O8	0.920250	0.916220	0.582890
H91	H9	0.808970	0.069800	0.692660
C101	C10	0.284340	0.427600	0.218080
O111	O11	0.420240	0.418080	0.084170
H121	H12	0.309010	0.570650	0.194010
C131	C13	0.784440	0.065320	0.282980
O141	O14	0.920450	0.074290	0.417330
H151	H15	0.809040	0.922470	0.307380
C161	C16	0.284000	0.565280	0.783890
O171	O17	0.419550	0.575490	0.917580
H181	H18	0.309220	0.422390	0.807670
C191	C19	0.216530	0.427180	0.283050
O201	O20	0.081660	0.416470	0.417790
H211	H21	0.191250	0.569760	0.306890
C221	C22	0.716070	0.927740	0.781880
O231	O23	0.580380	0.918240	0.916890
H241	H24	0.691350	0.070800	0.805950
C251	C25	0.784530	0.428460	0.283160
O261	O26	0.920170	0.417430	0.418200
H271	H27	0.809220	0.571240	0.307690
C281	C28	0.283920	0.928590	0.783780
O291	O29	0.419530	0.918300	0.917970
H301	H30	0.309060	0.071480	0.807490
C311	C31	0.216760	0.063860	0.282780
O321	O32	0.081360	0.073120	0.416980
H331	H33	0.191700	0.920740	0.306370
C341	C34	0.715800	0.564620	0.782080
O351	O35	0.580030	0.574960	0.916430
H361	H36	0.690840	0.422010	0.806320
C371	C37	0.216280	0.928310	0.718530
O381	O38	0.080940	0.917320	0.584150
H391	H39	0.191510	0.071090	0.694250
C401	C40	0.717310	0.428700	0.217290
O411	O41	0.581330	0.418500	0.082580
H421	H42	0.692550	0.571480	0.193080
C431	C43	0.783560	0.564180	0.716960
O441	O44	0.920540	0.573380	0.583700
H451	H45	0.808480	0.421090	0.693170
C461	C46	0.284600	0.064330	0.217870
O471	O47	0.420620	0.074950	0.084630
H481	H48	0.309500	0.921730	0.193600
Al491	Al49	0.001270	0.494580	0.500930
Al501	Al50	0.500210	0.996410	0.000720
Al511	Al51	0.001000	0.995150	0.500310
Al521	Al52	0.500040	0.496380	0.000400
O531	O53	0.003390	0.744560	0.449190
O541	O54	0.498280	0.246160	0.949210
O551	O55	0.002940	0.244600	0.551920
O561	O56	0.499570	0.746180	0.051990
C571	C57	0.682400	0.247270	0.182870
C581	C58	0.610650	0.247140	0.111800
C591	C59	0.181110	0.746500	0.684950
C601	C60	0.109660	0.745950	0.614020
C611	C61	0.319840	0.246210	0.184500
C621	C62	0.391490	0.246490	0.113770
C631	C63	0.818950	0.745480	0.682990
C641	C64	0.891120	0.745080	0.612410
C651	C65	0.318920	0.747100	0.817760
C661	C66	0.390470	0.747040	0.888520
C671	C67	0.819470	0.246680	0.317270
C681	C68	0.891090	0.246080	0.388550
C691	C69	0.680840	0.746390	0.815990
C701	C70	0.609290	0.746590	0.887290
C711	C71	0.181740	0.245330	0.316920
C721	C72	0.110490	0.244860	0.388080
H731	H73	0.005700	0.244410	0.613840
H741	H74	0.006930	0.744360	0.387390
H751	H75	0.498500	0.745970	0.113920
H761	H76	0.495130	0.245990	0.887310
