data_EHIPOC_clean_PM
_symmetry_space_group_name_H-M	'P1'
_cell_length_a	8.121900
_cell_length_b	11.098200
_cell_length_c	13.764900
_cell_angle_alpha	91.390400
_cell_angle_beta	100.821000
_cell_angle_gamma	103.378000
_symmetry_Int_Tables_number 1

loop_
_symmetry_equiv_pos_as_xyz
'x,y,z'

loop_
_atom_site_label
_atom_site_type_symbol
_atom_site_fract_x
_atom_site_fract_y
_atom_site_fract_z
Cu11	Cu1	0.468300	0.999100	0.812400
Cu21	Cu2	0.336800	0.154800	0.717500
N11	N1	0.491200	0.004700	0.957700
C11	C1	0.216900	0.965100	0.738400
C21	C2	0.584800	0.202300	0.776200
C31	C3	0.605300	0.902700	0.756600
N21	N2	0.263900	0.169800	0.574200
N31	N3	0.205100	0.262900	0.775200
N41	N4	0.082300	0.900800	0.709100
C41	C4	0.216900	0.186100	0.492600
C51	C5	0.119500	0.323100	0.793800
Cu31	Cu3	0.850600	0.782200	0.645700
Cu41	Cu4	0.944000	0.403700	0.822100
N51	N5	0.689600	0.853000	0.722100
C61	C6	0.863400	0.621700	0.692900
N61	N6	0.717200	0.266800	0.798300
N71	N7	0.887500	0.536600	0.732500
C71	C7	0.985500	0.477200	0.960100
Cu51	Cu5	0.531700	0.000900	0.187600
Cu61	Cu6	0.663200	0.845200	0.282500
N81	N8	0.508800	0.995300	0.042300
C81	C8	0.783100	0.034900	0.261600
C91	C9	0.415200	0.797700	0.223800
C101	C10	0.394700	0.097300	0.243400
N91	N9	0.736100	0.830200	0.425800
N101	N10	0.794900	0.737100	0.224800
N111	N11	0.917700	0.099200	0.290900
C111	C11	0.783100	0.813900	0.507400
C121	C12	0.880500	0.676900	0.206200
Cu71	Cu7	0.149400	0.217800	0.354300
Cu81	Cu8	0.056000	0.596300	0.177900
N121	N12	0.310400	0.147000	0.277900
C131	C13	0.136600	0.378300	0.307100
N131	N13	0.282800	0.733200	0.201700
N141	N14	0.112500	0.463400	0.267500
C141	C14	0.014500	0.522800	0.039900
C151	C15	0.808300	0.273100	0.531500
N151	N15	0.867900	0.102500	0.634200
C161	C16	0.746200	0.137000	0.546200
C171	C17	0.609800	0.488800	0.361100
C181	C18	0.739500	0.446700	0.434300
C191	C19	0.687600	0.313700	0.453500
N161	N16	0.550900	0.427600	0.272600
H11	H1	0.831600	0.015800	0.644300
H21	H2	0.865910	0.151010	0.692490
H31	H3	0.983020	0.120320	0.621520
H41	H4	0.630490	0.120730	0.557970
H51	H5	0.747610	0.090040	0.487000
H61	H6	0.812290	0.319810	0.591920
H71	H7	0.921780	0.288710	0.516540
H81	H8	0.686840	0.268170	0.393150
H91	H9	0.573690	0.294670	0.467980
H101	H10	0.845430	0.460810	0.410200
H111	H11	0.760180	0.489390	0.498540
H121	H12	0.511450	0.488000	0.390570
H131	H13	0.659890	0.572190	0.347260
H141	H14	0.468150	0.464270	0.232350
H151	H15	0.496780	0.343700	0.282940
H161	H16	0.645220	0.427900	0.239620
C201	C20	0.191700	0.726900	0.468500
N171	N17	0.132100	0.897500	0.365800
C211	C21	0.253800	0.863000	0.453800
C221	C22	0.390200	0.511200	0.638900
C231	C23	0.260500	0.553300	0.565700
C241	C24	0.312400	0.686300	0.546500
N181	N18	0.449100	0.572400	0.727400
H171	H17	0.168400	0.984200	0.355700
H181	H18	0.134090	0.848990	0.307510
H191	H19	0.016980	0.879680	0.378480
H201	H20	0.369510	0.879270	0.442030
H211	H21	0.252390	0.909960	0.513000
H221	H22	0.187710	0.680190	0.408080
H231	H23	0.078220	0.711290	0.483460
H241	H24	0.313160	0.731830	0.606850
H251	H25	0.426310	0.705330	0.532020
H261	H26	0.154570	0.539190	0.589800
H271	H27	0.239820	0.510610	0.501460
H281	H28	0.488550	0.512000	0.609430
H291	H29	0.340110	0.427810	0.652740
H301	H30	0.531850	0.535730	0.767650
H311	H31	0.503220	0.656300	0.717060
H321	H32	0.354780	0.572100	0.760380
