data_EHODOV_SL_PM
_symmetry_space_group_name_H-M	'P1'
_cell_length_a	13.966800
_cell_length_b	25.317400
_cell_length_c	25.182100
_cell_angle_alpha	32.110100
_cell_angle_beta	74.478300
_cell_angle_gamma	73.411500
_symmetry_Int_Tables_number 1

loop_
_symmetry_equiv_pos_as_xyz
'x,y,z'

loop_
_atom_site_label
_atom_site_type_symbol
_atom_site_fract_x
_atom_site_fract_y
_atom_site_fract_z
H11	H1	0.035500	0.431700	0.907700
H21	H2	0.274200	0.444600	0.954200
H31	H3	0.043300	0.659700	0.877900
H41	H4	0.041900	0.750300	0.878300
H51	H5	0.110400	0.987200	0.582800
H61	H6	0.983900	0.597300	0.793100
H71	H7	0.106400	0.898000	0.582400
H81	H8	0.221700	0.613500	0.833900
C91	C9	0.192120	0.312280	0.018880
C101	C10	0.073280	0.466920	0.894720
C111	C11	0.215550	0.474850	0.921850
C121	C12	0.079460	0.878340	0.730340
C131	C13	0.077670	0.769530	0.730530
C141	C14	0.057060	0.725740	0.818740
C151	C15	0.158700	0.419900	0.944900
C161	C16	0.056900	0.779500	0.819100
C171	C17	0.082710	0.935290	0.731290
C181	C18	0.097080	0.920920	0.642520
C191	C19	0.043120	0.566480	0.825080
C201	C20	0.095580	0.868020	0.642020
C211	C21	0.098280	0.618920	0.803320
C221	C22	0.184100	0.575900	0.849900
O231	O23	0.062860	0.235560	0.487940
O241	O24	0.116810	0.019430	0.652510
O251	O25	0.052430	0.898030	0.809370
O261	O26	0.268350	0.271810	0.066150
O271	O27	0.141960	0.272920	0.025840
O281	O28	0.071690	0.720510	0.725110
H291	H29	0.431700	0.035500	0.625100
H301	H30	0.444600	0.274200	0.327000
H311	H31	0.659700	0.043300	0.419100
H321	H32	0.750300	0.041900	0.329500
H331	H33	0.987200	0.110400	0.319600
H341	H34	0.597300	0.983900	0.625700
H351	H35	0.898000	0.106400	0.413200
H361	H36	0.613500	0.221700	0.330900
C371	C37	0.312280	0.192120	0.476720
C381	C38	0.466920	0.073280	0.565080
C391	C39	0.474850	0.215550	0.387750
C401	C40	0.878340	0.079460	0.311860
C411	C41	0.769530	0.077670	0.422270
C421	C42	0.725740	0.057060	0.398460
C431	C43	0.419900	0.158700	0.476500
C441	C44	0.779500	0.056900	0.344500
C451	C45	0.935290	0.082710	0.250710
C461	C46	0.920920	0.097080	0.339480
C471	C47	0.566480	0.043120	0.565320
C481	C48	0.868020	0.095580	0.394380
C491	C49	0.618920	0.098280	0.479480
C501	C50	0.575900	0.184100	0.390100
O511	O51	0.235560	0.062860	0.213640
O521	O52	0.019430	0.116810	0.211250
O531	O53	0.898030	0.052430	0.240170
O541	O54	0.271810	0.268350	0.393690
O551	O55	0.272920	0.141960	0.559280
O561	O56	0.720510	0.071690	0.482690
H571	H57	0.907700	0.625100	0.035500
H581	H58	0.954200	0.327000	0.274200
H591	H59	0.877900	0.419100	0.043300
H601	H60	0.878300	0.329500	0.041900
H611	H61	0.582800	0.319600	0.110400
H621	H62	0.793100	0.625700	0.983900
H631	H63	0.582400	0.413200	0.106400
H641	H64	0.833900	0.330900	0.221700
C651	C65	0.018880	0.476720	0.192120
C661	C66	0.894720	0.565080	0.073280
C671	C67	0.921850	0.387750	0.215550
C681	C68	0.730340	0.311860	0.079460
C691	C69	0.730530	0.422270	0.077670
C701	C70	0.818740	0.398460	0.057060
C711	C71	0.944900	0.476500	0.158700
C721	C72	0.819100	0.344500	0.056900
C731	C73	0.731290	0.250710	0.082710
C741	C74	0.642520	0.339480	0.097080
C751	C75	0.825080	0.565320	0.043120
C761	C76	0.642020	0.394380	0.095580
C771	C77	0.803320	0.479480	0.098280
C781	C78	0.849900	0.390100	0.184100
O791	O79	0.487940	0.213640	0.062860
O801	O80	0.652510	0.211250	0.116810
O811	O81	0.809370	0.240170	0.052430
O821	O82	0.066150	0.393690	0.268350
O831	O83	0.025840	0.559280	0.141960
O841	O84	0.725110	0.482690	0.071690
H851	H85	0.625100	0.907700	0.431700
H861	H86	0.327000	0.954200	0.444600
H871	H87	0.419100	0.877900	0.659700
H881	H88	0.329500	0.878300	0.750300
H891	H89	0.319600	0.582800	0.987200
H901	H90	0.625700	0.793100	0.597300
H911	H91	0.413200	0.582400	0.898000
H921	H92	0.330900	0.833900	0.613500
C931	C93	0.476720	0.018880	0.312280
C941	C94	0.565080	0.894720	0.466920
C951	C95	0.387750	0.921850	0.474850
C961	C96	0.311860	0.730340	0.878340
C971	C97	0.422270	0.730530	0.769530
C981	C98	0.398460	0.818740	0.725740
C991	C99	0.476500	0.944900	0.419900
C1001	C100	0.344500	0.819100	0.779500
C1011	C101	0.250710	0.731290	0.935290
C1021	C102	0.339480	0.642520	0.920920
C1031	C103	0.565320	0.825080	0.566480
C1041	C104	0.394380	0.642020	0.868020
C1051	C105	0.479480	0.803320	0.618920
C1061	C106	0.390100	0.849900	0.575900
O1071	O107	0.213640	0.487940	0.235560
O1081	O108	0.211250	0.652510	0.019430
O1091	O109	0.240170	0.809370	0.898030
O1101	O110	0.393690	0.066150	0.271810
O1111	O111	0.559280	0.025840	0.272920
O1121	O112	0.482690	0.725110	0.720510
H1131	H113	0.276070	0.491730	0.244150
H1141	H114	0.214500	0.818300	0.342300
H1151	H115	0.975800	0.805400	0.295800
H1161	H116	0.206700	0.590300	0.372100
H1171	H117	0.208100	0.499700	0.371700
H1181	H118	0.139600	0.262800	0.667200
H1191	H119	0.266100	0.652700	0.456900
H1201	H120	0.143600	0.352000	0.667600
H1211	H121	0.028300	0.636500	0.416100
C1221	C122	0.057880	0.937720	0.231120
C1231	C123	0.176720	0.783080	0.355280
C1241	C124	0.034450	0.775150	0.328150
C1251	C125	0.170540	0.371660	0.519660
C1261	C126	0.172330	0.480470	0.519470
C1271	C127	0.192940	0.524260	0.431260
C1281	C128	0.091300	0.830100	0.305100
C1291	C129	0.193100	0.470500	0.430900
C1301	C130	0.167290	0.314710	0.518710
C1311	C131	0.152920	0.329080	0.607480
C1321	C132	0.206880	0.683520	0.424920
C1331	C133	0.154420	0.381980	0.607980
C1341	C134	0.151720	0.631080	0.446680
C1351	C135	0.065900	0.674100	0.400100
O1361	O136	0.187140	0.014440	0.762060
O1371	O137	0.133190	0.230570	0.597490
O1381	O138	0.197570	0.351970	0.440630
O1391	O139	0.981650	0.978190	0.183850
O1401	O140	0.108040	0.977080	0.224160
O1411	O141	0.178310	0.529490	0.524890
H1421	H142	0.261940	0.005850	0.758270
H1431	H143	0.818300	0.214500	0.624900
H1441	H144	0.805400	0.975800	0.923000
H1451	H145	0.590300	0.206700	0.830900
H1461	H146	0.499700	0.208100	0.920500
H1471	H147	0.262800	0.139600	0.930400
H1481	H148	0.652700	0.266100	0.624300
H1491	H149	0.352000	0.143600	0.836800
H1501	H150	0.636500	0.028300	0.919100
C1511	C151	0.937720	0.057880	0.773280
C1521	C152	0.783080	0.176720	0.684920
C1531	C153	0.775150	0.034450	0.862250
C1541	C154	0.371660	0.170540	0.938140
C1551	C155	0.480470	0.172330	0.827730
C1561	C156	0.524260	0.192940	0.851540
C1571	C157	0.830100	0.091300	0.773500
C1581	C158	0.470500	0.193100	0.905500
C1591	C159	0.314710	0.167290	0.999290
C1601	C160	0.329080	0.152920	0.910520
C1611	C161	0.683520	0.206880	0.684680
C1621	C162	0.381980	0.154420	0.855620
C1631	C163	0.631080	0.151720	0.770520
C1641	C164	0.674100	0.065900	0.859900
O1651	O165	0.014440	0.187140	0.036360
O1661	O166	0.230570	0.133190	0.038750
O1671	O167	0.351970	0.197570	0.009830
O1681	O168	0.978190	0.981650	0.856310
O1691	O169	0.977080	0.108040	0.690720
O1701	O170	0.529490	0.178310	0.767310
H1711	H171	0.342300	0.624900	0.214500
H1721	H172	0.295800	0.923000	0.975800
H1731	H173	0.372100	0.830900	0.206700
H1741	H174	0.371700	0.920500	0.208100
H1751	H175	0.667200	0.930400	0.139600
H1761	H176	0.456900	0.624300	0.266100
H1771	H177	0.667600	0.836800	0.143600
H1781	H178	0.416100	0.919100	0.028300
C1791	C179	0.231120	0.773280	0.057880
C1801	C180	0.355280	0.684920	0.176720
C1811	C181	0.328150	0.862250	0.034450
C1821	C182	0.519660	0.938140	0.170540
C1831	C183	0.519470	0.827730	0.172330
C1841	C184	0.431260	0.851540	0.192940
C1851	C185	0.305100	0.773500	0.091300
C1861	C186	0.430900	0.905500	0.193100
C1871	C187	0.518710	0.999290	0.167290
C1881	C188	0.607480	0.910520	0.152920
C1891	C189	0.424920	0.684680	0.206880
C1901	C190	0.607980	0.855620	0.154420
C1911	C191	0.446680	0.770520	0.151720
C1921	C192	0.400100	0.859900	0.065900
O1931	O193	0.762060	0.036360	0.187140
O1941	O194	0.597490	0.038750	0.133190
O1951	O195	0.440630	0.009830	0.197570
O1961	O196	0.183850	0.856310	0.981650
O1971	O197	0.224160	0.690720	0.108040
O1981	O198	0.524890	0.767310	0.178310
H1991	H199	0.624900	0.342300	0.818300
H2001	H200	0.923000	0.295800	0.805400
H2011	H201	0.830900	0.372100	0.590300
H2021	H202	0.920500	0.371700	0.499700
H2031	H203	0.930400	0.667200	0.262800
H2041	H204	0.624300	0.456900	0.652700
H2051	H205	0.836800	0.667600	0.352000
H2061	H206	0.919100	0.416100	0.636500
C2071	C207	0.773280	0.231120	0.937720
C2081	C208	0.684920	0.355280	0.783080
C2091	C209	0.862250	0.328150	0.775150
C2101	C210	0.938140	0.519660	0.371660
C2111	C211	0.827730	0.519470	0.480470
C2121	C212	0.851540	0.431260	0.524260
C2131	C213	0.773500	0.305100	0.830100
C2141	C214	0.905500	0.430900	0.470500
C2151	C215	0.999290	0.518710	0.314710
C2161	C216	0.910520	0.607480	0.329080
C2171	C217	0.684680	0.424920	0.683520
C2181	C218	0.855620	0.607980	0.381980
C2191	C219	0.770520	0.446680	0.631080
C2201	C220	0.859900	0.400100	0.674100
O2211	O221	0.036360	0.762060	0.014440
O2221	O222	0.038750	0.597490	0.230570
O2231	O223	0.009830	0.440630	0.351970
O2241	O224	0.856310	0.183850	0.978190
O2251	O225	0.690720	0.224160	0.977080
O2261	O226	0.767310	0.524890	0.529490
In2271	In227	0.125000	0.125000	0.625000
In2281	In228	0.125000	0.125000	0.125000
In2291	In229	0.625000	0.125000	0.125000
In2301	In230	0.125000	0.625000	0.125000
In2311	In231	0.138810	0.361190	0.361190
In2321	In232	0.361190	0.138810	0.138810
In2331	In233	0.111190	0.888810	0.888810
In2341	In234	0.888810	0.111190	0.111190
H2351	H235	0.491730	0.276070	0.988060
H2361	H236	0.005850	0.261940	0.973930
H2371	H237	0.244150	0.988060	0.276070
H2381	H238	0.758270	0.973930	0.261940
H2391	H239	0.988060	0.244150	0.491730
H2401	H240	0.973930	0.758270	0.005850
