data_EJAXIW_clean_PM
_symmetry_space_group_name_H-M	'P1'
_cell_length_a	13.644000
_cell_length_b	15.333900
_cell_length_c	15.333900
_cell_angle_alpha	99.172700
_cell_angle_beta	102.332000
_cell_angle_gamma	77.668500
_symmetry_Int_Tables_number 1

loop_
_symmetry_equiv_pos_as_xyz
'x,y,z'

loop_
_atom_site_label
_atom_site_type_symbol
_atom_site_fract_x
_atom_site_fract_y
_atom_site_fract_z
Co11	Co1	0.500000	0.500000	0.000000
Co21	Co2	0.000000	0.000000	0.500000
Co31	Co3	0.250000	0.812070	0.812070
Co41	Co4	0.750000	0.187930	0.187930
H11	H1	0.181200	0.794400	0.609400
H21	H2	0.236500	0.753200	0.478000
H31	H3	0.703900	0.371500	0.984500
H41	H4	0.501200	0.705300	0.295900
H51	H5	0.655500	0.630700	0.042900
H61	H6	0.478700	0.427100	0.166300
H71	H7	0.527200	0.659400	0.151200
H81	H8	0.517300	0.593700	0.457300
H91	H9	0.402500	0.586300	0.423100
H101	H10	0.870900	0.364200	0.004600
H111	H11	0.519800	0.719900	0.614100
H121	H12	0.452900	0.463500	0.310500
H131	H13	0.454600	0.759800	0.744400
H141	H14	0.483300	0.742600	0.450800
H151	H15	0.372100	0.739700	0.398100
H161	H16	0.826400	0.631200	0.066400
H171	H17	0.000200	0.549900	0.086700
H181	H18	0.024000	0.444600	0.070600
H191	H19	0.318800	0.609400	0.794400
H201	H20	0.263500	0.478000	0.753200
H211	H21	0.796100	0.984500	0.371500
H221	H22	0.998800	0.295900	0.705300
H231	H23	0.844500	0.042900	0.630700
H241	H24	0.021300	0.166300	0.427100
H251	H25	0.972800	0.151200	0.659400
H261	H26	0.982700	0.457300	0.593700
H271	H27	0.097500	0.423100	0.586300
H281	H28	0.629100	0.004600	0.364200
H291	H29	0.980200	0.614100	0.719900
H301	H30	0.047100	0.310500	0.463500
H311	H31	0.045400	0.744400	0.759800
H321	H32	0.016700	0.450800	0.742600
H331	H33	0.127900	0.398100	0.739700
H341	H34	0.673600	0.066400	0.631200
H351	H35	0.499800	0.086700	0.549900
H361	H36	0.476000	0.070600	0.444600
H371	H37	0.818800	0.205600	0.390600
H381	H38	0.763500	0.246800	0.522000
H391	H39	0.296100	0.628500	0.015500
H401	H40	0.498800	0.294700	0.704100
H411	H41	0.344500	0.369300	0.957100
H421	H42	0.521300	0.572900	0.833700
H431	H43	0.472800	0.340600	0.848800
H441	H44	0.482700	0.406300	0.542700
H451	H45	0.597500	0.413700	0.576900
H461	H46	0.129100	0.635800	0.995400
H471	H47	0.480200	0.280100	0.385900
H481	H48	0.547100	0.536500	0.689500
H491	H49	0.545400	0.240200	0.255600
H501	H50	0.516700	0.257400	0.549200
H511	H51	0.627900	0.260300	0.601900
H521	H52	0.173600	0.368800	0.933600
H531	H53	0.999800	0.450100	0.913300
H541	H54	0.976000	0.555400	0.929400
H551	H55	0.681200	0.390600	0.205600
H561	H56	0.736500	0.522000	0.246800
H571	H57	0.203900	0.015500	0.628500
H581	H58	0.001200	0.704100	0.294700
H591	H59	0.155500	0.957100	0.369300
H601	H60	0.978700	0.833700	0.572900
H611	H61	0.027200	0.848800	0.340600
H621	H62	0.017300	0.542700	0.406300
H631	H63	0.902500	0.576900	0.413700
H641	H64	0.370900	0.995400	0.635800
H651	H65	0.019800	0.385900	0.280100
H661	H66	0.952900	0.689500	0.536500
H671	H67	0.954600	0.255600	0.240200
H681	H68	0.983300	0.549200	0.257400
H691	H69	0.872100	0.601900	0.260300
H701	H70	0.326400	0.933600	0.368800
H711	H71	0.500200	0.913300	0.450100
H721	H72	0.524000	0.929400	0.555400
C11	C1	0.251200	0.777500	0.611300
C21	C2	0.283300	0.754800	0.531800
C31	C3	0.475000	0.591600	0.321600
C41	C4	0.729200	0.424500	0.002500
C51	C5	0.386500	0.734000	0.531800
C61	C6	0.495800	0.646800	0.271000
C71	C7	0.700300	0.576000	0.036800
C81	C8	0.481500	0.485800	0.192400
C91	C9	0.509600	0.619600	0.182400
C101	C10	0.455600	0.616700	0.416500
C111	C11	0.828900	0.420200	0.012600
C121	C12	0.872700	0.496300	0.034300
C131	C13	0.449500	0.734800	0.611200
C141	C14	0.467200	0.506000	0.280200
C151	C15	0.409500	0.757900	0.689500
C161	C16	0.425100	0.713800	0.444800
C171	C17	0.803000	0.577200	0.048800
C181	C18	0.984300	0.498000	0.045000
C191	C19	0.248800	0.611300	0.777500
C201	C20	0.216700	0.531800	0.754800
C211	C21	0.025000	0.321600	0.591600
C221	C22	0.770800	0.002500	0.424500
C231	C23	0.113500	0.531800	0.734000
C241	C24	0.004200	0.271000	0.646800
C251	C25	0.799700	0.036800	0.576000
C261	C26	0.018500	0.192400	0.485800
C271	C27	0.990400	0.182400	0.619600
C281	C28	0.044400	0.416500	0.616700
C291	C29	0.671100	0.012600	0.420200
C301	C30	0.627300	0.034300	0.496300
C311	C31	0.050500	0.611200	0.734800
C321	C32	0.032800	0.280200	0.506000
C331	C33	0.090500	0.689500	0.757900
C341	C34	0.074900	0.444800	0.713800
C351	C35	0.697000	0.048800	0.577200
C361	C36	0.515700	0.045000	0.498000
C371	C37	0.748800	0.222500	0.388700
C381	C38	0.716700	0.245200	0.468200
C391	C39	0.525000	0.408400	0.678400
C401	C40	0.270800	0.575500	0.997500
C411	C41	0.613500	0.266000	0.468200
C421	C42	0.504200	0.353200	0.729000
C431	C43	0.299700	0.424000	0.963200
C441	C44	0.518500	0.514200	0.807600
C451	C45	0.490400	0.380400	0.817600
C461	C46	0.544400	0.383300	0.583500
C471	C47	0.171100	0.579800	0.987400
C481	C48	0.127300	0.503700	0.965700
C491	C49	0.550500	0.265200	0.388800
C501	C50	0.532800	0.494000	0.719800
C511	C51	0.590500	0.242100	0.310500
C521	C52	0.574900	0.286200	0.555200
C531	C53	0.197000	0.422800	0.951200
C541	C54	0.015700	0.502000	0.955000
C551	C55	0.751200	0.388700	0.222500
C561	C56	0.783300	0.468200	0.245200
C571	C57	0.975000	0.678400	0.408400
C581	C58	0.229200	0.997500	0.575500
C591	C59	0.886500	0.468200	0.266000
C601	C60	0.995800	0.729000	0.353200
C611	C61	0.200300	0.963200	0.424000
C621	C62	0.981500	0.807600	0.514200
C631	C63	0.009600	0.817600	0.380400
C641	C64	0.955600	0.583500	0.383300
C651	C65	0.328900	0.987400	0.579800
C661	C66	0.372700	0.965700	0.503700
C671	C67	0.949500	0.388800	0.265200
C681	C68	0.967200	0.719800	0.494000
C691	C69	0.909500	0.310500	0.242100
C701	C70	0.925100	0.555200	0.286200
C711	C71	0.303000	0.951200	0.422800
C721	C72	0.484300	0.955000	0.502000
S11	S1	0.438600	0.730210	0.973510
S21	S2	0.061400	0.973510	0.730210
S31	S3	0.561400	0.269790	0.026490
S41	S4	0.938600	0.026490	0.269790
N11	N1	0.498400	0.538800	0.142000
N21	N2	0.661900	0.502000	0.017200
N31	N3	0.309800	0.777800	0.689800
N41	N4	0.001600	0.142000	0.538800
N51	N5	0.838100	0.017200	0.502000
N61	N6	0.190200	0.689800	0.777800
N71	N7	0.501600	0.461200	0.858000
N81	N8	0.338100	0.498000	0.982800
N91	N9	0.690200	0.222200	0.310200
N101	N10	0.998400	0.858000	0.461200
N111	N11	0.161900	0.982800	0.498000
N121	N12	0.809800	0.310200	0.222200
O11	O1	0.387400	0.747790	0.882610
O21	O2	0.466500	0.633360	0.976840
O31	O3	0.364200	0.767200	0.034600
O41	O4	0.529100	0.769400	0.001400
O51	O5	0.112600	0.882610	0.747790
O61	O6	0.033500	0.976840	0.633360
O71	O7	0.135800	0.034600	0.767200
O81	O8	0.970900	0.001400	0.769400
O91	O9	0.612600	0.252210	0.117390
O101	O10	0.533500	0.366640	0.023160
O111	O11	0.635800	0.232800	0.965400
O121	O12	0.470900	0.230600	0.998600
O131	O13	0.887400	0.117390	0.252210
O141	O14	0.966500	0.023160	0.366640
O151	O15	0.864200	0.965400	0.232800
O161	O16	0.029100	0.998600	0.230600
