data_EJEGOQ_clean_PM
_symmetry_space_group_name_H-M	'P1'
_cell_length_a	22.851000
_cell_length_b	22.851000
_cell_length_c	22.851000
_cell_angle_alpha	109.471000
_cell_angle_beta	109.471000
_cell_angle_gamma	109.471000
_symmetry_Int_Tables_number 1

loop_
_symmetry_equiv_pos_as_xyz
'x,y,z'

loop_
_atom_site_label
_atom_site_type_symbol
_atom_site_fract_x
_atom_site_fract_y
_atom_site_fract_z
U11	U1	0.275680	0.085750	0.666950
U21	U2	0.418800	0.608730	0.333050
U31	U3	0.581200	0.914250	0.189930
U41	U4	0.724320	0.391270	0.810070
U51	U5	0.189930	0.581200	0.914250
U61	U6	0.810070	0.724320	0.391270
U71	U7	0.666950	0.275680	0.085750
U81	U8	0.333050	0.418800	0.608730
U91	U9	0.608730	0.333050	0.418800
U101	U10	0.085750	0.666950	0.275680
U111	U11	0.391270	0.810070	0.724320
U121	U12	0.914250	0.189930	0.581200
U131	U13	0.724320	0.914250	0.333050
U141	U14	0.581200	0.391270	0.666950
U151	U15	0.418800	0.085750	0.810070
U161	U16	0.275680	0.608730	0.189930
U171	U17	0.810070	0.418800	0.085750
U181	U18	0.189930	0.275680	0.608730
U191	U19	0.333050	0.724320	0.914250
U201	U20	0.666950	0.581200	0.391270
U211	U21	0.391270	0.666950	0.581200
U221	U22	0.914250	0.333050	0.724320
U231	U23	0.608730	0.189930	0.275680
U241	U24	0.085750	0.810070	0.418800
U251	U25	0.364700	0.069580	0.434280
U261	U26	0.635300	0.930420	0.565720
U271	U27	0.364700	0.930430	0.295120
U281	U28	0.635300	0.069570	0.704880
U291	U29	0.295120	0.364700	0.930420
U301	U30	0.704880	0.635300	0.069580
U311	U31	0.434270	0.364690	0.069570
U321	U32	0.565730	0.635310	0.930430
U331	U33	0.930420	0.565720	0.635300
U341	U34	0.069580	0.434280	0.364700
U351	U35	0.069580	0.704880	0.635310
U361	U36	0.930420	0.295120	0.364690
U371	U37	0.218810	0.868370	0.350440
U381	U38	0.517930	0.868370	0.649560
U391	U39	0.482070	0.131630	0.350440
U401	U40	0.781190	0.131630	0.649560
U411	U41	0.350440	0.482070	0.131630
U421	U42	0.649560	0.781190	0.131630
U431	U43	0.350440	0.218810	0.868370
U441	U44	0.649560	0.517930	0.868370
U451	U45	0.868370	0.649560	0.517930
U461	U46	0.868370	0.350440	0.218810
U471	U47	0.131630	0.649560	0.781190
U481	U48	0.131630	0.350440	0.482070
Co11	Co1	0.359680	0.859680	0.500000
Co21	Co2	0.640320	0.140320	0.500000
Co31	Co3	0.500000	0.640320	0.140320
Co41	Co4	0.500000	0.359680	0.859680
Co51	Co5	0.859680	0.500000	0.359680
Co61	Co6	0.140320	0.500000	0.640320
Co71	Co7	0.000000	0.000000	0.374420
Co81	Co8	0.625580	0.625580	0.625580
Co91	Co9	0.374420	0.000000	0.000000
Co101	Co10	0.000000	0.374420	0.000000
Co111	Co11	0.000000	0.000000	0.625580
Co121	Co12	0.374420	0.374420	0.374420
Co131	Co13	0.625580	0.000000	0.000000
Co141	Co14	0.000000	0.625580	0.000000
Co151	Co15	0.000000	0.000000	0.500000
Co161	Co16	0.500000	0.500000	0.500000
Co171	Co17	0.500000	0.000000	0.000000
Co181	Co18	0.000000	0.500000	0.000000
P11	P1	0.224190	0.992060	0.481010
P21	P2	0.511050	0.743180	0.518990
P31	P3	0.488950	0.007940	0.232130
P41	P4	0.775810	0.256820	0.767870
P51	P5	0.232130	0.488950	0.007940
P61	P6	0.767870	0.775810	0.256820
P71	P7	0.481010	0.224190	0.992060
P81	P8	0.518990	0.511050	0.743180
P91	P9	0.743180	0.518990	0.511050
P101	P10	0.992060	0.481010	0.224190
P111	P11	0.256820	0.767870	0.775810
P121	P12	0.007940	0.232130	0.488950
P131	P13	0.775810	0.007940	0.518990
P141	P14	0.488950	0.256820	0.481010
P151	P15	0.511050	0.992060	0.767870
P161	P16	0.224190	0.743180	0.232130
P171	P17	0.767870	0.511050	0.992060
P181	P18	0.232130	0.224190	0.743180
P191	P19	0.518990	0.775810	0.007940
P201	P20	0.481010	0.488950	0.256820
P211	P21	0.256820	0.481010	0.488950
P221	P22	0.007940	0.518990	0.775810
P231	P23	0.743180	0.232130	0.224190
P241	P24	0.992060	0.767870	0.511050
H11	H1	0.164200	0.040200	0.427400
H21	H2	0.232900	0.101700	0.501000
H31	H3	0.612800	0.736800	0.572600
H41	H4	0.600700	0.731900	0.499000
H51	H5	0.387200	0.959800	0.124000
H61	H6	0.399300	0.898300	0.131200
H71	H7	0.835800	0.263200	0.876000
H81	H8	0.767100	0.268100	0.868800
H91	H9	0.124000	0.387200	0.959800
H101	H10	0.131200	0.399300	0.898300
H111	H11	0.876000	0.835800	0.263200
H121	H12	0.868800	0.767100	0.268100
H131	H13	0.427400	0.164200	0.040200
H141	H14	0.501000	0.232900	0.101700
H151	H15	0.572600	0.612800	0.736800
H161	H16	0.499000	0.600700	0.731900
H171	H17	0.736800	0.572600	0.612800
H181	H18	0.731900	0.499000	0.600700
H191	H19	0.040200	0.427400	0.164200
H201	H20	0.101700	0.501000	0.232900
H211	H21	0.263200	0.876000	0.835800
H221	H22	0.268100	0.868800	0.767100
H231	H23	0.959800	0.124000	0.387200
H241	H24	0.898300	0.131200	0.399300
H251	H25	0.835800	0.959800	0.572600
H261	H26	0.767100	0.898300	0.499000
H271	H27	0.387200	0.263200	0.427400
H281	H28	0.399300	0.268100	0.501000
H291	H29	0.612800	0.040200	0.876000
H301	H30	0.600700	0.101700	0.868800
H311	H31	0.164200	0.736800	0.124000
H321	H32	0.232900	0.731900	0.131200
H331	H33	0.876000	0.612800	0.040200
H341	H34	0.868800	0.600700	0.101700
H351	H35	0.124000	0.164200	0.736800
H361	H36	0.131200	0.232900	0.731900
H371	H37	0.572600	0.835800	0.959800
H381	H38	0.499000	0.767100	0.898300
H391	H39	0.427400	0.387200	0.263200
H401	H40	0.501000	0.399300	0.268100
H411	H41	0.263200	0.427400	0.387200
H421	H42	0.268100	0.501000	0.399300
H431	H43	0.959800	0.572600	0.835800
H441	H44	0.898300	0.499000	0.767100
H451	H45	0.736800	0.124000	0.164200
H461	H46	0.731900	0.131200	0.232900
H471	H47	0.040200	0.876000	0.612800
H481	H48	0.101700	0.868800	0.600700
C11	C1	0.192310	0.053950	0.477040
C21	C2	0.146750	0.054490	0.512440
C31	C3	0.576910	0.715270	0.522960
C41	C4	0.542050	0.634310	0.487560
C51	C5	0.423090	0.946050	0.138360
C61	C6	0.457950	0.945510	0.092260
C71	C7	0.807690	0.284730	0.861640
C81	C8	0.853250	0.365690	0.907740
C91	C9	0.138360	0.423090	0.946050
C101	C10	0.092260	0.457950	0.945510
C111	C11	0.861640	0.807690	0.284730
C121	C12	0.907740	0.853250	0.365690
C131	C13	0.477040	0.192310	0.053950
C141	C14	0.512440	0.146750	0.054490
C151	C15	0.522960	0.576910	0.715270
C161	C16	0.487560	0.542050	0.634310
C171	C17	0.715270	0.522960	0.576910
C181	C18	0.634310	0.487560	0.542050
C191	C19	0.053950	0.477040	0.192310
C201	C20	0.054490	0.512440	0.146750
C211	C21	0.284730	0.861640	0.807690
C221	C22	0.365690	0.907740	0.853250
C231	C23	0.946050	0.138360	0.423090
C241	C24	0.945510	0.092260	0.457950
C251	C25	0.807690	0.946050	0.522960
C261	C26	0.853250	0.945510	0.487560
C271	C27	0.423090	0.284730	0.477040
C281	C28	0.457950	0.365690	0.512440
C291	C29	0.576910	0.053950	0.861640
C301	C30	0.542050	0.054490	0.907740
C311	C31	0.192310	0.715270	0.138360
C321	C32	0.146750	0.634310	0.092260
C331	C33	0.861640	0.576910	0.053950
C341	C34	0.907740	0.542050	0.054490
C351	C35	0.138360	0.192310	0.715270
C361	C36	0.092260	0.146750	0.634310
C371	C37	0.522960	0.807690	0.946050
C381	C38	0.487560	0.853250	0.945510
C391	C39	0.477040	0.423090	0.284730
C401	C40	0.512440	0.457950	0.365690
C411	C41	0.284730	0.477040	0.423090
C421	C42	0.365690	0.512440	0.457950
C431	C43	0.946050	0.522960	0.807690
C441	C44	0.945510	0.487560	0.853250
C451	C45	0.715270	0.138360	0.192310
C461	C46	0.634310	0.092260	0.146750
C471	C47	0.053950	0.861640	0.576910
C481	C48	0.054490	0.907740	0.542050
O11	O1	0.253620	0.005380	0.556280
O21	O2	0.162440	0.915420	0.424920
O31	O3	0.277880	0.000290	0.454430
O41	O4	0.175690	0.077080	0.578410
O51	O5	0.081100	0.031780	0.474100
O61	O6	0.449100	0.697340	0.443720
O71	O7	0.490500	0.737520	0.575080
O81	O8	0.545860	0.823450	0.545570
O91	O9	0.498670	0.597280	0.421590
O101	O10	0.557680	0.607000	0.525900
O111	O11	0.550900	0.994620	0.248240
O121	O12	0.509500	0.084580	0.247020
O131	O13	0.454140	0.999710	0.277590
O141	O14	0.501330	0.922920	0.098610
O151	O15	0.442320	0.968220	0.049320
O161	O16	0.746380	0.302660	0.751760
O171	O17	0.837560	0.262480	0.752980
O181	O18	0.722120	0.176550	0.722410
O191	O19	0.824310	0.402720	0.901390
O201	O20	0.918900	0.393000	0.950680
O211	O21	0.248240	0.550900	0.994620
O221	O22	0.247020	0.509500	0.084580
O231	O23	0.277590	0.454140	0.999710
O241	O24	0.098610	0.501330	0.922920
O251	O25	0.049320	0.442320	0.968220
O261	O26	0.751760	0.746380	0.302660
O271	O27	0.752980	0.837560	0.262480
O281	O28	0.722410	0.722120	0.176550
O291	O29	0.901390	0.824310	0.402720
O301	O30	0.950680	0.918900	0.393000
O311	O31	0.556280	0.253620	0.005380
O321	O32	0.424920	0.162440	0.915420
O331	O33	0.454430	0.277880	0.000290
O341	O34	0.578410	0.175690	0.077080
O351	O35	0.474100	0.081100	0.031780
O361	O36	0.443720	0.449100	0.697340
O371	O37	0.575080	0.490500	0.737520
O381	O38	0.545570	0.545860	0.823450
O391	O39	0.421590	0.498670	0.597280
O401	O40	0.525900	0.557680	0.607000
O411	O41	0.697340	0.443720	0.449100
O421	O42	0.737520	0.575080	0.490500
O431	O43	0.823450	0.545570	0.545860
O441	O44	0.597280	0.421590	0.498670
O451	O45	0.607000	0.525900	0.557680
O461	O46	0.005380	0.556280	0.253620
O471	O47	0.915420	0.424920	0.162440
O481	O48	0.000290	0.454430	0.277880
O491	O49	0.077080	0.578410	0.175690
O501	O50	0.031780	0.474100	0.081100
O511	O51	0.302660	0.751760	0.746380
O521	O52	0.262480	0.752980	0.837560
O531	O53	0.176550	0.722410	0.722120
O541	O54	0.402720	0.901390	0.824310
O551	O55	0.393000	0.950680	0.918900
O561	O56	0.994620	0.248240	0.550900
O571	O57	0.084580	0.247020	0.509500
O581	O58	0.999710	0.277590	0.454140
O591	O59	0.922920	0.098610	0.501330
O601	O60	0.968220	0.049320	0.442320
O611	O61	0.746380	0.994620	0.443720
O621	O62	0.837560	0.084580	0.575080
O631	O63	0.722120	0.999710	0.545570
O641	O64	0.824310	0.922920	0.421590
O651	O65	0.918900	0.968220	0.525900
O661	O66	0.550900	0.302660	0.556280
O671	O67	0.509500	0.262480	0.424920
O681	O68	0.454140	0.176550	0.454430
O691	O69	0.501330	0.402720	0.578410
O701	O70	0.442320	0.393000	0.474100
O711	O71	0.449100	0.005380	0.751760
O721	O72	0.490500	0.915420	0.752980
O731	O73	0.545860	0.000290	0.722410
O741	O74	0.498670	0.077080	0.901390
O751	O75	0.557680	0.031780	0.950680
O761	O76	0.253620	0.697340	0.248240
O771	O77	0.162440	0.737520	0.247020
O781	O78	0.277880	0.823450	0.277590
O791	O79	0.175690	0.597280	0.098610
O801	O80	0.081100	0.607000	0.049320
O811	O81	0.751760	0.449100	0.005380
O821	O82	0.752980	0.490500	0.915420
O831	O83	0.722410	0.545860	0.000290
O841	O84	0.901390	0.498670	0.077080
O851	O85	0.950680	0.557680	0.031780
O861	O86	0.248240	0.253620	0.697340
O871	O87	0.247020	0.162440	0.737520
O881	O88	0.277590	0.277880	0.823450
O891	O89	0.098610	0.175690	0.597280
O901	O90	0.049320	0.081100	0.607000
O911	O91	0.443720	0.746380	0.994620
O921	O92	0.575080	0.837560	0.084580
O931	O93	0.545570	0.722120	0.999710
O941	O94	0.421590	0.824310	0.922920
O951	O95	0.525900	0.918900	0.968220
O961	O96	0.556280	0.550900	0.302660
O971	O97	0.424920	0.509500	0.262480
O981	O98	0.454430	0.454140	0.176550
O991	O99	0.578410	0.501330	0.402720
O1001	O100	0.474100	0.442320	0.393000
O1011	O101	0.302660	0.556280	0.550900
O1021	O102	0.262480	0.424920	0.509500
O1031	O103	0.176550	0.454430	0.454140
O1041	O104	0.402720	0.578410	0.501330
O1051	O105	0.393000	0.474100	0.442320
O1061	O106	0.994620	0.443720	0.746380
O1071	O107	0.084580	0.575080	0.837560
O1081	O108	0.999710	0.545570	0.722120
O1091	O109	0.922920	0.421590	0.824310
O1101	O110	0.968220	0.525900	0.918900
O1111	O111	0.697340	0.248240	0.253620
O1121	O112	0.737520	0.247020	0.162440
O1131	O113	0.823450	0.277590	0.277880
O1141	O114	0.597280	0.098610	0.175690
O1151	O115	0.607000	0.049320	0.081100
O1161	O116	0.005380	0.751760	0.449100
O1171	O117	0.915420	0.752980	0.490500
O1181	O118	0.000290	0.722410	0.545860
O1191	O119	0.077080	0.901390	0.498670
O1201	O120	0.031780	0.950680	0.557680
O1211	O121	0.282390	0.862970	0.419420
O1221	O122	0.401220	0.048820	0.352400
O1231	O123	0.132820	0.785270	0.347550
O1241	O124	0.443550	0.862970	0.580580
O1251	O125	0.696420	0.048820	0.647600
O1261	O126	0.437720	0.785270	0.652450
O1271	O127	0.556450	0.137030	0.419420
O1281	O128	0.303580	0.951180	0.352400
O1291	O129	0.562280	0.214730	0.347550
O1301	O130	0.717610	0.137030	0.580580
O1311	O131	0.598780	0.951180	0.647600
O1321	O132	0.867180	0.214730	0.652450
O1331	O133	0.419420	0.556450	0.137030
O1341	O134	0.352400	0.303580	0.951180
O1351	O135	0.347550	0.562280	0.214730
O1361	O136	0.580580	0.717610	0.137030
O1371	O137	0.647600	0.598780	0.951180
O1381	O138	0.652450	0.867180	0.214730
O1391	O139	0.419420	0.282390	0.862970
O1401	O140	0.352400	0.401220	0.048820
O1411	O141	0.347550	0.132820	0.785270
O1421	O142	0.580580	0.443550	0.862970
O1431	O143	0.647600	0.696420	0.048820
O1441	O144	0.652450	0.437720	0.785270
O1451	O145	0.862970	0.580580	0.443550
O1461	O146	0.048820	0.647600	0.696420
O1471	O147	0.785270	0.652450	0.437720
O1481	O148	0.862970	0.419420	0.282390
O1491	O149	0.048820	0.352400	0.401220
O1501	O150	0.785270	0.347550	0.132820
O1511	O151	0.137030	0.580580	0.717610
O1521	O152	0.951180	0.647600	0.598780
O1531	O153	0.214730	0.652450	0.867180
O1541	O154	0.137030	0.419420	0.556450
O1551	O155	0.951180	0.352400	0.303580
O1561	O156	0.214730	0.347550	0.562280
O1571	O157	0.360400	0.048500	0.688100
O1581	O158	0.360400	0.672300	0.311900
O1591	O159	0.639600	0.951500	0.311900
O1601	O160	0.639600	0.327700	0.688100
O1611	O161	0.311900	0.639600	0.951500
O1621	O162	0.688100	0.639600	0.327700
O1631	O163	0.688100	0.360400	0.048500
O1641	O164	0.311900	0.360400	0.672300
O1651	O165	0.672300	0.311900	0.360400
O1661	O166	0.048500	0.688100	0.360400
O1671	O167	0.327700	0.688100	0.639600
O1681	O168	0.951500	0.311900	0.639600
