data_EKEQIV_clean_PM
_symmetry_space_group_name_H-M	'P1'
_cell_length_a	9.618000
_cell_length_b	13.996000
_cell_length_c	19.842000
_cell_angle_alpha	90.000000
_cell_angle_beta	99.182000
_cell_angle_gamma	90.000000
_symmetry_Int_Tables_number 1

loop_
_symmetry_equiv_pos_as_xyz
'x,y,z'

loop_
_atom_site_label
_atom_site_type_symbol
_atom_site_fract_x
_atom_site_fract_y
_atom_site_fract_z
Cu11	Cu1	0.769380	0.092050	0.718750
Cu21	Cu2	0.230620	0.592050	0.781250
Cu31	Cu3	0.230620	0.907950	0.281250
Cu41	Cu4	0.769380	0.407950	0.218750
Mo11	Mo1	0.299470	0.095020	0.983840
Mo21	Mo2	0.923540	0.101640	0.035820
Mo31	Mo3	0.008800	0.118610	0.878880
Mo41	Mo4	0.639660	0.110740	0.921420
Mo51	Mo5	0.700530	0.595020	0.516160
Mo61	Mo6	0.076460	0.601640	0.464180
Mo71	Mo7	0.991200	0.618610	0.621120
Mo81	Mo8	0.360340	0.610740	0.578580
Mo91	Mo9	0.700530	0.904980	0.016160
Mo101	Mo10	0.076460	0.898360	0.964180
Mo111	Mo11	0.991200	0.881390	0.121120
Mo121	Mo12	0.360340	0.889260	0.078580
Mo131	Mo13	0.299470	0.404980	0.483840
Mo141	Mo14	0.923540	0.398360	0.535820
Mo151	Mo15	0.008800	0.381390	0.378880
Mo161	Mo16	0.639660	0.389260	0.421420
H11	H1	0.066400	0.722500	0.247200
H21	H2	0.103600	0.936200	0.762900
H31	H3	0.323700	0.991700	0.809600
H41	H4	0.506900	0.879400	0.839800
H51	H5	0.532100	0.033000	0.337500
H61	H6	0.755500	0.560100	0.856500
H71	H7	0.709800	0.804500	0.878700
H81	H8	0.823600	0.731900	0.861800
H91	H9	0.676600	0.693400	0.714800
H101	H10	0.686000	0.778000	0.612900
H111	H11	0.742200	0.937700	0.619300
H121	H12	0.775300	0.934800	0.816800
H131	H13	0.933600	0.222500	0.252800
H141	H14	0.896400	0.436200	0.737100
H151	H15	0.676300	0.491700	0.690400
H161	H16	0.493100	0.379400	0.660200
H171	H17	0.467900	0.533000	0.162500
H181	H18	0.244500	0.060100	0.643500
H191	H19	0.290200	0.304500	0.621300
H201	H20	0.176400	0.231900	0.638200
H211	H21	0.323400	0.193400	0.785200
H221	H22	0.314000	0.278000	0.887100
H231	H23	0.257800	0.437700	0.880700
H241	H24	0.224700	0.434800	0.683200
H251	H25	0.933600	0.277500	0.752800
H261	H26	0.896400	0.063800	0.237100
H271	H27	0.676300	0.008300	0.190400
H281	H28	0.493100	0.120600	0.160200
H291	H29	0.467900	0.967000	0.662500
H301	H30	0.244500	0.439900	0.143500
H311	H31	0.290200	0.195500	0.121300
H321	H32	0.176400	0.268100	0.138200
H331	H33	0.323400	0.306600	0.285200
H341	H34	0.314000	0.222000	0.387100
H351	H35	0.257800	0.062300	0.380700
H361	H36	0.224700	0.065200	0.183200
H371	H37	0.066400	0.777500	0.747200
H381	H38	0.103600	0.563800	0.262900
H391	H39	0.323700	0.508300	0.309600
H401	H40	0.506900	0.620600	0.339800
H411	H41	0.532100	0.467000	0.837500
H421	H42	0.755500	0.939900	0.356500
H431	H43	0.709800	0.695500	0.378700
H441	H44	0.823600	0.768100	0.361800
H451	H45	0.676600	0.806600	0.214800
H461	H46	0.686000	0.722000	0.112900
H471	H47	0.742200	0.562300	0.119300
H481	H48	0.775300	0.565200	0.316800
C11	C1	0.155700	0.701500	0.266500
C21	C2	0.177400	0.606500	0.275400
C31	C3	0.307300	0.926700	0.802900
C41	C4	0.417000	0.640800	0.320900
C51	C5	0.388700	0.736900	0.310200
C61	C6	0.484500	0.684500	0.826300
C71	C7	0.540200	0.966800	0.336300
C81	C8	0.664700	0.584800	0.847100
C91	C9	0.730600	0.757600	0.845700
C101	C10	0.730400	0.806900	0.776100
C111	C11	0.699800	0.758000	0.715600
C121	C12	0.704800	0.808400	0.655100
C131	C13	0.738100	0.904200	0.659400
C141	C14	0.759000	0.902400	0.775400
C151	C15	0.844300	0.201500	0.233500
C161	C16	0.822600	0.106500	0.224600
C171	C17	0.692700	0.426700	0.697100
C181	C18	0.583000	0.140800	0.179100
C191	C19	0.611300	0.236900	0.189800
C201	C20	0.515500	0.184500	0.673700
C211	C21	0.459800	0.466800	0.163700
C221	C22	0.335300	0.084800	0.652900
C231	C23	0.269400	0.257600	0.654300
C241	C24	0.269600	0.306900	0.723900
C251	C25	0.300200	0.258000	0.784400
C261	C26	0.295200	0.308400	0.844900
C271	C27	0.261900	0.404200	0.840600
C281	C28	0.241000	0.402400	0.724600
C291	C29	0.844300	0.298500	0.733500
C301	C30	0.822600	0.393500	0.724600
C311	C31	0.692700	0.073300	0.197100
C321	C32	0.583000	0.359200	0.679100
C331	C33	0.611300	0.263100	0.689800
C341	C34	0.515500	0.315500	0.173700
C351	C35	0.459800	0.033200	0.663700
C361	C36	0.335300	0.415200	0.152900
C371	C37	0.269400	0.242400	0.154300
C381	C38	0.269600	0.193100	0.223900
C391	C39	0.300200	0.242000	0.284400
C401	C40	0.295200	0.191600	0.344900
C411	C41	0.261900	0.095800	0.340600
C421	C42	0.241000	0.097600	0.224600
C431	C43	0.155700	0.798500	0.766500
C441	C44	0.177400	0.893500	0.775400
C451	C45	0.307300	0.573300	0.302900
C461	C46	0.417000	0.859200	0.820900
C471	C47	0.388700	0.763100	0.810200
C481	C48	0.484500	0.815500	0.326300
C491	C49	0.540200	0.533200	0.836300
C501	C50	0.664700	0.915200	0.347100
C511	C51	0.730600	0.742400	0.345700
C521	C52	0.730400	0.693100	0.276100
C531	C53	0.699800	0.742000	0.215600
C541	C54	0.704800	0.691600	0.155100
C551	C55	0.738100	0.595800	0.159400
C561	C56	0.759000	0.597600	0.275400
N11	N1	0.256300	0.766300	0.284100
N21	N2	0.431000	0.903100	0.323200
N31	N3	0.627400	0.680700	0.841300
N41	N4	0.764800	0.951000	0.718800
N51	N5	0.743700	0.266300	0.215900
N61	N6	0.569000	0.403100	0.176800
N71	N7	0.372600	0.180700	0.658700
N81	N8	0.235200	0.451000	0.781200
N91	N9	0.743700	0.233700	0.715900
N101	N10	0.569000	0.096900	0.676800
N111	N11	0.372600	0.319300	0.158700
N121	N12	0.235200	0.049000	0.281200
N131	N13	0.256300	0.733700	0.784100
N141	N14	0.431000	0.596900	0.823200
N151	N15	0.627400	0.819300	0.341300
N161	N16	0.764800	0.549000	0.218800
O11	O1	0.199200	0.096100	0.884500
O21	O2	0.083800	0.077100	0.985700
O31	O3	0.931600	0.097600	0.794500
O41	O4	0.846200	0.100300	0.928100
O51	O5	0.000300	0.950900	0.887500
O61	O6	0.265200	0.928700	0.970000
O71	O7	0.338300	0.049200	0.067600
O81	O8	0.463300	0.075900	0.949000
O91	O9	0.800800	0.596100	0.615500
O101	O10	0.916200	0.577100	0.514300
O111	O11	0.068400	0.597600	0.705500
O121	O12	0.153800	0.600300	0.571900
O131	O13	0.999700	0.450900	0.612500
O141	O14	0.734800	0.428700	0.530000
O151	O15	0.661700	0.549200	0.432400
O161	O16	0.536700	0.575900	0.551000
O171	O17	0.800800	0.903900	0.115500
O181	O18	0.916200	0.922900	0.014300
O191	O19	0.068400	0.902400	0.205500
O201	O20	0.153800	0.899700	0.071900
O211	O21	0.999700	0.049100	0.112500
O221	O22	0.734800	0.071300	0.030000
O231	O23	0.661700	0.950800	0.932400
O241	O24	0.536700	0.924100	0.051000
O251	O25	0.199200	0.403900	0.384500
O261	O26	0.083800	0.422900	0.485700
O271	O27	0.931600	0.402400	0.294500
O281	O28	0.846200	0.399700	0.428100
O291	O29	0.000300	0.549100	0.387500
O301	O30	0.265200	0.571300	0.470000
O311	O31	0.338300	0.450800	0.567600
O321	O32	0.463300	0.424100	0.449000
