data_EKEVAT_clean_PM
_symmetry_space_group_name_H-M	'P1'
_cell_length_a	19.810000
_cell_length_b	13.153000
_cell_length_c	9.806000
_cell_angle_alpha	90.000000
_cell_angle_beta	113.196000
_cell_angle_gamma	90.000000
_symmetry_Int_Tables_number 1

loop_
_symmetry_equiv_pos_as_xyz
'x,y,z'

loop_
_atom_site_label
_atom_site_type_symbol
_atom_site_fract_x
_atom_site_fract_y
_atom_site_fract_z
N11	N1	0.431440	0.285400	0.118100
N21	N2	0.397790	0.268400	0.970700
H11	H1	0.408200	0.301000	0.905400
C11	C1	0.114000	0.052700	0.569200
C21	C2	0.190900	0.090500	0.608100
C31	C3	0.231900	0.127300	0.747600
H21	H2	0.211500	0.129600	0.818300
C41	C4	0.303200	0.161000	0.784400
C51	C5	0.332200	0.159200	0.677100
H31	H3	0.380000	0.181700	0.700400
C61	C6	0.291000	0.124600	0.536200
H41	H4	0.310600	0.125700	0.464200
C71	C7	0.220900	0.088200	0.501400
H51	H5	0.193800	0.062300	0.407300
C81	C8	0.346200	0.195000	0.936700
C91	C9	0.346400	0.162600	0.069500
H61	H6	0.316900	0.112400	0.084200
C101	C10	0.399600	0.219700	0.177700
H71	H7	0.411600	0.213100	0.279000
O11	O1	0.081080	0.084300	0.647000
O21	O2	0.088050	0.992400	0.462900
O31	O3	0.959310	0.887100	0.796000
N31	N3	0.931440	0.785400	0.118100
N41	N4	0.897790	0.768400	0.970700
H81	H8	0.908200	0.801000	0.905400
C111	C11	0.614000	0.552700	0.569200
C121	C12	0.690900	0.590500	0.608100
C131	C13	0.731900	0.627300	0.747600
H91	H9	0.711500	0.629600	0.818300
C141	C14	0.803200	0.661000	0.784400
C151	C15	0.832200	0.659200	0.677100
H101	H10	0.880000	0.681700	0.700400
C161	C16	0.791000	0.624600	0.536200
H111	H11	0.810600	0.625700	0.464200
C171	C17	0.720900	0.588200	0.501400
H121	H12	0.693800	0.562300	0.407300
C181	C18	0.846200	0.695000	0.936700
C191	C19	0.846400	0.662600	0.069500
H131	H13	0.816900	0.612400	0.084200
C201	C20	0.899600	0.719700	0.177700
H141	H14	0.911600	0.713100	0.279000
O41	O4	0.581080	0.584300	0.647000
O51	O5	0.588050	0.492400	0.462900
O61	O6	0.459310	0.387100	0.796000
N51	N5	0.568560	0.285400	0.381900
N61	N6	0.602210	0.268400	0.529300
H151	H15	0.591800	0.301000	0.594600
C211	C21	0.886000	0.052700	0.930800
C221	C22	0.809100	0.090500	0.891900
C231	C23	0.768100	0.127300	0.752400
H161	H16	0.788500	0.129600	0.681700
C241	C24	0.696800	0.161000	0.715600
C251	C25	0.667800	0.159200	0.822900
H171	H17	0.620000	0.181700	0.799600
C261	C26	0.709000	0.124600	0.963800
H181	H18	0.689400	0.125700	0.035800
C271	C27	0.779100	0.088200	0.998600
H191	H19	0.806200	0.062300	0.092700
C281	C28	0.653800	0.195000	0.563300
C291	C29	0.653600	0.162600	0.430500
H201	H20	0.683100	0.112400	0.415800
C301	C30	0.600400	0.219700	0.322300
H211	H21	0.588400	0.213100	0.221000
O71	O7	0.918920	0.084300	0.853000
O81	O8	0.911950	0.992400	0.037100
O91	O9	0.040690	0.887100	0.704000
N71	N7	0.068560	0.785400	0.381900
N81	N8	0.102210	0.768400	0.529300
H221	H22	0.091800	0.801000	0.594600
C311	C31	0.386000	0.552700	0.930800
C321	C32	0.309100	0.590500	0.891900
C331	C33	0.268100	0.627300	0.752400
H231	H23	0.288500	0.629600	0.681700
C341	C34	0.196800	0.661000	0.715600
C351	C35	0.167800	0.659200	0.822900
H241	H24	0.120000	0.681700	0.799600
C361	C36	0.209000	0.624600	0.963800
H251	H25	0.189400	0.625700	0.035800
C371	C37	0.279100	0.588200	0.998600
H261	H26	0.306200	0.562300	0.092700
C381	C38	0.153800	0.695000	0.563300
C391	C39	0.153600	0.662600	0.430500
H271	H27	0.183100	0.612400	0.415800
C401	C40	0.100400	0.719700	0.322300
H281	H28	0.088400	0.713100	0.221000
O101	O10	0.418920	0.584300	0.853000
O111	O11	0.411950	0.492400	0.037100
O121	O12	0.540690	0.387100	0.704000
N91	N9	0.568560	0.714600	0.881900
N101	N10	0.602210	0.731600	0.029300
H291	H29	0.591800	0.699000	0.094600
C411	C41	0.886000	0.947300	0.430800
C421	C42	0.809100	0.909500	0.391900
C431	C43	0.768100	0.872700	0.252400
H301	H30	0.788500	0.870400	0.181700
C441	C44	0.696800	0.839000	0.215600
C451	C45	0.667800	0.840800	0.322900
H311	H31	0.620000	0.818300	0.299600
C461	C46	0.709000	0.875400	0.463800
H321	H32	0.689400	0.874300	0.535800
C471	C47	0.779100	0.911800	0.498600
H331	H33	0.806200	0.937700	0.592700
C481	C48	0.653800	0.805000	0.063300
C491	C49	0.653600	0.837400	0.930500
H341	H34	0.683100	0.887600	0.915800
C501	C50	0.600400	0.780300	0.822300
H351	H35	0.588400	0.786900	0.721000
O131	O13	0.918920	0.915700	0.353000
O141	O14	0.911950	0.007600	0.537100
O151	O15	0.040690	0.112900	0.204000
N111	N11	0.068560	0.214600	0.881900
N121	N12	0.102210	0.231600	0.029300
H361	H36	0.091800	0.199000	0.094600
C511	C51	0.386000	0.447300	0.430800
C521	C52	0.309100	0.409500	0.391900
C531	C53	0.268100	0.372700	0.252400
H371	H37	0.288500	0.370400	0.181700
C541	C54	0.196800	0.339000	0.215600
C551	C55	0.167800	0.340800	0.322900
H381	H38	0.120000	0.318300	0.299600
C561	C56	0.209000	0.375400	0.463800
H391	H39	0.189400	0.374300	0.535800
C571	C57	0.279100	0.411800	0.498600
H401	H40	0.306200	0.437700	0.592700
C581	C58	0.153800	0.305000	0.063300
C591	C59	0.153600	0.337400	0.930500
H411	H41	0.183100	0.387600	0.915800
C601	C60	0.100400	0.280300	0.822300
H421	H42	0.088400	0.286900	0.721000
O161	O16	0.418920	0.415700	0.353000
O171	O17	0.411950	0.507600	0.537100
O181	O18	0.540690	0.612900	0.204000
N131	N13	0.431440	0.714600	0.618100
N141	N14	0.397790	0.731600	0.470700
H431	H43	0.408200	0.699000	0.405400
C611	C61	0.114000	0.947300	0.069200
C621	C62	0.190900	0.909500	0.108100
C631	C63	0.231900	0.872700	0.247600
H441	H44	0.211500	0.870400	0.318300
C641	C64	0.303200	0.839000	0.284400
C651	C65	0.332200	0.840800	0.177100
H451	H45	0.380000	0.818300	0.200400
C661	C66	0.291000	0.875400	0.036200
H461	H46	0.310600	0.874300	0.964200
C671	C67	0.220900	0.911800	0.001400
H471	H47	0.193800	0.937700	0.907300
C681	C68	0.346200	0.805000	0.436700
C691	C69	0.346400	0.837400	0.569500
H481	H48	0.316900	0.887600	0.584200
C701	C70	0.399600	0.780300	0.677700
H491	H49	0.411600	0.786900	0.779000
O191	O19	0.081080	0.915700	0.147000
O201	O20	0.088050	0.007600	0.962900
O211	O21	0.959310	0.112900	0.296000
N151	N15	0.931440	0.214600	0.618100
N161	N16	0.897790	0.231600	0.470700
H501	H50	0.908200	0.199000	0.405400
C711	C71	0.614000	0.447300	0.069200
C721	C72	0.690900	0.409500	0.108100
C731	C73	0.731900	0.372700	0.247600
H511	H51	0.711500	0.370400	0.318300
C741	C74	0.803200	0.339000	0.284400
C751	C75	0.832200	0.340800	0.177100
H521	H52	0.880000	0.318300	0.200400
C761	C76	0.791000	0.375400	0.036200
H531	H53	0.810600	0.374300	0.964200
C771	C77	0.720900	0.411800	0.001400
H541	H54	0.693800	0.437700	0.907300
C781	C78	0.846200	0.305000	0.436700
C791	C79	0.846400	0.337400	0.569500
H551	H55	0.816900	0.387600	0.584200
C801	C80	0.899600	0.280300	0.677700
H561	H56	0.911600	0.286900	0.779000
O221	O22	0.581080	0.415700	0.147000
O231	O23	0.588050	0.507600	0.962900
O241	O24	0.459310	0.612900	0.296000
Er11	Er1	0.000000	0.058740	0.750000
N171	N17	0.000000	0.836600	0.750000
O251	O25	0.000000	0.745300	0.750000
Er21	Er2	0.500000	0.558740	0.750000
N181	N18	0.500000	0.336600	0.750000
O261	O26	0.500000	0.245300	0.750000
Er31	Er3	0.000000	0.941260	0.250000
N191	N19	0.000000	0.163400	0.250000
O271	O27	0.000000	0.254700	0.250000
Er41	Er4	0.500000	0.441260	0.250000
N201	N20	0.500000	0.663400	0.250000
O281	O28	0.500000	0.754700	0.250000
