data_EKIDEH_clean_PM
_symmetry_space_group_name_H-M	'P1'
_cell_length_a	17.949100
_cell_length_b	16.979700
_cell_length_c	10.363600
_cell_angle_alpha	90.000000
_cell_angle_beta	90.000000
_cell_angle_gamma	90.000000
_symmetry_Int_Tables_number 1

loop_
_symmetry_equiv_pos_as_xyz
'x,y,z'

loop_
_atom_site_label
_atom_site_type_symbol
_atom_site_fract_x
_atom_site_fract_y
_atom_site_fract_z
Ga11	Ga1	0.202120	0.239970	0.087220
Ga21	Ga2	0.398460	0.201730	0.112480
Ga31	Ga3	0.217800	0.416020	0.912740
P11	P1	0.323710	0.281000	0.882770
P21	P2	0.276450	0.069340	0.106470
P31	P3	0.075770	0.304460	0.901410
F11	F1	0.298400	0.244780	0.170100
F21	F2	0.212660	0.356440	0.081900
O11	O1	0.254680	0.236010	0.925400
O21	O2	0.210700	0.126000	0.091800
O31	O3	0.105680	0.249770	0.006200
O41	O4	0.347680	0.252540	0.749300
O51	O5	0.391500	0.267930	0.971700
O61	O6	0.308840	0.370010	0.881400
O71	O7	0.353640	0.106460	0.080500
O81	O8	0.076570	0.259270	0.773300
O91	O9	0.996530	0.331840	0.934300
O101	O10	0.277880	0.031190	0.241400
O111	O11	0.265340	0.006500	0.002400
O121	O12	0.121960	0.381120	0.885800
Ga41	Ga4	0.297880	0.260030	0.587220
Ga51	Ga5	0.101540	0.298270	0.612480
Ga61	Ga6	0.282200	0.083980	0.412740
P41	P4	0.176290	0.219000	0.382770
P51	P5	0.223550	0.430660	0.606470
P61	P6	0.424230	0.195540	0.401410
F31	F3	0.201600	0.255220	0.670100
F41	F4	0.287340	0.143560	0.581900
O131	O13	0.245320	0.263990	0.425400
O141	O14	0.289300	0.374000	0.591800
O151	O15	0.394320	0.250230	0.506200
O161	O16	0.152320	0.247460	0.249300
O171	O17	0.108500	0.232070	0.471700
O181	O18	0.191160	0.129990	0.381400
O191	O19	0.146360	0.393540	0.580500
O201	O20	0.423430	0.240730	0.273300
O211	O21	0.503470	0.168160	0.434300
O221	O22	0.222120	0.468810	0.741400
O231	O23	0.234660	0.493500	0.502400
O241	O24	0.378040	0.118880	0.385800
Ga71	Ga7	0.797880	0.239970	0.412780
Ga81	Ga8	0.601540	0.201730	0.387520
Ga91	Ga9	0.782200	0.416020	0.587260
P71	P7	0.676290	0.281000	0.617230
P81	P8	0.723550	0.069340	0.393530
P91	P9	0.924230	0.304460	0.598590
F51	F5	0.701600	0.244780	0.329900
F61	F6	0.787340	0.356440	0.418100
O251	O25	0.745320	0.236010	0.574600
O261	O26	0.789300	0.126000	0.408200
O271	O27	0.894320	0.249770	0.493800
O281	O28	0.652320	0.252540	0.750700
O291	O29	0.608500	0.267930	0.528300
O301	O30	0.691160	0.370010	0.618600
O311	O31	0.646360	0.106460	0.419500
O321	O32	0.923430	0.259270	0.726700
O331	O33	0.003470	0.331840	0.565700
O341	O34	0.722120	0.031190	0.258600
O351	O35	0.734660	0.006500	0.497600
O361	O36	0.878040	0.381120	0.614200
Ga101	Ga10	0.702120	0.260030	0.912780
Ga111	Ga11	0.898460	0.298270	0.887520
Ga121	Ga12	0.717800	0.083980	0.087260
P101	P10	0.823710	0.219000	0.117230
P111	P11	0.776450	0.430660	0.893530
P121	P12	0.575770	0.195540	0.098590
F71	F7	0.798400	0.255220	0.829900
F81	F8	0.712660	0.143560	0.918100
O371	O37	0.754680	0.263990	0.074600
O381	O38	0.710700	0.374000	0.908200
O391	O39	0.605680	0.250230	0.993800
O401	O40	0.847680	0.247460	0.250700
O411	O41	0.891500	0.232070	0.028300
O421	O42	0.808840	0.129990	0.118600
O431	O43	0.853640	0.393540	0.919500
O441	O44	0.576570	0.240730	0.226700
O451	O45	0.496530	0.168160	0.065700
O461	O46	0.777880	0.468810	0.758600
O471	O47	0.765340	0.493500	0.997600
O481	O48	0.621960	0.118880	0.114200
Ga131	Ga13	0.797880	0.760030	0.912780
Ga141	Ga14	0.601540	0.798270	0.887520
Ga151	Ga15	0.782200	0.583980	0.087260
P131	P13	0.676290	0.719000	0.117230
P141	P14	0.723550	0.930660	0.893530
P151	P15	0.924230	0.695540	0.098590
F91	F9	0.701600	0.755220	0.829900
F101	F10	0.787340	0.643560	0.918100
O491	O49	0.745320	0.763990	0.074600
O501	O50	0.789300	0.874000	0.908200
O511	O51	0.894320	0.750230	0.993800
O521	O52	0.652320	0.747460	0.250700
O531	O53	0.608500	0.732070	0.028300
O541	O54	0.691160	0.629990	0.118600
O551	O55	0.646360	0.893540	0.919500
O561	O56	0.923430	0.740730	0.226700
O571	O57	0.003470	0.668160	0.065700
O581	O58	0.722120	0.968810	0.758600
O591	O59	0.734660	0.993500	0.997600
O601	O60	0.878040	0.618880	0.114200
Ga161	Ga16	0.702120	0.739970	0.412780
Ga171	Ga17	0.898460	0.701730	0.387520
Ga181	Ga18	0.717800	0.916020	0.587260
P161	P16	0.823710	0.781000	0.617230
P171	P17	0.776450	0.569340	0.393530
P181	P18	0.575770	0.804460	0.598590
F111	F11	0.798400	0.744780	0.329900
F121	F12	0.712660	0.856440	0.418100
O611	O61	0.754680	0.736010	0.574600
O621	O62	0.710700	0.626000	0.408200
O631	O63	0.605680	0.749770	0.493800
O641	O64	0.847680	0.752540	0.750700
O651	O65	0.891500	0.767930	0.528300
O661	O66	0.808840	0.870010	0.618600
O671	O67	0.853640	0.606460	0.419500
O681	O68	0.576570	0.759270	0.726700
O691	O69	0.496530	0.831840	0.565700
O701	O70	0.777880	0.531190	0.258600
O711	O71	0.765340	0.506500	0.497600
O721	O72	0.621960	0.881120	0.614200
Ga191	Ga19	0.202120	0.760030	0.587220
Ga201	Ga20	0.398460	0.798270	0.612480
Ga211	Ga21	0.217800	0.583980	0.412740
P191	P19	0.323710	0.719000	0.382770
P201	P20	0.276450	0.930660	0.606470
P211	P21	0.075770	0.695540	0.401410
F131	F13	0.298400	0.755220	0.670100
F141	F14	0.212660	0.643560	0.581900
O731	O73	0.254680	0.763990	0.425400
O741	O74	0.210700	0.874000	0.591800
O751	O75	0.105680	0.750230	0.506200
O761	O76	0.347680	0.747460	0.249300
O771	O77	0.391500	0.732070	0.471700
O781	O78	0.308840	0.629990	0.381400
O791	O79	0.353640	0.893540	0.580500
O801	O80	0.076570	0.740730	0.273300
O811	O81	0.996530	0.668160	0.434300
O821	O82	0.277880	0.968810	0.741400
O831	O83	0.265340	0.993500	0.502400
O841	O84	0.121960	0.618880	0.385800
Ga221	Ga22	0.297880	0.739970	0.087220
Ga231	Ga23	0.101540	0.701730	0.112480
Ga241	Ga24	0.282200	0.916020	0.912740
P221	P22	0.176290	0.781000	0.882770
P231	P23	0.223550	0.569340	0.106470
P241	P24	0.424230	0.804460	0.901410
F151	F15	0.201600	0.744780	0.170100
F161	F16	0.287340	0.856440	0.081900
O851	O85	0.245320	0.736010	0.925400
O861	O86	0.289300	0.626000	0.091800
O871	O87	0.394320	0.749770	0.006200
O881	O88	0.152320	0.752540	0.749300
O891	O89	0.108500	0.767930	0.971700
O901	O90	0.191160	0.870010	0.881400
O911	O91	0.146360	0.606460	0.080500
O921	O92	0.423430	0.759270	0.773300
O931	O93	0.503470	0.831840	0.934300
O941	O94	0.222120	0.531190	0.241400
O951	O95	0.234660	0.506500	0.002400
O961	O96	0.378040	0.881120	0.885800
Rb11	Rb1	0.500000	0.000000	0.500000
Rb21	Rb2	0.000000	0.500000	0.000000
Rb31	Rb3	0.500000	0.000000	0.000000
Rb41	Rb4	0.000000	0.500000	0.500000
