data_EKIJEP_clean_PM
_symmetry_space_group_name_H-M	'P1'
_cell_length_a	10.863700
_cell_length_b	6.388300
_cell_length_c	16.963000
_cell_angle_alpha	90.000000
_cell_angle_beta	105.757000
_cell_angle_gamma	90.000000
_symmetry_Int_Tables_number 1

loop_
_symmetry_equiv_pos_as_xyz
'x,y,z'

loop_
_atom_site_label
_atom_site_type_symbol
_atom_site_fract_x
_atom_site_fract_y
_atom_site_fract_z
Co11	Co1	0.534590	0.003110	0.916060
C11	C1	0.668600	0.183000	0.663600
C21	C2	0.776800	0.120300	0.735700
C31	C3	0.834100	0.923200	0.739100
H11	H1	0.803400	0.827800	0.696900
C41	C4	0.935400	0.869200	0.804200
H21	H2	0.974000	0.739000	0.804900
C51	C5	0.980500	0.006900	0.868800
H31	H3	0.050000	0.970300	0.912300
C61	C6	0.922000	0.197400	0.868300
C71	C7	0.821800	0.255700	0.800800
H41	H4	0.784900	0.387400	0.799800
C81	C8	0.085800	0.430200	0.959900
H51	H5	0.145000	0.382700	0.933300
C91	C9	0.963400	0.346000	0.938200
C101	C10	0.877000	0.416500	0.979900
C111	C11	0.742800	0.330100	0.964300
O11	O1	0.614400	0.039300	0.618520
O21	O2	0.639100	0.374200	0.654130
O31	O3	0.724300	0.136800	0.966060
O41	O4	0.656000	0.466000	0.951890
O51	O5	0.444400	0.190200	0.983060
H61	H6	0.365300	0.190200	0.957700
Co21	Co2	0.465410	0.503110	0.583940
C121	C12	0.331400	0.683000	0.836400
C131	C13	0.223200	0.620300	0.764300
C141	C14	0.165900	0.423200	0.760900
H71	H7	0.196600	0.327800	0.803100
C151	C15	0.064600	0.369200	0.695800
H81	H8	0.026000	0.239000	0.695100
C161	C16	0.019500	0.506900	0.631200
H91	H9	0.950000	0.470300	0.587700
C171	C17	0.078000	0.697400	0.631700
C181	C18	0.178200	0.755700	0.699200
H101	H10	0.215100	0.887400	0.700200
C191	C19	0.914200	0.930200	0.540100
H111	H11	0.855000	0.882700	0.566700
C201	C20	0.036600	0.846000	0.561800
C211	C21	0.123000	0.916500	0.520100
C221	C22	0.257200	0.830100	0.535700
O61	O6	0.385600	0.539300	0.881480
O71	O7	0.360900	0.874200	0.845870
O81	O8	0.275700	0.636800	0.533940
O91	O9	0.344000	0.966000	0.548110
O101	O10	0.555600	0.690200	0.516940
H121	H12	0.634700	0.690200	0.542300
Co31	Co3	0.465410	0.996890	0.083940
C231	C23	0.331400	0.817000	0.336400
C241	C24	0.223200	0.879700	0.264300
C251	C25	0.165900	0.076800	0.260900
H131	H13	0.196600	0.172200	0.303100
C261	C26	0.064600	0.130800	0.195800
H141	H14	0.026000	0.261000	0.195100
C271	C27	0.019500	0.993100	0.131200
H151	H15	0.950000	0.029700	0.087700
C281	C28	0.078000	0.802600	0.131700
C291	C29	0.178200	0.744300	0.199200
H161	H16	0.215100	0.612600	0.200200
C301	C30	0.914200	0.569800	0.040100
H171	H17	0.855000	0.617300	0.066700
C311	C31	0.036600	0.654000	0.061800
C321	C32	0.123000	0.583500	0.020100
C331	C33	0.257200	0.669900	0.035700
O111	O11	0.385600	0.960700	0.381480
O121	O12	0.360900	0.625800	0.345870
O131	O13	0.275700	0.863200	0.033940
O141	O14	0.344000	0.534000	0.048110
O151	O15	0.555600	0.809800	0.016940
H181	H18	0.634700	0.809800	0.042300
Co41	Co4	0.534590	0.496890	0.416060
C341	C34	0.668600	0.317000	0.163600
C351	C35	0.776800	0.379700	0.235700
C361	C36	0.834100	0.576800	0.239100
H191	H19	0.803400	0.672200	0.196900
C371	C37	0.935400	0.630800	0.304200
H201	H20	0.974000	0.761000	0.304900
C381	C38	0.980500	0.493100	0.368800
H211	H21	0.050000	0.529700	0.412300
C391	C39	0.922000	0.302600	0.368300
C401	C40	0.821800	0.244300	0.300800
H221	H22	0.784900	0.112600	0.299800
C411	C41	0.085800	0.069800	0.459900
H231	H23	0.145000	0.117300	0.433300
C421	C42	0.963400	0.154000	0.438200
C431	C43	0.877000	0.083500	0.479900
C441	C44	0.742800	0.169900	0.464300
O161	O16	0.614400	0.460700	0.118520
O171	O17	0.639100	0.125800	0.154130
O181	O18	0.724300	0.363200	0.466060
O191	O19	0.656000	0.034000	0.451890
O201	O20	0.444400	0.309800	0.483060
H241	H24	0.365300	0.309800	0.457700
Co51	Co5	0.500000	0.500000	0.000000
Co61	Co6	0.500000	0.000000	0.500000
