data_EKOPOK_clean_PM
_symmetry_space_group_name_H-M	'P1'
_cell_length_a	14.208600
_cell_length_b	15.588300
_cell_length_c	15.588300
_cell_angle_alpha	78.012200
_cell_angle_beta	62.887100
_cell_angle_gamma	62.887100
_symmetry_Int_Tables_number 1

loop_
_symmetry_equiv_pos_as_xyz
'x,y,z'

loop_
_atom_site_label
_atom_site_type_symbol
_atom_site_fract_x
_atom_site_fract_y
_atom_site_fract_z
Ca11	Ca1	0.547460	0.000000	0.405080
Ca21	Ca2	0.952540	0.000000	0.594920
Ca31	Ca3	0.047460	0.405080	0.000000
Ca41	Ca4	0.452540	0.594920	0.000000
Cd11	Cd1	0.232240	0.035530	0.500000
Cd21	Cd2	0.767760	0.964470	0.500000
Cd31	Cd3	0.267770	0.500000	0.964460
Cd41	Cd4	0.732230	0.500000	0.035540
H11	H1	0.601600	0.345600	0.273200
H21	H2	0.446000	0.225200	0.399400
H31	H3	0.488100	0.413800	0.182400
H41	H4	0.278600	0.285300	0.229700
H51	H5	0.220400	0.654400	0.726800
H61	H6	0.070600	0.774800	0.600600
H71	H7	0.084300	0.586200	0.817600
H81	H8	0.793600	0.714700	0.770300
H91	H9	0.125200	0.273200	0.654400
H101	H10	0.154600	0.399400	0.774800
H111	H11	0.329500	0.182400	0.586200
H121	H12	0.491700	0.229700	0.714700
H131	H13	0.052800	0.726800	0.345600
H141	H14	0.328800	0.600600	0.225200
H151	H15	0.098100	0.817600	0.413800
H161	H16	0.436100	0.770300	0.285300
H171	H17	0.720400	0.726800	0.654400
H181	H18	0.570600	0.600600	0.774800
H191	H19	0.584300	0.817600	0.586200
H201	H20	0.293600	0.770300	0.714700
H211	H21	0.101600	0.273200	0.345600
H221	H22	0.946000	0.399400	0.225200
H231	H23	0.988100	0.182400	0.413800
H241	H24	0.778600	0.229700	0.285300
H251	H25	0.552800	0.345600	0.726800
H261	H26	0.828800	0.225200	0.600600
H271	H27	0.598100	0.413800	0.817600
H281	H28	0.936100	0.285300	0.770300
H291	H29	0.625200	0.654400	0.273200
H301	H30	0.654600	0.774800	0.399400
H311	H31	0.829500	0.586200	0.182400
H321	H32	0.991700	0.714700	0.229700
C11	C1	0.304200	0.174300	0.380900
C21	C2	0.353400	0.413390	0.109610
C31	C3	0.354600	0.244050	0.322550
C41	C4	0.430000	0.258000	0.347200
C51	C5	0.480500	0.320600	0.294000
C61	C6	0.455300	0.370780	0.217220
C71	C7	0.380700	0.356770	0.192030
C81	C8	0.329500	0.293800	0.245600
C91	C9	0.859400	0.825700	0.619100
C101	C10	0.876400	0.586610	0.890390
C111	C11	0.921200	0.755950	0.677450
C121	C12	0.035200	0.742000	0.652800
C131	C13	0.095100	0.679400	0.706000
C141	C14	0.043300	0.629220	0.782780
C151	C15	0.929500	0.643230	0.807970
C161	C16	0.868900	0.706200	0.754400
C171	C17	0.314900	0.380900	0.825700
C181	C18	0.536990	0.109610	0.586610
C191	C19	0.322850	0.322550	0.755950
C201	C20	0.222800	0.347200	0.742000
C211	C21	0.225500	0.294000	0.679400
C221	C22	0.327480	0.217220	0.629220
C231	C23	0.427270	0.192030	0.643230
C241	C24	0.424900	0.245600	0.706200
C251	C25	0.521500	0.619100	0.174300
C261	C26	0.233210	0.890390	0.413390
C271	C27	0.401350	0.677450	0.244050
C281	C28	0.312000	0.652800	0.258000
C291	C29	0.198900	0.706000	0.320600
C301	C30	0.173920	0.782780	0.370780
C311	C31	0.262530	0.807970	0.356770
C321	C32	0.376700	0.754400	0.293800
C331	C33	0.359400	0.619100	0.825700
C341	C34	0.376400	0.890390	0.586610
C351	C35	0.421200	0.677450	0.755950
C361	C36	0.535200	0.652800	0.742000
C371	C37	0.595100	0.706000	0.679400
C381	C38	0.543300	0.782780	0.629220
C391	C39	0.429500	0.807970	0.643230
C401	C40	0.368900	0.754400	0.706200
C411	C41	0.804200	0.380900	0.174300
C421	C42	0.853400	0.109610	0.413390
C431	C43	0.854600	0.322550	0.244050
C441	C44	0.930000	0.347200	0.258000
C451	C45	0.980500	0.294000	0.320600
C461	C46	0.955300	0.217220	0.370780
C471	C47	0.880700	0.192030	0.356770
C481	C48	0.829500	0.245600	0.293800
C491	C49	0.021500	0.174300	0.619100
C501	C50	0.733210	0.413390	0.890390
C511	C51	0.901350	0.244050	0.677450
C521	C52	0.812000	0.258000	0.652800
C531	C53	0.698900	0.320600	0.706000
C541	C54	0.673920	0.370780	0.782780
C551	C55	0.762530	0.356770	0.807970
C561	C56	0.876700	0.293800	0.754400
C571	C57	0.814900	0.825700	0.380900
C581	C58	0.036990	0.586610	0.109610
C591	C59	0.822850	0.755950	0.322550
C601	C60	0.722800	0.742000	0.347200
C611	C61	0.725500	0.679400	0.294000
C621	C62	0.827480	0.629220	0.217220
C631	C63	0.927270	0.643230	0.192030
C641	C64	0.924900	0.706200	0.245600
O11	O1	0.356110	0.111250	0.428930
O21	O2	0.214560	0.176310	0.381970
O31	O3	0.304540	0.386860	0.075860
O41	O4	0.381580	0.481600	0.075840
O51	O5	0.555000	0.329300	0.320100
O61	O6	0.896290	0.888750	0.571070
O71	O7	0.772840	0.823690	0.618030
O81	O8	0.767260	0.613140	0.924140
O91	O9	0.939020	0.518400	0.924160
O101	O10	0.204400	0.670700	0.679900
O111	O11	0.214960	0.428930	0.888750
O121	O12	0.403470	0.381970	0.823690
O131	O13	0.619600	0.075860	0.613140
O141	O14	0.542580	0.075840	0.518400
O151	O15	0.124900	0.320100	0.670700
O161	O16	0.532640	0.571070	0.111250
O171	O17	0.609130	0.618030	0.176310
O181	O18	0.308600	0.924140	0.386860
O191	O19	0.136820	0.924160	0.481600
O201	O20	0.115700	0.679900	0.329300
O211	O21	0.396290	0.571070	0.888750
O221	O22	0.272840	0.618030	0.823690
O231	O23	0.267260	0.924140	0.613140
O241	O24	0.439020	0.924160	0.518400
O251	O25	0.704400	0.679900	0.670700
O261	O26	0.856110	0.428930	0.111250
O271	O27	0.714560	0.381970	0.176310
O281	O28	0.804540	0.075860	0.386860
O291	O29	0.881580	0.075840	0.481600
O301	O30	0.055000	0.320100	0.329300
O311	O31	0.032640	0.111250	0.571070
O321	O32	0.109130	0.176310	0.618030
O331	O33	0.808600	0.386860	0.924140
O341	O34	0.636820	0.481600	0.924160
O351	O35	0.615700	0.329300	0.679900
O361	O36	0.714960	0.888750	0.428930
O371	O37	0.903470	0.823690	0.381970
O381	O38	0.119600	0.613140	0.075860
O391	O39	0.042580	0.518400	0.075840
O401	O40	0.624900	0.670700	0.320100
