data_EKOPEA_clean_PM
_symmetry_space_group_name_H-M	'P1'
_cell_length_a	19.131000
_cell_length_b	19.226000
_cell_length_c	7.189900
_cell_angle_alpha	90.000000
_cell_angle_beta	90.000000
_cell_angle_gamma	90.000000
_symmetry_Int_Tables_number 1

loop_
_symmetry_equiv_pos_as_xyz
'x,y,z'

loop_
_atom_site_label
_atom_site_type_symbol
_atom_site_fract_x
_atom_site_fract_y
_atom_site_fract_z
Cd11	Cd1	0.245580	0.300700	0.663300
Ca11	Ca1	0.232360	0.359770	0.130470
O11	O1	0.178400	0.277320	0.937000
O21	O2	0.123090	0.265480	0.671800
O31	O3	0.875600	0.192250	0.664200
O41	O4	0.819980	0.174530	0.924400
O51	O5	0.257260	0.268420	0.333400
O61	O6	0.265080	0.190690	0.554800
O71	O7	0.278790	0.909440	0.101600
O81	O8	0.289720	0.938790	0.399000
C11	C1	0.124500	0.261410	0.846000
C21	C2	0.875700	0.187190	0.835300
C31	C3	0.062030	0.235790	0.948800
C41	C4	0.063260	0.226390	0.140100
H11	H1	0.104200	0.234900	0.206100
C51	C5	0.004200	0.204500	0.233100
H21	H2	0.005400	0.198600	0.361400
C61	C6	0.943600	0.191580	0.135900
H31	H3	0.903700	0.177400	0.199500
C71	C7	0.941300	0.199480	0.944100
C81	C8	0.001050	0.221230	0.852300
H41	H4	0.000200	0.226200	0.723600
C91	C9	0.266900	0.206350	0.386900
C101	C10	0.286300	0.953000	0.231700
C111	C11	0.281200	0.150490	0.248800
C121	C12	0.296100	0.165500	0.065100
H51	H5	0.297100	0.211700	0.027200
C131	C13	0.309600	0.114110	0.935800
H61	H6	0.320900	0.125700	0.813900
C141	C14	0.306100	0.045270	0.990000
H71	H7	0.313900	0.010200	0.903200
C151	C15	0.290990	0.027880	0.174700
C161	C16	0.279700	0.080340	0.302500
H81	H8	0.270900	0.069000	0.426000
Cd21	Cd2	0.754420	0.699300	0.163300
Ca21	Ca2	0.767640	0.640230	0.630470
O91	O9	0.821600	0.722680	0.437000
O101	O10	0.876910	0.734520	0.171800
O111	O11	0.124400	0.807750	0.164200
O121	O12	0.180020	0.825470	0.424400
O131	O13	0.742740	0.731580	0.833400
O141	O14	0.734920	0.809310	0.054800
O151	O15	0.721210	0.090560	0.601600
O161	O16	0.710280	0.061210	0.899000
C171	C17	0.875500	0.738590	0.346000
C181	C18	0.124300	0.812810	0.335300
C191	C19	0.937970	0.764210	0.448800
C201	C20	0.936740	0.773610	0.640100
H91	H9	0.895800	0.765100	0.706100
C211	C21	0.995800	0.795500	0.733100
H101	H10	0.994600	0.801400	0.861400
C221	C22	0.056400	0.808420	0.635900
H111	H11	0.096300	0.822600	0.699500
C231	C23	0.058700	0.800520	0.444100
C241	C24	0.998950	0.778770	0.352300
H121	H12	0.999800	0.773800	0.223600
C251	C25	0.733100	0.793650	0.886900
C261	C26	0.713700	0.047000	0.731700
C271	C27	0.718800	0.849510	0.748800
C281	C28	0.703900	0.834500	0.565100
H131	H13	0.702900	0.788300	0.527200
C291	C29	0.690400	0.885890	0.435800
H141	H14	0.679100	0.874300	0.313900
C301	C30	0.693900	0.954730	0.490000
H151	H15	0.686100	0.989800	0.403200
C311	C31	0.709010	0.972120	0.674700
C321	C32	0.720300	0.919660	0.802500
H161	H16	0.729100	0.931000	0.926000
Cd31	Cd3	0.745580	0.199300	0.663300
Ca31	Ca3	0.732360	0.140230	0.130470
O171	O17	0.678400	0.222680	0.937000
O181	O18	0.623090	0.234520	0.671800
O191	O19	0.375600	0.307750	0.664200
O201	O20	0.319980	0.325470	0.924400
O211	O21	0.757260	0.231580	0.333400
O221	O22	0.765080	0.309310	0.554800
O231	O23	0.778790	0.590560	0.101600
O241	O24	0.789720	0.561210	0.399000
C331	C33	0.624500	0.238590	0.846000
C341	C34	0.375700	0.312810	0.835300
C351	C35	0.562030	0.264210	0.948800
C361	C36	0.563260	0.273610	0.140100
H171	H17	0.604200	0.265100	0.206100
C371	C37	0.504200	0.295500	0.233100
H181	H18	0.505400	0.301400	0.361400
C381	C38	0.443600	0.308420	0.135900
H191	H19	0.403700	0.322600	0.199500
C391	C39	0.441300	0.300520	0.944100
C401	C40	0.501050	0.278770	0.852300
H201	H20	0.500200	0.273800	0.723600
C411	C41	0.766900	0.293650	0.386900
C421	C42	0.786300	0.547000	0.231700
C431	C43	0.781200	0.349510	0.248800
C441	C44	0.796100	0.334500	0.065100
H211	H21	0.797100	0.288300	0.027200
C451	C45	0.809600	0.385890	0.935800
H221	H22	0.820900	0.374300	0.813900
C461	C46	0.806100	0.454730	0.990000
H231	H23	0.813900	0.489800	0.903200
C471	C47	0.790990	0.472120	0.174700
C481	C48	0.779700	0.419660	0.302500
H241	H24	0.770900	0.431000	0.426000
Cd41	Cd4	0.254420	0.800700	0.163300
Ca41	Ca4	0.267640	0.859770	0.630470
O251	O25	0.321600	0.777320	0.437000
O261	O26	0.376910	0.765480	0.171800
O271	O27	0.624400	0.692250	0.164200
O281	O28	0.680020	0.674530	0.424400
O291	O29	0.242740	0.768420	0.833400
O301	O30	0.234920	0.690690	0.054800
O311	O31	0.221210	0.409440	0.601600
O321	O32	0.210280	0.438790	0.899000
C491	C49	0.375500	0.761410	0.346000
C501	C50	0.624300	0.687190	0.335300
C511	C51	0.437970	0.735790	0.448800
C521	C52	0.436740	0.726390	0.640100
H251	H25	0.395800	0.734900	0.706100
C531	C53	0.495800	0.704500	0.733100
H261	H26	0.494600	0.698600	0.861400
C541	C54	0.556400	0.691580	0.635900
H271	H27	0.596300	0.677400	0.699500
C551	C55	0.558700	0.699480	0.444100
C561	C56	0.498950	0.721230	0.352300
H281	H28	0.499800	0.726200	0.223600
C571	C57	0.233100	0.706350	0.886900
C581	C58	0.213700	0.453000	0.731700
C591	C59	0.218800	0.650490	0.748800
C601	C60	0.203900	0.665500	0.565100
H291	H29	0.202900	0.711700	0.527200
C611	C61	0.190400	0.614110	0.435800
H301	H30	0.179100	0.625700	0.313900
C621	C62	0.193900	0.545270	0.490000
H311	H31	0.186100	0.510200	0.403200
C631	C63	0.209010	0.527880	0.674700
C641	C64	0.220300	0.580340	0.802500
H321	H32	0.229100	0.569000	0.926000
