data_ELELEN_clean_PM
_symmetry_space_group_name_H-M	'P1'
_cell_length_a	12.481000
_cell_length_b	12.862000
_cell_length_c	13.332000
_cell_angle_alpha	100.001000
_cell_angle_beta	105.253000
_cell_angle_gamma	111.736000
_symmetry_Int_Tables_number 1

loop_
_symmetry_equiv_pos_as_xyz
'x,y,z'

loop_
_atom_site_label
_atom_site_type_symbol
_atom_site_fract_x
_atom_site_fract_y
_atom_site_fract_z
Cu11	Cu1	0.500000	0.500000	0.000000
Cu21	Cu2	0.000000	0.000000	0.500000
H11	H1	0.552300	0.044600	0.136700
H21	H2	0.522200	0.076400	0.240800
H31	H3	0.359700	0.905800	0.044500
H41	H4	0.327300	0.909200	0.150700
H51	H5	0.332800	0.329600	0.105700
H61	H6	0.545800	0.881400	0.166700
H71	H7	0.515200	0.912700	0.270700
H81	H8	0.956400	0.142100	0.328700
H91	H9	0.020700	0.613800	0.555900
H101	H10	0.112200	0.588900	0.505500
H111	H11	0.276500	0.693600	0.696900
H121	H12	0.181000	0.705800	0.749100
H131	H13	0.304400	0.268900	0.804100
H141	H14	0.709200	0.912500	0.399700
H151	H15	0.386400	0.096800	0.067400
H161	H16	0.343500	0.092300	0.167400
H171	H17	0.029700	0.688800	0.061100
H181	H18	0.925000	0.607200	0.094800
H191	H19	0.331700	0.623000	0.055300
H201	H20	0.072100	0.057100	0.975100
H211	H21	0.166900	0.129400	0.093700
H221	H22	0.122700	0.557300	0.074900
H231	H23	0.011200	0.474000	0.099700
H241	H24	0.081400	0.036500	0.294000
H251	H25	0.008200	0.759900	0.389800
H261	H26	0.193700	0.962400	0.949500
H271	H27	0.149000	0.939600	0.046400
H281	H28	0.384700	0.559000	0.783500
H291	H29	0.056300	0.503700	0.676600
H301	H30	0.153400	0.487500	0.629100
H311	H31	0.074600	0.640600	0.262100
H321	H32	0.176500	0.725700	0.228600
H331	H33	0.447700	0.955400	0.863300
H341	H34	0.477800	0.923600	0.759200
H351	H35	0.640300	0.094200	0.955500
H361	H36	0.672700	0.090800	0.849300
H371	H37	0.667200	0.670400	0.894300
H381	H38	0.454200	0.118600	0.833300
H391	H39	0.484800	0.087300	0.729300
H401	H40	0.043600	0.857900	0.671300
H411	H41	0.979300	0.386200	0.444100
H421	H42	0.887800	0.411100	0.494500
H431	H43	0.723500	0.306400	0.303100
H441	H44	0.819000	0.294200	0.250900
H451	H45	0.695600	0.731100	0.195900
H461	H46	0.290800	0.087500	0.600300
H471	H47	0.613600	0.903200	0.932600
H481	H48	0.656500	0.907700	0.832600
H491	H49	0.970300	0.311200	0.938900
H501	H50	0.075000	0.392800	0.905200
H511	H51	0.668300	0.377000	0.944700
H521	H52	0.927900	0.942900	0.024900
H531	H53	0.833100	0.870600	0.906300
H541	H54	0.877300	0.442700	0.925100
H551	H55	0.988800	0.526000	0.900300
H561	H56	0.918600	0.963500	0.706000
H571	H57	0.991800	0.240100	0.610200
H581	H58	0.806300	0.037600	0.050500
H591	H59	0.851000	0.060400	0.953600
H601	H60	0.615300	0.441000	0.216500
H611	H61	0.943700	0.496300	0.323400
H621	H62	0.846600	0.512500	0.370900
H631	H63	0.925400	0.359400	0.737900
H641	H64	0.823500	0.274300	0.771400
C11	C1	0.507400	0.011200	0.181400
C21	C2	0.374300	0.956800	0.114400
C31	C3	0.310300	0.293800	0.031700
C41	C4	0.560100	0.946300	0.226100
C51	C5	0.880100	0.091700	0.328300
C61	C6	0.052700	0.557400	0.539500
C71	C7	0.217300	0.654400	0.728600
C81	C8	0.293300	0.258100	0.868400
C91	C9	0.748400	0.967600	0.368600
C101	C10	0.333300	0.045400	0.097300
C111	C11	0.011400	0.634500	0.103300
C121	C12	0.327200	0.617400	0.983600
C131	C13	0.158900	0.092800	0.020400
C141	C14	0.035000	0.530300	0.060400
C151	C15	0.071900	0.962600	0.299000
C161	C16	0.031600	0.813800	0.352200
C171	C17	0.201700	0.999300	0.022800
C181	C18	0.356800	0.582400	0.837400
C191	C19	0.117200	0.540300	0.645400
C201	C20	0.090300	0.696600	0.221300
C211	C21	0.492600	0.988800	0.818600
C221	C22	0.625700	0.043200	0.885600
C231	C23	0.689700	0.706200	0.968300
C241	C24	0.439900	0.053700	0.773900
C251	C25	0.119900	0.908300	0.671700
C261	C26	0.947300	0.442600	0.460500
C271	C27	0.782700	0.345600	0.271400
C281	C28	0.706700	0.741900	0.131600
C291	C29	0.251600	0.032400	0.631400
C301	C30	0.666700	0.954600	0.902700
C311	C31	0.988600	0.365500	0.896700
C321	C32	0.672800	0.382600	0.016400
C331	C33	0.841100	0.907200	0.979600
C341	C34	0.965000	0.469700	0.939600
C351	C35	0.928100	0.037400	0.701000
C361	C36	0.968400	0.186200	0.647800
C371	C37	0.798300	0.000700	0.977200
C381	C38	0.643200	0.417600	0.162600
C391	C39	0.882800	0.459700	0.354600
C401	C40	0.909700	0.303400	0.778700
N11	N1	0.095800	0.891200	0.233100
N21	N2	0.218000	0.159800	0.872800
N31	N3	0.228700	0.184600	0.978200
N41	N4	0.692500	0.001500	0.293000
N51	N5	0.260800	0.654400	0.919500
N61	N6	0.388300	0.570600	0.937100
N71	N7	0.868700	0.023200	0.394200
N81	N8	0.068400	0.796100	0.269900
N91	N9	0.776700	0.082000	0.264300
N101	N10	0.355300	0.344700	0.965400
N111	N11	0.280800	0.631500	0.826100
N121	N12	0.032100	0.917300	0.374400
N131	N13	0.904200	0.108800	0.766900
N141	N14	0.782000	0.840200	0.127200
N151	N15	0.771300	0.815400	0.021800
N161	N16	0.307500	0.998500	0.707000
N171	N17	0.739200	0.345600	0.080500
N181	N18	0.611700	0.429400	0.062900
N191	N19	0.131300	0.976800	0.605800
N201	N20	0.931600	0.203900	0.730100
N211	N21	0.223300	0.918000	0.735700
N221	N22	0.644700	0.655300	0.034600
N231	N23	0.719200	0.368500	0.173900
N241	N24	0.967900	0.082700	0.625600
