data_ELERIX01_clean_PM
_symmetry_space_group_name_H-M	'P1'
_cell_length_a	7.120900
_cell_length_b	18.302300
_cell_length_c	24.983300
_cell_angle_alpha	90.000000
_cell_angle_beta	90.000000
_cell_angle_gamma	99.606000
_symmetry_Int_Tables_number 1

loop_
_symmetry_equiv_pos_as_xyz
'x,y,z'

loop_
_atom_site_label
_atom_site_type_symbol
_atom_site_fract_x
_atom_site_fract_y
_atom_site_fract_z
La11	La1	0.277680	0.483560	0.401060
La21	La2	0.722320	0.516440	0.901060
La31	La3	0.722320	0.516440	0.598940
La41	La4	0.277680	0.483560	0.098940
Cu11	Cu1	0.878000	0.044120	0.507580
Cu21	Cu2	0.326500	0.060860	0.580080
Cu31	Cu3	0.247900	0.946310	0.682980
Cu41	Cu4	0.122000	0.955880	0.007580
Cu51	Cu5	0.673500	0.939140	0.080080
Cu61	Cu6	0.752100	0.053690	0.182980
Cu71	Cu7	0.122000	0.955880	0.492420
Cu81	Cu8	0.673500	0.939140	0.419920
Cu91	Cu9	0.752100	0.053690	0.317020
Cu101	Cu10	0.878000	0.044120	0.992420
Cu111	Cu11	0.326500	0.060860	0.919920
Cu121	Cu12	0.247900	0.946310	0.817020
Cu131	Cu13	0.268200	0.065310	0.750000
Cu141	Cu14	0.731800	0.934690	0.250000
H11	H1	0.883200	0.436300	0.459400
H21	H2	0.884000	0.441800	0.397500
H31	H3	0.087600	0.858300	0.395700
H41	H4	0.110600	0.739200	0.372700
H51	H5	0.197700	0.696500	0.527100
H61	H6	0.171800	0.817800	0.545600
H71	H7	0.308300	0.160800	0.485800
H81	H8	0.300800	0.280300	0.465700
H91	H9	0.399000	0.331000	0.620600
H101	H10	0.392600	0.206400	0.636300
H111	H11	0.602000	0.893700	0.655200
H121	H12	0.722100	0.789200	0.638100
H131	H13	0.202500	0.674500	0.658800
H141	H14	0.094800	0.782800	0.673900
H151	H15	0.116800	0.563700	0.959400
H161	H16	0.116000	0.558200	0.897500
H171	H17	0.912400	0.141700	0.895700
H181	H18	0.889400	0.260800	0.872700
H191	H19	0.802300	0.303500	0.027100
H201	H20	0.828200	0.182200	0.045600
H211	H21	0.691700	0.839200	0.985800
H221	H22	0.699200	0.719700	0.965700
H231	H23	0.601000	0.669000	0.120600
H241	H24	0.607400	0.793600	0.136300
H251	H25	0.398000	0.106300	0.155200
H261	H26	0.277900	0.210800	0.138100
H271	H27	0.797500	0.325500	0.158800
H281	H28	0.905200	0.217200	0.173900
H291	H29	0.116800	0.563700	0.540600
H301	H30	0.116000	0.558200	0.602500
H311	H31	0.912400	0.141700	0.604300
H321	H32	0.889400	0.260800	0.627300
H331	H33	0.802300	0.303500	0.472900
H341	H34	0.828200	0.182200	0.454400
H351	H35	0.691700	0.839200	0.514200
H361	H36	0.699200	0.719700	0.534300
H371	H37	0.601000	0.669000	0.379400
H381	H38	0.607400	0.793600	0.363700
H391	H39	0.398000	0.106300	0.344800
H401	H40	0.277900	0.210800	0.361900
H411	H41	0.797500	0.325500	0.341200
H421	H42	0.905200	0.217200	0.326100
H431	H43	0.883200	0.436300	0.040600
H441	H44	0.884000	0.441800	0.102500
H451	H45	0.087600	0.858300	0.104300
H461	H46	0.110600	0.739200	0.127300
H471	H47	0.197700	0.696500	0.972900
H481	H48	0.171800	0.817800	0.954400
H491	H49	0.308300	0.160800	0.014200
H501	H50	0.300800	0.280300	0.034300
H511	H51	0.399000	0.331000	0.879400
H521	H52	0.392600	0.206400	0.863700
H531	H53	0.602000	0.893700	0.844800
H541	H54	0.722100	0.789200	0.861900
H551	H55	0.202500	0.674500	0.841200
H561	H56	0.094800	0.782800	0.826100
H571	H57	0.381400	0.230300	0.750000
H581	H58	0.245000	0.336700	0.750000
H591	H59	0.730700	0.207900	0.750000
H601	H60	0.884700	0.107600	0.750000
H611	H61	0.618600	0.769700	0.250000
H621	H62	0.755000	0.663300	0.250000
H631	H63	0.269300	0.792100	0.250000
H641	H64	0.115300	0.892400	0.250000
C11	C1	0.109800	0.825500	0.422500
C21	C2	0.122800	0.753800	0.408400
C31	C3	0.154100	0.703500	0.447400
C41	C4	0.174400	0.728200	0.499700
C51	C5	0.159200	0.801500	0.510300
C61	C6	0.171100	0.624800	0.433400
C71	C7	0.323800	0.195300	0.513500
C81	C8	0.321900	0.267100	0.500800
C91	C9	0.351400	0.320900	0.540400
C101	C10	0.378600	0.297200	0.592500
C111	C11	0.374600	0.221800	0.601500
C121	C12	0.354600	0.401600	0.528600
C131	C13	0.519700	0.848500	0.655900
C141	C14	0.593700	0.785900	0.646400
C151	C15	0.478900	0.717800	0.649200
C161	C16	0.288000	0.718800	0.658400
C171	C17	0.224000	0.784300	0.667100
C181	C18	0.553300	0.647000	0.637800
C191	C19	0.890200	0.174500	0.922500
C201	C20	0.877200	0.246200	0.908400
C211	C21	0.845900	0.296500	0.947400
C221	C22	0.825600	0.271800	0.999700
C231	C23	0.840800	0.198500	0.010300
C241	C24	0.828900	0.375200	0.933400
C251	C25	0.676200	0.804700	0.013500
C261	C26	0.678100	0.732900	0.000800
C271	C27	0.648600	0.679100	0.040400
C281	C28	0.621400	0.702800	0.092500
C291	C29	0.625400	0.778200	0.101500
C301	C30	0.645400	0.598400	0.028600
C311	C31	0.480300	0.151500	0.155900
C321	C32	0.406300	0.214100	0.146400
C331	C33	0.521100	0.282200	0.149200
C341	C34	0.712000	0.281200	0.158400
C351	C35	0.776000	0.215700	0.167100
C361	C36	0.446700	0.353000	0.137800
C371	C37	0.890200	0.174500	0.577500
C381	C38	0.877200	0.246200	0.591600
C391	C39	0.845900	0.296500	0.552600
C401	C40	0.825600	0.271800	0.500300
C411	C41	0.840800	0.198500	0.489700
C421	C42	0.828900	0.375200	0.566600
C431	C43	0.676200	0.804700	0.486500
C441	C44	0.678100	0.732900	0.499200
C451	C45	0.648600	0.679100	0.459600
C461	C46	0.621400	0.702800	0.407500
C471	C47	0.625400	0.778200	0.398500
C481	C48	0.645400	0.598400	0.471400
C491	C49	0.480300	0.151500	0.344100
C501	C50	0.406300	0.214100	0.353600
C511	C51	0.521100	0.282200	0.350800
C521	C52	0.712000	0.281200	0.341600
C531	C53	0.776000	0.215700	0.332900
C541	C54	0.446700	0.353000	0.362200
C551	C55	0.109800	0.825500	0.077500
C561	C56	0.122800	0.753800	0.091600
C571	C57	0.154100	0.703500	0.052600
C581	C58	0.174400	0.728200	0.000300
C591	C59	0.159200	0.801500	0.989700
C601	C60	0.171100	0.624800	0.066600
C611	C61	0.323800	0.195300	0.986500
C621	C62	0.321900	0.267100	0.999200
C631	C63	0.351400	0.320900	0.959600
C641	C64	0.378600	0.297200	0.907500
C651	C65	0.374600	0.221800	0.898500
C661	C66	0.354600	0.401600	0.971400
C671	C67	0.519700	0.848500	0.844100
C681	C68	0.593700	0.785900	0.853600
C691	C69	0.478900	0.717800	0.850800
C701	C70	0.288000	0.718800	0.841600
C711	C71	0.224000	0.784300	0.832900
C721	C72	0.553300	0.647000	0.862200
C731	C73	0.249000	0.225800	0.750000
C741	C74	0.167000	0.290400	0.750000
C751	C75	0.970000	0.285400	0.750000
C761	C76	0.863000	0.214700	0.750000
C771	C77	0.958000	0.154600	0.750000
C781	C78	0.870000	0.354000	0.750000
C791	C79	0.751000	0.774200	0.250000
C801	C80	0.833000	0.709600	0.250000
C811	C81	0.030000	0.714600	0.250000
C821	C82	0.137000	0.785300	0.250000
C831	C83	0.042000	0.845400	0.250000
C841	C84	0.130000	0.646000	0.250000
I11	I1	0.990620	0.970500	0.589170
I21	I2	0.517000	0.056850	0.670210
I31	I3	0.009380	0.029500	0.089170
I41	I4	0.483000	0.943150	0.170210
I51	I5	0.009380	0.029500	0.410830
I61	I6	0.483000	0.943150	0.329790
I71	I7	0.990620	0.970500	0.910830
I81	I8	0.517000	0.056850	0.829790
I91	I9	0.974380	0.941370	0.750000
I101	I10	0.025620	0.058630	0.250000
I111	I11	0.500000	0.000000	0.500000
I121	I12	0.500000	0.000000	0.000000
N11	N1	0.127700	0.849900	0.472800
N21	N2	0.346600	0.170200	0.563300
N31	N3	0.335600	0.849000	0.666300
N41	N4	0.872300	0.150100	0.972800
N51	N5	0.653400	0.829800	0.063300
N61	N6	0.664400	0.151000	0.166300
N71	N7	0.872300	0.150100	0.527200
N81	N8	0.653400	0.829800	0.436700
N91	N9	0.664400	0.151000	0.333700
N101	N10	0.127700	0.849900	0.027200
N111	N11	0.346600	0.170200	0.936700
N121	N12	0.335600	0.849000	0.833700
N131	N13	0.145600	0.158800	0.750000
N141	N14	0.854400	0.841200	0.250000
O11	O1	0.164800	0.607400	0.384800
O21	O2	0.200000	0.580800	0.470000
O31	O3	0.290600	0.416600	0.483400
O41	O4	0.418700	0.448800	0.564200
O51	O5	0.732400	0.651000	0.636100
O61	O6	0.439300	0.587500	0.630700
O71	O7	0.933500	0.441300	0.428500
O81	O8	0.835200	0.392600	0.884800
O91	O9	0.800000	0.419200	0.970000
O101	O10	0.709400	0.583400	0.983400
O111	O11	0.581300	0.551200	0.064200
O121	O12	0.267600	0.349000	0.136100
O131	O13	0.560700	0.412500	0.130700
O141	O14	0.066500	0.558700	0.928500
O151	O15	0.835200	0.392600	0.615200
O161	O16	0.800000	0.419200	0.530000
O171	O17	0.709400	0.583400	0.516600
O181	O18	0.581300	0.551200	0.435800
O191	O19	0.267600	0.349000	0.363900
O201	O20	0.560700	0.412500	0.369300
O211	O21	0.066500	0.558700	0.571500
O221	O22	0.164800	0.607400	0.115200
O231	O23	0.200000	0.580800	0.030000
O241	O24	0.290600	0.416600	0.016600
O251	O25	0.418700	0.448800	0.935800
O261	O26	0.732400	0.651000	0.863900
O271	O27	0.439300	0.587500	0.869300
O281	O28	0.933500	0.441300	0.071500
O291	O29	0.975900	0.415600	0.750000
O301	O30	0.692900	0.342200	0.750000
O311	O31	0.024100	0.584400	0.250000
O321	O32	0.307100	0.657800	0.250000
