data_ELIJOZ_clean_PM
_symmetry_space_group_name_H-M	'P1'
_cell_length_a	9.423000
_cell_length_b	9.947000
_cell_length_c	11.419000
_cell_angle_alpha	93.633000
_cell_angle_beta	98.092000
_cell_angle_gamma	110.649000
_symmetry_Int_Tables_number 1

loop_
_symmetry_equiv_pos_as_xyz
'x,y,z'

loop_
_atom_site_label
_atom_site_type_symbol
_atom_site_fract_x
_atom_site_fract_y
_atom_site_fract_z
Ce11	Ce1	0.284190	0.045920	0.984790
Ce21	Ce2	0.715810	0.954080	0.015210
H11	H1	0.683200	0.506500	0.963200
H21	H2	0.081000	0.635700	0.836300
H31	H3	0.803000	0.215100	0.781100
H41	H4	0.826600	0.402600	0.569600
H51	H5	0.736100	0.278500	0.382400
H61	H6	0.060900	0.104500	0.427000
H71	H7	0.152200	0.227400	0.616400
H81	H8	0.316800	0.493500	0.036800
H91	H9	0.919000	0.364300	0.163700
H101	H10	0.197000	0.784900	0.218900
H111	H11	0.173400	0.597400	0.430400
H121	H12	0.263900	0.721500	0.617600
H131	H13	0.939100	0.895500	0.573000
H141	H14	0.847800	0.772600	0.383600
C11	C1	0.579300	0.226000	0.896400
C21	C2	0.721800	0.342700	0.875400
C31	C3	0.753200	0.484700	0.923100
C41	C4	0.888200	0.592600	0.910800
C51	C5	0.989900	0.563000	0.844800
C61	C6	0.951600	0.422400	0.792500
C71	C7	0.822100	0.310200	0.811100
C81	C8	0.925300	0.744300	0.968300
C91	C9	0.872000	0.340800	0.541300
C101	C10	0.818700	0.266700	0.429500
C111	C11	0.884200	0.174200	0.384100
C121	C12	0.012300	0.162900	0.456300
C131	C13	0.067500	0.236300	0.569700
C141	C14	0.995700	0.322600	0.612700
C151	C15	0.824600	0.090200	0.265600
C161	C16	0.420700	0.774000	0.103600
C171	C17	0.278200	0.657300	0.124600
C181	C18	0.246800	0.515300	0.076900
C191	C19	0.111800	0.407400	0.089200
C201	C20	0.010100	0.437000	0.155200
C211	C21	0.048400	0.577600	0.207500
C221	C22	0.177900	0.689800	0.188900
C231	C23	0.074700	0.255700	0.031700
C241	C24	0.128000	0.659200	0.458700
C251	C25	0.181300	0.733300	0.570500
C261	C26	0.115800	0.825800	0.615900
C271	C27	0.987700	0.837100	0.543700
C281	C28	0.932500	0.763700	0.430300
C291	C29	0.004300	0.677400	0.387300
C301	C30	0.175400	0.909800	0.734400
O11	O1	0.456200	0.251100	0.887400
O21	O2	0.584800	0.107500	0.924900
O31	O3	0.822300	0.769000	0.013500
O41	O4	0.055500	0.836200	0.968300
O51	O5	0.714000	0.110300	0.199700
O61	O6	0.879200	0.000000	0.228400
O71	O7	0.054500	0.395000	0.726400
O81	O8	0.543800	0.748900	0.112600
O91	O9	0.415200	0.892500	0.075100
O101	O10	0.177700	0.231000	0.986500
O111	O11	0.944500	0.163800	0.031700
O121	O12	0.286000	0.889700	0.800300
O131	O13	0.120800	0.000000	0.771600
O141	O14	0.945500	0.605000	0.273600
