data_ELIJUF_clean_PM
_symmetry_space_group_name_H-M	'P1'
_cell_length_a	9.353000
_cell_length_b	9.797000
_cell_length_c	11.388000
_cell_angle_alpha	94.340000
_cell_angle_beta	99.407000
_cell_angle_gamma	111.455000
_symmetry_Int_Tables_number 1

loop_
_symmetry_equiv_pos_as_xyz
'x,y,z'

loop_
_atom_site_label
_atom_site_type_symbol
_atom_site_fract_x
_atom_site_fract_y
_atom_site_fract_z
Y11	Y1	0.276540	0.545100	0.488550
Y21	Y2	0.723460	0.454900	0.511450
H11	H1	0.273800	0.233100	0.121000
H21	H2	0.176600	0.101800	0.936200
H31	H3	0.845100	0.269900	0.884500
H41	H4	0.936800	0.397100	0.078100
H51	H5	0.199700	0.292400	0.722800
H61	H6	0.322100	0.002500	0.540100
H71	H7	0.920500	0.859500	0.660900
H81	H8	0.726200	0.766900	0.879000
H91	H9	0.823400	0.898200	0.063800
H101	H10	0.154900	0.730100	0.115500
H111	H11	0.063200	0.602900	0.921900
H121	H12	0.800300	0.707600	0.277200
H131	H13	0.677900	0.997500	0.459900
H141	H14	0.079500	0.140500	0.339100
C11	C1	0.175100	0.412700	0.245200
C21	C2	0.115900	0.327700	0.123400
C31	C3	0.185700	0.239600	0.074500
C41	C4	0.131000	0.164600	0.963800
C51	C5	0.005600	0.179500	0.888900
C61	C6	0.932000	0.263400	0.932900
C71	C7	0.986300	0.338800	0.049100
C81	C8	0.048000	0.077500	0.707600
C91	C9	0.180300	0.195600	0.691000
C101	C10	0.281100	0.165800	0.626700
C111	C11	0.250900	0.022500	0.579600
C121	C12	0.114100	0.906300	0.590400
C131	C13	0.012600	0.935600	0.654200
C141	C14	0.419500	0.291000	0.603100
C151	C15	0.081500	0.753300	0.533200
C161	C16	0.824900	0.587300	0.754800
C171	C17	0.884100	0.672300	0.876600
C181	C18	0.814300	0.760400	0.925500
C191	C19	0.869000	0.835400	0.036200
C201	C20	0.994400	0.820500	0.111100
C211	C21	0.068000	0.736600	0.067100
C221	C22	0.013700	0.661200	0.950900
C231	C23	0.952000	0.922500	0.292400
C241	C24	0.819700	0.804400	0.309000
C251	C25	0.718900	0.834200	0.373300
C261	C26	0.749100	0.977500	0.420400
C271	C27	0.885900	0.093700	0.409600
C281	C28	0.987400	0.064400	0.345800
C291	C29	0.580500	0.709000	0.396900
C301	C30	0.918500	0.246700	0.466800
O11	O1	0.122200	0.504500	0.282800
O21	O2	0.281500	0.389300	0.316900
O31	O3	0.546600	0.275100	0.605800
O41	O4	0.402300	0.407700	0.577800
O51	O5	0.189100	0.730700	0.491700
O61	O6	0.949600	0.655300	0.528500
O71	O7	0.945200	0.105000	0.772600
O81	O8	0.877800	0.495500	0.717200
O91	O9	0.718500	0.610700	0.683100
O101	O10	0.453400	0.724900	0.394200
O111	O11	0.597700	0.592300	0.422200
O121	O12	0.810900	0.269300	0.508300
O131	O13	0.050400	0.344700	0.471500
O141	O14	0.054800	0.895000	0.227400
