data_ELIYUU_clean_PM
_symmetry_space_group_name_H-M	'P1'
_cell_length_a	8.130000
_cell_length_b	22.358000
_cell_length_c	10.538000
_cell_angle_alpha	90.000000
_cell_angle_beta	112.357000
_cell_angle_gamma	90.000000
_symmetry_Int_Tables_number 1

loop_
_symmetry_equiv_pos_as_xyz
'x,y,z'

loop_
_atom_site_label
_atom_site_type_symbol
_atom_site_fract_x
_atom_site_fract_y
_atom_site_fract_z
Zn11	Zn1	0.842230	0.193930	0.413810
Zn21	Zn2	0.283530	0.031940	0.332210
Cl11	Cl1	0.303580	0.975350	0.156150
P11	P1	0.003500	0.147880	0.208620
P21	P2	0.696870	0.072160	0.466790
P31	P3	0.487560	0.229740	0.191980
O11	O1	0.100300	0.089900	0.249600
O21	O2	0.048200	0.181200	0.098900
O31	O3	0.029500	0.187580	0.332700
O41	O4	0.787200	0.017040	0.546700
O51	O5	0.790900	0.130180	0.531400
O61	O6	0.499300	0.076340	0.444100
O71	O7	0.310100	0.245800	0.204500
H11	H1	0.234900	0.220600	0.164100
O81	O8	0.635400	0.249190	0.325400
O91	O9	0.501600	0.255260	0.065500
N11	N1	0.690300	0.128990	0.238600
C11	C1	0.764600	0.134100	0.131100
H21	H2	0.706700	0.166700	0.069500
H31	H3	0.742100	0.097500	0.077900
C21	C2	0.718200	0.068700	0.301300
H41	H4	0.835600	0.054200	0.313200
H51	H5	0.630900	0.041100	0.241400
C31	C3	0.500600	0.148400	0.186500
H61	H6	0.439900	0.134600	0.093000
H71	H7	0.442000	0.130900	0.242500
Zn31	Zn3	0.657770	0.693930	0.086190
Zn41	Zn4	0.216470	0.531940	0.167790
Cl21	Cl2	0.196420	0.475350	0.343850
P41	P4	0.496500	0.647880	0.291380
P51	P5	0.803130	0.572160	0.033210
P61	P6	0.012440	0.729740	0.308020
O101	O10	0.399700	0.589900	0.250400
O111	O11	0.451800	0.681200	0.401100
O121	O12	0.470500	0.687580	0.167300
O131	O13	0.712800	0.517040	0.953300
O141	O14	0.709100	0.630180	0.968600
O151	O15	0.000700	0.576340	0.055900
O161	O16	0.189900	0.745800	0.295500
H81	H8	0.265100	0.720600	0.335900
O171	O17	0.864600	0.749190	0.174600
O181	O18	0.998400	0.755260	0.434500
N21	N2	0.809700	0.628990	0.261400
C41	C4	0.735400	0.634100	0.368900
H91	H9	0.793300	0.666700	0.430500
H101	H10	0.757900	0.597500	0.422100
C51	C5	0.781800	0.568700	0.198700
H111	H11	0.664400	0.554200	0.186800
H121	H12	0.869100	0.541100	0.258600
C61	C6	0.999400	0.648400	0.313500
H131	H13	0.060100	0.634600	0.407000
H141	H14	0.058000	0.630900	0.257500
Zn51	Zn5	0.157770	0.806070	0.586190
Zn61	Zn6	0.716470	0.968060	0.667790
Cl31	Cl3	0.696420	0.024650	0.843850
P71	P7	0.996500	0.852120	0.791380
P81	P8	0.303130	0.927840	0.533210
P91	P9	0.512440	0.770260	0.808020
O191	O19	0.899700	0.910100	0.750400
O201	O20	0.951800	0.818800	0.901100
O211	O21	0.970500	0.812420	0.667300
O221	O22	0.212800	0.982960	0.453300
O231	O23	0.209100	0.869820	0.468600
O241	O24	0.500700	0.923660	0.555900
O251	O25	0.689900	0.754200	0.795500
H151	H15	0.765100	0.779400	0.835900
O261	O26	0.364600	0.750810	0.674600
O271	O27	0.498400	0.744740	0.934500
N31	N3	0.309700	0.871010	0.761400
C71	C7	0.235400	0.865900	0.868900
H161	H16	0.293300	0.833300	0.930500
H171	H17	0.257900	0.902500	0.922100
C81	C8	0.281800	0.931300	0.698700
H181	H18	0.164400	0.945800	0.686800
H191	H19	0.369100	0.958900	0.758600
C91	C9	0.499400	0.851600	0.813500
H201	H20	0.560100	0.865400	0.907000
H211	H21	0.558000	0.869100	0.757500
Zn71	Zn7	0.342230	0.306070	0.913810
Zn81	Zn8	0.783530	0.468060	0.832210
Cl41	Cl4	0.803580	0.524650	0.656150
P101	P10	0.503500	0.352120	0.708620
P111	P11	0.196870	0.427840	0.966790
P121	P12	0.987560	0.270260	0.691980
O281	O28	0.600300	0.410100	0.749600
O291	O29	0.548200	0.318800	0.598900
O301	O30	0.529500	0.312420	0.832700
O311	O31	0.287200	0.482960	0.046700
O321	O32	0.290900	0.369820	0.031400
O331	O33	0.999300	0.423660	0.944100
O341	O34	0.810100	0.254200	0.704500
H221	H22	0.734900	0.279400	0.664100
O351	O35	0.135400	0.250810	0.825400
O361	O36	0.001600	0.244740	0.565500
N41	N4	0.190300	0.371010	0.738600
C101	C10	0.264600	0.365900	0.631100
H231	H23	0.206700	0.333300	0.569500
H241	H24	0.242100	0.402500	0.577900
C111	C11	0.218200	0.431300	0.801300
H251	H25	0.335600	0.445800	0.813200
H261	H26	0.130900	0.458900	0.741400
C121	C12	0.000600	0.351600	0.686500
H271	H27	0.939900	0.365400	0.593000
H281	H28	0.942000	0.369100	0.742500
