data_EMANAH_clean_PM
_symmetry_space_group_name_H-M	'P1'
_cell_length_a	8.566000
_cell_length_b	8.566000
_cell_length_c	37.811000
_cell_angle_alpha	90.000000
_cell_angle_beta	90.000000
_cell_angle_gamma	120.000000
_symmetry_Int_Tables_number 1

loop_
_symmetry_equiv_pos_as_xyz
'x,y,z'

loop_
_atom_site_label
_atom_site_type_symbol
_atom_site_fract_x
_atom_site_fract_y
_atom_site_fract_z
Cd11	Cd1	0.000000	0.000000	0.666670
Cd21	Cd2	0.000000	0.000000	0.333330
Cd31	Cd3	0.000000	0.000000	0.000000
In11	In1	0.500000	0.500000	0.778040
In21	In2	0.000000	0.500000	0.444710
In31	In3	0.500000	0.000000	0.111370
In41	In4	0.000000	0.500000	0.888630
In51	In5	0.500000	0.500000	0.221960
In61	In6	0.500000	0.000000	0.555290
C11	C1	0.278200	0.177500	0.725420
C21	C2	0.226100	0.321300	0.717100
C31	C3	0.899300	0.721800	0.392090
C41	C4	0.095200	0.773900	0.383770
C51	C5	0.822500	0.100700	0.058750
C61	C6	0.678700	0.904800	0.050430
C71	C7	0.721800	0.822500	0.725420
C81	C8	0.773900	0.678700	0.717100
C91	C9	0.100700	0.278200	0.392090
C101	C10	0.904800	0.226100	0.383770
C111	C11	0.177500	0.899300	0.058750
C121	C12	0.321300	0.095200	0.050430
C131	C13	0.100700	0.822500	0.941250
C141	C14	0.904800	0.678700	0.949570
C151	C15	0.177500	0.278200	0.274580
C161	C16	0.321300	0.226100	0.282900
C171	C17	0.721800	0.899300	0.607910
C181	C18	0.773900	0.095200	0.616230
C191	C19	0.899300	0.177500	0.941250
C201	C20	0.095200	0.321300	0.949570
C211	C21	0.822500	0.721800	0.274580
C221	C22	0.678700	0.773900	0.282900
C231	C23	0.278200	0.100700	0.607910
C241	C24	0.226100	0.904800	0.616230
C251	C25	0.704800	0.409600	0.833330
C261	C26	0.807200	0.614400	0.833330
C271	C27	0.704800	0.295200	0.500000
C281	C28	0.807200	0.192800	0.500000
C291	C29	0.590400	0.295200	0.166670
C301	C30	0.385600	0.192800	0.166670
C311	C31	0.295200	0.590400	0.833330
C321	C32	0.192800	0.385600	0.833330
C331	C33	0.295200	0.704800	0.500000
C341	C34	0.192800	0.807200	0.500000
C351	C35	0.409600	0.704800	0.166670
C361	C36	0.614400	0.807200	0.166670
O11	O1	0.578500	0.330400	0.811940
O21	O2	0.295100	0.460600	0.736150
O31	O3	0.120500	0.289700	0.692130
O41	O4	0.391600	0.214100	0.749590
O51	O5	0.756200	0.690100	0.811550
O61	O6	0.205200	0.035500	0.707310
O71	O7	0.751900	0.421500	0.478610
O81	O8	0.165500	0.704900	0.402820
O91	O9	0.169200	0.879500	0.358800
O101	O10	0.822500	0.608400	0.416260
O111	O11	0.933900	0.243800	0.478220
O121	O12	0.830300	0.794800	0.373980
O131	O13	0.669600	0.248100	0.145270
O141	O14	0.539400	0.834500	0.069480
O151	O15	0.710300	0.830800	0.025460
O161	O16	0.785900	0.177500	0.082920
O171	O17	0.309900	0.066100	0.144880
O181	O18	0.964500	0.169700	0.040640
O191	O19	0.421500	0.669600	0.811940
O201	O20	0.704900	0.539400	0.736150
O211	O21	0.879500	0.710300	0.692130
O221	O22	0.608400	0.785900	0.749590
O231	O23	0.243800	0.309900	0.811550
O241	O24	0.794800	0.964500	0.707310
O251	O25	0.248100	0.578500	0.478610
O261	O26	0.834500	0.295100	0.402820
O271	O27	0.830800	0.120500	0.358800
O281	O28	0.177500	0.391600	0.416260
O291	O29	0.066100	0.756200	0.478220
O301	O30	0.169700	0.205200	0.373980
O311	O31	0.330400	0.751900	0.145270
O321	O32	0.460600	0.165500	0.069480
O331	O33	0.289700	0.169200	0.025460
O341	O34	0.214100	0.822500	0.082920
O351	O35	0.690100	0.933900	0.144880
O361	O36	0.035500	0.830300	0.040640
O371	O37	0.248100	0.669600	0.854730
O381	O38	0.834500	0.539400	0.930520
O391	O39	0.830800	0.710300	0.974540
O401	O40	0.177500	0.785900	0.917080
O411	O41	0.066100	0.309900	0.855120
O421	O42	0.169700	0.964500	0.959360
O431	O43	0.330400	0.578500	0.188060
O441	O44	0.460600	0.295100	0.263850
O451	O45	0.289700	0.120500	0.307870
O461	O46	0.214100	0.391600	0.250410
O471	O47	0.690100	0.756200	0.188450
O481	O48	0.035500	0.205200	0.292690
O491	O49	0.421500	0.751900	0.521390
O501	O50	0.704900	0.165500	0.597180
O511	O51	0.879500	0.169200	0.641200
O521	O52	0.608400	0.822500	0.583740
O531	O53	0.243800	0.933900	0.521780
O541	O54	0.794800	0.830300	0.626020
O551	O55	0.751900	0.330400	0.854730
O561	O56	0.165500	0.460600	0.930520
O571	O57	0.169200	0.289700	0.974540
O581	O58	0.822500	0.214100	0.917080
O591	O59	0.933900	0.690100	0.855120
O601	O60	0.830300	0.035500	0.959360
O611	O61	0.669600	0.421500	0.188060
O621	O62	0.539400	0.704900	0.263850
O631	O63	0.710300	0.879500	0.307870
O641	O64	0.785900	0.608400	0.250410
O651	O65	0.309900	0.243800	0.188450
O661	O66	0.964500	0.794800	0.292690
O671	O67	0.578500	0.248100	0.521390
O681	O68	0.295100	0.834500	0.597180
O691	O69	0.120500	0.830800	0.641200
O701	O70	0.391600	0.177500	0.583740
O711	O71	0.756200	0.066100	0.521780
O721	O72	0.205200	0.169700	0.626020
