data_EMIGEN_charged_PM
_symmetry_space_group_name_H-M	'P1'
_cell_length_a	24.843800
_cell_length_b	24.843800
_cell_length_c	25.316100
_cell_angle_alpha	60.615300
_cell_angle_beta	60.615300
_cell_angle_gamma	90.000000
_symmetry_Int_Tables_number 1

loop_
_symmetry_equiv_pos_as_xyz
'x,y,z'

loop_
_atom_site_label
_atom_site_type_symbol
_atom_site_fract_x
_atom_site_fract_y
_atom_site_fract_z
In11	In1	0.568750	0.181970	0.928380
In21	In2	0.525220	0.865430	0.073520
In31	In3	0.537610	0.857360	0.218420
In41	In4	0.561380	0.025220	0.073880
In51	In5	0.502870	0.889650	0.928380
In61	In6	0.401260	0.061050	0.073520
In71	In7	0.243970	0.924220	0.218420
In81	In8	0.364740	0.900900	0.073880
In91	In9	0.639650	0.752870	0.428380
In101	In10	0.811050	0.651260	0.573520
In111	In11	0.674220	0.493970	0.718420
In121	In12	0.650900	0.614740	0.573880
In131	In13	0.931970	0.818750	0.428380
In141	In14	0.615430	0.775220	0.573520
In151	In15	0.607360	0.787610	0.718420
In161	In16	0.775220	0.811380	0.573880
In171	In17	0.542630	0.042630	0.914740
In181	In18	0.384350	0.884350	0.231300
In191	In19	0.792630	0.792630	0.414740
In201	In20	0.634350	0.634350	0.731300
H11	H1	0.701100	0.266700	0.845200
H21	H2	0.738600	0.388100	0.803800
H31	H3	0.556300	0.344900	0.785800
H41	H4	0.525700	0.281600	0.865800
H51	H5	0.468200	0.329000	0.877600
H61	H6	0.524300	0.397900	0.820200
H71	H7	0.512700	0.348600	0.898400
H81	H8	0.453700	0.888100	0.845200
H91	H9	0.457600	0.808100	0.803800
H101	H10	0.657900	0.869300	0.785800
H111	H11	0.608500	0.852600	0.865800
H121	H12	0.654200	0.793400	0.877600
H131	H13	0.655500	0.781900	0.820200
H141	H14	0.588900	0.753000	0.898400
H151	H15	0.638100	0.703700	0.345200
H161	H16	0.558100	0.707600	0.303800
H171	H17	0.619300	0.907900	0.285800
H181	H18	0.602600	0.858500	0.365800
H191	H19	0.543400	0.904200	0.377600
H201	H20	0.531900	0.905500	0.320200
H211	H21	0.503000	0.838900	0.398400
H221	H22	0.016700	0.951100	0.345200
H231	H23	0.138100	0.988600	0.303800
H241	H24	0.094900	0.806300	0.285800
H251	H25	0.031600	0.775700	0.365800
H261	H26	0.079000	0.718200	0.377600
H271	H27	0.147900	0.774300	0.320200
H281	H28	0.098600	0.762700	0.398400
C11	C1	0.613400	0.337200	0.822600
C21	C2	0.677400	0.297400	0.841200
C31	C3	0.703300	0.365000	0.810000
C41	C4	0.548000	0.329000	0.834000
C51	C5	0.512000	0.352000	0.858000
C61	C6	0.564000	0.840200	0.822600
C71	C7	0.481400	0.861400	0.841200
C81	C8	0.486700	0.825000	0.810000
C91	C9	0.618000	0.837000	0.834000
C101	C10	0.630000	0.790000	0.858000
C111	C11	0.590200	0.814000	0.322600
C121	C12	0.611400	0.731400	0.341200
C131	C13	0.575000	0.736700	0.310000
C141	C14	0.587000	0.868000	0.334000
C151	C15	0.540000	0.880000	0.358000
C161	C16	0.087200	0.863400	0.322600
C171	C17	0.047400	0.927400	0.341200
C181	C18	0.115000	0.953300	0.310000
C191	C19	0.079000	0.798000	0.334000
C201	C20	0.102000	0.762000	0.358000
S11	S1	0.457200	0.176400	0.996200
S21	S2	0.563800	0.809200	0.149000
S31	S3	0.405320	0.843720	0.152160
S41	S4	0.583690	0.985790	0.993220
S51	S5	0.598400	0.158100	0.837600
S61	S6	0.423300	0.828100	0.307000
S71	S7	0.600900	0.970000	0.149800
S81	S8	0.617300	0.140200	0.997600
S91	S9	0.546600	0.827400	0.996200
S101	S10	0.287200	0.041800	0.149000
S111	S11	0.442520	0.004120	0.152160
S121	S12	0.423090	0.020990	0.993220
S131	S13	0.564000	0.004300	0.837600
S141	S14	0.269700	0.864900	0.307000
S151	S15	0.249300	0.880200	0.149800
S161	S16	0.385100	0.862200	0.997600
S171	S17	0.577400	0.796600	0.496200
S181	S18	0.791800	0.537200	0.649000
S191	S19	0.754120	0.692520	0.652160
S201	S20	0.770990	0.673090	0.493220
S211	S21	0.754300	0.814000	0.337600
S221	S22	0.614900	0.519700	0.807000
S231	S23	0.630200	0.499300	0.649800
S241	S24	0.612200	0.635100	0.497600
S251	S25	0.926400	0.707200	0.496200
S261	S26	0.559200	0.813800	0.649000
S271	S27	0.593720	0.655320	0.652160
S281	S28	0.735790	0.833690	0.493220
S291	S29	0.908100	0.848400	0.337600
S301	S30	0.578100	0.673300	0.807000
S311	S31	0.720000	0.850900	0.649800
S321	S32	0.890200	0.867300	0.497600
N11	N1	0.619600	0.285000	0.862600
N21	N2	0.660100	0.387200	0.788000
N31	N3	0.517800	0.852400	0.862600
N41	N4	0.551900	0.824800	0.788000
N51	N5	0.602400	0.767800	0.362600
N61	N6	0.574800	0.801900	0.288000
N71	N7	0.035000	0.869600	0.362600
N81	N8	0.137200	0.910100	0.288000
In211	In21	0.818030	0.497130	0.071620
In221	In22	0.134570	0.598740	0.926480
In231	In23	0.142640	0.756030	0.781580
In241	In24	0.974780	0.635260	0.926120
In251	In25	0.110350	0.431250	0.071620
In261	In26	0.938950	0.474780	0.926480
In271	In27	0.075780	0.462390	0.781580
In281	In28	0.099100	0.438620	0.926120
In291	In29	0.247130	0.068030	0.571620
In301	In30	0.348740	0.384570	0.426480
In311	In31	0.506030	0.392640	0.281580
In321	In32	0.385260	0.224780	0.426120
In331	In33	0.181250	0.360350	0.571620
In341	In34	0.224780	0.188950	0.426480
In351	In35	0.212390	0.325780	0.281580
In361	In36	0.188620	0.349100	0.426120
In371	In37	0.957370	0.457370	0.085260
In381	In38	0.115650	0.615650	0.768700
In391	In39	0.207370	0.207370	0.585260
In401	In40	0.365650	0.365650	0.268700
H291	H29	0.733300	0.546300	0.154800
H301	H30	0.611900	0.542400	0.196200
H311	H31	0.655100	0.342100	0.214200
H321	H32	0.718400	0.391500	0.134200
H331	H33	0.671000	0.345800	0.122400
H341	H34	0.602100	0.344500	0.179800
H351	H35	0.651400	0.411100	0.101600
H361	H36	0.111900	0.298900	0.154800
H371	H37	0.191900	0.261400	0.196200
H381	H38	0.130700	0.443700	0.214200
H391	H39	0.147400	0.474300	0.134200
H401	H40	0.206600	0.531800	0.122400
H411	H41	0.218100	0.475700	0.179800
H421	H42	0.247000	0.487300	0.101600
H431	H43	0.296300	0.983300	0.654800
H441	H44	0.292400	0.861900	0.696200
H451	H45	0.092100	0.905100	0.714200
H461	H46	0.141500	0.968400	0.634200
H471	H47	0.095800	0.921000	0.622400
H481	H48	0.094500	0.852100	0.679800
H491	H49	0.161100	0.901400	0.601600
H501	H50	0.048900	0.361900	0.654800
H511	H51	0.011400	0.441900	0.696200
H521	H52	0.193700	0.380700	0.714200
H531	H53	0.224300	0.397400	0.634200
H541	H54	0.281800	0.456600	0.622400
H551	H55	0.225700	0.468100	0.679800
H561	H56	0.237300	0.497000	0.601600
C211	C21	0.662800	0.436000	0.177400
C221	C22	0.702600	0.518600	0.158800
C231	C23	0.635000	0.513300	0.190000
C241	C24	0.671000	0.382000	0.166000
C251	C25	0.648000	0.370000	0.142000
C261	C26	0.159800	0.386600	0.177400
C271	C27	0.138600	0.322600	0.158800
C281	C28	0.175000	0.296700	0.190000
C291	C29	0.163000	0.452000	0.166000
C301	C30	0.210000	0.488000	0.142000
C311	C31	0.186000	0.912800	0.677400
C321	C32	0.268600	0.952600	0.658800
C331	C33	0.263300	0.885000	0.690000
C341	C34	0.132000	0.921000	0.666000
C351	C35	0.120000	0.898000	0.642000
C361	C36	0.136600	0.409800	0.677400
C371	C37	0.072600	0.388600	0.658800
C381	C38	0.046700	0.425000	0.690000
C391	C39	0.202000	0.413000	0.666000
C401	C40	0.238000	0.460000	0.642000
S331	S33	0.823600	0.453400	0.003800
S341	S34	0.190800	0.712800	0.851000
S351	S35	0.156280	0.557480	0.847840
S361	S36	0.014210	0.576910	0.006780
S371	S37	0.841900	0.436000	0.162400
S381	S38	0.171900	0.730300	0.693000
S391	S39	0.030000	0.750700	0.850200
S401	S40	0.859800	0.614900	0.002400
S411	S41	0.172600	0.542800	0.003800
S421	S42	0.958200	0.436200	0.851000
S431	S43	0.995880	0.594680	0.847840
S441	S44	0.979010	0.416310	0.006780
S451	S45	0.995700	0.401600	0.162400
S461	S46	0.135100	0.576700	0.693000
S471	S47	0.119800	0.399100	0.850200
S481	S48	0.137800	0.382700	0.002400
S491	S49	0.203400	0.073600	0.503800
S501	S50	0.462800	0.440800	0.351000
S511	S51	0.307480	0.406280	0.347840
S521	S52	0.326910	0.264210	0.506780
S531	S53	0.186000	0.091900	0.662400
S541	S54	0.480300	0.421900	0.193000
S551	S55	0.500700	0.280000	0.350200
S561	S56	0.364900	0.109800	0.502400
S571	S57	0.292800	0.422600	0.503800
S581	S58	0.186200	0.208200	0.351000
S591	S59	0.344680	0.245880	0.347840
S601	S60	0.166310	0.229010	0.506780
S611	S61	0.151600	0.245700	0.662400
S621	S62	0.326700	0.385100	0.193000
S631	S63	0.149100	0.369800	0.350200
S641	S64	0.132700	0.387800	0.502400
N91	N9	0.715000	0.482200	0.137400
N101	N10	0.612800	0.448100	0.212000
N111	N11	0.147600	0.380400	0.137400
N121	N12	0.175200	0.339900	0.212000
N131	N13	0.232200	0.965000	0.637400
N141	N14	0.198100	0.862800	0.712000
N151	N15	0.130400	0.397600	0.637400
N161	N16	0.089900	0.425200	0.712000
