data_EMIYEF_clean_PM
_symmetry_space_group_name_H-M	'P1'
_cell_length_a	9.519300
_cell_length_b	10.953400
_cell_length_c	11.493500
_cell_angle_alpha	91.786000
_cell_angle_beta	113.800000
_cell_angle_gamma	105.469000
_symmetry_Int_Tables_number 1

loop_
_symmetry_equiv_pos_as_xyz
'x,y,z'

loop_
_atom_site_label
_atom_site_type_symbol
_atom_site_fract_x
_atom_site_fract_y
_atom_site_fract_z
Co11	Co1	0.000000	0.500000	0.500000
Mo11	Mo1	0.418890	0.621110	0.749830
Mo21	Mo2	0.511510	0.647340	0.063470
Mo31	Mo3	0.523940	0.928650	0.860020
Mo41	Mo4	0.581110	0.378890	0.250170
Mo51	Mo5	0.488490	0.352660	0.936530
Mo61	Mo6	0.476060	0.071350	0.139980
H11	H1	0.889800	0.570600	0.222000
H21	H2	0.250600	0.763200	0.540700
H31	H3	0.331400	0.919600	0.432100
H41	H4	0.187100	0.902300	0.211700
H51	H5	0.949700	0.582400	0.735000
H61	H6	0.798600	0.681200	0.394800
H71	H7	0.671100	0.808100	0.450100
H81	H8	0.680600	0.820600	0.655700
H91	H9	0.130600	0.768200	0.896200
H101	H10	0.198700	0.778500	0.039000
H111	H11	0.110200	0.429400	0.778000
H121	H12	0.749400	0.236800	0.459300
H131	H13	0.668600	0.080400	0.567900
H141	H14	0.812900	0.097700	0.788300
H151	H15	0.050300	0.417600	0.265000
H161	H16	0.201400	0.318800	0.605200
H171	H17	0.328900	0.191900	0.549900
H181	H18	0.319400	0.179400	0.344300
H191	H19	0.869400	0.231800	0.103800
H201	H20	0.801300	0.221500	0.961000
C11	C1	0.911500	0.715300	0.057000
C21	C2	0.020100	0.733200	0.194400
C31	C3	0.980100	0.641700	0.264800
C41	C4	0.192300	0.754200	0.452000
C51	C5	0.240900	0.849300	0.387100
C61	C6	0.155600	0.839900	0.256800
C71	C7	0.823600	0.700800	0.847700
C81	C8	0.817700	0.701800	0.717400
C91	C9	0.892600	0.628300	0.677100
C101	C10	0.804200	0.686500	0.477600
C111	C11	0.726500	0.762800	0.509800
C121	C12	0.732400	0.770600	0.631600
C131	C13	0.088500	0.284700	0.943000
C141	C14	0.979900	0.266800	0.805600
C151	C15	0.019900	0.358300	0.735200
C161	C16	0.807700	0.245800	0.548000
C171	C17	0.759100	0.150700	0.612900
C181	C18	0.844400	0.160100	0.743200
C191	C19	0.176400	0.299200	0.152300
C201	C20	0.182300	0.298200	0.282600
C211	C21	0.107400	0.371700	0.322900
C221	C22	0.195800	0.313500	0.522400
C231	C23	0.273500	0.237200	0.490200
C241	C24	0.267600	0.229400	0.368400
N11	N1	0.754400	0.682100	0.007000
N21	N2	0.699500	0.674000	0.875500
N31	N3	0.959800	0.727500	0.958600
N41	N4	0.116800	0.762600	0.965500
N51	N5	0.065200	0.650300	0.392000
N61	N6	0.886500	0.620500	0.558900
N71	N7	0.245600	0.317900	0.993000
N81	N8	0.300500	0.326000	0.124500
N91	N9	0.040200	0.272500	0.041400
N101	N10	0.883200	0.237400	0.034500
N111	N11	0.934800	0.349700	0.608000
N121	N12	0.113500	0.379500	0.441100
O11	O1	0.429800	0.510300	0.885500
O21	O2	0.476400	0.789700	0.720900
O31	O3	0.208100	0.580000	0.669400
O41	O4	0.466800	0.744100	0.928300
O51	O5	0.570200	0.489700	0.114500
O61	O6	0.523600	0.210300	0.279100
O71	O7	0.791900	0.420000	0.330600
O81	O8	0.533200	0.255900	0.071700
O91	O9	0.500000	0.000000	0.000000
