data_EMODOZ_clean_PM
_symmetry_space_group_name_H-M	'P1'
_cell_length_a	14.224100
_cell_length_b	13.491100
_cell_length_c	13.999800
_cell_angle_alpha	90.000000
_cell_angle_beta	90.169000
_cell_angle_gamma	90.000000
_symmetry_Int_Tables_number 1

loop_
_symmetry_equiv_pos_as_xyz
'x,y,z'

loop_
_atom_site_label
_atom_site_type_symbol
_atom_site_fract_x
_atom_site_fract_y
_atom_site_fract_z
Zn11	Zn1	0.977600	0.234900	0.125900
Zn21	Zn2	0.875000	0.632600	0.221400
P11	P1	0.972800	0.753100	0.392400
P21	P2	0.857200	0.114900	0.277200
O11	O1	0.920600	0.141600	0.360500
O21	O2	0.867200	0.190600	0.196900
O31	O3	0.933300	0.757800	0.493800
O41	O4	0.004700	0.370800	0.159700
O51	O5	0.053500	0.677200	0.388600
O61	O6	0.088100	0.498000	0.251100
O71	O7	0.892900	0.723300	0.327200
O81	O8	0.755100	0.114400	0.310700
O91	O9	0.116100	0.010700	0.256500
O101	O10	0.009500	0.855400	0.365900
Zn31	Zn3	0.477600	0.734900	0.125900
Zn41	Zn4	0.375000	0.132600	0.221400
P31	P3	0.472800	0.253100	0.392400
P41	P4	0.357200	0.614900	0.277200
O111	O11	0.420600	0.641600	0.360500
O121	O12	0.367200	0.690600	0.196900
O131	O13	0.433300	0.257800	0.493800
O141	O14	0.504700	0.870800	0.159700
O151	O15	0.553500	0.177200	0.388600
O161	O16	0.588100	0.998000	0.251100
O171	O17	0.392900	0.223300	0.327200
O181	O18	0.255100	0.614400	0.310700
O191	O19	0.616100	0.510700	0.256500
O201	O20	0.509500	0.355400	0.365900
Zn51	Zn5	0.022400	0.234900	0.374100
Zn61	Zn6	0.125000	0.632600	0.278600
P51	P5	0.027200	0.753100	0.107600
P61	P6	0.142800	0.114900	0.222800
O211	O21	0.079400	0.141600	0.139500
O221	O22	0.132800	0.190600	0.303100
O231	O23	0.066700	0.757800	0.006200
O241	O24	0.995300	0.370800	0.340300
O251	O25	0.946500	0.677200	0.111400
O261	O26	0.911900	0.498000	0.248900
O271	O27	0.107100	0.723300	0.172800
O281	O28	0.244900	0.114400	0.189300
O291	O29	0.883900	0.010700	0.243500
O301	O30	0.990500	0.855400	0.134100
Zn71	Zn7	0.522400	0.734900	0.374100
Zn81	Zn8	0.625000	0.132600	0.278600
P71	P7	0.527200	0.253100	0.107600
P81	P8	0.642800	0.614900	0.222800
O311	O31	0.579400	0.641600	0.139500
O321	O32	0.632800	0.690600	0.303100
O331	O33	0.566700	0.257800	0.006200
O341	O34	0.495300	0.870800	0.340300
O351	O35	0.446500	0.177200	0.111400
O361	O36	0.411900	0.998000	0.248900
O371	O37	0.607100	0.223300	0.172800
O381	O38	0.744900	0.614400	0.189300
O391	O39	0.383900	0.510700	0.243500
O401	O40	0.490500	0.355400	0.134100
Zn91	Zn9	0.022400	0.765100	0.874100
Zn101	Zn10	0.125000	0.367400	0.778600
P91	P9	0.027200	0.246900	0.607600
P101	P10	0.142800	0.885100	0.722800
O411	O41	0.079400	0.858400	0.639500
O421	O42	0.132800	0.809400	0.803100
O431	O43	0.066700	0.242200	0.506200
O441	O44	0.995300	0.629200	0.840300
O451	O45	0.946500	0.322800	0.611400
O461	O46	0.911900	0.502000	0.748900
O471	O47	0.107100	0.276700	0.672800
O481	O48	0.244900	0.885600	0.689300
O491	O49	0.883900	0.989300	0.743500
O501	O50	0.990500	0.144600	0.634100
Zn111	Zn11	0.522400	0.265100	0.874100
Zn121	Zn12	0.625000	0.867400	0.778600
P111	P11	0.527200	0.746900	0.607600
P121	P12	0.642800	0.385100	0.722800
O511	O51	0.579400	0.358400	0.639500
O521	O52	0.632800	0.309400	0.803100
O531	O53	0.566700	0.742200	0.506200
O541	O54	0.495300	0.129200	0.840300
O551	O55	0.446500	0.822800	0.611400
O561	O56	0.411900	0.002000	0.748900
O571	O57	0.607100	0.776700	0.672800
O581	O58	0.744900	0.385600	0.689300
O591	O59	0.383900	0.489300	0.743500
O601	O60	0.490500	0.644600	0.634100
Zn131	Zn13	0.977600	0.765100	0.625900
Zn141	Zn14	0.875000	0.367400	0.721400
P131	P13	0.972800	0.246900	0.892400
P141	P14	0.857200	0.885100	0.777200
O611	O61	0.920600	0.858400	0.860500
O621	O62	0.867200	0.809400	0.696900
O631	O63	0.933300	0.242200	0.993800
O641	O64	0.004700	0.629200	0.659700
O651	O65	0.053500	0.322800	0.888600
O661	O66	0.088100	0.502000	0.751100
O671	O67	0.892900	0.276700	0.827200
O681	O68	0.755100	0.885600	0.810700
O691	O69	0.116100	0.989300	0.756500
O701	O70	0.009500	0.144600	0.865900
Zn151	Zn15	0.477600	0.265100	0.625900
Zn161	Zn16	0.375000	0.867400	0.721400
P151	P15	0.472800	0.746900	0.892400
P161	P16	0.357200	0.385100	0.777200
O711	O71	0.420600	0.358400	0.860500
O721	O72	0.367200	0.309400	0.696900
O731	O73	0.433300	0.742200	0.993800
O741	O74	0.504700	0.129200	0.659700
O751	O75	0.553500	0.822800	0.888600
O761	O76	0.588100	0.002000	0.751100
O771	O77	0.392900	0.776700	0.827200
O781	O78	0.255100	0.385600	0.810700
O791	O79	0.616100	0.489300	0.756500
O801	O80	0.509500	0.644600	0.865900
Zn171	Zn17	0.000000	0.934700	0.250000
P171	P17	0.000000	0.433500	0.250000
Zn181	Zn18	0.500000	0.434700	0.250000
P181	P18	0.500000	0.933500	0.250000
Zn191	Zn19	0.000000	0.065300	0.750000
P191	P19	0.000000	0.566500	0.750000
Zn201	Zn20	0.500000	0.565300	0.750000
P201	P20	0.500000	0.066500	0.750000
