data_EMOSOP_clean_PM
_symmetry_space_group_name_H-M	'P1'
_cell_length_a	9.566700
_cell_length_b	16.408100
_cell_length_c	16.446900
_cell_angle_alpha	90.000000
_cell_angle_beta	90.000000
_cell_angle_gamma	90.000000
_symmetry_Int_Tables_number 1

loop_
_symmetry_equiv_pos_as_xyz
'x,y,z'

loop_
_atom_site_label
_atom_site_type_symbol
_atom_site_fract_x
_atom_site_fract_y
_atom_site_fract_z
Cd11	Cd1	0.025570	0.429640	0.120790
Cd21	Cd2	0.684430	0.749880	0.851050
Cd31	Cd3	0.474430	0.570360	0.620790
Cd41	Cd4	0.815570	0.250120	0.351050
Cd51	Cd5	0.974430	0.929640	0.379210
Cd61	Cd6	0.315570	0.249880	0.648950
Cd71	Cd7	0.525570	0.070360	0.879210
Cd81	Cd8	0.184430	0.750120	0.148950
H11	H1	0.474700	0.702300	0.093700
H21	H2	0.817300	0.369100	0.000600
H31	H3	0.434100	0.575800	0.053000
H41	H4	0.258500	0.695500	0.979200
H51	H5	0.294800	0.612700	0.936900
H61	H6	0.469200	0.689500	0.231900
H71	H7	0.380700	0.610200	0.219000
H81	H8	0.703700	0.416000	0.149300
H91	H9	0.497700	0.484000	0.173600
H101	H10	0.718100	0.690400	0.188700
H111	H11	0.917000	0.617700	0.166500
H121	H12	0.920100	0.248700	0.972000
H131	H13	0.824000	0.184700	0.078200
H141	H14	0.735700	0.264400	0.069900
H151	H15	0.067600	0.392400	0.929400
H161	H16	0.939800	0.349600	0.887500
H171	H17	0.989600	0.659900	0.878700
H181	H18	0.085600	0.537300	0.910900
H191	H19	0.709600	0.435000	0.882400
H201	H20	0.623700	0.562100	0.850500
H211	H21	0.025300	0.297700	0.593700
H221	H22	0.682700	0.630900	0.500600
H231	H23	0.065900	0.424200	0.553000
H241	H24	0.241500	0.304500	0.479200
H251	H25	0.205200	0.387300	0.436900
H261	H26	0.030800	0.310500	0.731900
H271	H27	0.119300	0.389800	0.719000
H281	H28	0.796300	0.584000	0.649300
H291	H29	0.002300	0.516000	0.673600
H301	H30	0.781900	0.309600	0.688700
H311	H31	0.583000	0.382300	0.666500
H321	H32	0.579900	0.751300	0.472000
H331	H33	0.676000	0.815300	0.578200
H341	H34	0.764300	0.735600	0.569900
H351	H35	0.432400	0.607600	0.429400
H361	H36	0.560200	0.650400	0.387500
H371	H37	0.510400	0.340100	0.378700
H381	H38	0.414400	0.462700	0.410900
H391	H39	0.790400	0.565000	0.382400
H401	H40	0.876300	0.437900	0.350500
H411	H41	0.525300	0.202300	0.406300
H421	H42	0.182700	0.869100	0.499400
H431	H43	0.565900	0.075800	0.447000
H441	H44	0.741500	0.195500	0.520800
H451	H45	0.705200	0.112700	0.563100
H461	H46	0.530800	0.189500	0.268100
H471	H47	0.619300	0.110200	0.281000
H481	H48	0.296300	0.916000	0.350700
H491	H49	0.502300	0.984000	0.326400
H501	H50	0.281900	0.190400	0.311300
H511	H51	0.083000	0.117700	0.333500
H521	H52	0.079900	0.748700	0.528000
H531	H53	0.176000	0.684700	0.421800
H541	H54	0.264300	0.764400	0.430100
H551	H55	0.932400	0.892400	0.570600
H561	H56	0.060200	0.849600	0.612500
H571	H57	0.010400	0.159900	0.621300
H581	H58	0.914400	0.037300	0.589100
H591	H59	0.290400	0.935000	0.617600
H601	H60	0.376300	0.062100	0.649500
H611	H61	0.974700	0.797700	0.906300
H621	H62	0.317300	0.130900	0.999400
H631	H63	0.934100	0.924200	0.947000
H641	H64	0.758500	0.804500	0.020800
H651	H65	0.794800	0.887300	0.063100
H661	H66	0.969200	0.810500	0.768100
H671	H67	0.880700	0.889800	0.781000
H681	H68	0.203700	0.084000	0.850700
H691	H69	0.997700	0.016000	0.826400
H701	H70	0.218100	0.809600	0.811300
H711	H71	0.417000	0.882300	0.833500
H721	H72	0.420100	0.251300	0.028000
H731	H73	0.324000	0.315300	0.921800
H741	H74	0.235700	0.235600	0.930100
H751	H75	0.567600	0.107600	0.070600
H761	H76	0.439800	0.150400	0.112500
H771	H77	0.489600	0.840100	0.121300
H781	H78	0.585600	0.962700	0.089100
H791	H79	0.209600	0.065000	0.117600
H801	H80	0.123700	0.937900	0.149500
C11	C1	0.223800	0.571700	0.085100
C21	C2	0.357500	0.615200	0.057200
C31	C3	0.330500	0.654300	0.973300
C41	C4	0.456100	0.692700	0.935100
C51	C5	0.450800	0.645200	0.194500
C61	C6	0.706400	0.472200	0.156600
C71	C7	0.581500	0.512600	0.171200
C81	C8	0.583500	0.596800	0.182300
C91	C9	0.712200	0.634400	0.180400
C101	C10	0.831700	0.590500	0.166400
C111	C11	0.082400	0.257800	0.053300
C121	C12	0.934000	0.277300	0.023700
C131	C13	0.827100	0.243400	0.084500
C141	C14	0.852300	0.262200	0.172900
C151	C15	0.966300	0.390000	0.927700
C161	C16	0.931700	0.614400	0.880600
C171	C17	0.990400	0.540600	0.900000
C181	C18	0.909200	0.471700	0.903300
C191	C19	0.768400	0.480100	0.883200
C201	C20	0.717700	0.557200	0.864200
C211	C21	0.276200	0.428300	0.585100
C221	C22	0.142500	0.384800	0.557200
C231	C23	0.169500	0.345700	0.473300
C241	C24	0.043900	0.307300	0.435100
C251	C25	0.049200	0.354800	0.694500
C261	C26	0.793600	0.527800	0.656600
C271	C27	0.918500	0.487400	0.671200
C281	C28	0.916500	0.403200	0.682300
C291	C29	0.787800	0.365600	0.680400
C301	C30	0.668300	0.409500	0.666400
C311	C31	0.417600	0.742200	0.553300
C321	C32	0.566000	0.722700	0.523700
C331	C33	0.672900	0.756600	0.584500
C341	C34	0.647700	0.737800	0.672900
C351	C35	0.533700	0.610000	0.427700
C361	C36	0.568300	0.385600	0.380600
C371	C37	0.509600	0.459400	0.400000
C381	C38	0.590800	0.528300	0.403300
C391	C39	0.731600	0.519900	0.383200
C401	C40	0.782300	0.442800	0.364200
C411	C41	0.776200	0.071700	0.414900
C421	C42	0.642500	0.115200	0.442800
C431	C43	0.669500	0.154300	0.526700
C441	C44	0.543900	0.192700	0.564900
C451	C45	0.549200	0.145200	0.305500
C461	C46	0.293600	0.972200	0.343400
C471	C47	0.418500	0.012600	0.328800
C481	C48	0.416500	0.096800	0.317700
C491	C49	0.287800	0.134400	0.319600
C501	C50	0.168300	0.090500	0.333600
C511	C51	0.917600	0.757800	0.446700
C521	C52	0.066000	0.777300	0.476300
C531	C53	0.172900	0.743400	0.415500
C541	C54	0.147700	0.762200	0.327100
C551	C55	0.033700	0.890000	0.572300
C561	C56	0.068300	0.114400	0.619400
C571	C57	0.009600	0.040600	0.600000
C581	C58	0.090800	0.971700	0.596700
C591	C59	0.231600	0.980100	0.616800
C601	C60	0.282300	0.057200	0.635800
C611	C61	0.723800	0.928300	0.914900
C621	C62	0.857500	0.884800	0.942800
C631	C63	0.830500	0.845700	0.026700
C641	C64	0.956100	0.807300	0.064900
C651	C65	0.950800	0.854800	0.805500
C661	C66	0.206400	0.027800	0.843400
C671	C67	0.081500	0.987400	0.828800
C681	C68	0.083500	0.903200	0.817700
C691	C69	0.212200	0.865600	0.819600
C701	C70	0.331700	0.909500	0.833600
C711	C71	0.582400	0.242200	0.946700
C721	C72	0.434000	0.222700	0.976300
C731	C73	0.327100	0.256600	0.915500
C741	C74	0.352300	0.237800	0.827100
C751	C75	0.466300	0.110000	0.072300
C761	C76	0.431700	0.885600	0.119400
C771	C77	0.490400	0.959400	0.100000
C781	C78	0.409200	0.028300	0.096700
C791	C79	0.268400	0.019900	0.116800
C801	C80	0.217700	0.942800	0.135800
N11	N1	0.394100	0.679400	0.117000
N21	N2	0.830500	0.509700	0.152400
N31	N3	0.912500	0.365300	0.008400
N41	N4	0.795600	0.624300	0.864400
N51	N5	0.105900	0.320600	0.617000
N61	N6	0.669500	0.490300	0.652400
N71	N7	0.587500	0.634700	0.508400
N81	N8	0.704400	0.375700	0.364400
N91	N9	0.605900	0.179400	0.383000
N101	N10	0.169500	0.009700	0.347600
N111	N11	0.087500	0.865300	0.491600
N121	N12	0.204400	0.124300	0.635600
N131	N13	0.894100	0.820600	0.883000
N141	N14	0.330500	0.990300	0.847600
N151	N15	0.412500	0.134700	0.991600
N161	N16	0.295600	0.875700	0.135600
O11	O1	0.133800	0.611530	0.123700
O21	O2	0.210100	0.496900	0.066900
O31	O3	0.460700	0.697330	0.857850
O41	O4	0.555100	0.719100	0.977810
O51	O5	0.156900	0.316360	0.079110
O61	O6	0.119000	0.184600	0.049300
O71	O7	0.900300	0.329830	0.194530
O81	O8	0.812900	0.207770	0.223310
O91	O9	0.366200	0.388470	0.623700
O101	O10	0.289900	0.503100	0.566900
O111	O11	0.039300	0.302670	0.357850
O121	O12	0.944900	0.280900	0.477810
O131	O13	0.343100	0.683640	0.579110
O141	O14	0.381000	0.815400	0.549300
O151	O15	0.599700	0.670170	0.694530
O161	O16	0.687100	0.792230	0.723310
O171	O17	0.866200	0.111530	0.376300
O181	O18	0.789900	0.996900	0.433100
O191	O19	0.539300	0.197330	0.642150
O201	O20	0.444900	0.219100	0.522190
O211	O21	0.843100	0.816360	0.420890
O221	O22	0.881000	0.684600	0.450700
O231	O23	0.099700	0.829830	0.305470
O241	O24	0.187100	0.707770	0.276690
O251	O25	0.633800	0.888470	0.876300
O261	O26	0.710100	0.003100	0.933100
O271	O27	0.960700	0.802670	0.142150
O281	O28	0.055100	0.780900	0.022190
O291	O29	0.656900	0.183640	0.920890
O301	O30	0.619000	0.315400	0.950700
O311	O31	0.400300	0.170170	0.805470
O321	O32	0.312900	0.292230	0.776690
