data_EMOSOO_clean_PM
_symmetry_space_group_name_H-M	'P1'
_cell_length_a	18.344000
_cell_length_b	13.303400
_cell_length_c	7.449700
_cell_angle_alpha	90.000000
_cell_angle_beta	90.000000
_cell_angle_gamma	90.000000
_symmetry_Int_Tables_number 1

loop_
_symmetry_equiv_pos_as_xyz
'x,y,z'

loop_
_atom_site_label
_atom_site_type_symbol
_atom_site_fract_x
_atom_site_fract_y
_atom_site_fract_z
Zn11	Zn1	0.056500	0.878300	0.060800
Zn21	Zn2	0.966100	0.128400	0.491100
P11	P1	0.085400	0.048100	0.751600
O11	O1	0.084700	0.995700	0.933100
O21	O2	0.009200	0.100100	0.729400
O31	O3	0.146100	0.124900	0.742100
O41	O4	0.095800	0.976800	0.592900
O51	O5	0.036400	0.344900	0.302300
O61	O6	0.356700	0.154600	0.703500
Zn31	Zn3	0.443500	0.121700	0.560800
Zn41	Zn4	0.533900	0.871600	0.991100
P21	P2	0.414600	0.951900	0.251600
O71	O7	0.415300	0.004300	0.433100
O81	O8	0.490800	0.899900	0.229400
O91	O9	0.353900	0.875100	0.242100
O101	O10	0.404200	0.023200	0.092900
O111	O11	0.463600	0.655100	0.802300
O121	O12	0.143300	0.845400	0.203500
Zn51	Zn5	0.943500	0.378300	0.939200
Zn61	Zn6	0.033900	0.628400	0.508900
P31	P3	0.914600	0.548100	0.248400
O131	O13	0.915300	0.495700	0.066900
O141	O14	0.990800	0.600100	0.270600
O151	O15	0.853900	0.624900	0.257900
O161	O16	0.904200	0.476800	0.407100
O171	O17	0.963600	0.844900	0.697700
O181	O18	0.643300	0.654600	0.296500
Zn71	Zn7	0.556500	0.621700	0.439200
Zn81	Zn8	0.466100	0.371600	0.008900
P41	P4	0.585400	0.451900	0.748400
O191	O19	0.584700	0.504300	0.566900
O201	O20	0.509200	0.399900	0.770600
O211	O21	0.646100	0.375100	0.757900
O221	O22	0.595800	0.523200	0.907100
O231	O23	0.536400	0.155100	0.197700
O241	O24	0.856700	0.345400	0.796500
Zn91	Zn9	0.943500	0.121700	0.939200
Zn101	Zn10	0.033900	0.871600	0.508900
P51	P5	0.914600	0.951900	0.248400
O251	O25	0.915300	0.004300	0.066900
O261	O26	0.990800	0.899900	0.270600
O271	O27	0.853900	0.875100	0.257900
O281	O28	0.904200	0.023200	0.407100
O291	O29	0.963600	0.655100	0.697700
O301	O30	0.643300	0.845400	0.296500
Zn111	Zn11	0.556500	0.878300	0.439200
Zn121	Zn12	0.466100	0.128400	0.008900
P61	P6	0.585400	0.048100	0.748400
O311	O31	0.584700	0.995700	0.566900
O321	O32	0.509200	0.100100	0.770600
O331	O33	0.646100	0.124900	0.757900
O341	O34	0.595800	0.976800	0.907100
O351	O35	0.536400	0.344900	0.197700
O361	O36	0.856700	0.154600	0.796500
Zn131	Zn13	0.056500	0.621700	0.060800
Zn141	Zn14	0.966100	0.371600	0.491100
P71	P7	0.085400	0.451900	0.751600
O371	O37	0.084700	0.504300	0.933100
O381	O38	0.009200	0.399900	0.729400
O391	O39	0.146100	0.375100	0.742100
O401	O40	0.095800	0.523200	0.592900
O411	O41	0.036400	0.155100	0.302300
O421	O42	0.356700	0.345400	0.703500
Zn151	Zn15	0.443500	0.378300	0.560800
Zn161	Zn16	0.533900	0.628400	0.991100
P81	P8	0.414600	0.548100	0.251600
O431	O43	0.415300	0.495700	0.433100
O441	O44	0.490800	0.600100	0.229400
O451	O45	0.353900	0.624900	0.242100
O461	O46	0.404200	0.476800	0.092900
O471	O47	0.463600	0.844900	0.802300
O481	O48	0.143300	0.654600	0.203500
Zn171	Zn17	0.166900	0.250000	0.859900
P91	P9	0.042600	0.250000	0.188000
P101	P10	0.345400	0.250000	0.815200
O491	O49	0.976800	0.250000	0.052100
O501	O50	0.113900	0.250000	0.088300
O511	O51	0.406600	0.250000	0.965300
O521	O52	0.271200	0.250000	0.904000
Zn181	Zn18	0.333100	0.750000	0.359900
P111	P11	0.457400	0.750000	0.688000
P121	P12	0.154600	0.750000	0.315200
O531	O53	0.523200	0.750000	0.552100
O541	O54	0.386100	0.750000	0.588300
O551	O55	0.093400	0.750000	0.465300
O561	O56	0.228800	0.750000	0.404000
Zn191	Zn19	0.833100	0.750000	0.140100
P131	P13	0.957400	0.750000	0.812000
P141	P14	0.654600	0.750000	0.184800
O571	O57	0.023200	0.750000	0.947900
O581	O58	0.886100	0.750000	0.911700
O591	O59	0.593400	0.750000	0.034700
O601	O60	0.728800	0.750000	0.096000
Zn201	Zn20	0.666900	0.250000	0.640100
P151	P15	0.542600	0.250000	0.312000
P161	P16	0.845400	0.250000	0.684800
O611	O61	0.476800	0.250000	0.447900
O621	O62	0.613900	0.250000	0.411700
O631	O63	0.906600	0.250000	0.534700
O641	O64	0.771200	0.250000	0.596000
