data_EMUYAM_clean_PM
_symmetry_space_group_name_H-M	'P1'
_cell_length_a	15.707000
_cell_length_b	15.707000
_cell_length_c	7.204000
_cell_angle_alpha	90.000000
_cell_angle_beta	90.000000
_cell_angle_gamma	120.000000
_symmetry_Int_Tables_number 1

loop_
_symmetry_equiv_pos_as_xyz
'x,y,z'

loop_
_atom_site_label
_atom_site_type_symbol
_atom_site_fract_x
_atom_site_fract_y
_atom_site_fract_z
Ag11	Ag1	0.528460	0.264320	0.999990
N11	N1	0.515000	0.403900	0.310700
N21	N2	0.404200	0.516200	0.311900
C11	C1	0.522100	0.352300	0.207100
C21	C2	0.353100	0.522900	0.204300
N31	N3	0.371400	0.373000	0.625800
C31	C3	0.365500	0.283300	0.662900
C41	C4	0.279000	0.205700	0.733000
C51	C5	0.198500	0.217800	0.767000
C61	C6	0.204500	0.307500	0.730000
C71	C7	0.290900	0.385100	0.659200
C81	C8	0.107000	0.247000	0.755000
N41	N4	0.018500	0.223000	0.778000
Ag21	Ag2	0.735680	0.264140	0.999990
N51	N5	0.596100	0.111100	0.310700
N61	N6	0.483800	0.888000	0.311900
C91	C9	0.647700	0.169800	0.207100
C101	C10	0.477100	0.830200	0.204300
N71	N7	0.627000	0.998400	0.625800
C111	C11	0.716700	0.082200	0.662900
C121	C12	0.794300	0.073300	0.733000
C131	C13	0.782200	0.980700	0.767000
C141	C14	0.692500	0.897000	0.730000
C151	C15	0.614900	0.905800	0.659200
C161	C16	0.753000	0.860000	0.755000
N81	N8	0.777000	0.795500	0.778000
Ag31	Ag3	0.735860	0.471540	0.999990
N91	N9	0.888900	0.485000	0.310700
N101	N10	0.112000	0.595800	0.311900
C171	C17	0.830200	0.477900	0.207100
C181	C18	0.169800	0.646900	0.204300
N111	N11	0.001600	0.628600	0.625800
C191	C19	0.917800	0.634500	0.662900
C201	C20	0.926700	0.721000	0.733000
C211	C21	0.019300	0.801500	0.767000
C221	C22	0.103000	0.795500	0.730000
C231	C23	0.094200	0.709100	0.659200
C241	C24	0.140000	0.893000	0.755000
N121	N12	0.204500	0.981500	0.778000
Ag41	Ag4	0.471540	0.735680	0.000010
N131	N13	0.485000	0.596100	0.689300
N141	N14	0.595800	0.483800	0.688100
C251	C25	0.477900	0.647700	0.792900
C261	C26	0.646900	0.477100	0.795700
N151	N15	0.628600	0.627000	0.374200
C271	C27	0.634500	0.716700	0.337100
C281	C28	0.721000	0.794300	0.267000
C291	C29	0.801500	0.782200	0.233000
C301	C30	0.795500	0.692500	0.270000
C311	C31	0.709100	0.614900	0.340800
C321	C32	0.893000	0.753000	0.245000
N161	N16	0.981500	0.777000	0.222000
Ag51	Ag5	0.264320	0.735860	0.000010
N171	N17	0.403900	0.888900	0.689300
N181	N18	0.516200	0.112000	0.688100
C331	C33	0.352300	0.830200	0.792900
C341	C34	0.522900	0.169800	0.795700
N191	N19	0.373000	0.001600	0.374200
C351	C35	0.283300	0.917800	0.337100
C361	C36	0.205700	0.926700	0.267000
C371	C37	0.217800	0.019300	0.233000
C381	C38	0.307500	0.103000	0.270000
C391	C39	0.385100	0.094200	0.340800
C401	C40	0.247000	0.140000	0.245000
N201	N20	0.223000	0.204500	0.222000
Ag61	Ag6	0.264140	0.528460	0.000010
N211	N21	0.111100	0.515000	0.689300
N221	N22	0.888000	0.404200	0.688100
C411	C41	0.169800	0.522100	0.792900
C421	C42	0.830200	0.353100	0.795700
N231	N23	0.998400	0.371400	0.374200
C431	C43	0.082200	0.365500	0.337100
C441	C44	0.073300	0.279000	0.267000
C451	C45	0.980700	0.198500	0.233000
C461	C46	0.897000	0.204500	0.270000
C471	C47	0.905800	0.290900	0.340800
C481	C48	0.860000	0.107000	0.245000
N241	N24	0.795500	0.018500	0.222000
Fe11	Fe1	0.500000	0.500000	0.500000
Fe21	Fe2	0.500000	0.000000	0.500000
Fe31	Fe3	0.000000	0.500000	0.500000
