data_ENERIY_clean_PM
_symmetry_space_group_name_H-M	'P1'
_cell_length_a	12.111900
_cell_length_b	12.555500
_cell_length_c	12.656500
_cell_angle_alpha	62.874000
_cell_angle_beta	70.151000
_cell_angle_gamma	84.075000
_symmetry_Int_Tables_number 1

loop_
_symmetry_equiv_pos_as_xyz
'x,y,z'

loop_
_atom_site_label
_atom_site_type_symbol
_atom_site_fract_x
_atom_site_fract_y
_atom_site_fract_z
Ag11	Ag1	0.919220	0.618640	0.355180
Ag21	Ag2	0.111560	0.457180	0.342910
Ag31	Ag3	0.105820	0.670720	0.433390
Na11	Na1	0.558570	0.668250	0.907870
Na21	Na2	0.459280	0.873230	0.655590
S11	S1	0.218040	0.660720	0.230600
S21	S2	0.826490	0.437810	0.382140
S31	S3	0.812000	0.705060	0.500160
N11	N1	0.031200	0.753100	0.157800
N21	N2	0.031500	0.412600	0.226000
N31	N3	0.010000	0.844400	0.401400
O11	O1	0.404400	0.809900	0.871600
O21	O2	0.400800	0.890000	0.997600
O31	O3	0.682600	0.247100	0.341800
O41	O4	0.668900	0.419600	0.183600
O51	O5	0.646000	0.948800	0.405400
O61	O6	0.652000	0.957400	0.574900
O71	O7	0.555400	0.685300	0.716900
O81	O8	0.372400	0.535100	0.039400
C11	C1	0.149900	0.758100	0.120400
C21	C2	0.218600	0.835700	0.996900
C31	C3	0.351600	0.845300	0.951900
C41	C4	0.161200	0.904600	0.911600
H11	H1	0.204500	0.953700	0.828300
C51	C5	0.039200	0.900000	0.950800
H21	H2	0.999600	0.946300	0.895100
C61	C6	0.978300	0.824700	0.074800
H31	H3	0.896600	0.823600	0.102200
C71	C7	0.913500	0.401800	0.261000
C81	C8	0.858700	0.365800	0.200600
C91	C9	0.726400	0.342000	0.247000
C101	C10	0.928200	0.346100	0.099400
H41	H4	0.893600	0.325900	0.055200
C111	C11	0.048900	0.356500	0.064800
H51	H5	0.096800	0.342000	0.998200
C121	C12	0.097000	0.388900	0.130900
H61	H6	0.178400	0.394600	0.108600
C131	C13	0.891700	0.842500	0.439700
C141	C14	0.832700	0.946600	0.430700
C151	C15	0.699800	0.949100	0.474300
C161	C16	0.898900	0.052500	0.382200
H71	H7	0.861600	0.122200	0.377800
C171	C17	0.019800	0.054200	0.340700
H81	H8	0.065100	0.125100	0.305700
C181	C18	0.072200	0.948600	0.352100
H91	H9	0.153800	0.949400	0.324700
Ag41	Ag4	0.080780	0.381360	0.644820
Ag51	Ag5	0.888440	0.542820	0.657090
Ag61	Ag6	0.894180	0.329280	0.566610
Na31	Na3	0.441430	0.331750	0.092130
Na41	Na4	0.540720	0.126770	0.344410
S41	S4	0.781960	0.339280	0.769400
S51	S5	0.173510	0.562190	0.617860
S61	S6	0.188000	0.294940	0.499840
N41	N4	0.968800	0.246900	0.842200
N51	N5	0.968500	0.587400	0.774000
N61	N6	0.990000	0.155600	0.598600
O91	O9	0.595600	0.190100	0.128400
O101	O10	0.599200	0.110000	0.002400
O111	O11	0.317400	0.752900	0.658200
O121	O12	0.331100	0.580400	0.816400
O131	O13	0.354000	0.051200	0.594600
O141	O14	0.348000	0.042600	0.425100
O151	O15	0.444600	0.314700	0.283100
O161	O16	0.627600	0.464900	0.960600
C191	C19	0.850100	0.241900	0.879600
C201	C20	0.781400	0.164300	0.003100
C211	C21	0.648400	0.154700	0.048100
C221	C22	0.838800	0.095400	0.088400
H101	H10	0.795500	0.046300	0.171700
C231	C23	0.960800	0.100000	0.049200
H111	H11	0.000400	0.053700	0.104900
C241	C24	0.021700	0.175300	0.925200
H121	H12	0.103400	0.176400	0.897800
C251	C25	0.086500	0.598200	0.739000
C261	C26	0.141300	0.634200	0.799400
C271	C27	0.273600	0.658000	0.753000
C281	C28	0.071800	0.653900	0.900600
H131	H13	0.106400	0.674100	0.944800
C291	C29	0.951100	0.643500	0.935200
H141	H14	0.903200	0.658000	0.001800
C301	C30	0.903000	0.611100	0.869100
H151	H15	0.821600	0.605400	0.891400
C311	C31	0.108300	0.157500	0.560300
C321	C32	0.167300	0.053400	0.569300
C331	C33	0.300200	0.050900	0.525700
C341	C34	0.101100	0.947500	0.617800
H161	H16	0.138400	0.877800	0.622200
C351	C35	0.980200	0.945800	0.659300
H171	H17	0.934900	0.874900	0.694300
C361	C36	0.927800	0.051400	0.647900
H181	H18	0.846200	0.050600	0.675300
