data_ENIHUG_clean_PM
_symmetry_space_group_name_H-M	'P1'
_cell_length_a	26.292800
_cell_length_b	26.292800
_cell_length_c	26.036000
_cell_angle_alpha	90.000000
_cell_angle_beta	90.000000
_cell_angle_gamma	120.000000
_symmetry_Int_Tables_number 1

loop_
_symmetry_equiv_pos_as_xyz
'x,y,z'

loop_
_atom_site_label
_atom_site_type_symbol
_atom_site_fract_x
_atom_site_fract_y
_atom_site_fract_z
O11	O1	0.441300	0.454390	0.610240
O21	O2	0.132300	0.161100	0.967810
O31	O3	0.158800	0.213060	0.895080
O41	O4	0.416000	0.479510	0.683160
C11	C1	0.173800	0.132300	0.902200
C21	C2	0.208200	0.149100	0.860300
H11	H1	0.218500	0.186000	0.845500
C31	C3	0.153200	0.172200	0.923300
C41	C4	0.359200	0.315300	0.741700
H21	H2	0.344400	0.307000	0.775800
C51	C5	0.421000	0.444300	0.654200
C61	C6	0.377600	0.370200	0.723600
H31	H3	0.373500	0.398100	0.743800
C71	C7	0.295500	0.193200	0.774000
H41	H4	0.279600	0.217400	0.783200
C81	C8	0.360200	0.271200	0.715600
C91	C9	0.406000	0.341700	0.648600
H51	H5	0.423700	0.351000	0.615600
C101	C10	0.401600	0.384100	0.676300
C111	C11	0.339100	0.212800	0.738700
C121	C12	0.385100	0.286700	0.668300
H61	H6	0.388100	0.258100	0.648200
O51	O5	0.107970	0.787720	0.943570
O61	O6	0.798970	0.494430	0.301140
O71	O7	0.825470	0.546390	0.228410
O81	O8	0.082670	0.812840	0.016490
C131	C13	0.840470	0.465630	0.235530
C141	C14	0.874870	0.482430	0.193630
H71	H7	0.885170	0.519330	0.178830
C151	C15	0.819870	0.505530	0.256630
C161	C16	0.025870	0.648630	0.075030
H81	H8	0.011070	0.640330	0.109130
C171	C17	0.087670	0.777630	0.987530
C181	C18	0.044270	0.703530	0.056930
H91	H9	0.040170	0.731430	0.077130
C191	C19	0.962170	0.526530	0.107330
H101	H10	0.946270	0.550730	0.116530
C201	C20	0.026870	0.604530	0.048930
C211	C21	0.072670	0.675030	0.981930
H111	H11	0.090370	0.684330	0.948930
C221	C22	0.068270	0.717430	0.009630
C231	C23	0.005770	0.546130	0.072030
C241	C24	0.051770	0.620030	0.001630
H121	H12	0.054770	0.591430	0.981530
O91	O9	0.774630	0.121060	0.276910
O101	O10	0.465630	0.827770	0.634480
O111	O11	0.492130	0.879730	0.561750
O121	O12	0.749330	0.146180	0.349830
C251	C25	0.507130	0.798970	0.568870
C261	C26	0.541530	0.815770	0.526970
H131	H13	0.551830	0.852670	0.512170
C271	C27	0.486530	0.838870	0.589970
C281	C28	0.692530	0.981970	0.408370
H141	H14	0.677730	0.973670	0.442470
C291	C29	0.754330	0.110970	0.320870
C301	C30	0.710930	0.036870	0.390270
H151	H15	0.706830	0.064770	0.410470
C311	C31	0.628830	0.859870	0.440670
H161	H16	0.612930	0.884070	0.449870
C321	C32	0.693530	0.937870	0.382270
C331	C33	0.739330	0.008370	0.315270
H171	H17	0.757030	0.017670	0.282270
C341	C34	0.734930	0.050770	0.342970
C351	C35	0.672430	0.879470	0.405370
C361	C36	0.718430	0.953370	0.334970
H181	H18	0.721430	0.924770	0.314870
O131	O13	0.545610	0.986910	0.610240
O141	O14	0.838900	0.971200	0.967810
O151	O15	0.786940	0.945740	0.895080
O161	O16	0.520490	0.936490	0.683160
C371	C37	0.867700	0.041500	0.902200
C381	C38	0.850900	0.059100	0.860300
H191	H19	0.814000	0.032500	0.845500
C391	C39	0.827800	0.981000	0.923300
C401	C40	0.684700	0.043900	0.741700
H201	H20	0.693000	0.037400	0.775800
C411	C41	0.555700	0.976700	0.654200
C421	C42	0.629800	0.007400	0.723600
H211	H21	0.601900	0.975400	0.743800
C431	C43	0.806800	0.102300	0.774000
H221	H22	0.782600	0.062200	0.783200
C441	C44	0.728800	0.089000	0.715600
C451	C45	0.658300	0.064300	0.648600
H231	H23	0.649000	0.072700	0.615600
C461	C46	0.615900	0.017500	0.676300
C471	C47	0.787200	0.126300	0.738700
C481	C48	0.713300	0.098400	0.668300
H241	H24	0.741900	0.130000	0.648200
O171	O17	0.212280	0.320240	0.943570
O181	O18	0.505570	0.304530	0.301140
O191	O19	0.453610	0.279070	0.228410
O201	O20	0.187160	0.269820	0.016490
C491	C49	0.534370	0.374830	0.235530
C501	C50	0.517570	0.392430	0.193630
H251	H25	0.480670	0.365830	0.178830
C511	C51	0.494470	0.314330	0.256630
C521	C52	0.351370	0.377230	0.075030
H261	H26	0.359670	0.370730	0.109130
C531	C53	0.222370	0.310030	0.987530
C541	C54	0.296470	0.340730	0.056930
H271	H27	0.268570	0.308730	0.077130
C551	C55	0.473470	0.435630	0.107330
H281	H28	0.449270	0.395530	0.116530
C561	C56	0.395470	0.422330	0.048930
C571	C57	0.324970	0.397630	0.981930
H291	H29	0.315670	0.406030	0.948930
C581	C58	0.282570	0.350830	0.009630
C591	C59	0.453870	0.459630	0.072030
C601	C60	0.379970	0.431730	0.001630
H301	H30	0.408570	0.463330	0.981530
O211	O21	0.878940	0.653580	0.276910
O221	O22	0.172230	0.637870	0.634480
O231	O23	0.120270	0.612410	0.561750
O241	O24	0.853820	0.603160	0.349830
C611	C61	0.201030	0.708170	0.568870
C621	C62	0.184230	0.725770	0.526970
H311	H31	0.147330	0.699170	0.512170
C631	C63	0.161130	0.647670	0.589970
C641	C64	0.018030	0.710570	0.408370
H321	H32	0.026330	0.704070	0.442470
C651	C65	0.889030	0.643370	0.320870
C661	C66	0.963130	0.674070	0.390270
H331	H33	0.935230	0.642070	0.410470
C671	C67	0.140130	0.768970	0.440670
H341	H34	0.115930	0.728870	0.449870
C681	C68	0.062130	0.755670	0.382270
C691	C69	0.991630	0.730970	0.315270
H351	H35	0.982330	0.739370	0.282270
C701	C70	0.949230	0.684170	0.342970
C711	C71	0.120530	0.792970	0.405370
C721	C72	0.046630	0.765070	0.334970
H361	H36	0.075230	0.796670	0.314870
O251	O25	0.013090	0.558700	0.610240
O261	O26	0.028800	0.867700	0.967810
O271	O27	0.054260	0.841200	0.895080
O281	O28	0.063510	0.584000	0.683160
C731	C73	0.958500	0.826200	0.902200
C741	C74	0.940900	0.791800	0.860300
H371	H37	0.967500	0.781500	0.845500
C751	C75	0.019000	0.846800	0.923300
C761	C76	0.956100	0.640800	0.741700
H381	H38	0.962600	0.655600	0.775800
C771	C77	0.023300	0.579000	0.654200
C781	C78	0.992600	0.622400	0.723600
H391	H39	0.024600	0.626500	0.743800
C791	C79	0.897700	0.704500	0.774000
H401	H40	0.937800	0.720400	0.783200
C801	C80	0.911000	0.639800	0.715600
C811	C81	0.935700	0.594000	0.648600
H411	H41	0.927300	0.576300	0.615600
C821	C82	0.982500	0.598400	0.676300
C831	C83	0.873700	0.660900	0.738700
C841	C84	0.901600	0.614900	0.668300
H421	H42	0.870000	0.611900	0.648200
O291	O29	0.679760	0.892030	0.943570
O301	O30	0.695470	0.201030	0.301140
O311	O31	0.720930	0.174530	0.228410
O321	O32	0.730180	0.917330	0.016490
C851	C85	0.625170	0.159530	0.235530
C861	C86	0.607570	0.125130	0.193630
H431	H43	0.634170	0.114830	0.178830
C871	C87	0.685670	0.180130	0.256630
C881	C88	0.622770	0.974130	0.075030
H441	H44	0.629270	0.988930	0.109130
C891	C89	0.689970	0.912330	0.987530
C901	C90	0.659270	0.955730	0.056930
H451	H45	0.691270	0.959830	0.077130
C911	C91	0.564370	0.037830	0.107330
H461	H46	0.604470	0.053730	0.116530
C921	C92	0.577670	0.973130	0.048930
C931	C93	0.602370	0.927330	0.981930
H471	H47	0.593970	0.909630	0.948930
C941	C94	0.649170	0.931730	0.009630
C951	C95	0.540370	0.994230	0.072030
C961	C96	0.568270	0.948230	0.001630
H481	H48	0.536670	0.945230	0.981530
O331	O33	0.346420	0.225370	0.276910
O341	O34	0.362130	0.534370	0.634480
O351	O35	0.387590	0.507870	0.561750
O361	O36	0.396840	0.250670	0.349830
C971	C97	0.291830	0.492870	0.568870
C981	C98	0.274230	0.458470	0.526970
H491	H49	0.300830	0.448170	0.512170
C991	C99	0.352330	0.513470	0.589970
C1001	C100	0.289430	0.307470	0.408370
H501	H50	0.295930	0.322270	0.442470
C1011	C101	0.356630	0.245670	0.320870
C1021	C102	0.325930	0.289070	0.390270
H511	H51	0.357930	0.293170	0.410470
C1031	C103	0.231030	0.371170	0.440670
H521	H52	0.271130	0.387070	0.449870
C1041	C104	0.244330	0.306470	0.382270
C1051	C105	0.269030	0.260670	0.315270
H531	H53	0.260630	0.242970	0.282270
C1061	C106	0.315830	0.265070	0.342970
C1071	C107	0.207030	0.327570	0.405370
C1081	C108	0.234930	0.281570	0.334970
H541	H54	0.203330	0.278570	0.314870
O371	O37	0.545610	0.558700	0.610240
O381	O38	0.838900	0.867700	0.967810
O391	O39	0.786940	0.841200	0.895080
O401	O40	0.520490	0.584000	0.683160
C1091	C109	0.867700	0.826200	0.902200
C1101	C110	0.850900	0.791800	0.860300
H551	H55	0.814000	0.781500	0.845500
C1111	C111	0.827800	0.846800	0.923300
C1121	C112	0.684700	0.640800	0.741700
H561	H56	0.693000	0.655600	0.775800
C1131	C113	0.555700	0.579000	0.654200
C1141	C114	0.629800	0.622400	0.723600
H571	H57	0.601900	0.626500	0.743800
C1151	C115	0.806800	0.704500	0.774000
H581	H58	0.782600	0.720400	0.783200
C1161	C116	0.728800	0.639800	0.715600
C1171	C117	0.658300	0.594000	0.648600
H591	H59	0.649000	0.576300	0.615600
C1181	C118	0.615900	0.598400	0.676300
C1191	C119	0.787200	0.660900	0.738700
C1201	C120	0.713300	0.614900	0.668300
H601	H60	0.741900	0.611900	0.648200
O411	O41	0.212280	0.892030	0.943570
O421	O42	0.505570	0.201030	0.301140
O431	O43	0.453610	0.174530	0.228410
O441	O44	0.187160	0.917330	0.016490
C1211	C121	0.534370	0.159530	0.235530
C1221	C122	0.517570	0.125130	0.193630
H611	H61	0.480670	0.114830	0.178830
C1231	C123	0.494470	0.180130	0.256630
C1241	C124	0.351370	0.974130	0.075030
H621	H62	0.359670	0.988930	0.109130
C1251	C125	0.222370	0.912330	0.987530
C1261	C126	0.296470	0.955730	0.056930
H631	H63	0.268570	0.959830	0.077130
C1271	C127	0.473470	0.037830	0.107330
H641	H64	0.449270	0.053730	0.116530
C1281	C128	0.395470	0.973130	0.048930
C1291	C129	0.324970	0.927330	0.981930
H651	H65	0.315670	0.909630	0.948930
C1301	C130	0.282570	0.931730	0.009630
C1311	C131	0.453870	0.994230	0.072030
C1321	C132	0.379970	0.948230	0.001630
H661	H66	0.408570	0.945230	0.981530
O451	O45	0.878940	0.225370	0.276910
O461	O46	0.172230	0.534370	0.634480
O471	O47	0.120270	0.507870	0.561750
O481	O48	0.853820	0.250670	0.349830
C1331	C133	0.201030	0.492870	0.568870
C1341	C134	0.184230	0.458470	0.526970
H671	H67	0.147330	0.448170	0.512170
C1351	C135	0.161130	0.513470	0.589970
C1361	C136	0.018030	0.307470	0.408370
H681	H68	0.026330	0.322270	0.442470
C1371	C137	0.889030	0.245670	0.320870
C1381	C138	0.963130	0.289070	0.390270
H691	H69	0.935230	0.293170	0.410470
C1391	C139	0.140130	0.371170	0.440670
H701	H70	0.115930	0.387070	0.449870
C1401	C140	0.062130	0.306470	0.382270
C1411	C141	0.991630	0.260670	0.315270
H711	H71	0.982330	0.242970	0.282270
C1421	C142	0.949230	0.265070	0.342970
C1431	C143	0.120530	0.327570	0.405370
C1441	C144	0.046630	0.281570	0.334970
H721	H72	0.075230	0.278570	0.314870
O491	O49	0.013090	0.454390	0.610240
O501	O50	0.028800	0.161100	0.967810
O511	O51	0.054260	0.213060	0.895080
O521	O52	0.063510	0.479510	0.683160
C1451	C145	0.958500	0.132300	0.902200
C1461	C146	0.940900	0.149100	0.860300
H731	H73	0.967500	0.186000	0.845500
C1471	C147	0.019000	0.172200	0.923300
C1481	C148	0.956100	0.315300	0.741700
H741	H74	0.962600	0.307000	0.775800
C1491	C149	0.023300	0.444300	0.654200
C1501	C150	0.992600	0.370200	0.723600
H751	H75	0.024600	0.398100	0.743800
C1511	C151	0.897700	0.193200	0.774000
H761	H76	0.937800	0.217400	0.783200
C1521	C152	0.911000	0.271200	0.715600
C1531	C153	0.935700	0.341700	0.648600
H771	H77	0.927300	0.351000	0.615600
C1541	C154	0.982500	0.384100	0.676300
C1551	C155	0.873700	0.212800	0.738700
C1561	C156	0.901600	0.286700	0.668300
H781	H78	0.870000	0.258100	0.648200
O531	O53	0.679760	0.787720	0.943570
O541	O54	0.695470	0.494430	0.301140
O551	O55	0.720930	0.546390	0.228410
O561	O56	0.730180	0.812840	0.016490
C1571	C157	0.625170	0.465630	0.235530
C1581	C158	0.607570	0.482430	0.193630
H791	H79	0.634170	0.519330	0.178830
C1591	C159	0.685670	0.505530	0.256630
C1601	C160	0.622770	0.648630	0.075030
H801	H80	0.629270	0.640330	0.109130
C1611	C161	0.689970	0.777630	0.987530
C1621	C162	0.659270	0.703530	0.056930
H811	H81	0.691270	0.731430	0.077130
C1631	C163	0.564370	0.526530	0.107330
H821	H82	0.604470	0.550730	0.116530
C1641	C164	0.577670	0.604530	0.048930
C1651	C165	0.602370	0.675030	0.981930
H831	H83	0.593970	0.684330	0.948930
C1661	C166	0.649170	0.717430	0.009630
C1671	C167	0.540370	0.546130	0.072030
C1681	C168	0.568270	0.620030	0.001630
H841	H84	0.536670	0.591430	0.981530
O571	O57	0.346420	0.121060	0.276910
O581	O58	0.362130	0.827770	0.634480
O591	O59	0.387590	0.879730	0.561750
O601	O60	0.396840	0.146180	0.349830
C1691	C169	0.291830	0.798970	0.568870
C1701	C170	0.274230	0.815770	0.526970
H851	H85	0.300830	0.852670	0.512170
C1711	C171	0.352330	0.838870	0.589970
C1721	C172	0.289430	0.981970	0.408370
H861	H86	0.295930	0.973670	0.442470
C1731	C173	0.356630	0.110970	0.320870
C1741	C174	0.325930	0.036870	0.390270
H871	H87	0.357930	0.064770	0.410470
C1751	C175	0.231030	0.859870	0.440670
H881	H88	0.271130	0.884070	0.449870
C1761	C176	0.244330	0.937870	0.382270
C1771	C177	0.269030	0.008370	0.315270
H891	H89	0.260630	0.017670	0.282270
C1781	C178	0.315830	0.050770	0.342970
C1791	C179	0.207030	0.879470	0.405370
C1801	C180	0.234930	0.953370	0.334970
H901	H90	0.203330	0.924770	0.314870
O611	O61	0.441300	0.986910	0.610240
O621	O62	0.132300	0.971200	0.967810
O631	O63	0.158800	0.945740	0.895080
O641	O64	0.416000	0.936490	0.683160
C1811	C181	0.173800	0.041500	0.902200
C1821	C182	0.208200	0.059100	0.860300
H911	H91	0.218500	0.032500	0.845500
C1831	C183	0.153200	0.981000	0.923300
C1841	C184	0.359200	0.043900	0.741700
H921	H92	0.344400	0.037400	0.775800
C1851	C185	0.421000	0.976700	0.654200
C1861	C186	0.377600	0.007400	0.723600
H931	H93	0.373500	0.975400	0.743800
C1871	C187	0.295500	0.102300	0.774000
H941	H94	0.279600	0.062200	0.783200
C1881	C188	0.360200	0.089000	0.715600
C1891	C189	0.406000	0.064300	0.648600
H951	H95	0.423700	0.072700	0.615600
C1901	C190	0.401600	0.017500	0.676300
C1911	C191	0.339100	0.126300	0.738700
C1921	C192	0.385100	0.098400	0.668300
H961	H96	0.388100	0.130000	0.648200
O651	O65	0.107970	0.320240	0.943570
O661	O66	0.798970	0.304530	0.301140
O671	O67	0.825470	0.279070	0.228410
O681	O68	0.082670	0.269820	0.016490
C1931	C193	0.840470	0.374830	0.235530
C1941	C194	0.874870	0.392430	0.193630
H971	H97	0.885170	0.365830	0.178830
C1951	C195	0.819870	0.314330	0.256630
C1961	C196	0.025870	0.377230	0.075030
H981	H98	0.011070	0.370730	0.109130
C1971	C197	0.087670	0.310030	0.987530
C1981	C198	0.044270	0.340730	0.056930
H991	H99	0.040170	0.308730	0.077130
C1991	C199	0.962170	0.435630	0.107330
H1001	H100	0.946270	0.395530	0.116530
C2001	C200	0.026870	0.422330	0.048930
C2011	C201	0.072670	0.397630	0.981930
H1011	H101	0.090370	0.406030	0.948930
C2021	C202	0.068270	0.350830	0.009630
C2031	C203	0.005770	0.459630	0.072030
C2041	C204	0.051770	0.431730	0.001630
H1021	H102	0.054770	0.463330	0.981530
O691	O69	0.774630	0.653580	0.276910
O701	O70	0.465630	0.637870	0.634480
O711	O71	0.492130	0.612410	0.561750
O721	O72	0.749330	0.603160	0.349830
C2051	C205	0.507130	0.708170	0.568870
C2061	C206	0.541530	0.725770	0.526970
H1031	H103	0.551830	0.699170	0.512170
C2071	C207	0.486530	0.647670	0.589970
C2081	C208	0.692530	0.710570	0.408370
H1041	H104	0.677730	0.704070	0.442470
C2091	C209	0.754330	0.643370	0.320870
C2101	C210	0.710930	0.674070	0.390270
H1051	H105	0.706830	0.642070	0.410470
C2111	C211	0.628830	0.768970	0.440670
H1061	H106	0.612930	0.728870	0.449870
C2121	C212	0.693530	0.755670	0.382270
C2131	C213	0.739330	0.730970	0.315270
H1071	H107	0.757030	0.739370	0.282270
C2141	C214	0.734930	0.684170	0.342970
C2151	C215	0.672430	0.792970	0.405370
C2161	C216	0.718430	0.765070	0.334970
H1081	H108	0.721430	0.796670	0.314870
Cu11	Cu1	0.439310	0.560690	0.666750
Cu21	Cu2	0.468660	0.531340	0.578810
Cu31	Cu3	0.105970	0.894030	0.000080
Cu41	Cu4	0.135320	0.864680	0.912140
Cu51	Cu5	0.772640	0.227360	0.333420
Cu61	Cu6	0.801990	0.198010	0.245480
Cu71	Cu7	0.439310	0.878610	0.666750
Cu81	Cu8	0.468660	0.937310	0.578810
Cu91	Cu9	0.105970	0.211950	0.000080
Cu101	Cu10	0.135320	0.270650	0.912140
Cu111	Cu11	0.772640	0.545280	0.333420
Cu121	Cu12	0.801990	0.603980	0.245480
Cu131	Cu13	0.121390	0.560690	0.666750
Cu141	Cu14	0.062690	0.531340	0.578810
Cu151	Cu15	0.788050	0.894030	0.000080
Cu161	Cu16	0.729350	0.864680	0.912140
Cu171	Cu17	0.454720	0.227360	0.333420
Cu181	Cu18	0.396020	0.198010	0.245480
C2171	C217	0.155800	0.077900	0.924400
H1091	H109	0.131600	0.065800	0.954100
C2181	C218	0.230200	0.115100	0.836500
N11	N1	0.359800	0.179900	0.719500
C2191	C219	0.272400	0.136200	0.798000
C2201	C220	0.822470	0.411230	0.257730
H1101	H110	0.798270	0.399130	0.287430
C2211	C221	0.896870	0.448430	0.169830
N21	N2	0.026470	0.513230	0.052830
C2221	C222	0.939070	0.469530	0.131330
C2231	C223	0.489130	0.744570	0.591070
H1111	H111	0.464930	0.732470	0.620770
C2241	C224	0.563530	0.781770	0.503170
N31	N3	0.693130	0.846570	0.386170
C2251	C225	0.605730	0.802870	0.464670
C2261	C226	0.922100	0.077900	0.924400
H1121	H112	0.934200	0.065800	0.954100
C2271	C227	0.884900	0.115100	0.836500
N41	N4	0.820100	0.179900	0.719500
C2281	C228	0.863800	0.136200	0.798000
C2291	C229	0.588770	0.411230	0.257730
H1131	H113	0.600870	0.399130	0.287430
C2301	C230	0.551570	0.448430	0.169830
N51	N5	0.486770	0.513230	0.052830
C2311	C231	0.530470	0.469530	0.131330
C2321	C232	0.255430	0.744570	0.591070
H1141	H114	0.267530	0.732470	0.620770
C2331	C233	0.218230	0.781770	0.503170
N61	N6	0.153430	0.846570	0.386170
C2341	C234	0.197130	0.802870	0.464670
C2351	C235	0.922100	0.844200	0.924400
H1151	H115	0.934200	0.868400	0.954100
C2361	C236	0.884900	0.769800	0.836500
N71	N7	0.820100	0.640200	0.719500
C2371	C237	0.863800	0.727600	0.798000
C2381	C238	0.588770	0.177530	0.257730
H1161	H116	0.600870	0.201730	0.287430
C2391	C239	0.551570	0.103130	0.169830
N81	N8	0.486770	0.973530	0.052830
C2401	C240	0.530470	0.060930	0.131330
C2411	C241	0.255430	0.510870	0.591070
H1171	H117	0.267530	0.535070	0.620770
C2421	C242	0.218230	0.436470	0.503170
N91	N9	0.153430	0.306870	0.386170
C2431	C243	0.197130	0.394270	0.464670
