data_ENISOK_clean_PM
_symmetry_space_group_name_H-M	'P1'
_cell_length_a	14.186900
_cell_length_b	14.862300
_cell_length_c	14.862300
_cell_angle_alpha	76.806400
_cell_angle_beta	63.571000
_cell_angle_gamma	116.429000
_symmetry_Int_Tables_number 1

loop_
_symmetry_equiv_pos_as_xyz
'x,y,z'

loop_
_atom_site_label
_atom_site_type_symbol
_atom_site_fract_x
_atom_site_fract_y
_atom_site_fract_z
Cd11	Cd1	0.750000	0.435940	0.935940
Cd21	Cd2	0.250000	0.564060	0.064060
Cd31	Cd3	0.000000	0.500000	0.000000
Cd41	Cd4	0.500000	0.500000	0.000000
Si11	Si1	0.250000	0.206780	0.706780
Si21	Si2	0.750000	0.793220	0.293220
H11	H1	0.097500	0.039900	0.664700
H21	H2	0.980400	0.839700	0.734100
H31	H3	0.041800	0.797400	0.975200
H41	H4	0.160500	0.998300	0.904100
H51	H5	0.289300	0.417600	0.703200
H61	H6	0.153100	0.472000	0.773600
H71	H7	0.827200	0.152000	0.895800
H81	H8	0.961100	0.096700	0.825500
H91	H9	0.402500	0.164700	0.539900
H101	H10	0.519600	0.234100	0.339700
H111	H11	0.458200	0.475200	0.297400
H121	H12	0.339500	0.404100	0.498300
H131	H13	0.210700	0.203200	0.917600
H141	H14	0.346900	0.273600	0.972000
H151	H15	0.672800	0.395800	0.652000
H161	H16	0.538900	0.325500	0.596700
H171	H17	0.902500	0.960100	0.335300
H181	H18	0.019600	0.160300	0.265900
H191	H19	0.958200	0.202600	0.024800
H201	H20	0.839500	0.001700	0.095900
H211	H21	0.710700	0.582400	0.296800
H221	H22	0.846900	0.528000	0.226400
H231	H23	0.172800	0.848000	0.104200
H241	H24	0.038900	0.903300	0.174500
H251	H25	0.597500	0.835300	0.460100
H261	H26	0.480400	0.765900	0.660300
H271	H27	0.541800	0.524800	0.702600
H281	H28	0.660500	0.595900	0.501700
H291	H29	0.789300	0.796800	0.082400
H301	H30	0.653100	0.726400	0.028000
H311	H31	0.327200	0.604200	0.348000
H321	H32	0.461100	0.674500	0.403300
C11	C1	0.145130	0.042670	0.774710
C21	C2	0.088000	0.991280	0.727280
C31	C3	0.018100	0.871920	0.768320
C41	C4	0.003070	0.799250	0.859450
C51	C5	0.054600	0.846940	0.910540
C61	C6	0.124900	0.966900	0.868100
C71	C7	0.931170	0.669570	0.902770
C81	C8	0.139760	0.249910	0.758130
C91	C9	0.195400	0.362920	0.742520
C101	C10	0.114450	0.395650	0.784050
C111	C11	0.977850	0.317120	0.840520
C121	C12	0.921230	0.206010	0.856410
C131	C13	0.001100	0.173050	0.815050
C141	C14	0.890110	0.351510	0.889510
C151	C15	0.354870	0.274710	0.542670
C161	C16	0.412000	0.227280	0.491280
C171	C17	0.481900	0.268320	0.371920
C181	C18	0.496930	0.359450	0.299250
C191	C19	0.445400	0.410540	0.346940
C201	C20	0.375100	0.368100	0.466900
C211	C21	0.568830	0.402770	0.169570
C221	C22	0.360240	0.258130	0.749910
C231	C23	0.304600	0.242520	0.862920
C241	C24	0.385550	0.284050	0.895650
C251	C25	0.522150	0.340520	0.817120
C261	C26	0.578770	0.356410	0.706010
C271	C27	0.498900	0.315050	0.673050
C281	C28	0.609890	0.389510	0.851510
C291	C29	0.854870	0.957330	0.225290
C301	C30	0.912000	0.008720	0.272720
C311	C31	0.981900	0.128080	0.231680
C321	C32	0.996930	0.200750	0.140550
C331	C33	0.945400	0.153060	0.089460
C341	C34	0.875100	0.033100	0.131900
C351	C35	0.068830	0.330430	0.097230
C361	C36	0.860240	0.750090	0.241870
C371	C37	0.804600	0.637080	0.257480
C381	C38	0.885550	0.604350	0.215950
C391	C39	0.022150	0.682880	0.159480
C401	C40	0.078770	0.793990	0.143590
C411	C41	0.998900	0.826950	0.184950
C421	C42	0.109890	0.648490	0.110490
C431	C43	0.645130	0.725290	0.457330
C441	C44	0.588000	0.772720	0.508720
C451	C45	0.518100	0.731680	0.628080
C461	C46	0.503070	0.640550	0.700750
C471	C47	0.554600	0.589460	0.653060
C481	C48	0.624900	0.631900	0.533100
C491	C49	0.431170	0.597230	0.830430
C501	C50	0.639760	0.741870	0.250090
C511	C51	0.695400	0.757480	0.137080
C521	C52	0.614450	0.715950	0.104350
C531	C53	0.477850	0.659480	0.182880
C541	C54	0.421230	0.643590	0.293990
C551	C55	0.501100	0.684950	0.326950
C561	C56	0.390110	0.610490	0.148490
O11	O1	0.874480	0.629610	0.858690
O21	O2	0.930730	0.609480	0.976340
O31	O3	0.940750	0.448050	0.886430
O41	O4	0.770290	0.286770	0.928570
O51	O5	0.625520	0.358690	0.129610
O61	O6	0.569270	0.476340	0.109480
O71	O7	0.559250	0.386430	0.948050
O81	O8	0.729710	0.428570	0.786770
O91	O9	0.125520	0.370390	0.141310
O101	O10	0.069270	0.390520	0.023660
O111	O11	0.059250	0.551950	0.113570
O121	O12	0.229710	0.713230	0.071430
O131	O13	0.374480	0.641310	0.870390
O141	O14	0.430730	0.523660	0.890520
O151	O15	0.440750	0.613570	0.051950
O161	O16	0.270290	0.571430	0.213230
