data_ENISUQ_clean_PM
_symmetry_space_group_name_H-M	'P1'
_cell_length_a	13.882000
_cell_length_b	14.731200
_cell_length_c	14.731200
_cell_angle_alpha	77.929000
_cell_angle_beta	63.417700
_cell_angle_gamma	116.582000
_symmetry_Int_Tables_number 1

loop_
_symmetry_equiv_pos_as_xyz
'x,y,z'

loop_
_atom_site_label
_atom_site_type_symbol
_atom_site_fract_x
_atom_site_fract_y
_atom_site_fract_z
Mn11	Mn1	0.750000	0.435200	0.935200
Mn21	Mn2	0.250000	0.564800	0.064800
Mn31	Mn3	0.000000	0.500000	0.000000
Mn41	Mn4	0.500000	0.500000	0.000000
Si11	Si1	0.250000	0.203080	0.703080
Si21	Si2	0.750000	0.796920	0.296920
H11	H1	0.101900	0.029700	0.657100
H21	H2	0.986400	0.828500	0.729500
H31	H3	0.046400	0.801400	0.974600
H41	H4	0.161600	0.002200	0.902200
H51	H5	0.285600	0.412200	0.704800
H61	H6	0.147400	0.467000	0.778200
H71	H7	0.816000	0.145900	0.897500
H81	H8	0.955300	0.090600	0.825000
H91	H9	0.398100	0.157100	0.529700
H101	H10	0.513600	0.229500	0.328500
H111	H11	0.453600	0.474600	0.301400
H121	H12	0.338400	0.402200	0.502200
H131	H13	0.214400	0.204800	0.912200
H141	H14	0.352600	0.278200	0.967000
H151	H15	0.684000	0.397500	0.645900
H161	H16	0.544700	0.325000	0.590600
H171	H17	0.898100	0.970300	0.342900
H181	H18	0.013600	0.171500	0.270500
H191	H19	0.953600	0.198600	0.025400
H201	H20	0.838400	0.997800	0.097800
H211	H21	0.714400	0.587800	0.295200
H221	H22	0.852600	0.533000	0.221800
H231	H23	0.184000	0.854100	0.102500
H241	H24	0.044700	0.909400	0.175000
H251	H25	0.601900	0.842900	0.470300
H261	H26	0.486400	0.770500	0.671500
H271	H27	0.546400	0.525400	0.698600
H281	H28	0.661600	0.597800	0.497800
H291	H29	0.785600	0.795200	0.087800
H301	H30	0.647400	0.721800	0.033000
H311	H31	0.316000	0.602500	0.354100
H321	H32	0.455300	0.675000	0.409400
C11	C1	0.147260	0.039220	0.770220
C21	C2	0.091850	0.983920	0.721400
C31	C3	0.022650	0.863840	0.764620
C41	C4	0.005920	0.794850	0.858650
C51	C5	0.058040	0.847740	0.909400
C61	C6	0.127030	0.967720	0.865760
C71	C7	0.935430	0.665540	0.904120
C81	C8	0.134970	0.244980	0.758360
C91	C9	0.190030	0.357430	0.744710
C101	C10	0.108080	0.390310	0.788190
C111	C11	0.968070	0.311130	0.846630
C121	C12	0.911200	0.199610	0.859310
C131	C13	0.994640	0.167100	0.815640
C141	C14	0.878500	0.344910	0.897610
C151	C15	0.352740	0.270220	0.539220
C161	C16	0.408150	0.221400	0.483920
C171	C17	0.477350	0.264620	0.363840
C181	C18	0.494080	0.358650	0.294850
C191	C19	0.441960	0.409400	0.347740
C201	C20	0.372970	0.365760	0.467720
C211	C21	0.564570	0.404120	0.165540
C221	C22	0.365030	0.258360	0.744980
C231	C23	0.309970	0.244710	0.857430
C241	C24	0.391920	0.288190	0.890310
C251	C25	0.531930	0.346630	0.811130
C261	C26	0.588800	0.359310	0.699610
C271	C27	0.505360	0.315640	0.667100
C281	C28	0.621500	0.397610	0.844910
C291	C29	0.852740	0.960780	0.229780
C301	C30	0.908150	0.016080	0.278600
C311	C31	0.977350	0.136160	0.235380
C321	C32	0.994080	0.205150	0.141350
C331	C33	0.941960	0.152260	0.090600
C341	C34	0.872970	0.032280	0.134240
C351	C35	0.064570	0.334460	0.095880
C361	C36	0.865030	0.755020	0.241640
C371	C37	0.809970	0.642570	0.255290
C381	C38	0.891920	0.609690	0.211810
C391	C39	0.031930	0.688870	0.153370
C401	C40	0.088800	0.800390	0.140690
C411	C41	0.005360	0.832900	0.184360
C421	C42	0.121500	0.655090	0.102390
C431	C43	0.647260	0.729780	0.460780
C441	C44	0.591850	0.778600	0.516080
C451	C45	0.522650	0.735380	0.636160
C461	C46	0.505920	0.641350	0.705150
C471	C47	0.558040	0.590600	0.652260
C481	C48	0.627030	0.634240	0.532280
C491	C49	0.435430	0.595880	0.834460
C501	C50	0.634970	0.741640	0.255020
C511	C51	0.690030	0.755290	0.142570
C521	C52	0.608080	0.711810	0.109690
C531	C53	0.468070	0.653370	0.188870
C541	C54	0.411200	0.640690	0.300390
C551	C55	0.494640	0.684360	0.332900
C561	C56	0.378500	0.602390	0.155090
O11	O1	0.870820	0.618060	0.867640
O21	O2	0.943260	0.611580	0.975080
O31	O3	0.929790	0.441550	0.898530
O41	O4	0.757130	0.283050	0.934930
O51	O5	0.629180	0.367640	0.118060
O61	O6	0.556740	0.475080	0.111580
O71	O7	0.570210	0.398530	0.941550
O81	O8	0.742870	0.434930	0.783050
O91	O9	0.129180	0.381940	0.132360
O101	O10	0.056740	0.388420	0.024920
O111	O11	0.070210	0.558450	0.101470
O121	O12	0.242870	0.716950	0.065070
O131	O13	0.370820	0.632360	0.881940
O141	O14	0.443260	0.524920	0.888420
O151	O15	0.429790	0.601470	0.058450
O161	O16	0.257130	0.565070	0.216950
