data_ENITIF_clean_PM
_symmetry_space_group_name_H-M	'P1'
_cell_length_a	13.701000
_cell_length_b	14.344100
_cell_length_c	24.534700
_cell_angle_alpha	78.368600
_cell_angle_beta	73.786500
_cell_angle_gamma	61.472200
_symmetry_Int_Tables_number 1

loop_
_symmetry_equiv_pos_as_xyz
'x,y,z'

loop_
_atom_site_label
_atom_site_type_symbol
_atom_site_fract_x
_atom_site_fract_y
_atom_site_fract_z
Zn11	Zn1	0.691250	0.083070	0.956330
Zn21	Zn2	0.730650	0.416930	0.543670
Zn31	Zn3	0.308750	0.916930	0.043670
Zn41	Zn4	0.269350	0.583070	0.456330
Zn51	Zn5	0.500000	0.000000	0.000000
Zn61	Zn6	0.500000	0.500000	0.500000
Si11	Si1	0.070800	0.448630	0.827210
Si21	Si2	0.346640	0.051370	0.672790
Si31	Si3	0.929200	0.551370	0.172790
Si41	Si4	0.653360	0.948630	0.327210
H11	H1	0.053200	0.663500	0.810100
H21	H2	0.931200	0.824200	0.852000
H31	H3	0.733600	0.690100	0.952300
H41	H4	0.855500	0.529500	0.910300
H51	H5	0.868500	0.477300	0.795100
H61	H6	0.757000	0.386800	0.815400
H71	H7	0.979900	0.150000	0.904200
H81	H8	0.091300	0.240500	0.883900
H91	H9	0.270700	0.239400	0.829800
H101	H10	0.419800	0.156200	0.877000
H111	H11	0.305400	0.427500	0.951900
H121	H12	0.149800	0.505500	0.908900
H131	H13	0.257900	0.491800	0.762800
H141	H14	0.332000	0.525700	0.668300
H151	H15	0.084200	0.501600	0.622000
H161	H16	0.016600	0.459400	0.716800
H171	H17	0.526800	0.836500	0.689900
H181	H18	0.607400	0.675800	0.648000
H191	H19	0.376000	0.809900	0.547700
H201	H20	0.295300	0.970500	0.589700
H211	H21	0.140900	0.022700	0.704900
H221	H22	0.959200	0.113200	0.684600
H231	H23	0.034100	0.350000	0.595800
H241	H24	0.215700	0.259500	0.616100
H251	H25	0.339900	0.260600	0.670200
H261	H26	0.453000	0.343800	0.623000
H271	H27	0.684800	0.072500	0.548100
H281	H28	0.564200	0.994500	0.591100
H291	H29	0.512500	0.008200	0.737200
H301	H30	0.526000	0.974300	0.831700
H311	H31	0.207800	0.998400	0.878000
H321	H32	0.192800	0.040600	0.783200
H331	H33	0.946800	0.336500	0.189900
H341	H34	0.068800	0.175800	0.148000
H351	H35	0.266400	0.309900	0.047700
H361	H36	0.144500	0.470500	0.089700
H371	H37	0.131500	0.522700	0.204900
H381	H38	0.243000	0.613200	0.184600
H391	H39	0.020100	0.850000	0.095800
H401	H40	0.908700	0.759500	0.116100
H411	H41	0.729300	0.760600	0.170200
H421	H42	0.580200	0.843800	0.123000
H431	H43	0.694600	0.572500	0.048100
H441	H44	0.850200	0.494500	0.091100
H451	H45	0.742100	0.508200	0.237200
H461	H46	0.668000	0.474300	0.331700
H471	H47	0.915800	0.498400	0.378000
H481	H48	0.983400	0.540600	0.283200
H491	H49	0.473200	0.163500	0.310100
H501	H50	0.392600	0.324200	0.352000
H511	H51	0.624000	0.190100	0.452300
H521	H52	0.704700	0.029500	0.410300
H531	H53	0.859100	0.977300	0.295100
H541	H54	0.040800	0.886800	0.315400
H551	H55	0.965900	0.650000	0.404200
H561	H56	0.784300	0.740500	0.383900
H571	H57	0.660100	0.739400	0.329800
H581	H58	0.547000	0.656200	0.377000
H591	H59	0.315200	0.927500	0.451900
H601	H60	0.435800	0.005500	0.408900
H611	H61	0.487500	0.991800	0.262800
H621	H62	0.474000	0.025700	0.168300
H631	H63	0.792200	0.001600	0.122000
H641	H64	0.807200	0.959400	0.216800
C11	C1	0.965760	0.581440	0.856240
C21	C2	0.988270	0.668960	0.838900
C31	C3	0.915920	0.764360	0.863800
C41	C4	0.820960	0.772180	0.906100
C51	C5	0.798440	0.684720	0.923400
C61	C6	0.870890	0.589320	0.898500
C71	C7	0.746850	0.877530	0.934770
C81	C8	0.990370	0.367490	0.837570
C91	C9	0.891000	0.410980	0.817220
C101	C10	0.824900	0.357100	0.829300
C111	C11	0.858010	0.259910	0.861670
C121	C12	0.957300	0.216400	0.882000
C131	C13	0.023500	0.270200	0.870000
C141	C14	0.784300	0.204000	0.877600
C151	C15	0.193040	0.381670	0.865050
C161	C16	0.276000	0.277200	0.855600
C171	C17	0.365860	0.227980	0.883300
C181	C18	0.378680	0.281260	0.919980
C191	C19	0.297400	0.387800	0.928200
C201	C20	0.205700	0.434500	0.901700
C211	C21	0.476510	0.229310	0.948670
C221	C22	0.128610	0.473600	0.750180
C231	C23	0.222500	0.492920	0.734280
C241	C24	0.266400	0.513860	0.677940
C251	C25	0.216320	0.517810	0.635550
C261	C26	0.120700	0.498500	0.650500
C271	C27	0.079700	0.475100	0.707100
C281	C28	0.267660	0.534770	0.574310
C291	C29	0.403440	0.918560	0.643760
C301	C30	0.496130	0.831040	0.661100
C311	C31	0.544080	0.735640	0.636200
C321	C32	0.499240	0.727820	0.593900
C331	C33	0.406560	0.815280	0.576600
C341	C34	0.358710	0.910680	0.601500
C351	C35	0.559150	0.622470	0.565230
C361	C36	0.195430	0.132510	0.662430
C371	C37	0.119200	0.089020	0.682780
C381	C38	0.011300	0.142900	0.670700
C391	C39	0.979590	0.240090	0.638330
C401	C40	0.055700	0.283600	0.618000
C411	C41	0.163700	0.229800	0.630000
C421	C42	0.865900	0.296000	0.622400
C431	C43	0.439760	0.118330	0.634950
C441	C44	0.408800	0.222800	0.644400
C451	C45	0.477140	0.272020	0.616700
C461	C46	0.579920	0.218740	0.580020
C471	C47	0.613400	0.112200	0.571800
C481	C48	0.541900	0.065500	0.598300
C491	C49	0.654490	0.270690	0.551330
C501	C50	0.352390	0.026400	0.749820
C511	C51	0.449700	0.007080	0.765720
C521	C52	0.458200	0.986140	0.822060
C531	C53	0.369680	0.982190	0.864450
C541	C54	0.269700	0.001500	0.849500
C551	C55	0.261900	0.024900	0.792900
C561	C56	0.376740	0.965230	0.925690
C571	C57	0.034240	0.418560	0.143760
C581	C58	0.011730	0.331040	0.161100
C591	C59	0.084080	0.235640	0.136200
C601	C60	0.179040	0.227820	0.093900
C611	C61	0.201560	0.315280	0.076600
C621	C62	0.129110	0.410680	0.101500
C631	C63	0.253150	0.122470	0.065230
C641	C64	0.009630	0.632510	0.162430
C651	C65	0.109000	0.589020	0.182780
C661	C66	0.175100	0.642900	0.170700
C671	C67	0.141990	0.740090	0.138330
C681	C68	0.042700	0.783600	0.118000
C691	C69	0.976500	0.729800	0.130000
C701	C70	0.215700	0.796000	0.122400
C711	C71	0.806960	0.618330	0.134950
C721	C72	0.724000	0.722800	0.144400
C731	C73	0.634140	0.772020	0.116700
C741	C74	0.621320	0.718740	0.080020
C751	C75	0.702600	0.612200	0.071800
C761	C76	0.794300	0.565500	0.098300
C771	C77	0.523490	0.770690	0.051330
C781	C78	0.871390	0.526400	0.249820
C791	C79	0.777500	0.507080	0.265720
C801	C80	0.733600	0.486140	0.322060
C811	C81	0.783680	0.482190	0.364450
C821	C82	0.879300	0.501500	0.349500
C831	C83	0.920300	0.524900	0.292900
C841	C84	0.732340	0.465230	0.425690
C851	C85	0.596560	0.081440	0.356240
C861	C86	0.503870	0.168960	0.338900
C871	C87	0.455920	0.264360	0.363800
C881	C88	0.500760	0.272180	0.406100
C891	C89	0.593440	0.184720	0.423400
C901	C90	0.641290	0.089320	0.398500
C911	C91	0.440850	0.377530	0.434770
C921	C92	0.804570	0.867490	0.337570
C931	C93	0.880800	0.910980	0.317220
C941	C94	0.988700	0.857100	0.329300
C951	C95	0.020410	0.759910	0.361670
C961	C96	0.944300	0.716400	0.382000
C971	C97	0.836300	0.770200	0.370000
C981	C98	0.134100	0.704000	0.377600
C991	C99	0.560240	0.881670	0.365050
C1001	C100	0.591200	0.777200	0.355600
C1011	C101	0.522860	0.727980	0.383300
C1021	C102	0.420080	0.781260	0.419980
C1031	C103	0.386600	0.887800	0.428200
C1041	C104	0.458100	0.934500	0.401700
C1051	C105	0.345510	0.729310	0.448670
C1061	C106	0.647610	0.973600	0.250180
C1071	C107	0.550300	0.992920	0.234280
C1081	C108	0.541800	0.013860	0.177940
C1091	C109	0.630320	0.017810	0.135550
C1101	C110	0.730300	0.998500	0.150500
C1111	C111	0.738100	0.975100	0.207100
C1121	C112	0.623260	0.034770	0.074310
O11	O1	0.776690	0.949420	0.918200
O21	O2	0.661300	0.882600	0.972200
O31	O3	0.707200	0.225200	0.853400
O41	O4	0.789800	0.151000	0.927000
O51	O5	0.539260	0.127060	0.944220
O61	O6	0.497890	0.281360	0.973660
O71	O7	0.364750	0.531530	0.565170
O81	O8	0.212610	0.550210	0.537370
O91	O9	0.644310	0.550580	0.581800
O101	O10	0.516100	0.617400	0.527800
O111	O11	0.785800	0.274800	0.646600
O121	O12	0.867800	0.349000	0.573000
O131	O13	0.610540	0.372940	0.555780
O141	O14	0.752910	0.218640	0.526340
O151	O15	0.461450	0.968470	0.934830
O161	O16	0.300190	0.949790	0.962630
O171	O17	0.223310	0.050580	0.081800
O181	O18	0.338700	0.117400	0.027800
O191	O19	0.292800	0.774800	0.146600
O201	O20	0.210200	0.849000	0.073000
O211	O21	0.460740	0.872940	0.055780
O221	O22	0.502110	0.718640	0.026340
O231	O23	0.635250	0.468470	0.434830
O241	O24	0.787390	0.449790	0.462630
O251	O25	0.355690	0.449420	0.418200
O261	O26	0.483900	0.382600	0.472200
O271	O27	0.214200	0.725200	0.353400
O281	O28	0.132200	0.651000	0.427000
O291	O29	0.389460	0.627060	0.444220
O301	O30	0.247090	0.781360	0.473660
O311	O31	0.538550	0.031530	0.065170
O321	O32	0.699810	0.050210	0.037370
