data_ENOSAD_clean_PM
_symmetry_space_group_name_H-M	'P1'
_cell_length_a	5.015600
_cell_length_b	18.675000
_cell_length_c	22.796000
_cell_angle_alpha	90.000000
_cell_angle_beta	95.410000
_cell_angle_gamma	90.000000
_symmetry_Int_Tables_number 1

loop_
_symmetry_equiv_pos_as_xyz
'x,y,z'

loop_
_atom_site_label
_atom_site_type_symbol
_atom_site_fract_x
_atom_site_fract_y
_atom_site_fract_z
Tm11	Tm1	0.777150	0.431470	0.345980
O11	O1	0.088400	0.390100	0.416540
O21	O2	0.489600	0.438500	0.411750
C11	C1	0.321200	0.404400	0.438300
C21	C2	0.403300	0.377600	0.499100
C31	C3	0.624800	0.406400	0.532400
H11	H1	0.729200	0.441000	0.516200
C41	C4	0.690000	0.383200	0.590300
C51	C5	0.540600	0.328700	0.612700
H21	H2	0.584700	0.312600	0.651000
C61	C6	0.326300	0.298000	0.578700
C71	C7	0.253300	0.324100	0.521900
H31	H3	0.104400	0.305500	0.499600
C81	C8	0.906700	0.419100	0.629800
O31	O3	0.033000	0.469500	0.608750
O41	O4	0.944700	0.397300	0.682370
N11	N1	0.182500	0.244100	0.606300
N21	N2	0.010200	0.213200	0.572000
C91	C9	0.736400	0.091200	0.751600
O51	O5	0.948800	0.111700	0.779600
O61	O6	0.544200	0.061700	0.773490
C101	C10	0.707800	0.102600	0.686100
C111	C11	0.510500	0.067700	0.649800
H41	H4	0.392200	0.036900	0.666200
C121	C12	0.488700	0.078400	0.589400
C131	C13	0.658300	0.126600	0.565100
H51	H5	0.640300	0.135000	0.524700
C141	C14	0.855000	0.162400	0.600900
C151	C15	0.881700	0.149400	0.661400
H61	H6	0.016400	0.172100	0.685400
C161	C16	0.279800	0.042400	0.549600
O71	O7	0.137100	0.995200	0.573600
H71	H7	0.059000	0.983000	0.557000
O81	O8	0.247800	0.058800	0.496450
Tm21	Tm2	0.722850	0.931470	0.154020
O91	O9	0.411600	0.890100	0.083460
O101	O10	0.010400	0.938500	0.088250
C171	C17	0.178800	0.904400	0.061700
C181	C18	0.096700	0.877600	0.000900
C191	C19	0.875200	0.906400	0.967600
H81	H8	0.770800	0.941000	0.983800
C201	C20	0.810000	0.883200	0.909700
C211	C21	0.959400	0.828700	0.887300
H91	H9	0.915300	0.812600	0.849000
C221	C22	0.173700	0.798000	0.921300
C231	C23	0.246700	0.824100	0.978100
H101	H10	0.395600	0.805500	0.000400
C241	C24	0.593300	0.919100	0.870200
O111	O11	0.467000	0.969500	0.891250
O121	O12	0.555300	0.897300	0.817630
N31	N3	0.317500	0.744100	0.893700
N41	N4	0.489800	0.713200	0.928000
C251	C25	0.763600	0.591200	0.748400
O131	O13	0.551200	0.611700	0.720400
O141	O14	0.955800	0.561700	0.726510
C261	C26	0.792200	0.602600	0.813900
C271	C27	0.989500	0.567700	0.850200
H111	H11	0.107800	0.536900	0.833800
C281	C28	0.011300	0.578400	0.910600
C291	C29	0.841700	0.626600	0.934900
H121	H12	0.859700	0.635000	0.975300
C301	C30	0.645000	0.662400	0.899100
C311	C31	0.618300	0.649400	0.838600
H131	H13	0.483600	0.672100	0.814600
C321	C32	0.220200	0.542400	0.950400
O151	O15	0.362900	0.495200	0.926400
H141	H14	0.441000	0.483000	0.943000
O161	O16	0.252200	0.558800	0.003550
Tm31	Tm3	0.222850	0.568530	0.654020
O171	O17	0.911600	0.609900	0.583460
O181	O18	0.510400	0.561500	0.588250
C331	C33	0.678800	0.595600	0.561700
C341	C34	0.596700	0.622400	0.500900
C351	C35	0.375200	0.593600	0.467600
H151	H15	0.270800	0.559000	0.483800
C361	C36	0.310000	0.616800	0.409700
C371	C37	0.459400	0.671300	0.387300
H161	H16	0.415300	0.687400	0.349000
C381	C38	0.673700	0.702000	0.421300
C391	C39	0.746700	0.675900	0.478100
H171	H17	0.895600	0.694500	0.500400
C401	C40	0.093300	0.580900	0.370200
O191	O19	0.967000	0.530500	0.391250
O201	O20	0.055300	0.602700	0.317630
N51	N5	0.817500	0.755900	0.393700
N61	N6	0.989800	0.786800	0.428000
C411	C41	0.263600	0.908800	0.248400
O211	O21	0.051200	0.888300	0.220400
O221	O22	0.455800	0.938300	0.226510
C421	C42	0.292200	0.897400	0.313900
C431	C43	0.489500	0.932300	0.350200
H181	H18	0.607800	0.963100	0.333800
C441	C44	0.511300	0.921600	0.410600
C451	C45	0.341700	0.873400	0.434900
H191	H19	0.359700	0.865000	0.475300
C461	C46	0.145000	0.837600	0.399100
C471	C47	0.118300	0.850600	0.338600
H201	H20	0.983600	0.827900	0.314600
C481	C48	0.720200	0.957600	0.450400
O231	O23	0.862900	0.004800	0.426400
H211	H21	0.941000	0.017000	0.443000
O241	O24	0.752200	0.941200	0.503550
Tm41	Tm4	0.277150	0.068530	0.845980
O251	O25	0.588400	0.109900	0.916540
O261	O26	0.989600	0.061500	0.911750
C491	C49	0.821200	0.095600	0.938300
C501	C50	0.903300	0.122400	0.999100
C511	C51	0.124800	0.093600	0.032400
H221	H22	0.229200	0.059000	0.016200
C521	C52	0.190000	0.116800	0.090300
C531	C53	0.040600	0.171300	0.112700
H231	H23	0.084700	0.187400	0.151000
C541	C54	0.826300	0.202000	0.078700
C551	C55	0.753300	0.175900	0.021900
H241	H24	0.604400	0.194500	0.999600
C561	C56	0.406700	0.080900	0.129800
O271	O27	0.533000	0.030500	0.108750
O281	O28	0.444700	0.102700	0.182370
N71	N7	0.682500	0.255900	0.106300
N81	N8	0.510200	0.286800	0.072000
C571	C57	0.236400	0.408800	0.251600
O291	O29	0.448800	0.388300	0.279600
O301	O30	0.044200	0.438300	0.273490
C581	C58	0.207800	0.397400	0.186100
C591	C59	0.010500	0.432300	0.149800
H251	H25	0.892200	0.463100	0.166200
C601	C60	0.988700	0.421600	0.089400
C611	C61	0.158300	0.373400	0.065100
H261	H26	0.140300	0.365000	0.024700
C621	C62	0.355000	0.337600	0.100900
C631	C63	0.381700	0.350600	0.161400
H271	H27	0.516400	0.327900	0.185400
C641	C64	0.779800	0.457600	0.049600
O311	O31	0.637100	0.504800	0.073600
H281	H28	0.559000	0.517000	0.057000
O321	O32	0.747800	0.441200	0.996450
