data_EPEWAY_clean_PM
_symmetry_space_group_name_H-M	'P1'
_cell_length_a	11.314000
_cell_length_b	11.314000
_cell_length_c	25.242900
_cell_angle_alpha	90.000000
_cell_angle_beta	90.000000
_cell_angle_gamma	90.000000
_symmetry_Int_Tables_number 1

loop_
_symmetry_equiv_pos_as_xyz
'x,y,z'

loop_
_atom_site_label
_atom_site_type_symbol
_atom_site_fract_x
_atom_site_fract_y
_atom_site_fract_z
Co11	Co1	0.096290	0.903710	0.875000
Co21	Co2	0.903710	0.096290	0.375000
Co31	Co3	0.096290	0.096290	0.625000
Co41	Co4	0.903710	0.903710	0.125000
Co51	Co5	0.000000	0.796700	0.000000
Co61	Co6	0.000000	0.203300	0.500000
Co71	Co7	0.203300	0.000000	0.750000
Co81	Co8	0.796700	0.000000	0.250000
H11	H1	0.059700	0.076000	0.039200
H21	H2	0.744200	0.919000	0.811100
H31	H3	0.550300	0.933700	0.786800
H41	H4	0.447800	0.828900	0.931000
H51	H5	0.311900	0.999900	0.946100
H61	H6	0.642200	0.802600	0.954000
H71	H7	0.398300	0.113300	0.016400
H81	H8	0.325500	0.204800	0.982000
H91	H9	0.206700	0.223000	0.052600
H101	H10	0.258400	0.107500	0.079100
H111	H11	0.940300	0.924000	0.539200
H121	H12	0.255800	0.081000	0.311100
H131	H13	0.449700	0.066300	0.286800
H141	H14	0.552200	0.171100	0.431000
H151	H15	0.688100	0.000100	0.446100
H161	H16	0.357800	0.197400	0.454000
H171	H17	0.601700	0.886700	0.516400
H181	H18	0.674500	0.795200	0.482000
H191	H19	0.793300	0.777000	0.552600
H201	H20	0.741600	0.892500	0.579100
H211	H21	0.924000	0.059700	0.789200
H221	H22	0.081000	0.744200	0.561100
H231	H23	0.066300	0.550300	0.536800
H241	H24	0.171100	0.447800	0.681000
H251	H25	0.000100	0.311900	0.696100
H261	H26	0.197400	0.642200	0.704000
H271	H27	0.886700	0.398300	0.766400
H281	H28	0.795200	0.325500	0.732000
H291	H29	0.777000	0.206700	0.802600
H301	H30	0.892500	0.258400	0.829100
H311	H31	0.076000	0.940300	0.289200
H321	H32	0.919000	0.255800	0.061100
H331	H33	0.933700	0.449700	0.036800
H341	H34	0.828900	0.552200	0.181000
H351	H35	0.999900	0.688100	0.196100
H361	H36	0.802600	0.357800	0.204000
H371	H37	0.113300	0.601700	0.266400
H381	H38	0.204800	0.674500	0.232000
H391	H39	0.223000	0.793300	0.302600
H401	H40	0.107500	0.741600	0.329100
H411	H41	0.940300	0.076000	0.960800
H421	H42	0.255800	0.919000	0.188900
H431	H43	0.449700	0.933700	0.213200
H441	H44	0.552200	0.828900	0.069000
H451	H45	0.688100	0.999900	0.053900
H461	H46	0.357800	0.802600	0.046000
H471	H47	0.601700	0.113300	0.983600
H481	H48	0.674500	0.204800	0.018000
H491	H49	0.793300	0.223000	0.947400
H501	H50	0.741600	0.107500	0.920900
H511	H51	0.059700	0.924000	0.460800
H521	H52	0.744200	0.081000	0.688900
H531	H53	0.550300	0.066300	0.713200
H541	H54	0.447800	0.171100	0.569000
H551	H55	0.311900	0.000100	0.553900
H561	H56	0.642200	0.197400	0.546000
H571	H57	0.398300	0.886700	0.483600
H581	H58	0.325500	0.795200	0.518000
H591	H59	0.206700	0.777000	0.447400
H601	H60	0.258400	0.892500	0.420900
H611	H61	0.076000	0.059700	0.210800
H621	H62	0.919000	0.744200	0.438900
H631	H63	0.933700	0.550300	0.463200
H641	H64	0.828900	0.447800	0.319000
H651	H65	0.999900	0.311900	0.303900
H661	H66	0.802600	0.642200	0.296000
H671	H67	0.113300	0.398300	0.233600
H681	H68	0.204800	0.325500	0.268000
H691	H69	0.223000	0.206700	0.197400
H701	H70	0.107500	0.258400	0.170900
H711	H71	0.924000	0.940300	0.710800
H721	H72	0.081000	0.255800	0.938900
H731	H73	0.066300	0.449700	0.963200
H741	H74	0.171100	0.552200	0.819000
H751	H75	0.000100	0.688100	0.803900
H761	H76	0.197400	0.357800	0.796000
H771	H77	0.886700	0.601700	0.733600
H781	H78	0.795200	0.674500	0.768000
H791	H79	0.777000	0.793300	0.697400
H801	H80	0.892500	0.741600	0.670900
C11	C1	0.163400	0.008100	0.984400
C21	C2	0.479200	0.883400	0.855500
C31	C3	0.842600	0.855900	0.903500
C41	C4	0.352300	0.902900	0.839600
C51	C5	0.684900	0.899700	0.835100
C61	C6	0.714000	0.860600	0.886400
C71	C7	0.569000	0.909100	0.820900
C81	C8	0.507400	0.845100	0.906700
C91	C9	0.623700	0.831800	0.920500
C101	C10	0.320800	0.132300	0.002400
C111	C11	0.228800	0.141300	0.046300
C121	C12	0.836600	0.991900	0.484400
C131	C13	0.520800	0.116600	0.355500
C141	C14	0.157400	0.144100	0.403500
C151	C15	0.647700	0.097100	0.339600
C161	C16	0.315100	0.100300	0.335100
C171	C17	0.286000	0.139400	0.386400
C181	C18	0.431000	0.090900	0.320900
C191	C19	0.492600	0.154900	0.406700
C201	C20	0.376300	0.168200	0.420500
C211	C21	0.679200	0.867700	0.502400
C221	C22	0.771200	0.858700	0.546300
C231	C23	0.991900	0.163400	0.734400
C241	C24	0.116600	0.479200	0.605500
C251	C25	0.144100	0.842600	0.653500
C261	C26	0.097100	0.352300	0.589600
C271	C27	0.100300	0.684900	0.585100
C281	C28	0.139400	0.714000	0.636400
C291	C29	0.090900	0.569000	0.570900
C301	C30	0.154900	0.507400	0.656700
C311	C31	0.168200	0.623700	0.670500
C321	C32	0.867700	0.320800	0.752400
C331	C33	0.858700	0.228800	0.796300
C341	C34	0.008100	0.836600	0.234400
C351	C35	0.883400	0.520800	0.105500
C361	C36	0.855900	0.157400	0.153500
C371	C37	0.902900	0.647700	0.089600
C381	C38	0.899700	0.315100	0.085100
C391	C39	0.860600	0.286000	0.136400
C401	C40	0.909100	0.431000	0.070900
C411	C41	0.845100	0.492600	0.156700
C421	C42	0.831800	0.376300	0.170500
C431	C43	0.132300	0.679200	0.252400
C441	C44	0.141300	0.771200	0.296300
C451	C45	0.836600	0.008100	0.015600
C461	C46	0.520800	0.883400	0.144500
C471	C47	0.157400	0.855900	0.096500
C481	C48	0.647700	0.902900	0.160400
C491	C49	0.315100	0.899700	0.164900
C501	C50	0.286000	0.860600	0.113600
C511	C51	0.431000	0.909100	0.179100
C521	C52	0.492600	0.845100	0.093300
C531	C53	0.376300	0.831800	0.079500
C541	C54	0.679200	0.132300	0.997600
C551	C55	0.771200	0.141300	0.953700
C561	C56	0.163400	0.991900	0.515600
C571	C57	0.479200	0.116600	0.644500
C581	C58	0.842600	0.144100	0.596500
C591	C59	0.352300	0.097100	0.660400
C601	C60	0.684900	0.100300	0.664900
C611	C61	0.714000	0.139400	0.613600
C621	C62	0.569000	0.090900	0.679100
C631	C63	0.507400	0.154900	0.593300
C641	C64	0.623700	0.168200	0.579500
C651	C65	0.320800	0.867700	0.497600
C661	C66	0.228800	0.858700	0.453700
C671	C67	0.008100	0.163400	0.265600
C681	C68	0.883400	0.479200	0.394500
C691	C69	0.855900	0.842600	0.346500
C701	C70	0.902900	0.352300	0.410400
C711	C71	0.899700	0.684900	0.414900
C721	C72	0.860600	0.714000	0.363600
C731	C73	0.909100	0.569000	0.429100
C741	C74	0.845100	0.507400	0.343300
C751	C75	0.831800	0.623700	0.329500
C761	C76	0.132300	0.320800	0.247600
C771	C77	0.141300	0.228800	0.203700
C781	C78	0.991900	0.836600	0.765600
C791	C79	0.116600	0.520800	0.894500
C801	C80	0.144100	0.157400	0.846500
C811	C81	0.097100	0.647700	0.910400
C821	C82	0.100300	0.315100	0.914900
C831	C83	0.139400	0.286000	0.863600
C841	C84	0.090900	0.431000	0.929100
C851	C85	0.154900	0.492600	0.843300
C861	C86	0.168200	0.376300	0.829500
C871	C87	0.867700	0.679200	0.747600
C881	C88	0.858700	0.771200	0.703700
N11	N1	0.130000	0.074200	0.026300
N21	N2	0.273200	0.035300	0.970700
N31	N3	0.870000	0.925800	0.526300
N41	N4	0.726800	0.964700	0.470700
N51	N5	0.925800	0.130000	0.776300
N61	N6	0.964700	0.273200	0.720700
N71	N7	0.074200	0.870000	0.276300
N81	N8	0.035300	0.726800	0.220700
N91	N9	0.870000	0.074200	0.973700
N101	N10	0.726800	0.035300	0.029300
N111	N11	0.130000	0.925800	0.473700
N121	N12	0.273200	0.964700	0.529300
N131	N13	0.074200	0.130000	0.223700
N141	N14	0.035300	0.273200	0.279300
N151	N15	0.925800	0.870000	0.723700
N161	N16	0.964700	0.726800	0.779300
O11	O1	0.914500	0.910700	0.875000
O21	O2	0.275800	0.904900	0.875300
O31	O3	0.333700	0.911400	0.790300
O41	O4	0.864300	0.798500	0.945000
O51	O5	0.097200	0.933900	0.961300
O61	O6	0.085500	0.089300	0.375000
O71	O7	0.724200	0.095100	0.375300
O81	O8	0.666300	0.088600	0.290300
O91	O9	0.135700	0.201500	0.445000
O101	O10	0.902800	0.066100	0.461300
O111	O11	0.089300	0.914500	0.625000
O121	O12	0.095100	0.275800	0.625300
O131	O13	0.088600	0.333700	0.540300
O141	O14	0.201500	0.864300	0.695000
O151	O15	0.066100	0.097200	0.711300
O161	O16	0.910700	0.085500	0.125000
O171	O17	0.904900	0.724200	0.125300
O181	O18	0.911400	0.666300	0.040300
O191	O19	0.798500	0.135700	0.195000
O201	O20	0.933900	0.902800	0.211300
O211	O21	0.085500	0.910700	0.125000
O221	O22	0.724200	0.904900	0.124700
O231	O23	0.666300	0.911400	0.209700
O241	O24	0.135700	0.798500	0.055000
O251	O25	0.902800	0.933900	0.038700
O261	O26	0.914500	0.089300	0.625000
O271	O27	0.275800	0.095100	0.624700
O281	O28	0.333700	0.088600	0.709700
O291	O29	0.864300	0.201500	0.555000
O301	O30	0.097200	0.066100	0.538700
O311	O31	0.910700	0.914500	0.375000
O321	O32	0.904900	0.275800	0.374700
O331	O33	0.911400	0.333700	0.459700
O341	O34	0.798500	0.864300	0.305000
O351	O35	0.933900	0.097200	0.288700
O361	O36	0.089300	0.085500	0.875000
O371	O37	0.095100	0.724200	0.874700
O381	O38	0.088600	0.666300	0.959700
O391	O39	0.201500	0.135700	0.805000
O401	O40	0.066100	0.902800	0.788700
