data_EPEXUU_clean_PM
_symmetry_space_group_name_H-M	'P1'
_cell_length_a	21.859900
_cell_length_b	21.859900
_cell_length_c	21.352500
_cell_angle_alpha	90.000000
_cell_angle_beta	90.000000
_cell_angle_gamma	120.000000
_symmetry_Int_Tables_number 1

loop_
_symmetry_equiv_pos_as_xyz
'x,y,z'

loop_
_atom_site_label
_atom_site_type_symbol
_atom_site_fract_x
_atom_site_fract_y
_atom_site_fract_z
Cu11	Cu1	0.537530	0.067850	0.489230
O11	O1	0.457100	0.054100	0.436130
O21	O2	0.391100	0.939300	0.458080
O31	O3	0.375800	0.133900	0.250070
O41	O4	0.260000	0.081600	0.231110
O51	O5	0.157900	0.807200	0.451900
N11	N1	0.145800	0.881600	0.381400
C11	C1	0.401400	0.994600	0.432200
C21	C2	0.312800	0.089200	0.260500
C31	C3	0.355200	0.043000	0.348800
H11	H1	0.401000	0.079900	0.342200
C41	C4	0.341500	0.991600	0.393600
C51	C5	0.272900	0.937200	0.404100
H21	H2	0.264300	0.902200	0.433200
C61	C6	0.217000	0.935000	0.371100
C71	C7	0.230700	0.985900	0.325600
H31	H3	0.193700	0.984500	0.303000
C81	C8	0.299300	0.038500	0.314000
C91	C9	0.121900	0.823900	0.420800
C101	C10	0.087400	0.882000	0.346700
H41	H4	0.091000	0.876100	0.302100
H51	H5	0.086500	0.925400	0.354000
C111	C11	0.023400	0.819500	0.374200
C121	C12	0.044000	0.786800	0.416800
C131	C13	0.995600	0.725900	0.447300
H61	H6	0.010400	0.703400	0.475400
C141	C14	0.925700	0.699700	0.435400
H71	H7	0.891900	0.659300	0.455900
C151	C15	0.904900	0.733500	0.392300
H81	H8	0.857000	0.714600	0.384200
C161	C16	0.952300	0.793200	0.361600
H91	H9	0.937500	0.815500	0.333300
Cu21	Cu2	0.204200	0.401180	0.822560
O61	O6	0.123770	0.387430	0.769460
O71	O7	0.057770	0.272630	0.791410
O81	O8	0.042470	0.467230	0.583400
O91	O9	0.926670	0.414930	0.564440
O101	O10	0.824570	0.140530	0.785230
N21	N2	0.812470	0.214930	0.714730
C171	C17	0.068070	0.327930	0.765530
C181	C18	0.979470	0.422530	0.593830
C191	C19	0.021870	0.376330	0.682130
H101	H10	0.067670	0.413230	0.675530
C201	C20	0.008170	0.324930	0.726930
C211	C21	0.939570	0.270530	0.737430
H111	H11	0.930970	0.235530	0.766530
C221	C22	0.883670	0.268330	0.704430
C231	C23	0.897370	0.319230	0.658930
H121	H12	0.860370	0.317830	0.636330
C241	C24	0.965970	0.371830	0.647330
C251	C25	0.788570	0.157230	0.754130
C261	C26	0.754070	0.215330	0.680030
H131	H13	0.757670	0.209430	0.635430
H141	H14	0.753170	0.258730	0.687330
C271	C27	0.690070	0.152830	0.707530
C281	C28	0.710670	0.120130	0.750130
C291	C29	0.662270	0.059230	0.780630
H151	H15	0.677070	0.036730	0.808730
C301	C30	0.592370	0.033030	0.768730
H161	H16	0.558570	0.992630	0.789230
C311	C31	0.571570	0.066830	0.725630
H171	H17	0.523670	0.047930	0.717530
C321	C32	0.618970	0.126530	0.694930
H181	H18	0.604170	0.148830	0.666630
Cu31	Cu3	0.870860	0.734520	0.155900
O111	O11	0.790430	0.720770	0.102800
O121	O12	0.724430	0.605970	0.124750
O131	O13	0.709130	0.800570	0.916740
O141	O14	0.593330	0.748270	0.897780
O151	O15	0.491230	0.473870	0.118570
N31	N3	0.479130	0.548270	0.048070
C331	C33	0.734730	0.661270	0.098870
C341	C34	0.646130	0.755870	0.927170
C351	C35	0.688530	0.709670	0.015470
H191	H19	0.734330	0.746570	0.008870
C361	C36	0.674830	0.658270	0.060270
C371	C37	0.606230	0.603870	0.070770
H201	H20	0.597630	0.568870	0.099870
C381	C38	0.550330	0.601670	0.037770
C391	C39	0.564030	0.652570	0.992270
H211	H21	0.527030	0.651170	0.969670
C401	C40	0.632630	0.705170	0.980670
C411	C41	0.455230	0.490570	0.087470
C421	C42	0.420730	0.548670	0.013370
H221	H22	0.424330	0.542770	0.968770
H231	H23	0.419830	0.592070	0.020670
C431	C43	0.356730	0.486170	0.040870
C441	C44	0.377330	0.453470	0.083470
C451	C45	0.328930	0.392570	0.113970
H241	H24	0.343730	0.370070	0.142070
C461	C46	0.259030	0.366370	0.102070
H251	H25	0.225230	0.325970	0.122570
C471	C47	0.238230	0.400170	0.058970
H261	H26	0.190330	0.381270	0.050870
C481	C48	0.285630	0.459870	0.028270
H271	H27	0.270830	0.482170	0.999970
Cu41	Cu4	0.932150	0.469680	0.489230
O161	O16	0.945900	0.403000	0.436130
O171	O17	0.060700	0.451800	0.458080
O181	O18	0.866100	0.241900	0.250070
O191	O19	0.918400	0.178400	0.231110
O201	O20	0.192800	0.350700	0.451900
N41	N4	0.118400	0.264200	0.381400
C491	C49	0.005400	0.406800	0.432200
C501	C50	0.910800	0.223600	0.260500
C511	C51	0.957000	0.312200	0.348800
H281	H28	0.920100	0.321100	0.342200
C521	C52	0.008400	0.349900	0.393600
C531	C53	0.062800	0.335700	0.404100
H291	H29	0.097800	0.362100	0.433200
C541	C54	0.065000	0.282000	0.371100
C551	C55	0.014100	0.244800	0.325600
H301	H30	0.015500	0.209200	0.303000
C561	C56	0.961500	0.260800	0.314000
C571	C57	0.176100	0.298000	0.420800
C581	C58	0.118000	0.205400	0.346700
H311	H31	0.123900	0.214900	0.302100
H321	H32	0.074600	0.161100	0.354000
C591	C59	0.180500	0.203900	0.374200
C601	C60	0.213200	0.257200	0.416800
C611	C61	0.274100	0.269700	0.447300
H331	H33	0.296600	0.307000	0.475400
C621	C62	0.300300	0.226000	0.435400
H341	H34	0.340700	0.232600	0.455900
C631	C63	0.266500	0.171400	0.392300
H351	H35	0.285400	0.142400	0.384200
C641	C64	0.206800	0.159100	0.361600
H361	H36	0.184500	0.122000	0.333300
Cu51	Cu5	0.598820	0.803010	0.822560
O211	O21	0.612570	0.736330	0.769460
O221	O22	0.727370	0.785130	0.791410
O231	O23	0.532770	0.575230	0.583400
O241	O24	0.585070	0.511730	0.564440
O251	O25	0.859470	0.684030	0.785230
N51	N5	0.785070	0.597530	0.714730
C651	C65	0.672070	0.740130	0.765530
C661	C66	0.577470	0.556930	0.593830
C671	C67	0.623670	0.645530	0.682130
H371	H37	0.586770	0.654430	0.675530
C681	C68	0.675070	0.683230	0.726930
C691	C69	0.729470	0.669030	0.737430
H381	H38	0.764470	0.695430	0.766530
C701	C70	0.731670	0.615330	0.704430
C711	C71	0.680770	0.578130	0.658930
H391	H39	0.682170	0.542530	0.636330
C721	C72	0.628170	0.594130	0.647330
C731	C73	0.842770	0.631330	0.754130
C741	C74	0.784670	0.538730	0.680030
H401	H40	0.790570	0.548230	0.635430
H411	H41	0.741270	0.494430	0.687330
C751	C75	0.847170	0.537230	0.707530
C761	C76	0.879870	0.590530	0.750130
C771	C77	0.940770	0.603030	0.780630
H421	H42	0.963270	0.640330	0.808730
C781	C78	0.966970	0.559330	0.768730
H431	H43	0.007370	0.565930	0.789230
C791	C79	0.933170	0.504730	0.725630
H441	H44	0.952070	0.475730	0.717530
C801	C80	0.873470	0.492430	0.694930
H451	H45	0.851170	0.455330	0.666630
Cu61	Cu6	0.265480	0.136350	0.155900
O261	O26	0.279230	0.069670	0.102800
O271	O27	0.394030	0.118470	0.124750
O281	O28	0.199430	0.908570	0.916740
O291	O29	0.251730	0.845070	0.897780
O301	O30	0.526130	0.017370	0.118570
N61	N6	0.451730	0.930870	0.048070
C811	C81	0.338730	0.073470	0.098870
C821	C82	0.244130	0.890270	0.927170
C831	C83	0.290330	0.978870	0.015470
H461	H46	0.253430	0.987770	0.008870
C841	C84	0.341730	0.016570	0.060270
C851	C85	0.396130	0.002370	0.070770
H471	H47	0.431130	0.028770	0.099870
C861	C86	0.398330	0.948670	0.037770
C871	C87	0.347430	0.911470	0.992270
H481	H48	0.348830	0.875870	0.969670
C881	C88	0.294830	0.927470	0.980670
C891	C89	0.509430	0.964670	0.087470
C901	C90	0.451330	0.872070	0.013370
H491	H49	0.457230	0.881570	0.968770
H501	H50	0.407930	0.827770	0.020670
C911	C91	0.513830	0.870570	0.040870
C921	C92	0.546530	0.923870	0.083470
C931	C93	0.607430	0.936370	0.113970
H511	H51	0.629930	0.973670	0.142070
C941	C94	0.633630	0.892670	0.102070
H521	H52	0.674030	0.899270	0.122570
C951	C95	0.599830	0.838070	0.058970
H531	H53	0.618730	0.809070	0.050870
C961	C96	0.540130	0.825770	0.028270
H541	H54	0.517830	0.788670	0.999970
Cu71	Cu7	0.530320	0.462470	0.489230
O311	O31	0.597000	0.542900	0.436130
O321	O32	0.548200	0.608900	0.458080
O331	O33	0.758100	0.624200	0.250070
O341	O34	0.821600	0.740000	0.231110
O351	O35	0.649300	0.842100	0.451900
N71	N7	0.735800	0.854200	0.381400
C971	C97	0.593200	0.598600	0.432200
C981	C98	0.776400	0.687200	0.260500
C991	C99	0.687800	0.644800	0.348800
H551	H55	0.678900	0.599000	0.342200
C1001	C100	0.650100	0.658500	0.393600
C1011	C101	0.664300	0.727100	0.404100
H561	H56	0.637900	0.735700	0.433200
C1021	C102	0.718000	0.783000	0.371100
C1031	C103	0.755200	0.769300	0.325600
H571	H57	0.790800	0.806300	0.303000
C1041	C104	0.739200	0.700700	0.314000
C1051	C105	0.702000	0.878100	0.420800
C1061	C106	0.794600	0.912600	0.346700
H581	H58	0.785100	0.909000	0.302100
H591	H59	0.838900	0.913500	0.354000
C1071	C107	0.796100	0.976600	0.374200
C1081	C108	0.742800	0.956000	0.416800
C1091	C109	0.730300	0.004400	0.447300
H601	H60	0.693000	0.989600	0.475400
C1101	C110	0.774000	0.074300	0.435400
H611	H61	0.767400	0.108100	0.455900
C1111	C111	0.828600	0.095100	0.392300
H621	H62	0.857600	0.143000	0.384200
C1121	C112	0.840900	0.047700	0.361600
H631	H63	0.878000	0.062500	0.333300
Cu81	Cu8	0.196990	0.795800	0.822560
O361	O36	0.263670	0.876230	0.769460
O371	O37	0.214870	0.942230	0.791410
O381	O38	0.424770	0.957530	0.583400
O391	O39	0.488270	0.073330	0.564440
O401	O40	0.315970	0.175430	0.785230
N81	N8	0.402470	0.187530	0.714730
C1131	C113	0.259870	0.931930	0.765530
C1141	C114	0.443070	0.020530	0.593830
C1151	C115	0.354470	0.978130	0.682130
H641	H64	0.345570	0.932330	0.675530
C1161	C116	0.316770	0.991830	0.726930
C1171	C117	0.330970	0.060430	0.737430
H651	H65	0.304570	0.069030	0.766530
C1181	C118	0.384670	0.116330	0.704430
C1191	C119	0.421870	0.102630	0.658930
H661	H66	0.457470	0.139630	0.636330
C1201	C120	0.405870	0.034030	0.647330
C1211	C121	0.368670	0.211430	0.754130
C1221	C122	0.461270	0.245930	0.680030
H671	H67	0.451770	0.242330	0.635430
H681	H68	0.505570	0.246830	0.687330
C1231	C123	0.462770	0.309930	0.707530
C1241	C124	0.409470	0.289330	0.750130
C1251	C125	0.396970	0.337730	0.780630
H691	H69	0.359670	0.322930	0.808730
C1261	C126	0.440670	0.407630	0.768730
H701	H70	0.434070	0.441430	0.789230
C1271	C127	0.495270	0.428430	0.725630
H711	H71	0.524270	0.476330	0.717530
C1281	C128	0.507570	0.381030	0.694930
H721	H72	0.544670	0.395830	0.666630
Cu91	Cu9	0.863650	0.129140	0.155900
O411	O41	0.930330	0.209570	0.102800
O421	O42	0.881530	0.275570	0.124750
O431	O43	0.091430	0.290870	0.916740
O441	O44	0.154930	0.406670	0.897780
O451	O45	0.982630	0.508770	0.118570
N91	N9	0.069130	0.520870	0.048070
C1291	C129	0.926530	0.265270	0.098870
C1301	C130	0.109730	0.353870	0.927170
C1311	C131	0.021130	0.311470	0.015470
H731	H73	0.012230	0.265670	0.008870
C1321	C132	0.983430	0.325170	0.060270
C1331	C133	0.997630	0.393770	0.070770
H741	H74	0.971230	0.402370	0.099870
C1341	C134	0.051330	0.449670	0.037770
C1351	C135	0.088530	0.435970	0.992270
H751	H75	0.124130	0.472970	0.969670
C1361	C136	0.072530	0.367370	0.980670
C1371	C137	0.035330	0.544770	0.087470
C1381	C138	0.127930	0.579270	0.013370
H761	H76	0.118430	0.575670	0.968770
H771	H77	0.172230	0.580170	0.020670
C1391	C139	0.129430	0.643270	0.040870
C1401	C140	0.076130	0.622670	0.083470
C1411	C141	0.063630	0.671070	0.113970
H781	H78	0.026330	0.656270	0.142070
C1421	C142	0.107330	0.740970	0.102070
H791	H79	0.100730	0.774770	0.122570
C1431	C143	0.161930	0.761770	0.058970
H801	H80	0.190930	0.809670	0.050870
C1441	C144	0.174230	0.714370	0.028270
H811	H81	0.211330	0.729170	0.999970
Cu101	Cu10	0.462470	0.932150	0.510770
O461	O46	0.542900	0.945900	0.563870
O471	O47	0.608900	0.060700	0.541920
O481	O48	0.624200	0.866100	0.749930
O491	O49	0.740000	0.918400	0.768890
O501	O50	0.842100	0.192800	0.548100
N101	N10	0.854200	0.118400	0.618600
C1451	C145	0.598600	0.005400	0.567800
C1461	C146	0.687200	0.910800	0.739500
C1471	C147	0.644800	0.957000	0.651200
H821	H82	0.599000	0.920100	0.657800
C1481	C148	0.658500	0.008400	0.606400
C1491	C149	0.727100	0.062800	0.595900
H831	H83	0.735700	0.097800	0.566800
C1501	C150	0.783000	0.065000	0.628900
C1511	C151	0.769300	0.014100	0.674400
H841	H84	0.806300	0.015500	0.697000
C1521	C152	0.700700	0.961500	0.686000
C1531	C153	0.878100	0.176100	0.579200
C1541	C154	0.912600	0.118000	0.653300
H851	H85	0.909000	0.123900	0.697900
H861	H86	0.913500	0.074600	0.646000
C1551	C155	0.976600	0.180500	0.625800
C1561	C156	0.956000	0.213200	0.583200
C1571	C157	0.004400	0.274100	0.552700
H871	H87	0.989600	0.296600	0.524600
C1581	C158	0.074300	0.300300	0.564600
H881	H88	0.108100	0.340700	0.544100
C1591	C159	0.095100	0.266500	0.607700
H891	H89	0.143000	0.285400	0.615800
C1601	C160	0.047700	0.206800	0.638400
H901	H90	0.062500	0.184500	0.666700
Cu111	Cu11	0.129140	0.265480	0.844100
O511	O51	0.209570	0.279230	0.897200
O521	O52	0.275570	0.394030	0.875250
O531	O53	0.290870	0.199430	0.083260
O541	O54	0.406670	0.251730	0.102220
O551	O55	0.508770	0.526130	0.881430
N111	N11	0.520870	0.451730	0.951930
C1611	C161	0.265270	0.338730	0.901130
C1621	C162	0.353870	0.244130	0.072830
C1631	C163	0.311470	0.290330	0.984530
H911	H91	0.265670	0.253430	0.991130
C1641	C164	0.325170	0.341730	0.939730
C1651	C165	0.393770	0.396130	0.929230
H921	H92	0.402370	0.431130	0.900130
C1661	C166	0.449670	0.398330	0.962230
C1671	C167	0.435970	0.347430	0.007730
H931	H93	0.472970	0.348830	0.030330
C1681	C168	0.367370	0.294830	0.019330
C1691	C169	0.544770	0.509430	0.912530
C1701	C170	0.579270	0.451330	0.986630
H941	H94	0.575670	0.457230	0.031230
H951	H95	0.580170	0.407930	0.979330
C1711	C171	0.643270	0.513830	0.959130
C1721	C172	0.622670	0.546530	0.916530
C1731	C173	0.671070	0.607430	0.886030
H961	H96	0.656270	0.629930	0.857930
C1741	C174	0.740970	0.633630	0.897930
H971	H97	0.774770	0.674030	0.877430
C1751	C175	0.761770	0.599830	0.941030
H981	H98	0.809670	0.618730	0.949130
C1761	C176	0.714370	0.540130	0.971730
H991	H99	0.729170	0.517830	0.000030
Cu121	Cu12	0.795800	0.598820	0.177440
O561	O56	0.876230	0.612570	0.230540
O571	O57	0.942230	0.727370	0.208590
O581	O58	0.957530	0.532770	0.416600
O591	O59	0.073330	0.585070	0.435560
O601	O60	0.175430	0.859470	0.214770
N121	N12	0.187530	0.785070	0.285270
C1771	C177	0.931930	0.672070	0.234470
C1781	C178	0.020530	0.577470	0.406170
C1791	C179	0.978130	0.623670	0.317870
H1001	H100	0.932330	0.586770	0.324470
C1801	C180	0.991830	0.675070	0.273070
C1811	C181	0.060430	0.729470	0.262570
H1011	H101	0.069030	0.764470	0.233470
C1821	C182	0.116330	0.731670	0.295570
C1831	C183	0.102630	0.680770	0.341070
H1021	H102	0.139630	0.682170	0.363670
C1841	C184	0.034030	0.628170	0.352670
C1851	C185	0.211430	0.842770	0.245870
C1861	C186	0.245930	0.784670	0.319970
H1031	H103	0.242330	0.790570	0.364570
H1041	H104	0.246830	0.741270	0.312670
C1871	C187	0.309930	0.847170	0.292470
C1881	C188	0.289330	0.879870	0.249870
C1891	C189	0.337730	0.940770	0.219370
H1051	H105	0.322930	0.963270	0.191270
C1901	C190	0.407630	0.966970	0.231270
H1061	H106	0.441430	0.007370	0.210770
C1911	C191	0.428430	0.933170	0.274370
H1071	H107	0.476330	0.952070	0.282470
C1921	C192	0.381030	0.873470	0.305070
H1081	H108	0.395830	0.851170	0.333370
Cu131	Cu13	0.067850	0.530320	0.510770
O611	O61	0.054100	0.597000	0.563870
O621	O62	0.939300	0.548200	0.541920
O631	O63	0.133900	0.758100	0.749930
O641	O64	0.081600	0.821600	0.768890
O651	O65	0.807200	0.649300	0.548100
N131	N13	0.881600	0.735800	0.618600
C1931	C193	0.994600	0.593200	0.567800
C1941	C194	0.089200	0.776400	0.739500
C1951	C195	0.043000	0.687800	0.651200
H1091	H109	0.079900	0.678900	0.657800
C1961	C196	0.991600	0.650100	0.606400
C1971	C197	0.937200	0.664300	0.595900
H1101	H110	0.902200	0.637900	0.566800
C1981	C198	0.935000	0.718000	0.628900
C1991	C199	0.985900	0.755200	0.674400
H1111	H111	0.984500	0.790800	0.697000
C2001	C200	0.038500	0.739200	0.686000
C2011	C201	0.823900	0.702000	0.579200
C2021	C202	0.882000	0.794600	0.653300
H1121	H112	0.876100	0.785100	0.697900
H1131	H113	0.925400	0.838900	0.646000
C2031	C203	0.819500	0.796100	0.625800
C2041	C204	0.786800	0.742800	0.583200
C2051	C205	0.725900	0.730300	0.552700
H1141	H114	0.703400	0.693000	0.524600
C2061	C206	0.699700	0.774000	0.564600
H1151	H115	0.659300	0.767400	0.544100
C2071	C207	0.733500	0.828600	0.607700
H1161	H116	0.714600	0.857600	0.615800
C2081	C208	0.793200	0.840900	0.638400
H1171	H117	0.815500	0.878000	0.666700
Cu141	Cu14	0.734520	0.863650	0.844100
O661	O66	0.720770	0.930330	0.897200
O671	O67	0.605970	0.881530	0.875250
O681	O68	0.800570	0.091430	0.083260
O691	O69	0.748270	0.154930	0.102220
O701	O70	0.473870	0.982630	0.881430
N141	N14	0.548270	0.069130	0.951930
C2091	C209	0.661270	0.926530	0.901130
C2101	C210	0.755870	0.109730	0.072830
C2111	C211	0.709670	0.021130	0.984530
H1181	H118	0.746570	0.012230	0.991130
C2121	C212	0.658270	0.983430	0.939730
C2131	C213	0.603870	0.997630	0.929230
H1191	H119	0.568870	0.971230	0.900130
C2141	C214	0.601670	0.051330	0.962230
C2151	C215	0.652570	0.088530	0.007730
H1201	H120	0.651170	0.124130	0.030330
C2161	C216	0.705170	0.072530	0.019330
C2171	C217	0.490570	0.035330	0.912530
C2181	C218	0.548670	0.127930	0.986630
H1211	H121	0.542770	0.118430	0.031230
H1221	H122	0.592070	0.172230	0.979330
C2191	C219	0.486170	0.129430	0.959130
C2201	C220	0.453470	0.076130	0.916530
C2211	C221	0.392570	0.063630	0.886030
H1231	H123	0.370070	0.026330	0.857930
C2221	C222	0.366370	0.107330	0.897930
H1241	H124	0.325970	0.100730	0.877430
C2231	C223	0.400170	0.161930	0.941030
H1251	H125	0.381270	0.190930	0.949130
C2241	C224	0.459870	0.174230	0.971730
H1261	H126	0.482170	0.211330	0.000030
Cu151	Cu15	0.401180	0.196990	0.177440
O711	O71	0.387430	0.263670	0.230540
O721	O72	0.272630	0.214870	0.208590
O731	O73	0.467230	0.424770	0.416600
O741	O74	0.414930	0.488270	0.435560
O751	O75	0.140530	0.315970	0.214770
N151	N15	0.214930	0.402470	0.285270
C2251	C225	0.327930	0.259870	0.234470
C2261	C226	0.422530	0.443070	0.406170
C2271	C227	0.376330	0.354470	0.317870
H1271	H127	0.413230	0.345570	0.324470
C2281	C228	0.324930	0.316770	0.273070
C2291	C229	0.270530	0.330970	0.262570
H1281	H128	0.235530	0.304570	0.233470
C2301	C230	0.268330	0.384670	0.295570
C2311	C231	0.319230	0.421870	0.341070
H1291	H129	0.317830	0.457470	0.363670
C2321	C232	0.371830	0.405870	0.352670
C2331	C233	0.157230	0.368670	0.245870
C2341	C234	0.215330	0.461270	0.319970
H1301	H130	0.209430	0.451770	0.364570
H1311	H131	0.258730	0.505570	0.312670
C2351	C235	0.152830	0.462770	0.292470
C2361	C236	0.120130	0.409470	0.249870
C2371	C237	0.059230	0.396970	0.219370
H1321	H132	0.036730	0.359670	0.191270
C2381	C238	0.033030	0.440670	0.231270
H1331	H133	0.992630	0.434070	0.210770
C2391	C239	0.066830	0.495270	0.274370
H1341	H134	0.047930	0.524270	0.282470
C2401	C240	0.126530	0.507570	0.305070
H1351	H135	0.148830	0.544670	0.333370
Cu161	Cu16	0.469680	0.537530	0.510770
O761	O76	0.403000	0.457100	0.563870
O771	O77	0.451800	0.391100	0.541920
O781	O78	0.241900	0.375800	0.749930
O791	O79	0.178400	0.260000	0.768890
O801	O80	0.350700	0.157900	0.548100
N161	N16	0.264200	0.145800	0.618600
C2411	C241	0.406800	0.401400	0.567800
C2421	C242	0.223600	0.312800	0.739500
C2431	C243	0.312200	0.355200	0.651200
H1361	H136	0.321100	0.401000	0.657800
C2441	C244	0.349900	0.341500	0.606400
C2451	C245	0.335700	0.272900	0.595900
H1371	H137	0.362100	0.264300	0.566800
C2461	C246	0.282000	0.217000	0.628900
C2471	C247	0.244800	0.230700	0.674400
H1381	H138	0.209200	0.193700	0.697000
C2481	C248	0.260800	0.299300	0.686000
C2491	C249	0.298000	0.121900	0.579200
C2501	C250	0.205400	0.087400	0.653300
H1391	H139	0.214900	0.091000	0.697900
H1401	H140	0.161100	0.086500	0.646000
C2511	C251	0.203900	0.023400	0.625800
C2521	C252	0.257200	0.044000	0.583200
C2531	C253	0.269700	0.995600	0.552700
H1411	H141	0.307000	0.010400	0.524600
C2541	C254	0.226000	0.925700	0.564600
H1421	H142	0.232600	0.891900	0.544100
C2551	C255	0.171400	0.904900	0.607700
H1431	H143	0.142400	0.857000	0.615800
C2561	C256	0.159100	0.952300	0.638400
H1441	H144	0.122000	0.937500	0.666700
Cu171	Cu17	0.136350	0.870860	0.844100
O811	O81	0.069670	0.790430	0.897200
O821	O82	0.118470	0.724430	0.875250
O831	O83	0.908570	0.709130	0.083260
O841	O84	0.845070	0.593330	0.102220
O851	O85	0.017370	0.491230	0.881430
N171	N17	0.930870	0.479130	0.951930
C2571	C257	0.073470	0.734730	0.901130
C2581	C258	0.890270	0.646130	0.072830
C2591	C259	0.978870	0.688530	0.984530
H1451	H145	0.987770	0.734330	0.991130
C2601	C260	0.016570	0.674830	0.939730
C2611	C261	0.002370	0.606230	0.929230
H1461	H146	0.028770	0.597630	0.900130
C2621	C262	0.948670	0.550330	0.962230
C2631	C263	0.911470	0.564030	0.007730
H1471	H147	0.875870	0.527030	0.030330
C2641	C264	0.927470	0.632630	0.019330
C2651	C265	0.964670	0.455230	0.912530
C2661	C266	0.872070	0.420730	0.986630
H1481	H148	0.881570	0.424330	0.031230
H1491	H149	0.827770	0.419830	0.979330
C2671	C267	0.870570	0.356730	0.959130
C2681	C268	0.923870	0.377330	0.916530
C2691	C269	0.936370	0.328930	0.886030
H1501	H150	0.973670	0.343730	0.857930
C2701	C270	0.892670	0.259030	0.897930
H1511	H151	0.899270	0.225230	0.877430
C2711	C271	0.838070	0.238230	0.941030
H1521	H152	0.809070	0.190330	0.949130
C2721	C272	0.825770	0.285630	0.971730
H1531	H153	0.788670	0.270830	0.000030
Cu181	Cu18	0.803010	0.204200	0.177440
O861	O86	0.736330	0.123770	0.230540
O871	O87	0.785130	0.057770	0.208590
O881	O88	0.575230	0.042470	0.416600
O891	O89	0.511730	0.926670	0.435560
O901	O90	0.684030	0.824570	0.214770
N181	N18	0.597530	0.812470	0.285270
C2731	C273	0.740130	0.068070	0.234470
C2741	C274	0.556930	0.979470	0.406170
C2751	C275	0.645530	0.021870	0.317870
H1541	H154	0.654430	0.067670	0.324470
C2761	C276	0.683230	0.008170	0.273070
C2771	C277	0.669030	0.939570	0.262570
H1551	H155	0.695430	0.930970	0.233470
C2781	C278	0.615330	0.883670	0.295570
C2791	C279	0.578130	0.897370	0.341070
H1561	H156	0.542530	0.860370	0.363670
C2801	C280	0.594130	0.965970	0.352670
C2811	C281	0.631330	0.788570	0.245870
C2821	C282	0.538730	0.754070	0.319970
H1571	H157	0.548230	0.757670	0.364570
H1581	H158	0.494430	0.753170	0.312670
C2831	C283	0.537230	0.690070	0.292470
C2841	C284	0.590530	0.710670	0.249870
C2851	C285	0.603030	0.662270	0.219370
H1591	H159	0.640330	0.677070	0.191270
C2861	C286	0.559330	0.592370	0.231270
H1601	H160	0.565930	0.558570	0.210770
C2871	C287	0.504730	0.571570	0.274370
H1611	H161	0.475730	0.523670	0.282470
C2881	C288	0.492430	0.618970	0.305070
H1621	H162	0.455330	0.604170	0.333370
