data_EPEYAB_clean_PM
_symmetry_space_group_name_H-M	'P1'
_cell_length_a	21.249800
_cell_length_b	21.249800
_cell_length_c	22.014700
_cell_angle_alpha	90.000000
_cell_angle_beta	90.000000
_cell_angle_gamma	120.000000
_symmetry_Int_Tables_number 1

loop_
_symmetry_equiv_pos_as_xyz
'x,y,z'

loop_
_atom_site_label
_atom_site_type_symbol
_atom_site_fract_x
_atom_site_fract_y
_atom_site_fract_z
Cu11	Cu1	0.460070	0.530390	0.009800
O11	O1	0.541930	0.599210	0.062000
O21	O2	0.611330	0.550700	0.041790
O31	O3	0.739300	0.820890	0.270280
O41	O4	0.620260	0.753590	0.252600
O51	O5	0.845700	0.652700	0.048500
N11	N1	0.859600	0.739100	0.120400
C11	C1	0.599200	0.596000	0.066830
C21	C2	0.684800	0.773800	0.240770
C31	C3	0.700000	0.739100	0.187900
C41	C4	0.643300	0.687600	0.152000
H11	H1	0.595800	0.676800	0.159000
C51	C5	0.658600	0.653200	0.106100
C61	C6	0.729900	0.668300	0.096200
H21	H2	0.739400	0.643100	0.066400
C71	C7	0.786700	0.720900	0.130900
C81	C8	0.771200	0.756800	0.176700
H31	H3	0.808700	0.792600	0.199700
C91	C9	0.881500	0.704700	0.078400
C101	C10	0.920300	0.795600	0.153900
H41	H4	0.916200	0.784300	0.196900
H51	H5	0.923300	0.842300	0.148300
C111	C11	0.984200	0.795300	0.126800
C121	C12	0.962100	0.743000	0.083100
C131	C13	0.010100	0.728000	0.052000
H61	H6	0.993800	0.691300	0.023000
C141	C14	0.082800	0.770000	0.066000
H71	H7	0.116700	0.762400	0.045400
C151	C15	0.105900	0.823000	0.109900
H81	H8	0.155200	0.850200	0.118700
C161	C16	0.058200	0.837100	0.141400
H91	H9	0.074400	0.873000	0.171100
Cu21	Cu2	0.126740	0.863720	0.343130
O61	O6	0.208600	0.932540	0.395330
O71	O7	0.278000	0.884030	0.375120
O81	O8	0.405970	0.154220	0.603610
O91	O9	0.286930	0.086920	0.585930
O101	O10	0.512370	0.986030	0.381830
N21	N2	0.526270	0.072430	0.453730
C171	C17	0.265870	0.929330	0.400160
C181	C18	0.351470	0.107130	0.574100
C191	C19	0.366670	0.072430	0.521230
C201	C20	0.309970	0.020930	0.485330
H101	H10	0.262470	0.010130	0.492330
C211	C21	0.325270	0.986530	0.439430
C221	C22	0.396570	0.001630	0.429530
H111	H11	0.406070	0.976430	0.399730
C231	C23	0.453370	0.054230	0.464230
C241	C24	0.437870	0.090130	0.510030
H121	H12	0.475370	0.125930	0.533030
C251	C25	0.548170	0.038030	0.411730
C261	C26	0.586970	0.128930	0.487230
H131	H13	0.582870	0.117630	0.530230
H141	H14	0.589970	0.175630	0.481630
C271	C27	0.650870	0.128630	0.460130
C281	C28	0.628770	0.076330	0.416430
C291	C29	0.676770	0.061330	0.385330
H151	H15	0.660470	0.024630	0.356330
C301	C30	0.749470	0.103330	0.399330
H161	H16	0.783370	0.095730	0.378730
C311	C31	0.772570	0.156330	0.443230
H171	H17	0.821870	0.183530	0.452030
C321	C32	0.724870	0.170430	0.474730
H181	H18	0.741070	0.206330	0.504430
Cu31	Cu3	0.793400	0.197060	0.676470
O111	O11	0.875260	0.265880	0.728670
O121	O12	0.944660	0.217370	0.708460
O131	O13	0.072630	0.487560	0.936950
O141	O14	0.953590	0.420260	0.919270
O151	O15	0.179030	0.319370	0.715170
N31	N3	0.192930	0.405770	0.787070
C331	C33	0.932530	0.262670	0.733500
C341	C34	0.018130	0.440470	0.907440
C351	C35	0.033330	0.405770	0.854570
C361	C36	0.976630	0.354270	0.818670
H191	H19	0.929130	0.343470	0.825670
C371	C37	0.991930	0.319870	0.772770
C381	C38	0.063230	0.334970	0.762870
H201	H20	0.072730	0.309770	0.733070
C391	C39	0.120030	0.387570	0.797570
C401	C40	0.104530	0.423470	0.843370
H211	H21	0.142030	0.459270	0.866370
C411	C41	0.214830	0.371370	0.745070
C421	C42	0.253630	0.462270	0.820570
H221	H22	0.249530	0.450970	0.863570
H231	H23	0.256630	0.508970	0.814970
C431	C43	0.317530	0.461970	0.793470
C441	C44	0.295430	0.409670	0.749770
C451	C45	0.343430	0.394670	0.718670
H241	H24	0.327130	0.357970	0.689670
C461	C46	0.416130	0.436670	0.732670
H251	H25	0.450030	0.429070	0.712070
C471	C47	0.439230	0.489670	0.776570
H261	H26	0.488530	0.516870	0.785370
C481	C48	0.391530	0.503770	0.808070
H271	H27	0.407730	0.539670	0.837770
Cu41	Cu4	0.469610	0.929680	0.009800
O161	O16	0.400790	0.942720	0.062000
O171	O17	0.449300	0.060630	0.041790
O181	O18	0.179110	0.918410	0.270280
O191	O19	0.246410	0.866670	0.252600
O201	O20	0.347300	0.193000	0.048500
N41	N4	0.260900	0.120500	0.120400
C491	C49	0.404000	0.003200	0.066830
C501	C50	0.226200	0.911000	0.240770
C511	C51	0.260900	0.960900	0.187900
C521	C52	0.312400	0.955700	0.152000
H281	H28	0.323200	0.919000	0.159000
C531	C53	0.346800	0.005400	0.106100
C541	C54	0.331700	0.061600	0.096200
H291	H29	0.356900	0.096300	0.066400
C551	C55	0.279100	0.065800	0.130900
C561	C56	0.243200	0.014400	0.176700
H301	H30	0.207400	0.016100	0.199700
C571	C57	0.295300	0.176800	0.078400
C581	C58	0.204400	0.124700	0.153900
H311	H31	0.215700	0.131900	0.196900
H321	H32	0.157700	0.081000	0.148300
C591	C59	0.204700	0.188900	0.126800
C601	C60	0.257000	0.219100	0.083100
C611	C61	0.272000	0.282100	0.052000
H331	H33	0.308700	0.302500	0.023000
C621	C62	0.230000	0.312800	0.066000
H341	H34	0.237600	0.354300	0.045400
C631	C63	0.177000	0.282900	0.109900
H351	H35	0.149800	0.305000	0.118700
C641	C64	0.162900	0.221100	0.141400
H361	H36	0.127000	0.201400	0.171100
Cu51	Cu5	0.136280	0.263010	0.343130
O211	O21	0.067460	0.276050	0.395330
O221	O22	0.115970	0.393960	0.375120
O231	O23	0.845780	0.251740	0.603610
O241	O24	0.913080	0.200000	0.585930
O251	O25	0.013970	0.526330	0.381830
N51	N5	0.927570	0.453830	0.453730
C651	C65	0.070670	0.336530	0.400160
C661	C66	0.892870	0.244330	0.574100
C671	C67	0.927570	0.294230	0.521230
C681	C68	0.979070	0.289030	0.485330
H371	H37	0.989870	0.252330	0.492330
C691	C69	0.013470	0.338730	0.439430
C701	C70	0.998370	0.394930	0.429530
H381	H38	0.023570	0.429630	0.399730
C711	C71	0.945770	0.399130	0.464230
C721	C72	0.909870	0.347730	0.510030
H391	H39	0.874070	0.349430	0.533030
C731	C73	0.961970	0.510130	0.411730
C741	C74	0.871070	0.458030	0.487230
H401	H40	0.882370	0.465230	0.530230
H411	H41	0.824370	0.414330	0.481630
C751	C75	0.871370	0.522230	0.460130
C761	C76	0.923670	0.552430	0.416430
C771	C77	0.938670	0.615430	0.385330
H421	H42	0.975370	0.635830	0.356330
C781	C78	0.896670	0.646130	0.399330
H431	H43	0.904270	0.687630	0.378730
C791	C79	0.843670	0.616230	0.443230
H441	H44	0.816470	0.638330	0.452030
C801	C80	0.829570	0.554430	0.474730
H451	H45	0.793670	0.534730	0.504430
Cu61	Cu6	0.802940	0.596350	0.676470
O261	O26	0.734120	0.609390	0.728670
O271	O27	0.782630	0.727300	0.708460
O281	O28	0.512440	0.585080	0.936950
O291	O29	0.579740	0.533340	0.919270
O301	O30	0.680630	0.859670	0.715170
N61	N6	0.594230	0.787170	0.787070
C811	C81	0.737330	0.669870	0.733500
C821	C82	0.559530	0.577670	0.907440
C831	C83	0.594230	0.627570	0.854570
C841	C84	0.645730	0.622370	0.818670
H461	H46	0.656530	0.585670	0.825670
C851	C85	0.680130	0.672070	0.772770
C861	C86	0.665030	0.728270	0.762870
H471	H47	0.690230	0.762970	0.733070
C871	C87	0.612430	0.732470	0.797570
C881	C88	0.576530	0.681070	0.843370
H481	H48	0.540730	0.682770	0.866370
C891	C89	0.628630	0.843470	0.745070
C901	C90	0.537730	0.791370	0.820570
H491	H49	0.549030	0.798570	0.863570
H501	H50	0.491030	0.747670	0.814970
C911	C91	0.538030	0.855570	0.793470
C921	C92	0.590330	0.885770	0.749770
C931	C93	0.605330	0.948770	0.718670
H511	H51	0.642030	0.969170	0.689670
C941	C94	0.563330	0.979470	0.732670
H521	H52	0.570930	0.020970	0.712070
C951	C95	0.510330	0.949570	0.776570
H531	H53	0.483130	0.971670	0.785370
C961	C96	0.496230	0.887770	0.808070
H541	H54	0.460330	0.868070	0.837770
Cu71	Cu7	0.070320	0.539930	0.009800
O311	O31	0.057280	0.458070	0.062000
O321	O32	0.939370	0.388670	0.041790
O331	O33	0.081590	0.260700	0.270280
O341	O34	0.133330	0.379740	0.252600
O351	O35	0.807000	0.154300	0.048500
N71	N7	0.879500	0.140400	0.120400
C971	C97	0.996800	0.400800	0.066830
C981	C98	0.089000	0.315200	0.240770
C991	C99	0.039100	0.300000	0.187900
C1001	C100	0.044300	0.356700	0.152000
H551	H55	0.081000	0.404200	0.159000
C1011	C101	0.994600	0.341400	0.106100
C1021	C102	0.938400	0.270100	0.096200
H561	H56	0.903700	0.260600	0.066400
C1031	C103	0.934200	0.213300	0.130900
C1041	C104	0.985600	0.228800	0.176700
H571	H57	0.983900	0.191300	0.199700
C1051	C105	0.823200	0.118500	0.078400
C1061	C106	0.875300	0.079700	0.153900
H581	H58	0.868100	0.083800	0.196900
H591	H59	0.919000	0.076700	0.148300
C1071	C107	0.811100	0.015800	0.126800
C1081	C108	0.780900	0.037900	0.083100
C1091	C109	0.717900	0.989900	0.052000
H601	H60	0.697500	0.006200	0.023000
C1101	C110	0.687200	0.917200	0.066000
H611	H61	0.645700	0.883300	0.045400
C1111	C111	0.717100	0.894100	0.109900
H621	H62	0.695000	0.844800	0.118700
C1121	C112	0.778900	0.941800	0.141400
H631	H63	0.798600	0.925600	0.171100
Cu81	Cu8	0.736990	0.873260	0.343130
O361	O36	0.723950	0.791400	0.395330
O371	O37	0.606040	0.722000	0.375120
O381	O38	0.748260	0.594030	0.603610
O391	O39	0.800000	0.713070	0.585930
O401	O40	0.473670	0.487630	0.381830
N81	N8	0.546170	0.473730	0.453730
C1131	C113	0.663470	0.734130	0.400160
C1141	C114	0.755670	0.648530	0.574100
C1151	C115	0.705770	0.633330	0.521230
C1161	C116	0.710970	0.690030	0.485330
H641	H64	0.747670	0.737530	0.492330
C1171	C117	0.661270	0.674730	0.439430
C1181	C118	0.605070	0.603430	0.429530
H651	H65	0.570370	0.593930	0.399730
C1191	C119	0.600870	0.546630	0.464230
C1201	C120	0.652270	0.562130	0.510030
H661	H66	0.650570	0.524630	0.533030
C1211	C121	0.489870	0.451830	0.411730
C1221	C122	0.541970	0.413030	0.487230
H671	H67	0.534770	0.417130	0.530230
H681	H68	0.585670	0.410030	0.481630
C1231	C123	0.477770	0.349130	0.460130
C1241	C124	0.447570	0.371230	0.416430
C1251	C125	0.384570	0.323230	0.385330
H691	H69	0.364170	0.339530	0.356330
C1261	C126	0.353870	0.250530	0.399330
H701	H70	0.312370	0.216630	0.378730
C1271	C127	0.383770	0.227430	0.443230
H711	H71	0.361670	0.178130	0.452030
C1281	C128	0.445570	0.275130	0.474730
H721	H72	0.465270	0.258930	0.504430
Cu91	Cu9	0.403650	0.206600	0.676470
O411	O41	0.390610	0.124740	0.728670
O421	O42	0.272700	0.055340	0.708460
O431	O43	0.414920	0.927370	0.936950
O441	O44	0.466660	0.046410	0.919270
O451	O45	0.140330	0.820970	0.715170
N91	N9	0.212830	0.807070	0.787070
C1291	C129	0.330130	0.067470	0.733500
C1301	C130	0.422330	0.981870	0.907440
C1311	C131	0.372430	0.966670	0.854570
C1321	C132	0.377630	0.023370	0.818670
H731	H73	0.414330	0.070870	0.825670
C1331	C133	0.327930	0.008070	0.772770
C1341	C134	0.271730	0.936770	0.762870
H741	H74	0.237030	0.927270	0.733070
C1351	C135	0.267530	0.879970	0.797570
C1361	C136	0.318930	0.895470	0.843370
H751	H75	0.317230	0.857970	0.866370
C1371	C137	0.156530	0.785170	0.745070
C1381	C138	0.208630	0.746370	0.820570
H761	H76	0.201430	0.750470	0.863570
H771	H77	0.252330	0.743370	0.814970
C1391	C139	0.144430	0.682470	0.793470
C1401	C140	0.114230	0.704570	0.749770
C1411	C141	0.051230	0.656570	0.718670
H781	H78	0.030830	0.672870	0.689670
C1421	C142	0.020530	0.583870	0.732670
H791	H79	0.979030	0.549970	0.712070
C1431	C143	0.050430	0.560770	0.776570
H801	H80	0.028330	0.511470	0.785370
C1441	C144	0.112230	0.608470	0.808070
H811	H81	0.131930	0.592270	0.837770
Cu101	Cu10	0.539930	0.469610	0.990200
O461	O46	0.458070	0.400790	0.938000
O471	O47	0.388670	0.449300	0.958210
O481	O48	0.260700	0.179110	0.729720
O491	O49	0.379740	0.246410	0.747400
O501	O50	0.154300	0.347300	0.951500
N101	N10	0.140400	0.260900	0.879600
C1451	C145	0.400800	0.404000	0.933170
C1461	C146	0.315200	0.226200	0.759230
C1471	C147	0.300000	0.260900	0.812100
C1481	C148	0.356700	0.312400	0.848000
H821	H82	0.404200	0.323200	0.841000
C1491	C149	0.341400	0.346800	0.893900
C1501	C150	0.270100	0.331700	0.903800
H831	H83	0.260600	0.356900	0.933600
C1511	C151	0.213300	0.279100	0.869100
C1521	C152	0.228800	0.243200	0.823300
H841	H84	0.191300	0.207400	0.800300
C1531	C153	0.118500	0.295300	0.921600
C1541	C154	0.079700	0.204400	0.846100
H851	H85	0.083800	0.215700	0.803100
H861	H86	0.076700	0.157700	0.851700
C1551	C155	0.015800	0.204700	0.873200
C1561	C156	0.037900	0.257000	0.916900
C1571	C157	0.989900	0.272000	0.948000
H871	H87	0.006200	0.308700	0.977000
C1581	C158	0.917200	0.230000	0.934000
H881	H88	0.883300	0.237600	0.954600
C1591	C159	0.894100	0.177000	0.890100
H891	H89	0.844800	0.149800	0.881300
C1601	C160	0.941800	0.162900	0.858600
H901	H90	0.925600	0.127000	0.828900
Cu111	Cu11	0.206600	0.802940	0.323530
O511	O51	0.124740	0.734120	0.271330
O521	O52	0.055340	0.782630	0.291540
O531	O53	0.927370	0.512440	0.063050
O541	O54	0.046410	0.579740	0.080730
O551	O55	0.820970	0.680630	0.284830
N111	N11	0.807070	0.594230	0.212930
C1611	C161	0.067470	0.737330	0.266500
C1621	C162	0.981870	0.559530	0.092560
C1631	C163	0.966670	0.594230	0.145430
C1641	C164	0.023370	0.645730	0.181330
H911	H91	0.070870	0.656530	0.174330
C1651	C165	0.008070	0.680130	0.227230
C1661	C166	0.936770	0.665030	0.237130
H921	H92	0.927270	0.690230	0.266930
C1671	C167	0.879970	0.612430	0.202430
C1681	C168	0.895470	0.576530	0.156630
H931	H93	0.857970	0.540730	0.133630
C1691	C169	0.785170	0.628630	0.254930
C1701	C170	0.746370	0.537730	0.179430
H941	H94	0.750470	0.549030	0.136430
H951	H95	0.743370	0.491030	0.185030
C1711	C171	0.682470	0.538030	0.206530
C1721	C172	0.704570	0.590330	0.250230
C1731	C173	0.656570	0.605330	0.281330
H961	H96	0.672870	0.642030	0.310330
C1741	C174	0.583870	0.563330	0.267330
H971	H97	0.549970	0.570930	0.287930
C1751	C175	0.560770	0.510330	0.223430
H981	H98	0.511470	0.483130	0.214630
C1761	C176	0.608470	0.496230	0.191930
H991	H99	0.592270	0.460330	0.162230
Cu121	Cu12	0.873260	0.136280	0.656870
O561	O56	0.791400	0.067460	0.604670
O571	O57	0.722000	0.115970	0.624880
O581	O58	0.594030	0.845780	0.396390
O591	O59	0.713070	0.913080	0.414070
O601	O60	0.487630	0.013970	0.618170
N121	N12	0.473730	0.927570	0.546270
C1771	C177	0.734130	0.070670	0.599840
C1781	C178	0.648530	0.892870	0.425900
C1791	C179	0.633330	0.927570	0.478770
C1801	C180	0.690030	0.979070	0.514670
H1001	H100	0.737530	0.989870	0.507670
C1811	C181	0.674730	0.013470	0.560570
C1821	C182	0.603430	0.998370	0.570470
H1011	H101	0.593930	0.023570	0.600270
C1831	C183	0.546630	0.945770	0.535770
C1841	C184	0.562130	0.909870	0.489970
H1021	H102	0.524630	0.874070	0.466970
C1851	C185	0.451830	0.961970	0.588270
C1861	C186	0.413030	0.871070	0.512770
H1031	H103	0.417130	0.882370	0.469770
H1041	H104	0.410030	0.824370	0.518370
C1871	C187	0.349130	0.871370	0.539870
C1881	C188	0.371230	0.923670	0.583570
C1891	C189	0.323230	0.938670	0.614670
H1051	H105	0.339530	0.975370	0.643670
C1901	C190	0.250530	0.896670	0.600670
H1061	H106	0.216630	0.904270	0.621270
C1911	C191	0.227430	0.843670	0.556770
H1071	H107	0.178130	0.816470	0.547970
C1921	C192	0.275130	0.829570	0.525270
H1081	H108	0.258930	0.793670	0.495570
Cu131	Cu13	0.530390	0.070320	0.990200
O611	O61	0.599210	0.057280	0.938000
O621	O62	0.550700	0.939370	0.958210
O631	O63	0.820890	0.081590	0.729720
O641	O64	0.753590	0.133330	0.747400
O651	O65	0.652700	0.807000	0.951500
N131	N13	0.739100	0.879500	0.879600
C1931	C193	0.596000	0.996800	0.933170
C1941	C194	0.773800	0.089000	0.759230
C1951	C195	0.739100	0.039100	0.812100
C1961	C196	0.687600	0.044300	0.848000
H1091	H109	0.676800	0.081000	0.841000
C1971	C197	0.653200	0.994600	0.893900
C1981	C198	0.668300	0.938400	0.903800
H1101	H110	0.643100	0.903700	0.933600
C1991	C199	0.720900	0.934200	0.869100
C2001	C200	0.756800	0.985600	0.823300
H1111	H111	0.792600	0.983900	0.800300
C2011	C201	0.704700	0.823200	0.921600
C2021	C202	0.795600	0.875300	0.846100
H1121	H112	0.784300	0.868100	0.803100
H1131	H113	0.842300	0.919000	0.851700
C2031	C203	0.795300	0.811100	0.873200
C2041	C204	0.743000	0.780900	0.916900
C2051	C205	0.728000	0.717900	0.948000
H1141	H114	0.691300	0.697500	0.977000
C2061	C206	0.770000	0.687200	0.934000
H1151	H115	0.762400	0.645700	0.954600
C2071	C207	0.823000	0.717100	0.890100
H1161	H116	0.850200	0.695000	0.881300
C2081	C208	0.837100	0.778900	0.858600
H1171	H117	0.873000	0.798600	0.828900
Cu141	Cu14	0.197060	0.403650	0.323530
O661	O66	0.265880	0.390610	0.271330
O671	O67	0.217370	0.272700	0.291540
O681	O68	0.487560	0.414920	0.063050
O691	O69	0.420260	0.466660	0.080730
O701	O70	0.319370	0.140330	0.284830
N141	N14	0.405770	0.212830	0.212930
C2091	C209	0.262670	0.330130	0.266500
C2101	C210	0.440470	0.422330	0.092560
C2111	C211	0.405770	0.372430	0.145430
C2121	C212	0.354270	0.377630	0.181330
H1181	H118	0.343470	0.414330	0.174330
C2131	C213	0.319870	0.327930	0.227230
C2141	C214	0.334970	0.271730	0.237130
H1191	H119	0.309770	0.237030	0.266930
C2151	C215	0.387570	0.267530	0.202430
C2161	C216	0.423470	0.318930	0.156630
H1201	H120	0.459270	0.317230	0.133630
C2171	C217	0.371370	0.156530	0.254930
C2181	C218	0.462270	0.208630	0.179430
H1211	H121	0.450970	0.201430	0.136430
H1221	H122	0.508970	0.252330	0.185030
C2191	C219	0.461970	0.144430	0.206530
C2201	C220	0.409670	0.114230	0.250230
C2211	C221	0.394670	0.051230	0.281330
H1231	H123	0.357970	0.030830	0.310330
C2221	C222	0.436670	0.020530	0.267330
H1241	H124	0.429070	0.979030	0.287930
C2231	C223	0.489670	0.050430	0.223430
H1251	H125	0.516870	0.028330	0.214630
C2241	C224	0.503770	0.112230	0.191930
H1261	H126	0.539670	0.131930	0.162230
Cu151	Cu15	0.863720	0.736990	0.656870
O711	O71	0.932540	0.723950	0.604670
O721	O72	0.884030	0.606040	0.624880
O731	O73	0.154220	0.748260	0.396390
O741	O74	0.086920	0.800000	0.414070
O751	O75	0.986030	0.473670	0.618170
N151	N15	0.072430	0.546170	0.546270
C2251	C225	0.929330	0.663470	0.599840
C2261	C226	0.107130	0.755670	0.425900
C2271	C227	0.072430	0.705770	0.478770
C2281	C228	0.020930	0.710970	0.514670
H1271	H127	0.010130	0.747670	0.507670
C2291	C229	0.986530	0.661270	0.560570
C2301	C230	0.001630	0.605070	0.570470
H1281	H128	0.976430	0.570370	0.600270
C2311	C231	0.054230	0.600870	0.535770
C2321	C232	0.090130	0.652270	0.489970
H1291	H129	0.125930	0.650570	0.466970
C2331	C233	0.038030	0.489870	0.588270
C2341	C234	0.128930	0.541970	0.512770
H1301	H130	0.117630	0.534770	0.469770
H1311	H131	0.175630	0.585670	0.518370
C2351	C235	0.128630	0.477770	0.539870
C2361	C236	0.076330	0.447570	0.583570
C2371	C237	0.061330	0.384570	0.614670
H1321	H132	0.024630	0.364170	0.643670
C2381	C238	0.103330	0.353870	0.600670
H1331	H133	0.095730	0.312370	0.621270
C2391	C239	0.156330	0.383770	0.556770
H1341	H134	0.183530	0.361670	0.547970
C2401	C240	0.170430	0.445570	0.525270
H1351	H135	0.206330	0.465270	0.495570
Cu161	Cu16	0.929680	0.460070	0.990200
O761	O76	0.942720	0.541930	0.938000
O771	O77	0.060630	0.611330	0.958210
O781	O78	0.918410	0.739300	0.729720
O791	O79	0.866670	0.620260	0.747400
O801	O80	0.193000	0.845700	0.951500
N161	N16	0.120500	0.859600	0.879600
C2411	C241	0.003200	0.599200	0.933170
C2421	C242	0.911000	0.684800	0.759230
C2431	C243	0.960900	0.700000	0.812100
C2441	C244	0.955700	0.643300	0.848000
H1361	H136	0.919000	0.595800	0.841000
C2451	C245	0.005400	0.658600	0.893900
C2461	C246	0.061600	0.729900	0.903800
H1371	H137	0.096300	0.739400	0.933600
C2471	C247	0.065800	0.786700	0.869100
C2481	C248	0.014400	0.771200	0.823300
H1381	H138	0.016100	0.808700	0.800300
C2491	C249	0.176800	0.881500	0.921600
C2501	C250	0.124700	0.920300	0.846100
H1391	H139	0.131900	0.916200	0.803100
H1401	H140	0.081000	0.923300	0.851700
C2511	C251	0.188900	0.984200	0.873200
C2521	C252	0.219100	0.962100	0.916900
C2531	C253	0.282100	0.010100	0.948000
H1411	H141	0.302500	0.993800	0.977000
C2541	C254	0.312800	0.082800	0.934000
H1421	H142	0.354300	0.116700	0.954600
C2551	C255	0.282900	0.105900	0.890100
H1431	H143	0.305000	0.155200	0.881300
C2561	C256	0.221100	0.058200	0.858600
H1441	H144	0.201400	0.074400	0.828900
Cu171	Cu17	0.596350	0.793400	0.323530
O811	O81	0.609390	0.875260	0.271330
O821	O82	0.727300	0.944660	0.291540
O831	O83	0.585080	0.072630	0.063050
O841	O84	0.533340	0.953590	0.080730
O851	O85	0.859670	0.179030	0.284830
N171	N17	0.787170	0.192930	0.212930
C2571	C257	0.669870	0.932530	0.266500
C2581	C258	0.577670	0.018130	0.092560
C2591	C259	0.627570	0.033330	0.145430
C2601	C260	0.622370	0.976630	0.181330
H1451	H145	0.585670	0.929130	0.174330
C2611	C261	0.672070	0.991930	0.227230
C2621	C262	0.728270	0.063230	0.237130
H1461	H146	0.762970	0.072730	0.266930
C2631	C263	0.732470	0.120030	0.202430
C2641	C264	0.681070	0.104530	0.156630
H1471	H147	0.682770	0.142030	0.133630
C2651	C265	0.843470	0.214830	0.254930
C2661	C266	0.791370	0.253630	0.179430
H1481	H148	0.798570	0.249530	0.136430
H1491	H149	0.747670	0.256630	0.185030
C2671	C267	0.855570	0.317530	0.206530
C2681	C268	0.885770	0.295430	0.250230
C2691	C269	0.948770	0.343430	0.281330
H1501	H150	0.969170	0.327130	0.310330
C2701	C270	0.979470	0.416130	0.267330
H1511	H151	0.020970	0.450030	0.287930
C2711	C271	0.949570	0.439230	0.223430
H1521	H152	0.971670	0.488530	0.214630
C2721	C272	0.887770	0.391530	0.191930
H1531	H153	0.868070	0.407730	0.162230
Cu181	Cu18	0.263010	0.126740	0.656870
O861	O86	0.276050	0.208600	0.604670
O871	O87	0.393960	0.278000	0.624880
O881	O88	0.251740	0.405970	0.396390
O891	O89	0.200000	0.286930	0.414070
O901	O90	0.526330	0.512370	0.618170
N181	N18	0.453830	0.526270	0.546270
C2731	C273	0.336530	0.265870	0.599840
C2741	C274	0.244330	0.351470	0.425900
C2751	C275	0.294230	0.366670	0.478770
C2761	C276	0.289030	0.309970	0.514670
H1541	H154	0.252330	0.262470	0.507670
C2771	C277	0.338730	0.325270	0.560570
C2781	C278	0.394930	0.396570	0.570470
H1551	H155	0.429630	0.406070	0.600270
C2791	C279	0.399130	0.453370	0.535770
C2801	C280	0.347730	0.437870	0.489970
H1561	H156	0.349430	0.475370	0.466970
C2811	C281	0.510130	0.548170	0.588270
C2821	C282	0.458030	0.586970	0.512770
H1571	H157	0.465230	0.582870	0.469770
H1581	H158	0.414330	0.589970	0.518370
C2831	C283	0.522230	0.650870	0.539870
C2841	C284	0.552430	0.628770	0.583570
C2851	C285	0.615430	0.676770	0.614670
H1591	H159	0.635830	0.660470	0.643670
C2861	C286	0.646130	0.749470	0.600670
H1601	H160	0.687630	0.783370	0.621270
C2871	C287	0.616230	0.772570	0.556770
H1611	H161	0.638330	0.821870	0.547970
C2881	C288	0.554430	0.724870	0.525270
H1621	H162	0.534730	0.741070	0.495570
