data_EPONAA_clean_PM
_symmetry_space_group_name_H-M	'P1'
_cell_length_a	20.353400
_cell_length_b	20.353400
_cell_length_c	13.982400
_cell_angle_alpha	90.000000
_cell_angle_beta	90.000000
_cell_angle_gamma	90.000000
_symmetry_Int_Tables_number 1

loop_
_symmetry_equiv_pos_as_xyz
'x,y,z'

loop_
_atom_site_label
_atom_site_type_symbol
_atom_site_fract_x
_atom_site_fract_y
_atom_site_fract_z
N11	N1	0.524200	0.344500	0.075400
N21	N2	0.402400	0.481000	0.193700
C11	C1	0.516300	0.396800	0.048700
C21	C2	0.434600	0.487600	0.129400
N31	N3	0.024200	0.844500	0.575400
N41	N4	0.902400	0.981000	0.693700
C31	C3	0.016300	0.896800	0.548700
C41	C4	0.934600	0.987600	0.629400
N51	N5	0.975800	0.155500	0.575400
N61	N6	0.097600	0.019000	0.693700
C51	C5	0.983700	0.103200	0.548700
C61	C6	0.065400	0.012400	0.629400
N71	N7	0.475800	0.655500	0.075400
N81	N8	0.597600	0.519000	0.193700
C71	C7	0.483700	0.603200	0.048700
C81	C8	0.565400	0.512400	0.129400
N91	N9	0.655500	0.024200	0.325400
N101	N10	0.519000	0.902400	0.443700
C91	C9	0.603200	0.016300	0.298700
C101	C10	0.512400	0.934600	0.379400
N111	N11	0.155500	0.524200	0.825400
N121	N12	0.019000	0.402400	0.943700
C111	C11	0.103200	0.516300	0.798700
C121	C12	0.012400	0.434600	0.879400
N131	N13	0.844500	0.475800	0.825400
N141	N14	0.981000	0.597600	0.943700
C131	C13	0.896800	0.483700	0.798700
C141	C14	0.987600	0.565400	0.879400
N151	N15	0.344500	0.975800	0.325400
N161	N16	0.481000	0.097600	0.443700
C151	C15	0.396800	0.983700	0.298700
C161	C16	0.487600	0.065400	0.379400
N171	N17	0.975800	0.344500	0.674600
N181	N18	0.097600	0.481000	0.556300
C171	C17	0.983700	0.396800	0.701300
C181	C18	0.065400	0.487600	0.620600
N191	N19	0.475800	0.844500	0.174600
N201	N20	0.597600	0.981000	0.056300
C191	C19	0.483700	0.896800	0.201300
C201	C20	0.565400	0.987600	0.120600
N211	N21	0.524200	0.155500	0.174600
N221	N22	0.402400	0.019000	0.056300
C211	C21	0.516300	0.103200	0.201300
C221	C22	0.434600	0.012400	0.120600
N231	N23	0.024200	0.655500	0.674600
N241	N24	0.902400	0.519000	0.556300
C231	C23	0.016300	0.603200	0.701300
C241	C24	0.934600	0.512400	0.620600
N251	N25	0.844500	0.024200	0.424600
N261	N26	0.981000	0.902400	0.306300
C251	C25	0.896800	0.016300	0.451300
C261	C26	0.987600	0.934600	0.370600
N271	N27	0.344500	0.524200	0.924600
N281	N28	0.481000	0.402400	0.806300
C271	C27	0.396800	0.516300	0.951300
C281	C28	0.487600	0.434600	0.870600
N291	N29	0.655500	0.475800	0.924600
N301	N30	0.519000	0.597600	0.806300
C291	C29	0.603200	0.483700	0.951300
C301	C30	0.512400	0.565400	0.870600
N311	N31	0.155500	0.975800	0.424600
N321	N32	0.019000	0.097600	0.306300
C311	C31	0.103200	0.983700	0.451300
C321	C32	0.012400	0.065400	0.370600
Nb11	Nb1	0.500000	0.500000	0.000000
Nb21	Nb2	0.000000	0.000000	0.500000
Nb31	Nb3	0.500000	0.000000	0.250000
Nb41	Nb4	0.000000	0.500000	0.750000
Zn11	Zn1	0.522320	0.250000	0.125000
Zn21	Zn2	0.022320	0.750000	0.625000
Zn31	Zn3	0.977680	0.250000	0.625000
Zn41	Zn4	0.477680	0.750000	0.125000
Zn51	Zn5	0.750000	0.022320	0.375000
Zn61	Zn6	0.250000	0.522320	0.875000
Zn71	Zn7	0.750000	0.477680	0.875000
Zn81	Zn8	0.250000	0.977680	0.375000
