data_EPONEE_clean_PM
_symmetry_space_group_name_H-M	'P1'
_cell_length_a	20.383700
_cell_length_b	20.383700
_cell_length_c	14.007900
_cell_angle_alpha	90.000000
_cell_angle_beta	90.000000
_cell_angle_gamma	90.000000
_symmetry_Int_Tables_number 1

loop_
_symmetry_equiv_pos_as_xyz
'x,y,z'

loop_
_atom_site_label
_atom_site_type_symbol
_atom_site_fract_x
_atom_site_fract_y
_atom_site_fract_z
N11	N1	0.475800	0.344500	0.075200
N21	N2	0.597400	0.481600	0.194200
C11	C1	0.483500	0.397600	0.048800
C21	C2	0.565100	0.487900	0.129100
N31	N3	0.975800	0.844500	0.575200
N41	N4	0.097400	0.981600	0.694200
C31	C3	0.983500	0.897600	0.548800
C41	C4	0.065100	0.987900	0.629100
N51	N5	0.024200	0.155500	0.575200
N61	N6	0.902600	0.018400	0.694200
C51	C5	0.016500	0.102400	0.548800
C61	C6	0.934900	0.012100	0.629100
N71	N7	0.524200	0.655500	0.075200
N81	N8	0.402600	0.518400	0.194200
C71	C7	0.516500	0.602400	0.048800
C81	C8	0.434900	0.512100	0.129100
N91	N9	0.655500	0.975800	0.325200
N101	N10	0.518400	0.097400	0.444200
C91	C9	0.602400	0.983500	0.298800
C101	C10	0.512100	0.065100	0.379100
N111	N11	0.155500	0.475800	0.825200
N121	N12	0.018400	0.597400	0.944200
C111	C11	0.102400	0.483500	0.798800
C121	C12	0.012100	0.565100	0.879100
N131	N13	0.844500	0.524200	0.825200
N141	N14	0.981600	0.402600	0.944200
C131	C13	0.897600	0.516500	0.798800
C141	C14	0.987900	0.434900	0.879100
N151	N15	0.344500	0.024200	0.325200
N161	N16	0.481600	0.902600	0.444200
C151	C15	0.397600	0.016500	0.298800
C161	C16	0.487900	0.934900	0.379100
N171	N17	0.024200	0.344500	0.674800
N181	N18	0.902600	0.481600	0.555800
C171	C17	0.016500	0.397600	0.701200
C181	C18	0.934900	0.487900	0.620900
N191	N19	0.524200	0.844500	0.174800
N201	N20	0.402600	0.981600	0.055800
C191	C19	0.516500	0.897600	0.201200
C201	C20	0.434900	0.987900	0.120900
N211	N21	0.475800	0.155500	0.174800
N221	N22	0.597400	0.018400	0.055800
C211	C21	0.483500	0.102400	0.201200
C221	C22	0.565100	0.012100	0.120900
N231	N23	0.975800	0.655500	0.674800
N241	N24	0.097400	0.518400	0.555800
C231	C23	0.983500	0.602400	0.701200
C241	C24	0.065100	0.512100	0.620900
N251	N25	0.844500	0.975800	0.424800
N261	N26	0.981600	0.097400	0.305800
C251	C25	0.897600	0.983500	0.451200
C261	C26	0.987900	0.065100	0.370900
N271	N27	0.344500	0.475800	0.924800
N281	N28	0.481600	0.597400	0.805800
C271	C27	0.397600	0.483500	0.951200
C281	C28	0.487900	0.565100	0.870900
N291	N29	0.655500	0.524200	0.924800
N301	N30	0.518400	0.402600	0.805800
C291	C29	0.602400	0.516500	0.951200
C301	C30	0.512100	0.434900	0.870900
N311	N31	0.155500	0.024200	0.424800
N321	N32	0.018400	0.902600	0.305800
C311	C31	0.102400	0.016500	0.451200
C321	C32	0.012100	0.934900	0.370900
Nb11	Nb1	0.500000	0.500000	0.000000
Nb21	Nb2	0.000000	0.000000	0.500000
Nb31	Nb3	0.500000	0.000000	0.250000
Nb41	Nb4	0.000000	0.500000	0.750000
Zn11	Zn1	0.477590	0.250000	0.125000
Zn21	Zn2	0.977590	0.750000	0.625000
Zn31	Zn3	0.022410	0.250000	0.625000
Zn41	Zn4	0.522410	0.750000	0.125000
Zn51	Zn5	0.750000	0.977590	0.375000
Zn61	Zn6	0.250000	0.477590	0.875000
Zn71	Zn7	0.750000	0.522410	0.875000
Zn81	Zn8	0.250000	0.022410	0.375000
