data_EPOXAJ_clean_PM
_symmetry_space_group_name_H-M	'P1'
_cell_length_a	8.049500
_cell_length_b	11.885200
_cell_length_c	11.920900
_cell_angle_alpha	79.881000
_cell_angle_beta	86.231000
_cell_angle_gamma	81.912000
_symmetry_Int_Tables_number 1

loop_
_symmetry_equiv_pos_as_xyz
'x,y,z'

loop_
_atom_site_label
_atom_site_type_symbol
_atom_site_fract_x
_atom_site_fract_y
_atom_site_fract_z
U11	U1	0.042120	0.563920	0.702080
U21	U2	0.776960	0.505070	0.976350
U31	U3	0.608200	0.848500	0.990400
U41	U4	0.316800	0.062500	0.718600
U51	U5	0.957880	0.436080	0.297920
U61	U6	0.223040	0.494930	0.023650
U71	U7	0.391800	0.151500	0.009600
U81	U8	0.683200	0.937500	0.281400
H11	H1	0.519930	0.497410	0.599880
H21	H2	0.638790	0.417150	0.678350
H31	H3	0.483670	0.716510	0.602030
H41	H4	0.667000	0.727500	0.600220
H51	H5	0.480070	0.502590	0.400120
H61	H6	0.361210	0.582850	0.321650
H71	H7	0.516330	0.283490	0.397970
H81	H8	0.333000	0.272500	0.399780
C11	C1	0.537000	0.799600	0.729100
C21	C2	0.610600	0.581900	0.714600
C31	C3	0.625000	0.493500	0.634500
C41	C4	0.763000	0.503400	0.543300
C51	C5	0.574000	0.709500	0.652200
C61	C6	0.463100	0.555500	0.794500
C71	C7	0.463000	0.200400	0.270900
C81	C8	0.389400	0.418100	0.285400
C91	C9	0.375000	0.506500	0.365500
C101	C10	0.237000	0.496600	0.456700
C111	C11	0.426000	0.290500	0.347800
C121	C12	0.536900	0.444500	0.205500
O11	O1	0.757500	0.566300	0.776400
O21	O2	0.319200	0.571800	0.757800
O31	O3	0.736300	0.652300	0.005400
O41	O4	0.026900	0.539800	0.893400
O51	O5	0.520200	0.766100	0.835200
O61	O6	0.867600	0.574800	0.546600
O71	O7	0.786000	0.812000	0.151200
O81	O8	0.487500	0.520300	0.899600
O91	O9	0.406000	0.993000	0.908000
O101	O10	0.770800	0.439400	0.469600
O111	O11	0.524000	0.901900	0.683100
O121	O12	0.242500	0.433700	0.223600
O131	O13	0.680800	0.428200	0.242200
O141	O14	0.263700	0.347700	0.994600
O151	O15	0.973100	0.460200	0.106600
O161	O16	0.479800	0.233900	0.164800
O171	O17	0.132400	0.425200	0.453400
O181	O18	0.214000	0.188000	0.848800
O191	O19	0.512500	0.479700	0.100400
O201	O20	0.594000	0.007000	0.092000
O211	O21	0.229200	0.560600	0.530400
O221	O22	0.476000	0.098100	0.316900
