data_EQEROJ_clean_PM
_symmetry_space_group_name_H-M	'P1'
_cell_length_a	15.023000
_cell_length_b	10.164300
_cell_length_c	18.196000
_cell_angle_alpha	90.000000
_cell_angle_beta	114.233000
_cell_angle_gamma	90.000000
_symmetry_Int_Tables_number 1

loop_
_symmetry_equiv_pos_as_xyz
'x,y,z'

loop_
_atom_site_label
_atom_site_type_symbol
_atom_site_fract_x
_atom_site_fract_y
_atom_site_fract_z
Zn11	Zn1	0.111500	0.277360	0.236550
Zn21	Zn2	0.844170	0.050250	0.046660
C11	C1	0.174670	0.665000	0.201900
H11	H1	0.238500	0.706400	0.216300
C21	C2	0.108890	0.740200	0.235570
H21	H2	0.130800	0.831800	0.246500
C31	C3	0.023460	0.731000	0.151210
H31	H3	0.987900	0.649300	0.149200
C41	C4	0.098520	0.702300	0.114890
H41	H4	0.080000	0.627200	0.077800
C51	C5	0.181200	0.518500	0.218580
C61	C6	0.097370	0.684600	0.307450
C71	C7	0.950590	0.840700	0.124140
C81	C8	0.130450	0.820700	0.081320
O11	O1	0.099230	0.455990	0.192430
O21	O2	0.260310	0.465100	0.256120
O31	O3	0.014650	0.679150	0.309600
O41	O4	0.174050	0.645280	0.364950
O51	O5	0.943810	0.912170	0.065280
O61	O6	0.896050	0.856930	0.160240
O71	O7	0.117940	0.808950	0.007520
O81	O8	0.167550	0.917800	0.123430
N11	N1	0.223480	0.153100	0.295920
C91	C9	0.305000	0.150600	0.283300
H51	H5	0.311200	0.209900	0.246700
C101	C10	0.380200	0.064000	0.322100
H61	H6	0.435600	0.065600	0.311400
C111	C11	0.373500	0.974700	0.377000
C121	C12	0.289100	0.976700	0.388500
H71	H7	0.280300	0.917400	0.423800
C131	C13	0.216800	0.066700	0.347700
H81	H8	0.160500	0.066400	0.357100
N21	N2	0.708640	0.530900	0.493900
C141	C14	0.664900	0.570700	0.540780
H91	H9	0.695100	0.553800	0.595800
C151	C15	0.576700	0.635800	0.510800
H101	H10	0.548400	0.661600	0.545400
C161	C16	0.530000	0.662900	0.429100
C171	C17	0.574600	0.619900	0.381700
H111	H11	0.545100	0.634000	0.326300
C181	C18	0.662900	0.555800	0.415100
H121	H12	0.692000	0.528700	0.381300
C191	C19	0.456300	0.880100	0.421300
H131	H13	0.514100	0.909700	0.415000
H141	H14	0.470400	0.883100	0.478300
C201	C20	0.436300	0.742600	0.393600
H151	H15	0.410200	0.739700	0.335200
H161	H16	0.388200	0.705300	0.410300
Zn31	Zn3	0.888500	0.777360	0.263450
Zn41	Zn4	0.155830	0.550250	0.453340
C211	C21	0.825330	0.165000	0.298100
H171	H17	0.761500	0.206400	0.283700
C221	C22	0.891110	0.240200	0.264430
H181	H18	0.869200	0.331800	0.253500
C231	C23	0.976540	0.231000	0.348790
H191	H19	0.012100	0.149300	0.350800
C241	C24	0.901480	0.202300	0.385110
H201	H20	0.920000	0.127200	0.422200
C251	C25	0.818800	0.018500	0.281420
C261	C26	0.902630	0.184600	0.192550
C271	C27	0.049410	0.340700	0.375860
C281	C28	0.869550	0.320700	0.418680
O91	O9	0.900770	0.955990	0.307570
O101	O10	0.739690	0.965100	0.243880
O111	O11	0.985350	0.179150	0.190400
O121	O12	0.825950	0.145280	0.135050
O131	O13	0.056190	0.412170	0.434720
O141	O14	0.103950	0.356930	0.339760
O151	O15	0.882060	0.308950	0.492480
O161	O16	0.832450	0.417800	0.376570
N31	N3	0.776520	0.653100	0.204080
C291	C29	0.695000	0.650600	0.216700
H211	H21	0.688800	0.709900	0.253300
C301	C30	0.619800	0.564000	0.177900
H221	H22	0.564400	0.565600	0.188600
C311	C31	0.626500	0.474700	0.123000
C321	C32	0.710900	0.476700	0.111500
H231	H23	0.719700	0.417400	0.076200
C331	C33	0.783200	0.566700	0.152300
H241	H24	0.839500	0.566400	0.142900
N41	N4	0.291360	0.030900	0.006100
C341	C34	0.335100	0.070700	0.959220
H251	H25	0.304900	0.053800	0.904200
C351	C35	0.423300	0.135800	0.989200
H261	H26	0.451600	0.161600	0.954600
C361	C36	0.470000	0.162900	0.070900
C371	C37	0.425400	0.119900	0.118300
H271	H27	0.454900	0.134000	0.173700
C381	C38	0.337100	0.055800	0.084900
H281	H28	0.308000	0.028700	0.118700
C391	C39	0.543700	0.380100	0.078700
H291	H29	0.485900	0.409700	0.085000
H301	H30	0.529600	0.383100	0.021700
C401	C40	0.563700	0.242600	0.106400
H311	H31	0.589800	0.239700	0.164800
H321	H32	0.611800	0.205300	0.089700
Zn51	Zn5	0.888500	0.722640	0.763450
Zn61	Zn6	0.155830	0.949750	0.953340
C411	C41	0.825330	0.335000	0.798100
H331	H33	0.761500	0.293600	0.783700
C421	C42	0.891110	0.259800	0.764430
H341	H34	0.869200	0.168200	0.753500
C431	C43	0.976540	0.269000	0.848790
H351	H35	0.012100	0.350700	0.850800
C441	C44	0.901480	0.297700	0.885110
H361	H36	0.920000	0.372800	0.922200
C451	C45	0.818800	0.481500	0.781420
C461	C46	0.902630	0.315400	0.692550
C471	C47	0.049410	0.159300	0.875860
C481	C48	0.869550	0.179300	0.918680
O171	O17	0.900770	0.544010	0.807570
O181	O18	0.739690	0.534900	0.743880
O191	O19	0.985350	0.320850	0.690400
O201	O20	0.825950	0.354720	0.635050
O211	O21	0.056190	0.087830	0.934720
O221	O22	0.103950	0.143070	0.839760
O231	O23	0.882060	0.191050	0.992480
O241	O24	0.832450	0.082200	0.876570
N51	N5	0.776520	0.846900	0.704080
C491	C49	0.695000	0.849400	0.716700
H371	H37	0.688800	0.790100	0.753300
C501	C50	0.619800	0.936000	0.677900
H381	H38	0.564400	0.934400	0.688600
C511	C51	0.626500	0.025300	0.623000
C521	C52	0.710900	0.023300	0.611500
H391	H39	0.719700	0.082600	0.576200
C531	C53	0.783200	0.933300	0.652300
H401	H40	0.839500	0.933600	0.642900
N61	N6	0.291360	0.469100	0.506100
C541	C54	0.335100	0.429300	0.459220
H411	H41	0.304900	0.446200	0.404200
C551	C55	0.423300	0.364200	0.489200
H421	H42	0.451600	0.338400	0.454600
C561	C56	0.470000	0.337100	0.570900
C571	C57	0.425400	0.380100	0.618300
H431	H43	0.454900	0.366000	0.673700
C581	C58	0.337100	0.444200	0.584900
H441	H44	0.308000	0.471300	0.618700
C591	C59	0.543700	0.119900	0.578700
H451	H45	0.485900	0.090300	0.585000
H461	H46	0.529600	0.116900	0.521700
C601	C60	0.563700	0.257400	0.606400
H471	H47	0.589800	0.260300	0.664800
H481	H48	0.611800	0.294700	0.589700
Zn71	Zn7	0.111500	0.222640	0.736550
Zn81	Zn8	0.844170	0.449750	0.546660
C611	C61	0.174670	0.835000	0.701900
H491	H49	0.238500	0.793600	0.716300
C621	C62	0.108890	0.759800	0.735570
H501	H50	0.130800	0.668200	0.746500
C631	C63	0.023460	0.769000	0.651210
H511	H51	0.987900	0.850700	0.649200
C641	C64	0.098520	0.797700	0.614890
H521	H52	0.080000	0.872800	0.577800
C651	C65	0.181200	0.981500	0.718580
C661	C66	0.097370	0.815400	0.807450
C671	C67	0.950590	0.659300	0.624140
C681	C68	0.130450	0.679300	0.581320
O251	O25	0.099230	0.044010	0.692430
O261	O26	0.260310	0.034900	0.756120
O271	O27	0.014650	0.820850	0.809600
O281	O28	0.174050	0.854720	0.864950
O291	O29	0.943810	0.587830	0.565280
O301	O30	0.896050	0.643070	0.660240
O311	O31	0.117940	0.691050	0.507520
O321	O32	0.167550	0.582200	0.623430
N71	N7	0.223480	0.346900	0.795920
C691	C69	0.305000	0.349400	0.783300
H531	H53	0.311200	0.290100	0.746700
C701	C70	0.380200	0.436000	0.822100
H541	H54	0.435600	0.434400	0.811400
C711	C71	0.373500	0.525300	0.877000
C721	C72	0.289100	0.523300	0.888500
H551	H55	0.280300	0.582600	0.923800
C731	C73	0.216800	0.433300	0.847700
H561	H56	0.160500	0.433600	0.857100
N81	N8	0.708640	0.969100	0.993900
C741	C74	0.664900	0.929300	0.040780
H571	H57	0.695100	0.946200	0.095800
C751	C75	0.576700	0.864200	0.010800
H581	H58	0.548400	0.838400	0.045400
C761	C76	0.530000	0.837100	0.929100
C771	C77	0.574600	0.880100	0.881700
H591	H59	0.545100	0.866000	0.826300
C781	C78	0.662900	0.944200	0.915100
H601	H60	0.692000	0.971300	0.881300
C791	C79	0.456300	0.619900	0.921300
H611	H61	0.514100	0.590300	0.915000
H621	H62	0.470400	0.616900	0.978300
C801	C80	0.436300	0.757400	0.893600
H631	H63	0.410200	0.760300	0.835200
H641	H64	0.388200	0.794700	0.910300
