data_EQIWAD_clean_PM
_symmetry_space_group_name_H-M	'P1'
_cell_length_a	4.759500
_cell_length_b	9.925000
_cell_length_c	22.609000
_cell_angle_alpha	90.000000
_cell_angle_beta	91.810000
_cell_angle_gamma	90.000000
_symmetry_Int_Tables_number 1

loop_
_symmetry_equiv_pos_as_xyz
'x,y,z'

loop_
_atom_site_label
_atom_site_type_symbol
_atom_site_fract_x
_atom_site_fract_y
_atom_site_fract_z
Cd11	Cd1	0.000000	0.000000	0.500000
Cd21	Cd2	0.000000	0.500000	0.000000
As11	As1	0.533370	0.860090	0.594760
As21	As2	0.466630	0.360090	0.905240
As31	As3	0.466630	0.139910	0.405240
As41	As4	0.533370	0.639910	0.094760
H11	H1	0.887800	0.031100	0.864500
H21	H2	0.161400	0.748300	0.576600
H31	H3	0.715000	0.643800	0.900100
H41	H4	0.926700	0.733400	0.678300
H51	H5	0.079900	0.765100	0.774900
H61	H6	0.555600	0.081300	0.787800
H71	H7	0.400700	0.047700	0.691900
H81	H8	0.288800	0.847700	0.854500
H91	H9	0.224500	0.925700	0.912600
H101	H10	0.112200	0.531100	0.635500
H111	H11	0.838600	0.248300	0.923400
H121	H12	0.285000	0.143800	0.599900
H131	H13	0.073300	0.233400	0.821700
H141	H14	0.920100	0.265100	0.725100
H151	H15	0.444400	0.581300	0.712200
H161	H16	0.599300	0.547700	0.808100
H171	H17	0.711200	0.347700	0.645500
H181	H18	0.775500	0.425700	0.587400
H191	H19	0.112200	0.968900	0.135500
H201	H20	0.838600	0.251700	0.423400
H211	H21	0.285000	0.356200	0.099900
H221	H22	0.073300	0.266600	0.321700
H231	H23	0.920100	0.234900	0.225100
H241	H24	0.444400	0.918700	0.212200
H251	H25	0.599300	0.952300	0.308100
H261	H26	0.711200	0.152300	0.145500
H271	H27	0.775500	0.074300	0.087400
H281	H28	0.887800	0.468900	0.364500
H291	H29	0.161400	0.751700	0.076600
H301	H30	0.715000	0.856200	0.400100
H311	H31	0.926700	0.766600	0.178300
H321	H32	0.079900	0.734900	0.274900
H331	H33	0.555600	0.418700	0.287800
H341	H34	0.400700	0.452300	0.191900
H351	H35	0.288800	0.652300	0.354500
H361	H36	0.224500	0.574300	0.412600
C11	C1	0.649800	0.888200	0.674690
C21	C2	0.853400	0.803600	0.700280
C31	C3	0.947000	0.823500	0.758110
C41	C4	0.845300	0.930100	0.791980
C51	C5	0.633100	0.012300	0.765830
C61	C6	0.539200	0.991800	0.708370
C71	C7	0.139700	0.873400	0.880520
C81	C8	0.015400	0.746300	0.906300
C91	C9	0.350200	0.388200	0.825310
C101	C10	0.146600	0.303600	0.799720
C111	C11	0.053000	0.323500	0.741890
C121	C12	0.154700	0.430100	0.708020
C131	C13	0.366900	0.512300	0.734170
C141	C14	0.460800	0.491800	0.791630
C151	C15	0.860300	0.373400	0.619480
C161	C16	0.984600	0.246300	0.593700
C171	C17	0.350200	0.111800	0.325310
C181	C18	0.146600	0.196400	0.299720
C191	C19	0.053000	0.176500	0.241890
C201	C20	0.154700	0.069900	0.208020
C211	C21	0.366900	0.987700	0.234170
C221	C22	0.460800	0.008200	0.291630
C231	C23	0.860300	0.126600	0.119480
C241	C24	0.984600	0.253700	0.093700
C251	C25	0.649800	0.611800	0.174690
C261	C26	0.853400	0.696400	0.200280
C271	C27	0.947000	0.676500	0.258110
C281	C28	0.845300	0.569900	0.291980
C291	C29	0.633100	0.487700	0.265830
C301	C30	0.539200	0.508200	0.208370
C311	C31	0.139700	0.626600	0.380520
C321	C32	0.015400	0.753700	0.406300
N11	N1	0.944600	0.958500	0.847870
N21	N2	0.055400	0.458500	0.652130
N31	N3	0.055400	0.041500	0.152130
N41	N4	0.944600	0.541500	0.347870
O11	O1	0.806700	0.822600	0.553240
O21	O2	0.311700	0.721400	0.590900
O31	O3	0.352000	0.991500	0.567820
O41	O4	0.762800	0.716500	0.886440
O51	O5	0.151500	0.679100	0.942350
O61	O6	0.193300	0.322600	0.946760
O71	O7	0.688300	0.221400	0.909100
O81	O8	0.648000	0.491500	0.932180
O91	O9	0.237200	0.216500	0.613560
O101	O10	0.848500	0.179100	0.557650
O111	O11	0.193300	0.177400	0.446760
O121	O12	0.688300	0.278600	0.409100
O131	O13	0.648000	0.008500	0.432180
O141	O14	0.237200	0.283500	0.113560
O151	O15	0.848500	0.320900	0.057650
O161	O16	0.806700	0.677400	0.053240
O171	O17	0.311700	0.778600	0.090900
O181	O18	0.352000	0.508500	0.067820
O191	O19	0.762800	0.783500	0.386440
O201	O20	0.151500	0.820900	0.442350
