data_EQOXIT_clean_PM
_symmetry_space_group_name_H-M	'P1'
_cell_length_a	14.740900
_cell_length_b	15.342900
_cell_length_c	22.192400
_cell_angle_alpha	90.000000
_cell_angle_beta	103.716000
_cell_angle_gamma	90.000000
_symmetry_Int_Tables_number 1

loop_
_symmetry_equiv_pos_as_xyz
'x,y,z'

loop_
_atom_site_label
_atom_site_type_symbol
_atom_site_fract_x
_atom_site_fract_y
_atom_site_fract_z
C11	C1	0.165800	0.674400	0.164400
H11	H1	0.166300	0.614200	0.159400
C21	C2	0.166800	0.730100	0.113100
O11	O1	0.164600	0.876100	0.076000
C31	C3	0.165400	0.821100	0.117800
C41	C4	0.161300	0.852200	0.180800
H21	H2	0.156700	0.911800	0.187100
C51	C5	0.164000	0.798100	0.229200
H31	H3	0.165600	0.820500	0.268300
C61	C6	0.164300	0.708300	0.219900
N11	N1	0.163500	0.647800	0.266100
O21	O2	0.020600	0.788700	0.754800
C71	C7	0.944500	0.795100	0.773200
C81	C8	0.861500	0.784800	0.731000
H41	H4	0.863700	0.772800	0.690300
C91	C9	0.943400	0.817200	0.835100
C101	C10	0.852500	0.816800	0.849500
H51	H5	0.849700	0.821000	0.890800
C111	C11	0.776300	0.790400	0.743200
H61	H6	0.723000	0.781000	0.711800
C121	C12	0.768200	0.810600	0.804000
N21	N2	0.688600	0.810600	0.827100
Zn11	Zn1	0.153940	0.599810	0.954040
O31	O3	0.166800	0.603000	0.048500
O41	O4	0.159200	0.728700	0.001200
C131	C13	0.163800	0.687000	0.053400
Zn21	Zn2	0.148920	0.865950	0.987830
O51	O5	0.105300	0.818500	0.880200
C141	C14	0.021700	0.828400	0.887300
N31	N3	0.145000	0.006400	0.983600
C151	C15	0.215700	0.053000	0.023200
H71	H7	0.260700	0.023700	0.052700
C161	C16	0.219000	0.143200	0.018600
H81	H8	0.266300	0.174300	0.045100
C171	C17	0.151700	0.186900	0.974500
C181	C18	0.081000	0.140400	0.934900
H91	H9	0.036000	0.169600	0.905400
C191	C19	0.077700	0.050100	0.939500
H101	H10	0.030400	0.019000	0.913000
O61	O6	0.010800	0.856100	0.939100
N41	N4	0.156400	0.463800	0.957400
C201	C20	0.239700	0.419100	0.979200
H111	H11	0.295700	0.449700	0.990700
C211	C21	0.239500	0.328800	0.983900
H121	H12	0.295200	0.298900	0.998500
C221	C22	0.155800	0.283100	0.966700
C231	C23	0.072500	0.327800	0.944900
H131	H13	0.016600	0.297300	0.933400
C241	C24	0.072700	0.418200	0.940300
H141	H14	0.017000	0.448100	0.925700
Zn31	Zn3	0.152510	0.807520	0.805650
C251	C25	0.280300	0.748300	0.728600
C261	C26	0.358300	0.791800	0.841000
C271	C27	0.364600	0.771300	0.780000
C281	C28	0.450000	0.771500	0.762200
H151	H15	0.452900	0.755900	0.722200
C291	C29	0.530000	0.795800	0.806200
C301	C30	0.526900	0.812500	0.867900
H161	H16	0.581600	0.824600	0.897400
C311	C31	0.443500	0.811100	0.884300
H171	H17	0.442300	0.823000	0.925200
C321	C32	0.152800	0.648000	0.532400
C331	C33	0.156300	0.605300	0.473700
C341	C34	0.158900	0.652500	0.421800
H181	H18	0.158800	0.712800	0.425500
C351	C35	0.161600	0.618500	0.363900
C361	C36	0.163300	0.528300	0.359700
H191	H19	0.165800	0.503400	0.322000
C371	C37	0.161500	0.472300	0.410200
H201	H20	0.162000	0.412100	0.405200
C381	C38	0.158600	0.509900	0.470300
N51	N5	0.162900	0.674100	0.317000
N61	N6	0.615000	0.793300	0.786700
O71	O7	0.279800	0.787900	0.860700
O81	O8	0.198100	0.745500	0.738500
O91	O9	0.288300	0.732100	0.675500
O101	O10	0.151500	0.607900	0.583300
O111	O11	0.145800	0.729100	0.532000
O121	O12	0.152700	0.456100	0.512600
C391	C39	0.227400	0.077200	0.808600
H211	H21	0.281700	0.106300	0.828100
C401	C40	0.232600	0.991000	0.805400
H221	H22	0.290800	0.964100	0.813000
N71	N7	0.156900	0.943600	0.791600
C411	C41	0.081900	0.987500	0.774300
H231	H23	0.027000	0.955200	0.764400
C421	C42	0.065000	0.266300	0.759600
H241	H24	0.010900	0.235600	0.741600
C431	C43	0.066000	0.356200	0.758800
H251	H25	0.012900	0.385900	0.737800
C441	C44	0.150700	0.220500	0.789200
N81	N8	0.144300	0.403300	0.788600
C451	C45	0.221500	0.272200	0.821400
H261	H26	0.274900	0.245500	0.845000
C461	C46	0.217200	0.359600	0.820500
H271	H27	0.267800	0.390800	0.843300
C471	C47	0.072000	0.070500	0.768700
H281	H28	0.013700	0.095600	0.753100
C481	C48	0.155800	0.123800	0.787600
C491	C49	0.027800	0.599900	0.851800
C501	C50	0.943200	0.585100	0.799900
C511	C51	0.857400	0.587500	0.815600
H291	H29	0.856500	0.599000	0.856600
C521	C52	0.772200	0.573600	0.772800
C531	C53	0.778000	0.550300	0.714000
H301	H30	0.723400	0.535200	0.685300
C541	C54	0.858600	0.548400	0.696300
H311	H31	0.858200	0.536200	0.655200
C551	C55	0.947200	0.565500	0.740700
C561	C56	0.288200	0.514200	0.693900
C571	C57	0.369800	0.537900	0.747100
C581	C58	0.360900	0.553700	0.807000
C591	C59	0.447200	0.574100	0.854100
H321	H32	0.444500	0.588000	0.894400
C601	C60	0.530900	0.572400	0.838100
H331	H33	0.585900	0.580500	0.868300
C611	C61	0.534100	0.558900	0.777300
C621	C62	0.456600	0.536000	0.733300
H341	H34	0.461900	0.519200	0.694000
N91	N9	0.620600	0.559600	0.757000
N101	N10	0.691200	0.576700	0.797000
O131	O13	0.278800	0.556500	0.825200
O141	O14	0.203300	0.523200	0.698900
O151	O15	0.303000	0.487800	0.645200
O161	O16	0.019100	0.611500	0.905400
O171	O17	0.109100	0.596100	0.842300
O181	O18	0.023200	0.557100	0.720400
Zn41	Zn4	0.152400	0.538790	0.774900
Zn51	Zn5	0.157370	0.477690	0.599800
C631	C63	0.230600	0.294200	0.647500
H351	H35	0.281800	0.323700	0.671300
C641	C64	0.233100	0.206300	0.648200
H361	H36	0.287000	0.178600	0.669900
C651	C65	0.162600	0.158800	0.619600
C661	C66	0.086300	0.205400	0.588600
H371	H37	0.032600	0.176000	0.568100
C671	C67	0.088000	0.294800	0.587300
H381	H38	0.034900	0.323600	0.565400
C681	C68	0.233100	0.920900	0.636200
H391	H39	0.289700	0.891100	0.645000
C691	C69	0.238300	0.011300	0.638200
H401	H40	0.295800	0.037700	0.653900
C701	C70	0.160300	0.063200	0.617700
C711	C71	0.079400	0.014900	0.605300
H411	H41	0.022200	0.043600	0.594800
C721	C72	0.080700	0.924300	0.608100
H421	H42	0.023300	0.895900	0.598600
N111	N11	0.160100	0.342100	0.615100
N121	N12	0.158700	0.873500	0.623500
Zn61	Zn6	0.155650	0.742240	0.625980
C731	C73	0.834200	0.174400	0.835600
H431	H43	0.833700	0.114200	0.840600
C741	C74	0.833200	0.230100	0.886900
O191	O19	0.835400	0.376100	0.924000
C751	C75	0.834600	0.321100	0.882200
C761	C76	0.838700	0.352200	0.819200
H441	H44	0.843300	0.411800	0.812900
C771	C77	0.836000	0.298100	0.770800
H451	H45	0.834400	0.320500	0.731700
C781	C78	0.835700	0.208300	0.780100
N131	N13	0.836500	0.147800	0.733900
O201	O20	0.979400	0.288700	0.245200
C791	C79	0.055500	0.295100	0.226800
C801	C80	0.138500	0.284800	0.269000
H461	H46	0.136300	0.272800	0.309700
C811	C81	0.056600	0.317200	0.164900
C821	C82	0.147500	0.316800	0.150500
H471	H47	0.150300	0.321000	0.109200
C831	C83	0.223700	0.290400	0.256800
H481	H48	0.277000	0.281000	0.288200
C841	C84	0.231800	0.310600	0.196000
N141	N14	0.311400	0.310600	0.172900
Zn71	Zn7	0.846060	0.099810	0.045960
O211	O21	0.833200	0.103000	0.951500
O221	O22	0.840800	0.228700	0.998800
C851	C85	0.836200	0.187000	0.946600
Zn81	Zn8	0.851080	0.365950	0.012170
O231	O23	0.894700	0.318500	0.119800
C861	C86	0.978300	0.328400	0.112700
N151	N15	0.855000	0.506400	0.016400
C871	C87	0.784300	0.553000	0.976800
H491	H49	0.739300	0.523700	0.947300
C881	C88	0.781000	0.643200	0.981400
H501	H50	0.733700	0.674300	0.954900
C891	C89	0.848300	0.686900	0.025500
C901	C90	0.919000	0.640400	0.065100
H511	H51	0.964000	0.669600	0.094600
C911	C91	0.922300	0.550100	0.060500
H521	H52	0.969600	0.519000	0.087000
O241	O24	0.989200	0.356100	0.060900
N161	N16	0.843600	0.963800	0.042600
C921	C92	0.760300	0.919100	0.020800
H531	H53	0.704300	0.949700	0.009300
C931	C93	0.760500	0.828800	0.016100
H541	H54	0.704800	0.798900	0.001500
C941	C94	0.844200	0.783100	0.033300
C951	C95	0.927500	0.827800	0.055100
H551	H55	0.983400	0.797300	0.066600
C961	C96	0.927300	0.918200	0.059700
H561	H56	0.983000	0.948100	0.074300
Zn91	Zn9	0.847490	0.307520	0.194350
C971	C97	0.719700	0.248300	0.271400
C981	C98	0.641700	0.291800	0.159000
C991	C99	0.635400	0.271300	0.220000
C1001	C100	0.550000	0.271500	0.237800
H571	H57	0.547100	0.255900	0.277800
C1011	C101	0.470000	0.295800	0.193800
C1021	C102	0.473100	0.312500	0.132100
H581	H58	0.418400	0.324600	0.102600
C1031	C103	0.556500	0.311100	0.115700
H591	H59	0.557700	0.323000	0.074800
C1041	C104	0.847200	0.148000	0.467600
C1051	C105	0.843700	0.105300	0.526300
C1061	C106	0.841100	0.152500	0.578200
H601	H60	0.841200	0.212800	0.574500
C1071	C107	0.838400	0.118500	0.636100
C1081	C108	0.836700	0.028300	0.640300
H611	H61	0.834200	0.003400	0.678000
C1091	C109	0.838500	0.972300	0.589800
H621	H62	0.838000	0.912100	0.594800
C1101	C110	0.841400	0.009900	0.529700
N171	N17	0.837100	0.174100	0.683000
N181	N18	0.385000	0.293300	0.213300
O251	O25	0.720200	0.287900	0.139300
O261	O26	0.801900	0.245500	0.261500
O271	O27	0.711700	0.232100	0.324500
O281	O28	0.848500	0.107900	0.416700
O291	O29	0.854200	0.229100	0.468000
O301	O30	0.847300	0.956100	0.487400
C1111	C111	0.772600	0.577200	0.191400
H631	H63	0.718300	0.606300	0.171900
C1121	C112	0.767400	0.491000	0.194600
H641	H64	0.709200	0.464100	0.187000
N191	N19	0.843100	0.443600	0.208400
C1131	C113	0.918100	0.487500	0.225700
H651	H65	0.973000	0.455200	0.235600
C1141	C114	0.935000	0.766300	0.240400
H661	H66	0.989100	0.735600	0.258400
C1151	C115	0.934000	0.856200	0.241200
H671	H67	0.987100	0.885900	0.262200
C1161	C116	0.849300	0.720500	0.210800
N201	N20	0.855700	0.903300	0.211400
C1171	C117	0.778500	0.772200	0.178600
H681	H68	0.725100	0.745500	0.155000
C1181	C118	0.782800	0.859600	0.179500
H691	H69	0.732200	0.890800	0.156700
C1191	C119	0.928000	0.570500	0.231300
H701	H70	0.986300	0.595600	0.246900
C1201	C120	0.844200	0.623800	0.212400
C1211	C121	0.972200	0.099900	0.148200
C1221	C122	0.056800	0.085100	0.200100
C1231	C123	0.142600	0.087500	0.184400
H711	H71	0.143500	0.099000	0.143400
C1241	C124	0.227800	0.073600	0.227200
C1251	C125	0.222000	0.050300	0.286000
H721	H72	0.276600	0.035200	0.314700
C1261	C126	0.141400	0.048400	0.303700
H731	H73	0.141800	0.036200	0.344800
C1271	C127	0.052800	0.065500	0.259300
C1281	C128	0.711800	0.014200	0.306100
C1291	C129	0.630200	0.037900	0.252900
C1301	C130	0.639100	0.053700	0.193000
C1311	C131	0.552800	0.074100	0.145900
H741	H74	0.555500	0.088000	0.105600
C1321	C132	0.469100	0.072400	0.161900
H751	H75	0.414100	0.080500	0.131700
C1331	C133	0.465900	0.058900	0.222700
C1341	C134	0.543400	0.036000	0.266700
H761	H76	0.538100	0.019200	0.306000
N211	N21	0.379400	0.059600	0.243000
N221	N22	0.308800	0.076700	0.203000
O311	O31	0.721200	0.056500	0.174800
O321	O32	0.796700	0.023200	0.301100
O331	O33	0.697000	0.987800	0.354800
O341	O34	0.980900	0.111500	0.094600
O351	O35	0.890900	0.096100	0.157700
O361	O36	0.976800	0.057100	0.279600
Zn101	Zn10	0.847600	0.038790	0.225100
Zn111	Zn11	0.842630	0.977690	0.400200
C1351	C135	0.769400	0.794200	0.352500
H771	H77	0.718200	0.823700	0.328700
C1361	C136	0.766900	0.706300	0.351800
H781	H78	0.713000	0.678600	0.330100
C1371	C137	0.837400	0.658800	0.380400
C1381	C138	0.913700	0.705400	0.411400
H791	H79	0.967400	0.676000	0.431900
C1391	C139	0.912000	0.794800	0.412700
H801	H80	0.965100	0.823600	0.434600
C1401	C140	0.766900	0.420900	0.363800
H811	H81	0.710300	0.391100	0.355000
C1411	C141	0.761700	0.511300	0.361800
H821	H82	0.704200	0.537700	0.346100
C1421	C142	0.839700	0.563200	0.382300
C1431	C143	0.920600	0.514900	0.394700
H831	H83	0.977800	0.543600	0.405200
C1441	C144	0.919300	0.424300	0.391900
H841	H84	0.976700	0.395900	0.401400
N231	N23	0.839900	0.842100	0.384900
N241	N24	0.841300	0.373500	0.376500
Zn121	Zn12	0.844350	0.242240	0.374020
