data_EQUBUO_clean_PM
_symmetry_space_group_name_H-M	'P1'
_cell_length_a	8.510600
_cell_length_b	17.174300
_cell_length_c	17.174300
_cell_angle_alpha	90.000000
_cell_angle_beta	90.000000
_cell_angle_gamma	90.000000
_symmetry_Int_Tables_number 1

loop_
_symmetry_equiv_pos_as_xyz
'x,y,z'

loop_
_atom_site_label
_atom_site_type_symbol
_atom_site_fract_x
_atom_site_fract_y
_atom_site_fract_z
Gd11	Gd1	0.849690	0.036870	0.889710
Gd21	Gd2	0.849690	0.963130	0.110290
Gd31	Gd3	0.150310	0.889710	0.963130
Gd41	Gd4	0.150310	0.110290	0.036870
Gd51	Gd5	0.650310	0.463130	0.389710
Gd61	Gd6	0.650310	0.536870	0.610290
Gd71	Gd7	0.349690	0.610290	0.463130
Gd81	Gd8	0.349690	0.389710	0.536870
H11	H1	0.554200	0.763800	0.752600
H21	H2	0.324500	0.833300	0.560800
H31	H3	0.259500	0.948800	0.621500
H41	H4	0.351500	0.974800	0.746600
H51	H5	0.797000	0.891000	0.961000
H61	H6	0.554200	0.236200	0.247400
H71	H7	0.324500	0.166700	0.439200
H81	H8	0.259500	0.051200	0.378500
H91	H9	0.351500	0.025200	0.253400
H101	H10	0.797000	0.109000	0.039000
H111	H11	0.445800	0.752600	0.236200
H121	H12	0.675500	0.560800	0.166700
H131	H13	0.740500	0.621500	0.051200
H141	H14	0.648500	0.746600	0.025200
H151	H15	0.203000	0.961000	0.109000
H161	H16	0.445800	0.247400	0.763800
H171	H17	0.675500	0.439200	0.833300
H181	H18	0.740500	0.378500	0.948800
H191	H19	0.648500	0.253400	0.974800
H201	H20	0.203000	0.039000	0.891000
H211	H21	0.945800	0.736200	0.252600
H221	H22	0.175500	0.666700	0.060800
H231	H23	0.240500	0.551200	0.121500
H241	H24	0.148500	0.525200	0.246600
H251	H25	0.703000	0.609000	0.461000
H261	H26	0.945800	0.263800	0.747400
H271	H27	0.175500	0.333300	0.939200
H281	H28	0.240500	0.448800	0.878500
H291	H29	0.148500	0.474800	0.753400
H301	H30	0.703000	0.391000	0.539000
H311	H31	0.054200	0.747400	0.736200
H321	H32	0.824500	0.939200	0.666700
H331	H33	0.759500	0.878500	0.551200
H341	H34	0.851500	0.753400	0.525200
H351	H35	0.297000	0.539000	0.609000
H361	H36	0.054200	0.252600	0.263800
H371	H37	0.824500	0.060800	0.333300
H381	H38	0.759500	0.121500	0.448800
H391	H39	0.851500	0.246600	0.474800
H401	H40	0.297000	0.461000	0.391000
C11	C1	0.458300	0.871400	0.761100
C21	C2	0.496200	0.801100	0.725800
C31	C3	0.446500	0.787100	0.650100
C41	C4	0.489400	0.712800	0.610100
C51	C5	0.358400	0.842700	0.611400
C61	C6	0.320500	0.912200	0.647500
C71	C7	0.373400	0.927400	0.722700
C81	C8	0.458300	0.128600	0.238900
C91	C9	0.496200	0.198900	0.274200
C101	C10	0.446500	0.212900	0.349900
C111	C11	0.489400	0.287200	0.389900
C121	C12	0.358400	0.157300	0.388600
C131	C13	0.320500	0.087800	0.352500
C141	C14	0.373400	0.072600	0.277300
C151	C15	0.541700	0.761100	0.128600
C161	C16	0.503800	0.725800	0.198900
C171	C17	0.553500	0.650100	0.212900
C181	C18	0.510600	0.610100	0.287200
C191	C19	0.641600	0.611400	0.157300
C201	C20	0.679500	0.647500	0.087800
C211	C21	0.626600	0.722700	0.072600
C221	C22	0.541700	0.238900	0.871400
C231	C23	0.503800	0.274200	0.801100
C241	C24	0.553500	0.349900	0.787100
C251	C25	0.510600	0.389900	0.712800
C261	C26	0.641600	0.388600	0.842700
C271	C27	0.679500	0.352500	0.912200
C281	C28	0.626600	0.277300	0.927400
C291	C29	0.041700	0.628600	0.261100
C301	C30	0.003800	0.698900	0.225800
C311	C31	0.053500	0.712900	0.150100
C321	C32	0.010600	0.787200	0.110100
C331	C33	0.141600	0.657300	0.111400
C341	C34	0.179500	0.587800	0.147500
C351	C35	0.126600	0.572600	0.222700
C361	C36	0.041700	0.371400	0.738900
C371	C37	0.003800	0.301100	0.774200
C381	C38	0.053500	0.287100	0.849900
C391	C39	0.010600	0.212800	0.889900
C401	C40	0.141600	0.342700	0.888600
C411	C41	0.179500	0.412200	0.852500
C421	C42	0.126600	0.427400	0.777300
C431	C43	0.958300	0.738900	0.628600
C441	C44	0.996200	0.774200	0.698900
C451	C45	0.946500	0.849900	0.712900
C461	C46	0.989400	0.889900	0.787200
C471	C47	0.858400	0.888600	0.657300
C481	C48	0.820500	0.852500	0.587800
C491	C49	0.873400	0.777300	0.572600
C501	C50	0.958300	0.261100	0.371400
C511	C51	0.996200	0.225800	0.301100
C521	C52	0.946500	0.150100	0.287100
C531	C53	0.989400	0.110100	0.212800
C541	C54	0.858400	0.111400	0.342700
C551	C55	0.820500	0.147500	0.412200
C561	C56	0.873400	0.222700	0.427400
S11	S1	0.523660	0.891770	0.856860
S21	S2	0.523660	0.108230	0.143140
S31	S3	0.476340	0.856860	0.108230
S41	S4	0.476340	0.143140	0.891770
S51	S5	0.976340	0.608230	0.356860
S61	S6	0.976340	0.391770	0.643140
S71	S7	0.023660	0.643140	0.608230
S81	S8	0.023660	0.356860	0.391770
O11	O1	0.647000	0.949540	0.848980
O21	O2	0.386500	0.924470	0.896370
O31	O3	0.581700	0.820280	0.891710
O41	O4	0.542900	0.657850	0.649190
O51	O5	0.469200	0.710130	0.536030
O61	O6	0.878100	0.926330	0.974010
O71	O7	0.647000	0.050460	0.151020
O81	O8	0.386500	0.075530	0.103630
O91	O9	0.581700	0.179720	0.108290
O101	O10	0.542900	0.342150	0.350810
O111	O11	0.469200	0.289870	0.463970
O121	O12	0.878100	0.073670	0.025990
O131	O13	0.353000	0.848980	0.050460
O141	O14	0.613500	0.896370	0.075530
O151	O15	0.418300	0.891710	0.179720
O161	O16	0.457100	0.649190	0.342150
O171	O17	0.530800	0.536030	0.289870
O181	O18	0.121900	0.974010	0.073670
O191	O19	0.353000	0.151020	0.949540
O201	O20	0.613500	0.103630	0.924470
O211	O21	0.418300	0.108290	0.820280
O221	O22	0.457100	0.350810	0.657850
O231	O23	0.530800	0.463970	0.710130
O241	O24	0.121900	0.025990	0.926330
O251	O25	0.853000	0.550460	0.348980
O261	O26	0.113500	0.575530	0.396370
O271	O27	0.918300	0.679720	0.391710
O281	O28	0.957100	0.842150	0.149190
O291	O29	0.030800	0.789870	0.036030
O301	O30	0.621900	0.573670	0.474010
O311	O31	0.853000	0.449540	0.651020
O321	O32	0.113500	0.424470	0.603630
O331	O33	0.918300	0.320280	0.608290
O341	O34	0.957100	0.157850	0.850810
O351	O35	0.030800	0.210130	0.963970
O361	O36	0.621900	0.426330	0.525990
O371	O37	0.147000	0.651020	0.550460
O381	O38	0.886500	0.603630	0.575530
O391	O39	0.081700	0.608290	0.679720
O401	O40	0.042900	0.850810	0.842150
O411	O41	0.969200	0.963970	0.789870
O421	O42	0.378100	0.525990	0.573670
O431	O43	0.147000	0.348980	0.449540
O441	O44	0.886500	0.396370	0.424470
O451	O45	0.081700	0.391710	0.320280
O461	O46	0.042900	0.149190	0.157850
O471	O47	0.969200	0.036030	0.210130
O481	O48	0.378100	0.474010	0.426330
