data_EQUCOI_clean_PM
_symmetry_space_group_name_H-M	'P1'
_cell_length_a	8.603000
_cell_length_b	15.476000
_cell_length_c	16.504000
_cell_angle_alpha	90.000000
_cell_angle_beta	96.877000
_cell_angle_gamma	90.000000
_symmetry_Int_Tables_number 1

loop_
_symmetry_equiv_pos_as_xyz
'x,y,z'

loop_
_atom_site_label
_atom_site_type_symbol
_atom_site_fract_x
_atom_site_fract_y
_atom_site_fract_z
Sc11	Sc1	0.633550	0.798050	0.163640
Sc21	Sc2	0.495850	0.893230	0.522100
Sc31	Sc3	0.021520	0.769140	0.299430
P11	P1	0.227600	0.762000	0.133550
P21	P2	0.764110	0.783660	0.976000
P31	P3	0.816490	0.606980	0.197580
P41	P4	0.668260	0.790020	0.371650
O11	O1	0.370800	0.993910	0.458260
O21	O2	0.603500	0.861540	0.421010
O31	O3	0.814700	0.689180	0.989600
O41	O4	0.588000	0.790720	0.284260
O51	O5	0.660500	0.810280	0.041010
O61	O6	0.907500	0.573730	0.130450
O71	O7	0.154600	0.685840	0.085580
O81	O8	0.846200	0.793370	0.375420
O91	O9	0.866500	0.818770	0.204130
O101	O10	0.924600	0.646880	0.267450
O111	O11	0.668400	0.794550	0.891770
O121	O12	0.402500	0.765000	0.129610
O131	O13	0.909100	0.842270	0.981630
O141	O14	0.635400	0.699900	0.409340
H11	H1	0.545300	0.698700	0.420900
O151	O15	0.683200	0.666440	0.164910
O161	O16	0.193000	0.760600	0.221810
O171	O17	0.160000	0.847560	0.092500
H21	H2	0.075500	0.837500	0.065600
O181	O18	0.729800	0.528110	0.232760
H31	H3	0.794500	0.495600	0.257300
Sc41	Sc4	0.866450	0.298050	0.336360
Sc51	Sc5	0.004150	0.393230	0.977900
Sc61	Sc6	0.478480	0.269140	0.200570
P51	P5	0.272400	0.262000	0.366450
P61	P6	0.735890	0.283660	0.524000
P71	P7	0.683510	0.106980	0.302420
P81	P8	0.831740	0.290020	0.128350
O191	O19	0.129200	0.493910	0.041740
O201	O20	0.896500	0.361540	0.078990
O211	O21	0.685300	0.189180	0.510400
O221	O22	0.912000	0.290720	0.215740
O231	O23	0.839500	0.310280	0.458990
O241	O24	0.592500	0.073730	0.369550
O251	O25	0.345400	0.185840	0.414420
O261	O26	0.653800	0.293370	0.124580
O271	O27	0.633500	0.318770	0.295870
O281	O28	0.575400	0.146880	0.232550
O291	O29	0.831600	0.294550	0.608230
O301	O30	0.097500	0.265000	0.370390
O311	O31	0.590900	0.342270	0.518370
O321	O32	0.864600	0.199900	0.090660
H41	H4	0.954700	0.198700	0.079100
O331	O33	0.816800	0.166440	0.335090
O341	O34	0.307000	0.260600	0.278190
O351	O35	0.340000	0.347560	0.407500
H51	H5	0.424500	0.337500	0.434400
O361	O36	0.770200	0.028110	0.267240
H61	H6	0.705500	0.995600	0.242700
Sc71	Sc7	0.366450	0.201950	0.836360
Sc81	Sc8	0.504150	0.106770	0.477900
Sc91	Sc9	0.978480	0.230860	0.700570
P91	P9	0.772400	0.238000	0.866450
P101	P10	0.235890	0.216340	0.024000
P111	P11	0.183510	0.393020	0.802420
P121	P12	0.331740	0.209980	0.628350
O371	O37	0.629200	0.006090	0.541740
O381	O38	0.396500	0.138460	0.578990
O391	O39	0.185300	0.310820	0.010400
O401	O40	0.412000	0.209280	0.715740
O411	O41	0.339500	0.189720	0.958990
O421	O42	0.092500	0.426270	0.869550
O431	O43	0.845400	0.314160	0.914420
O441	O44	0.153800	0.206630	0.624580
O451	O45	0.133500	0.181230	0.795870
O461	O46	0.075400	0.353120	0.732550
O471	O47	0.331600	0.205450	0.108230
O481	O48	0.597500	0.235000	0.870390
O491	O49	0.090900	0.157730	0.018370
O501	O50	0.364600	0.300100	0.590660
H71	H7	0.454700	0.301300	0.579100
O511	O51	0.316800	0.333560	0.835090
O521	O52	0.807000	0.239400	0.778190
O531	O53	0.840000	0.152440	0.907500
H81	H8	0.924500	0.162500	0.934400
O541	O54	0.270200	0.471890	0.767240
H91	H9	0.205500	0.504400	0.742700
Sc101	Sc10	0.133550	0.701950	0.663640
Sc111	Sc11	0.995850	0.606770	0.022100
Sc121	Sc12	0.521520	0.730860	0.799430
P131	P13	0.727600	0.738000	0.633550
P141	P14	0.264110	0.716340	0.476000
P151	P15	0.316490	0.893020	0.697580
P161	P16	0.168260	0.709980	0.871650
O551	O55	0.870800	0.506090	0.958260
O561	O56	0.103500	0.638460	0.921010
O571	O57	0.314700	0.810820	0.489600
O581	O58	0.088000	0.709280	0.784260
O591	O59	0.160500	0.689720	0.541010
O601	O60	0.407500	0.926270	0.630450
O611	O61	0.654600	0.814160	0.585580
O621	O62	0.346200	0.706630	0.875420
O631	O63	0.366500	0.681230	0.704130
O641	O64	0.424600	0.853120	0.767450
O651	O65	0.168400	0.705450	0.391770
O661	O66	0.902500	0.735000	0.629610
O671	O67	0.409100	0.657730	0.481630
O681	O68	0.135400	0.800100	0.909340
H101	H10	0.045300	0.801300	0.920900
O691	O69	0.183200	0.833560	0.664910
O701	O70	0.693000	0.739400	0.721810
O711	O71	0.660000	0.652440	0.592500
H111	H11	0.575500	0.662500	0.565600
O721	O72	0.229800	0.971890	0.732760
H121	H12	0.294500	0.004400	0.757300
