data_EQUNIP_clean_PM
_symmetry_space_group_name_H-M	'P1'
_cell_length_a	22.181100
_cell_length_b	22.181100
_cell_length_c	41.961000
_cell_angle_alpha	90.000000
_cell_angle_beta	90.000000
_cell_angle_gamma	120.000000
_symmetry_Int_Tables_number 1

loop_
_symmetry_equiv_pos_as_xyz
'x,y,z'

loop_
_atom_site_label
_atom_site_type_symbol
_atom_site_fract_x
_atom_site_fract_y
_atom_site_fract_z
In11	In1	0.622780	0.227980	0.999610
O11	O1	0.542590	0.211720	0.034410
O21	O2	0.331340	0.788990	0.034790
O31	O3	0.228410	0.689180	0.037710
O41	O4	0.537600	0.308430	0.035910
O51	O5	0.404060	0.325230	0.129300
O61	O6	0.300610	0.232770	0.135700
O71	O7	0.075230	0.673790	0.128630
O81	O8	0.086820	0.769430	0.148860
C11	C1	0.273100	0.753600	0.044970
C21	C2	0.198800	0.853900	0.109440
H11	H1	0.184500	0.876300	0.123700
C31	C3	0.255200	0.892400	0.088530
C41	C4	0.164700	0.780500	0.108110
C51	C5	0.188400	0.746600	0.087180
H21	H2	0.165800	0.698300	0.086400
C61	C6	0.246600	0.786800	0.067470
C71	C7	0.279800	0.858700	0.068790
H31	H3	0.319100	0.885000	0.056300
C81	C8	0.458450	0.210800	0.066200
C91	C9	0.519500	0.245370	0.044110
C101	C10	0.420100	0.140100	0.066890
H41	H4	0.432700	0.114800	0.053500
C111	C11	0.293700	0.969500	0.089150
C121	C12	0.322400	0.029700	0.088550
C131	C13	0.362200	0.103900	0.086950
C141	C14	0.437200	0.250600	0.083640
H51	H5	0.460300	0.298700	0.081500
C151	C15	0.380200	0.216500	0.104620
C161	C16	0.340500	0.143600	0.105130
H61	H6	0.300100	0.121400	0.117300
C171	C17	0.364590	0.261200	0.126750
C181	C18	0.106400	0.740600	0.129990
In21	In2	0.289440	0.561310	0.332950
O91	O9	0.209260	0.545050	0.367740
O101	O10	0.998010	0.122320	0.368120
O111	O11	0.895080	0.022510	0.371040
O121	O12	0.204270	0.641760	0.369240
O131	O13	0.070730	0.658560	0.462630
O141	O14	0.967280	0.566100	0.469030
O151	O15	0.741900	0.007120	0.461960
O161	O16	0.753490	0.102760	0.482190
C191	C19	0.939770	0.086930	0.378300
C201	C20	0.865470	0.187230	0.442770
H71	H7	0.851170	0.209630	0.457030
C211	C21	0.921870	0.225730	0.421860
C221	C22	0.831370	0.113830	0.441440
C231	C23	0.855070	0.079930	0.420510
H81	H8	0.832470	0.031630	0.419730
C241	C24	0.913270	0.120130	0.400800
C251	C25	0.946470	0.192030	0.402120
H91	H9	0.985770	0.218330	0.389630
C261	C26	0.125120	0.544130	0.399530
C271	C27	0.186170	0.578700	0.377440
C281	C28	0.086770	0.473430	0.400220
H101	H10	0.099370	0.448130	0.386830
C291	C29	0.960370	0.302830	0.422480
C301	C30	0.989070	0.363030	0.421880
C311	C31	0.028870	0.437230	0.420280
C321	C32	0.103870	0.583930	0.416970
H111	H11	0.126970	0.632030	0.414830
C331	C33	0.046870	0.549830	0.437950
C341	C34	0.007170	0.476930	0.438460
H121	H12	0.966770	0.454730	0.450630
C351	C35	0.031260	0.594530	0.460080
C361	C36	0.773070	0.073930	0.463320
In31	In3	0.956110	0.894650	0.666280
O171	O17	0.875920	0.878390	0.701080
O181	O18	0.664670	0.455660	0.701460
O191	O19	0.561740	0.355850	0.704380
O201	O20	0.870930	0.975100	0.702580
O211	O21	0.737390	0.991900	0.795970
O221	O22	0.633940	0.899440	0.802370
O231	O23	0.408560	0.340460	0.795300
O241	O24	0.420150	0.436100	0.815530
C371	C37	0.606430	0.420270	0.711640
C381	C38	0.532130	0.520570	0.776110
H131	H13	0.517830	0.542970	0.790370
C391	C39	0.588530	0.559070	0.755200
C401	C40	0.498030	0.447170	0.774780
C411	C41	0.521730	0.413270	0.753850
H141	H14	0.499130	0.364970	0.753070
C421	C42	0.579930	0.453470	0.734140
C431	C43	0.613130	0.525370	0.735460
H151	H15	0.652430	0.551670	0.722970
C441	C44	0.791780	0.877470	0.732870
C451	C45	0.852830	0.912040	0.710780
C461	C46	0.753430	0.806770	0.733560
H161	H16	0.766030	0.781470	0.720170
C471	C47	0.627030	0.636170	0.755820
C481	C48	0.655730	0.696370	0.755220
C491	C49	0.695530	0.770570	0.753620
C501	C50	0.770530	0.917270	0.750310
H171	H17	0.793630	0.965370	0.748170
C511	C51	0.713530	0.883170	0.771290
C521	C52	0.673830	0.810270	0.771800
H181	H18	0.633430	0.788070	0.783970
C531	C53	0.697920	0.927870	0.793420
C541	C54	0.439730	0.407270	0.796660
In41	In4	0.772020	0.394800	0.999610
O251	O25	0.788280	0.330870	0.034410
O261	O26	0.211010	0.542350	0.034790
O271	O27	0.310820	0.539230	0.037710
O281	O28	0.691570	0.229170	0.035910
O291	O29	0.674770	0.078830	0.129300
O301	O30	0.767230	0.067840	0.135700
O311	O31	0.326210	0.401440	0.128630
O321	O32	0.230570	0.317390	0.148860
C551	C55	0.246400	0.519500	0.044970
C561	C56	0.146100	0.344900	0.109440
H191	H19	0.123700	0.308200	0.123700
C571	C57	0.107600	0.362800	0.088530
C581	C58	0.219500	0.384200	0.108110
C591	C59	0.253400	0.441800	0.087180
H201	H20	0.301700	0.467500	0.086400
C601	C60	0.213200	0.459800	0.067470
C611	C61	0.141300	0.421100	0.068790
H211	H21	0.115000	0.434100	0.056300
C621	C62	0.789200	0.247650	0.066200
C631	C63	0.754630	0.274130	0.044110
C641	C64	0.859900	0.280000	0.066890
H221	H22	0.885200	0.317900	0.053500
C651	C65	0.030500	0.324200	0.089150
C661	C66	0.970300	0.292700	0.088550
C671	C67	0.896100	0.258300	0.086950
C681	C68	0.749400	0.186600	0.083640
H231	H23	0.701300	0.161600	0.081500
C691	C69	0.783500	0.163700	0.104620
C701	C70	0.856400	0.196900	0.105130
H241	H24	0.878600	0.178700	0.117300
C711	C71	0.738800	0.103390	0.126750
C721	C72	0.259400	0.365800	0.129990
In51	In5	0.438690	0.728130	0.332950
O331	O33	0.454950	0.664200	0.367740
O341	O34	0.877680	0.875680	0.368120
O351	O35	0.977490	0.872560	0.371040
O361	O36	0.358240	0.562500	0.369240
O371	O37	0.341440	0.412160	0.462630
O381	O38	0.433900	0.401170	0.469030
O391	O39	0.992880	0.734770	0.461960
O401	O40	0.897240	0.650720	0.482190
C731	C73	0.913070	0.852830	0.378300
C741	C74	0.812770	0.678230	0.442770
H251	H25	0.790370	0.641530	0.457030
C751	C75	0.774270	0.696130	0.421860
C761	C76	0.886170	0.717530	0.441440
C771	C77	0.920070	0.775130	0.420510
H261	H26	0.968370	0.800830	0.419730
C781	C78	0.879870	0.793130	0.400800
C791	C79	0.807970	0.754430	0.402120
H271	H27	0.781670	0.767430	0.389630
C801	C80	0.455870	0.580980	0.399530
C811	C81	0.421300	0.607460	0.377440
C821	C82	0.526570	0.613330	0.400220
H281	H28	0.551870	0.651230	0.386830
C831	C83	0.697170	0.657530	0.422480
C841	C84	0.636970	0.626030	0.421880
C851	C85	0.562770	0.591630	0.420280
C861	C86	0.416070	0.519930	0.416970
H291	H29	0.367970	0.494930	0.414830
C871	C87	0.450170	0.497030	0.437950
C881	C88	0.523070	0.530230	0.438460
H301	H30	0.545270	0.512030	0.450630
C891	C89	0.405470	0.436720	0.460080
C901	C90	0.926070	0.699130	0.463320
In61	In6	0.105350	0.061460	0.666280
O411	O41	0.121610	0.997540	0.701080
O421	O42	0.544340	0.209020	0.701460
O431	O43	0.644150	0.205900	0.704380
O441	O44	0.024900	0.895840	0.702580
O451	O45	0.008100	0.745500	0.795970
O461	O46	0.100560	0.734510	0.802370
O471	O47	0.659540	0.068110	0.795300
O481	O48	0.563900	0.984060	0.815530
C911	C91	0.579730	0.186170	0.711640
C921	C92	0.479430	0.011570	0.776110
H311	H31	0.457030	0.974870	0.790370
C931	C93	0.440930	0.029470	0.755200
C941	C94	0.552830	0.050870	0.774780
C951	C95	0.586730	0.108470	0.753850
H321	H32	0.635030	0.134170	0.753070
C961	C96	0.546530	0.126470	0.734140
C971	C97	0.474630	0.087770	0.735460
H331	H33	0.448330	0.100770	0.722970
C981	C98	0.122530	0.914320	0.732870
C991	C99	0.087960	0.940800	0.710780
C1001	C100	0.193230	0.946670	0.733560
H341	H34	0.218530	0.984570	0.720170
C1011	C101	0.363830	0.990870	0.755820
C1021	C102	0.303630	0.959370	0.755220
C1031	C103	0.229430	0.924970	0.753620
C1041	C104	0.082730	0.853270	0.750310
H351	H35	0.034630	0.828270	0.748170
C1051	C105	0.116830	0.830370	0.771290
C1061	C106	0.189730	0.863570	0.771800
H361	H36	0.211930	0.845370	0.783970
C1071	C107	0.072130	0.770060	0.793420
C1081	C108	0.592730	0.032470	0.796660
In71	In7	0.605200	0.377220	0.999610
O491	O49	0.669130	0.457410	0.034410
O501	O50	0.457650	0.668660	0.034790
O511	O51	0.460770	0.771590	0.037710
O521	O52	0.770830	0.462400	0.035910
O531	O53	0.921170	0.595940	0.129300
O541	O54	0.932160	0.699390	0.135700
O551	O55	0.598560	0.924770	0.128630
O561	O56	0.682610	0.913180	0.148860
C1091	C109	0.480500	0.726900	0.044970
C1101	C110	0.655100	0.801200	0.109440
H371	H37	0.691800	0.815500	0.123700
C1111	C111	0.637200	0.744800	0.088530
C1121	C112	0.615800	0.835300	0.108110
C1131	C113	0.558200	0.811600	0.087180
H381	H38	0.532500	0.834200	0.086400
C1141	C114	0.540200	0.753400	0.067470
C1151	C115	0.578900	0.720200	0.068790
H391	H39	0.565900	0.680900	0.056300
C1161	C116	0.752350	0.541550	0.066200
C1171	C117	0.725870	0.480500	0.044110
C1181	C118	0.720000	0.579900	0.066890
H401	H40	0.682100	0.567300	0.053500
C1191	C119	0.675800	0.706300	0.089150
C1201	C120	0.707300	0.677600	0.088550
C1211	C121	0.741700	0.637800	0.086950
C1221	C122	0.813400	0.562800	0.083640
H411	H41	0.838400	0.539700	0.081500
C1231	C123	0.836300	0.619800	0.104620
C1241	C124	0.803100	0.659500	0.105130
H421	H42	0.821300	0.699900	0.117300
C1251	C125	0.896610	0.635410	0.126750
C1261	C126	0.634200	0.893600	0.129990
In81	In8	0.271870	0.710560	0.332950
O571	O57	0.335800	0.790740	0.367740
O581	O58	0.124320	0.001990	0.368120
O591	O59	0.127440	0.104920	0.371040
O601	O60	0.437500	0.795730	0.369240
O611	O61	0.587840	0.929270	0.462630
O621	O62	0.598830	0.032720	0.469030
O631	O63	0.265230	0.258100	0.461960
O641	O64	0.349280	0.246510	0.482190
C1271	C127	0.147170	0.060230	0.378300
C1281	C128	0.321770	0.134530	0.442770
H431	H43	0.358470	0.148830	0.457030
C1291	C129	0.303870	0.078130	0.421860
C1301	C130	0.282470	0.168630	0.441440
C1311	C131	0.224870	0.144930	0.420510
H441	H44	0.199170	0.167530	0.419730
C1321	C132	0.206870	0.086730	0.400800
C1331	C133	0.245570	0.053530	0.402120
H451	H45	0.232570	0.014230	0.389630
C1341	C134	0.419020	0.874880	0.399530
C1351	C135	0.392540	0.813830	0.377440
C1361	C136	0.386670	0.913230	0.400220
H461	H46	0.348770	0.900630	0.386830
C1371	C137	0.342470	0.039630	0.422480
C1381	C138	0.373970	0.010930	0.421880
C1391	C139	0.408370	0.971130	0.420280
C1401	C140	0.480070	0.896130	0.416970
H471	H47	0.505070	0.873030	0.414830
C1411	C141	0.502970	0.953130	0.437950
C1421	C142	0.469770	0.992830	0.438460
H481	H48	0.487970	0.033230	0.450630
C1431	C143	0.563280	0.968740	0.460080
C1441	C144	0.300870	0.226930	0.463320
In91	In9	0.938540	0.043890	0.666280
O651	O65	0.002460	0.124080	0.701080
O661	O66	0.790980	0.335330	0.701460
O671	O67	0.794100	0.438260	0.704380
O681	O68	0.104160	0.129070	0.702580
O691	O69	0.254500	0.262610	0.795970
O701	O70	0.265490	0.366060	0.802370
O711	O71	0.931890	0.591440	0.795300
O721	O72	0.015940	0.579850	0.815530
C1451	C145	0.813830	0.393570	0.711640
C1461	C146	0.988430	0.467870	0.776110
H491	H49	0.025130	0.482170	0.790370
C1471	C147	0.970530	0.411470	0.755200
C1481	C148	0.949130	0.501970	0.774780
C1491	C149	0.891530	0.478270	0.753850
H501	H50	0.865830	0.500870	0.753070
C1501	C150	0.873530	0.420070	0.734140
C1511	C151	0.912230	0.386870	0.735460
H511	H51	0.899230	0.347570	0.722970
C1521	C152	0.085680	0.208220	0.732870
C1531	C153	0.059200	0.147170	0.710780
C1541	C154	0.053330	0.246570	0.733560
H521	H52	0.015430	0.233970	0.720170
C1551	C155	0.009130	0.372970	0.755820
C1561	C156	0.040630	0.344270	0.755220
C1571	C157	0.075030	0.304470	0.753620
C1581	C158	0.146730	0.229470	0.750310
H531	H53	0.171730	0.206370	0.748170
C1591	C159	0.169630	0.286470	0.771290
C1601	C160	0.136430	0.326170	0.771800
H541	H54	0.154630	0.366570	0.783970
C1611	C161	0.229940	0.302080	0.793420
C1621	C162	0.967530	0.560270	0.796660
In101	In10	0.227980	0.622780	0.000390
O731	O73	0.211720	0.542590	0.965590
O741	O74	0.788990	0.331340	0.965210
O751	O75	0.689180	0.228410	0.962290
O761	O76	0.308430	0.537600	0.964090
O771	O77	0.325230	0.404060	0.870700
O781	O78	0.232770	0.300610	0.864300
O791	O79	0.673790	0.075230	0.871370
O801	O80	0.769430	0.086820	0.851140
C1631	C163	0.753600	0.273100	0.955030
C1641	C164	0.853900	0.198800	0.890560
H551	H55	0.876300	0.184500	0.876300
C1651	C165	0.892400	0.255200	0.911470
C1661	C166	0.780500	0.164700	0.891890
C1671	C167	0.746600	0.188400	0.912820
H561	H56	0.698300	0.165800	0.913600
C1681	C168	0.786800	0.246600	0.932530
C1691	C169	0.858700	0.279800	0.931210
H571	H57	0.885000	0.319100	0.943700
C1701	C170	0.210800	0.458450	0.933800
C1711	C171	0.245370	0.519500	0.955890
C1721	C172	0.140100	0.420100	0.933110
H581	H58	0.114800	0.432700	0.946500
C1731	C173	0.969500	0.293700	0.910850
C1741	C174	0.029700	0.322400	0.911450
C1751	C175	0.103900	0.362200	0.913050
C1761	C176	0.250600	0.437200	0.916360
H591	H59	0.298700	0.460300	0.918500
C1771	C177	0.216500	0.380200	0.895380
C1781	C178	0.143600	0.340500	0.894870
H601	H60	0.121400	0.300100	0.882700
C1791	C179	0.261200	0.364590	0.873250
C1801	C180	0.740600	0.106400	0.870010
In111	In11	0.894650	0.956110	0.333720
O811	O81	0.878390	0.875920	0.298920
O821	O82	0.455660	0.664670	0.298540
O831	O83	0.355850	0.561740	0.295620
O841	O84	0.975100	0.870930	0.297420
O851	O85	0.991900	0.737390	0.204030
O861	O86	0.899440	0.633940	0.197630
O871	O87	0.340460	0.408560	0.204700
O881	O88	0.436100	0.420150	0.184470
C1811	C181	0.420270	0.606430	0.288360
C1821	C182	0.520570	0.532130	0.223890
H611	H61	0.542970	0.517830	0.209630
C1831	C183	0.559070	0.588530	0.244800
C1841	C184	0.447170	0.498030	0.225220
C1851	C185	0.413270	0.521730	0.246150
H621	H62	0.364970	0.499130	0.246930
C1861	C186	0.453470	0.579930	0.265860
C1871	C187	0.525370	0.613130	0.264540
H631	H63	0.551670	0.652430	0.277030
C1881	C188	0.877470	0.791780	0.267130
C1891	C189	0.912040	0.852830	0.289220
C1901	C190	0.806770	0.753430	0.266440
H641	H64	0.781470	0.766030	0.279830
C1911	C191	0.636170	0.627030	0.244180
C1921	C192	0.696370	0.655730	0.244780
C1931	C193	0.770570	0.695530	0.246380
C1941	C194	0.917270	0.770530	0.249690
H651	H65	0.965370	0.793630	0.251830
C1951	C195	0.883170	0.713530	0.228710
C1961	C196	0.810270	0.673830	0.228200
H661	H66	0.788070	0.633430	0.216030
C1971	C197	0.927870	0.697920	0.206580
C1981	C198	0.407270	0.439730	0.203340
In121	In12	0.561310	0.289440	0.667050
O891	O89	0.545050	0.209260	0.632260
O901	O90	0.122320	0.998010	0.631880
O911	O91	0.022510	0.895080	0.628960
O921	O92	0.641760	0.204270	0.630760
O931	O93	0.658560	0.070730	0.537370
O941	O94	0.566100	0.967280	0.530970
O951	O95	0.007120	0.741900	0.538040
O961	O96	0.102760	0.753490	0.517810
C1991	C199	0.086930	0.939770	0.621700
C2001	C200	0.187230	0.865470	0.557230
H671	H67	0.209630	0.851170	0.542970
C2011	C201	0.225730	0.921870	0.578140
C2021	C202	0.113830	0.831370	0.558560
C2031	C203	0.079930	0.855070	0.579490
H681	H68	0.031630	0.832470	0.580270
C2041	C204	0.120130	0.913270	0.599200
C2051	C205	0.192030	0.946470	0.597880
H691	H69	0.218330	0.985770	0.610370
C2061	C206	0.544130	0.125120	0.600470
C2071	C207	0.578700	0.186170	0.622560
C2081	C208	0.473430	0.086770	0.599780
H701	H70	0.448130	0.099370	0.613170
C2091	C209	0.302830	0.960370	0.577520
C2101	C210	0.363030	0.989070	0.578120
C2111	C211	0.437230	0.028870	0.579720
C2121	C212	0.583930	0.103870	0.583030
H711	H71	0.632030	0.126970	0.585170
C2131	C213	0.549830	0.046870	0.562050
C2141	C214	0.476930	0.007170	0.561540
H721	H72	0.454730	0.966770	0.549370
C2151	C215	0.594530	0.031260	0.539920
C2161	C216	0.073930	0.773070	0.536680
In131	In13	0.394800	0.772020	0.000390
O971	O97	0.330870	0.788280	0.965590
O981	O98	0.542350	0.211010	0.965210
O991	O99	0.539230	0.310820	0.962290
O1001	O100	0.229170	0.691570	0.964090
O1011	O101	0.078830	0.674770	0.870700
O1021	O102	0.067840	0.767230	0.864300
O1031	O103	0.401440	0.326210	0.871370
O1041	O104	0.317390	0.230570	0.851140
C2171	C217	0.519500	0.246400	0.955030
C2181	C218	0.344900	0.146100	0.890560
H731	H73	0.308200	0.123700	0.876300
C2191	C219	0.362800	0.107600	0.911470
C2201	C220	0.384200	0.219500	0.891890
C2211	C221	0.441800	0.253400	0.912820
H741	H74	0.467500	0.301700	0.913600
C2221	C222	0.459800	0.213200	0.932530
C2231	C223	0.421100	0.141300	0.931210
H751	H75	0.434100	0.115000	0.943700
C2241	C224	0.247650	0.789200	0.933800
C2251	C225	0.274130	0.754630	0.955890
C2261	C226	0.280000	0.859900	0.933110
H761	H76	0.317900	0.885200	0.946500
C2271	C227	0.324200	0.030500	0.910850
C2281	C228	0.292700	0.970300	0.911450
C2291	C229	0.258300	0.896100	0.913050
C2301	C230	0.186600	0.749400	0.916360
H771	H77	0.161600	0.701300	0.918500
C2311	C231	0.163700	0.783500	0.895380
C2321	C232	0.196900	0.856400	0.894870
H781	H78	0.178700	0.878600	0.882700
C2331	C233	0.103390	0.738800	0.873250
C2341	C234	0.365800	0.259400	0.870010
In141	In14	0.061460	0.105350	0.333720
O1051	O105	0.997540	0.121610	0.298920
O1061	O106	0.209020	0.544340	0.298540
O1071	O107	0.205900	0.644150	0.295620
O1081	O108	0.895840	0.024900	0.297420
O1091	O109	0.745500	0.008100	0.204030
O1101	O110	0.734510	0.100560	0.197630
O1111	O111	0.068110	0.659540	0.204700
O1121	O112	0.984060	0.563900	0.184470
C2351	C235	0.186170	0.579730	0.288360
C2361	C236	0.011570	0.479430	0.223890
H791	H79	0.974870	0.457030	0.209630
C2371	C237	0.029470	0.440930	0.244800
C2381	C238	0.050870	0.552830	0.225220
C2391	C239	0.108470	0.586730	0.246150
H801	H80	0.134170	0.635030	0.246930
C2401	C240	0.126470	0.546530	0.265860
C2411	C241	0.087770	0.474630	0.264540
H811	H81	0.100770	0.448330	0.277030
C2421	C242	0.914320	0.122530	0.267130
C2431	C243	0.940800	0.087960	0.289220
C2441	C244	0.946670	0.193230	0.266440
H821	H82	0.984570	0.218530	0.279830
C2451	C245	0.990870	0.363830	0.244180
C2461	C246	0.959370	0.303630	0.244780
C2471	C247	0.924970	0.229430	0.246380
C2481	C248	0.853270	0.082730	0.249690
H831	H83	0.828270	0.034630	0.251830
C2491	C249	0.830370	0.116830	0.228710
C2501	C250	0.863570	0.189730	0.228200
H841	H84	0.845370	0.211930	0.216030
C2511	C251	0.770060	0.072130	0.206580
C2521	C252	0.032470	0.592730	0.203340
In151	In15	0.728130	0.438690	0.667050
O1131	O113	0.664200	0.454950	0.632260
O1141	O114	0.875680	0.877680	0.631880
O1151	O115	0.872560	0.977490	0.628960
O1161	O116	0.562500	0.358240	0.630760
O1171	O117	0.412160	0.341440	0.537370
O1181	O118	0.401170	0.433900	0.530970
O1191	O119	0.734770	0.992880	0.538040
O1201	O120	0.650720	0.897240	0.517810
C2531	C253	0.852830	0.913070	0.621700
C2541	C254	0.678230	0.812770	0.557230
H851	H85	0.641530	0.790370	0.542970
C2551	C255	0.696130	0.774270	0.578140
C2561	C256	0.717530	0.886170	0.558560
C2571	C257	0.775130	0.920070	0.579490
H861	H86	0.800830	0.968370	0.580270
C2581	C258	0.793130	0.879870	0.599200
C2591	C259	0.754430	0.807970	0.597880
H871	H87	0.767430	0.781670	0.610370
C2601	C260	0.580980	0.455870	0.600470
C2611	C261	0.607460	0.421300	0.622560
C2621	C262	0.613330	0.526570	0.599780
H881	H88	0.651230	0.551870	0.613170
C2631	C263	0.657530	0.697170	0.577520
C2641	C264	0.626030	0.636970	0.578120
C2651	C265	0.591630	0.562770	0.579720
C2661	C266	0.519930	0.416070	0.583030
H891	H89	0.494930	0.367970	0.585170
C2671	C267	0.497030	0.450170	0.562050
C2681	C268	0.530230	0.523070	0.561540
H901	H90	0.512030	0.545270	0.549370
C2691	C269	0.436720	0.405470	0.539920
C2701	C270	0.699130	0.926070	0.536680
In161	In16	0.377220	0.605200	0.000390
O1211	O121	0.457410	0.669130	0.965590
O1221	O122	0.668660	0.457650	0.965210
O1231	O123	0.771590	0.460770	0.962290
O1241	O124	0.462400	0.770830	0.964090
O1251	O125	0.595940	0.921170	0.870700
O1261	O126	0.699390	0.932160	0.864300
O1271	O127	0.924770	0.598560	0.871370
O1281	O128	0.913180	0.682610	0.851140
C2711	C271	0.726900	0.480500	0.955030
C2721	C272	0.801200	0.655100	0.890560
H911	H91	0.815500	0.691800	0.876300
C2731	C273	0.744800	0.637200	0.911470
C2741	C274	0.835300	0.615800	0.891890
C2751	C275	0.811600	0.558200	0.912820
H921	H92	0.834200	0.532500	0.913600
C2761	C276	0.753400	0.540200	0.932530
C2771	C277	0.720200	0.578900	0.931210
H931	H93	0.680900	0.565900	0.943700
C2781	C278	0.541550	0.752350	0.933800
C2791	C279	0.480500	0.725870	0.955890
C2801	C280	0.579900	0.720000	0.933110
H941	H94	0.567300	0.682100	0.946500
C2811	C281	0.706300	0.675800	0.910850
C2821	C282	0.677600	0.707300	0.911450
C2831	C283	0.637800	0.741700	0.913050
C2841	C284	0.562800	0.813400	0.916360
H951	H95	0.539700	0.838400	0.918500
C2851	C285	0.619800	0.836300	0.895380
C2861	C286	0.659500	0.803100	0.894870
H961	H96	0.699900	0.821300	0.882700
C2871	C287	0.635410	0.896610	0.873250
C2881	C288	0.893600	0.634200	0.870010
In171	In17	0.043890	0.938540	0.333720
O1291	O129	0.124080	0.002460	0.298920
O1301	O130	0.335330	0.790980	0.298540
O1311	O131	0.438260	0.794100	0.295620
O1321	O132	0.129070	0.104160	0.297420
O1331	O133	0.262610	0.254500	0.204030
O1341	O134	0.366060	0.265490	0.197630
O1351	O135	0.591440	0.931890	0.204700
O1361	O136	0.579850	0.015940	0.184470
C2891	C289	0.393570	0.813830	0.288360
C2901	C290	0.467870	0.988430	0.223890
H971	H97	0.482170	0.025130	0.209630
C2911	C291	0.411470	0.970530	0.244800
C2921	C292	0.501970	0.949130	0.225220
C2931	C293	0.478270	0.891530	0.246150
H981	H98	0.500870	0.865830	0.246930
C2941	C294	0.420070	0.873530	0.265860
C2951	C295	0.386870	0.912230	0.264540
H991	H99	0.347570	0.899230	0.277030
C2961	C296	0.208220	0.085680	0.267130
C2971	C297	0.147170	0.059200	0.289220
C2981	C298	0.246570	0.053330	0.266440
H1001	H100	0.233970	0.015430	0.279830
C2991	C299	0.372970	0.009130	0.244180
C3001	C300	0.344270	0.040630	0.244780
C3011	C301	0.304470	0.075030	0.246380
C3021	C302	0.229470	0.146730	0.249690
H1011	H101	0.206370	0.171730	0.251830
C3031	C303	0.286470	0.169630	0.228710
C3041	C304	0.326170	0.136430	0.228200
H1021	H102	0.366570	0.154630	0.216030
C3051	C305	0.302080	0.229940	0.206580
C3061	C306	0.560270	0.967530	0.203340
In181	In18	0.710560	0.271870	0.667050
O1371	O137	0.790740	0.335800	0.632260
O1381	O138	0.001990	0.124320	0.631880
O1391	O139	0.104920	0.127440	0.628960
O1401	O140	0.795730	0.437500	0.630760
O1411	O141	0.929270	0.587840	0.537370
O1421	O142	0.032720	0.598830	0.530970
O1431	O143	0.258100	0.265230	0.538040
O1441	O144	0.246510	0.349280	0.517810
C3071	C307	0.060230	0.147170	0.621700
C3081	C308	0.134530	0.321770	0.557230
H1031	H103	0.148830	0.358470	0.542970
C3091	C309	0.078130	0.303870	0.578140
C3101	C310	0.168630	0.282470	0.558560
C3111	C311	0.144930	0.224870	0.579490
H1041	H104	0.167530	0.199170	0.580270
C3121	C312	0.086730	0.206870	0.599200
C3131	C313	0.053530	0.245570	0.597880
H1051	H105	0.014230	0.232570	0.610370
C3141	C314	0.874880	0.419020	0.600470
C3151	C315	0.813830	0.392540	0.622560
C3161	C316	0.913230	0.386670	0.599780
H1061	H106	0.900630	0.348770	0.613170
C3171	C317	0.039630	0.342470	0.577520
C3181	C318	0.010930	0.373970	0.578120
C3191	C319	0.971130	0.408370	0.579720
C3201	C320	0.896130	0.480070	0.583030
H1071	H107	0.873030	0.505070	0.585170
C3211	C321	0.953130	0.502970	0.562050
C3221	C322	0.992830	0.469770	0.561540
H1081	H108	0.033230	0.487970	0.549370
C3231	C323	0.968740	0.563280	0.539920
C3241	C324	0.226930	0.300870	0.536680
In191	In19	0.333330	0.331830	0.166670
In201	In20	0.000000	0.665160	0.500000
In211	In21	0.668170	0.001500	0.166670
In221	In22	0.334840	0.334840	0.500000
In231	In23	0.998500	0.666670	0.166670
In241	In24	0.665160	0.000000	0.500000
In251	In25	0.331830	0.333330	0.833330
In261	In26	0.001500	0.668170	0.833330
In271	In27	0.666670	0.998500	0.833330
O1451	O145	0.666670	0.333330	0.000090
O1461	O146	0.333330	0.666670	0.333420
O1471	O147	0.000000	0.000000	0.666760
O1481	O148	0.333330	0.666670	0.999910
O1491	O149	0.000000	0.000000	0.333240
O1501	O150	0.666670	0.333330	0.666580
