data_EREGOY_clean_PM
_symmetry_space_group_name_H-M	'P1'
_cell_length_a	17.306000
_cell_length_b	19.517000
_cell_length_c	18.722000
_cell_angle_alpha	90.000000
_cell_angle_beta	90.000000
_cell_angle_gamma	90.000000
_symmetry_Int_Tables_number 1

loop_
_symmetry_equiv_pos_as_xyz
'x,y,z'

loop_
_atom_site_label
_atom_site_type_symbol
_atom_site_fract_x
_atom_site_fract_y
_atom_site_fract_z
Cd11	Cd1	0.780500	0.558750	0.657080
Cd21	Cd2	0.929180	0.577450	0.786400
Cd31	Cd3	0.280500	0.941250	0.157080
Cd41	Cd4	0.429180	0.922550	0.286400
H11	H1	0.435300	0.502800	0.110000
H21	H2	0.418600	0.497000	0.194200
H31	H3	0.430100	0.374200	0.183600
H41	H4	0.448800	0.381900	0.100000
H51	H5	0.508400	0.442100	0.275400
H61	H6	0.575400	0.392300	0.247200
H71	H7	0.613500	0.494900	0.124200
H81	H8	0.621900	0.413100	0.118900
H91	H9	0.341100	0.163400	0.133900
H101	H10	0.284800	0.688600	0.161000
H111	H11	0.350800	0.584600	0.151100
H121	H12	0.632500	0.445000	0.483300
H131	H13	0.384300	0.275000	0.117700
H141	H14	0.581100	0.418900	0.370800
H151	H15	0.593200	0.501200	0.819400
H161	H16	0.517900	0.469000	0.916300
H171	H17	0.594800	0.218500	0.192600
H181	H18	0.545000	0.109900	0.218300
H191	H19	0.709200	0.477000	0.040900
H201	H20	0.777100	0.513100	0.945800
H211	H21	0.691500	0.584700	0.287500
H221	H22	0.747500	0.607600	0.398600
H231	H23	0.553700	0.681200	0.194300
H241	H24	0.487600	0.786400	0.193200
H251	H25	0.935300	0.997200	0.610000
H261	H26	0.918600	0.003000	0.694200
H271	H27	0.930100	0.125800	0.683600
H281	H28	0.948800	0.118100	0.600000
H291	H29	0.008400	0.057900	0.775400
H301	H30	0.075400	0.107700	0.747200
H311	H31	0.113500	0.005100	0.624200
H321	H32	0.121900	0.086900	0.618900
H331	H33	0.841100	0.336600	0.633900
H341	H34	0.784800	0.811400	0.661000
H351	H35	0.850800	0.915400	0.651100
H361	H36	0.132500	0.055000	0.983300
H371	H37	0.884300	0.225000	0.617700
H381	H38	0.081100	0.081100	0.870800
H391	H39	0.093200	0.998800	0.319400
H401	H40	0.017900	0.031000	0.416300
H411	H41	0.094800	0.281500	0.692600
H421	H42	0.045000	0.390100	0.718300
H431	H43	0.209200	0.023000	0.540900
H441	H44	0.277100	0.986900	0.445800
H451	H45	0.191500	0.915300	0.787500
H461	H46	0.247500	0.892400	0.898600
H471	H47	0.053700	0.818800	0.694300
H481	H48	0.987600	0.713600	0.693200
C11	C1	0.339900	0.815440	0.174950
C21	C2	0.725100	0.543800	0.523900
C31	C3	0.518480	0.443500	0.163400
C41	C4	0.459620	0.502510	0.157900
C51	C5	0.472180	0.379090	0.148100
C61	C6	0.693100	0.529400	0.453250
C71	C7	0.551000	0.437660	0.240450
C81	C8	0.585500	0.451890	0.113520
C91	C9	0.490840	0.258280	0.159200
C101	C10	0.392500	0.175050	0.147100
C111	C11	0.440100	0.124800	0.174840
C121	C12	0.339400	0.687360	0.165800
C131	C13	0.378600	0.625360	0.161400
C141	C14	0.630400	0.499700	0.319080
C151	C15	0.644700	0.473330	0.443540
C161	C16	0.380700	0.747560	0.177300
C171	C17	0.417400	0.241430	0.138100
C181	C18	0.604700	0.471580	0.988840
C191	C19	0.693800	0.511640	0.871570
C201	C20	0.613500	0.457760	0.376730
C211	C21	0.456400	0.622160	0.171600
C221	C22	0.740700	0.532600	0.809570
C231	C23	0.410800	0.052940	0.185600
C241	C24	0.616600	0.497400	0.865130
C251	C25	0.571400	0.477900	0.922590
C261	C26	0.542000	0.208120	0.184000
C271	C27	0.513200	0.142990	0.195500
C281	C28	0.684300	0.483400	0.996160
C291	C29	0.723800	0.503500	0.939400
C301	C30	0.680100	0.556200	0.327300
C311	C31	0.712500	0.570500	0.393400
C321	C32	0.499600	0.682900	0.185700
C331	C33	0.459700	0.745000	0.186400
C341	C34	0.839900	0.684560	0.674950
C351	C35	0.225100	0.956200	0.023900
C361	C36	0.018480	0.056500	0.663400
C371	C37	0.959620	0.997490	0.657900
C381	C38	0.972180	0.120910	0.648100
C391	C39	0.193100	0.970600	0.953250
C401	C40	0.051000	0.062340	0.740450
C411	C41	0.085500	0.048110	0.613520
C421	C42	0.990840	0.241720	0.659200
C431	C43	0.892500	0.324950	0.647100
C441	C44	0.940100	0.375200	0.674840
C451	C45	0.839400	0.812640	0.665800
C461	C46	0.878600	0.874640	0.661400
C471	C47	0.130400	0.000300	0.819080
C481	C48	0.144700	0.026670	0.943540
C491	C49	0.880700	0.752440	0.677300
C501	C50	0.917400	0.258570	0.638100
C511	C51	0.104700	0.028420	0.488840
C521	C52	0.193800	0.988360	0.371570
C531	C53	0.113500	0.042240	0.876730
C541	C54	0.956400	0.877840	0.671600
C551	C55	0.240700	0.967400	0.309570
C561	C56	0.910800	0.447060	0.685600
C571	C57	0.116600	0.002600	0.365130
C581	C58	0.071400	0.022100	0.422590
C591	C59	0.042000	0.291880	0.684000
C601	C60	0.013200	0.357010	0.695500
C611	C61	0.184300	0.016600	0.496160
C621	C62	0.223800	0.996500	0.439400
C631	C63	0.180100	0.943800	0.827300
C641	C64	0.212500	0.929500	0.893400
C651	C65	0.999600	0.817100	0.685700
C661	C66	0.959700	0.755000	0.686400
O11	O1	0.270970	0.818430	0.164770
O21	O2	0.380430	0.869390	0.185290
O31	O3	0.784920	0.581220	0.527890
O41	O4	0.694280	0.519180	0.577500
O51	O5	0.522460	0.321830	0.152020
O61	O6	0.345620	0.038780	0.160880
O71	O7	0.500850	0.564770	0.169500
O81	O8	0.555290	0.453740	0.041880
O91	O9	0.707670	0.539280	0.750960
O101	O10	0.605870	0.489710	0.251900
O111	O11	0.454100	0.013740	0.221210
O121	O12	0.811000	0.541000	0.818850
O131	O13	0.770970	0.681570	0.664770
O141	O14	0.880430	0.630610	0.685290
O151	O15	0.284920	0.918780	0.027890
O161	O16	0.194280	0.980820	0.077500
O171	O17	0.022460	0.178170	0.652020
O181	O18	0.845620	0.461220	0.660880
O191	O19	0.000850	0.935230	0.669500
O201	O20	0.055290	0.046260	0.541880
O211	O21	0.207670	0.960720	0.250960
O221	O22	0.105870	0.010290	0.751900
O231	O23	0.954100	0.486260	0.721210
O241	O24	0.311000	0.959000	0.318850
Cd51	Cd5	0.219500	0.441250	0.157080
Cd61	Cd6	0.070820	0.422560	0.286400
Cd71	Cd7	0.719500	0.058750	0.657080
Cd81	Cd8	0.570820	0.077440	0.786400
H491	H49	0.564700	0.497200	0.610000
H501	H50	0.581400	0.503000	0.694200
H511	H51	0.569900	0.625800	0.683600
H521	H52	0.551200	0.618100	0.600000
H531	H53	0.491600	0.557900	0.775400
H541	H54	0.424600	0.607700	0.747200
H551	H55	0.386500	0.505100	0.624200
H561	H56	0.378100	0.586900	0.618900
H571	H57	0.658900	0.836600	0.633900
H581	H58	0.715200	0.311400	0.661000
H591	H59	0.649200	0.415400	0.651100
H601	H60	0.367500	0.555000	0.983300
H611	H61	0.615700	0.725000	0.617700
H621	H62	0.418900	0.581100	0.870800
H631	H63	0.406800	0.498800	0.319400
H641	H64	0.482100	0.531000	0.416300
H651	H65	0.405200	0.781500	0.692600
H661	H66	0.455000	0.890100	0.718300
H671	H67	0.290800	0.523000	0.540900
H681	H68	0.222900	0.486900	0.445800
H691	H69	0.308500	0.415300	0.787500
H701	H70	0.252500	0.392400	0.898600
H711	H71	0.446300	0.318800	0.694300
H721	H72	0.512400	0.213600	0.693200
H731	H73	0.064700	0.002800	0.110000
H741	H74	0.081400	0.997000	0.194200
H751	H75	0.069900	0.874200	0.183600
H761	H76	0.051200	0.881900	0.100000
H771	H77	0.991600	0.942100	0.275400
H781	H78	0.924600	0.892300	0.247200
H791	H79	0.886500	0.994900	0.124200
H801	H80	0.878100	0.913100	0.118900
H811	H81	0.158900	0.663400	0.133900
H821	H82	0.215200	0.188600	0.161000
H831	H83	0.149200	0.084600	0.151100
H841	H84	0.867500	0.945000	0.483300
H851	H85	0.115700	0.775000	0.117700
H861	H86	0.918900	0.918900	0.370800
H871	H87	0.906800	0.001200	0.819400
H881	H88	0.982100	0.969000	0.916300
H891	H89	0.905200	0.718500	0.192600
H901	H90	0.955000	0.609900	0.218300
H911	H91	0.790800	0.977000	0.040900
H921	H92	0.722900	0.013100	0.945800
H931	H93	0.808500	0.084700	0.287500
H941	H94	0.752500	0.107600	0.398600
H951	H95	0.946300	0.181200	0.194300
H961	H96	0.012400	0.286400	0.193200
C671	C67	0.660100	0.184560	0.674950
C681	C68	0.274900	0.456200	0.023900
C691	C69	0.481520	0.556500	0.663400
C701	C70	0.540380	0.497490	0.657900
C711	C71	0.527820	0.620910	0.648100
C721	C72	0.306900	0.470600	0.953250
C731	C73	0.449000	0.562340	0.740450
C741	C74	0.414500	0.548110	0.613520
C751	C75	0.509160	0.741720	0.659200
C761	C76	0.607500	0.824950	0.647100
C771	C77	0.559900	0.875200	0.674840
C781	C78	0.660600	0.312640	0.665800
C791	C79	0.621400	0.374640	0.661400
C801	C80	0.369600	0.500300	0.819080
C811	C81	0.355300	0.526670	0.943540
C821	C82	0.619300	0.252440	0.677300
C831	C83	0.582600	0.758570	0.638100
C841	C84	0.395300	0.528420	0.488840
C851	C85	0.306200	0.488360	0.371570
C861	C86	0.386500	0.542240	0.876730
C871	C87	0.543600	0.377840	0.671600
C881	C88	0.259300	0.467400	0.309570
C891	C89	0.589200	0.947060	0.685600
C901	C90	0.383400	0.502600	0.365130
C911	C91	0.428600	0.522100	0.422590
C921	C92	0.458000	0.791880	0.684000
C931	C93	0.486800	0.857010	0.695500
C941	C94	0.315700	0.516600	0.496160
C951	C95	0.276200	0.496500	0.439400
C961	C96	0.319900	0.443800	0.827300
C971	C97	0.287500	0.429500	0.893400
C981	C98	0.500400	0.317100	0.685700
C991	C99	0.540300	0.255000	0.686400
C1001	C100	0.160100	0.315440	0.174950
C1011	C101	0.774900	0.043800	0.523900
C1021	C102	0.981520	0.943500	0.163400
C1031	C103	0.040380	0.002510	0.157900
C1041	C104	0.027820	0.879090	0.148100
C1051	C105	0.806900	0.029400	0.453250
C1061	C106	0.949000	0.937660	0.240450
C1071	C107	0.914500	0.951890	0.113520
C1081	C108	0.009160	0.758280	0.159200
C1091	C109	0.107500	0.675050	0.147100
C1101	C110	0.059900	0.624800	0.174840
C1111	C111	0.160600	0.187360	0.165800
C1121	C112	0.121400	0.125360	0.161400
C1131	C113	0.869600	0.999700	0.319080
C1141	C114	0.855300	0.973330	0.443540
C1151	C115	0.119300	0.247560	0.177300
C1161	C116	0.082600	0.741430	0.138100
C1171	C117	0.895300	0.971580	0.988840
C1181	C118	0.806200	0.011640	0.871570
C1191	C119	0.886500	0.957760	0.376730
C1201	C120	0.043600	0.122160	0.171600
C1211	C121	0.759300	0.032600	0.809570
C1221	C122	0.089200	0.552940	0.185600
C1231	C123	0.883400	0.997400	0.865130
C1241	C124	0.928600	0.977900	0.922590
C1251	C125	0.958000	0.708120	0.184000
C1261	C126	0.986800	0.642990	0.195500
C1271	C127	0.815700	0.983400	0.996160
C1281	C128	0.776200	0.003500	0.939400
C1291	C129	0.819900	0.056200	0.327300
C1301	C130	0.787500	0.070500	0.393400
C1311	C131	0.000400	0.182900	0.185700
C1321	C132	0.040300	0.245000	0.186400
O251	O25	0.729030	0.181570	0.664770
O261	O26	0.619570	0.130610	0.685290
O271	O27	0.215080	0.418780	0.027890
O281	O28	0.305720	0.480820	0.077500
O291	O29	0.477540	0.678170	0.652020
O301	O30	0.654380	0.961220	0.660880
O311	O31	0.499150	0.435230	0.669500
O321	O32	0.444710	0.546260	0.541880
O331	O33	0.292330	0.460720	0.250960
O341	O34	0.394130	0.510290	0.751900
O351	O35	0.545900	0.986260	0.721210
O361	O36	0.189000	0.459000	0.318850
O371	O37	0.229030	0.318430	0.164770
O381	O38	0.119570	0.369390	0.185290
O391	O39	0.715080	0.081220	0.527890
O401	O40	0.805720	0.019180	0.577500
O411	O41	0.977540	0.821830	0.152020
O421	O42	0.154380	0.538780	0.160880
O431	O43	0.999150	0.064770	0.169500
O441	O44	0.944710	0.953740	0.041880
O451	O45	0.792330	0.039280	0.750960
O461	O46	0.894130	0.989710	0.251900
O471	O47	0.045900	0.513740	0.221210
O481	O48	0.689000	0.041000	0.818850
