data_ERIWAF_clean_PM
_symmetry_space_group_name_H-M	'P1'
_cell_length_a	18.565300
_cell_length_b	18.565300
_cell_length_c	23.963600
_cell_angle_alpha	90.000000
_cell_angle_beta	90.000000
_cell_angle_gamma	120.000000
_symmetry_Int_Tables_number 1

loop_
_symmetry_equiv_pos_as_xyz
'x,y,z'

loop_
_atom_site_label
_atom_site_type_symbol
_atom_site_fract_x
_atom_site_fract_y
_atom_site_fract_z
O11	O1	0.481340	0.370990	0.994510
O21	O2	0.440180	0.410810	0.071200
N11	N1	0.238900	0.084800	0.200700
H11	H1	0.460300	0.281800	0.218100
C11	C1	0.450000	0.359500	0.042870
C21	C2	0.422500	0.276400	0.069230
C31	C3	0.381400	0.255600	0.119500
H21	H2	0.367600	0.292100	0.136500
O31	O3	0.629010	0.110350	0.994510
O41	O4	0.589190	0.029370	0.071200
N21	N2	0.915200	0.154100	0.200700
H31	H3	0.718200	0.178500	0.218100
C41	C4	0.640500	0.090500	0.042870
C51	C5	0.723600	0.146100	0.069230
C61	C6	0.744400	0.125800	0.119500
H41	H4	0.707900	0.075500	0.136500
O51	O5	0.889650	0.518660	0.994510
O61	O6	0.970630	0.559820	0.071200
N31	N3	0.845900	0.761100	0.200700
H51	H5	0.821500	0.539700	0.218100
C71	C7	0.909500	0.550000	0.042870
C81	C8	0.853900	0.577500	0.069230
C91	C9	0.874200	0.618600	0.119500
H61	H6	0.924500	0.632400	0.136500
O71	O7	0.518660	0.629010	0.494510
O81	O8	0.559820	0.589190	0.571200
N41	N4	0.761100	0.915200	0.700700
H71	H7	0.539700	0.718200	0.718100
C101	C10	0.550000	0.640500	0.542870
C111	C11	0.577500	0.723600	0.569230
C121	C12	0.618600	0.744400	0.619500
H81	H8	0.632400	0.707900	0.636500
O91	O9	0.370990	0.889650	0.494510
O101	O10	0.410810	0.970630	0.571200
N51	N5	0.084800	0.845900	0.700700
H91	H9	0.281800	0.821500	0.718100
C131	C13	0.359500	0.909500	0.542870
C141	C14	0.276400	0.853900	0.569230
C151	C15	0.255600	0.874200	0.619500
H101	H10	0.292100	0.924500	0.636500
O111	O11	0.110350	0.481340	0.494510
O121	O12	0.029370	0.440180	0.571200
N61	N6	0.154100	0.238900	0.700700
H111	H11	0.178500	0.460300	0.718100
C161	C16	0.090500	0.450000	0.542870
C171	C17	0.146100	0.422500	0.569230
C181	C18	0.125800	0.381400	0.619500
H121	H12	0.075500	0.367600	0.636500
O131	O13	0.370990	0.481340	0.005490
O141	O14	0.410810	0.440180	0.928800
N71	N7	0.084800	0.238900	0.799300
H131	H13	0.281800	0.460300	0.781900
C191	C19	0.359500	0.450000	0.957130
C201	C20	0.276400	0.422500	0.930770
C211	C21	0.255600	0.381400	0.880500
H141	H14	0.292100	0.367600	0.863500
O151	O15	0.110350	0.629010	0.005490
O161	O16	0.029370	0.589190	0.928800
N81	N8	0.154100	0.915200	0.799300
H151	H15	0.178500	0.718200	0.781900
C221	C22	0.090500	0.640500	0.957130
C231	C23	0.146100	0.723600	0.930770
C241	C24	0.125800	0.744400	0.880500
H161	H16	0.075500	0.707900	0.863500
O171	O17	0.518660	0.889650	0.005490
O181	O18	0.559820	0.970630	0.928800
N91	N9	0.761100	0.845900	0.799300
H171	H17	0.539700	0.821500	0.781900
C251	C25	0.550000	0.909500	0.957130
C261	C26	0.577500	0.853900	0.930770
C271	C27	0.618600	0.874200	0.880500
H181	H18	0.632400	0.924500	0.863500
O191	O19	0.629010	0.518660	0.505490
O201	O20	0.589190	0.559820	0.428800
N101	N10	0.915200	0.761100	0.299300
H191	H19	0.718200	0.539700	0.281900
C281	C28	0.640500	0.550000	0.457130
C291	C29	0.723600	0.577500	0.430770
C301	C30	0.744400	0.618600	0.380500
H201	H20	0.707900	0.632400	0.363500
O211	O21	0.889650	0.370990	0.505490
O221	O22	0.970630	0.410810	0.428800
N111	N11	0.845900	0.084800	0.299300
H211	H21	0.821500	0.281800	0.281900
C311	C31	0.909500	0.359500	0.457130
C321	C32	0.853900	0.276400	0.430770
C331	C33	0.874200	0.255600	0.380500
H221	H22	0.924500	0.292100	0.363500
O231	O23	0.481340	0.110350	0.505490
O241	O24	0.440180	0.029370	0.428800
N121	N12	0.238900	0.154100	0.299300
H231	H23	0.460300	0.178500	0.281900
C341	C34	0.450000	0.090500	0.457130
C351	C35	0.422500	0.146100	0.430770
C361	C36	0.381400	0.125800	0.380500
H241	H24	0.367600	0.075500	0.363500
O251	O25	0.518660	0.629010	0.005490
O261	O26	0.559820	0.589190	0.928800
N131	N13	0.761100	0.915200	0.799300
H251	H25	0.539700	0.718200	0.781900
C371	C37	0.550000	0.640500	0.957130
C381	C38	0.577500	0.723600	0.930770
C391	C39	0.618600	0.744400	0.880500
H261	H26	0.632400	0.707900	0.863500
O271	O27	0.370990	0.889650	0.005490
O281	O28	0.410810	0.970630	0.928800
N141	N14	0.084800	0.845900	0.799300
H271	H27	0.281800	0.821500	0.781900
C401	C40	0.359500	0.909500	0.957130
C411	C41	0.276400	0.853900	0.930770
C421	C42	0.255600	0.874200	0.880500
H281	H28	0.292100	0.924500	0.863500
O291	O29	0.110350	0.481340	0.005490
O301	O30	0.029370	0.440180	0.928800
N151	N15	0.154100	0.238900	0.799300
H291	H29	0.178500	0.460300	0.781900
C431	C43	0.090500	0.450000	0.957130
C441	C44	0.146100	0.422500	0.930770
C451	C45	0.125800	0.381400	0.880500
H301	H30	0.075500	0.367600	0.863500
O311	O31	0.481340	0.370990	0.505490
O321	O32	0.440180	0.410810	0.428800
N161	N16	0.238900	0.084800	0.299300
H311	H31	0.460300	0.281800	0.281900
C461	C46	0.450000	0.359500	0.457130
C471	C47	0.422500	0.276400	0.430770
C481	C48	0.381400	0.255600	0.380500
H321	H32	0.367600	0.292100	0.363500
O331	O33	0.629010	0.110350	0.505490
O341	O34	0.589190	0.029370	0.428800
N171	N17	0.915200	0.154100	0.299300
H331	H33	0.718200	0.178500	0.281900
C491	C49	0.640500	0.090500	0.457130
C501	C50	0.723600	0.146100	0.430770
C511	C51	0.744400	0.125800	0.380500
H341	H34	0.707900	0.075500	0.363500
O351	O35	0.889650	0.518660	0.505490
O361	O36	0.970630	0.559820	0.428800
N181	N18	0.845900	0.761100	0.299300
H351	H35	0.821500	0.539700	0.281900
C521	C52	0.909500	0.550000	0.457130
C531	C53	0.853900	0.577500	0.430770
C541	C54	0.874200	0.618600	0.380500
H361	H36	0.924500	0.632400	0.363500
O371	O37	0.629010	0.518660	0.994510
O381	O38	0.589190	0.559820	0.071200
N191	N19	0.915200	0.761100	0.200700
H371	H37	0.718200	0.539700	0.218100
C551	C55	0.640500	0.550000	0.042870
C561	C56	0.723600	0.577500	0.069230
C571	C57	0.744400	0.618600	0.119500
H381	H38	0.707900	0.632400	0.136500
O391	O39	0.889650	0.370990	0.994510
O401	O40	0.970630	0.410810	0.071200
N201	N20	0.845900	0.084800	0.200700
H391	H39	0.821500	0.281800	0.218100
C581	C58	0.909500	0.359500	0.042870
C591	C59	0.853900	0.276400	0.069230
C601	C60	0.874200	0.255600	0.119500
H401	H40	0.924500	0.292100	0.136500
O411	O41	0.481340	0.110350	0.994510
O421	O42	0.440180	0.029370	0.071200
N211	N21	0.238900	0.154100	0.200700
H411	H41	0.460300	0.178500	0.218100
C611	C61	0.450000	0.090500	0.042870
C621	C62	0.422500	0.146100	0.069230
C631	C63	0.381400	0.125800	0.119500
H421	H42	0.367600	0.075500	0.136500
O431	O43	0.370990	0.481340	0.494510
O441	O44	0.410810	0.440180	0.571200
N221	N22	0.084800	0.238900	0.700700
H431	H43	0.281800	0.460300	0.718100
C641	C64	0.359500	0.450000	0.542870
C651	C65	0.276400	0.422500	0.569230
C661	C66	0.255600	0.381400	0.619500
H441	H44	0.292100	0.367600	0.636500
O451	O45	0.110350	0.629010	0.494510
O461	O46	0.029370	0.589190	0.571200
N231	N23	0.154100	0.915200	0.700700
H451	H45	0.178500	0.718200	0.718100
C671	C67	0.090500	0.640500	0.542870
C681	C68	0.146100	0.723600	0.569230
C691	C69	0.125800	0.744400	0.619500
H461	H46	0.075500	0.707900	0.636500
O471	O47	0.518660	0.889650	0.494510
O481	O48	0.559820	0.970630	0.571200
N241	N24	0.761100	0.845900	0.700700
H471	H47	0.539700	0.821500	0.718100
C701	C70	0.550000	0.909500	0.542870
C711	C71	0.577500	0.853900	0.569230
C721	C72	0.618600	0.874200	0.619500
H481	H48	0.632400	0.924500	0.636500
Cu11	Cu1	0.523770	0.476230	0.954690
Cu21	Cu2	0.523770	0.047540	0.954690
Cu31	Cu3	0.952460	0.476230	0.954690
Cu41	Cu4	0.476230	0.523770	0.454690
Cu51	Cu5	0.476230	0.952460	0.454690
Cu61	Cu6	0.047540	0.523770	0.454690
Cu71	Cu7	0.476230	0.523770	0.045310
Cu81	Cu8	0.047540	0.523770	0.045310
Cu91	Cu9	0.476230	0.952460	0.045310
Cu101	Cu10	0.523770	0.476230	0.545310
Cu111	Cu11	0.952460	0.476230	0.545310
Cu121	Cu12	0.523770	0.047540	0.545310
N251	N25	0.435900	0.257700	0.250000
C731	C73	0.207300	0.057400	0.250000
H491	H49	0.154000	0.011100	0.250000
N261	N26	0.742300	0.178200	0.250000
C741	C74	0.942600	0.149900	0.250000
H501	H50	0.988900	0.142900	0.250000
N271	N27	0.821800	0.564100	0.250000
C751	C75	0.850100	0.792700	0.250000
H511	H51	0.857100	0.846000	0.250000
N281	N28	0.564100	0.742300	0.750000
C761	C76	0.792700	0.942600	0.750000
H521	H52	0.846000	0.988900	0.750000
N291	N29	0.257700	0.821800	0.750000
C771	C77	0.057400	0.850100	0.750000
H531	H53	0.011100	0.857100	0.750000
N301	N30	0.178200	0.435900	0.750000
C781	C78	0.149900	0.207300	0.750000
H541	H54	0.142900	0.154000	0.750000
N311	N31	0.257700	0.435900	0.750000
C791	C79	0.057400	0.207300	0.750000
H551	H55	0.011100	0.154000	0.750000
N321	N32	0.178200	0.742300	0.750000
C801	C80	0.149900	0.942600	0.750000
H561	H56	0.142900	0.988900	0.750000
N331	N33	0.564100	0.821800	0.750000
C811	C81	0.792700	0.850100	0.750000
H571	H57	0.846000	0.857100	0.750000
N341	N34	0.742300	0.564100	0.250000
C821	C82	0.942600	0.792700	0.250000
H581	H58	0.988900	0.846000	0.250000
N351	N35	0.821800	0.257700	0.250000
C831	C83	0.850100	0.057400	0.250000
H591	H59	0.857100	0.011100	0.250000
N361	N36	0.435900	0.178200	0.250000
C841	C84	0.207300	0.149900	0.250000
H601	H60	0.154000	0.142900	0.250000
C851	C85	0.442900	0.221450	0.043500
H611	H61	0.470100	0.235050	0.009200
C861	C86	0.360300	0.180150	0.145200
C871	C87	0.316700	0.158350	0.200500
C881	C88	0.778550	0.221450	0.043500
H621	H62	0.764950	0.235050	0.009200
C891	C89	0.819850	0.180150	0.145200
C901	C90	0.841650	0.158350	0.200500
C911	C91	0.778550	0.557100	0.043500
H631	H63	0.764950	0.529900	0.009200
C921	C92	0.819850	0.639700	0.145200
C931	C93	0.841650	0.683300	0.200500
C941	C94	0.557100	0.778550	0.543500
H641	H64	0.529900	0.764950	0.509200
C951	C95	0.639700	0.819850	0.645200
C961	C96	0.683300	0.841650	0.700500
C971	C97	0.221450	0.778550	0.543500
H651	H65	0.235050	0.764950	0.509200
C981	C98	0.180150	0.819850	0.645200
C991	C99	0.158350	0.841650	0.700500
C1001	C100	0.221450	0.442900	0.543500
H661	H66	0.235050	0.470100	0.509200
C1011	C101	0.180150	0.360300	0.645200
C1021	C102	0.158350	0.316700	0.700500
C1031	C103	0.221450	0.442900	0.956500
H671	H67	0.235050	0.470100	0.990800
C1041	C104	0.180150	0.360300	0.854800
C1051	C105	0.158350	0.316700	0.799500
C1061	C106	0.221450	0.778550	0.956500
H681	H68	0.235050	0.764950	0.990800
C1071	C107	0.180150	0.819850	0.854800
C1081	C108	0.158350	0.841650	0.799500
C1091	C109	0.557100	0.778550	0.956500
H691	H69	0.529900	0.764950	0.990800
C1101	C110	0.639700	0.819850	0.854800
C1111	C111	0.683300	0.841650	0.799500
C1121	C112	0.778550	0.557100	0.456500
H701	H70	0.764950	0.529900	0.490800
C1131	C113	0.819850	0.639700	0.354800
C1141	C114	0.841650	0.683300	0.299500
C1151	C115	0.778550	0.221450	0.456500
H711	H71	0.764950	0.235050	0.490800
C1161	C116	0.819850	0.180150	0.354800
C1171	C117	0.841650	0.158350	0.299500
C1181	C118	0.442900	0.221450	0.456500
H721	H72	0.470100	0.235050	0.490800
C1191	C119	0.360300	0.180150	0.354800
C1201	C120	0.316700	0.158350	0.299500
C1211	C121	0.357600	0.178800	0.250000
C1221	C122	0.821200	0.178800	0.250000
C1231	C123	0.821200	0.642400	0.250000
C1241	C124	0.642400	0.821200	0.750000
C1251	C125	0.178800	0.821200	0.750000
C1261	C126	0.178800	0.357600	0.750000
