data_ERUVEU_clean_PM
_symmetry_space_group_name_H-M	'P1'
_cell_length_a	21.649200
_cell_length_b	9.952800
_cell_length_c	8.414600
_cell_angle_alpha	90.000000
_cell_angle_beta	105.597000
_cell_angle_gamma	90.000000
_symmetry_Int_Tables_number 1

loop_
_symmetry_equiv_pos_as_xyz
'x,y,z'

loop_
_atom_site_label
_atom_site_type_symbol
_atom_site_fract_x
_atom_site_fract_y
_atom_site_fract_z
H11	H1	0.570500	0.163000	0.831000
C11	C1	0.618710	0.328200	0.625000
C21	C2	0.642790	0.277300	0.797200
H21	H2	0.670000	0.344600	0.865000
H31	H3	0.668300	0.197000	0.797900
C31	C3	0.661680	0.130300	0.106500
C41	C4	0.610810	0.236700	0.049000
H41	H4	0.574600	0.216400	0.092400
H51	H5	0.628000	0.323000	0.093100
N11	N1	0.563260	0.392100	0.570800
N21	N2	0.561480	0.432700	0.416800
N31	N3	0.613590	0.394000	0.380300
N41	N4	0.650410	0.326500	0.508900
N51	N5	0.662270	0.016500	0.023900
N61	N6	0.715880	0.952500	0.109600
N71	N7	0.745450	0.022900	0.238200
N81	N8	0.711890	0.137800	0.238800
N91	N9	0.588150	0.245900	0.866800
H61	H6	0.070500	0.663000	0.831000
C51	C5	0.118710	0.828200	0.625000
C61	C6	0.142790	0.777300	0.797200
H71	H7	0.170000	0.844600	0.865000
H81	H8	0.168300	0.697000	0.797900
C71	C7	0.161680	0.630300	0.106500
C81	C8	0.110810	0.736700	0.049000
H91	H9	0.074600	0.716400	0.092400
H101	H10	0.128000	0.823000	0.093100
N101	N10	0.063260	0.892100	0.570800
N111	N11	0.061480	0.932700	0.416800
N121	N12	0.113590	0.894000	0.380300
N131	N13	0.150410	0.826500	0.508900
N141	N14	0.162270	0.516500	0.023900
N151	N15	0.215880	0.452500	0.109600
N161	N16	0.245450	0.522900	0.238200
N171	N17	0.211890	0.637800	0.238800
N181	N18	0.088150	0.745900	0.866800
H111	H11	0.429500	0.163000	0.669000
C91	C9	0.381290	0.328200	0.875000
C101	C10	0.357210	0.277300	0.702800
H121	H12	0.330000	0.344600	0.635000
H131	H13	0.331700	0.197000	0.702100
C111	C11	0.338320	0.130300	0.393500
C121	C12	0.389190	0.236700	0.451000
H141	H14	0.425400	0.216400	0.407600
H151	H15	0.372000	0.323000	0.406900
N191	N19	0.436740	0.392100	0.929200
N201	N20	0.438520	0.432700	0.083200
N211	N21	0.386410	0.394000	0.119700
N221	N22	0.349590	0.326500	0.991100
N231	N23	0.337730	0.016500	0.476100
N241	N24	0.284120	0.952500	0.390400
N251	N25	0.254550	0.022900	0.261800
N261	N26	0.288110	0.137800	0.261200
N271	N27	0.411850	0.245900	0.633200
H161	H16	0.929500	0.663000	0.669000
C131	C13	0.881290	0.828200	0.875000
C141	C14	0.857210	0.777300	0.702800
H171	H17	0.830000	0.844600	0.635000
H181	H18	0.831700	0.697000	0.702100
C151	C15	0.838320	0.630300	0.393500
C161	C16	0.889190	0.736700	0.451000
H191	H19	0.925400	0.716400	0.407600
H201	H20	0.872000	0.823000	0.406900
N281	N28	0.936740	0.892100	0.929200
N291	N29	0.938520	0.932700	0.083200
N301	N30	0.886410	0.894000	0.119700
N311	N31	0.849590	0.826500	0.991100
N321	N32	0.837730	0.516500	0.476100
N331	N33	0.784120	0.452500	0.390400
N341	N34	0.754550	0.522900	0.261800
N351	N35	0.788110	0.637800	0.261200
N361	N36	0.911850	0.745900	0.633200
H211	H21	0.429500	0.837000	0.169000
C171	C17	0.381290	0.671800	0.375000
C181	C18	0.357210	0.722700	0.202800
H221	H22	0.330000	0.655400	0.135000
H231	H23	0.331700	0.803000	0.202100
C191	C19	0.338320	0.869700	0.893500
C201	C20	0.389190	0.763300	0.951000
H241	H24	0.425400	0.783600	0.907600
H251	H25	0.372000	0.677000	0.906900
N371	N37	0.436740	0.607900	0.429200
N381	N38	0.438520	0.567300	0.583200
N391	N39	0.386410	0.606000	0.619700
N401	N40	0.349590	0.673500	0.491100
N411	N41	0.337730	0.983500	0.976100
N421	N42	0.284120	0.047500	0.890400
N431	N43	0.254550	0.977100	0.761800
N441	N44	0.288110	0.862200	0.761200
N451	N45	0.411850	0.754100	0.133200
H261	H26	0.929500	0.337000	0.169000
C211	C21	0.881290	0.171800	0.375000
C221	C22	0.857210	0.222700	0.202800
H271	H27	0.830000	0.155400	0.135000
H281	H28	0.831700	0.303000	0.202100
C231	C23	0.838320	0.369700	0.893500
C241	C24	0.889190	0.263300	0.951000
H291	H29	0.925400	0.283600	0.907600
H301	H30	0.872000	0.177000	0.906900
N461	N46	0.936740	0.107900	0.429200
N471	N47	0.938520	0.067300	0.583200
N481	N48	0.886410	0.106000	0.619700
N491	N49	0.849590	0.173500	0.491100
N501	N50	0.837730	0.483500	0.976100
N511	N51	0.784120	0.547500	0.890400
N521	N52	0.754550	0.477100	0.761800
N531	N53	0.788110	0.362200	0.761200
N541	N54	0.911850	0.254100	0.133200
H311	H31	0.570500	0.837000	0.331000
C251	C25	0.618710	0.671800	0.125000
C261	C26	0.642790	0.722700	0.297200
H321	H32	0.670000	0.655400	0.365000
H331	H33	0.668300	0.803000	0.297900
C271	C27	0.661680	0.869700	0.606500
C281	C28	0.610810	0.763300	0.549000
H341	H34	0.574600	0.783600	0.592400
H351	H35	0.628000	0.677000	0.593100
N551	N55	0.563260	0.607900	0.070800
N561	N56	0.561480	0.567300	0.916800
N571	N57	0.613590	0.606000	0.880300
N581	N58	0.650410	0.673500	0.008900
N591	N59	0.662270	0.983500	0.523900
N601	N60	0.715880	0.047500	0.609600
N611	N61	0.745450	0.977100	0.738200
N621	N62	0.711890	0.862200	0.738800
N631	N63	0.588150	0.754100	0.366800
H361	H36	0.070500	0.337000	0.331000
C291	C29	0.118710	0.171800	0.125000
C301	C30	0.142790	0.222700	0.297200
H371	H37	0.170000	0.155400	0.365000
H381	H38	0.168300	0.303000	0.297900
C311	C31	0.161680	0.369700	0.606500
C321	C32	0.110810	0.263300	0.549000
H391	H39	0.074600	0.283600	0.592400
H401	H40	0.128000	0.177000	0.593100
N641	N64	0.063260	0.107900	0.070800
N651	N65	0.061480	0.067300	0.916800
N661	N66	0.113590	0.106000	0.880300
N671	N67	0.150410	0.173500	0.008900
N681	N68	0.162270	0.483500	0.523900
N691	N69	0.215880	0.547500	0.609600
N701	N70	0.245450	0.477100	0.738200
N711	N71	0.211890	0.362200	0.738800
N721	N72	0.088150	0.254100	0.366800
Cd11	Cd1	0.750000	0.750000	0.000000
Cd21	Cd2	0.250000	0.750000	0.500000
Cd31	Cd3	0.250000	0.250000	0.000000
Cd41	Cd4	0.750000	0.250000	0.500000
Cd51	Cd5	0.500000	0.403250	0.750000
Cd61	Cd6	0.000000	0.903250	0.750000
Cd71	Cd7	0.500000	0.596750	0.250000
Cd81	Cd8	0.000000	0.096750	0.250000
