data_ESEQUO_clean_PM
_symmetry_space_group_name_H-M	'P1'
_cell_length_a	9.978000
_cell_length_b	11.223000
_cell_length_c	11.283000
_cell_angle_alpha	102.260000
_cell_angle_beta	113.520000
_cell_angle_gamma	92.730000
_symmetry_Int_Tables_number 1

loop_
_symmetry_equiv_pos_as_xyz
'x,y,z'

loop_
_atom_site_label
_atom_site_type_symbol
_atom_site_fract_x
_atom_site_fract_y
_atom_site_fract_z
Co11	Co1	0.164490	0.316640	0.243620
Co21	Co2	0.835510	0.683360	0.756380
Co31	Co3	0.500000	0.500000	0.500000
H11	H1	0.326400	0.822300	0.391000
H21	H2	0.724300	0.995300	0.677000
H31	H3	0.175900	0.597000	0.508700
H41	H4	0.205700	0.616600	0.387100
H51	H5	0.952800	0.574900	0.314900
H61	H6	0.967500	0.455600	0.368300
H71	H7	0.166500	0.164200	0.674000
H81	H8	0.907300	0.013800	0.276100
H91	H9	0.354800	0.416000	0.768700
H101	H10	0.731200	0.621700	0.074100
H111	H11	0.673600	0.177700	0.609000
H121	H12	0.275700	0.004700	0.323000
H131	H13	0.824100	0.403000	0.491300
H141	H14	0.794300	0.383400	0.612900
H151	H15	0.047200	0.425100	0.685100
H161	H16	0.032500	0.544400	0.631700
H171	H17	0.833500	0.835800	0.326000
H181	H18	0.092700	0.986200	0.723900
H191	H19	0.645200	0.584000	0.231300
H201	H20	0.268800	0.378300	0.925900
C11	C1	0.399800	0.896900	0.437300
C21	C2	0.630100	0.996400	0.602900
C31	C3	0.529500	0.892600	0.540400
C41	C4	0.563100	0.774800	0.580900
C51	C5	0.168500	0.556300	0.420900
C61	C6	0.009000	0.507000	0.328500
C71	C7	0.093700	0.218800	0.438500
C81	C8	0.043000	0.105600	0.469900
C91	C9	0.097300	0.096100	0.601800
C101	C10	0.945800	0.008200	0.369100
C111	C11	0.603800	0.546200	0.806000
C121	C12	0.552200	0.521200	0.907700
C131	C13	0.415300	0.450500	0.864400
C141	C14	0.635300	0.570800	0.043200
C151	C15	0.600200	0.103100	0.562700
C161	C16	0.369900	0.003600	0.397100
C171	C17	0.470500	0.107400	0.459600
C181	C18	0.436900	0.225200	0.419100
C191	C19	0.831500	0.443700	0.579100
C201	C20	0.991000	0.493000	0.671500
C211	C21	0.906300	0.781200	0.561500
C221	C22	0.957000	0.894400	0.530100
C231	C23	0.902700	0.903900	0.398200
C241	C24	0.054200	0.991800	0.630900
C251	C25	0.396200	0.453800	0.194000
C261	C26	0.447800	0.478800	0.092300
C271	C27	0.584700	0.549500	0.135600
C281	C28	0.364700	0.429200	0.956800
O11	O1	0.482200	0.677800	0.500800
O21	O2	0.508700	0.524700	0.688800
O31	O3	0.256600	0.457500	0.431500
O41	O4	0.999000	0.436000	0.202600
O51	O5	0.179600	0.305200	0.534400
O61	O6	0.048300	0.219100	0.316700
O71	O7	0.739100	0.587800	0.847100
O81	O8	0.669200	0.783000	0.692300
O91	O9	0.517800	0.322200	0.499200
O101	O10	0.491300	0.475300	0.311200
O111	O11	0.743400	0.542500	0.568500
O121	O12	0.001000	0.564000	0.797400
O131	O13	0.820400	0.694800	0.465600
O141	O14	0.951700	0.780900	0.683300
O151	O15	0.260900	0.412200	0.152900
O161	O16	0.330800	0.217000	0.307700
