data_ESIFET_clean_PM
_symmetry_space_group_name_H-M	'P1'
_cell_length_a	18.817500
_cell_length_b	18.817500
_cell_length_c	19.048300
_cell_angle_alpha	90.000000
_cell_angle_beta	90.000000
_cell_angle_gamma	120.000000
_symmetry_Int_Tables_number 1

loop_
_symmetry_equiv_pos_as_xyz
'x,y,z'

loop_
_atom_site_label
_atom_site_type_symbol
_atom_site_fract_x
_atom_site_fract_y
_atom_site_fract_z
Cd11	Cd1	0.670810	0.054180	0.376940
N11	N1	0.688900	0.064900	0.258370
N21	N2	0.570200	0.071400	0.335040
C11	C1	0.619400	0.056800	0.225240
C21	C2	0.733300	0.054900	0.208890
C31	C3	0.557700	0.064000	0.268000
H11	H1	0.529000	0.075000	0.360000
C41	C4	0.625800	0.040900	0.154910
N31	N3	0.698000	0.040600	0.145450
C51	C5	0.815400	0.064500	0.221800
O11	O1	0.496900	0.063000	0.235350
C61	C6	0.572400	0.023800	0.091510
H21	H2	0.827000	0.047000	0.187000
H31	H3	0.819000	0.041000	0.261000
H41	H4	0.878000	0.132000	0.225000
O21	O2	0.595900	0.008300	0.034600
N41	N4	0.504100	0.025000	0.097200
H51	H5	0.475000	0.003000	0.140000
H61	H6	0.472000	0.007000	0.067000
Cd21	Cd2	0.337480	0.387510	0.710270
N51	N5	0.355570	0.398230	0.591700
N61	N6	0.236870	0.404730	0.668370
C71	C7	0.286070	0.390130	0.558570
C81	C8	0.399970	0.388230	0.542220
C91	C9	0.224370	0.397330	0.601330
H71	H7	0.195670	0.408330	0.693330
C101	C10	0.292470	0.374230	0.488240
N71	N7	0.364670	0.373930	0.478780
C111	C11	0.482070	0.397830	0.555130
O31	O3	0.163570	0.396330	0.568680
C121	C12	0.239070	0.357130	0.424840
H81	H8	0.493670	0.380330	0.520330
H91	H9	0.485670	0.374330	0.594330
H101	H10	0.544670	0.465330	0.558330
O41	O4	0.262570	0.341630	0.367930
N81	N8	0.170770	0.358330	0.430530
H111	H11	0.141670	0.336330	0.473330
H121	H12	0.138670	0.340330	0.400330
Cd31	Cd3	0.004140	0.720850	0.043610
N91	N9	0.022230	0.731570	0.925040
N101	N10	0.903530	0.738070	0.001710
C131	C13	0.952730	0.723470	0.891910
C141	C14	0.066630	0.721570	0.875560
C151	C15	0.891030	0.730670	0.934670
H131	H13	0.862330	0.741670	0.026670
C161	C16	0.959130	0.707570	0.821580
N111	N11	0.031330	0.707270	0.812120
C171	C17	0.148730	0.731170	0.888470
O51	O5	0.830230	0.729670	0.902020
C181	C18	0.905730	0.690470	0.758180
H141	H14	0.160330	0.713670	0.853670
H151	H15	0.152330	0.707670	0.927670
H161	H16	0.211330	0.798670	0.891670
O61	O6	0.929230	0.674970	0.701270
N121	N12	0.837430	0.691670	0.763870
H171	H17	0.808330	0.669670	0.806670
H181	H18	0.805330	0.673670	0.733670
Cd41	Cd4	0.945820	0.616630	0.376940
N131	N13	0.935100	0.624000	0.258370
N141	N14	0.928600	0.498800	0.335040
C191	C19	0.943200	0.562600	0.225240
C201	C20	0.945100	0.678400	0.208890
C211	C21	0.936000	0.493700	0.268000
H191	H19	0.925000	0.454000	0.360000
C221	C22	0.959100	0.584900	0.154910
N151	N15	0.959400	0.657400	0.145450
C231	C23	0.935500	0.750900	0.221800
O71	O7	0.937000	0.433900	0.235350
C241	C24	0.976200	0.548600	0.091510
H201	H20	0.953000	0.780000	0.187000
H211	H21	0.959000	0.778000	0.261000
H221	H22	0.868000	0.746000	0.225000
O81	O8	0.991700	0.587600	0.034600
N161	N16	0.975000	0.479100	0.097200
H231	H23	0.997000	0.472000	0.140000
H241	H24	0.993000	0.465000	0.067000
Cd51	Cd5	0.612490	0.949960	0.710270
N171	N17	0.601770	0.957330	0.591700
N181	N18	0.595270	0.832130	0.668370
C251	C25	0.609870	0.895930	0.558570
C261	C26	0.611770	0.011730	0.542220
C271	C27	0.602670	0.827030	0.601330
H251	H25	0.591670	0.787330	0.693330
C281	C28	0.625770	0.918230	0.488240
N191	N19	0.626070	0.990730	0.478780
C291	C29	0.602170	0.084230	0.555130
O91	O9	0.603670	0.767230	0.568680
C301	C30	0.642870	0.881930	0.424840
H261	H26	0.619670	0.113330	0.520330
H271	H27	0.625670	0.111330	0.594330
H281	H28	0.534670	0.079330	0.558330
O101	O10	0.658370	0.920930	0.367930
N201	N20	0.641670	0.812430	0.430530
H291	H29	0.663670	0.805330	0.473330
H301	H30	0.659670	0.798330	0.400330
Cd61	Cd6	0.279150	0.283300	0.043610
N211	N21	0.268430	0.290670	0.925040
N221	N22	0.261930	0.165470	0.001710
C311	C31	0.276530	0.229270	0.891910
C321	C32	0.278430	0.345070	0.875560
C331	C33	0.269330	0.160370	0.934670
H311	H31	0.258330	0.120670	0.026670
C341	C34	0.292430	0.251570	0.821580
N231	N23	0.292730	0.324070	0.812120
C351	C35	0.268830	0.417570	0.888470
O111	O11	0.270330	0.100570	0.902020
C361	C36	0.309530	0.215270	0.758180
H321	H32	0.286330	0.446670	0.853670
H331	H33	0.292330	0.444670	0.927670
H341	H34	0.201330	0.412670	0.891670
O121	O12	0.325030	0.254270	0.701270
N241	N24	0.308330	0.145770	0.763870
H351	H35	0.330330	0.138670	0.806670
H361	H36	0.326330	0.131670	0.733670
Cd71	Cd7	0.383370	0.329190	0.376940
N251	N25	0.376000	0.311100	0.258370
N261	N26	0.501200	0.429800	0.335040
C371	C37	0.437400	0.380600	0.225240
C381	C38	0.321600	0.266700	0.208890
C391	C39	0.506300	0.442300	0.268000
H371	H37	0.546000	0.471000	0.360000
C401	C40	0.415100	0.374200	0.154910
N271	N27	0.342600	0.302000	0.145450
C411	C41	0.249100	0.184600	0.221800
O131	O13	0.566100	0.503100	0.235350
C421	C42	0.451400	0.427600	0.091510
H381	H38	0.220000	0.173000	0.187000
H391	H39	0.222000	0.181000	0.261000
H401	H40	0.254000	0.122000	0.225000
O141	O14	0.412400	0.404100	0.034600
N281	N28	0.520900	0.495900	0.097200
H411	H41	0.528000	0.525000	0.140000
H421	H42	0.535000	0.528000	0.067000
Cd81	Cd8	0.050040	0.662520	0.710270
N291	N29	0.042670	0.644430	0.591700
N301	N30	0.167870	0.763130	0.668370
C431	C43	0.104070	0.713930	0.558570
C441	C44	0.988270	0.600030	0.542220
C451	C45	0.172970	0.775630	0.601330
H431	H43	0.212670	0.804330	0.693330
C461	C46	0.081770	0.707530	0.488240
N311	N31	0.009270	0.635330	0.478780
C471	C47	0.915770	0.517930	0.555130
O151	O15	0.232770	0.836430	0.568680
C481	C48	0.118070	0.760930	0.424840
H441	H44	0.886670	0.506330	0.520330
H451	H45	0.888670	0.514330	0.594330
H461	H46	0.920670	0.455330	0.558330
O161	O16	0.079070	0.737430	0.367930
N321	N32	0.187570	0.829230	0.430530
H471	H47	0.194670	0.858330	0.473330
H481	H48	0.201670	0.861330	0.400330
Cd91	Cd9	0.716700	0.995860	0.043610
N331	N33	0.709330	0.977770	0.925040
N341	N34	0.834530	0.096470	0.001710
C491	C49	0.770730	0.047270	0.891910
C501	C50	0.654930	0.933370	0.875560
C511	C51	0.839630	0.108970	0.934670
H491	H49	0.879330	0.137670	0.026670
C521	C52	0.748430	0.040870	0.821580
N351	N35	0.675930	0.968670	0.812120
C531	C53	0.582430	0.851270	0.888470
O171	O17	0.899430	0.169770	0.902020
C541	C54	0.784730	0.094270	0.758180
H501	H50	0.553330	0.839670	0.853670
H511	H51	0.555330	0.847670	0.927670
H521	H52	0.587330	0.788670	0.891670
O181	O18	0.745730	0.070770	0.701270
N361	N36	0.854230	0.162570	0.763870
H531	H53	0.861330	0.191670	0.806670
H541	H54	0.868330	0.194670	0.733670
Cd101	Cd10	0.329190	0.945820	0.623060
N371	N37	0.311100	0.935100	0.741630
N381	N38	0.429800	0.928600	0.664960
C551	C55	0.380600	0.943200	0.774760
C561	C56	0.266700	0.945100	0.791110
C571	C57	0.442300	0.936000	0.732000
H551	H55	0.471000	0.925000	0.640000
C581	C58	0.374200	0.959100	0.845090
N391	N39	0.302000	0.959400	0.854550
C591	C59	0.184600	0.935500	0.778200
O191	O19	0.503100	0.937000	0.764650
C601	C60	0.427600	0.976200	0.908490
H561	H56	0.173000	0.953000	0.813000
H571	H57	0.181000	0.959000	0.739000
H581	H58	0.122000	0.868000	0.775000
O201	O20	0.404100	0.991700	0.965400
N401	N40	0.495900	0.975000	0.902800
H591	H59	0.525000	0.997000	0.860000
H601	H60	0.528000	0.993000	0.933000
Cd111	Cd11	0.995860	0.279150	0.956390
N411	N41	0.977770	0.268430	0.074960
N421	N42	0.096470	0.261930	0.998290
C611	C61	0.047270	0.276530	0.108090
C621	C62	0.933370	0.278430	0.124440
C631	C63	0.108970	0.269330	0.065330
H611	H61	0.137670	0.258330	0.973330
C641	C64	0.040870	0.292430	0.178420
N431	N43	0.968670	0.292730	0.187880
C651	C65	0.851270	0.268830	0.111530
O211	O21	0.169770	0.270330	0.097980
C661	C66	0.094270	0.309530	0.241820
H621	H62	0.839670	0.286330	0.146330
H631	H63	0.847670	0.292330	0.072330
H641	H64	0.788670	0.201330	0.108330
O221	O22	0.070770	0.325030	0.298730
N441	N44	0.162570	0.308330	0.236130
H651	H65	0.191670	0.330330	0.193330
H661	H66	0.194670	0.326330	0.266330
Cd121	Cd12	0.662520	0.612490	0.289730
N451	N45	0.644430	0.601770	0.408300
N461	N46	0.763130	0.595270	0.331630
C671	C67	0.713930	0.609870	0.441430
C681	C68	0.600030	0.611770	0.457780
C691	C69	0.775630	0.602670	0.398670
H671	H67	0.804330	0.591670	0.306670
C701	C70	0.707530	0.625770	0.511760
N471	N47	0.635330	0.626070	0.521220
C711	C71	0.517930	0.602170	0.444870
O231	O23	0.836430	0.603670	0.431320
C721	C72	0.760930	0.642870	0.575160
H681	H68	0.506330	0.619670	0.479670
H691	H69	0.514330	0.625670	0.405670
H701	H70	0.455330	0.534670	0.441670
O241	O24	0.737430	0.658370	0.632070
N481	N48	0.829230	0.641670	0.569470
H711	H71	0.858330	0.663670	0.526670
H721	H72	0.861330	0.659670	0.599670
Cd131	Cd13	0.054180	0.383370	0.623060
N491	N49	0.064900	0.376000	0.741630
N501	N50	0.071400	0.501200	0.664960
C731	C73	0.056800	0.437400	0.774760
C741	C74	0.054900	0.321600	0.791110
C751	C75	0.064000	0.506300	0.732000
H731	H73	0.075000	0.546000	0.640000
C761	C76	0.040900	0.415100	0.845090
N511	N51	0.040600	0.342600	0.854550
C771	C77	0.064500	0.249100	0.778200
O251	O25	0.063000	0.566100	0.764650
C781	C78	0.023800	0.451400	0.908490
H741	H74	0.047000	0.220000	0.813000
H751	H75	0.041000	0.222000	0.739000
H761	H76	0.132000	0.254000	0.775000
O261	O26	0.008300	0.412400	0.965400
N521	N52	0.025000	0.520900	0.902800
H771	H77	0.003000	0.528000	0.860000
H781	H78	0.007000	0.535000	0.933000
Cd141	Cd14	0.720850	0.716700	0.956390
N531	N53	0.731570	0.709330	0.074960
N541	N54	0.738070	0.834530	0.998290
C791	C79	0.723470	0.770730	0.108090
C801	C80	0.721570	0.654930	0.124440
C811	C81	0.730670	0.839630	0.065330
H791	H79	0.741670	0.879330	0.973330
C821	C82	0.707570	0.748430	0.178420
N551	N55	0.707270	0.675930	0.187880
C831	C83	0.731170	0.582430	0.111530
O271	O27	0.729670	0.899430	0.097980
C841	C84	0.690470	0.784730	0.241820
H801	H80	0.713670	0.553330	0.146330
H811	H81	0.707670	0.555330	0.072330
H821	H82	0.798670	0.587330	0.108330
O281	O28	0.674970	0.745730	0.298730
N561	N56	0.691670	0.854230	0.236130
H831	H83	0.669670	0.861330	0.193330
H841	H84	0.673670	0.868330	0.266330
Cd151	Cd15	0.387510	0.050040	0.289730
N571	N57	0.398230	0.042670	0.408300
N581	N58	0.404730	0.167870	0.331630
C851	C85	0.390130	0.104070	0.441430
C861	C86	0.388230	0.988270	0.457780
C871	C87	0.397330	0.172970	0.398670
H851	H85	0.408330	0.212670	0.306670
C881	C88	0.374230	0.081770	0.511760
N591	N59	0.373930	0.009270	0.521220
C891	C89	0.397830	0.915770	0.444870
O291	O29	0.396330	0.232770	0.431320
C901	C90	0.357130	0.118070	0.575160
H861	H86	0.380330	0.886670	0.479670
H871	H87	0.374330	0.888670	0.405670
H881	H88	0.465330	0.920670	0.441670
O301	O30	0.341630	0.079070	0.632070
N601	N60	0.358330	0.187570	0.569470
H891	H89	0.336330	0.194670	0.526670
H901	H90	0.340330	0.201670	0.599670
Cd161	Cd16	0.616630	0.670810	0.623060
N611	N61	0.624000	0.688900	0.741630
N621	N62	0.498800	0.570200	0.664960
C911	C91	0.562600	0.619400	0.774760
C921	C92	0.678400	0.733300	0.791110
C931	C93	0.493700	0.557700	0.732000
H911	H91	0.454000	0.529000	0.640000
C941	C94	0.584900	0.625800	0.845090
N631	N63	0.657400	0.698000	0.854550
C951	C95	0.750900	0.815400	0.778200
O311	O31	0.433900	0.496900	0.764650
C961	C96	0.548600	0.572400	0.908490
H921	H92	0.780000	0.827000	0.813000
H931	H93	0.778000	0.819000	0.739000
H941	H94	0.746000	0.878000	0.775000
O321	O32	0.587600	0.595900	0.965400
N641	N64	0.479100	0.504100	0.902800
H951	H95	0.472000	0.475000	0.860000
H961	H96	0.465000	0.472000	0.933000
Cd171	Cd17	0.283300	0.004140	0.956390
N651	N65	0.290670	0.022230	0.074960
N661	N66	0.165470	0.903530	0.998290
C971	C97	0.229270	0.952730	0.108090
C981	C98	0.345070	0.066630	0.124440
C991	C99	0.160370	0.891030	0.065330
H971	H97	0.120670	0.862330	0.973330
C1001	C100	0.251570	0.959130	0.178420
N671	N67	0.324070	0.031330	0.187880
C1011	C101	0.417570	0.148730	0.111530
O331	O33	0.100570	0.830230	0.097980
C1021	C102	0.215270	0.905730	0.241820
H981	H98	0.446670	0.160330	0.146330
H991	H99	0.444670	0.152330	0.072330
H1001	H100	0.412670	0.211330	0.108330
O341	O34	0.254270	0.929230	0.298730
N681	N68	0.145770	0.837430	0.236130
H1011	H101	0.138670	0.808330	0.193330
H1021	H102	0.131670	0.805330	0.266330
Cd181	Cd18	0.949960	0.337480	0.289730
N691	N69	0.957330	0.355570	0.408300
N701	N70	0.832130	0.236870	0.331630
C1031	C103	0.895930	0.286070	0.441430
C1041	C104	0.011730	0.399970	0.457780
C1051	C105	0.827030	0.224370	0.398670
H1031	H103	0.787330	0.195670	0.306670
C1061	C106	0.918230	0.292470	0.511760
N711	N71	0.990730	0.364670	0.521220
C1071	C107	0.084230	0.482070	0.444870
O351	O35	0.767230	0.163570	0.431320
C1081	C108	0.881930	0.239070	0.575160
H1041	H104	0.113330	0.493670	0.479670
H1051	H105	0.111330	0.485670	0.405670
H1061	H106	0.079330	0.544670	0.441670
O361	O36	0.920930	0.262570	0.632070
N721	N72	0.812430	0.170770	0.569470
H1071	H107	0.805330	0.141670	0.526670
H1081	H108	0.798330	0.138670	0.599670
