data_ESIWAF_clean_PM
_symmetry_space_group_name_H-M	'P1'
_cell_length_a	9.154000
_cell_length_b	9.239000
_cell_length_c	9.345000
_cell_angle_alpha	78.231000
_cell_angle_beta	87.485000
_cell_angle_gamma	87.179000
_symmetry_Int_Tables_number 1

loop_
_symmetry_equiv_pos_as_xyz
'x,y,z'

loop_
_atom_site_label
_atom_site_type_symbol
_atom_site_fract_x
_atom_site_fract_y
_atom_site_fract_z
P11	P1	0.617000	0.860300	0.678600
P21	P2	0.812600	0.111100	0.105400
P31	P3	0.648700	0.669400	0.138100
Al11	Al1	0.630700	0.896800	0.339700
Al21	Al2	0.837100	0.867300	0.926800
Al31	Al3	0.438500	0.631600	0.908000
F11	F1	0.605300	0.502300	0.919500
O11	O1	0.536000	0.734800	0.026100
O21	O2	0.787500	0.035100	0.977700
O31	O3	0.648400	0.502200	0.187000
O41	O4	0.731000	0.258000	0.087100
O51	O5	0.768000	0.009400	0.249700
O61	O6	0.514500	0.735600	0.733900
O71	O7	0.976800	0.135300	0.112000
O81	O8	0.801500	0.718600	0.070900
O91	O9	0.752600	0.850900	0.770800
O101	O10	0.674000	0.851000	0.523400
O111	O11	0.625000	0.735300	0.277000
O121	O12	0.539200	0.010400	0.675200
P41	P4	0.383000	0.139700	0.321400
P51	P5	0.187400	0.888900	0.894600
P61	P6	0.351300	0.330600	0.861900
Al41	Al4	0.369300	0.103200	0.660300
Al51	Al5	0.162900	0.132700	0.073200
Al61	Al6	0.561500	0.368400	0.092000
F21	F2	0.394700	0.497700	0.080500
O131	O13	0.464000	0.265200	0.973900
O141	O14	0.212500	0.964900	0.022300
O151	O15	0.351600	0.497800	0.813000
O161	O16	0.269000	0.742000	0.912900
O171	O17	0.232000	0.990600	0.750300
O181	O18	0.485500	0.264400	0.266100
O191	O19	0.023200	0.864700	0.888000
O201	O20	0.198500	0.281400	0.929100
O211	O21	0.247400	0.149100	0.229200
O221	O22	0.326000	0.149000	0.476600
O231	O23	0.375000	0.264700	0.723000
O241	O24	0.460800	0.989600	0.324800
