data_ESUMOU01_clean_PM
_symmetry_space_group_name_H-M	'P1'
_cell_length_a	6.879600
_cell_length_b	9.856000
_cell_length_c	11.067000
_cell_angle_alpha	90.000000
_cell_angle_beta	90.000000
_cell_angle_gamma	90.000000
_symmetry_Int_Tables_number 1

loop_
_symmetry_equiv_pos_as_xyz
'x,y,z'

loop_
_atom_site_label
_atom_site_type_symbol
_atom_site_fract_x
_atom_site_fract_y
_atom_site_fract_z
Mn11	Mn1	0.125530	0.202590	0.710680
Mn21	Mn2	0.374470	0.797410	0.210680
Mn31	Mn3	0.874470	0.702590	0.789320
Mn41	Mn4	0.625530	0.297410	0.289320
H11	H1	0.349200	0.908500	0.572500
H21	H2	0.465800	0.894700	0.694100
H31	H3	0.630900	0.121900	0.582500
H41	H4	0.464600	0.087200	0.489900
H51	H5	0.150800	0.091500	0.072500
H61	H6	0.034200	0.105300	0.194100
H71	H7	0.869100	0.878100	0.082500
H81	H8	0.035400	0.912800	0.989900
H91	H9	0.650800	0.408500	0.927500
H101	H10	0.534200	0.394700	0.805900
H111	H11	0.369100	0.621900	0.917500
H121	H12	0.535400	0.587200	0.010100
H131	H13	0.849200	0.591500	0.427500
H141	H14	0.965800	0.605300	0.305900
H151	H15	0.130900	0.378100	0.417500
H161	H16	0.964600	0.412800	0.510100
C11	C1	0.171600	0.903640	0.720870
C21	C2	0.356200	0.939090	0.655650
C31	C3	0.493900	0.134080	0.564860
C41	C4	0.448100	0.282340	0.552560
C51	C5	0.328400	0.096360	0.220870
C61	C6	0.143800	0.060910	0.155650
C71	C7	0.006100	0.865920	0.064860
C81	C8	0.051900	0.717660	0.052560
C91	C9	0.828400	0.403640	0.779130
C101	C10	0.643800	0.439090	0.844350
C111	C11	0.506100	0.634080	0.935140
C121	C12	0.551900	0.782340	0.947440
C131	C13	0.671600	0.596360	0.279130
C141	C14	0.856200	0.560910	0.344350
C151	C15	0.993900	0.365920	0.435140
C161	C16	0.948100	0.217660	0.447440
O11	O1	0.141700	0.778090	0.731600
O21	O2	0.063520	0.992700	0.758150
O31	O3	0.336120	0.335870	0.626430
O41	O4	0.527300	0.345200	0.469130
O51	O5	0.380680	0.080630	0.659320
O61	O6	0.358300	0.221910	0.231600
O71	O7	0.436480	0.007300	0.258150
O81	O8	0.163880	0.664130	0.126430
O91	O9	0.972700	0.654800	0.969130
O101	O10	0.119320	0.919370	0.159320
O111	O11	0.858300	0.278090	0.768400
O121	O12	0.936480	0.492700	0.741850
O131	O13	0.663880	0.835870	0.873570
O141	O14	0.472700	0.845200	0.030870
O151	O15	0.619320	0.580630	0.840680
O161	O16	0.641700	0.721910	0.268400
O171	O17	0.563520	0.507300	0.241850
O181	O18	0.836120	0.164130	0.373570
O191	O19	0.027300	0.154800	0.530870
O201	O20	0.880680	0.419370	0.340680
