data_ESURER02_clean_PM
_symmetry_space_group_name_H-M	'P1'
_cell_length_a	17.853100
_cell_length_b	12.622500
_cell_length_c	11.190900
_cell_angle_alpha	90.000000
_cell_angle_beta	94.839400
_cell_angle_gamma	90.000000
_symmetry_Int_Tables_number 1

loop_
_symmetry_equiv_pos_as_xyz
'x,y,z'

loop_
_atom_site_label
_atom_site_type_symbol
_atom_site_fract_x
_atom_site_fract_y
_atom_site_fract_z
Co11	Co1	0.421330	0.559290	0.500510
N11	N1	0.873970	0.934800	0.162300
N21	N2	0.910860	0.982900	0.256100
N31	N3	0.877310	0.970500	0.356200
C11	C1	0.811890	0.887400	0.205400
C21	C2	0.814850	0.910900	0.328100
C31	C3	0.759800	0.873600	0.400600
H11	H1	0.762200	0.888500	0.483100
C41	C4	0.702800	0.814700	0.345200
H21	H2	0.665200	0.788400	0.391100
C51	C5	0.698620	0.791900	0.220400
C61	C6	0.752800	0.827400	0.149100
H31	H3	0.750300	0.812100	0.066600
C71	C7	0.633200	0.726400	0.168500
O11	O1	0.520180	0.580380	0.432100
H41	H4	0.543000	0.641000	0.467000
O21	O2	0.635860	0.690200	0.063200
O31	O3	0.581020	0.712400	0.235000
Co21	Co2	0.921330	0.059290	0.500510
N41	N4	0.373970	0.434800	0.162300
N51	N5	0.410860	0.482900	0.256100
N61	N6	0.377310	0.470500	0.356200
C81	C8	0.311890	0.387400	0.205400
C91	C9	0.314850	0.410900	0.328100
C101	C10	0.259800	0.373600	0.400600
H51	H5	0.262200	0.388500	0.483100
C111	C11	0.202800	0.314700	0.345200
H61	H6	0.165200	0.288400	0.391100
C121	C12	0.198620	0.291900	0.220400
C131	C13	0.252800	0.327400	0.149100
H71	H7	0.250300	0.312100	0.066600
C141	C14	0.133200	0.226400	0.168500
O41	O4	0.020180	0.080380	0.432100
H81	H8	0.043000	0.141000	0.467000
O51	O5	0.135860	0.190200	0.063200
O61	O6	0.081020	0.212400	0.235000
Co31	Co3	0.578670	0.559290	0.999490
N71	N7	0.126030	0.934800	0.337700
N81	N8	0.089140	0.982900	0.243900
N91	N9	0.122690	0.970500	0.143800
C151	C15	0.188110	0.887400	0.294600
C161	C16	0.185150	0.910900	0.171900
C171	C17	0.240200	0.873600	0.099400
H91	H9	0.237800	0.888500	0.016900
C181	C18	0.297200	0.814700	0.154800
H101	H10	0.334800	0.788400	0.108900
C191	C19	0.301380	0.791900	0.279600
C201	C20	0.247200	0.827400	0.350900
H111	H11	0.249700	0.812100	0.433400
C211	C21	0.366800	0.726400	0.331500
O71	O7	0.479820	0.580380	0.067900
H121	H12	0.457000	0.641000	0.033000
O81	O8	0.364140	0.690200	0.436800
O91	O9	0.418980	0.712400	0.265000
Co41	Co4	0.078670	0.059290	0.999490
N101	N10	0.626030	0.434800	0.337700
N111	N11	0.589140	0.482900	0.243900
N121	N12	0.622690	0.470500	0.143800
C221	C22	0.688110	0.387400	0.294600
C231	C23	0.685150	0.410900	0.171900
C241	C24	0.740200	0.373600	0.099400
H131	H13	0.737800	0.388500	0.016900
C251	C25	0.797200	0.314700	0.154800
H141	H14	0.834800	0.288400	0.108900
C261	C26	0.801380	0.291900	0.279600
C271	C27	0.747200	0.327400	0.350900
H151	H15	0.749700	0.312100	0.433400
C281	C28	0.866800	0.226400	0.331500
O101	O10	0.979820	0.080380	0.067900
H161	H16	0.957000	0.141000	0.033000
O111	O11	0.864140	0.190200	0.436800
O121	O12	0.918980	0.212400	0.265000
Co51	Co5	0.578670	0.440710	0.499490
N131	N13	0.126030	0.065200	0.837700
N141	N14	0.089140	0.017100	0.743900
N151	N15	0.122690	0.029500	0.643800
C291	C29	0.188110	0.112600	0.794600
C301	C30	0.185150	0.089100	0.671900
C311	C31	0.240200	0.126400	0.599400
H171	H17	0.237800	0.111500	0.516900
C321	C32	0.297200	0.185300	0.654800
H181	H18	0.334800	0.211600	0.608900
C331	C33	0.301380	0.208100	0.779600
C341	C34	0.247200	0.172600	0.850900
H191	H19	0.249700	0.187900	0.933400
C351	C35	0.366800	0.273600	0.831500
O131	O13	0.479820	0.419620	0.567900
H201	H20	0.457000	0.359000	0.533000
O141	O14	0.364140	0.309800	0.936800
O151	O15	0.418980	0.287600	0.765000
Co61	Co6	0.078670	0.940710	0.499490
N161	N16	0.626030	0.565200	0.837700
N171	N17	0.589140	0.517100	0.743900
N181	N18	0.622690	0.529500	0.643800
C361	C36	0.688110	0.612600	0.794600
C371	C37	0.685150	0.589100	0.671900
C381	C38	0.740200	0.626400	0.599400
H211	H21	0.737800	0.611500	0.516900
C391	C39	0.797200	0.685300	0.654800
H221	H22	0.834800	0.711600	0.608900
C401	C40	0.801380	0.708100	0.779600
C411	C41	0.747200	0.672600	0.850900
H231	H23	0.749700	0.687900	0.933400
C421	C42	0.866800	0.773600	0.831500
O161	O16	0.979820	0.919620	0.567900
H241	H24	0.957000	0.859000	0.533000
O171	O17	0.864140	0.809800	0.936800
O181	O18	0.918980	0.787600	0.765000
Co71	Co7	0.421330	0.440710	0.000510
N191	N19	0.873970	0.065200	0.662300
N201	N20	0.910860	0.017100	0.756100
N211	N21	0.877310	0.029500	0.856200
C431	C43	0.811890	0.112600	0.705400
C441	C44	0.814850	0.089100	0.828100
C451	C45	0.759800	0.126400	0.900600
H251	H25	0.762200	0.111500	0.983100
C461	C46	0.702800	0.185300	0.845200
H261	H26	0.665200	0.211600	0.891100
C471	C47	0.698620	0.208100	0.720400
C481	C48	0.752800	0.172600	0.649100
H271	H27	0.750300	0.187900	0.566600
C491	C49	0.633200	0.273600	0.668500
O191	O19	0.520180	0.419620	0.932100
H281	H28	0.543000	0.359000	0.967000
O201	O20	0.635860	0.309800	0.563200
O211	O21	0.581020	0.287600	0.735000
Co81	Co8	0.921330	0.940710	0.000510
N221	N22	0.373970	0.565200	0.662300
N231	N23	0.410860	0.517100	0.756100
N241	N24	0.377310	0.529500	0.856200
C501	C50	0.311890	0.612600	0.705400
C511	C51	0.314850	0.589100	0.828100
C521	C52	0.259800	0.626400	0.900600
H291	H29	0.262200	0.611500	0.983100
C531	C53	0.202800	0.685300	0.845200
H301	H30	0.165200	0.711600	0.891100
C541	C54	0.198620	0.708100	0.720400
C551	C55	0.252800	0.672600	0.649100
H311	H31	0.250300	0.687900	0.566600
C561	C56	0.133200	0.773600	0.668500
O221	O22	0.020180	0.919620	0.932100
H321	H32	0.043000	0.859000	0.967000
O231	O23	0.135860	0.809800	0.563200
O241	O24	0.081020	0.787600	0.735000
Co91	Co9	0.500000	0.595800	0.250000
Co101	Co10	0.000000	0.095800	0.250000
Co111	Co11	0.500000	0.404200	0.750000
Co121	Co12	0.000000	0.904200	0.750000
