data_ESUSOC01_clean_PM
_symmetry_space_group_name_H-M	'P1'
_cell_length_a	10.991900
_cell_length_b	10.984300
_cell_length_c	10.989300
_cell_angle_alpha	83.024000
_cell_angle_beta	85.221000
_cell_angle_gamma	81.104000
_symmetry_Int_Tables_number 1

loop_
_symmetry_equiv_pos_as_xyz
'x,y,z'

loop_
_atom_site_label
_atom_site_type_symbol
_atom_site_fract_x
_atom_site_fract_y
_atom_site_fract_z
Co11	Co1	0.083600	0.907020	0.251150
Co21	Co2	0.970400	0.857510	0.002860
Co31	Co3	0.854800	0.996070	0.490960
N11	N1	0.837500	0.894200	0.141700
N21	N2	0.885000	0.912900	0.246700
N31	N3	0.799500	0.926500	0.337900
N41	N4	0.071800	0.189600	0.160400
N51	N5	0.093800	0.100300	0.251300
N61	N6	0.113400	0.140700	0.355900
C11	C1	0.690900	0.917000	0.293400
C21	C2	0.714600	0.898900	0.169000
C31	C3	0.620900	0.887200	0.098000
H11	H1	0.637300	0.876500	0.015300
C41	C4	0.503000	0.891300	0.150200
H21	H2	0.439100	0.881200	0.103400
C51	C5	0.478000	0.910700	0.274300
C61	C6	0.572100	0.925700	0.345500
H31	H3	0.555100	0.941400	0.426900
C71	C7	0.360000	0.911800	0.324600
C81	C8	0.079000	0.297200	0.211000
C91	C9	0.109000	0.266600	0.330100
C101	C10	0.110000	0.355600	0.409000
H41	H4	0.116700	0.334100	0.492900
C111	C11	0.099000	0.476200	0.358400
H51	H5	0.107500	0.537600	0.407300
C121	C12	0.076000	0.509100	0.236100
C131	C13	0.062000	0.422200	0.160000
H61	H6	0.043200	0.444900	0.078700
C141	C14	0.059000	0.645100	0.184900
O11	O1	0.085800	0.946800	0.065700
H71	H7	0.174000	0.939000	0.049000
O21	O2	0.043900	0.904400	0.432100
H81	H8	0.093000	0.826000	0.460000
O31	O3	0.324700	0.950000	0.434300
O41	O4	0.282000	0.873400	0.265500
O51	O5	0.024900	0.676100	0.080600
O61	O6	0.093700	0.715300	0.256000
Co41	Co4	0.916400	0.092980	0.748850
Co51	Co5	0.029600	0.142490	0.997140
Co61	Co6	0.145200	0.003930	0.509040
N71	N7	0.162500	0.105800	0.858300
N81	N8	0.115000	0.087100	0.753300
N91	N9	0.200500	0.073500	0.662100
N101	N10	0.928200	0.810400	0.839600
N111	N11	0.906200	0.899700	0.748700
N121	N12	0.886600	0.859300	0.644100
C151	C15	0.309100	0.083000	0.706600
C161	C16	0.285400	0.101100	0.831000
C171	C17	0.379100	0.112800	0.902000
H91	H9	0.362700	0.123500	0.984700
C181	C18	0.497000	0.108700	0.849800
H101	H10	0.560900	0.118800	0.896600
C191	C19	0.522000	0.089300	0.725700
C201	C20	0.427900	0.074300	0.654500
H111	H11	0.444900	0.058600	0.573100
C211	C21	0.640000	0.088200	0.675400
C221	C22	0.921000	0.702800	0.789000
C231	C23	0.891000	0.733400	0.669900
C241	C24	0.890000	0.644400	0.591000
H121	H12	0.883300	0.665900	0.507100
C251	C25	0.901000	0.523800	0.641600
H131	H13	0.892500	0.462400	0.592700
C261	C26	0.924000	0.490900	0.763900
C271	C27	0.938000	0.577800	0.840000
H141	H14	0.956800	0.555100	0.921300
C281	C28	0.941000	0.354900	0.815100
O71	O7	0.914200	0.053200	0.934300
H151	H15	0.826000	0.061000	0.951000
O81	O8	0.956100	0.095600	0.567900
H161	H16	0.907000	0.174000	0.540000
O91	O9	0.675300	0.050000	0.565700
O101	O10	0.718000	0.126600	0.734500
O111	O11	0.975100	0.323900	0.919400
O121	O12	0.906300	0.284700	0.744000
