data_ESUSAO01_clean_PM
_symmetry_space_group_name_H-M	'P1'
_cell_length_a	10.918800
_cell_length_b	10.963400
_cell_length_c	11.056400
_cell_angle_alpha	83.336000
_cell_angle_beta	87.083000
_cell_angle_gamma	70.191000
_symmetry_Int_Tables_number 1

loop_
_symmetry_equiv_pos_as_xyz
'x,y,z'

loop_
_atom_site_label
_atom_site_type_symbol
_atom_site_fract_x
_atom_site_fract_y
_atom_site_fract_z
Co11	Co1	0.093330	0.895250	0.250720
Co21	Co2	0.850680	0.016680	0.482260
Co31	Co3	0.971070	0.863510	0.001710
N11	N1	0.800300	0.937400	0.334900
N21	N2	0.881900	0.932000	0.239000
N31	N3	0.834500	0.902400	0.140900
N41	N4	0.076200	0.177600	0.163600
N51	N5	0.093600	0.086400	0.257100
N61	N6	0.113700	0.124600	0.361100
C11	C1	0.695800	0.910300	0.296600
C21	C2	0.717700	0.889100	0.173600
C31	C3	0.625600	0.862400	0.105600
H11	H1	0.639600	0.849700	0.021800
C41	C4	0.515300	0.855500	0.166100
H21	H2	0.452100	0.835700	0.123600
C51	C5	0.492700	0.877200	0.290700
C61	C6	0.581100	0.905000	0.358300
H31	H3	0.565500	0.919700	0.441500
C71	C7	0.364300	0.873900	0.347700
C81	C8	0.086300	0.285800	0.210400
C91	C9	0.108400	0.252000	0.335000
C101	C10	0.121100	0.339900	0.412000
H41	H4	0.135800	0.316400	0.496800
C111	C11	0.110900	0.462300	0.357200
H51	H5	0.118100	0.525400	0.406000
C121	C12	0.090000	0.497400	0.230700
C131	C13	0.077900	0.410800	0.155400
H61	H6	0.064400	0.434100	0.070400
C141	C14	0.082300	0.634100	0.180000
O11	O1	0.101500	0.929900	0.066600
H71	H7	0.182000	0.879000	0.035000
O21	O2	0.046000	0.900200	0.429600
H81	H8	0.064000	0.814000	0.470000
O31	O3	0.337700	0.908800	0.454200
O41	O4	0.294700	0.835200	0.285000
O51	O5	0.048400	0.670600	0.070200
O61	O6	0.108100	0.701400	0.252500
Co41	Co4	0.906670	0.104750	0.749280
Co51	Co5	0.149320	0.983320	0.517740
Co61	Co6	0.028930	0.136490	0.998290
N71	N7	0.199700	0.062600	0.665100
N81	N8	0.118100	0.068000	0.761000
N91	N9	0.165500	0.097600	0.859100
N101	N10	0.923800	0.822400	0.836400
N111	N11	0.906400	0.913600	0.742900
N121	N12	0.886300	0.875400	0.638900
C151	C15	0.304200	0.089700	0.703400
C161	C16	0.282300	0.110900	0.826400
C171	C17	0.374400	0.137600	0.894400
H91	H9	0.360400	0.150300	0.978200
C181	C18	0.484700	0.144500	0.833900
H101	H10	0.547900	0.164300	0.876400
C191	C19	0.507300	0.122800	0.709300
C201	C20	0.418900	0.095000	0.641700
H111	H11	0.434500	0.080300	0.558500
C211	C21	0.635700	0.126100	0.652300
C221	C22	0.913700	0.714200	0.789600
C231	C23	0.891600	0.748000	0.665000
C241	C24	0.878900	0.660100	0.588000
H121	H12	0.864200	0.683600	0.503200
C251	C25	0.889100	0.537700	0.642800
H131	H13	0.881900	0.474600	0.594000
C261	C26	0.910000	0.502600	0.769300
C271	C27	0.922100	0.589200	0.844600
H141	H14	0.935600	0.565900	0.929600
C281	C28	0.917700	0.365900	0.820000
O71	O7	0.898500	0.070100	0.933400
H151	H15	0.818000	0.121000	0.965000
O81	O8	0.954000	0.099800	0.570400
H161	H16	0.936000	0.186000	0.530000
O91	O9	0.662300	0.091200	0.545800
O101	O10	0.705300	0.164800	0.715000
O111	O11	0.951600	0.329400	0.929800
O121	O12	0.891900	0.298600	0.747500
