data_ESUSAO_clean_PM
_symmetry_space_group_name_H-M	'P1'
_cell_length_a	10.920400
_cell_length_b	10.960300
_cell_length_c	11.058700
_cell_angle_alpha	83.328000
_cell_angle_beta	87.023000
_cell_angle_gamma	70.330000
_symmetry_Int_Tables_number 1

loop_
_symmetry_equiv_pos_as_xyz
'x,y,z'

loop_
_atom_site_label
_atom_site_type_symbol
_atom_site_fract_x
_atom_site_fract_y
_atom_site_fract_z
Co11	Co1	0.093250	0.895200	0.250670
Co21	Co2	0.850820	0.016470	0.482390
Co31	Co3	0.970850	0.863530	0.001760
N11	N1	0.800300	0.937100	0.334800
N21	N2	0.881500	0.931300	0.239200
N31	N3	0.834700	0.903100	0.141200
N41	N4	0.075700	0.178000	0.163200
N51	N5	0.094000	0.085200	0.257100
N61	N6	0.114200	0.125600	0.360900
C11	C1	0.696200	0.910600	0.296800
C21	C2	0.718300	0.888700	0.173400
C31	C3	0.625900	0.861200	0.106800
H11	H1	0.639900	0.847200	0.023300
C41	C4	0.515700	0.855500	0.167000
H21	H2	0.452400	0.836000	0.124400
C51	C5	0.492500	0.877700	0.291100
C61	C6	0.581000	0.904300	0.357900
H31	H3	0.565800	0.917800	0.441500
C71	C7	0.364500	0.874600	0.347100
C81	C8	0.086300	0.285500	0.209900
C91	C9	0.108100	0.251700	0.335400
C101	C10	0.121100	0.340600	0.411400
H41	H4	0.136800	0.317100	0.496000
C111	C11	0.110000	0.462800	0.357700
H51	H5	0.116100	0.525900	0.407000
C121	C12	0.089600	0.498600	0.230500
C131	C13	0.077700	0.410200	0.156100
H61	H6	0.064200	0.433300	0.071100
C141	C14	0.081900	0.634000	0.180000
O11	O1	0.100900	0.929900	0.066000
H71	H7	0.187000	0.883000	0.047000
O21	O2	0.045700	0.900100	0.429600
H81	H8	0.046000	0.819000	0.467000
O31	O3	0.337600	0.909700	0.453800
O41	O4	0.294400	0.835700	0.285500
O51	O5	0.047100	0.671100	0.069800
O61	O6	0.107900	0.702000	0.252500
Co41	Co4	0.906750	0.104800	0.749330
Co51	Co5	0.149180	0.983530	0.517610
Co61	Co6	0.029150	0.136470	0.998240
N71	N7	0.199700	0.062900	0.665200
N81	N8	0.118500	0.068700	0.760800
N91	N9	0.165300	0.096900	0.858800
N101	N10	0.924300	0.822000	0.836800
N111	N11	0.906000	0.914800	0.742900
N121	N12	0.885800	0.874400	0.639100
C151	C15	0.303800	0.089400	0.703200
C161	C16	0.281700	0.111300	0.826600
C171	C17	0.374100	0.138800	0.893200
H91	H9	0.360100	0.152800	0.976700
C181	C18	0.484300	0.144500	0.833000
H101	H10	0.547600	0.164000	0.875600
C191	C19	0.507500	0.122300	0.708900
C201	C20	0.419000	0.095700	0.642100
H111	H11	0.434200	0.082200	0.558500
C211	C21	0.635500	0.125400	0.652900
C221	C22	0.913700	0.714500	0.790100
C231	C23	0.891900	0.748300	0.664600
C241	C24	0.878900	0.659400	0.588600
H121	H12	0.863200	0.682900	0.504000
C251	C25	0.890000	0.537200	0.642300
H131	H13	0.883900	0.474100	0.593000
C261	C26	0.910400	0.501400	0.769500
C271	C27	0.922300	0.589800	0.843900
H141	H14	0.935800	0.566700	0.928900
C281	C28	0.918100	0.366000	0.820000
O71	O7	0.899100	0.070100	0.934000
H151	H15	0.813000	0.117000	0.953000
O81	O8	0.954300	0.099900	0.570400
H161	H16	0.954000	0.181000	0.533000
O91	O9	0.662400	0.090300	0.546200
O101	O10	0.705600	0.164300	0.714500
O111	O11	0.952900	0.328900	0.930200
O121	O12	0.892100	0.298000	0.747500
