data_ESUSIW_clean_PM
_symmetry_space_group_name_H-M	'P1'
_cell_length_a	17.628600
_cell_length_b	13.092900
_cell_length_c	11.072700
_cell_angle_alpha	90.000000
_cell_angle_beta	95.599000
_cell_angle_gamma	90.000000
_symmetry_Int_Tables_number 1

loop_
_symmetry_equiv_pos_as_xyz
'x,y,z'

loop_
_atom_site_label
_atom_site_type_symbol
_atom_site_fract_x
_atom_site_fract_y
_atom_site_fract_z
Co11	Co1	0.578700	0.564240	0.997320
N11	N1	0.869500	0.939800	0.163300
N21	N2	0.906800	0.986400	0.256000
N31	N3	0.873200	0.976800	0.357100
C11	C1	0.808600	0.892300	0.208500
C21	C2	0.811900	0.915900	0.330400
C31	C3	0.758100	0.878000	0.402400
H11	H1	0.761700	0.890700	0.485400
C41	C4	0.699900	0.821700	0.346900
H21	H2	0.661500	0.798900	0.392300
C51	C5	0.696100	0.796600	0.221400
C61	C6	0.749200	0.832200	0.149700
H31	H3	0.746400	0.817900	0.067100
C71	C7	0.633100	0.726700	0.171100
O11	O1	0.479000	0.577200	0.067400
H41	H4	0.465000	0.635000	0.016000
O21	O2	0.636300	0.692400	0.064700
O31	O3	0.581500	0.708500	0.238900
Co21	Co2	0.078700	0.064240	0.997320
N41	N4	0.369500	0.439800	0.163300
N51	N5	0.406800	0.486400	0.256000
N61	N6	0.373200	0.476800	0.357100
C81	C8	0.308600	0.392300	0.208500
C91	C9	0.311900	0.415900	0.330400
C101	C10	0.258100	0.378000	0.402400
H51	H5	0.261700	0.390700	0.485400
C111	C11	0.199900	0.321700	0.346900
H61	H6	0.161500	0.298900	0.392300
C121	C12	0.196100	0.296600	0.221400
C131	C13	0.249200	0.332200	0.149700
H71	H7	0.246400	0.317900	0.067100
C141	C14	0.133100	0.226700	0.171100
O41	O4	0.979000	0.077200	0.067400
H81	H8	0.965000	0.135000	0.016000
O51	O5	0.136300	0.192400	0.064700
O61	O6	0.081500	0.208500	0.238900
Co31	Co3	0.421300	0.564240	0.502680
N71	N7	0.130500	0.939800	0.336700
N81	N8	0.093200	0.986400	0.244000
N91	N9	0.126800	0.976800	0.142900
C151	C15	0.191400	0.892300	0.291500
C161	C16	0.188100	0.915900	0.169600
C171	C17	0.241900	0.878000	0.097600
H91	H9	0.238300	0.890700	0.014600
C181	C18	0.300100	0.821700	0.153100
H101	H10	0.338500	0.798900	0.107700
C191	C19	0.303900	0.796600	0.278600
C201	C20	0.250800	0.832200	0.350300
H111	H11	0.253600	0.817900	0.432900
C211	C21	0.366900	0.726700	0.328900
O71	O7	0.521000	0.577200	0.432600
H121	H12	0.535000	0.635000	0.484000
O81	O8	0.363700	0.692400	0.435300
O91	O9	0.418500	0.708500	0.261100
Co41	Co4	0.921300	0.064240	0.502680
N101	N10	0.630500	0.439800	0.336700
N111	N11	0.593200	0.486400	0.244000
N121	N12	0.626800	0.476800	0.142900
C221	C22	0.691400	0.392300	0.291500
C231	C23	0.688100	0.415900	0.169600
C241	C24	0.741900	0.378000	0.097600
H131	H13	0.738300	0.390700	0.014600
C251	C25	0.800100	0.321700	0.153100
H141	H14	0.838500	0.298900	0.107700
C261	C26	0.803900	0.296600	0.278600
C271	C27	0.750800	0.332200	0.350300
H151	H15	0.753600	0.317900	0.432900
C281	C28	0.866900	0.226700	0.328900
O101	O10	0.021000	0.077200	0.432600
H161	H16	0.035000	0.135000	0.484000
O111	O11	0.863700	0.192400	0.435300
O121	O12	0.918500	0.208500	0.261100
Co51	Co5	0.421300	0.435760	0.002680
N131	N13	0.130500	0.060200	0.836700
N141	N14	0.093200	0.013600	0.744000
N151	N15	0.126800	0.023200	0.642900
C291	C29	0.191400	0.107700	0.791500
C301	C30	0.188100	0.084100	0.669600
C311	C31	0.241900	0.122000	0.597600
H171	H17	0.238300	0.109300	0.514600
C321	C32	0.300100	0.178300	0.653100
H181	H18	0.338500	0.201100	0.607700
C331	C33	0.303900	0.203400	0.778600
C341	C34	0.250800	0.167800	0.850300
H191	H19	0.253600	0.182100	0.932900
C351	C35	0.366900	0.273300	0.828900
O131	O13	0.521000	0.422800	0.932600
H201	H20	0.535000	0.365000	0.984000
O141	O14	0.363700	0.307600	0.935300
O151	O15	0.418500	0.291500	0.761100
Co61	Co6	0.921300	0.935760	0.002680
N161	N16	0.630500	0.560200	0.836700
N171	N17	0.593200	0.513600	0.744000
N181	N18	0.626800	0.523200	0.642900
C361	C36	0.691400	0.607700	0.791500
C371	C37	0.688100	0.584100	0.669600
C381	C38	0.741900	0.622000	0.597600
H211	H21	0.738300	0.609300	0.514600
C391	C39	0.800100	0.678300	0.653100
H221	H22	0.838500	0.701100	0.607700
C401	C40	0.803900	0.703400	0.778600
C411	C41	0.750800	0.667800	0.850300
H231	H23	0.753600	0.682100	0.932900
C421	C42	0.866900	0.773300	0.828900
O161	O16	0.021000	0.922800	0.932600
H241	H24	0.035000	0.865000	0.984000
O171	O17	0.863700	0.807600	0.935300
O181	O18	0.918500	0.791500	0.761100
Co71	Co7	0.578700	0.435760	0.497320
N191	N19	0.869500	0.060200	0.663300
N201	N20	0.906800	0.013600	0.756000
N211	N21	0.873200	0.023200	0.857100
C431	C43	0.808600	0.107700	0.708500
C441	C44	0.811900	0.084100	0.830400
C451	C45	0.758100	0.122000	0.902400
H251	H25	0.761700	0.109300	0.985400
C461	C46	0.699900	0.178300	0.846900
H261	H26	0.661500	0.201100	0.892300
C471	C47	0.696100	0.203400	0.721400
C481	C48	0.749200	0.167800	0.649700
H271	H27	0.746400	0.182100	0.567100
C491	C49	0.633100	0.273300	0.671100
O191	O19	0.479000	0.422800	0.567400
H281	H28	0.465000	0.365000	0.516000
O201	O20	0.636300	0.307600	0.564700
O211	O21	0.581500	0.291500	0.738900
Co81	Co8	0.078700	0.935760	0.497320
N221	N22	0.369500	0.560200	0.663300
N231	N23	0.406800	0.513600	0.756000
N241	N24	0.373200	0.523200	0.857100
C501	C50	0.308600	0.607700	0.708500
C511	C51	0.311900	0.584100	0.830400
C521	C52	0.258100	0.622000	0.902400
H291	H29	0.261700	0.609300	0.985400
C531	C53	0.199900	0.678300	0.846900
H301	H30	0.161500	0.701100	0.892300
C541	C54	0.196100	0.703400	0.721400
C551	C55	0.249200	0.667800	0.649700
H311	H31	0.246400	0.682100	0.567100
C561	C56	0.133100	0.773300	0.671100
O221	O22	0.979000	0.922800	0.567400
H321	H32	0.965000	0.865000	0.516000
O231	O23	0.136300	0.807600	0.564700
O241	O24	0.081500	0.791500	0.738900
Co91	Co9	0.500000	0.593530	0.250000
Co101	Co10	0.000000	0.093530	0.250000
Co111	Co11	0.500000	0.406470	0.750000
Co121	Co12	0.000000	0.906470	0.750000
