data_ESUTAP_clean_PM
_symmetry_space_group_name_H-M	'P1'
_cell_length_a	16.894000
_cell_length_b	14.014000
_cell_length_c	11.003300
_cell_angle_alpha	90.000000
_cell_angle_beta	98.287000
_cell_angle_gamma	90.000000
_symmetry_Int_Tables_number 1

loop_
_symmetry_equiv_pos_as_xyz
'x,y,z'

loop_
_atom_site_label
_atom_site_type_symbol
_atom_site_fract_x
_atom_site_fract_y
_atom_site_fract_z
Co11	Co1	0.923390	0.932200	0.005900
N11	N1	0.865800	0.941000	0.161800
N21	N2	0.905100	0.996200	0.252600
N31	N3	0.873400	0.980900	0.358000
C11	C1	0.807900	0.890300	0.210600
C21	C2	0.813900	0.915400	0.333000
C31	C3	0.764200	0.875100	0.408500
H11	H1	0.768500	0.890500	0.491400
C41	C4	0.708100	0.811400	0.354400
H21	H2	0.671400	0.785900	0.401000
C51	C5	0.704400	0.783900	0.233000
C61	C6	0.755600	0.821300	0.160000
H31	H3	0.755000	0.800800	0.079500
C71	C7	0.637900	0.713900	0.179900
O11	O1	0.975600	0.070300	0.066300
H41	H4	0.947000	0.129000	0.048000
O21	O2	0.641800	0.682600	0.074700
O31	O3	0.585700	0.696000	0.246500
Co21	Co2	0.423390	0.432200	0.005900
N41	N4	0.365800	0.441000	0.161800
N51	N5	0.405100	0.496200	0.252600
N61	N6	0.373400	0.480900	0.358000
C81	C8	0.307900	0.390300	0.210600
C91	C9	0.313900	0.415400	0.333000
C101	C10	0.264200	0.375100	0.408500
H51	H5	0.268500	0.390500	0.491400
C111	C11	0.208100	0.311400	0.354400
H61	H6	0.171400	0.285900	0.401000
C121	C12	0.204400	0.283900	0.233000
C131	C13	0.255600	0.321300	0.160000
H71	H7	0.255000	0.300800	0.079500
C141	C14	0.137900	0.213900	0.179900
O41	O4	0.475600	0.570300	0.066300
H81	H8	0.447000	0.629000	0.048000
O51	O5	0.141800	0.182600	0.074700
O61	O6	0.085700	0.196000	0.246500
Co31	Co3	0.076610	0.932200	0.494100
N71	N7	0.134200	0.941000	0.338200
N81	N8	0.094900	0.996200	0.247400
N91	N9	0.126600	0.980900	0.142000
C151	C15	0.192100	0.890300	0.289400
C161	C16	0.186100	0.915400	0.167000
C171	C17	0.235800	0.875100	0.091500
H91	H9	0.231500	0.890500	0.008600
C181	C18	0.291900	0.811400	0.145600
H101	H10	0.328600	0.785900	0.099000
C191	C19	0.295600	0.783900	0.267000
C201	C20	0.244400	0.821300	0.340000
H111	H11	0.245000	0.800800	0.420500
C211	C21	0.362100	0.713900	0.320100
O71	O7	0.024400	0.070300	0.433700
H121	H12	0.053000	0.129000	0.452000
O81	O8	0.358200	0.682600	0.425300
O91	O9	0.414300	0.696000	0.253500
Co41	Co4	0.576610	0.432200	0.494100
N101	N10	0.634200	0.441000	0.338200
N111	N11	0.594900	0.496200	0.247400
N121	N12	0.626600	0.480900	0.142000
C221	C22	0.692100	0.390300	0.289400
C231	C23	0.686100	0.415400	0.167000
C241	C24	0.735800	0.375100	0.091500
H131	H13	0.731500	0.390500	0.008600
C251	C25	0.791900	0.311400	0.145600
H141	H14	0.828600	0.285900	0.099000
C261	C26	0.795600	0.283900	0.267000
C271	C27	0.744400	0.321300	0.340000
H151	H15	0.745000	0.300800	0.420500
C281	C28	0.862100	0.213900	0.320100
O101	O10	0.524400	0.570300	0.433700
H161	H16	0.553000	0.629000	0.452000
O111	O11	0.858200	0.182600	0.425300
O121	O12	0.914300	0.196000	0.253500
Co51	Co5	0.076610	0.067800	0.994100
N131	N13	0.134200	0.059000	0.838200
N141	N14	0.094900	0.003800	0.747400
N151	N15	0.126600	0.019100	0.642000
C291	C29	0.192100	0.109700	0.789400
C301	C30	0.186100	0.084600	0.667000
C311	C31	0.235800	0.124900	0.591500
H171	H17	0.231500	0.109500	0.508600
C321	C32	0.291900	0.188600	0.645600
H181	H18	0.328600	0.214100	0.599000
C331	C33	0.295600	0.216100	0.767000
C341	C34	0.244400	0.178700	0.840000
H191	H19	0.245000	0.199200	0.920500
C351	C35	0.362100	0.286100	0.820100
O131	O13	0.024400	0.929700	0.933700
H201	H20	0.053000	0.871000	0.952000
O141	O14	0.358200	0.317400	0.925300
O151	O15	0.414300	0.304000	0.753500
Co61	Co6	0.576610	0.567800	0.994100
N161	N16	0.634200	0.559000	0.838200
N171	N17	0.594900	0.503800	0.747400
N181	N18	0.626600	0.519100	0.642000
C361	C36	0.692100	0.609700	0.789400
C371	C37	0.686100	0.584600	0.667000
C381	C38	0.735800	0.624900	0.591500
H211	H21	0.731500	0.609500	0.508600
C391	C39	0.791900	0.688600	0.645600
H221	H22	0.828600	0.714100	0.599000
C401	C40	0.795600	0.716100	0.767000
C411	C41	0.744400	0.678700	0.840000
H231	H23	0.745000	0.699200	0.920500
C421	C42	0.862100	0.786100	0.820100
O161	O16	0.524400	0.429700	0.933700
H241	H24	0.553000	0.371000	0.952000
O171	O17	0.858200	0.817400	0.925300
O181	O18	0.914300	0.804000	0.753500
Co71	Co7	0.923390	0.067800	0.505900
N191	N19	0.865800	0.059000	0.661800
N201	N20	0.905100	0.003800	0.752600
N211	N21	0.873400	0.019100	0.858000
C431	C43	0.807900	0.109700	0.710600
C441	C44	0.813900	0.084600	0.833000
C451	C45	0.764200	0.124900	0.908500
H251	H25	0.768500	0.109500	0.991400
C461	C46	0.708100	0.188600	0.854400
H261	H26	0.671400	0.214100	0.901000
C471	C47	0.704400	0.216100	0.733000
C481	C48	0.755600	0.178700	0.660000
H271	H27	0.755000	0.199200	0.579500
C491	C49	0.637900	0.286100	0.679900
O191	O19	0.975600	0.929700	0.566300
H281	H28	0.947000	0.871000	0.548000
O201	O20	0.641800	0.317400	0.574700
O211	O21	0.585700	0.304000	0.746500
Co81	Co8	0.423390	0.567800	0.505900
N221	N22	0.365800	0.559000	0.661800
N231	N23	0.405100	0.503800	0.752600
N241	N24	0.373400	0.519100	0.858000
C501	C50	0.307900	0.609700	0.710600
C511	C51	0.313900	0.584600	0.833000
C521	C52	0.264200	0.624900	0.908500
H291	H29	0.268500	0.609500	0.991400
C531	C53	0.208100	0.688600	0.854400
H301	H30	0.171400	0.714100	0.901000
C541	C54	0.204400	0.716100	0.733000
C551	C55	0.255600	0.678700	0.660000
H311	H31	0.255000	0.699200	0.579500
C561	C56	0.137900	0.786100	0.679900
O221	O22	0.475600	0.429700	0.566300
H321	H32	0.447000	0.371000	0.548000
O231	O23	0.141800	0.817400	0.574700
O241	O24	0.085700	0.804000	0.746500
Co91	Co9	0.000000	0.091400	0.250000
Co101	Co10	0.500000	0.591400	0.250000
Co111	Co11	0.000000	0.908600	0.750000
Co121	Co12	0.500000	0.408600	0.750000
