data_ESUTIX_clean_PM
_symmetry_space_group_name_H-M	'P1'
_cell_length_a	16.801400
_cell_length_b	14.173000
_cell_length_c	33.181300
_cell_angle_alpha	90.000000
_cell_angle_beta	96.641000
_cell_angle_gamma	90.000000
_symmetry_Int_Tables_number 1

loop_
_symmetry_equiv_pos_as_xyz
'x,y,z'

loop_
_atom_site_label
_atom_site_type_symbol
_atom_site_fract_x
_atom_site_fract_y
_atom_site_fract_z
Co11	Co1	0.006880	0.094790	0.417340
Co21	Co2	0.925490	0.070490	0.502880
Co31	Co3	0.918970	0.958500	0.333220
Co41	Co4	0.090000	0.068170	0.335540
C11	C1	0.188200	0.136800	0.263900
C21	C2	0.186900	0.111800	0.223800
C31	C3	0.237200	0.151200	0.196300
H11	H1	0.234800	0.133900	0.169200
C41	C4	0.290700	0.218700	0.214700
H21	H2	0.324600	0.250400	0.199000
C51	C5	0.294100	0.240000	0.257000
C61	C6	0.242800	0.200700	0.281600
H31	H3	0.245000	0.216500	0.308900
C71	C7	0.359900	0.309000	0.273900
C81	C8	0.315900	0.397700	0.404100
C91	C9	0.316400	0.419500	0.444400
C101	C10	0.267400	0.380100	0.469900
H41	H4	0.270500	0.396100	0.497200
C111	C11	0.212400	0.314100	0.452200
H51	H5	0.175700	0.287600	0.467800
C121	C12	0.210800	0.286900	0.412000
C131	C13	0.260500	0.328000	0.388100
H61	H6	0.258500	0.310400	0.361000
C141	C14	0.148400	0.215300	0.394900
C151	C15	0.196600	0.916800	0.391400
C161	C16	0.198900	0.889800	0.431600
C171	C17	0.306300	0.814800	0.384100
H71	H7	0.344100	0.788900	0.369000
C181	C18	0.308100	0.792000	0.426800
C191	C19	0.251900	0.827500	0.449200
H81	H8	0.250400	0.808900	0.475900
C201	C20	0.249700	0.873600	0.366400
H91	H9	0.245400	0.885600	0.338600
C211	C21	0.371300	0.722000	0.444300
N11	N1	0.129400	0.081500	0.280000
N21	N2	0.094400	0.030700	0.249500
N31	N3	0.125400	0.047800	0.215400
N41	N4	0.372300	0.451000	0.387500
N51	N5	0.405600	0.503600	0.418400
N61	N6	0.373800	0.491500	0.453400
N71	N7	0.137400	0.978500	0.381200
N81	N8	0.101700	0.989700	0.415000
N91	N9	0.136700	0.941100	0.446500
O11	O1	0.023700	0.940600	0.311700
O21	O2	0.985400	0.086300	0.355600
O31	O3	0.029300	0.068800	0.477600
O41	O4	0.353700	0.346400	0.308000
O51	O5	0.414300	0.326200	0.252000
O61	O6	0.153200	0.183000	0.360300
O71	O7	0.098300	0.194000	0.418300
O81	O8	0.365500	0.687600	0.478500
O91	O9	0.427700	0.707200	0.422700
H101	H10	0.069000	0.103000	0.495000
H111	H11	0.027000	0.877000	0.322000
H121	H12	0.956000	0.143000	0.347000
Co51	Co5	0.506880	0.594790	0.417340
Co61	Co6	0.425490	0.570490	0.502880
Co71	Co7	0.418970	0.458500	0.333220
Co81	Co8	0.590000	0.568170	0.335540
C221	C22	0.688200	0.636800	0.263900
C231	C23	0.686900	0.611800	0.223800
C241	C24	0.737200	0.651200	0.196300
H131	H13	0.734800	0.633900	0.169200
C251	C25	0.790700	0.718700	0.214700
H141	H14	0.824600	0.750400	0.199000
C261	C26	0.794100	0.740000	0.257000
C271	C27	0.742800	0.700700	0.281600
H151	H15	0.745000	0.716500	0.308900
C281	C28	0.859900	0.809000	0.273900
C291	C29	0.815900	0.897700	0.404100
C301	C30	0.816400	0.919500	0.444400
C311	C31	0.767400	0.880100	0.469900
H161	H16	0.770500	0.896100	0.497200
C321	C32	0.712400	0.814100	0.452200
H171	H17	0.675700	0.787600	0.467800
C331	C33	0.710800	0.786900	0.412000
C341	C34	0.760500	0.828000	0.388100
H181	H18	0.758500	0.810400	0.361000
C351	C35	0.648400	0.715300	0.394900
C361	C36	0.696600	0.416800	0.391400
C371	C37	0.698900	0.389800	0.431600
C381	C38	0.806300	0.314800	0.384100
H191	H19	0.844100	0.288900	0.369000
C391	C39	0.808100	0.292000	0.426800
C401	C40	0.751900	0.327500	0.449200
H201	H20	0.750400	0.308900	0.475900
C411	C41	0.749700	0.373600	0.366400
H211	H21	0.745400	0.385600	0.338600
C421	C42	0.871300	0.222000	0.444300
N101	N10	0.629400	0.581500	0.280000
N111	N11	0.594400	0.530700	0.249500
N121	N12	0.625400	0.547800	0.215400
N131	N13	0.872300	0.951000	0.387500
N141	N14	0.905600	0.003600	0.418400
N151	N15	0.873800	0.991500	0.453400
N161	N16	0.637400	0.478500	0.381200
N171	N17	0.601700	0.489700	0.415000
N181	N18	0.636700	0.441100	0.446500
O101	O10	0.523700	0.440600	0.311700
O111	O11	0.485400	0.586300	0.355600
O121	O12	0.529300	0.568800	0.477600
O131	O13	0.853700	0.846400	0.308000
O141	O14	0.914300	0.826200	0.252000
O151	O15	0.653200	0.683000	0.360300
O161	O16	0.598300	0.694000	0.418300
O171	O17	0.865500	0.187600	0.478500
O181	O18	0.927700	0.207200	0.422700
H221	H22	0.569000	0.603000	0.495000
H231	H23	0.527000	0.377000	0.322000
H241	H24	0.456000	0.643000	0.347000
Co91	Co9	0.993120	0.094790	0.082660
Co101	Co10	0.074510	0.070490	0.997120
Co111	Co11	0.081030	0.958500	0.166780
Co121	Co12	0.910000	0.068170	0.164460
C431	C43	0.811800	0.136800	0.236100
C441	C44	0.813100	0.111800	0.276200
C451	C45	0.762800	0.151200	0.303700
H251	H25	0.765200	0.133900	0.330800
C461	C46	0.709300	0.218700	0.285300
H261	H26	0.675400	0.250400	0.301000
C471	C47	0.705900	0.240000	0.243000
C481	C48	0.757200	0.200700	0.218400
H271	H27	0.755000	0.216500	0.191100
C491	C49	0.640100	0.309000	0.226100
C501	C50	0.684100	0.397700	0.095900
C511	C51	0.683600	0.419500	0.055600
C521	C52	0.732600	0.380100	0.030100
H281	H28	0.729500	0.396100	0.002800
C531	C53	0.787600	0.314100	0.047800
H291	H29	0.824300	0.287600	0.032200
C541	C54	0.789200	0.286900	0.088000
C551	C55	0.739500	0.328000	0.111900
H301	H30	0.741500	0.310400	0.139000
C561	C56	0.851600	0.215300	0.105100
C571	C57	0.803400	0.916800	0.108600
C581	C58	0.801100	0.889800	0.068400
C591	C59	0.693700	0.814800	0.115900
H311	H31	0.655900	0.788900	0.131000
C601	C60	0.691900	0.792000	0.073200
C611	C61	0.748100	0.827500	0.050800
H321	H32	0.749600	0.808900	0.024100
C621	C62	0.750300	0.873600	0.133600
H331	H33	0.754600	0.885600	0.161400
C631	C63	0.628700	0.722000	0.055700
N191	N19	0.870600	0.081500	0.220000
N201	N20	0.905600	0.030700	0.250500
N211	N21	0.874600	0.047800	0.284600
N221	N22	0.627700	0.451000	0.112500
N231	N23	0.594400	0.503600	0.081600
N241	N24	0.626200	0.491500	0.046600
N251	N25	0.862600	0.978500	0.118800
N261	N26	0.898300	0.989700	0.085000
N271	N27	0.863300	0.941100	0.053500
O191	O19	0.976300	0.940600	0.188300
O201	O20	0.014600	0.086300	0.144400
O211	O21	0.970700	0.068800	0.022400
O221	O22	0.646300	0.346400	0.192000
O231	O23	0.585700	0.326200	0.248000
O241	O24	0.846800	0.183000	0.139700
O251	O25	0.901700	0.194000	0.081700
O261	O26	0.634500	0.687600	0.021500
O271	O27	0.572300	0.707200	0.077300
H341	H34	0.931000	0.103000	0.005000
H351	H35	0.973000	0.877000	0.178000
H361	H36	0.044000	0.143000	0.153000
Co131	Co13	0.493120	0.594790	0.082660
Co141	Co14	0.574510	0.570490	0.997120
Co151	Co15	0.581030	0.458500	0.166780
Co161	Co16	0.410000	0.568170	0.164460
C641	C64	0.311800	0.636800	0.236100
C651	C65	0.313100	0.611800	0.276200
C661	C66	0.262800	0.651200	0.303700
H371	H37	0.265200	0.633900	0.330800
C671	C67	0.209300	0.718700	0.285300
H381	H38	0.175400	0.750400	0.301000
C681	C68	0.205900	0.740000	0.243000
C691	C69	0.257200	0.700700	0.218400
H391	H39	0.255000	0.716500	0.191100
C701	C70	0.140100	0.809000	0.226100
C711	C71	0.184100	0.897700	0.095900
C721	C72	0.183600	0.919500	0.055600
C731	C73	0.232600	0.880100	0.030100
H401	H40	0.229500	0.896100	0.002800
C741	C74	0.287600	0.814100	0.047800
H411	H41	0.324300	0.787600	0.032200
C751	C75	0.289200	0.786900	0.088000
C761	C76	0.239500	0.828000	0.111900
H421	H42	0.241500	0.810400	0.139000
C771	C77	0.351600	0.715300	0.105100
C781	C78	0.303400	0.416800	0.108600
C791	C79	0.301100	0.389800	0.068400
C801	C80	0.193700	0.314800	0.115900
H431	H43	0.155900	0.288900	0.131000
C811	C81	0.191900	0.292000	0.073200
C821	C82	0.248100	0.327500	0.050800
H441	H44	0.249600	0.308900	0.024100
C831	C83	0.250300	0.373600	0.133600
H451	H45	0.254600	0.385600	0.161400
C841	C84	0.128700	0.222000	0.055700
N281	N28	0.370600	0.581500	0.220000
N291	N29	0.405600	0.530700	0.250500
N301	N30	0.374600	0.547800	0.284600
N311	N31	0.127700	0.951000	0.112500
N321	N32	0.094400	0.003600	0.081600
N331	N33	0.126200	0.991500	0.046600
N341	N34	0.362600	0.478500	0.118800
N351	N35	0.398300	0.489700	0.085000
N361	N36	0.363300	0.441100	0.053500
O281	O28	0.476300	0.440600	0.188300
O291	O29	0.514600	0.586300	0.144400
O301	O30	0.470700	0.568800	0.022400
O311	O31	0.146300	0.846400	0.192000
O321	O32	0.085700	0.826200	0.248000
O331	O33	0.346800	0.683000	0.139700
O341	O34	0.401700	0.694000	0.081700
O351	O35	0.134500	0.187600	0.021500
O361	O36	0.072300	0.207200	0.077300
H461	H46	0.431000	0.603000	0.005000
H471	H47	0.473000	0.377000	0.178000
H481	H48	0.544000	0.643000	0.153000
Co171	Co17	0.993120	0.905210	0.582660
Co181	Co18	0.074510	0.929510	0.497120
Co191	Co19	0.081030	0.041500	0.666780
Co201	Co20	0.910000	0.931830	0.664460
C851	C85	0.811800	0.863200	0.736100
C861	C86	0.813100	0.888200	0.776200
C871	C87	0.762800	0.848800	0.803700
H491	H49	0.765200	0.866100	0.830800
C881	C88	0.709300	0.781300	0.785300
H501	H50	0.675400	0.749600	0.801000
C891	C89	0.705900	0.760000	0.743000
C901	C90	0.757200	0.799300	0.718400
H511	H51	0.755000	0.783500	0.691100
C911	C91	0.640100	0.691000	0.726100
C921	C92	0.684100	0.602300	0.595900
C931	C93	0.683600	0.580500	0.555600
C941	C94	0.732600	0.619900	0.530100
H521	H52	0.729500	0.603900	0.502800
C951	C95	0.787600	0.685900	0.547800
H531	H53	0.824300	0.712400	0.532200
C961	C96	0.789200	0.713100	0.588000
C971	C97	0.739500	0.672000	0.611900
H541	H54	0.741500	0.689600	0.639000
C981	C98	0.851600	0.784700	0.605100
C991	C99	0.803400	0.083200	0.608600
C1001	C100	0.801100	0.110200	0.568400
C1011	C101	0.693700	0.185200	0.615900
H551	H55	0.655900	0.211100	0.631000
C1021	C102	0.691900	0.208000	0.573200
C1031	C103	0.748100	0.172500	0.550800
H561	H56	0.749600	0.191100	0.524100
C1041	C104	0.750300	0.126400	0.633600
H571	H57	0.754600	0.114400	0.661400
C1051	C105	0.628700	0.278000	0.555700
N371	N37	0.870600	0.918500	0.720000
N381	N38	0.905600	0.969300	0.750500
N391	N39	0.874600	0.952200	0.784600
N401	N40	0.627700	0.549000	0.612500
N411	N41	0.594400	0.496400	0.581600
N421	N42	0.626200	0.508500	0.546600
N431	N43	0.862600	0.021500	0.618800
N441	N44	0.898300	0.010300	0.585000
N451	N45	0.863300	0.058900	0.553500
O371	O37	0.976300	0.059400	0.688300
O381	O38	0.014600	0.913700	0.644400
O391	O39	0.970700	0.931200	0.522400
O401	O40	0.646300	0.653600	0.692000
O411	O41	0.585700	0.673800	0.748000
O421	O42	0.846800	0.817000	0.639700
O431	O43	0.901700	0.806000	0.581700
O441	O44	0.634500	0.312400	0.521500
O451	O45	0.572300	0.292800	0.577300
H581	H58	0.931000	0.897000	0.505000
H591	H59	0.973000	0.123000	0.678000
H601	H60	0.044000	0.857000	0.653000
Co211	Co21	0.493120	0.405210	0.582660
Co221	Co22	0.574510	0.429510	0.497120
Co231	Co23	0.581030	0.541500	0.666780
Co241	Co24	0.410000	0.431830	0.664460
C1061	C106	0.311800	0.363200	0.736100
C1071	C107	0.313100	0.388200	0.776200
C1081	C108	0.262800	0.348800	0.803700
H611	H61	0.265200	0.366100	0.830800
C1091	C109	0.209300	0.281300	0.785300
H621	H62	0.175400	0.249600	0.801000
C1101	C110	0.205900	0.260000	0.743000
C1111	C111	0.257200	0.299300	0.718400
H631	H63	0.255000	0.283500	0.691100
C1121	C112	0.140100	0.191000	0.726100
C1131	C113	0.184100	0.102300	0.595900
C1141	C114	0.183600	0.080500	0.555600
C1151	C115	0.232600	0.119900	0.530100
H641	H64	0.229500	0.103900	0.502800
C1161	C116	0.287600	0.185900	0.547800
H651	H65	0.324300	0.212400	0.532200
C1171	C117	0.289200	0.213100	0.588000
C1181	C118	0.239500	0.172000	0.611900
H661	H66	0.241500	0.189600	0.639000
C1191	C119	0.351600	0.284700	0.605100
C1201	C120	0.303400	0.583200	0.608600
C1211	C121	0.301100	0.610200	0.568400
C1221	C122	0.193700	0.685200	0.615900
H671	H67	0.155900	0.711100	0.631000
C1231	C123	0.191900	0.708000	0.573200
C1241	C124	0.248100	0.672500	0.550800
H681	H68	0.249600	0.691100	0.524100
C1251	C125	0.250300	0.626400	0.633600
H691	H69	0.254600	0.614400	0.661400
C1261	C126	0.128700	0.778000	0.555700
N461	N46	0.370600	0.418500	0.720000
N471	N47	0.405600	0.469300	0.750500
N481	N48	0.374600	0.452200	0.784600
N491	N49	0.127700	0.049000	0.612500
N501	N50	0.094400	0.996400	0.581600
N511	N51	0.126200	0.008500	0.546600
N521	N52	0.362600	0.521500	0.618800
N531	N53	0.398300	0.510300	0.585000
N541	N54	0.363300	0.558900	0.553500
O461	O46	0.476300	0.559400	0.688300
O471	O47	0.514600	0.413700	0.644400
O481	O48	0.470700	0.431200	0.522400
O491	O49	0.146300	0.153600	0.692000
O501	O50	0.085700	0.173800	0.748000
O511	O51	0.346800	0.317000	0.639700
O521	O52	0.401700	0.306000	0.581700
O531	O53	0.134500	0.812400	0.521500
O541	O54	0.072300	0.792800	0.577300
H701	H70	0.431000	0.397000	0.505000
H711	H71	0.473000	0.623000	0.678000
H721	H72	0.544000	0.357000	0.653000
Co251	Co25	0.006880	0.905210	0.917340
Co261	Co26	0.925490	0.929510	0.002880
Co271	Co27	0.918970	0.041500	0.833220
Co281	Co28	0.090000	0.931830	0.835540
C1271	C127	0.188200	0.863200	0.763900
C1281	C128	0.186900	0.888200	0.723800
C1291	C129	0.237200	0.848800	0.696300
H731	H73	0.234800	0.866100	0.669200
C1301	C130	0.290700	0.781300	0.714700
H741	H74	0.324600	0.749600	0.699000
C1311	C131	0.294100	0.760000	0.757000
C1321	C132	0.242800	0.799300	0.781600
H751	H75	0.245000	0.783500	0.808900
C1331	C133	0.359900	0.691000	0.773900
C1341	C134	0.315900	0.602300	0.904100
C1351	C135	0.316400	0.580500	0.944400
C1361	C136	0.267400	0.619900	0.969900
H761	H76	0.270500	0.603900	0.997200
C1371	C137	0.212400	0.685900	0.952200
H771	H77	0.175700	0.712400	0.967800
C1381	C138	0.210800	0.713100	0.912000
C1391	C139	0.260500	0.672000	0.888100
H781	H78	0.258500	0.689600	0.861000
C1401	C140	0.148400	0.784700	0.894900
C1411	C141	0.196600	0.083200	0.891400
C1421	C142	0.198900	0.110200	0.931600
C1431	C143	0.306300	0.185200	0.884100
H791	H79	0.344100	0.211100	0.869000
C1441	C144	0.308100	0.208000	0.926800
C1451	C145	0.251900	0.172500	0.949200
H801	H80	0.250400	0.191100	0.975900
C1461	C146	0.249700	0.126400	0.866400
H811	H81	0.245400	0.114400	0.838600
C1471	C147	0.371300	0.278000	0.944300
N551	N55	0.129400	0.918500	0.780000
N561	N56	0.094400	0.969300	0.749500
N571	N57	0.125400	0.952200	0.715400
N581	N58	0.372300	0.549000	0.887500
N591	N59	0.405600	0.496400	0.918400
N601	N60	0.373800	0.508500	0.953400
N611	N61	0.137400	0.021500	0.881200
N621	N62	0.101700	0.010300	0.915000
N631	N63	0.136700	0.058900	0.946500
O551	O55	0.023700	0.059400	0.811700
O561	O56	0.985400	0.913700	0.855600
O571	O57	0.029300	0.931200	0.977600
O581	O58	0.353700	0.653600	0.808000
O591	O59	0.414300	0.673800	0.752000
O601	O60	0.153200	0.817000	0.860300
O611	O61	0.098300	0.806000	0.918300
O621	O62	0.365500	0.312400	0.978500
O631	O63	0.427700	0.292800	0.922700
H821	H82	0.069000	0.897000	0.995000
H831	H83	0.027000	0.123000	0.822000
H841	H84	0.956000	0.857000	0.847000
Co291	Co29	0.506880	0.405210	0.917340
Co301	Co30	0.425490	0.429510	0.002880
Co311	Co31	0.418970	0.541500	0.833220
Co321	Co32	0.590000	0.431830	0.835540
C1481	C148	0.688200	0.363200	0.763900
C1491	C149	0.686900	0.388200	0.723800
C1501	C150	0.737200	0.348800	0.696300
H851	H85	0.734800	0.366100	0.669200
C1511	C151	0.790700	0.281300	0.714700
H861	H86	0.824600	0.249600	0.699000
C1521	C152	0.794100	0.260000	0.757000
C1531	C153	0.742800	0.299300	0.781600
H871	H87	0.745000	0.283500	0.808900
C1541	C154	0.859900	0.191000	0.773900
C1551	C155	0.815900	0.102300	0.904100
C1561	C156	0.816400	0.080500	0.944400
C1571	C157	0.767400	0.119900	0.969900
H881	H88	0.770500	0.103900	0.997200
C1581	C158	0.712400	0.185900	0.952200
H891	H89	0.675700	0.212400	0.967800
C1591	C159	0.710800	0.213100	0.912000
C1601	C160	0.760500	0.172000	0.888100
H901	H90	0.758500	0.189600	0.861000
C1611	C161	0.648400	0.284700	0.894900
C1621	C162	0.696600	0.583200	0.891400
C1631	C163	0.698900	0.610200	0.931600
C1641	C164	0.806300	0.685200	0.884100
H911	H91	0.844100	0.711100	0.869000
C1651	C165	0.808100	0.708000	0.926800
C1661	C166	0.751900	0.672500	0.949200
H921	H92	0.750400	0.691100	0.975900
C1671	C167	0.749700	0.626400	0.866400
H931	H93	0.745400	0.614400	0.838600
C1681	C168	0.871300	0.778000	0.944300
N641	N64	0.629400	0.418500	0.780000
N651	N65	0.594400	0.469300	0.749500
N661	N66	0.625400	0.452200	0.715400
N671	N67	0.872300	0.049000	0.887500
N681	N68	0.905600	0.996400	0.918400
N691	N69	0.873800	0.008500	0.953400
N701	N70	0.637400	0.521500	0.881200
N711	N71	0.601700	0.510300	0.915000
N721	N72	0.636700	0.558900	0.946500
O641	O64	0.523700	0.559400	0.811700
O651	O65	0.485400	0.413700	0.855600
O661	O66	0.529300	0.431200	0.977600
O671	O67	0.853700	0.153600	0.808000
O681	O68	0.914300	0.173800	0.752000
O691	O69	0.653200	0.317000	0.860300
O701	O70	0.598300	0.306000	0.918300
O711	O71	0.865500	0.812400	0.978500
O721	O72	0.927700	0.792800	0.922700
H941	H94	0.569000	0.397000	0.995000
H951	H95	0.527000	0.623000	0.822000
H961	H96	0.456000	0.357000	0.847000
Co331	Co33	0.000000	0.929440	0.250000
Co341	Co34	0.500000	0.429440	0.250000
Co351	Co35	0.000000	0.070560	0.750000
Co361	Co36	0.500000	0.570560	0.750000
