data_ESUVAR01_clean_PM
_symmetry_space_group_name_H-M	'P1'
_cell_length_a	10.648900
_cell_length_b	10.885700
_cell_length_c	11.078200
_cell_angle_alpha	84.005000
_cell_angle_beta	89.826000
_cell_angle_gamma	63.605000
_symmetry_Int_Tables_number 1

loop_
_symmetry_equiv_pos_as_xyz
'x,y,z'

loop_
_atom_site_label
_atom_site_type_symbol
_atom_site_fract_x
_atom_site_fract_y
_atom_site_fract_z
Co11	Co1	0.097200	0.887900	0.254450
Co21	Co2	0.961400	0.872200	0.000240
Co31	Co3	0.843800	0.027200	0.477580
O11	O1	0.105900	0.917400	0.069500
H11	H1	0.207100	0.872000	0.076200
O21	O2	0.051100	0.895500	0.429300
H21	H2	0.071600	0.808800	0.476300
O31	O3	0.355000	0.887600	0.458600
O41	O4	0.320000	0.800000	0.295300
O51	O5	0.038900	0.671500	0.072500
O61	O6	0.112000	0.693100	0.257400
N11	N1	0.818600	0.927200	0.132600
N21	N2	0.866300	0.959600	0.230000
N31	N3	0.791200	0.957800	0.325800
N41	N4	0.087000	0.169000	0.165700
N51	N5	0.100100	0.078300	0.260800
N61	N6	0.113100	0.119300	0.366500
C11	C1	0.689400	0.923700	0.290600
C21	C2	0.706900	0.904500	0.166700
C31	C3	0.513000	0.852300	0.166900
H31	H3	0.452100	0.829000	0.126000
C41	C4	0.619000	0.867300	0.104500
H41	H4	0.630400	0.852900	0.023100
C51	C5	0.496000	0.871300	0.290800
C61	C6	0.586300	0.904900	0.354100
H51	H5	0.577800	0.914500	0.436500
C71	C7	0.382000	0.851400	0.352800
C81	C8	0.092100	0.278800	0.212400
C91	C9	0.108300	0.246300	0.338700
C101	C10	0.117300	0.335400	0.415100
H61	H6	0.128800	0.313200	0.499000
C111	C11	0.108500	0.458500	0.359900
H71	H7	0.113300	0.521400	0.408100
C121	C12	0.092500	0.491500	0.235000
C131	C13	0.083800	0.402900	0.158100
H81	H8	0.073000	0.425600	0.074200
C141	C14	0.084000	0.628900	0.182600
Co41	Co4	0.902800	0.112100	0.745550
Co51	Co5	0.038600	0.127800	0.999760
Co61	Co6	0.156200	0.972800	0.522420
O71	O7	0.894100	0.082600	0.930500
H91	H9	0.792900	0.128000	0.923800
O81	O8	0.948900	0.104500	0.570700
H101	H10	0.928400	0.191200	0.523700
O91	O9	0.645000	0.112400	0.541400
O101	O10	0.680000	0.200000	0.704700
O111	O11	0.961100	0.328500	0.927500
O121	O12	0.888000	0.306900	0.742600
N71	N7	0.181400	0.072800	0.867400
N81	N8	0.133700	0.040400	0.770000
N91	N9	0.208800	0.042200	0.674200
N101	N10	0.913000	0.831000	0.834300
N111	N11	0.899900	0.921700	0.739200
N121	N12	0.886900	0.880700	0.633500
C151	C15	0.310600	0.076300	0.709400
C161	C16	0.293100	0.095500	0.833300
C171	C17	0.487000	0.147700	0.833100
H111	H11	0.547900	0.171000	0.874000
C181	C18	0.381000	0.132700	0.895500
H121	H12	0.369600	0.147100	0.976900
C191	C19	0.504000	0.128700	0.709200
C201	C20	0.413700	0.095100	0.645900
H131	H13	0.422200	0.085500	0.563500
C211	C21	0.618000	0.148600	0.647200
C221	C22	0.907900	0.721200	0.787600
C231	C23	0.891700	0.753700	0.661300
C241	C24	0.882700	0.664600	0.584900
H141	H14	0.871200	0.686800	0.501000
C251	C25	0.891500	0.541500	0.640100
H151	H15	0.886700	0.478600	0.591900
C261	C26	0.907500	0.508500	0.765000
C271	C27	0.916200	0.597100	0.841900
H161	H16	0.927000	0.574400	0.925800
C281	C28	0.916000	0.371100	0.817400
