data_ESUVOF_clean_PM
_symmetry_space_group_name_H-M	'P1'
_cell_length_a	17.762000
_cell_length_b	12.868000
_cell_length_c	11.232200
_cell_angle_alpha	90.000000
_cell_angle_beta	95.198000
_cell_angle_gamma	90.000000
_symmetry_Int_Tables_number 1

loop_
_symmetry_equiv_pos_as_xyz
'x,y,z'

loop_
_atom_site_label
_atom_site_type_symbol
_atom_site_fract_x
_atom_site_fract_y
_atom_site_fract_z
Co11	Co1	0.579360	0.558080	0.000370
N11	N1	0.873300	0.935200	0.162200
N21	N2	0.909500	0.983600	0.253600
N31	N3	0.876300	0.972200	0.355600
C11	C1	0.811300	0.888900	0.204200
C21	C2	0.815300	0.910300	0.328100
C31	C3	0.760900	0.874500	0.399900
H11	H1	0.762000	0.892100	0.480300
C41	C4	0.703800	0.810200	0.344000
H21	H2	0.669400	0.778900	0.390200
C51	C5	0.697800	0.792100	0.218300
C61	C6	0.752000	0.827200	0.148600
H31	H3	0.750000	0.811000	0.067700
C71	C7	0.635400	0.722800	0.169300
O11	O1	0.637500	0.686600	0.064700
O21	O2	0.582300	0.709700	0.235300
O31	O3	0.481100	0.577300	0.068300
H41	H4	0.446900	0.618100	0.036800
Co21	Co2	0.079360	0.058080	0.000370
N41	N4	0.373300	0.435200	0.162200
N51	N5	0.409500	0.483600	0.253600
N61	N6	0.376300	0.472200	0.355600
C81	C8	0.311300	0.388900	0.204200
C91	C9	0.315300	0.410300	0.328100
C101	C10	0.260900	0.374500	0.399900
H51	H5	0.262000	0.392100	0.480300
C111	C11	0.203800	0.310200	0.344000
H61	H6	0.169400	0.278900	0.390200
C121	C12	0.197800	0.292100	0.218300
C131	C13	0.252000	0.327200	0.148600
H71	H7	0.250000	0.311000	0.067700
C141	C14	0.135400	0.222800	0.169300
O41	O4	0.137500	0.186600	0.064700
O51	O5	0.082300	0.209700	0.235300
O61	O6	0.981100	0.077300	0.068300
H81	H8	0.946900	0.118100	0.036800
Co31	Co3	0.420640	0.558080	0.499630
N71	N7	0.126700	0.935200	0.337800
N81	N8	0.090500	0.983600	0.246400
N91	N9	0.123700	0.972200	0.144400
C151	C15	0.188700	0.888900	0.295800
C161	C16	0.184700	0.910300	0.171900
C171	C17	0.239100	0.874500	0.100100
H91	H9	0.238000	0.892100	0.019700
C181	C18	0.296200	0.810200	0.156000
H101	H10	0.330600	0.778900	0.109800
C191	C19	0.302200	0.792100	0.281700
C201	C20	0.248000	0.827200	0.351400
H111	H11	0.250000	0.811000	0.432300
C211	C21	0.364600	0.722800	0.330700
O71	O7	0.362500	0.686600	0.435300
O81	O8	0.417700	0.709700	0.264700
O91	O9	0.518900	0.577300	0.431700
H121	H12	0.553100	0.618100	0.463200
Co41	Co4	0.920640	0.058080	0.499630
N101	N10	0.626700	0.435200	0.337800
N111	N11	0.590500	0.483600	0.246400
N121	N12	0.623700	0.472200	0.144400
C221	C22	0.688700	0.388900	0.295800
C231	C23	0.684700	0.410300	0.171900
C241	C24	0.739100	0.374500	0.100100
H131	H13	0.738000	0.392100	0.019700
C251	C25	0.796200	0.310200	0.156000
H141	H14	0.830600	0.278900	0.109800
C261	C26	0.802200	0.292100	0.281700
C271	C27	0.748000	0.327200	0.351400
H151	H15	0.750000	0.311000	0.432300
C281	C28	0.864600	0.222800	0.330700
O101	O10	0.862500	0.186600	0.435300
O111	O11	0.917700	0.209700	0.264700
O121	O12	0.018900	0.077300	0.431700
H161	H16	0.053100	0.118100	0.463200
Co51	Co5	0.420640	0.441920	0.999630
N131	N13	0.126700	0.064800	0.837800
N141	N14	0.090500	0.016400	0.746400
N151	N15	0.123700	0.027800	0.644400
C291	C29	0.188700	0.111100	0.795800
C301	C30	0.184700	0.089700	0.671900
C311	C31	0.239100	0.125500	0.600100
H171	H17	0.238000	0.107900	0.519700
C321	C32	0.296200	0.189800	0.656000
H181	H18	0.330600	0.221100	0.609800
C331	C33	0.302200	0.207900	0.781700
C341	C34	0.248000	0.172800	0.851400
H191	H19	0.250000	0.189000	0.932300
C351	C35	0.364600	0.277200	0.830700
O131	O13	0.362500	0.313400	0.935300
O141	O14	0.417700	0.290300	0.764700
O151	O15	0.518900	0.422700	0.931700
H201	H20	0.553100	0.381900	0.963200
Co61	Co6	0.920640	0.941920	0.999630
N161	N16	0.626700	0.564800	0.837800
N171	N17	0.590500	0.516400	0.746400
N181	N18	0.623700	0.527800	0.644400
C361	C36	0.688700	0.611100	0.795800
C371	C37	0.684700	0.589700	0.671900
C381	C38	0.739100	0.625500	0.600100
H211	H21	0.738000	0.607900	0.519700
C391	C39	0.796200	0.689800	0.656000
H221	H22	0.830600	0.721100	0.609800
C401	C40	0.802200	0.707900	0.781700
C411	C41	0.748000	0.672800	0.851400
H231	H23	0.750000	0.689000	0.932300
C421	C42	0.864600	0.777200	0.830700
O161	O16	0.862500	0.813400	0.935300
O171	O17	0.917700	0.790300	0.764700
O181	O18	0.018900	0.922700	0.931700
H241	H24	0.053100	0.881900	0.963200
Co71	Co7	0.579360	0.441920	0.500370
N191	N19	0.873300	0.064800	0.662200
N201	N20	0.909500	0.016400	0.753600
N211	N21	0.876300	0.027800	0.855600
C431	C43	0.811300	0.111100	0.704200
C441	C44	0.815300	0.089700	0.828100
C451	C45	0.760900	0.125500	0.899900
H251	H25	0.762000	0.107900	0.980300
C461	C46	0.703800	0.189800	0.844000
H261	H26	0.669400	0.221100	0.890200
C471	C47	0.697800	0.207900	0.718300
C481	C48	0.752000	0.172800	0.648600
H271	H27	0.750000	0.189000	0.567700
C491	C49	0.635400	0.277200	0.669300
O191	O19	0.637500	0.313400	0.564700
O201	O20	0.582300	0.290300	0.735300
O211	O21	0.481100	0.422700	0.568300
H281	H28	0.446900	0.381900	0.536800
Co81	Co8	0.079360	0.941920	0.500370
N221	N22	0.373300	0.564800	0.662200
N231	N23	0.409500	0.516400	0.753600
N241	N24	0.376300	0.527800	0.855600
C501	C50	0.311300	0.611100	0.704200
C511	C51	0.315300	0.589700	0.828100
C521	C52	0.260900	0.625500	0.899900
H291	H29	0.262000	0.607900	0.980300
C531	C53	0.203800	0.689800	0.844000
H301	H30	0.169400	0.721100	0.890200
C541	C54	0.197800	0.707900	0.718300
C551	C55	0.252000	0.672800	0.648600
H311	H31	0.250000	0.689000	0.567700
C561	C56	0.135400	0.777200	0.669300
O221	O22	0.137500	0.813400	0.564700
O231	O23	0.082300	0.790300	0.735300
O241	O24	0.981100	0.922700	0.568300
H321	H32	0.946900	0.881900	0.536800
Co91	Co9	0.500000	0.594100	0.250000
Co101	Co10	0.000000	0.094100	0.250000
Co111	Co11	0.500000	0.405900	0.750000
Co121	Co12	0.000000	0.905900	0.750000
