data_ETEJOD_clean_PM
_symmetry_space_group_name_H-M	'P1'
_cell_length_a	10.523000
_cell_length_b	11.184000
_cell_length_c	12.700000
_cell_angle_alpha	102.980000
_cell_angle_beta	109.329000
_cell_angle_gamma	97.766000
_symmetry_Int_Tables_number 1

loop_
_symmetry_equiv_pos_as_xyz
'x,y,z'

loop_
_atom_site_label
_atom_site_type_symbol
_atom_site_fract_x
_atom_site_fract_y
_atom_site_fract_z
Nd11	Nd1	0.102330	0.546330	0.681320
O11	O1	0.983000	0.327800	0.588200
O21	O2	0.923000	0.271300	0.394900
O31	O3	0.947200	0.052000	0.289100
H11	H1	0.935500	0.123700	0.293800
O41	O4	0.153200	0.493200	0.507400
O51	O5	0.129700	0.430000	0.324300
O61	O6	0.338200	0.398400	0.267000
H21	H2	0.256300	0.394500	0.256000
O71	O7	0.178500	0.752000	0.849200
O81	O8	0.335500	0.691800	0.783700
O91	O9	0.234200	0.984600	0.991600
H31	H3	0.181900	0.916900	0.949500
O101	O10	0.401600	0.181900	0.112000
H41	H4	0.460000	0.230400	0.172500
C11	C1	0.972700	0.030000	0.394500
C21	C2	0.978000	0.118900	0.494000
C31	C3	0.004000	0.087000	0.596900
H51	H5	0.005900	0.145900	0.662300
C41	C4	0.959900	0.249800	0.493200
C51	C5	0.415500	0.449100	0.382600
C61	C6	0.357200	0.484400	0.465900
C71	C7	0.442800	0.535900	0.581900
H61	H6	0.404200	0.560800	0.637100
C81	C8	0.205700	0.468600	0.432000
C91	C9	0.362000	0.985400	0.990900
C101	C10	0.402600	0.890100	0.926400
C111	C11	0.539900	0.904500	0.935600
C121	C12	0.299100	0.770900	0.848100
Nd21	Nd2	0.897670	0.453670	0.318680
O111	O11	0.017000	0.672200	0.411800
O121	O12	0.077000	0.728700	0.605100
O131	O13	0.052800	0.948000	0.710900
H71	H7	0.064500	0.876300	0.706200
O141	O14	0.846800	0.506800	0.492600
O151	O15	0.870300	0.570000	0.675700
O161	O16	0.661800	0.601600	0.733000
H81	H8	0.743700	0.605500	0.744000
O171	O17	0.821500	0.248000	0.150800
O181	O18	0.664500	0.308200	0.216300
O191	O19	0.765800	0.015400	0.008400
H91	H9	0.818100	0.083100	0.050500
O201	O20	0.598400	0.818100	0.888000
H101	H10	0.540000	0.769600	0.827500
C131	C13	0.027300	0.970000	0.605500
C141	C14	0.022000	0.881100	0.506000
C151	C15	0.996000	0.913000	0.403100
H111	H11	0.994100	0.854100	0.337700
C161	C16	0.040100	0.750200	0.506800
C171	C17	0.584500	0.550900	0.617400
C181	C18	0.642800	0.515600	0.534100
C191	C19	0.557200	0.464100	0.418100
H121	H12	0.595800	0.439200	0.362900
C201	C20	0.794300	0.531400	0.568000
C211	C21	0.638000	0.014600	0.009100
C221	C22	0.597400	0.109900	0.073600
C231	C23	0.460100	0.095500	0.064400
C241	C24	0.700900	0.229100	0.151900
