data_ETEJIX_clean_PM
_symmetry_space_group_name_H-M	'P1'
_cell_length_a	10.534000
_cell_length_b	11.300000
_cell_length_c	12.661000
_cell_angle_alpha	101.901000
_cell_angle_beta	108.730000
_cell_angle_gamma	99.044000
_symmetry_Int_Tables_number 1

loop_
_symmetry_equiv_pos_as_xyz
'x,y,z'

loop_
_atom_site_label
_atom_site_type_symbol
_atom_site_fract_x
_atom_site_fract_y
_atom_site_fract_z
La11	La1	0.896800	0.455600	0.317680
La21	La2	0.103200	0.544400	0.682320
H11	H1	0.073900	0.877500	0.706600
H21	H2	0.738100	0.605800	0.744800
H31	H3	0.814100	0.086700	0.057300
H41	H4	0.985800	0.856500	0.336700
H51	H5	0.599700	0.437700	0.367700
H61	H6	0.926100	0.122500	0.293400
H71	H7	0.261900	0.394200	0.255200
H81	H8	0.185900	0.913300	0.942700
H91	H9	0.014200	0.143500	0.663300
H101	H10	0.400300	0.562300	0.632300
C11	C1	0.031900	0.970100	0.606300
C21	C2	0.022900	0.882700	0.505800
C31	C3	0.991500	0.914700	0.402800
C41	C4	0.041400	0.753700	0.507100
C51	C5	0.582000	0.551100	0.617700
C61	C6	0.643300	0.514400	0.537100
C71	C7	0.559300	0.463200	0.421100
C81	C8	0.793800	0.531100	0.573000
C91	C9	0.637500	0.018000	0.012500
C101	C10	0.593000	0.110600	0.073200
C111	C11	0.454100	0.092200	0.059300
C121	C12	0.695500	0.228900	0.149700
C131	C13	0.968100	0.029900	0.393700
C141	C14	0.977100	0.117300	0.494200
C151	C15	0.008500	0.085300	0.597200
C161	C16	0.958600	0.246300	0.492900
C171	C17	0.418000	0.448900	0.382300
C181	C18	0.356700	0.485600	0.462900
C191	C19	0.440700	0.536800	0.578900
C201	C20	0.206200	0.468900	0.427000
C211	C21	0.362500	0.982000	0.987500
C221	C22	0.407000	0.889400	0.926800
C231	C23	0.545900	0.907800	0.940700
C241	C24	0.304500	0.771100	0.850300
O11	O1	0.016000	0.677200	0.412500
O21	O2	0.081300	0.731200	0.605000
O31	O3	0.062400	0.948300	0.711500
O41	O4	0.849300	0.506500	0.498900
O51	O5	0.867000	0.568700	0.679700
O61	O6	0.655900	0.601200	0.732400
O71	O7	0.814400	0.251500	0.148900
O81	O8	0.655500	0.305900	0.213500
O91	O9	0.762300	0.019600	0.015500
O101	O10	0.984000	0.322800	0.587500
O111	O11	0.918700	0.268800	0.395000
O121	O12	0.937600	0.051700	0.288500
O131	O13	0.150700	0.493500	0.501100
O141	O14	0.133000	0.431300	0.320300
O151	O15	0.344100	0.398800	0.267600
O161	O16	0.185600	0.748500	0.851100
O171	O17	0.344500	0.694100	0.786500
O181	O18	0.237700	0.980400	0.984500
