data_ETEJUJ_clean_PM
_symmetry_space_group_name_H-M	'P1'
_cell_length_a	10.515200
_cell_length_b	11.105800
_cell_length_c	12.739600
_cell_angle_alpha	103.891000
_cell_angle_beta	109.709000
_cell_angle_gamma	96.684000
_symmetry_Int_Tables_number 1

loop_
_symmetry_equiv_pos_as_xyz
'x,y,z'

loop_
_atom_site_label
_atom_site_type_symbol
_atom_site_fract_x
_atom_site_fract_y
_atom_site_fract_z
Sm11	Sm1	0.897930	0.452230	0.318450
Sm21	Sm2	0.102070	0.547770	0.681550
H11	H1	0.059700	0.876400	0.705000
H21	H2	0.747500	0.606100	0.743200
H31	H3	0.815400	0.080900	0.045700
H41	H4	0.995800	0.851400	0.337400
H51	H5	0.591600	0.440000	0.359300
H61	H6	0.440100	0.162800	0.113300
H71	H7	0.940300	0.123600	0.295000
H81	H8	0.252500	0.393900	0.256800
H91	H9	0.184600	0.919100	0.954300
H101	H10	0.004200	0.148600	0.662600
H111	H11	0.408400	0.560000	0.640700
H121	H12	0.559900	0.837200	0.886700
C11	C1	0.024200	0.970700	0.605400
C21	C2	0.021800	0.879700	0.506500
C31	C3	0.997500	0.911700	0.402900
C41	C4	0.039700	0.748100	0.507700
C51	C5	0.586600	0.551500	0.617600
C61	C6	0.643200	0.515600	0.532300
C71	C7	0.554600	0.464300	0.416000
C81	C8	0.794200	0.532200	0.564400
C91	C9	0.636000	0.011200	0.004800
C101	C10	0.600000	0.109000	0.073400
C111	C11	0.463900	0.097300	0.067900
C121	C12	0.704300	0.227800	0.152200
C131	C13	0.975800	0.029300	0.394600
C141	C14	0.978200	0.120300	0.493500
C151	C15	0.002500	0.088300	0.597100
C161	C16	0.960300	0.251900	0.492300
C171	C17	0.413400	0.448500	0.382400
C181	C18	0.356800	0.484400	0.467700
C191	C19	0.445400	0.535700	0.584000
C201	C20	0.205800	0.467800	0.435600
C211	C21	0.364000	0.988800	0.995200
C221	C22	0.400000	0.891000	0.926600
C231	C23	0.536100	0.902700	0.932100
C241	C24	0.295700	0.772200	0.847800
O11	O1	0.017100	0.667900	0.412200
O21	O2	0.074100	0.726700	0.605500
O31	O3	0.047800	0.948900	0.710000
O41	O4	0.843500	0.507400	0.487200
O51	O5	0.872300	0.571500	0.671900
O61	O6	0.665700	0.602600	0.733100
O71	O7	0.824100	0.244300	0.150600
O81	O8	0.669500	0.310200	0.217400
O91	O9	0.763800	0.012700	0.002900
O101	O10	0.982900	0.332100	0.587800
O111	O11	0.925900	0.273300	0.394500
O121	O12	0.952200	0.051100	0.290000
O131	O13	0.156500	0.492600	0.512800
O141	O14	0.127700	0.428500	0.328100
O151	O15	0.334300	0.397400	0.266900
O161	O16	0.175900	0.755700	0.849400
O171	O17	0.330500	0.689800	0.782600
O181	O18	0.236200	0.987300	0.997100
