data_ETEKAQ01_manual_PM
_symmetry_space_group_name_H-M	'P1'
_cell_length_a	10.414000
_cell_length_b	10.954000
_cell_length_c	12.432000
_cell_angle_alpha	104.286000
_cell_angle_beta	106.961000
_cell_angle_gamma	98.027000
_symmetry_Int_Tables_number 1

loop_
_symmetry_equiv_pos_as_xyz
'x,y,z'

loop_
_atom_site_label
_atom_site_type_symbol
_atom_site_fract_x
_atom_site_fract_y
_atom_site_fract_z
Gd11	Gd1	0.893520	0.924230	0.806210
Gd21	Gd2	0.094330	0.066870	0.194360
H11	H1	0.304590	0.506160	0.191190
H21	H2	0.612380	0.050580	0.861560
H31	H3	0.782310	0.318280	0.883230
H41	H4	0.576220	0.921020	0.245950
H51	H5	0.740620	0.638430	0.902020
H61	H6	0.373960	0.961420	0.135930
H71	H7	0.198790	0.663030	0.133890
H81	H8	0.287760	0.134930	0.816500
C11	C1	0.634000	0.510930	0.487210
C21	C2	0.466300	0.586260	0.572660
C31	C3	0.705770	0.719090	0.659030
C41	C4	0.564440	0.971310	0.097130
C51	C5	0.560930	0.028860	0.921050
C61	C6	0.987890	0.215480	0.992060
C71	C7	0.990570	0.357230	0.004440
C81	C8	0.107720	0.457840	0.076610
C91	C9	0.874610	0.392320	0.938110
C101	C10	0.785790	0.996380	0.047650
C111	C11	0.633480	0.992960	0.018070
C121	C12	0.601530	0.604570	0.570950
C131	C13	0.364590	0.477070	0.494830
C141	C14	0.533630	0.399430	0.413260
C151	C15	0.291990	0.268260	0.330510
C161	C16	0.425250	0.046400	0.903380
C171	C17	0.426250	0.984110	0.077300
C181	C18	0.999310	0.762200	0.013910
C191	C19	0.991720	0.622590	0.011620
C201	C20	0.872820	0.521830	0.941950
C211	C21	0.106940	0.588150	0.079750
C221	C22	0.200870	0.015290	0.950510
C231	C23	0.353910	0.021270	0.980790
C241	C24	0.398570	0.382490	0.414620
O11	O1	0.863640	0.036750	0.153890
O21	O2	0.850280	0.972460	0.975120
O31	O3	0.894550	0.130570	0.903100
O41	O4	0.086940	0.181130	0.059240
O51	O5	0.834980	0.727250	0.683170
O61	O6	0.674520	0.817920	0.717440
O71	O7	0.226220	0.427960	0.142380
O81	O8	0.633310	0.934670	0.194590
O91	O9	0.761730	0.526450	0.470600
O101	O10	0.123890	0.978590	0.843920
O111	O11	0.133470	0.035350	0.022020
O121	O12	0.064390	0.850270	0.113450
O131	O13	0.941970	0.785150	0.916070
O141	O14	0.164790	0.271590	0.297740
O151	O15	0.317420	0.158840	0.286420
O161	O16	0.748810	0.545500	0.878350
O171	O17	0.367300	0.093700	0.809940
O181	O18	0.230510	0.460330	0.498830
H91	H9	0.439660	0.656600	0.635750
H101	H10	0.559920	0.328620	0.350260
H111	H11	0.810540	0.619500	0.489290
H121	H12	0.216820	0.533240	0.559720
