data_ETEKAQ_clean_PM
_symmetry_space_group_name_H-M	'P1'
_cell_length_a	10.522600
_cell_length_b	11.054500
_cell_length_c	12.771100
_cell_angle_alpha	103.826000
_cell_angle_beta	110.024000
_cell_angle_gamma	96.602000
_symmetry_Int_Tables_number 1

loop_
_symmetry_equiv_pos_as_xyz
'x,y,z'

loop_
_atom_site_label
_atom_site_type_symbol
_atom_site_fract_x
_atom_site_fract_y
_atom_site_fract_z
Gd11	Gd1	0.896960	0.452170	0.318320
Gd21	Gd2	0.103040	0.547830	0.681680
H11	H1	0.056900	0.874300	0.703200
H21	H2	0.751700	0.604600	0.742200
H31	H3	0.816000	0.083500	0.046700
H41	H4	0.998200	0.851300	0.339300
H51	H5	0.588200	0.440700	0.357600
H61	H6	0.441000	0.162800	0.113800
H71	H7	0.943100	0.125700	0.296800
H81	H8	0.248300	0.395400	0.257800
H91	H9	0.184000	0.916500	0.953300
H101	H10	0.001800	0.148700	0.660700
H111	H11	0.411800	0.559300	0.642400
H121	H12	0.559000	0.837200	0.886200
C11	C1	0.023500	0.970100	0.605200
C21	C2	0.021800	0.878800	0.506600
C31	C3	0.998700	0.911600	0.404200
C41	C4	0.038600	0.746400	0.507200
C51	C5	0.589000	0.550800	0.617500
C61	C6	0.642700	0.515400	0.530700
C71	C7	0.552500	0.464800	0.414900
C81	C8	0.793700	0.531300	0.561100
C91	C9	0.635900	0.011600	0.004900
C101	C10	0.599900	0.109100	0.073600
C111	C11	0.464500	0.097200	0.068100
C121	C12	0.704700	0.228400	0.153300
C131	C13	0.976500	0.029900	0.394800
C141	C14	0.978200	0.121200	0.493400
C151	C15	0.001300	0.088400	0.595800
C161	C16	0.961400	0.253600	0.492800
C171	C17	0.411000	0.449200	0.382500
C181	C18	0.357300	0.484600	0.469300
C191	C19	0.447500	0.535200	0.585100
C201	C20	0.206300	0.468700	0.438900
C211	C21	0.364100	0.988400	0.995100
C221	C22	0.400100	0.890900	0.926400
C231	C23	0.535500	0.902800	0.931900
C241	C24	0.295300	0.771600	0.846700
O11	O1	0.016600	0.666300	0.412400
O21	O2	0.073100	0.725500	0.605700
O31	O3	0.045000	0.947200	0.708300
O41	O4	0.841000	0.506300	0.482400
O51	O5	0.874400	0.570000	0.668300
O61	O6	0.670200	0.601500	0.733000
O71	O7	0.824500	0.245600	0.151600
O81	O8	0.670700	0.310100	0.219300
O91	O9	0.764900	0.014800	0.003600
O101	O10	0.983400	0.333700	0.587600
O111	O11	0.926900	0.274500	0.394300
O121	O12	0.955000	0.052800	0.291700
O131	O13	0.159000	0.493700	0.517600
O141	O14	0.125600	0.430000	0.331700
O151	O15	0.329800	0.398500	0.267000
O161	O16	0.175500	0.754400	0.848400
O171	O17	0.329300	0.689900	0.780700
O181	O18	0.235100	0.985200	0.996400
