data_ETEMIB_clean_PM
_symmetry_space_group_name_H-M	'P1'
_cell_length_a	10.184500
_cell_length_b	20.874700
_cell_length_c	10.707000
_cell_angle_alpha	90.000000
_cell_angle_beta	101.876000
_cell_angle_gamma	90.000000
_symmetry_Int_Tables_number 1

loop_
_symmetry_equiv_pos_as_xyz
'x,y,z'

loop_
_atom_site_label
_atom_site_type_symbol
_atom_site_fract_x
_atom_site_fract_y
_atom_site_fract_z
Co11	Co1	0.914620	0.449350	0.559780
Co21	Co2	0.077060	0.385940	0.364180
O11	O1	0.947090	0.354480	0.613100
O21	O2	0.109130	0.318660	0.514900
O31	O3	0.683450	0.167200	0.748300
O41	O4	0.805390	0.099670	0.877600
O51	O5	0.292050	0.079020	0.882300
O61	O6	0.396390	0.159090	0.805000
O71	O7	0.093790	0.456030	0.492900
H11	H1	0.161000	0.453800	0.558000
N11	N1	0.010600	0.480160	0.745400
N21	N2	0.998800	0.543600	0.779700
N31	N3	0.133900	0.494840	0.935500
C11	C1	0.374200	0.491940	0.029000
C21	C2	0.426900	0.552210	0.023700
H21	H2	0.377300	0.588100	0.040000
C31	C3	0.448100	0.439300	0.005400
H31	H3	0.413400	0.397800	0.009100
C41	C4	0.234900	0.483400	0.053900
H41	H4	0.224800	0.439900	0.084700
H51	H5	0.220700	0.513600	0.120000
C51	C5	0.091500	0.452510	0.840400
H61	H6	0.116800	0.409200	0.842300
C61	C6	0.074400	0.550830	0.893600
H71	H7	0.085700	0.589500	0.939500
C71	C7	0.032600	0.250890	0.661100
C81	C8	0.916500	0.226380	0.693100
H81	H8	0.834600	0.248200	0.667700
C91	C9	0.921500	0.170010	0.762300
C101	C10	0.042700	0.139110	0.803100
H91	H9	0.046300	0.101700	0.852600
C111	C11	0.160200	0.162870	0.771800
C121	C12	0.153300	0.217920	0.698600
H101	H10	0.230900	0.233200	0.673800
C131	C13	0.029500	0.312790	0.589600
C141	C14	0.796400	0.143960	0.798200
C151	C15	0.292200	0.131130	0.823300
Co31	Co3	0.585380	0.949350	0.940220
Co41	Co4	0.422940	0.885940	0.135820
O81	O8	0.552910	0.854480	0.886900
O91	O9	0.390870	0.818660	0.985100
O101	O10	0.816550	0.667200	0.751700
O111	O11	0.694610	0.599670	0.622400
O121	O12	0.207950	0.579020	0.617700
O131	O13	0.103610	0.659090	0.695000
O141	O14	0.406210	0.956030	0.007100
H111	H11	0.339000	0.953800	0.942000
N41	N4	0.489400	0.980160	0.754600
N51	N5	0.501200	0.043600	0.720300
N61	N6	0.366100	0.994840	0.564500
C161	C16	0.125800	0.991940	0.471000
C171	C17	0.073100	0.052210	0.476300
H121	H12	0.122700	0.088100	0.460000
C181	C18	0.051900	0.939300	0.494600
H131	H13	0.086600	0.897800	0.490900
C191	C19	0.265100	0.983400	0.446100
H141	H14	0.275200	0.939900	0.415300
H151	H15	0.279300	0.013600	0.380000
C201	C20	0.408500	0.952510	0.659600
H161	H16	0.383200	0.909200	0.657700
C211	C21	0.425600	0.050830	0.606400
H171	H17	0.414300	0.089500	0.560500
C221	C22	0.467400	0.750890	0.838900
C231	C23	0.583500	0.726380	0.806900
H181	H18	0.665400	0.748200	0.832300
C241	C24	0.578500	0.670010	0.737700
C251	C25	0.457300	0.639110	0.696900
H191	H19	0.453700	0.601700	0.647400
C261	C26	0.339800	0.662870	0.728200
C271	C27	0.346700	0.717920	0.801400
H201	H20	0.269100	0.733200	0.826200
C281	C28	0.470500	0.812790	0.910400
C291	C29	0.703600	0.643960	0.701800
C301	C30	0.207800	0.631130	0.676700
Co51	Co5	0.085380	0.550650	0.440220
Co61	Co6	0.922940	0.614060	0.635820
O151	O15	0.052910	0.645520	0.386900
O161	O16	0.890870	0.681340	0.485100
O171	O17	0.316550	0.832800	0.251700
O181	O18	0.194610	0.900330	0.122400
O191	O19	0.707950	0.920980	0.117700
O201	O20	0.603610	0.840910	0.195000
O211	O21	0.906210	0.543970	0.507100
H211	H21	0.839000	0.546200	0.442000
N71	N7	0.989400	0.519840	0.254600
N81	N8	0.001200	0.456400	0.220300
N91	N9	0.866100	0.505160	0.064500
C311	C31	0.625800	0.508060	0.971000
C321	C32	0.573100	0.447790	0.976300
H221	H22	0.622700	0.411900	0.960000
C331	C33	0.551900	0.560700	0.994600
H231	H23	0.586600	0.602200	0.990900
C341	C34	0.765100	0.516600	0.946100
H241	H24	0.775200	0.560100	0.915300
H251	H25	0.779300	0.486400	0.880000
C351	C35	0.908500	0.547490	0.159600
H261	H26	0.883200	0.590800	0.157700
C361	C36	0.925600	0.449170	0.106400
H271	H27	0.914300	0.410500	0.060500
C371	C37	0.967400	0.749110	0.338900
C381	C38	0.083500	0.773620	0.306900
H281	H28	0.165400	0.751800	0.332300
C391	C39	0.078500	0.829990	0.237700
C401	C40	0.957300	0.860890	0.196900
H291	H29	0.953700	0.898300	0.147400
C411	C41	0.839800	0.837130	0.228200
C421	C42	0.846700	0.782080	0.301400
H301	H30	0.769100	0.766800	0.326200
C431	C43	0.970500	0.687210	0.410400
C441	C44	0.203600	0.856040	0.201800
C451	C45	0.707800	0.868870	0.176700
Co71	Co7	0.414620	0.050650	0.059780
Co81	Co8	0.577060	0.114060	0.864180
O221	O22	0.447090	0.145520	0.113100
O231	O23	0.609130	0.181340	0.014900
O241	O24	0.183450	0.332800	0.248300
O251	O25	0.305390	0.400330	0.377600
O261	O26	0.792050	0.420980	0.382300
O271	O27	0.896390	0.340910	0.305000
O281	O28	0.593790	0.043970	0.992900
H311	H31	0.661000	0.046200	0.058000
N101	N10	0.510600	0.019840	0.245400
N111	N11	0.498800	0.956400	0.279700
N121	N12	0.633900	0.005160	0.435500
C461	C46	0.874200	0.008060	0.529000
C471	C47	0.926900	0.947790	0.523700
H321	H32	0.877300	0.911900	0.540000
C481	C48	0.948100	0.060700	0.505400
H331	H33	0.913400	0.102200	0.509100
C491	C49	0.734900	0.016600	0.553900
H341	H34	0.724800	0.060100	0.584700
H351	H35	0.720700	0.986400	0.620000
C501	C50	0.591500	0.047490	0.340400
H361	H36	0.616800	0.090800	0.342300
C511	C51	0.574400	0.949170	0.393600
H371	H37	0.585700	0.910500	0.439500
C521	C52	0.532600	0.249110	0.161100
C531	C53	0.416500	0.273620	0.193100
H381	H38	0.334600	0.251800	0.167700
C541	C54	0.421500	0.329990	0.262300
C551	C55	0.542700	0.360890	0.303100
H391	H39	0.546300	0.398300	0.352600
C561	C56	0.660200	0.337130	0.271800
C571	C57	0.653300	0.282080	0.198600
H401	H40	0.730900	0.266800	0.173800
C581	C58	0.529500	0.187210	0.089600
C591	C59	0.296400	0.356040	0.298200
C601	C60	0.792200	0.368870	0.323300
