data_ETEXEI01_clean_PM
_symmetry_space_group_name_H-M	'P1'
_cell_length_a	10.513000
_cell_length_b	15.617000
_cell_length_c	13.895000
_cell_angle_alpha	90.000000
_cell_angle_beta	97.014000
_cell_angle_gamma	90.000000
_symmetry_Int_Tables_number 1

loop_
_symmetry_equiv_pos_as_xyz
'x,y,z'

loop_
_atom_site_label
_atom_site_type_symbol
_atom_site_fract_x
_atom_site_fract_y
_atom_site_fract_z
Zn11	Zn1	0.033260	0.085500	0.390170
O11	O1	0.122300	0.106520	0.519850
O21	O2	0.172600	0.110980	0.312180
O31	O3	0.872000	0.144050	0.365870
O41	O4	0.028200	0.962040	0.372950
P11	P1	0.070530	0.106940	0.617670
P21	P2	0.207930	0.165570	0.229020
O51	O5	0.020800	0.195560	0.638310
H11	H1	0.169800	0.088400	0.683500
H21	H2	0.181600	0.242300	0.247000
O61	O6	0.351100	0.159880	0.221710
Zn21	Zn2	0.533260	0.585500	0.390170
O71	O7	0.622300	0.606520	0.519850
O81	O8	0.672600	0.610980	0.312180
O91	O9	0.372000	0.644050	0.365870
O101	O10	0.528200	0.462040	0.372950
P31	P3	0.570530	0.606940	0.617670
P41	P4	0.707930	0.665570	0.229020
O111	O11	0.520800	0.695560	0.638310
H31	H3	0.669800	0.588400	0.683500
H41	H4	0.681600	0.742300	0.247000
O121	O12	0.851100	0.659880	0.221710
Zn31	Zn3	0.966740	0.085500	0.109830
O131	O13	0.877700	0.106520	0.980150
O141	O14	0.827400	0.110980	0.187820
O151	O15	0.128000	0.144050	0.134130
O161	O16	0.971800	0.962040	0.127050
P51	P5	0.929470	0.106940	0.882330
P61	P6	0.792070	0.165570	0.270980
O171	O17	0.979200	0.195560	0.861690
H51	H5	0.830200	0.088400	0.816500
H61	H6	0.818400	0.242300	0.253000
O181	O18	0.648900	0.159880	0.278290
Zn41	Zn4	0.466740	0.585500	0.109830
O191	O19	0.377700	0.606520	0.980150
O201	O20	0.327400	0.610980	0.187820
O211	O21	0.628000	0.644050	0.134130
O221	O22	0.471800	0.462040	0.127050
P71	P7	0.429470	0.606940	0.882330
P81	P8	0.292070	0.665570	0.270980
O231	O23	0.479200	0.695560	0.861690
H71	H7	0.330200	0.588400	0.816500
H81	H8	0.318400	0.742300	0.253000
O241	O24	0.148900	0.659880	0.278290
Zn51	Zn5	0.966740	0.914500	0.609830
O251	O25	0.877700	0.893480	0.480150
O261	O26	0.827400	0.889020	0.687820
O271	O27	0.128000	0.855950	0.634130
O281	O28	0.971800	0.037960	0.627050
P91	P9	0.929470	0.893060	0.382330
P101	P10	0.792070	0.834430	0.770980
O291	O29	0.979200	0.804440	0.361690
H91	H9	0.830200	0.911600	0.316500
H101	H10	0.818400	0.757700	0.753000
O301	O30	0.648900	0.840120	0.778290
Zn61	Zn6	0.466740	0.414500	0.609830
O311	O31	0.377700	0.393480	0.480150
O321	O32	0.327400	0.389020	0.687820
O331	O33	0.628000	0.355950	0.634130
O341	O34	0.471800	0.537960	0.627050
P111	P11	0.429470	0.393060	0.382330
P121	P12	0.292070	0.334430	0.770980
O351	O35	0.479200	0.304440	0.361690
H111	H11	0.330200	0.411600	0.316500
H121	H12	0.318400	0.257700	0.753000
O361	O36	0.148900	0.340120	0.778290
Zn71	Zn7	0.033260	0.914500	0.890170
O371	O37	0.122300	0.893480	0.019850
O381	O38	0.172600	0.889020	0.812180
O391	O39	0.872000	0.855950	0.865870
O401	O40	0.028200	0.037960	0.872950
P131	P13	0.070530	0.893060	0.117670
P141	P14	0.207930	0.834430	0.729020
O411	O41	0.020800	0.804440	0.138310
H131	H13	0.169800	0.911600	0.183500
H141	H14	0.181600	0.757700	0.747000
O421	O42	0.351100	0.840120	0.721710
Zn81	Zn8	0.533260	0.414500	0.890170
O431	O43	0.622300	0.393480	0.019850
O441	O44	0.672600	0.389020	0.812180
O451	O45	0.372000	0.355950	0.865870
O461	O46	0.528200	0.537960	0.872950
P151	P15	0.570530	0.393060	0.117670
P161	P16	0.707930	0.334430	0.729020
O471	O47	0.520800	0.304440	0.138310
H151	H15	0.669800	0.411600	0.183500
H161	H16	0.681600	0.257700	0.747000
O481	O48	0.851100	0.340120	0.721710
Zn91	Zn9	0.000000	0.266130	0.750000
Zn101	Zn10	0.500000	0.766130	0.750000
Zn111	Zn11	0.000000	0.733870	0.250000
Zn121	Zn12	0.500000	0.233870	0.250000
