data_ETUXEW_clean_PM
_symmetry_space_group_name_H-M	'P1'
_cell_length_a	12.797500
_cell_length_b	10.218200
_cell_length_c	14.830500
_cell_angle_alpha	90.000000
_cell_angle_beta	90.000000
_cell_angle_gamma	90.000000
_symmetry_Int_Tables_number 1

loop_
_symmetry_equiv_pos_as_xyz
'x,y,z'

loop_
_atom_site_label
_atom_site_type_symbol
_atom_site_fract_x
_atom_site_fract_y
_atom_site_fract_z
Zn11	Zn1	0.661600	0.496410	0.062420
P11	P1	0.430090	0.528470	0.131440
H11	H1	0.401800	0.593000	0.204300
P21	P2	0.704180	0.213150	0.151500
H21	H2	0.774600	0.177000	0.210400
O11	O1	0.537850	0.580140	0.108650
O21	O2	0.717880	0.358340	0.137680
O31	O3	0.349100	0.564000	0.060680
O41	O4	0.727340	0.132150	0.066930
O51	O5	0.429370	0.384400	0.154360
O61	O6	0.598340	0.175000	0.189610
Zn21	Zn2	0.838400	0.003590	0.562420
P31	P3	0.069910	0.971530	0.631440
H31	H3	0.098200	0.907000	0.704300
P41	P4	0.795820	0.286850	0.651500
H41	H4	0.725400	0.323000	0.710400
O71	O7	0.962150	0.919860	0.608650
O81	O8	0.782120	0.141660	0.637680
O91	O9	0.150900	0.936000	0.560680
O101	O10	0.772660	0.367850	0.566930
O111	O11	0.070630	0.115600	0.654360
O121	O12	0.901660	0.325000	0.689610
Zn31	Zn3	0.338400	0.496410	0.437580
P51	P5	0.569910	0.528470	0.368560
H51	H5	0.598200	0.593000	0.295700
P61	P6	0.295820	0.213150	0.348500
H61	H6	0.225400	0.177000	0.289600
O131	O13	0.462150	0.580140	0.391350
O141	O14	0.282120	0.358340	0.362320
O151	O15	0.650900	0.564000	0.439320
O161	O16	0.272660	0.132150	0.433070
O171	O17	0.570630	0.384400	0.345640
O181	O18	0.401660	0.175000	0.310390
Zn41	Zn4	0.161600	0.003590	0.937580
P71	P7	0.930090	0.971530	0.868560
H71	H7	0.901800	0.907000	0.795700
P81	P8	0.204180	0.286850	0.848500
H81	H8	0.274600	0.323000	0.789600
O191	O19	0.037850	0.919860	0.891350
O201	O20	0.217880	0.141660	0.862320
O211	O21	0.849100	0.936000	0.939320
O221	O22	0.227340	0.367850	0.933070
O231	O23	0.929370	0.115600	0.845640
O241	O24	0.098340	0.325000	0.810390
Zn51	Zn5	0.338400	0.503590	0.937580
P91	P9	0.569910	0.471530	0.868560
H91	H9	0.598200	0.407000	0.795700
P101	P10	0.295820	0.786850	0.848500
H101	H10	0.225400	0.823000	0.789600
O251	O25	0.462150	0.419860	0.891350
O261	O26	0.282120	0.641660	0.862320
O271	O27	0.650900	0.436000	0.939320
O281	O28	0.272660	0.867850	0.933070
O291	O29	0.570630	0.615600	0.845640
O301	O30	0.401660	0.825000	0.810390
Zn61	Zn6	0.161600	0.996410	0.437580
P111	P11	0.930090	0.028470	0.368560
H111	H11	0.901800	0.093000	0.295700
P121	P12	0.204180	0.713150	0.348500
H121	H12	0.274600	0.677000	0.289600
O311	O31	0.037850	0.080140	0.391350
O321	O32	0.217880	0.858340	0.362320
O331	O33	0.849100	0.064000	0.439320
O341	O34	0.227340	0.632150	0.433070
O351	O35	0.929370	0.884400	0.345640
O361	O36	0.098340	0.675000	0.310390
Zn71	Zn7	0.661600	0.503590	0.562420
P131	P13	0.430090	0.471530	0.631440
H131	H13	0.401800	0.407000	0.704300
P141	P14	0.704180	0.786850	0.651500
H141	H14	0.774600	0.823000	0.710400
O371	O37	0.537850	0.419860	0.608650
O381	O38	0.717880	0.641660	0.637680
O391	O39	0.349100	0.436000	0.560680
O401	O40	0.727340	0.867850	0.566930
O411	O41	0.429370	0.615600	0.654360
O421	O42	0.598340	0.825000	0.689610
Zn81	Zn8	0.838400	0.996410	0.062420
P151	P15	0.069910	0.028470	0.131440
H151	H15	0.098200	0.093000	0.204300
P161	P16	0.795820	0.713150	0.151500
H161	H16	0.725400	0.677000	0.210400
O431	O43	0.962150	0.080140	0.108650
O441	O44	0.782120	0.858340	0.137680
O451	O45	0.150900	0.064000	0.060680
O461	O46	0.772660	0.632150	0.066930
O471	O47	0.070630	0.884400	0.154360
O481	O48	0.901660	0.675000	0.189610
Zn91	Zn9	0.500000	0.291150	0.250000
Zn101	Zn10	0.000000	0.208850	0.750000
Zn111	Zn11	0.500000	0.708850	0.750000
Zn121	Zn12	0.000000	0.791150	0.250000
