data_EVOMOR_clean_PM
_symmetry_space_group_name_H-M	'P1'
_cell_length_a	8.864700
_cell_length_b	11.707000
_cell_length_c	17.882400
_cell_angle_alpha	90.000000
_cell_angle_beta	90.000000
_cell_angle_gamma	99.713000
_symmetry_Int_Tables_number 1

loop_
_symmetry_equiv_pos_as_xyz
'x,y,z'

loop_
_atom_site_label
_atom_site_type_symbol
_atom_site_fract_x
_atom_site_fract_y
_atom_site_fract_z
Mn11	Mn1	0.794010	0.381200	0.170080
Mn21	Mn2	0.705990	0.618800	0.670080
Mn31	Mn3	0.205990	0.618800	0.829920
Mn41	Mn4	0.294010	0.381200	0.329920
H11	H1	0.981700	0.186100	0.235400
H21	H2	0.983400	0.992400	0.236800
H31	H3	0.616300	0.948100	0.107100
H41	H4	0.624400	0.143500	0.107700
H51	H5	0.957600	0.811500	0.250400
H61	H6	0.951300	0.615500	0.246600
H71	H7	0.637800	0.579500	0.092500
H81	H8	0.635800	0.774300	0.091800
H91	H9	0.716900	0.385900	0.882100
H101	H10	0.884000	0.400300	0.913800
H111	H11	0.884400	0.591000	0.943300
H121	H12	0.707900	0.578700	0.928100
H131	H13	0.518300	0.813900	0.735400
H141	H14	0.516600	0.007600	0.736800
H151	H15	0.883700	0.051900	0.607100
H161	H16	0.875600	0.856500	0.607700
H171	H17	0.542400	0.188500	0.750400
H181	H18	0.548700	0.384500	0.746600
H191	H19	0.862200	0.420500	0.592500
H201	H20	0.864200	0.225700	0.591800
H211	H21	0.783100	0.614100	0.382100
H221	H22	0.616000	0.599700	0.413800
H231	H23	0.615600	0.409000	0.443300
H241	H24	0.792100	0.421300	0.428100
H251	H25	0.018300	0.813900	0.764600
H261	H26	0.016600	0.007600	0.763200
H271	H27	0.383700	0.051900	0.892900
H281	H28	0.375600	0.856500	0.892300
H291	H29	0.042400	0.188500	0.749600
H301	H30	0.048700	0.384500	0.753400
H311	H31	0.362200	0.420500	0.907500
H321	H32	0.364200	0.225700	0.908200
H331	H33	0.283100	0.614100	0.117900
H341	H34	0.116000	0.599700	0.086200
H351	H35	0.115600	0.409000	0.056700
H361	H36	0.292100	0.421300	0.071900
H371	H37	0.481700	0.186100	0.264600
H381	H38	0.483400	0.992400	0.263200
H391	H39	0.116300	0.948100	0.392900
H401	H40	0.124400	0.143500	0.392300
H411	H41	0.457600	0.811500	0.249600
H421	H42	0.451300	0.615500	0.253400
H431	H43	0.137800	0.579500	0.407500
H441	H44	0.135800	0.774300	0.408200
H451	H45	0.216900	0.385900	0.617900
H461	H46	0.384000	0.400300	0.586200
H471	H47	0.384400	0.591000	0.556700
H481	H48	0.207900	0.578700	0.571900
C11	C1	0.906100	0.137600	0.209100
C21	C2	0.907800	0.020900	0.210000
C31	C3	0.799300	0.945200	0.171900
C41	C4	0.692900	0.994900	0.133900
C51	C5	0.697700	0.113000	0.134900
C61	C6	0.797400	0.818000	0.171100
C71	C7	0.891400	0.766400	0.217500
C81	C8	0.886800	0.647900	0.214900
C91	C9	0.703300	0.626700	0.124700
C101	C10	0.701500	0.744200	0.124000
C111	C11	0.721700	0.383000	0.996900
C121	C12	0.784800	0.423400	0.920600
C131	C13	0.801400	0.553400	0.911900
C141	C14	0.833500	0.588200	0.831800
C151	C15	0.593900	0.862400	0.709100
C161	C16	0.592200	0.979100	0.710000
C171	C17	0.700700	0.054800	0.671900
C181	C18	0.807100	0.005100	0.633900
C191	C19	0.802300	0.887000	0.634900
C201	C20	0.702600	0.182000	0.671100
C211	C21	0.608600	0.233600	0.717500
C221	C22	0.613200	0.352100	0.714900
C231	C23	0.796700	0.373300	0.624700
C241	C24	0.798500	0.255800	0.624000
C251	C25	0.778300	0.617000	0.496900
C261	C26	0.715200	0.576600	0.420600
C271	C27	0.698600	0.446600	0.411900
C281	C28	0.666500	0.411800	0.331800
C291	C29	0.093900	0.862400	0.790900
C301	C30	0.092200	0.979100	0.790000
C311	C31	0.200700	0.054800	0.828100
C321	C32	0.307100	0.005100	0.866100
C331	C33	0.302300	0.887000	0.865100
C341	C34	0.202600	0.182000	0.828900
C351	C35	0.108600	0.233600	0.782500
C361	C36	0.113200	0.352100	0.785100
C371	C37	0.296700	0.373300	0.875300
C381	C38	0.298500	0.255800	0.876000
C391	C39	0.278300	0.617000	0.003100
C401	C40	0.215200	0.576600	0.079400
C411	C41	0.198600	0.446600	0.088100
C421	C42	0.166500	0.411800	0.168200
C431	C43	0.406100	0.137600	0.290900
C441	C44	0.407800	0.020900	0.290000
C451	C45	0.299300	0.945200	0.328100
C461	C46	0.192900	0.994900	0.366100
C471	C47	0.197700	0.113000	0.365100
C481	C48	0.297400	0.818000	0.328900
C491	C49	0.391400	0.766400	0.282500
C501	C50	0.386800	0.647900	0.285100
C511	C51	0.203300	0.626700	0.375300
C521	C52	0.201500	0.744200	0.376000
C531	C53	0.221700	0.383000	0.503100
C541	C54	0.284800	0.423400	0.579400
C551	C55	0.301400	0.553400	0.588100
C561	C56	0.333500	0.588200	0.668200
N11	N1	0.801200	0.185300	0.172400
N21	N2	0.794700	0.577300	0.169400
N31	N3	0.698800	0.814700	0.672400
N41	N4	0.705300	0.422700	0.669400
N51	N5	0.198800	0.814700	0.827600
N61	N6	0.205300	0.422700	0.830600
N71	N7	0.301200	0.185300	0.327600
N81	N8	0.294700	0.577300	0.330600
O11	O1	0.815400	0.385400	0.049490
O21	O2	0.581900	0.351100	0.002600
O31	O3	0.965400	0.588000	0.805970
O41	O4	0.725400	0.612400	0.792330
O51	O5	0.684600	0.614600	0.549490
O61	O6	0.918100	0.648900	0.502600
O71	O7	0.534600	0.412000	0.305970
O81	O8	0.774600	0.387600	0.292330
O91	O9	0.184600	0.614600	0.950510
O101	O10	0.418100	0.648900	0.997400
O111	O11	0.034600	0.412000	0.194030
O121	O12	0.274600	0.387600	0.207670
O131	O13	0.315400	0.385400	0.450510
O141	O14	0.081900	0.351100	0.497400
O151	O15	0.465400	0.588000	0.694030
O161	O16	0.225400	0.612400	0.707670
