data_EVUDAA_clean_PM
_symmetry_space_group_name_H-M	'P1'
_cell_length_a	13.480100
_cell_length_b	13.480100
_cell_length_c	24.582000
_cell_angle_alpha	90.000000
_cell_angle_beta	90.000000
_cell_angle_gamma	90.000000
_symmetry_Int_Tables_number 1

loop_
_symmetry_equiv_pos_as_xyz
'x,y,z'

loop_
_atom_site_label
_atom_site_type_symbol
_atom_site_fract_x
_atom_site_fract_y
_atom_site_fract_z
O11	O1	0.161300	0.038800	0.058930
O21	O2	0.206500	0.194500	0.068330
C11	C1	0.211900	0.105600	0.082120
C21	C2	0.280700	0.077800	0.127900
C31	C3	0.298400	0.979700	0.141000
H11	H1	0.264600	0.929000	0.122400
C41	C4	0.366300	0.955800	0.181700
H21	H2	0.378800	0.888800	0.189800
C51	C5	0.416100	0.029700	0.210540
C61	C6	0.396800	0.127100	0.197000
H31	H3	0.429900	0.178200	0.215600
C71	C7	0.329600	0.151000	0.156400
H41	H4	0.317100	0.217900	0.148200
O31	O3	0.661300	0.538800	0.558930
O41	O4	0.706500	0.694500	0.568330
C81	C8	0.711900	0.605600	0.582120
C91	C9	0.780700	0.577800	0.627900
C101	C10	0.798400	0.479700	0.641000
H51	H5	0.764600	0.429000	0.622400
C111	C11	0.866300	0.455800	0.681700
H61	H6	0.878800	0.388800	0.689800
C121	C12	0.916100	0.529700	0.710540
C131	C13	0.896800	0.627100	0.697000
H71	H7	0.929900	0.678200	0.715600
C141	C14	0.829600	0.651000	0.656400
H81	H8	0.817100	0.717900	0.648200
O51	O5	0.838700	0.961200	0.058930
O61	O6	0.793500	0.805500	0.068330
C151	C15	0.788100	0.894400	0.082120
C161	C16	0.719300	0.922200	0.127900
C171	C17	0.701600	0.020300	0.141000
H91	H9	0.735400	0.071000	0.122400
C181	C18	0.633700	0.044200	0.181700
H101	H10	0.621200	0.111200	0.189800
C191	C19	0.583900	0.970300	0.210540
C201	C20	0.603200	0.872900	0.197000
H111	H11	0.570100	0.821800	0.215600
C211	C21	0.670400	0.849000	0.156400
H121	H12	0.682900	0.782100	0.148200
O71	O7	0.338700	0.461200	0.558930
O81	O8	0.293500	0.305500	0.568330
C221	C22	0.288100	0.394400	0.582120
C231	C23	0.219300	0.422200	0.627900
C241	C24	0.201600	0.520300	0.641000
H131	H13	0.235400	0.571000	0.622400
C251	C25	0.133700	0.544200	0.681700
H141	H14	0.121200	0.611200	0.689800
C261	C26	0.083900	0.470300	0.710540
C271	C27	0.103200	0.372900	0.697000
H151	H15	0.070100	0.321800	0.715600
C281	C28	0.170400	0.349000	0.656400
H161	H16	0.182900	0.282100	0.648200
O91	O9	0.961200	0.161300	0.058930
O101	O10	0.805500	0.206500	0.068330
C291	C29	0.894400	0.211900	0.082120
C301	C30	0.922200	0.280700	0.127900
C311	C31	0.020300	0.298400	0.141000
H171	H17	0.071000	0.264600	0.122400
C321	C32	0.044200	0.366300	0.181700
H181	H18	0.111200	0.378800	0.189800
C331	C33	0.970300	0.416100	0.210540
C341	C34	0.872900	0.396800	0.197000
H191	H19	0.821800	0.429900	0.215600
C351	C35	0.849000	0.329600	0.156400
H201	H20	0.782100	0.317100	0.148200
O111	O11	0.461200	0.661300	0.558930
O121	O12	0.305500	0.706500	0.568330
C361	C36	0.394400	0.711900	0.582120
C371	C37	0.422200	0.780700	0.627900
C381	C38	0.520300	0.798400	0.641000
H211	H21	0.571000	0.764600	0.622400
C391	C39	0.544200	0.866300	0.681700
H221	H22	0.611200	0.878800	0.689800
C401	C40	0.470300	0.916100	0.710540
C411	C41	0.372900	0.896800	0.697000
H231	H23	0.321800	0.929900	0.715600
C421	C42	0.349000	0.829600	0.656400
H241	H24	0.282100	0.817100	0.648200
O131	O13	0.038800	0.838700	0.058930
O141	O14	0.194500	0.793500	0.068330
C431	C43	0.105600	0.788100	0.082120
C441	C44	0.077800	0.719300	0.127900
C451	C45	0.979700	0.701600	0.141000
H251	H25	0.929000	0.735400	0.122400
C461	C46	0.955800	0.633700	0.181700
H261	H26	0.888800	0.621200	0.189800
C471	C47	0.029700	0.583900	0.210540
C481	C48	0.127100	0.603200	0.197000
H271	H27	0.178200	0.570100	0.215600
C491	C49	0.151000	0.670400	0.156400
H281	H28	0.217900	0.682900	0.148200
O151	O15	0.538800	0.338700	0.558930
O161	O16	0.694500	0.293500	0.568330
C501	C50	0.605600	0.288100	0.582120
C511	C51	0.577800	0.219300	0.627900
C521	C52	0.479700	0.201600	0.641000
H291	H29	0.429000	0.235400	0.622400
C531	C53	0.455800	0.133700	0.681700
H301	H30	0.388800	0.121200	0.689800
C541	C54	0.529700	0.083900	0.710540
C551	C55	0.627100	0.103200	0.697000
H311	H31	0.678200	0.070100	0.715600
C561	C56	0.651000	0.170400	0.656400
H321	H32	0.717900	0.182900	0.648200
O171	O17	0.838700	0.961200	0.941070
O181	O18	0.793500	0.805500	0.931670
C571	C57	0.788100	0.894400	0.917880
C581	C58	0.719300	0.922200	0.872100
C591	C59	0.701600	0.020300	0.859000
H331	H33	0.735400	0.071000	0.877600
C601	C60	0.633700	0.044200	0.818300
H341	H34	0.621200	0.111200	0.810200
C611	C61	0.583900	0.970300	0.789460
C621	C62	0.603200	0.872900	0.803000
H351	H35	0.570100	0.821800	0.784400
C631	C63	0.670400	0.849000	0.843600
H361	H36	0.682900	0.782100	0.851800
O191	O19	0.338700	0.461200	0.441070
O201	O20	0.293500	0.305500	0.431670
C641	C64	0.288100	0.394400	0.417880
C651	C65	0.219300	0.422200	0.372100
C661	C66	0.201600	0.520300	0.359000
H371	H37	0.235400	0.571000	0.377600
C671	C67	0.133700	0.544200	0.318300
H381	H38	0.121200	0.611200	0.310200
C681	C68	0.083900	0.470300	0.289460
C691	C69	0.103200	0.372900	0.303000
H391	H39	0.070100	0.321800	0.284400
C701	C70	0.170400	0.349000	0.343600
H401	H40	0.182900	0.282100	0.351800
O211	O21	0.161300	0.038800	0.941070
O221	O22	0.206500	0.194500	0.931670
C711	C71	0.211900	0.105600	0.917880
C721	C72	0.280700	0.077800	0.872100
C731	C73	0.298400	0.979700	0.859000
H411	H41	0.264600	0.929000	0.877600
C741	C74	0.366300	0.955800	0.818300
H421	H42	0.378800	0.888800	0.810200
C751	C75	0.416100	0.029700	0.789460
C761	C76	0.396800	0.127100	0.803000
H431	H43	0.429900	0.178200	0.784400
C771	C77	0.329600	0.151000	0.843600
H441	H44	0.317100	0.217900	0.851800
O231	O23	0.661300	0.538800	0.441070
O241	O24	0.706500	0.694500	0.431670
C781	C78	0.711900	0.605600	0.417880
C791	C79	0.780700	0.577800	0.372100
C801	C80	0.798400	0.479700	0.359000
H451	H45	0.764600	0.429000	0.377600
C811	C81	0.866300	0.455800	0.318300
H461	H46	0.878800	0.388800	0.310200
C821	C82	0.916100	0.529700	0.289460
C831	C83	0.896800	0.627100	0.303000
H471	H47	0.929900	0.678200	0.284400
C841	C84	0.829600	0.651000	0.343600
H481	H48	0.817100	0.717900	0.351800
O251	O25	0.038800	0.838700	0.941070
O261	O26	0.194500	0.793500	0.931670
C851	C85	0.105600	0.788100	0.917880
C861	C86	0.077800	0.719300	0.872100
C871	C87	0.979700	0.701600	0.859000
H491	H49	0.929000	0.735400	0.877600
C881	C88	0.955800	0.633700	0.818300
H501	H50	0.888800	0.621200	0.810200
C891	C89	0.029700	0.583900	0.789460
C901	C90	0.127100	0.603200	0.803000
H511	H51	0.178200	0.570100	0.784400
C911	C91	0.151000	0.670400	0.843600
H521	H52	0.217900	0.682900	0.851800
O271	O27	0.538800	0.338700	0.441070
O281	O28	0.694500	0.293500	0.431670
C921	C92	0.605600	0.288100	0.417880
C931	C93	0.577800	0.219300	0.372100
C941	C94	0.479700	0.201600	0.359000
H531	H53	0.429000	0.235400	0.377600
C951	C95	0.455800	0.133700	0.318300
H541	H54	0.388800	0.121200	0.310200
C961	C96	0.529700	0.083900	0.289460
C971	C97	0.627100	0.103200	0.303000
H551	H55	0.678200	0.070100	0.284400
C981	C98	0.651000	0.170400	0.343600
H561	H56	0.717900	0.182900	0.351800
O291	O29	0.961200	0.161300	0.941070
O301	O30	0.805500	0.206500	0.931670
C991	C99	0.894400	0.211900	0.917880
C1001	C100	0.922200	0.280700	0.872100
C1011	C101	0.020300	0.298400	0.859000
H571	H57	0.071000	0.264600	0.877600
C1021	C102	0.044200	0.366300	0.818300
H581	H58	0.111200	0.378800	0.810200
C1031	C103	0.970300	0.416100	0.789460
C1041	C104	0.872900	0.396800	0.803000
H591	H59	0.821800	0.429900	0.784400
C1051	C105	0.849000	0.329600	0.843600
H601	H60	0.782100	0.317100	0.851800
O311	O31	0.461200	0.661300	0.441070
O321	O32	0.305500	0.706500	0.431670
C1061	C106	0.394400	0.711900	0.417880
C1071	C107	0.422200	0.780700	0.372100
C1081	C108	0.520300	0.798400	0.359000
H611	H61	0.571000	0.764600	0.377600
C1091	C109	0.544200	0.866300	0.318300
H621	H62	0.611200	0.878800	0.310200
C1101	C110	0.470300	0.916100	0.289460
C1111	C111	0.372900	0.896800	0.303000
H631	H63	0.321800	0.929900	0.284400
C1121	C112	0.349000	0.829600	0.343600
H641	H64	0.282100	0.817100	0.351800
Cd11	Cd1	0.091220	0.178130	0.000000
Cd21	Cd2	0.591220	0.678130	0.500000
Cd31	Cd3	0.908780	0.821870	0.000000
Cd41	Cd4	0.408780	0.321870	0.500000
Cd51	Cd5	0.821870	0.091220	0.000000
Cd61	Cd6	0.321870	0.591220	0.500000
Cd71	Cd7	0.178130	0.908780	0.000000
Cd81	Cd8	0.678130	0.408780	0.500000
C1131	C113	0.500000	0.000000	0.250000
C1141	C114	0.000000	0.500000	0.250000
C1151	C115	0.500000	0.000000	0.750000
C1161	C116	0.000000	0.500000	0.750000
