data_EVUMUE_clean_PM
_symmetry_space_group_name_H-M	'P1'
_cell_length_a	9.807800
_cell_length_b	13.186700
_cell_length_c	16.792300
_cell_angle_alpha	81.521600
_cell_angle_beta	73.020400
_cell_angle_gamma	68.168300
_symmetry_Int_Tables_number 1

loop_
_symmetry_equiv_pos_as_xyz
'x,y,z'

loop_
_atom_site_label
_atom_site_type_symbol
_atom_site_fract_x
_atom_site_fract_y
_atom_site_fract_z
La11	La1	0.632090	0.388010	0.573970
La21	La2	0.594070	0.111990	0.926030
La31	La3	0.367910	0.611990	0.426030
La41	La4	0.405930	0.888010	0.073970
Zn11	Zn1	0.254930	0.108730	0.315750
Zn21	Zn2	0.181930	0.161260	0.542900
Zn31	Zn3	0.679410	0.391270	0.184250
Zn41	Zn4	0.886090	0.338740	0.957100
Zn51	Zn5	0.745070	0.891270	0.684250
Zn61	Zn6	0.818070	0.838740	0.457100
Zn71	Zn7	0.320590	0.608730	0.815750
Zn81	Zn8	0.113910	0.661260	0.042900
H11	H1	0.030700	0.188300	0.183300
H21	H2	0.412000	0.934900	0.630300
H31	H3	0.402300	0.311700	0.316700
H41	H4	0.977200	0.565100	0.869700
H51	H5	0.969300	0.811700	0.816700
H61	H6	0.588000	0.065100	0.369700
H71	H7	0.597700	0.688300	0.683300
H81	H8	0.022800	0.434900	0.130300
C11	C1	0.986800	0.268500	0.434700
C21	C2	0.945700	0.273100	0.355700
C31	C3	0.817600	0.332800	0.326800
C41	C4	0.673400	0.421500	0.357100
C51	C5	0.983500	0.224000	0.233200
C61	C6	0.733300	0.104100	0.594300
C71	C7	0.598500	0.085100	0.588700
C81	C8	0.473400	0.145200	0.558800
C91	C9	0.420400	0.254400	0.519000
C101	C10	0.450900	0.991100	0.612500
C111	C11	0.690000	0.231500	0.065300
C121	C12	0.574500	0.226900	0.144300
C131	C13	0.477200	0.167200	0.173200
C141	C14	0.452000	0.078500	0.142900
C151	C15	0.440700	0.276000	0.266800
C161	C16	0.431700	0.395900	0.905700
C171	C17	0.272300	0.414900	0.911300
C181	C18	0.177400	0.354800	0.941200
C191	C19	0.193800	0.245600	0.981000
C201	C20	0.054500	0.508900	0.887500
C211	C21	0.013200	0.731500	0.565300
C221	C22	0.054300	0.726900	0.644300
C231	C23	0.182400	0.667200	0.673200
C241	C24	0.326600	0.578500	0.642900
C251	C25	0.016500	0.776000	0.766800
C261	C26	0.266700	0.895900	0.405700
C271	C27	0.401500	0.914900	0.411300
C281	C28	0.526600	0.854800	0.441200
C291	C29	0.579600	0.745600	0.481000
C301	C30	0.549100	0.008900	0.387500
C311	C31	0.310000	0.768500	0.934700
C321	C32	0.425500	0.773100	0.855700
C331	C33	0.522800	0.832800	0.826800
C341	C34	0.548000	0.921500	0.857100
C351	C35	0.559300	0.724000	0.733200
C361	C36	0.568300	0.604100	0.094300
C371	C37	0.727700	0.585100	0.088700
C381	C38	0.822600	0.645200	0.058800
C391	C39	0.806200	0.754400	0.019000
C401	C40	0.945500	0.491100	0.112500
C411	C41	0.534600	0.250000	0.750000
C421	C42	0.693400	0.250000	0.750000
C431	C43	0.465400	0.750000	0.250000
C441	C44	0.306600	0.750000	0.250000
N11	N1	0.845700	0.299900	0.247700
N21	N2	0.048600	0.203600	0.296000
N31	N3	0.381400	0.083500	0.573900
N41	N4	0.582300	0.988000	0.622800
N51	N5	0.393300	0.200100	0.252300
N61	N6	0.548200	0.296400	0.204000
N71	N7	0.038800	0.416500	0.926100
N81	N8	0.193100	0.512000	0.877200
N91	N9	0.154300	0.700100	0.752300
N101	N10	0.951400	0.796400	0.704000
N111	N11	0.618600	0.916500	0.426100
N121	N12	0.417700	0.012000	0.377200
N131	N13	0.606700	0.799900	0.747700
N141	N14	0.451800	0.703600	0.796000
N151	N15	0.961200	0.583500	0.073900
N161	N16	0.806900	0.488000	0.122800
O11	O1	0.904700	0.333500	0.490900
O21	O2	0.114500	0.195000	0.439200
O31	O3	0.639100	0.464000	0.427200
O41	O4	0.582600	0.458100	0.311100
O51	O5	0.817800	0.030500	0.634300
O61	O6	0.761200	0.188200	0.561400
O71	O7	0.491300	0.319000	0.507400
O81	O8	0.298900	0.278800	0.496800
O91	O9	0.478200	0.304000	0.692600
O101	O10	0.751140	0.314120	0.696200
O111	O11	0.729100	0.166500	0.009100
O121	O12	0.748700	0.305000	0.060800
O131	O13	0.530300	0.036000	0.072800
O141	O14	0.351800	0.041900	0.188900
O151	O15	0.482600	0.469500	0.865700
O161	O16	0.510800	0.311800	0.938600
O171	O17	0.317700	0.181000	0.992600
O181	O18	0.074500	0.221200	0.003200
O191	O19	0.474800	0.196000	0.807400
O201	O20	0.761460	0.185880	0.803800
O211	O21	0.095300	0.666500	0.509100
O221	O22	0.885500	0.805000	0.560800
O231	O23	0.360900	0.536000	0.572800
O241	O24	0.417400	0.541900	0.688900
O251	O25	0.182200	0.969500	0.365700
O261	O26	0.238800	0.811800	0.438600
O271	O27	0.508700	0.681000	0.492600
O281	O28	0.701100	0.721200	0.503200
O291	O29	0.521800	0.696000	0.307400
O301	O30	0.248860	0.685880	0.303800
O311	O31	0.270900	0.833500	0.990900
O321	O32	0.251300	0.695000	0.939200
O331	O33	0.469700	0.964000	0.927200
O341	O34	0.648200	0.958100	0.811100
O351	O35	0.517400	0.530500	0.134300
O361	O36	0.489200	0.688200	0.061400
O371	O37	0.682300	0.819000	0.007400
O381	O38	0.925500	0.778800	0.996800
O391	O39	0.525200	0.804000	0.192600
O401	O40	0.238540	0.814120	0.196200
