data_EVUNEP_clean_PM
_symmetry_space_group_name_H-M	'P1'
_cell_length_a	9.843800
_cell_length_b	13.206700
_cell_length_c	16.491900
_cell_angle_alpha	81.120800
_cell_angle_beta	72.635800
_cell_angle_gamma	68.118800
_symmetry_Int_Tables_number 1

loop_
_symmetry_equiv_pos_as_xyz
'x,y,z'

loop_
_atom_site_label
_atom_site_type_symbol
_atom_site_fract_x
_atom_site_fract_y
_atom_site_fract_z
Sm11	Sm1	0.626690	0.381900	0.572860
Sm21	Sm2	0.581450	0.118100	0.927140
Sm31	Sm3	0.373310	0.618100	0.427140
Sm41	Sm4	0.418550	0.881900	0.072860
Zn11	Zn1	0.247190	0.110400	0.317800
Zn21	Zn2	0.179700	0.160510	0.545710
Zn31	Zn3	0.675390	0.389600	0.182200
Zn41	Zn4	0.885920	0.339490	0.954290
Zn51	Zn5	0.752810	0.889600	0.682200
Zn61	Zn6	0.820300	0.839490	0.454290
Zn71	Zn7	0.324610	0.610400	0.817800
Zn81	Zn8	0.114080	0.660510	0.045710
H11	H1	0.022500	0.185300	0.183300
H21	H2	0.415800	0.930100	0.629900
H31	H3	0.391100	0.314700	0.316700
H41	H4	0.975800	0.569900	0.870100
H51	H5	0.977500	0.814700	0.816700
H61	H6	0.584200	0.069900	0.370100
H71	H7	0.608900	0.685300	0.683300
H81	H8	0.024200	0.430100	0.129900
C11	C1	0.977600	0.270400	0.437800
C21	C2	0.935600	0.272800	0.358400
C31	C3	0.809700	0.332500	0.328100
C41	C4	0.666400	0.424200	0.357400
C51	C5	0.975100	0.221900	0.233700
C61	C6	0.733300	0.102600	0.591400
C71	C7	0.597500	0.082800	0.588200
C81	C8	0.470600	0.143400	0.560200
C91	C9	0.417500	0.254200	0.519600
C101	C10	0.452900	0.987400	0.612400
C111	C11	0.685800	0.229600	0.062200
C121	C12	0.566800	0.227200	0.141600
C131	C13	0.470300	0.167500	0.171900
C141	C14	0.448000	0.075800	0.142600
C151	C15	0.430700	0.278100	0.266300
C161	C16	0.427300	0.397400	0.908600
C171	C17	0.268500	0.417200	0.911800
C181	C18	0.174200	0.356600	0.939800
C191	C19	0.191300	0.245800	0.980400
C201	C20	0.052700	0.512600	0.887600
C211	C21	0.022400	0.729600	0.562200
C221	C22	0.064400	0.727200	0.641600
C231	C23	0.190300	0.667500	0.671900
C241	C24	0.333600	0.575800	0.642600
C251	C25	0.024900	0.778100	0.766300
C261	C26	0.266700	0.897400	0.408600
C271	C27	0.402500	0.917200	0.411800
C281	C28	0.529400	0.856600	0.439800
C291	C29	0.582500	0.745800	0.480400
C301	C30	0.547100	0.012600	0.387600
C311	C31	0.314200	0.770400	0.937800
C321	C32	0.433200	0.772800	0.858400
C331	C33	0.529700	0.832500	0.828100
C341	C34	0.552000	0.924200	0.857400
C351	C35	0.569300	0.721900	0.733700
C361	C36	0.572700	0.602600	0.091400
C371	C37	0.731500	0.582800	0.088200
C381	C38	0.825800	0.643400	0.060200
C391	C39	0.808700	0.754200	0.019600
C401	C40	0.947300	0.487400	0.112400
C411	C41	0.527000	0.250000	0.750000
C421	C42	0.685200	0.250000	0.750000
C431	C43	0.473000	0.750000	0.250000
C441	C44	0.314800	0.750000	0.250000
N11	N1	0.836630	0.297740	0.248400
N21	N2	0.039360	0.203380	0.297500
N31	N3	0.378940	0.081720	0.575800
N41	N4	0.585280	0.984240	0.621200
N51	N5	0.382770	0.202260	0.251600
N61	N6	0.540240	0.296620	0.202500
N71	N7	0.036460	0.418280	0.924200
N81	N8	0.190720	0.515760	0.878800
N91	N9	0.163370	0.702260	0.751600
N101	N10	0.960640	0.796620	0.702500
N111	N11	0.621060	0.918280	0.424200
N121	N12	0.414720	0.015760	0.378800
N131	N13	0.617230	0.797740	0.748400
N141	N14	0.459760	0.703380	0.797500
N151	N15	0.963540	0.581720	0.075800
N161	N16	0.809280	0.484240	0.121200
O11	O1	0.892900	0.333850	0.495150
O21	O2	0.106000	0.199200	0.441400
O31	O3	0.630130	0.464960	0.429580
O41	O4	0.581180	0.463440	0.308600
O51	O5	0.822340	0.027720	0.628000
O61	O6	0.755670	0.189560	0.560500
O71	O7	0.488730	0.318140	0.508800
O81	O8	0.295530	0.278940	0.498200
O91	O9	0.472510	0.304080	0.691100
O101	O10	0.737500	0.310120	0.694880
O111	O11	0.721900	0.166150	0.004850
O121	O12	0.746600	0.300800	0.058600
O131	O13	0.524670	0.035040	0.070420
O141	O14	0.353220	0.036560	0.191400
O151	O15	0.478060	0.472280	0.872000
O161	O16	0.505730	0.310440	0.939500
O171	O17	0.315670	0.181860	0.991200
O181	O18	0.072670	0.221060	0.001800
O191	O19	0.467690	0.195920	0.808900
O201	O20	0.742500	0.189880	0.805120
O211	O21	0.107100	0.666150	0.504850
O221	O22	0.894000	0.800800	0.558600
O231	O23	0.369870	0.535040	0.570420
O241	O24	0.418820	0.536560	0.691400
O251	O25	0.177660	0.972280	0.372000
O261	O26	0.244330	0.810440	0.439500
O271	O27	0.511270	0.681860	0.491200
O281	O28	0.704470	0.721060	0.501800
O291	O29	0.527490	0.695920	0.308900
O301	O30	0.262500	0.689880	0.305120
O311	O31	0.278100	0.833850	0.995150
O321	O32	0.253400	0.699200	0.941400
O331	O33	0.475330	0.964960	0.929580
O341	O34	0.646780	0.963440	0.808600
O351	O35	0.521940	0.527720	0.128000
O361	O36	0.494270	0.689560	0.060500
O371	O37	0.684330	0.818140	0.008800
O381	O38	0.927330	0.778940	0.998200
O391	O39	0.532310	0.804080	0.191100
O401	O40	0.257500	0.810120	0.194880
