data_EVUNAL_clean_PM
_symmetry_space_group_name_H-M	'P1'
_cell_length_a	9.821400
_cell_length_b	13.199400
_cell_length_c	16.611500
_cell_angle_alpha	81.352700
_cell_angle_beta	72.805300
_cell_angle_gamma	68.158600
_symmetry_Int_Tables_number 1

loop_
_symmetry_equiv_pos_as_xyz
'x,y,z'

loop_
_atom_site_label
_atom_site_type_symbol
_atom_site_fract_x
_atom_site_fract_y
_atom_site_fract_z
Nd11	Nd1	0.628440	0.384000	0.573500
Nd21	Nd2	0.585940	0.116000	0.926500
Nd31	Nd3	0.371560	0.616000	0.426500
Nd41	Nd4	0.414060	0.884000	0.073500
Zn11	Zn1	0.250100	0.109610	0.316690
Zn21	Zn2	0.180800	0.160400	0.544520
Zn31	Zn3	0.676400	0.390390	0.183310
Zn41	Zn4	0.885720	0.339600	0.955480
Zn51	Zn5	0.749900	0.890390	0.683310
Zn61	Zn6	0.819200	0.839600	0.455480
Zn71	Zn7	0.323600	0.609610	0.816690
Zn81	Zn8	0.114280	0.660400	0.044520
H11	H1	0.024800	0.186400	0.183800
H21	H2	0.413000	0.932300	0.630500
H31	H3	0.395000	0.313600	0.316200
H41	H4	0.975800	0.567700	0.869500
H51	H5	0.975200	0.813600	0.816200
H61	H6	0.587000	0.067700	0.369500
H71	H7	0.605000	0.686400	0.683800
H81	H8	0.024200	0.432300	0.130500
C11	C1	0.979900	0.270000	0.437000
C21	C2	0.938200	0.273000	0.358000
C31	C3	0.812000	0.332700	0.327700
C41	C4	0.668100	0.423500	0.357900
C51	C5	0.977600	0.222900	0.233900
C61	C6	0.734000	0.102700	0.592900
C71	C7	0.598100	0.083500	0.588900
C81	C8	0.472200	0.143800	0.559800
C91	C9	0.419500	0.253800	0.519200
C101	C10	0.451400	0.988900	0.612700
C111	C11	0.686900	0.230000	0.063000
C121	C12	0.569200	0.227000	0.142000
C131	C13	0.472400	0.167300	0.172300
C141	C14	0.449500	0.076500	0.142100
C151	C15	0.434400	0.277100	0.266100
C161	C16	0.429600	0.397300	0.907100
C171	C17	0.270500	0.416500	0.911100
C181	C18	0.175800	0.356200	0.940200
C191	C19	0.192500	0.246200	0.980800
C201	C20	0.053000	0.511100	0.887300
C211	C21	0.020100	0.730000	0.563000
C221	C22	0.061800	0.727000	0.642000
C231	C23	0.188000	0.667300	0.672300
C241	C24	0.331900	0.576500	0.642100
C251	C25	0.022400	0.777100	0.766100
C261	C26	0.266000	0.897300	0.407100
C271	C27	0.401900	0.916500	0.411100
C281	C28	0.527800	0.856200	0.440200
C291	C29	0.580500	0.746200	0.480800
C301	C30	0.548600	0.011100	0.387300
C311	C31	0.313100	0.770000	0.937000
C321	C32	0.430800	0.773000	0.858000
C331	C33	0.527600	0.832700	0.827700
C341	C34	0.550500	0.923500	0.857900
C351	C35	0.565600	0.722900	0.733900
C361	C36	0.570400	0.602700	0.092900
C371	C37	0.729500	0.583500	0.088900
C381	C38	0.824200	0.643800	0.059800
C391	C39	0.807500	0.753800	0.019200
C401	C40	0.947000	0.488900	0.112700
C411	C41	0.530100	0.250000	0.750000
C421	C42	0.687700	0.250000	0.750000
C431	C43	0.469900	0.750000	0.250000
C441	C44	0.312300	0.750000	0.250000
N11	N1	0.839310	0.298680	0.248500
N21	N2	0.042510	0.203980	0.296800
N31	N3	0.380190	0.082620	0.574800
N41	N4	0.583870	0.985360	0.622100
N51	N5	0.386490	0.201320	0.251500
N61	N6	0.543290	0.296020	0.203200
N71	N7	0.037610	0.417380	0.925200
N81	N8	0.191330	0.514640	0.877900
N91	N9	0.160690	0.701320	0.751500
N101	N10	0.957490	0.796020	0.703200
N111	N11	0.619810	0.917380	0.425200
N121	N12	0.416130	0.014640	0.377900
N131	N13	0.613510	0.798680	0.748500
N141	N14	0.456710	0.703980	0.796800
N151	N15	0.962390	0.582620	0.074800
N161	N16	0.808670	0.485360	0.122100
O11	O1	0.896940	0.333400	0.493920
O21	O2	0.108550	0.197700	0.440600
O31	O3	0.633820	0.464360	0.428800
O41	O4	0.580820	0.461610	0.309950
O51	O5	0.820470	0.028660	0.630800
O61	O6	0.758090	0.188520	0.561300
O71	O7	0.490270	0.318060	0.508200
O81	O8	0.297150	0.278500	0.497800
O91	O9	0.474080	0.304080	0.691760
O101	O10	0.741970	0.311560	0.695500
O111	O11	0.724260	0.166600	0.006080
O121	O12	0.746850	0.302300	0.059400
O131	O13	0.526980	0.035640	0.071200
O141	O14	0.352380	0.038390	0.190050
O151	O15	0.479930	0.471340	0.869200
O161	O16	0.507910	0.311480	0.938700
O171	O17	0.316530	0.181940	0.991800
O181	O18	0.073450	0.221500	0.002200
O191	O19	0.469920	0.195920	0.808240
O201	O20	0.749030	0.188440	0.804500
O211	O21	0.103060	0.666600	0.506080
O221	O22	0.891450	0.802300	0.559400
O231	O23	0.366180	0.535640	0.571200
O241	O24	0.419180	0.538390	0.690050
O251	O25	0.179530	0.971340	0.369200
O261	O26	0.241910	0.811480	0.438700
O271	O27	0.509730	0.681940	0.491800
O281	O28	0.702850	0.721500	0.502200
O291	O29	0.525920	0.695920	0.308240
O301	O30	0.258030	0.688440	0.304500
O311	O31	0.275740	0.833400	0.993920
O321	O32	0.253150	0.697700	0.940600
O331	O33	0.473020	0.964360	0.928800
O341	O34	0.647620	0.961610	0.809950
O351	O35	0.520070	0.528660	0.130800
O361	O36	0.492090	0.688520	0.061300
O371	O37	0.683470	0.818060	0.008200
O381	O38	0.926550	0.778500	0.997800
O391	O39	0.530080	0.804080	0.191760
O401	O40	0.250970	0.811560	0.195500
