data_EVUPOC_clean_PM
_symmetry_space_group_name_H-M	'P1'
_cell_length_a	11.090000
_cell_length_b	11.320000
_cell_length_c	16.243000
_cell_angle_alpha	74.940000
_cell_angle_beta	82.760000
_cell_angle_gamma	75.060000
_symmetry_Int_Tables_number 1

loop_
_symmetry_equiv_pos_as_xyz
'x,y,z'

loop_
_atom_site_label
_atom_site_type_symbol
_atom_site_fract_x
_atom_site_fract_y
_atom_site_fract_z
O11	O1	0.352100	0.433800	0.007300
O21	O2	0.521200	0.422300	0.916400
O31	O3	0.925100	0.501400	0.761700
O41	O4	0.930900	0.480000	0.899100
C11	C1	0.123900	0.436500	0.816400
O51	O5	0.859200	0.788400	0.727300
O61	O6	0.723600	0.704500	0.824300
C21	C2	0.778100	0.790700	0.787400
C31	C3	0.734100	0.912800	0.817400
C41	C4	0.777100	0.019500	0.771100
H11	H1	0.831200	0.015500	0.722800
C51	C5	0.653900	0.917000	0.888000
H21	H2	0.625100	0.846200	0.917000
O71	O7	0.297600	0.334200	0.354300
O81	O8	0.436000	0.403400	0.250800
C61	C6	0.403600	0.361000	0.327900
C71	C7	0.407400	0.424300	0.934800
Nd11	Nd1	0.087070	0.340910	0.372960
Nd21	Nd2	0.708670	0.493710	0.865330
O91	O9	0.886700	0.382900	0.457500
O101	O10	0.876700	0.317500	0.346600
O111	O11	0.742300	0.345700	0.783500
N11	N1	0.361100	0.360300	0.646000
O121	O12	0.857600	0.241700	0.690100
C81	C8	0.785700	0.246400	0.754800
C91	C9	0.825300	0.345500	0.414300
N21	N2	0.477400	0.350100	0.629600
C101	C10	0.487200	0.345100	0.398000
C111	C11	0.199400	0.439000	0.881300
H31	H3	0.162500	0.455200	0.933200
C121	C12	0.612800	0.343600	0.376300
H41	H4	0.643800	0.345500	0.320100
N31	N3	0.524400	0.045800	0.984600
C131	C13	0.440000	0.344100	0.480700
H51	H5	0.355900	0.345300	0.495400
C141	C14	0.658300	0.134700	0.870000
H61	H6	0.632400	0.209200	0.888200
C151	C15	0.519200	0.341100	0.543400
C161	C16	0.614600	0.028400	0.917100
C171	C17	0.694200	0.339400	0.437500
C181	C18	0.315800	0.380200	0.728400
C191	C19	0.388700	0.388200	0.792200
H71	H7	0.475300	0.374200	0.783900
C201	C20	0.645200	0.340200	0.522700
H81	H8	0.696400	0.340100	0.563900
C211	C21	0.328900	0.416500	0.865500
C221	C22	0.737500	0.131500	0.798600
C231	C23	0.187900	0.404000	0.740700
H91	H9	0.141600	0.398700	0.698400
C241	C24	0.987400	0.477000	0.828800
O131	O13	0.647900	0.566200	0.992700
O141	O14	0.478800	0.577700	0.083600
O151	O15	0.074900	0.498600	0.238300
O161	O16	0.069100	0.520000	0.100900
C251	C25	0.876100	0.563500	0.183600
O171	O17	0.140800	0.211600	0.272700
O181	O18	0.276400	0.295500	0.175700
C261	C26	0.221900	0.209300	0.212600
C271	C27	0.265900	0.087200	0.182600
C281	C28	0.222900	0.980500	0.228900
H101	H10	0.168800	0.984500	0.277200
C291	C29	0.346100	0.083000	0.112000
H111	H11	0.374900	0.153800	0.083000
O191	O19	0.702400	0.665800	0.645700
O201	O20	0.564000	0.596600	0.749200
C301	C30	0.596400	0.639000	0.672100
C311	C31	0.592600	0.575700	0.065200
Nd31	Nd3	0.912930	0.659090	0.627040
Nd41	Nd4	0.291330	0.506290	0.134670
O211	O21	0.113300	0.617100	0.542500
O221	O22	0.123300	0.682500	0.653400
O231	O23	0.257700	0.654300	0.216500
N41	N4	0.638900	0.639700	0.354000
O241	O24	0.142400	0.758300	0.309900
C321	C32	0.214300	0.753600	0.245200
C331	C33	0.174700	0.654500	0.585700
N51	N5	0.522600	0.649900	0.370400
C341	C34	0.512800	0.654900	0.602000
C351	C35	0.800600	0.561000	0.118700
H121	H12	0.837500	0.544800	0.066800
C361	C36	0.387200	0.656400	0.623700
H131	H13	0.356200	0.654500	0.679900
N61	N6	0.475600	0.954200	0.015400
C371	C37	0.560000	0.655900	0.519300
H141	H14	0.644100	0.654700	0.504600
C381	C38	0.341700	0.865300	0.130000
H151	H15	0.367600	0.790800	0.111800
C391	C39	0.480800	0.658900	0.456600
C401	C40	0.385400	0.971600	0.082900
C411	C41	0.305800	0.660600	0.562500
C421	C42	0.684200	0.619800	0.271600
C431	C43	0.611300	0.611800	0.207800
H161	H16	0.524700	0.625800	0.216100
C441	C44	0.354800	0.659800	0.477300
H171	H17	0.303600	0.659900	0.436100
C451	C45	0.671100	0.583500	0.134500
C461	C46	0.262500	0.868500	0.201400
C471	C47	0.812100	0.596000	0.259300
H181	H18	0.858400	0.601300	0.301600
C481	C48	0.012600	0.523000	0.171200
