data_EVUQOC_clean_PM
_symmetry_space_group_name_H-M	'P1'
_cell_length_a	10.134000
_cell_length_b	10.355200
_cell_length_c	10.743600
_cell_angle_alpha	78.162500
_cell_angle_beta	89.430000
_cell_angle_gamma	65.239000
_symmetry_Int_Tables_number 1

loop_
_symmetry_equiv_pos_as_xyz
'x,y,z'

loop_
_atom_site_label
_atom_site_type_symbol
_atom_site_fract_x
_atom_site_fract_y
_atom_site_fract_z
La11	La1	0.033390	0.206300	0.000510
La21	La2	0.966610	0.793700	0.999490
H11	H1	0.521700	0.830800	0.969600
H21	H2	0.656900	0.445900	0.859900
H31	H3	0.232200	0.734400	0.793000
H41	H4	0.433800	0.684600	0.565200
H51	H5	0.312100	0.767900	0.360200
H61	H6	0.109300	0.502500	0.458400
H71	H7	0.250000	0.385600	0.781000
H81	H8	0.144200	0.364700	0.680800
H91	H9	0.478300	0.169200	0.030400
H101	H10	0.343100	0.554100	0.140100
H111	H11	0.767800	0.265600	0.207000
H121	H12	0.566200	0.315400	0.434800
H131	H13	0.687900	0.232100	0.639800
H141	H14	0.890700	0.497500	0.541600
H151	H15	0.750000	0.614400	0.219000
H161	H16	0.855800	0.635300	0.319200
C11	C1	0.234800	0.942700	0.895900
C21	C2	0.358400	0.803700	0.884100
C31	C3	0.500500	0.765600	0.931800
C41	C4	0.610400	0.632300	0.923600
C51	C5	0.765300	0.585200	0.977200
C61	C6	0.581700	0.537900	0.864600
C71	C7	0.441000	0.580800	0.812900
C81	C8	0.328800	0.709600	0.824800
C91	C9	0.343300	0.544200	0.631600
C101	C10	0.367900	0.647700	0.543100
C111	C11	0.295500	0.697200	0.421600
C121	C12	0.199000	0.643100	0.390300
C131	C13	0.118700	0.696000	0.260500
C141	C14	0.175800	0.538700	0.480400
C151	C15	0.248400	0.486300	0.602300
C161	C16	0.765200	0.057300	0.104100
C171	C17	0.641600	0.196300	0.115900
C181	C18	0.499500	0.234400	0.068200
C191	C19	0.389600	0.367700	0.076400
C201	C20	0.234700	0.414800	0.022800
C211	C21	0.418300	0.462100	0.135400
C221	C22	0.559000	0.419200	0.187100
C231	C23	0.671200	0.290400	0.175200
C241	C24	0.656700	0.455800	0.368400
C251	C25	0.632100	0.352300	0.456900
C261	C26	0.704500	0.302800	0.578400
C271	C27	0.801000	0.356900	0.609700
C281	C28	0.881300	0.304000	0.739500
C291	C29	0.824200	0.461300	0.519600
C301	C30	0.751600	0.513700	0.397700
N11	N1	0.236900	0.374800	0.692200
N21	N2	0.763100	0.625200	0.307800
O11	O1	0.108400	0.946600	0.911500
O21	O2	0.258300	0.053800	0.892500
O31	O3	0.852000	0.452800	0.990900
O41	O4	0.796800	0.681900	0.006000
O51	O5	0.415500	0.485000	0.753400
O61	O6	0.158500	0.769100	0.171700
O71	O7	0.015200	0.664100	0.240800
O81	O8	0.891600	0.053400	0.088500
O91	O9	0.741700	0.946200	0.107500
O101	O10	0.148000	0.547200	0.009100
O111	O11	0.203200	0.318100	0.994000
O121	O12	0.584500	0.515000	0.246600
O131	O13	0.841500	0.230900	0.828300
O141	O14	0.984800	0.335900	0.759200
