data_EVUQUI_clean_PM
_symmetry_space_group_name_H-M	'P1'
_cell_length_a	9.521100
_cell_length_b	9.983500
_cell_length_c	11.484300
_cell_angle_alpha	96.342000
_cell_angle_beta	97.063000
_cell_angle_gamma	111.763000
_symmetry_Int_Tables_number 1

loop_
_symmetry_equiv_pos_as_xyz
'x,y,z'

loop_
_atom_site_label
_atom_site_type_symbol
_atom_site_fract_x
_atom_site_fract_y
_atom_site_fract_z
Nd11	Nd1	0.713710	0.954880	0.009210
Nd21	Nd2	0.286290	0.045120	0.990790
H11	H1	0.319100	0.496100	0.028700
H21	H2	0.194300	0.793300	0.213400
H31	H3	0.920400	0.362200	0.157100
H41	H4	0.171200	0.591300	0.419500
H51	H5	0.256900	0.706900	0.618600
H61	H6	0.946700	0.894900	0.586200
H71	H7	0.832200	0.847300	0.318500
H81	H8	0.737900	0.696200	0.315400
H91	H9	0.680900	0.503900	0.971300
H101	H10	0.805700	0.206700	0.786600
H111	H11	0.079600	0.637800	0.842900
H121	H12	0.828800	0.408700	0.580500
H131	H13	0.743100	0.293100	0.381400
H141	H14	0.053300	0.105100	0.413800
H151	H15	0.167800	0.152700	0.681500
H161	H16	0.262100	0.303800	0.684600
C11	C1	0.077600	0.252400	0.025300
C21	C2	0.111700	0.407200	0.081700
C31	C3	0.247600	0.518400	0.069800
C41	C4	0.278200	0.663000	0.118500
C51	C5	0.422400	0.782700	0.101200
C61	C6	0.176200	0.695000	0.182400
C71	C7	0.048400	0.581000	0.199900
C81	C8	0.012400	0.438200	0.147700
C91	C9	0.007400	0.675900	0.385500
C101	C10	0.125900	0.653000	0.453400
C111	C11	0.176500	0.722000	0.571400
C121	C12	0.111100	0.812700	0.621100
C131	C13	0.171800	0.894200	0.744600
C141	C14	0.991800	0.833200	0.552200
C151	C15	0.938300	0.764200	0.434300
C161	C16	0.922400	0.747600	0.974700
C171	C17	0.888300	0.592800	0.918300
C181	C18	0.752400	0.481600	0.930200
C191	C19	0.721800	0.337000	0.881500
C201	C20	0.577600	0.217300	0.898800
C211	C21	0.823800	0.305000	0.817600
C221	C22	0.951600	0.419000	0.800100
C231	C23	0.987600	0.561800	0.852300
C241	C24	0.992600	0.324100	0.614500
C251	C25	0.874100	0.347000	0.546600
C261	C26	0.823500	0.278000	0.428600
C271	C27	0.888900	0.187300	0.378900
C281	C28	0.828200	0.105800	0.255400
C291	C29	0.008200	0.166800	0.447800
C301	C30	0.061700	0.235800	0.565700
N11	N1	0.811700	0.776000	0.364700
N21	N2	0.188300	0.224000	0.635300
O11	O1	0.544600	0.760900	0.110400
O21	O2	0.119600	0.987300	0.785000
O31	O3	0.185200	0.227700	0.987700
O41	O4	0.945600	0.158800	0.018800
O51	O5	0.416500	0.902300	0.076800
O61	O6	0.946700	0.609700	0.267900
O71	O7	0.277400	0.873700	0.809700
O81	O8	0.455400	0.239100	0.889600
O91	O9	0.880400	0.012700	0.215000
O101	O10	0.814800	0.772300	0.012300
O111	O11	0.054400	0.841200	0.981200
O121	O12	0.583500	0.097700	0.923200
O131	O13	0.053300	0.390300	0.732100
O141	O14	0.722600	0.126300	0.190300
