data_EWIPIL_clean_PM
_symmetry_space_group_name_H-M	'P1'
_cell_length_a	11.350400
_cell_length_b	12.192300
_cell_length_c	16.182700
_cell_angle_alpha	90.000000
_cell_angle_beta	130.491000
_cell_angle_gamma	90.000000
_symmetry_Int_Tables_number 1

loop_
_symmetry_equiv_pos_as_xyz
'x,y,z'

loop_
_atom_site_label
_atom_site_type_symbol
_atom_site_fract_x
_atom_site_fract_y
_atom_site_fract_z
C11	C1	0.357300	0.884800	0.731900
C21	C2	0.204900	0.918300	0.672160
H11	H1	0.167000	0.977400	0.624600
C31	C3	0.109500	0.863500	0.683570
C41	C4	0.945900	0.900400	0.622100
C51	C5	0.166200	0.774470	0.753280
H21	H2	0.101800	0.737100	0.760500
C61	C6	0.318800	0.740810	0.812430
C71	C7	0.415100	0.796870	0.801910
H31	H3	0.517600	0.775200	0.841800
C81	C8	0.380600	0.645040	0.887810
O11	O1	0.425000	0.923750	0.610790
O21	O2	0.445200	0.072750	0.716100
O31	O3	0.632900	0.925900	0.803520
O41	O4	0.895700	0.980100	0.558700
O51	O5	0.862400	0.854620	0.634100
O61	O6	0.523770	0.638500	0.961790
O71	O7	0.282900	0.578270	0.871850
S11	S1	0.476550	0.959310	0.716440
Zn11	Zn1	0.320700	0.023690	0.481170
C91	C9	0.642700	0.384800	0.768100
C101	C10	0.795100	0.418300	0.827840
H41	H4	0.833000	0.477400	0.875400
C111	C11	0.890500	0.363500	0.816430
C121	C12	0.054100	0.400400	0.877900
C131	C13	0.833800	0.274470	0.746720
H51	H5	0.898200	0.237100	0.739500
C141	C14	0.681200	0.240810	0.687570
C151	C15	0.584900	0.296870	0.698090
H61	H6	0.482400	0.275200	0.658200
C161	C16	0.619400	0.145040	0.612190
O81	O8	0.575000	0.423750	0.889210
O91	O9	0.554800	0.572750	0.783900
O101	O10	0.367100	0.425900	0.696480
O111	O11	0.104300	0.480100	0.941300
O121	O12	0.137600	0.354620	0.865900
O131	O13	0.476230	0.138500	0.538210
O141	O14	0.717100	0.078270	0.628150
S21	S2	0.523450	0.459310	0.783560
Zn21	Zn2	0.679300	0.523690	0.018830
C171	C17	0.642700	0.115200	0.268100
C181	C18	0.795100	0.081700	0.327840
H71	H7	0.833000	0.022600	0.375400
C191	C19	0.890500	0.136500	0.316430
C201	C20	0.054100	0.099600	0.377900
C211	C21	0.833800	0.225530	0.246720
H81	H8	0.898200	0.262900	0.239500
C221	C22	0.681200	0.259190	0.187570
C231	C23	0.584900	0.203130	0.198090
H91	H9	0.482400	0.224800	0.158200
C241	C24	0.619400	0.354960	0.112190
O151	O15	0.575000	0.076250	0.389210
O161	O16	0.554800	0.927250	0.283900
O171	O17	0.367100	0.074100	0.196480
O181	O18	0.104300	0.019900	0.441300
O191	O19	0.137600	0.145380	0.365900
O201	O20	0.476230	0.361500	0.038210
O211	O21	0.717100	0.421730	0.128150
S31	S3	0.523450	0.040690	0.283560
Zn31	Zn3	0.679300	0.976310	0.518830
C251	C25	0.357300	0.615200	0.231900
C261	C26	0.204900	0.581700	0.172160
H101	H10	0.167000	0.522600	0.124600
C271	C27	0.109500	0.636500	0.183570
C281	C28	0.945900	0.599600	0.122100
C291	C29	0.166200	0.725530	0.253280
H111	H11	0.101800	0.762900	0.260500
C301	C30	0.318800	0.759190	0.312430
C311	C31	0.415100	0.703130	0.301910
H121	H12	0.517600	0.724800	0.341800
C321	C32	0.380600	0.854960	0.387810
O221	O22	0.425000	0.576250	0.110790
O231	O23	0.445200	0.427250	0.216100
O241	O24	0.632900	0.574100	0.303520
O251	O25	0.895700	0.519900	0.058700
O261	O26	0.862400	0.645380	0.134100
O271	O27	0.523770	0.861500	0.461790
O281	O28	0.282900	0.921730	0.371850
S41	S4	0.476550	0.540690	0.216440
Zn41	Zn4	0.320700	0.476310	0.981170
