data_EWUKEO_clean_PM
_symmetry_space_group_name_H-M	'P1'
_cell_length_a	18.389000
_cell_length_b	18.389000
_cell_length_c	17.969000
_cell_angle_alpha	90.000000
_cell_angle_beta	90.000000
_cell_angle_gamma	120.000000
_symmetry_Int_Tables_number 1

loop_
_symmetry_equiv_pos_as_xyz
'x,y,z'

loop_
_atom_site_label
_atom_site_type_symbol
_atom_site_fract_x
_atom_site_fract_y
_atom_site_fract_z
Zn11	Zn1	0.756910	0.658580	0.333160
O11	O1	0.787700	0.718600	0.429300
O21	O2	0.760300	0.556800	0.349900
O31	O3	0.879900	0.729000	0.766900
C11	C1	0.691700	0.503700	0.370700
O41	O4	0.907000	0.684400	0.662700
O51	O5	0.631100	0.513000	0.380900
C21	C2	0.677500	0.413200	0.377000
C31	C3	0.822100	0.746300	0.577600
C41	C4	0.747400	0.401000	0.377200
H11	H1	0.844300	0.717600	0.551300
C51	C5	0.833500	0.756600	0.654000
H21	H2	0.802100	0.447500	0.377500
C61	C6	0.877000	0.721800	0.696800
Zn21	Zn2	0.341420	0.098330	0.333160
O61	O6	0.281400	0.069100	0.429300
O71	O7	0.443200	0.203500	0.349900
O81	O8	0.271000	0.150900	0.766900
C71	C7	0.496300	0.188000	0.370700
O91	O9	0.315600	0.222600	0.662700
O101	O10	0.487000	0.118100	0.380900
C81	C8	0.586800	0.264300	0.377000
C91	C9	0.253700	0.075800	0.577600
C101	C10	0.599000	0.346400	0.377200
H31	H3	0.282400	0.126700	0.551300
C111	C11	0.243400	0.076900	0.654000
H41	H4	0.552500	0.354600	0.377500
C121	C12	0.278200	0.155200	0.696800
Zn31	Zn3	0.901670	0.243090	0.333160
O111	O11	0.930900	0.212300	0.429300
O121	O12	0.796500	0.239700	0.349900
O131	O13	0.849100	0.120100	0.766900
C131	C13	0.812000	0.308300	0.370700
O141	O14	0.777400	0.093000	0.662700
O151	O15	0.881900	0.368900	0.380900
C141	C14	0.735700	0.322500	0.377000
C151	C15	0.924200	0.177900	0.577600
C161	C16	0.653600	0.252600	0.377200
H51	H5	0.873300	0.155700	0.551300
C171	C17	0.923100	0.166500	0.654000
H61	H6	0.645400	0.197900	0.377500
C181	C18	0.844800	0.123000	0.696800
Zn41	Zn4	0.243090	0.341420	0.833160
O161	O16	0.212300	0.281400	0.929300
O171	O17	0.239700	0.443200	0.849900
O181	O18	0.120100	0.271000	0.266900
C191	C19	0.308300	0.496300	0.870700
O191	O19	0.093000	0.315600	0.162700
O201	O20	0.368900	0.487000	0.880900
C201	C20	0.322500	0.586800	0.877000
C211	C21	0.177900	0.253700	0.077600
C221	C22	0.252600	0.599000	0.877200
H71	H7	0.155700	0.282400	0.051300
C231	C23	0.166500	0.243400	0.154000
H81	H8	0.197900	0.552500	0.877500
C241	C24	0.123000	0.278200	0.196800
Zn51	Zn5	0.658580	0.901670	0.833160
O211	O21	0.718600	0.930900	0.929300
O221	O22	0.556800	0.796500	0.849900
O231	O23	0.729000	0.849100	0.266900
C251	C25	0.503700	0.812000	0.870700
O241	O24	0.684400	0.777400	0.162700
O251	O25	0.513000	0.881900	0.880900
C261	C26	0.413200	0.735700	0.877000
C271	C27	0.746300	0.924200	0.077600
C281	C28	0.401000	0.653600	0.877200
H91	H9	0.717600	0.873300	0.051300
C291	C29	0.756600	0.923100	0.154000
H101	H10	0.447500	0.645400	0.877500
C301	C30	0.721800	0.844800	0.196800
Zn61	Zn6	0.098330	0.756910	0.833160
O261	O26	0.069100	0.787700	0.929300
O271	O27	0.203500	0.760300	0.849900
O281	O28	0.150900	0.879900	0.266900
C311	C31	0.188000	0.691700	0.870700
O291	O29	0.222600	0.907000	0.162700
O301	O30	0.118100	0.631100	0.880900
C321	C32	0.264300	0.677500	0.877000
C331	C33	0.075800	0.822100	0.077600
C341	C34	0.346400	0.747400	0.877200
H111	H11	0.126700	0.844300	0.051300
C351	C35	0.076900	0.833500	0.154000
H121	H12	0.354600	0.802100	0.877500
C361	C36	0.155200	0.877000	0.196800
Zn71	Zn7	0.341420	0.243090	0.833160
O311	O31	0.281400	0.212300	0.929300
O321	O32	0.443200	0.239700	0.849900
O331	O33	0.271000	0.120100	0.266900
C371	C37	0.496300	0.308300	0.870700
O341	O34	0.315600	0.093000	0.162700
O351	O35	0.487000	0.368900	0.880900
C381	C38	0.586800	0.322500	0.877000
C391	C39	0.253700	0.177900	0.077600
C401	C40	0.599000	0.252600	0.877200
H131	H13	0.282400	0.155700	0.051300
C411	C41	0.243400	0.166500	0.154000
H141	H14	0.552500	0.197900	0.877500
C421	C42	0.278200	0.123000	0.196800
Zn81	Zn8	0.901670	0.658580	0.833160
O361	O36	0.930900	0.718600	0.929300
O371	O37	0.796500	0.556800	0.849900
O381	O38	0.849100	0.729000	0.266900
C431	C43	0.812000	0.503700	0.870700
O391	O39	0.777400	0.684400	0.162700
O401	O40	0.881900	0.513000	0.880900
C441	C44	0.735700	0.413200	0.877000
C451	C45	0.924200	0.746300	0.077600
C461	C46	0.653600	0.401000	0.877200
H151	H15	0.873300	0.717600	0.051300
C471	C47	0.923100	0.756600	0.154000
H161	H16	0.645400	0.447500	0.877500
C481	C48	0.844800	0.721800	0.196800
Zn91	Zn9	0.756910	0.098330	0.833160
O411	O41	0.787700	0.069100	0.929300
O421	O42	0.760300	0.203500	0.849900
O431	O43	0.879900	0.150900	0.266900
C491	C49	0.691700	0.188000	0.870700
O441	O44	0.907000	0.222600	0.162700
O451	O45	0.631100	0.118100	0.880900
C501	C50	0.677500	0.264300	0.877000
C511	C51	0.822100	0.075800	0.077600
C521	C52	0.747400	0.346400	0.877200
H171	H17	0.844300	0.126700	0.051300
C531	C53	0.833500	0.076900	0.154000
H181	H18	0.802100	0.354600	0.877500
C541	C54	0.877000	0.155200	0.196800
Zn101	Zn10	0.658580	0.756910	0.333160
O461	O46	0.718600	0.787700	0.429300
O471	O47	0.556800	0.760300	0.349900
O481	O48	0.729000	0.879900	0.766900
C551	C55	0.503700	0.691700	0.370700
O491	O49	0.684400	0.907000	0.662700
O501	O50	0.513000	0.631100	0.380900
C561	C56	0.413200	0.677500	0.377000
C571	C57	0.746300	0.822100	0.577600
C581	C58	0.401000	0.747400	0.377200
H191	H19	0.717600	0.844300	0.551300
C591	C59	0.756600	0.833500	0.654000
H201	H20	0.447500	0.802100	0.377500
C601	C60	0.721800	0.877000	0.696800
Zn111	Zn11	0.098330	0.341420	0.333160
O511	O51	0.069100	0.281400	0.429300
O521	O52	0.203500	0.443200	0.349900
O531	O53	0.150900	0.271000	0.766900
C611	C61	0.188000	0.496300	0.370700
O541	O54	0.222600	0.315600	0.662700
O551	O55	0.118100	0.487000	0.380900
C621	C62	0.264300	0.586800	0.377000
C631	C63	0.075800	0.253700	0.577600
C641	C64	0.346400	0.599000	0.377200
H211	H21	0.126700	0.282400	0.551300
C651	C65	0.076900	0.243400	0.654000
H221	H22	0.354600	0.552500	0.377500
C661	C66	0.155200	0.278200	0.696800
Zn121	Zn12	0.243090	0.901670	0.333160
O561	O56	0.212300	0.930900	0.429300
O571	O57	0.239700	0.796500	0.349900
O581	O58	0.120100	0.849100	0.766900
C671	C67	0.308300	0.812000	0.370700
O591	O59	0.093000	0.777400	0.662700
O601	O60	0.368900	0.881900	0.380900
C681	C68	0.322500	0.735700	0.377000
C691	C69	0.177900	0.924200	0.577600
C701	C70	0.252600	0.653600	0.377200
H231	H23	0.155700	0.873300	0.551300
C711	C71	0.166500	0.923100	0.654000
H241	H24	0.197900	0.645400	0.377500
C721	C72	0.123000	0.844800	0.696800
O611	O61	0.657100	0.657100	0.292100
Co11	Co1	0.650660	0.650660	0.175400
C731	C73	0.760200	0.760200	0.460400
C741	C74	0.778000	0.778000	0.539400
C751	C75	0.803700	0.803700	0.692100
H251	H25	0.815250	0.815250	0.743000
O621	O62	0.342900	0.000000	0.292100
Co21	Co2	0.349340	0.000000	0.175400
C761	C76	0.239800	0.000000	0.460400
C771	C77	0.222000	0.000000	0.539400
C781	C78	0.196300	0.000000	0.692100
H261	H26	0.184750	0.000000	0.743000
O631	O63	0.000000	0.342900	0.292100
Co31	Co3	0.000000	0.349340	0.175400
C791	C79	0.000000	0.239800	0.460400
C801	C80	0.000000	0.222000	0.539400
C811	C81	0.000000	0.196300	0.692100
H271	H27	0.000000	0.184750	0.743000
O641	O64	0.342900	0.342900	0.792100
Co41	Co4	0.349340	0.349340	0.675400
C821	C82	0.239800	0.239800	0.960400
C831	C83	0.222000	0.222000	0.039400
C841	C84	0.196300	0.196300	0.192100
H281	H28	0.184750	0.184750	0.243000
O651	O65	0.657100	0.000000	0.792100
Co51	Co5	0.650660	0.000000	0.675400
C851	C85	0.760200	0.000000	0.960400
C861	C86	0.778000	0.000000	0.039400
C871	C87	0.803700	0.000000	0.192100
H291	H29	0.815250	0.000000	0.243000
O661	O66	0.000000	0.657100	0.792100
Co61	Co6	0.000000	0.650660	0.675400
C881	C88	0.000000	0.760200	0.960400
C891	C89	0.000000	0.778000	0.039400
C901	C90	0.000000	0.803700	0.192100
H301	H30	0.000000	0.815250	0.243000
