data_EWUKIS_clean_PM
_symmetry_space_group_name_H-M	'P1'
_cell_length_a	18.368000
_cell_length_b	18.368000
_cell_length_c	17.964000
_cell_angle_alpha	90.000000
_cell_angle_beta	90.000000
_cell_angle_gamma	120.000000
_symmetry_Int_Tables_number 1

loop_
_symmetry_equiv_pos_as_xyz
'x,y,z'

loop_
_atom_site_label
_atom_site_type_symbol
_atom_site_fract_x
_atom_site_fract_y
_atom_site_fract_z
O11	O1	0.317600	0.224300	0.842600
Zn11	Zn1	0.243130	0.341570	0.670440
C11	C1	0.279200	0.157400	0.806500
O21	O2	0.211900	0.281900	0.575500
O31	O3	0.236500	0.442000	0.654800
O41	O4	0.151600	0.271300	0.737300
C21	C2	0.241700	0.075900	0.849600
C31	C3	0.308600	0.499000	0.633000
C41	C4	0.253700	0.076000	0.925000
O51	O5	0.368100	0.486000	0.621400
C51	C5	0.321600	0.585900	0.624400
H11	H1	0.283000	0.127300	0.950700
C61	C6	0.252400	0.598700	0.624500
H21	H2	0.197600	0.552200	0.624700
O61	O6	0.775700	0.093300	0.842600
Zn21	Zn2	0.658430	0.901560	0.670440
C71	C7	0.842600	0.121800	0.806500
O71	O7	0.718100	0.930000	0.575500
O81	O8	0.558000	0.794500	0.654800
O91	O9	0.728700	0.880300	0.737300
C81	C8	0.924100	0.165800	0.849600
C91	C9	0.501000	0.809600	0.633000
C101	C10	0.924000	0.177700	0.925000
O101	O10	0.514000	0.882100	0.621400
C111	C11	0.414100	0.735700	0.624400
H31	H3	0.872700	0.155700	0.950700
C121	C12	0.401300	0.653700	0.624500
H41	H4	0.447800	0.645400	0.624700
O111	O11	0.906700	0.682400	0.842600
Zn31	Zn3	0.098440	0.756870	0.670440
C131	C13	0.878200	0.720800	0.806500
O121	O12	0.070000	0.788100	0.575500
O131	O13	0.205500	0.763500	0.654800
O141	O14	0.119700	0.848400	0.737300
C141	C14	0.834200	0.758300	0.849600
C151	C15	0.190400	0.691400	0.633000
C161	C16	0.822300	0.746300	0.925000
O151	O15	0.117900	0.631900	0.621400
C171	C17	0.264300	0.678400	0.624400
H51	H5	0.844300	0.717000	0.950700
C181	C18	0.346300	0.747600	0.624500
H61	H6	0.354600	0.802400	0.624700
O161	O16	0.682400	0.775700	0.342600
Zn41	Zn4	0.756870	0.658430	0.170440
C191	C19	0.720800	0.842600	0.306500
O171	O17	0.788100	0.718100	0.075500
O181	O18	0.763500	0.558000	0.154800
O191	O19	0.848400	0.728700	0.237300
C201	C20	0.758300	0.924100	0.349600
C211	C21	0.691400	0.501000	0.133000
C221	C22	0.746300	0.924000	0.425000
O201	O20	0.631900	0.514000	0.121400
C231	C23	0.678400	0.414100	0.124400
H71	H7	0.717000	0.872700	0.450700
C241	C24	0.747600	0.401300	0.124500
H81	H8	0.802400	0.447800	0.124700
O211	O21	0.224300	0.906700	0.342600
Zn51	Zn5	0.341570	0.098440	0.170440
C251	C25	0.157400	0.878200	0.306500
O221	O22	0.281900	0.070000	0.075500
O231	O23	0.442000	0.205500	0.154800
O241	O24	0.271300	0.119700	0.237300
C261	C26	0.075900	0.834200	0.349600
C271	C27	0.499000	0.190400	0.133000
C281	C28	0.076000	0.822300	0.425000
O251	O25	0.486000	0.117900	0.121400
C291	C29	0.585900	0.264300	0.124400
H91	H9	0.127300	0.844300	0.450700
C301	C30	0.598700	0.346300	0.124500
H101	H10	0.552200	0.354600	0.124700
O261	O26	0.093300	0.317600	0.342600
Zn61	Zn6	0.901560	0.243130	0.170440
C311	C31	0.121800	0.279200	0.306500
O271	O27	0.930000	0.211900	0.075500
O281	O28	0.794500	0.236500	0.154800
O291	O29	0.880300	0.151600	0.237300
C321	C32	0.165800	0.241700	0.349600
C331	C33	0.809600	0.308600	0.133000
C341	C34	0.177700	0.253700	0.425000
O301	O30	0.882100	0.368100	0.121400
C351	C35	0.735700	0.321600	0.124400
H111	H11	0.155700	0.283000	0.450700
C361	C36	0.653700	0.252400	0.124500
H121	H12	0.645400	0.197600	0.124700
O311	O31	0.775700	0.682400	0.342600
Zn71	Zn7	0.658430	0.756870	0.170440
C371	C37	0.842600	0.720800	0.306500
O321	O32	0.718100	0.788100	0.075500
O331	O33	0.558000	0.763500	0.154800
O341	O34	0.728700	0.848400	0.237300
C381	C38	0.924100	0.758300	0.349600
C391	C39	0.501000	0.691400	0.133000
C401	C40	0.924000	0.746300	0.425000
O351	O35	0.514000	0.631900	0.121400
C411	C41	0.414100	0.678400	0.124400
H131	H13	0.872700	0.717000	0.450700
C421	C42	0.401300	0.747600	0.124500
H141	H14	0.447800	0.802400	0.124700
O361	O36	0.906700	0.224300	0.342600
Zn81	Zn8	0.098440	0.341570	0.170440
C431	C43	0.878200	0.157400	0.306500
O371	O37	0.070000	0.281900	0.075500
O381	O38	0.205500	0.442000	0.154800
O391	O39	0.119700	0.271300	0.237300
C441	C44	0.834200	0.075900	0.349600
C451	C45	0.190400	0.499000	0.133000
C461	C46	0.822300	0.076000	0.425000
O401	O40	0.117900	0.486000	0.121400
C471	C47	0.264300	0.585900	0.124400
H151	H15	0.844300	0.127300	0.450700
C481	C48	0.346300	0.598700	0.124500
H161	H16	0.354600	0.552200	0.124700
O411	O41	0.317600	0.093300	0.342600
Zn91	Zn9	0.243130	0.901560	0.170440
C491	C49	0.279200	0.121800	0.306500
O421	O42	0.211900	0.930000	0.075500
O431	O43	0.236500	0.794500	0.154800
O441	O44	0.151600	0.880300	0.237300
C501	C50	0.241700	0.165800	0.349600
C511	C51	0.308600	0.809600	0.133000
C521	C52	0.253700	0.177700	0.425000
O451	O45	0.368100	0.882100	0.121400
C531	C53	0.321600	0.735700	0.124400
H171	H17	0.283000	0.155700	0.450700
C541	C54	0.252400	0.653700	0.124500
H181	H18	0.197600	0.645400	0.124700
O461	O46	0.224300	0.317600	0.842600
Zn101	Zn10	0.341570	0.243130	0.670440
C551	C55	0.157400	0.279200	0.806500
O471	O47	0.281900	0.211900	0.575500
O481	O48	0.442000	0.236500	0.654800
O491	O49	0.271300	0.151600	0.737300
C561	C56	0.075900	0.241700	0.849600
C571	C57	0.499000	0.308600	0.633000
C581	C58	0.076000	0.253700	0.925000
O501	O50	0.486000	0.368100	0.621400
C591	C59	0.585900	0.321600	0.624400
H191	H19	0.127300	0.283000	0.950700
C601	C60	0.598700	0.252400	0.624500
H201	H20	0.552200	0.197600	0.624700
O511	O51	0.093300	0.775700	0.842600
Zn111	Zn11	0.901560	0.658430	0.670440
C611	C61	0.121800	0.842600	0.806500
O521	O52	0.930000	0.718100	0.575500
O531	O53	0.794500	0.558000	0.654800
O541	O54	0.880300	0.728700	0.737300
C621	C62	0.165800	0.924100	0.849600
C631	C63	0.809600	0.501000	0.633000
C641	C64	0.177700	0.924000	0.925000
O551	O55	0.882100	0.514000	0.621400
C651	C65	0.735700	0.414100	0.624400
H211	H21	0.155700	0.872700	0.950700
C661	C66	0.653700	0.401300	0.624500
H221	H22	0.645400	0.447800	0.624700
O561	O56	0.682400	0.906700	0.842600
Zn121	Zn12	0.756870	0.098440	0.670440
C671	C67	0.720800	0.878200	0.806500
O571	O57	0.788100	0.070000	0.575500
O581	O58	0.763500	0.205500	0.654800
O591	O59	0.848400	0.119700	0.737300
C681	C68	0.758300	0.834200	0.849600
C691	C69	0.691400	0.190400	0.633000
C701	C70	0.746300	0.822300	0.925000
O601	O60	0.631900	0.117900	0.621400
C711	C71	0.678400	0.264300	0.624400
H231	H23	0.717000	0.844300	0.950700
C721	C72	0.747600	0.346300	0.624500
H241	H24	0.802400	0.354600	0.624700
Zn131	Zn13	0.349100	0.349100	0.828240
O611	O61	0.343500	0.343500	0.712700
C731	C73	0.239100	0.239100	0.545200
C741	C74	0.222400	0.222400	0.464200
Zn141	Zn14	0.650900	0.000000	0.828240
O621	O62	0.656500	0.000000	0.712700
C751	C75	0.760900	0.000000	0.545200
C761	C76	0.777600	0.000000	0.464200
Zn151	Zn15	0.000000	0.650900	0.828240
O631	O63	0.000000	0.656500	0.712700
C771	C77	0.000000	0.760900	0.545200
C781	C78	0.000000	0.777600	0.464200
Zn161	Zn16	0.650900	0.650900	0.328240
O641	O64	0.656500	0.656500	0.212700
C791	C79	0.760900	0.760900	0.045200
C801	C80	0.777600	0.777600	0.964200
Zn171	Zn17	0.349100	0.000000	0.328240
O651	O65	0.343500	0.000000	0.212700
C811	C81	0.239100	0.000000	0.045200
C821	C82	0.222400	0.000000	0.964200
Zn181	Zn18	0.000000	0.349100	0.328240
O661	O66	0.000000	0.343500	0.212700
C831	C83	0.000000	0.239100	0.045200
C841	C84	0.000000	0.222400	0.964200
C851	C85	0.197700	0.000000	0.811100
H251	H25	0.189600	0.000000	0.759500
C861	C86	0.000000	0.197700	0.811100
H261	H26	0.000000	0.189600	0.759500
C871	C87	0.802300	0.802300	0.811100
H271	H27	0.810400	0.810400	0.759500
C881	C88	0.802300	0.000000	0.311100
H281	H28	0.810400	0.000000	0.259500
C891	C89	0.000000	0.802300	0.311100
H291	H29	0.000000	0.810400	0.259500
C901	C90	0.197700	0.197700	0.311100
H301	H30	0.189600	0.189600	0.259500
