data_EWUSOF_clean_PM
_symmetry_space_group_name_H-M	'P1'
_cell_length_a	19.570000
_cell_length_b	19.570000
_cell_length_c	31.885200
_cell_angle_alpha	105.204000
_cell_angle_beta	105.204000
_cell_angle_gamma	98.360400
_symmetry_Int_Tables_number 1

loop_
_symmetry_equiv_pos_as_xyz
'x,y,z'

loop_
_atom_site_label
_atom_site_type_symbol
_atom_site_fract_x
_atom_site_fract_y
_atom_site_fract_z
Cu11	Cu1	0.140860	0.714380	0.918420
Cu21	Cu2	0.262150	0.633170	0.985820
Cu31	Cu3	0.231180	0.815120	0.037600
Cu41	Cu4	0.795960	0.722440	0.581580
Cu51	Cu5	0.647350	0.776330	0.514180
Cu61	Cu6	0.777520	0.693580	0.462400
Cu71	Cu7	0.859140	0.285620	0.081580
Cu81	Cu8	0.737850	0.366830	0.014180
Cu91	Cu9	0.768820	0.184880	0.962400
Cu101	Cu10	0.204040	0.277560	0.418420
Cu111	Cu11	0.352650	0.223670	0.485820
Cu121	Cu12	0.222480	0.306420	0.537600
Mo11	Mo1	0.280700	0.760140	0.969240
Mo21	Mo2	0.790900	0.811460	0.530760
Mo31	Mo3	0.719300	0.239860	0.030760
Mo41	Mo4	0.209100	0.188540	0.469240
H11	H1	0.407800	0.453000	0.021200
H21	H2	0.314600	0.505600	0.015600
H31	H3	0.501000	0.592200	0.973600
H41	H4	0.402300	0.645100	0.969600
H51	H5	0.076800	0.414000	0.961800
H61	H6	0.153000	0.488400	0.943600
H71	H7	0.075000	0.723800	0.999800
H81	H8	0.051600	0.501000	0.098600
H91	H9	0.009900	0.344500	0.981000
H101	H10	0.025500	0.573700	0.881400
H111	H11	0.201000	0.633000	0.061200
H121	H12	0.115000	0.647400	0.819400
H131	H13	0.017300	0.772900	0.879200
H141	H14	0.126600	0.561400	0.084400
H151	H15	0.948100	0.774500	0.812000
H161	H16	0.046200	0.647200	0.751000
H171	H17	0.431800	0.886600	0.478800
H181	H18	0.490000	0.799000	0.484400
H191	H19	0.618600	0.027400	0.526400
H201	H20	0.675500	0.932700	0.530400
H211	H21	0.452200	0.615000	0.538200
H221	H22	0.544800	0.709400	0.556400
H231	H23	0.724000	0.575200	0.500200
H241	H24	0.402400	0.453000	0.401400
H251	H25	0.363500	0.528900	0.519000
H261	H26	0.692300	0.644100	0.618600
H271	H27	0.571800	0.639800	0.438800
H281	H28	0.828000	0.795600	0.680600
H291	H29	0.893700	0.638100	0.620800
H301	H30	0.477000	0.542200	0.415600
H311	H31	0.962500	0.636100	0.688000
H321	H32	0.896200	0.795200	0.749000
H331	H33	0.592200	0.547000	0.978800
H341	H34	0.685400	0.494400	0.984400
H351	H35	0.499000	0.407800	0.026400
H361	H36	0.597700	0.354900	0.030400
H371	H37	0.923200	0.586000	0.038200
H381	H38	0.847000	0.511600	0.056400
H391	H39	0.925000	0.276200	0.000200
H401	H40	0.948400	0.499000	0.901400
H411	H41	0.990100	0.655500	0.019000
H421	H42	0.974500	0.426300	0.118600
H431	H43	0.799000	0.367000	0.938800
H441	H44	0.885000	0.352600	0.180600
H451	H45	0.982700	0.227100	0.120800
H461	H46	0.873400	0.438600	0.915600
H471	H47	0.051900	0.225500	0.188000
H481	H48	0.953800	0.352800	0.249000
H491	H49	0.568200	0.113400	0.521200
H501	H50	0.510000	0.201000	0.515600
H511	H51	0.381400	0.972600	0.473600
H521	H52	0.324500	0.067300	0.469600
H531	H53	0.547800	0.385000	0.461800
H541	H54	0.455200	0.290600	0.443600
H551	H55	0.276000	0.424800	0.499800
H561	H56	0.597600	0.547000	0.598600
H571	H57	0.636500	0.471100	0.481000
H581	H58	0.307700	0.355900	0.381400
H591	H59	0.428200	0.360200	0.561200
H601	H60	0.172000	0.204400	0.319400
H611	H61	0.106300	0.361900	0.379200
H621	H62	0.523000	0.457800	0.584400
H631	H63	0.037500	0.363900	0.312000
H641	H64	0.103800	0.204800	0.251000
C11	C1	0.408200	0.491800	0.009400
C21	C2	0.465900	0.514900	0.996600
C31	C3	0.352500	0.523500	0.006000
C41	C4	0.462500	0.572500	0.982000
C51	C5	0.402000	0.604200	0.979200
C61	C6	0.038600	0.429800	0.038000
C71	C7	0.089900	0.477100	0.025000
C81	C8	0.101800	0.459000	0.983400
C91	C9	0.988900	0.716100	0.773800
C101	C10	0.147800	0.503800	0.972600
C111	C11	0.048300	0.679100	0.978600
C121	C12	0.027700	0.454700	0.078800
C131	C13	0.001700	0.362300	0.008800
C141	C14	0.020000	0.590400	0.910200
C151	C15	0.175700	0.587300	0.041000
C161	C16	0.081500	0.676500	0.819000
C171	C17	0.026200	0.747600	0.852800
C181	C18	0.130400	0.545200	0.055200
C191	C19	0.983900	0.748100	0.811800
C201	C20	0.039800	0.675800	0.777400
C211	C21	0.482400	0.898800	0.490600
C221	C22	0.518300	0.969300	0.503400
C231	C23	0.517500	0.846500	0.494000
C241	C24	0.590500	0.980500	0.518000
C251	C25	0.625000	0.922800	0.520800
C261	C26	0.391800	0.500600	0.462000
C271	C27	0.452100	0.564900	0.475000
C281	C28	0.475600	0.618400	0.516600
C291	C29	0.942300	0.715100	0.726200
C301	C30	0.531200	0.675200	0.527400
C311	C31	0.700500	0.569700	0.521400
C321	C32	0.375900	0.448900	0.421200
C331	C33	0.353500	0.492900	0.491200
C341	C34	0.680200	0.609800	0.589800
C351	C35	0.546300	0.634700	0.459000
C361	C36	0.857500	0.762500	0.681000
C371	C37	0.894800	0.673400	0.647200
C381	C38	0.490000	0.575200	0.444800
C391	C39	0.936300	0.672100	0.688200
C401	C40	0.898400	0.762400	0.722600
C411	C41	0.591800	0.508200	0.990600
C421	C42	0.534100	0.485100	0.003400
C431	C43	0.647500	0.476500	0.994000
C441	C44	0.537500	0.427500	0.018000
C451	C45	0.598000	0.395800	0.020800
C461	C46	0.961400	0.570200	0.962000
C471	C47	0.910100	0.522900	0.975000
C481	C48	0.898200	0.541000	0.016600
C491	C49	0.011100	0.283900	0.226200
C501	C50	0.852200	0.496200	0.027400
C511	C51	0.951700	0.320900	0.021400
C521	C52	0.972300	0.545300	0.921200
C531	C53	0.998300	0.637700	0.991200
C541	C54	0.980000	0.409600	0.089800
C551	C55	0.824300	0.412700	0.959000
C561	C56	0.918500	0.323500	0.181000
C571	C57	0.973800	0.252400	0.147200
C581	C58	0.869600	0.454800	0.944800
C591	C59	0.016100	0.251900	0.188200
C601	C60	0.960200	0.324200	0.222600
C611	C61	0.517600	0.101200	0.509400
C621	C62	0.481700	0.030700	0.496600
C631	C63	0.482500	0.153500	0.506000
C641	C64	0.409500	0.019500	0.482000
C651	C65	0.375000	0.077200	0.479200
C661	C66	0.608200	0.499400	0.538000
C671	C67	0.547900	0.435100	0.525000
C681	C68	0.524400	0.381600	0.483400
C691	C69	0.057700	0.284900	0.273800
C701	C70	0.468800	0.324800	0.472600
C711	C71	0.299500	0.430300	0.478600
C721	C72	0.624100	0.551100	0.578800
C731	C73	0.646500	0.507100	0.508800
C741	C74	0.319800	0.390200	0.410200
C751	C75	0.453700	0.365300	0.541000
C761	C76	0.142500	0.237500	0.319000
C771	C77	0.105200	0.326600	0.352800
C781	C78	0.510000	0.424800	0.555200
C791	C79	0.063700	0.327900	0.311800
C801	C80	0.101600	0.237600	0.277400
S11	S1	0.196500	0.828020	0.967460
S21	S2	0.228220	0.649920	0.916220
S31	S3	0.311760	0.744500	0.038900
S41	S4	0.860560	0.729040	0.532540
S51	S5	0.733700	0.812000	0.583780
S61	S6	0.705600	0.772860	0.461100
S71	S7	0.803500	0.171980	0.032540
S81	S8	0.771780	0.350080	0.083780
S91	S9	0.688240	0.255500	0.961100
S101	S10	0.139440	0.270960	0.467460
S111	S11	0.266300	0.188000	0.416220
S121	S12	0.294400	0.227140	0.538900
N11	N1	0.186380	0.568180	0.000360
N21	N2	0.347170	0.578970	0.989540
N31	N3	0.061350	0.659950	0.938500
N41	N4	0.078360	0.713560	0.856920
N51	N5	0.567820	0.686020	0.499640
N61	N6	0.589430	0.857630	0.510460
N71	N7	0.721450	0.622850	0.561500
N81	N8	0.856640	0.721440	0.643080
N91	N9	0.813620	0.431820	0.999640
N101	N10	0.652830	0.421030	0.010460
N111	N11	0.938650	0.340050	0.061500
N121	N12	0.921640	0.286440	0.143080
N131	N13	0.432180	0.313980	0.500360
N141	N14	0.410570	0.142370	0.489540
N151	N15	0.278550	0.377150	0.438500
N161	N16	0.143360	0.278560	0.356920
Cl11	Cl1	0.165690	0.833230	0.086720
Cl21	Cl2	0.746510	0.578970	0.413280
Cl31	Cl3	0.834310	0.166770	0.913280
Cl41	Cl4	0.253490	0.421030	0.586720
Cu131	Cu13	0.777560	0.704040	0.918420
Cu141	Cu14	0.723670	0.852650	0.985820
Cu151	Cu15	0.806420	0.722480	0.037600
Cu161	Cu16	0.785620	0.359140	0.581580
Cu171	Cu17	0.866830	0.237850	0.514180
Cu181	Cu18	0.684880	0.268820	0.462400
Cu191	Cu19	0.222440	0.295960	0.081580
Cu201	Cu20	0.276330	0.147350	0.014180
Cu211	Cu21	0.193580	0.277520	0.962400
Cu221	Cu22	0.214380	0.640860	0.418420
Cu231	Cu23	0.133170	0.762150	0.485820
Cu241	Cu24	0.315120	0.731180	0.537600
Mo51	Mo5	0.688540	0.709100	0.969240
Mo61	Mo6	0.739860	0.219300	0.530760
Mo71	Mo7	0.311460	0.290900	0.030760
Mo81	Mo8	0.260140	0.780700	0.469240
H651	H65	0.613400	0.068200	0.021200
H661	H66	0.701000	0.010000	0.015600
H671	H67	0.472600	0.881400	0.973600
H681	H68	0.567300	0.824500	0.969600
H691	H69	0.885000	0.047800	0.961800
H701	H70	0.790600	0.955200	0.943600
H711	H71	0.924800	0.776000	0.999800
H721	H72	0.047000	0.097600	0.098600
H731	H73	0.971100	0.136500	0.981000
H741	H74	0.855900	0.807700	0.881400
H751	H75	0.860200	0.928200	0.061200
H761	H76	0.704400	0.672000	0.819400
H771	H77	0.861900	0.606300	0.879200
H781	H78	0.957800	0.023000	0.084400
H791	H79	0.863900	0.537500	0.812000
H801	H80	0.704800	0.603800	0.751000
H811	H81	0.047000	0.092200	0.478800
H821	H82	0.994400	0.185400	0.484400
H831	H83	0.907800	0.999000	0.526400
H841	H84	0.854900	0.097700	0.530400
H851	H85	0.086000	0.423200	0.538200
H861	H86	0.011600	0.347000	0.556400
H871	H87	0.776200	0.425000	0.500200
H881	H88	0.999000	0.448400	0.401400
H891	H89	0.155500	0.490100	0.519000
H901	H90	0.926300	0.474500	0.618600
H911	H91	0.867000	0.299000	0.438800
H921	H92	0.852600	0.385000	0.680600
H931	H93	0.727100	0.482700	0.620800
H941	H94	0.938600	0.373400	0.415600
H951	H95	0.725500	0.551900	0.688000
H961	H96	0.852800	0.453800	0.749000
H971	H97	0.386600	0.931800	0.978800
H981	H98	0.299000	0.990000	0.984400
H991	H99	0.527400	0.118600	0.026400
H1001	H100	0.432700	0.175500	0.030400
H1011	H101	0.115000	0.952200	0.038200
H1021	H102	0.209400	0.044800	0.056400
H1031	H103	0.075200	0.224000	0.000200
H1041	H104	0.953000	0.902400	0.901400
H1051	H105	0.028900	0.863500	0.019000
H1061	H106	0.144100	0.192300	0.118600
H1071	H107	0.139800	0.071800	0.938800
H1081	H108	0.295600	0.328000	0.180600
H1091	H109	0.138100	0.393700	0.120800
H1101	H110	0.042200	0.977000	0.915600
H1111	H111	0.136100	0.462500	0.188000
H1121	H112	0.295200	0.396200	0.249000
H1131	H113	0.953000	0.907800	0.521200
H1141	H114	0.005600	0.814600	0.515600
H1151	H115	0.092200	0.001000	0.473600
H1161	H116	0.145100	0.902300	0.469600
H1171	H117	0.914000	0.576800	0.461800
H1181	H118	0.988400	0.653000	0.443600
H1191	H119	0.223800	0.575000	0.499800
H1201	H120	0.001000	0.551600	0.598600
H1211	H121	0.844500	0.509900	0.481000
H1221	H122	0.073700	0.525500	0.381400
H1231	H123	0.133000	0.701000	0.561200
H1241	H124	0.147400	0.615000	0.319400
H1251	H125	0.272900	0.517300	0.379200
H1261	H126	0.061400	0.626600	0.584400
H1271	H127	0.274500	0.448100	0.312000
H1281	H128	0.147200	0.546200	0.251000
C811	C81	0.601200	0.017600	0.009400
C821	C82	0.530700	0.981700	0.996600
C831	C83	0.653500	0.982500	0.006000
C841	C84	0.519500	0.909500	0.982000
C851	C85	0.577200	0.875000	0.979200
C861	C86	0.999400	0.108200	0.038000
C871	C87	0.935100	0.047900	0.025000
C881	C88	0.881600	0.024400	0.983400
C891	C89	0.784900	0.557700	0.773800
C901	C90	0.824800	0.968800	0.972600
C911	C91	0.930300	0.799500	0.978600
C921	C92	0.051100	0.124100	0.078800
C931	C93	0.007100	0.146500	0.008800
C941	C94	0.890200	0.819800	0.910200
C951	C95	0.865300	0.953700	0.041000
C961	C96	0.737500	0.642500	0.819000
C971	C97	0.826600	0.605200	0.852800
C981	C98	0.924800	0.010000	0.055200
C991	C99	0.827900	0.563700	0.811800
C1001	C100	0.737600	0.601600	0.777400
C1011	C101	0.008200	0.091800	0.490600
C1021	C102	0.985100	0.034100	0.503400
C1031	C103	0.976500	0.147500	0.494000
C1041	C104	0.927500	0.037500	0.518000
C1051	C105	0.895800	0.098000	0.520800
C1061	C106	0.070200	0.461400	0.462000
C1071	C107	0.022900	0.410100	0.475000
C1081	C108	0.041000	0.398200	0.516600
C1091	C109	0.783900	0.511100	0.726200
C1101	C110	0.996200	0.352200	0.527400
C1111	C111	0.820900	0.451700	0.521400
C1121	C112	0.045300	0.472300	0.421200
C1131	C113	0.137700	0.498300	0.491200
C1141	C114	0.909600	0.480000	0.589800
C1151	C115	0.912700	0.324300	0.459000
C1161	C116	0.823500	0.418500	0.681000
C1171	C117	0.752400	0.473800	0.647200
C1181	C118	0.954800	0.369600	0.444800
C1191	C119	0.751900	0.516100	0.688200
C1201	C120	0.824200	0.460200	0.722600
C1211	C121	0.398800	0.982400	0.990600
C1221	C122	0.469300	0.018300	0.003400
C1231	C123	0.346500	0.017500	0.994000
C1241	C124	0.480500	0.090500	0.018000
C1251	C125	0.422800	0.125000	0.020800
C1261	C126	0.000600	0.891800	0.962000
C1271	C127	0.064900	0.952100	0.975000
C1281	C128	0.118400	0.975600	0.016600
C1291	C129	0.215100	0.442300	0.226200
C1301	C130	0.175200	0.031200	0.027400
C1311	C131	0.069700	0.200500	0.021400
C1321	C132	0.948900	0.875900	0.921200
C1331	C133	0.992900	0.853500	0.991200
C1341	C134	0.109800	0.180200	0.089800
C1351	C135	0.134700	0.046300	0.959000
C1361	C136	0.262500	0.357500	0.181000
C1371	C137	0.173400	0.394800	0.147200
C1381	C138	0.075200	0.990000	0.944800
C1391	C139	0.172100	0.436300	0.188200
C1401	C140	0.262400	0.398400	0.222600
C1411	C141	0.991800	0.908200	0.509400
C1421	C142	0.014900	0.965900	0.496600
C1431	C143	0.023500	0.852500	0.506000
C1441	C144	0.072500	0.962500	0.482000
C1451	C145	0.104200	0.902000	0.479200
C1461	C146	0.929800	0.538600	0.538000
C1471	C147	0.977100	0.589900	0.525000
C1481	C148	0.959000	0.601800	0.483400
C1491	C149	0.216100	0.488900	0.273800
C1501	C150	0.003800	0.647800	0.472600
C1511	C151	0.179100	0.548300	0.478600
C1521	C152	0.954700	0.527700	0.578800
C1531	C153	0.862300	0.501700	0.508800
C1541	C154	0.090400	0.520000	0.410200
C1551	C155	0.087300	0.675700	0.541000
C1561	C156	0.176500	0.581500	0.319000
C1571	C157	0.247600	0.526200	0.352800
C1581	C158	0.045200	0.630400	0.555200
C1591	C159	0.248100	0.483900	0.311800
C1601	C160	0.175800	0.539800	0.277400
S131	S13	0.770960	0.639440	0.967460
S141	S14	0.688000	0.766300	0.916220
S151	S15	0.727140	0.794400	0.038900
S161	S16	0.671980	0.303500	0.532540
S171	S17	0.850080	0.271780	0.583780
S181	S18	0.755500	0.188240	0.461100
S191	S19	0.229040	0.360560	0.032540
S201	S20	0.312000	0.233700	0.083780
S211	S21	0.272860	0.205600	0.961100
S221	S22	0.328020	0.696500	0.467460
S231	S23	0.149920	0.728220	0.416220
S241	S24	0.244500	0.811760	0.538900
N171	N17	0.813980	0.932180	0.000360
N181	N18	0.642370	0.910570	0.989540
N191	N19	0.877150	0.778550	0.938500
N201	N20	0.778560	0.643360	0.856920
N211	N21	0.931820	0.313620	0.499640
N221	N22	0.921030	0.152830	0.510460
N231	N23	0.840050	0.438650	0.561500
N241	N24	0.786440	0.421640	0.643080
N251	N25	0.186020	0.067820	0.999640
N261	N26	0.357630	0.089430	0.010460
N271	N27	0.122850	0.221450	0.061500
N281	N28	0.221440	0.356640	0.143080
N291	N29	0.068180	0.686380	0.500360
N301	N30	0.078970	0.847170	0.489540
N311	N31	0.159950	0.561350	0.438500
N321	N32	0.213560	0.578360	0.356920
Cl51	Cl5	0.921030	0.753490	0.086720
Cl61	Cl6	0.666770	0.334310	0.413280
Cl71	Cl7	0.078970	0.246510	0.913280
Cl81	Cl8	0.333230	0.665690	0.586720
