data_EWUSUL_clean_PM
_symmetry_space_group_name_H-M	'P1'
_cell_length_a	19.571500
_cell_length_b	19.571600
_cell_length_c	31.964900
_cell_angle_alpha	74.855300
_cell_angle_beta	74.855400
_cell_angle_gamma	98.430700
_symmetry_Int_Tables_number 1

loop_
_symmetry_equiv_pos_as_xyz
'x,y,z'

loop_
_atom_site_label
_atom_site_type_symbol
_atom_site_fract_x
_atom_site_fract_y
_atom_site_fract_z
Cu11	Cu1	0.762090	0.131750	0.015080
Cu21	Cu2	0.730860	0.315380	0.962500
Cu31	Cu3	0.639420	0.214000	0.082060
Cu41	Cu4	0.146830	0.277170	0.484920
Cu51	Cu5	0.277880	0.193360	0.537500
Cu61	Cu6	0.296060	0.221480	0.417940
Cu71	Cu7	0.237910	0.868250	0.984920
Cu81	Cu8	0.269140	0.684620	0.037500
Cu91	Cu9	0.360580	0.786000	0.917940
Cu101	Cu10	0.853170	0.722830	0.515080
Cu111	Cu11	0.722120	0.806640	0.462500
Cu121	Cu12	0.703940	0.778520	0.582060
H11	H1	0.465900	0.926500	0.885200
H21	H2	0.548400	0.000000	0.900600
H31	H3	0.505400	0.842400	0.019600
H41	H4	0.430400	0.772000	0.996600
H51	H5	0.630300	0.056700	0.915400
H61	H6	0.702000	0.134400	0.942000
H71	H7	0.655900	0.987700	0.055200
H81	H8	0.577500	0.912300	0.038000
H91	H9	0.521600	0.273800	0.118200
H101	H10	0.444800	0.278400	0.189000
H111	H11	0.539300	0.144500	0.249600
H121	H12	0.623700	0.154300	0.181800
H131	H13	0.897300	0.136100	0.039400
H141	H14	0.999300	0.090300	0.029600
H151	H15	0.908900	0.953300	0.978600
H161	H16	0.815000	0.007200	0.982800
H171	H17	0.811700	0.851100	0.614800
H181	H18	0.900600	0.949000	0.599400
H191	H19	0.862000	0.025000	0.480400
H201	H20	0.768600	0.927000	0.503400
H211	H21	0.972100	0.045700	0.584600
H221	H22	0.076400	0.144000	0.558000
H231	H23	0.042900	0.211100	0.444800
H241	H24	0.950300	0.115500	0.462000
H251	H25	0.392000	0.139800	0.381800
H261	H26	0.467400	0.133800	0.311000
H271	H27	0.394100	0.288900	0.250400
H281	H28	0.336100	0.305500	0.318200
H291	H29	0.175500	0.436700	0.460600
H301	H30	0.119900	0.528900	0.470400
H311	H31	0.931900	0.387500	0.521400
H321	H32	0.990000	0.297800	0.517200
H331	H33	0.534100	0.073500	0.114800
H341	H34	0.451600	0.000000	0.099400
H351	H35	0.494600	0.157600	0.980400
H361	H36	0.569600	0.228000	0.003400
H371	H37	0.369700	0.943300	0.084600
H381	H38	0.298000	0.865600	0.058000
H391	H39	0.344100	0.012300	0.944800
H401	H40	0.422500	0.087700	0.962000
H411	H41	0.478400	0.726200	0.881800
H421	H42	0.555200	0.721600	0.811000
H431	H43	0.460700	0.855500	0.750400
H441	H44	0.376300	0.845700	0.818200
H451	H45	0.102700	0.863900	0.960600
H461	H46	0.000700	0.909700	0.970400
H471	H47	0.091100	0.046700	0.021400
H481	H48	0.185000	0.992800	0.017200
H491	H49	0.188300	0.148900	0.385200
H501	H50	0.099400	0.051000	0.400600
H511	H51	0.138000	0.975000	0.519600
H521	H52	0.231400	0.073000	0.496600
H531	H53	0.027900	0.954300	0.415400
H541	H54	0.923600	0.856000	0.442000
H551	H55	0.957100	0.788900	0.555200
H561	H56	0.049700	0.884500	0.538000
H571	H57	0.608000	0.860200	0.618200
H581	H58	0.532600	0.866200	0.689000
H591	H59	0.605900	0.711100	0.749600
H601	H60	0.663900	0.694500	0.681800
H611	H61	0.824500	0.563300	0.539400
H621	H62	0.880100	0.471100	0.529600
H631	H63	0.068100	0.612500	0.478600
H641	H64	0.010000	0.702200	0.482800
W11	W1	0.779930	0.259930	0.031120
W21	W2	0.291050	0.311050	0.468880
W31	W3	0.220070	0.740070	0.968880
W41	W4	0.708950	0.688950	0.531120
C11	C1	0.475600	0.908400	0.912400
C21	C2	0.525000	0.954200	0.921400
C31	C3	0.540200	0.930200	0.963400
C41	C4	0.500200	0.860800	0.991000
C51	C5	0.453700	0.818900	0.977200
C61	C6	0.589600	0.976400	0.976200
C71	C7	0.631600	0.042200	0.945200
C81	C8	0.677900	0.087900	0.961400
C91	C9	0.649500	0.003700	0.026600
C101	C10	0.601800	0.957400	0.016600
C111	C11	0.527600	0.248000	0.145400
C121	C12	0.479400	0.250400	0.189400
C131	C13	0.484300	0.214100	0.228600
C141	C14	0.536000	0.175800	0.223000
C151	C15	0.585600	0.177400	0.181800
C161	C16	0.900000	0.099600	0.025800
C171	C17	0.961400	0.070800	0.020600
C181	C18	0.967700	0.015100	0.003200
C191	C19	0.909100	0.992300	0.990200
C201	C20	0.851900	0.023500	0.993600
C211	C21	0.820800	0.888000	0.587600
C221	C22	0.875600	0.946400	0.578600
C231	C23	0.893600	0.003600	0.536600
C241	C24	0.851800	0.991200	0.509000
C251	C25	0.796100	0.930900	0.522800
C261	C26	0.952600	0.065800	0.523800
C271	C27	0.987400	0.076800	0.554800
C281	C28	0.049300	0.139300	0.538600
C291	C29	0.030300	0.176100	0.473400
C301	C30	0.974000	0.118400	0.483400
C311	C31	0.393400	0.173000	0.354600
C321	C32	0.439800	0.168800	0.310600
C331	C33	0.442700	0.212900	0.271400
C341	C34	0.398800	0.259000	0.277000
C351	C35	0.359200	0.267400	0.318200
C361	C36	0.125400	0.425800	0.474200
C371	C37	0.091400	0.482000	0.479400
C381	C38	0.018300	0.470900	0.496800
C391	C39	0.982500	0.399300	0.509800
C401	C40	0.017100	0.345500	0.506400
C411	C41	0.524400	0.091600	0.087600
C421	C42	0.475000	0.045800	0.078600
C431	C43	0.459800	0.069800	0.036600
C441	C44	0.499800	0.139200	0.009000
C451	C45	0.546300	0.181100	0.022800
C461	C46	0.410400	0.023600	0.023800
C471	C47	0.368400	0.957800	0.054800
C481	C48	0.322100	0.912100	0.038600
C491	C49	0.350500	0.996300	0.973400
C501	C50	0.398200	0.042600	0.983400
C511	C51	0.472400	0.752000	0.854600
C521	C52	0.520600	0.749600	0.810600
C531	C53	0.515700	0.785900	0.771400
C541	C54	0.464000	0.824200	0.777000
C551	C55	0.414400	0.822600	0.818200
C561	C56	0.100000	0.900400	0.974200
C571	C57	0.038600	0.929200	0.979400
C581	C58	0.032300	0.984900	0.996800
C591	C59	0.090900	0.007700	0.009800
C601	C60	0.148100	0.976500	0.006400
C611	C61	0.179200	0.112000	0.412400
C621	C62	0.124400	0.053600	0.421400
C631	C63	0.106400	0.996400	0.463400
C641	C64	0.148200	0.008800	0.491000
C651	C65	0.203900	0.069100	0.477200
C661	C66	0.047400	0.934200	0.476200
C671	C67	0.012600	0.923200	0.445200
C681	C68	0.950700	0.860700	0.461400
C691	C69	0.969700	0.823900	0.526600
C701	C70	0.026000	0.881600	0.516600
C711	C71	0.606600	0.827000	0.645400
C721	C72	0.560200	0.831200	0.689400
C731	C73	0.557300	0.787100	0.728600
C741	C74	0.601200	0.741000	0.723000
C751	C75	0.640800	0.732600	0.681800
C761	C76	0.874600	0.574200	0.525800
C771	C77	0.908600	0.518000	0.520600
C781	C78	0.981700	0.529100	0.503200
C791	C79	0.017500	0.600700	0.490200
C801	C80	0.982900	0.654500	0.493600
S11	S1	0.812230	0.244190	0.962320
S21	S2	0.728480	0.150400	0.084080
S31	S3	0.696570	0.328210	0.032580
S41	S4	0.206510	0.274550	0.537680
S51	S5	0.234480	0.312560	0.415920
S61	S6	0.360790	0.229150	0.467420
S71	S7	0.187770	0.755810	0.037680
S81	S8	0.271520	0.849600	0.915920
S91	S9	0.303430	0.671790	0.967420
S101	S10	0.793490	0.725450	0.462320
S111	S11	0.765520	0.687440	0.584080
S121	S12	0.639210	0.770850	0.532580
N11	N1	0.439600	0.841800	0.937400
N21	N2	0.687200	0.068600	0.999800
N31	N3	0.577100	0.211700	0.143800
N41	N4	0.846600	0.077200	0.012000
N51	N5	0.779200	0.877000	0.562600
N61	N6	0.068400	0.187000	0.500200
N71	N7	0.355500	0.220900	0.356200
N81	N8	0.089200	0.358600	0.488000
N91	N9	0.560400	0.158200	0.062600
N101	N10	0.312800	0.931400	0.000200
N111	N11	0.422900	0.788300	0.856200
N121	N12	0.153400	0.922800	0.988000
N131	N13	0.220800	0.123000	0.437400
N141	N14	0.931600	0.813000	0.499800
N151	N15	0.644500	0.779100	0.643800
N161	N16	0.910800	0.641400	0.512000
Cl11	Cl1	0.664550	0.331750	0.912300
Cl21	Cl2	0.244050	0.076850	0.587700
Cl31	Cl3	0.335450	0.668250	0.087700
Cl41	Cl4	0.755950	0.923150	0.412300
Cu131	Cu13	0.222830	0.353170	0.015080
Cu141	Cu14	0.306640	0.222120	0.962500
Cu151	Cu15	0.278520	0.203940	0.082060
Cu161	Cu16	0.368250	0.737910	0.484920
Cu171	Cu17	0.184620	0.769140	0.537500
Cu181	Cu18	0.286000	0.860580	0.417940
Cu191	Cu19	0.777170	0.646830	0.984920
Cu201	Cu20	0.693360	0.777880	0.037500
Cu211	Cu21	0.721480	0.796060	0.917940
Cu221	Cu22	0.631750	0.262090	0.515080
Cu231	Cu23	0.815380	0.230860	0.462500
Cu241	Cu24	0.714000	0.139420	0.582060
H651	H65	0.648900	0.688300	0.885200
H661	H66	0.551000	0.599400	0.900600
H671	H67	0.475000	0.638000	0.019600
H681	H68	0.573000	0.731400	0.996600
H691	H69	0.454300	0.527900	0.915400
H701	H70	0.356000	0.423600	0.942000
H711	H71	0.288900	0.457100	0.055200
H721	H72	0.384500	0.549700	0.038000
H731	H73	0.360200	0.108000	0.118200
H741	H74	0.366200	0.032600	0.189000
H751	H75	0.211100	0.105900	0.249600
H761	H76	0.194500	0.163900	0.181800
H771	H77	0.063300	0.324500	0.039400
H781	H78	0.971100	0.380100	0.029600
H791	H79	0.112500	0.568100	0.978600
H801	H80	0.202200	0.510000	0.982800
H811	H81	0.573500	0.034100	0.614800
H821	H82	0.500000	0.951600	0.599400
H831	H83	0.657600	0.994600	0.480400
H841	H84	0.728000	0.069600	0.503400
H851	H85	0.443300	0.869700	0.584600
H861	H86	0.365600	0.798000	0.558000
H871	H87	0.512300	0.844100	0.444800
H881	H88	0.587700	0.922500	0.462000
H891	H89	0.226200	0.978400	0.381800
H901	H90	0.221600	0.055200	0.311000
H911	H91	0.355500	0.960700	0.250400
H921	H92	0.345700	0.876300	0.318200
H931	H93	0.363900	0.602700	0.460600
H941	H94	0.409700	0.500700	0.470400
H951	H95	0.546700	0.591100	0.521400
H961	H96	0.492800	0.685000	0.517200
H971	H97	0.351100	0.311700	0.114800
H981	H98	0.449000	0.400600	0.099400
H991	H99	0.525000	0.362000	0.980400
H1001	H100	0.427000	0.268600	0.003400
H1011	H101	0.545700	0.472100	0.084600
H1021	H102	0.644000	0.576400	0.058000
H1031	H103	0.711100	0.542900	0.944800
H1041	H104	0.615500	0.450300	0.962000
H1051	H105	0.639800	0.892000	0.881800
H1061	H106	0.633800	0.967400	0.811000
H1071	H107	0.788900	0.894100	0.750400
H1081	H108	0.805500	0.836100	0.818200
H1091	H109	0.936700	0.675500	0.960600
H1101	H110	0.028900	0.619900	0.970400
H1111	H111	0.887500	0.431900	0.021400
H1121	H112	0.797800	0.490000	0.017200
H1131	H113	0.426500	0.965900	0.385200
H1141	H114	0.500000	0.048400	0.400600
H1151	H115	0.342400	0.005400	0.519600
H1161	H116	0.272000	0.930400	0.496600
H1171	H117	0.556700	0.130300	0.415400
H1181	H118	0.634400	0.202000	0.442000
H1191	H119	0.487700	0.155900	0.555200
H1201	H120	0.412300	0.077500	0.538000
H1211	H121	0.773800	0.021600	0.618200
H1221	H122	0.778400	0.944800	0.689000
H1231	H123	0.644500	0.039300	0.749600
H1241	H124	0.654300	0.123700	0.681800
H1251	H125	0.636100	0.397300	0.539400
H1261	H126	0.590300	0.499300	0.529600
H1271	H127	0.453300	0.408900	0.478600
H1281	H128	0.507200	0.315000	0.482800
W51	W5	0.188950	0.208950	0.031120
W61	W6	0.240070	0.720070	0.468880
W71	W7	0.811050	0.791050	0.968880
W81	W8	0.759930	0.279930	0.531120
C811	C81	0.612000	0.679200	0.912400
C821	C82	0.553600	0.624400	0.921400
C831	C83	0.496400	0.606400	0.963400
C841	C84	0.508800	0.648200	0.991000
C851	C85	0.569100	0.703900	0.977200
C861	C86	0.434200	0.547400	0.976200
C871	C87	0.423200	0.512600	0.945200
C881	C88	0.360700	0.450700	0.961400
C891	C89	0.323900	0.469700	0.026600
C901	C90	0.381600	0.526000	0.016600
C911	C91	0.327000	0.106600	0.145400
C921	C92	0.331200	0.060200	0.189400
C931	C93	0.287100	0.057300	0.228600
C941	C94	0.241000	0.101200	0.223000
C951	C95	0.232600	0.140800	0.181800
C961	C96	0.074200	0.374600	0.025800
C971	C97	0.018000	0.408600	0.020600
C981	C98	0.029100	0.481700	0.003200
C991	C99	0.100700	0.517500	0.990200
C1001	C100	0.154500	0.482900	0.993600
C1011	C101	0.591600	0.024400	0.587600
C1021	C102	0.545800	0.975000	0.578600
C1031	C103	0.569800	0.959800	0.536600
C1041	C104	0.639200	0.999800	0.509000
C1051	C105	0.681100	0.046300	0.522800
C1061	C106	0.523600	0.910400	0.523800
C1071	C107	0.457800	0.868400	0.554800
C1081	C108	0.412100	0.822100	0.538600
C1091	C109	0.496300	0.850500	0.473400
C1101	C110	0.542600	0.898200	0.483400
C1111	C111	0.252000	0.972400	0.354600
C1121	C112	0.249600	0.020600	0.310600
C1131	C113	0.285900	0.015700	0.271400
C1141	C114	0.324200	0.964000	0.277000
C1151	C115	0.322600	0.914400	0.318200
C1161	C116	0.400400	0.600000	0.474200
C1171	C117	0.429200	0.538600	0.479400
C1181	C118	0.484900	0.532300	0.496800
C1191	C119	0.507700	0.590900	0.509800
C1201	C120	0.476500	0.648100	0.506400
C1211	C121	0.388000	0.320800	0.087600
C1221	C122	0.446400	0.375600	0.078600
C1231	C123	0.503600	0.393600	0.036600
C1241	C124	0.491200	0.351800	0.009000
C1251	C125	0.430900	0.296100	0.022800
C1261	C126	0.565800	0.452600	0.023800
C1271	C127	0.576800	0.487400	0.054800
C1281	C128	0.639300	0.549300	0.038600
C1291	C129	0.676100	0.530300	0.973400
C1301	C130	0.618400	0.474000	0.983400
C1311	C131	0.673000	0.893400	0.854600
C1321	C132	0.668800	0.939800	0.810600
C1331	C133	0.712900	0.942700	0.771400
C1341	C134	0.759000	0.898800	0.777000
C1351	C135	0.767400	0.859200	0.818200
C1361	C136	0.925800	0.625400	0.974200
C1371	C137	0.982000	0.591400	0.979400
C1381	C138	0.970900	0.518300	0.996800
C1391	C139	0.899300	0.482500	0.009800
C1401	C140	0.845500	0.517100	0.006400
C1411	C141	0.408400	0.975600	0.412400
C1421	C142	0.454200	0.025000	0.421400
C1431	C143	0.430200	0.040200	0.463400
C1441	C144	0.360800	0.000200	0.491000
C1451	C145	0.318900	0.953700	0.477200
C1461	C146	0.476400	0.089600	0.476200
C1471	C147	0.542200	0.131600	0.445200
C1481	C148	0.587900	0.177900	0.461400
C1491	C149	0.503700	0.149500	0.526600
C1501	C150	0.457400	0.101800	0.516600
C1511	C151	0.748000	0.027600	0.645400
C1521	C152	0.750400	0.979400	0.689400
C1531	C153	0.714100	0.984300	0.728600
C1541	C154	0.675800	0.036000	0.723000
C1551	C155	0.677400	0.085600	0.681800
C1561	C156	0.599600	0.400000	0.525800
C1571	C157	0.570800	0.461400	0.520600
C1581	C158	0.515100	0.467700	0.503200
C1591	C159	0.492300	0.409100	0.490200
C1601	C160	0.523500	0.351900	0.493600
S131	S13	0.225450	0.293490	0.962320
S141	S14	0.187440	0.265520	0.084080
S151	S15	0.270850	0.139210	0.032580
S161	S16	0.255810	0.687770	0.537680
S171	S17	0.349600	0.771520	0.415920
S181	S18	0.171790	0.803430	0.467420
S191	S19	0.774550	0.706510	0.037680
S201	S20	0.812560	0.734480	0.915920
S211	S21	0.729150	0.860790	0.967420
S221	S22	0.744190	0.312230	0.462320
S231	S23	0.650400	0.228480	0.584080
S241	S24	0.828210	0.196570	0.532580
N171	N17	0.623000	0.720800	0.937400
N181	N18	0.313000	0.431600	0.999800
N191	N19	0.279100	0.144500	0.143800
N201	N20	0.141400	0.410800	0.012000
N211	N21	0.658200	0.060400	0.562600
N221	N22	0.431400	0.812800	0.500200
N231	N23	0.288300	0.922900	0.356200
N241	N24	0.422800	0.653400	0.488000
N251	N25	0.377000	0.279200	0.062600
N261	N26	0.687000	0.568400	0.000200
N271	N27	0.720900	0.855500	0.856200
N281	N28	0.858600	0.589200	0.988000
N291	N29	0.341800	0.939600	0.437400
N301	N30	0.568600	0.187200	0.499800
N311	N31	0.711700	0.077100	0.643800
N321	N32	0.577200	0.346600	0.512000
Cl51	Cl5	0.423150	0.255950	0.912300
Cl61	Cl6	0.168250	0.835450	0.587700
Cl71	Cl7	0.576850	0.744050	0.087700
Cl81	Cl8	0.831750	0.164550	0.412300
