data_EXALAR_clean_PM
_symmetry_space_group_name_H-M	'P1'
_cell_length_a	11.201000
_cell_length_b	14.943000
_cell_length_c	21.483000
_cell_angle_alpha	90.000000
_cell_angle_beta	92.096000
_cell_angle_gamma	90.000000
_symmetry_Int_Tables_number 1

loop_
_symmetry_equiv_pos_as_xyz
'x,y,z'

loop_
_atom_site_label
_atom_site_type_symbol
_atom_site_fract_x
_atom_site_fract_y
_atom_site_fract_z
Ni11	Ni1	0.901700	0.237400	0.699670
N11	N1	0.075500	0.154900	0.547100
N21	N2	0.018000	0.213700	0.632600
N31	N3	0.773000	0.257500	0.761200
N41	N4	0.643000	0.077800	0.614900
N51	N5	0.619400	0.226600	0.817600
N61	N6	0.487500	0.825800	0.761200
N71	N7	0.791400	0.149300	0.658200
N81	N8	0.408000	0.927000	0.693900
N91	N9	0.381000	0.949200	0.752900
N101	N10	0.631000	0.320200	0.815800
N111	N11	0.717000	0.012400	0.635800
N121	N12	0.162000	0.140100	0.587900
C11	C1	0.989000	0.198300	0.572100
H11	H1	0.918500	0.215900	0.551500
C21	C2	0.708500	0.195200	0.786300
H21	H2	0.724500	0.134400	0.782400
C31	C3	0.428000	0.885000	0.791800
H31	H3	0.418200	0.883200	0.834600
C41	C4	0.487000	0.100000	0.832100
H41	H4	0.450900	0.067400	0.865400
H51	H5	0.552300	0.064200	0.817200
C51	C5	0.538000	0.186000	0.858500
H61	H6	0.473800	0.227500	0.866000
H71	H7	0.579500	0.173800	0.898100
C61	C6	0.805000	0.059300	0.662300
H81	H8	0.871000	0.032800	0.682200
C71	C7	0.687000	0.153300	0.627800
H91	H9	0.649000	0.206900	0.616900
C81	C8	0.533000	0.055000	0.577700
H101	H10	0.483000	0.107400	0.573700
H111	H11	0.489100	0.009600	0.600000
C91	C9	0.078000	0.118000	0.482900
H121	H12	0.155300	0.130900	0.465300
H131	H13	0.016800	0.146500	0.456600
C101	C10	0.473000	0.854000	0.698700
H141	H14	0.504900	0.824300	0.665100
C111	C11	0.057000	0.014000	0.485800
H151	H15	0.057800	0.990000	0.443800
H161	H16	0.123000	0.986700	0.509400
C121	C12	0.725000	0.334000	0.780400
H171	H17	0.753600	0.390800	0.770400
C131	C13	0.557000	0.019800	0.513600
H181	H18	0.619400	0.974500	0.516100
H191	H19	0.584200	0.068200	0.487400
C141	C14	0.396000	0.112400	0.779600
H201	H20	0.435700	0.123100	0.741000
H211	H21	0.346300	0.164100	0.787900
C151	C15	0.131000	0.173800	0.639000
H221	H22	0.176400	0.172100	0.675900
C161	C16	0.315000	0.027600	0.772600
H231	H23	0.280100	0.015000	0.812300
H241	H24	0.250900	0.039700	0.742400
Ni21	Ni2	0.598300	0.737400	0.800330
N131	N13	0.424500	0.654900	0.952900
N141	N14	0.482000	0.713700	0.867400
N151	N15	0.727000	0.757500	0.738800
N161	N16	0.857000	0.577800	0.885100
N171	N17	0.880600	0.726600	0.682400
N181	N18	0.012500	0.325800	0.738800
N191	N19	0.708600	0.649300	0.841800
N201	N20	0.092000	0.427000	0.806100
N211	N21	0.119000	0.449200	0.747100
N221	N22	0.869000	0.820200	0.684200
N231	N23	0.783000	0.512400	0.864200
N241	N24	0.338000	0.640100	0.912100
C171	C17	0.511000	0.698300	0.927900
H251	H25	0.581500	0.715900	0.948500
C181	C18	0.791500	0.695200	0.713700
H261	H26	0.775500	0.634400	0.717600
C191	C19	0.072000	0.385000	0.708200
H271	H27	0.081800	0.383200	0.665400
C201	C20	0.013000	0.600000	0.667900
H281	H28	0.049100	0.567400	0.634600
H291	H29	0.947700	0.564200	0.682800
C211	C21	0.962000	0.686000	0.641500
H301	H30	0.026200	0.727500	0.634000
H311	H31	0.920500	0.673800	0.601900
C221	C22	0.695000	0.559300	0.837700
H321	H32	0.629000	0.532800	0.817800
C231	C23	0.813000	0.653300	0.872200
H331	H33	0.851000	0.706900	0.883100
C241	C24	0.967000	0.555000	0.922300
H341	H34	0.017000	0.607400	0.926300
H351	H35	0.010900	0.509600	0.900000
C251	C25	0.422000	0.618000	0.017100
H361	H36	0.344700	0.630900	0.034700
H371	H37	0.483200	0.646500	0.043400
C261	C26	0.027000	0.354000	0.801300
H381	H38	0.995100	0.324300	0.834900
C271	C27	0.443000	0.514000	0.014200
H391	H39	0.442200	0.490000	0.056200
H401	H40	0.377000	0.486700	0.990600
C281	C28	0.775000	0.834000	0.719600
H411	H41	0.746400	0.890800	0.729600
C291	C29	0.943000	0.519800	0.986400
H421	H42	0.880600	0.474500	0.983900
H431	H43	0.915800	0.568200	0.012600
C301	C30	0.104000	0.612400	0.720400
H441	H44	0.064300	0.623100	0.759000
H451	H45	0.153700	0.664100	0.712100
C311	C31	0.369000	0.673800	0.861000
H461	H46	0.323600	0.672100	0.824100
C321	C32	0.185000	0.527600	0.727400
H471	H47	0.219900	0.515000	0.687700
H481	H48	0.249100	0.539700	0.757600
Ni31	Ni3	0.098300	0.762600	0.300330
N251	N25	0.924500	0.845100	0.452900
N261	N26	0.982000	0.786300	0.367400
N271	N27	0.227000	0.742500	0.238800
N281	N28	0.357000	0.922200	0.385100
N291	N29	0.380600	0.773400	0.182400
N301	N30	0.512500	0.174200	0.238800
N311	N31	0.208600	0.850700	0.341800
N321	N32	0.592000	0.073000	0.306100
N331	N33	0.619000	0.050800	0.247100
N341	N34	0.369000	0.679800	0.184200
N351	N35	0.283000	0.987600	0.364200
N361	N36	0.838000	0.859900	0.412100
C331	C33	0.011000	0.801700	0.427900
H491	H49	0.081500	0.784100	0.448500
C341	C34	0.291500	0.804800	0.213700
H501	H50	0.275500	0.865600	0.217600
C351	C35	0.572000	0.115000	0.208200
H511	H51	0.581800	0.116800	0.165400
C361	C36	0.513000	0.900000	0.167900
H521	H52	0.549100	0.932600	0.134600
H531	H53	0.447700	0.935800	0.182800
C371	C37	0.462000	0.814000	0.141500
H541	H54	0.526200	0.772500	0.134000
H551	H55	0.420500	0.826200	0.101900
C381	C38	0.195000	0.940700	0.337700
H561	H56	0.129000	0.967200	0.317800
C391	C39	0.313000	0.846700	0.372200
H571	H57	0.351000	0.793100	0.383100
C401	C40	0.467000	0.945000	0.422300
H581	H58	0.517000	0.892600	0.426300
H591	H59	0.510900	0.990400	0.400000
C411	C41	0.922000	0.882000	0.517100
H601	H60	0.844700	0.869100	0.534700
H611	H61	0.983200	0.853500	0.543400
C421	C42	0.527000	0.146000	0.301300
H621	H62	0.495100	0.175700	0.334900
C431	C43	0.943000	0.986000	0.514200
H631	H63	0.942200	0.010000	0.556200
H641	H64	0.877000	0.013300	0.490600
C441	C44	0.275000	0.666000	0.219600
H651	H65	0.246400	0.609200	0.229600
C451	C45	0.443000	0.980200	0.486400
H661	H66	0.380600	0.025500	0.483900
H671	H67	0.415800	0.931800	0.512600
C461	C46	0.604000	0.887600	0.220400
H681	H68	0.564300	0.876900	0.259000
H691	H69	0.653700	0.835900	0.212100
C471	C47	0.869000	0.826200	0.361000
H701	H70	0.823600	0.827900	0.324100
C481	C48	0.685000	0.972400	0.227400
H711	H71	0.719900	0.985000	0.187700
H721	H72	0.749100	0.960300	0.257600
Ni41	Ni4	0.401700	0.262600	0.199670
N371	N37	0.575500	0.345100	0.047100
N381	N38	0.518000	0.286300	0.132600
N391	N39	0.273000	0.242500	0.261200
N401	N40	0.143000	0.422200	0.114900
N411	N41	0.119400	0.273400	0.317600
N421	N42	0.987500	0.674200	0.261200
N431	N43	0.291400	0.350700	0.158200
N441	N44	0.908000	0.573000	0.193900
N451	N45	0.881000	0.550800	0.252900
N461	N46	0.131000	0.179800	0.315800
N471	N47	0.217000	0.487600	0.135800
N481	N48	0.662000	0.359900	0.087900
C491	C49	0.489000	0.301700	0.072100
H731	H73	0.418500	0.284100	0.051500
C501	C50	0.208500	0.304800	0.286300
H741	H74	0.224500	0.365600	0.282400
C511	C51	0.928000	0.615000	0.291800
H751	H75	0.918200	0.616800	0.334600
C521	C52	0.987000	0.400000	0.332100
H761	H76	0.950900	0.432600	0.365400
H771	H77	0.052300	0.435800	0.317200
C531	C53	0.038000	0.314000	0.358500
H781	H78	0.973800	0.272500	0.366000
H791	H79	0.079500	0.326200	0.398100
C541	C54	0.305000	0.440700	0.162300
H801	H80	0.371000	0.467200	0.182200
C551	C55	0.187000	0.346700	0.127800
H811	H81	0.149000	0.293100	0.116900
C561	C56	0.033000	0.445000	0.077700
H821	H82	0.983000	0.392600	0.073700
H831	H83	0.989100	0.490400	0.100000
C571	C57	0.578000	0.382000	0.982900
H841	H84	0.655300	0.369100	0.965300
H851	H85	0.516800	0.353500	0.956600
C581	C58	0.973000	0.646000	0.198700
H861	H86	0.004900	0.675700	0.165100
C591	C59	0.557000	0.486000	0.985800
H871	H87	0.557800	0.510000	0.943800
H881	H88	0.623000	0.513300	0.009400
C601	C60	0.225000	0.166000	0.280400
H891	H89	0.253600	0.109200	0.270400
C611	C61	0.057000	0.480200	0.013600
H901	H90	0.119400	0.525500	0.016100
H911	H91	0.084200	0.431800	0.987400
C621	C62	0.896000	0.387600	0.279600
H921	H92	0.935700	0.376900	0.241000
H931	H93	0.846300	0.335900	0.287900
C631	C63	0.631000	0.326200	0.139000
H941	H94	0.676400	0.327900	0.175900
C641	C64	0.815000	0.472400	0.272600
H951	H95	0.780100	0.485000	0.312300
H961	H96	0.750900	0.460300	0.242400
