data_EXAXAE_clean_PM
_symmetry_space_group_name_H-M	'P1'
_cell_length_a	19.150100
_cell_length_b	19.150100
_cell_length_c	11.119000
_cell_angle_alpha	90.000000
_cell_angle_beta	90.000000
_cell_angle_gamma	90.000000
_symmetry_Int_Tables_number 1

loop_
_symmetry_equiv_pos_as_xyz
'x,y,z'

loop_
_atom_site_label
_atom_site_type_symbol
_atom_site_fract_x
_atom_site_fract_y
_atom_site_fract_z
C11	C1	0.579200	0.309200	0.242300
H11	H1	0.594100	0.351100	0.275900
C21	C2	0.534300	0.311900	0.145800
C31	C3	0.515900	0.381600	0.092100
O11	O1	0.483800	0.381500	0.994300
O21	O2	0.536400	0.434000	0.149800
C41	C4	0.920800	0.190800	0.242300
H21	H2	0.905900	0.148900	0.275900
C51	C5	0.965700	0.188100	0.145800
C61	C6	0.984100	0.118400	0.092100
O31	O3	0.016200	0.118500	0.994300
O41	O4	0.963600	0.066000	0.149800
C71	C7	0.190800	0.579200	0.242300
H31	H3	0.148900	0.594100	0.275900
C81	C8	0.188100	0.534300	0.145800
C91	C9	0.118400	0.515900	0.092100
O51	O5	0.118500	0.483800	0.994300
O61	O6	0.066000	0.536400	0.149800
C101	C10	0.309200	0.920800	0.242300
H41	H4	0.351100	0.905900	0.275900
C111	C11	0.311900	0.965700	0.145800
C121	C12	0.381600	0.984100	0.092100
O71	O7	0.381500	0.016200	0.994300
O81	O8	0.434000	0.963600	0.149800
C131	C13	0.420800	0.809200	0.757700
H51	H5	0.405900	0.851100	0.724100
C141	C14	0.465700	0.811900	0.854200
C151	C15	0.484100	0.881600	0.907900
O91	O9	0.516200	0.881500	0.005700
O101	O10	0.463600	0.934000	0.850200
C161	C16	0.079200	0.690800	0.757700
H61	H6	0.094100	0.648900	0.724100
C171	C17	0.034300	0.688100	0.854200
C181	C18	0.015900	0.618400	0.907900
O111	O11	0.983800	0.618500	0.005700
O121	O12	0.036400	0.566000	0.850200
C191	C19	0.809200	0.079200	0.757700
H71	H7	0.851100	0.094100	0.724100
C201	C20	0.811900	0.034300	0.854200
C211	C21	0.881600	0.015900	0.907900
O131	O13	0.881500	0.983800	0.005700
O141	O14	0.934000	0.036400	0.850200
C221	C22	0.690800	0.420800	0.757700
H81	H8	0.648900	0.405900	0.724100
C231	C23	0.688100	0.465700	0.854200
C241	C24	0.618400	0.484100	0.907900
O151	O15	0.618500	0.516200	0.005700
O161	O16	0.566000	0.463600	0.850200
C251	C25	0.420800	0.690800	0.757700
H91	H9	0.405900	0.648900	0.724100
C261	C26	0.465700	0.688100	0.854200
C271	C27	0.484100	0.618400	0.907900
O171	O17	0.516200	0.618500	0.005700
O181	O18	0.463600	0.566000	0.850200
C281	C28	0.079200	0.809200	0.757700
H101	H10	0.094100	0.851100	0.724100
C291	C29	0.034300	0.811900	0.854200
C301	C30	0.015900	0.881600	0.907900
O191	O19	0.983800	0.881500	0.005700
O201	O20	0.036400	0.934000	0.850200
C311	C31	0.809200	0.420800	0.757700
H111	H11	0.851100	0.405900	0.724100
C321	C32	0.811900	0.465700	0.854200
C331	C33	0.881600	0.484100	0.907900
O211	O21	0.881500	0.516200	0.005700
O221	O22	0.934000	0.463600	0.850200
C341	C34	0.690800	0.079200	0.757700
H121	H12	0.648900	0.094100	0.724100
C351	C35	0.688100	0.034300	0.854200
C361	C36	0.618400	0.015900	0.907900
O231	O23	0.618500	0.983800	0.005700
O241	O24	0.566000	0.036400	0.850200
C371	C37	0.579200	0.190800	0.242300
H131	H13	0.594100	0.148900	0.275900
C381	C38	0.534300	0.188100	0.145800
C391	C39	0.515900	0.118400	0.092100
O251	O25	0.483800	0.118500	0.994300
O261	O26	0.536400	0.066000	0.149800
C401	C40	0.920800	0.309200	0.242300
H141	H14	0.905900	0.351100	0.275900
C411	C41	0.965700	0.311900	0.145800
C421	C42	0.984100	0.381600	0.092100
O271	O27	0.016200	0.381500	0.994300
O281	O28	0.963600	0.434000	0.149800
C431	C43	0.190800	0.920800	0.242300
H151	H15	0.148900	0.905900	0.275900
C441	C44	0.188100	0.965700	0.145800
C451	C45	0.118400	0.984100	0.092100
O291	O29	0.118500	0.016200	0.994300
O301	O30	0.066000	0.963600	0.149800
C461	C46	0.309200	0.579200	0.242300
H161	H16	0.351100	0.594100	0.275900
C471	C47	0.311900	0.534300	0.145800
C481	C48	0.381600	0.515900	0.092100
O311	O31	0.381500	0.483800	0.994300
O321	O32	0.434000	0.536400	0.149800
C491	C49	0.511700	0.250000	0.095800
H171	H17	0.481900	0.250000	0.029700
Cu11	Cu1	0.680800	0.250000	0.414400
I11	I1	0.629200	0.250000	0.634300
N11	N1	0.602400	0.250000	0.290300
C501	C50	0.988300	0.250000	0.095800
H181	H18	0.018100	0.250000	0.029700
Cu21	Cu2	0.819200	0.250000	0.414400
I21	I2	0.870800	0.250000	0.634300
N21	N2	0.897600	0.250000	0.290300
C511	C51	0.250000	0.511700	0.095800
H191	H19	0.250000	0.481900	0.029700
Cu31	Cu3	0.250000	0.680800	0.414400
I31	I3	0.250000	0.629200	0.634300
N31	N3	0.250000	0.602400	0.290300
C521	C52	0.250000	0.988300	0.095800
H201	H20	0.250000	0.018100	0.029700
Cu41	Cu4	0.250000	0.819200	0.414400
I41	I4	0.250000	0.870800	0.634300
N41	N4	0.250000	0.897600	0.290300
C531	C53	0.488300	0.750000	0.904200
H211	H21	0.518100	0.750000	0.970300
Cu51	Cu5	0.319200	0.750000	0.585600
I51	I5	0.370800	0.750000	0.365700
N51	N5	0.397600	0.750000	0.709700
C541	C54	0.011700	0.750000	0.904200
H221	H22	0.981900	0.750000	0.970300
Cu61	Cu6	0.180800	0.750000	0.585600
I61	I6	0.129200	0.750000	0.365700
N61	N6	0.102400	0.750000	0.709700
C551	C55	0.750000	0.011700	0.904200
H231	H23	0.750000	0.981900	0.970300
Cu71	Cu7	0.750000	0.180800	0.585600
I71	I7	0.750000	0.129200	0.365700
N71	N7	0.750000	0.102400	0.709700
C561	C56	0.750000	0.488300	0.904200
H241	H24	0.750000	0.518100	0.970300
Cu81	Cu8	0.750000	0.319200	0.585600
I81	I8	0.750000	0.370800	0.365700
N81	N8	0.750000	0.397600	0.709700
Cu91	Cu9	0.530900	0.530900	0.093400
Cu101	Cu10	0.969100	0.969100	0.093400
Cu111	Cu11	0.969100	0.530900	0.093400
Cu121	Cu12	0.530900	0.969100	0.093400
Cu131	Cu13	0.469100	0.030900	0.906600
Cu141	Cu14	0.030900	0.469100	0.906600
Cu151	Cu15	0.030900	0.030900	0.906600
Cu161	Cu16	0.469100	0.469100	0.906600
