data_EXAXAE01_clean_PM
_symmetry_space_group_name_H-M	'P1'
_cell_length_a	19.357700
_cell_length_b	19.357700
_cell_length_c	11.024200
_cell_angle_alpha	90.000000
_cell_angle_beta	90.000000
_cell_angle_gamma	90.000000
_symmetry_Int_Tables_number 1

loop_
_symmetry_equiv_pos_as_xyz
'x,y,z'

loop_
_atom_site_label
_atom_site_type_symbol
_atom_site_fract_x
_atom_site_fract_y
_atom_site_fract_z
C11	C1	0.308300	0.579300	0.259900
H11	H1	0.349700	0.595300	0.228000
C21	C2	0.311500	0.533700	0.355900
C31	C3	0.381100	0.515700	0.411100
O11	O1	0.380400	0.483400	0.508400
O21	O2	0.431900	0.535400	0.353600
C41	C4	0.191700	0.920700	0.259900
H21	H2	0.150300	0.904700	0.228000
C51	C5	0.188500	0.966300	0.355900
C61	C6	0.118900	0.984300	0.411100
O31	O3	0.119600	0.016600	0.508400
O41	O4	0.068100	0.964600	0.353600
C71	C7	0.920700	0.308300	0.259900
H31	H3	0.904700	0.349700	0.228000
C81	C8	0.966300	0.311500	0.355900
C91	C9	0.984300	0.381100	0.411100
O51	O5	0.016600	0.380400	0.508400
O61	O6	0.964600	0.431900	0.353600
C101	C10	0.579300	0.191700	0.259900
H41	H4	0.595300	0.150300	0.228000
C111	C11	0.533700	0.188500	0.355900
C121	C12	0.515700	0.118900	0.411100
O71	O7	0.483400	0.119600	0.508400
O81	O8	0.535400	0.068100	0.353600
C131	C13	0.691700	0.079300	0.740100
H51	H5	0.650300	0.095300	0.772000
C141	C14	0.688500	0.033700	0.644100
C151	C15	0.618900	0.015700	0.588900
O91	O9	0.619600	0.983400	0.491600
O101	O10	0.568100	0.035400	0.646400
C161	C16	0.808300	0.420700	0.740100
H61	H6	0.849700	0.404700	0.772000
C171	C17	0.811500	0.466300	0.644100
C181	C18	0.881100	0.484300	0.588900
O111	O11	0.880400	0.516600	0.491600
O121	O12	0.931900	0.464600	0.646400
C191	C19	0.079300	0.808300	0.740100
H71	H7	0.095300	0.849700	0.772000
C201	C20	0.033700	0.811500	0.644100
C211	C21	0.015700	0.881100	0.588900
O131	O13	0.983400	0.880400	0.491600
O141	O14	0.035400	0.931900	0.646400
C221	C22	0.420700	0.691700	0.740100
H81	H8	0.404700	0.650300	0.772000
C231	C23	0.466300	0.688500	0.644100
C241	C24	0.484300	0.618900	0.588900
O151	O15	0.516600	0.619600	0.491600
O161	O16	0.464600	0.568100	0.646400
C251	C25	0.691700	0.420700	0.740100
H91	H9	0.650300	0.404700	0.772000
C261	C26	0.688500	0.466300	0.644100
C271	C27	0.618900	0.484300	0.588900
O171	O17	0.619600	0.516600	0.491600
O181	O18	0.568100	0.464600	0.646400
C281	C28	0.808300	0.079300	0.740100
H101	H10	0.849700	0.095300	0.772000
C291	C29	0.811500	0.033700	0.644100
C301	C30	0.881100	0.015700	0.588900
O191	O19	0.880400	0.983400	0.491600
O201	O20	0.931900	0.035400	0.646400
C311	C31	0.079300	0.691700	0.740100
H111	H11	0.095300	0.650300	0.772000
C321	C32	0.033700	0.688500	0.644100
C331	C33	0.015700	0.618900	0.588900
O211	O21	0.983400	0.619600	0.491600
O221	O22	0.035400	0.568100	0.646400
C341	C34	0.420700	0.808300	0.740100
H121	H12	0.404700	0.849700	0.772000
C351	C35	0.466300	0.811500	0.644100
C361	C36	0.484300	0.881100	0.588900
O231	O23	0.516600	0.880400	0.491600
O241	O24	0.464600	0.931900	0.646400
C371	C37	0.308300	0.920700	0.259900
H131	H13	0.349700	0.904700	0.228000
C381	C38	0.311500	0.966300	0.355900
C391	C39	0.381100	0.984300	0.411100
O251	O25	0.380400	0.016600	0.508400
O261	O26	0.431900	0.964600	0.353600
C401	C40	0.191700	0.579300	0.259900
H141	H14	0.150300	0.595300	0.228000
C411	C41	0.188500	0.533700	0.355900
C421	C42	0.118900	0.515700	0.411100
O271	O27	0.119600	0.483400	0.508400
O281	O28	0.068100	0.535400	0.353600
C431	C43	0.920700	0.191700	0.259900
H151	H15	0.904700	0.150300	0.228000
C441	C44	0.966300	0.188500	0.355900
C451	C45	0.984300	0.118900	0.411100
O291	O29	0.016600	0.119600	0.508400
O301	O30	0.964600	0.068100	0.353600
C461	C46	0.579300	0.308300	0.259900
H161	H16	0.595300	0.349700	0.228000
C471	C47	0.533700	0.311500	0.355900
C481	C48	0.515700	0.381100	0.411100
O311	O31	0.483400	0.380400	0.508400
O321	O32	0.535400	0.431900	0.353600
Cu11	Cu1	0.250000	0.680890	0.087870
I11	I1	0.250000	0.631080	0.864730
C491	C49	0.250000	0.511900	0.406000
H171	H17	0.250000	0.482600	0.472900
N11	N1	0.250000	0.601700	0.210000
Cu21	Cu2	0.250000	0.819110	0.087870
I21	I2	0.250000	0.868920	0.864730
C501	C50	0.250000	0.988100	0.406000
H181	H18	0.250000	0.017400	0.472900
N21	N2	0.250000	0.898300	0.210000
Cu31	Cu3	0.819110	0.250000	0.087870
I31	I3	0.868920	0.250000	0.864730
C511	C51	0.988100	0.250000	0.406000
H191	H19	0.017400	0.250000	0.472900
N31	N3	0.898300	0.250000	0.210000
Cu41	Cu4	0.680890	0.250000	0.087870
I41	I4	0.631080	0.250000	0.864730
C521	C52	0.511900	0.250000	0.406000
H201	H20	0.482600	0.250000	0.472900
N41	N4	0.601700	0.250000	0.210000
Cu51	Cu5	0.750000	0.180890	0.912130
I51	I5	0.750000	0.131080	0.135270
C531	C53	0.750000	0.011900	0.594000
H211	H21	0.750000	0.982600	0.527100
N51	N5	0.750000	0.101700	0.790000
Cu61	Cu6	0.750000	0.319110	0.912130
I61	I6	0.750000	0.368920	0.135270
C541	C54	0.750000	0.488100	0.594000
H221	H22	0.750000	0.517400	0.527100
N61	N6	0.750000	0.398300	0.790000
Cu71	Cu7	0.180890	0.750000	0.912130
I71	I7	0.131080	0.750000	0.135270
C551	C55	0.011900	0.750000	0.594000
H231	H23	0.982600	0.750000	0.527100
N71	N7	0.101700	0.750000	0.790000
Cu81	Cu8	0.319110	0.750000	0.912130
I81	I8	0.368920	0.750000	0.135270
C561	C56	0.488100	0.750000	0.594000
H241	H24	0.517400	0.750000	0.527100
N81	N8	0.398300	0.750000	0.790000
Cu91	Cu9	0.467470	0.467470	0.601400
Cu101	Cu10	0.032530	0.032530	0.601400
Cu111	Cu11	0.032530	0.467470	0.601400
Cu121	Cu12	0.467470	0.032530	0.601400
Cu131	Cu13	0.532530	0.967470	0.398600
Cu141	Cu14	0.967470	0.532530	0.398600
Cu151	Cu15	0.967470	0.967470	0.398600
Cu161	Cu16	0.532530	0.532530	0.398600
