data_EXENAX_clean_PM
_symmetry_space_group_name_H-M	'P1'
_cell_length_a	7.733400
_cell_length_b	25.833000
_cell_length_c	12.062300
_cell_angle_alpha	90.000000
_cell_angle_beta	106.854000
_cell_angle_gamma	90.000000
_symmetry_Int_Tables_number 1

loop_
_symmetry_equiv_pos_as_xyz
'x,y,z'

loop_
_atom_site_label
_atom_site_type_symbol
_atom_site_fract_x
_atom_site_fract_y
_atom_site_fract_z
I11	I1	0.129330	0.431390	0.373160
Ag11	Ag1	0.864630	0.646950	0.208890
N11	N1	0.061300	0.596850	0.340500
N21	N2	0.189400	0.664850	0.460900
H11	H1	0.264600	0.676700	0.522900
H21	H2	0.119900	0.685700	0.412500
N31	N3	0.292200	0.582440	0.518300
C11	C1	0.156100	0.510830	0.402000
C21	C2	0.277500	0.531670	0.498700
H31	H3	0.352100	0.509400	0.552300
C31	C3	0.180400	0.614100	0.439800
C41	C4	0.050200	0.545800	0.323600
H41	H4	0.968200	0.533100	0.256700
I21	I2	0.620030	0.677000	0.361070
Ag21	Ag2	0.506060	0.891780	0.171240
N41	N4	0.735700	0.826390	0.525200
N51	N5	0.692600	0.909270	0.453400
H51	H5	0.661900	0.930900	0.396800
H61	H6	0.728900	0.920400	0.523500
N61	N6	0.626600	0.842070	0.322000
C51	C5	0.618700	0.791460	0.303500
H71	H7	0.582500	0.779400	0.227600
C61	C6	0.662400	0.756090	0.392500
C71	C7	0.721600	0.775630	0.504100
H81	H8	0.752400	0.752700	0.566100
C81	C8	0.683900	0.859000	0.432600
I31	I3	0.620030	0.823000	0.861070
Ag31	Ag3	0.506060	0.608220	0.671240
N71	N7	0.735700	0.673610	0.025200
N81	N8	0.692600	0.590730	0.953400
H91	H9	0.661900	0.569100	0.896800
H101	H10	0.728900	0.579600	0.023500
N91	N9	0.626600	0.657930	0.822000
C91	C9	0.618700	0.708540	0.803500
H111	H11	0.582500	0.720600	0.727600
C101	C10	0.662400	0.743910	0.892500
C111	C11	0.721600	0.724370	0.004100
H121	H12	0.752400	0.747300	0.066100
C121	C12	0.683900	0.641000	0.932600
I41	I4	0.129330	0.068610	0.873160
Ag41	Ag4	0.864630	0.853050	0.708890
N101	N10	0.061300	0.903150	0.840500
N111	N11	0.189400	0.835150	0.960900
H131	H13	0.264600	0.823300	0.022900
H141	H14	0.119900	0.814300	0.912500
N121	N12	0.292200	0.917560	0.018300
C131	C13	0.156100	0.989170	0.902000
C141	C14	0.277500	0.968330	0.998700
H151	H15	0.352100	0.990600	0.052300
C151	C15	0.180400	0.885900	0.939800
C161	C16	0.050200	0.954200	0.823600
H161	H16	0.968200	0.966900	0.756700
I51	I5	0.379970	0.177000	0.138930
Ag51	Ag5	0.493940	0.391780	0.328760
N131	N13	0.264300	0.326390	0.974800
N141	N14	0.307400	0.409270	0.046600
H171	H17	0.338100	0.430900	0.103200
H181	H18	0.271100	0.420400	0.976500
N151	N15	0.373400	0.342070	0.178000
C171	C17	0.381300	0.291460	0.196500
H191	H19	0.417500	0.279400	0.272400
C181	C18	0.337600	0.256090	0.107500
C191	C19	0.278400	0.275630	0.995900
H201	H20	0.247600	0.252700	0.933900
C201	C20	0.316100	0.359000	0.067400
I61	I6	0.870670	0.931390	0.126840
Ag61	Ag6	0.135370	0.146950	0.291110
N161	N16	0.938700	0.096850	0.159500
N171	N17	0.810600	0.164850	0.039100
H211	H21	0.735400	0.176700	0.977100
H221	H22	0.880100	0.185700	0.087500
N181	N18	0.707800	0.082440	0.981700
C211	C21	0.843900	0.010830	0.098000
C221	C22	0.722500	0.031670	0.001300
H231	H23	0.647900	0.009400	0.947700
C231	C23	0.819600	0.114100	0.060200
C241	C24	0.949800	0.045800	0.176400
H241	H24	0.031800	0.033100	0.243300
I71	I7	0.870670	0.568610	0.626840
Ag71	Ag7	0.135370	0.353050	0.791110
N191	N19	0.938700	0.403150	0.659500
N201	N20	0.810600	0.335150	0.539100
H251	H25	0.735400	0.323300	0.477100
H261	H26	0.880100	0.314300	0.587500
N211	N21	0.707800	0.417560	0.481700
C251	C25	0.843900	0.489170	0.598000
C261	C26	0.722500	0.468330	0.501300
H271	H27	0.647900	0.490600	0.447700
C271	C27	0.819600	0.385900	0.560200
C281	C28	0.949800	0.454200	0.676400
H281	H28	0.031800	0.466900	0.743300
I81	I8	0.379970	0.323000	0.638930
Ag81	Ag8	0.493940	0.108220	0.828760
N221	N22	0.264300	0.173610	0.474800
N231	N23	0.307400	0.090730	0.546600
H291	H29	0.338100	0.069100	0.603200
H301	H30	0.271100	0.079600	0.476500
N241	N24	0.373400	0.157930	0.678000
C291	C29	0.381300	0.208540	0.696500
H311	H31	0.417500	0.220600	0.772400
C301	C30	0.337600	0.243910	0.607500
C311	C31	0.278400	0.224370	0.495900
H321	H32	0.247600	0.247300	0.433900
C321	C32	0.316100	0.141000	0.567400
