data_EXIBUI_clean_PM
_symmetry_space_group_name_H-M	'P1'
_cell_length_a	7.219000
_cell_length_b	10.795000
_cell_length_c	11.662000
_cell_angle_alpha	113.686000
_cell_angle_beta	102.814000
_cell_angle_gamma	95.069000
_symmetry_Int_Tables_number 1

loop_
_symmetry_equiv_pos_as_xyz
'x,y,z'

loop_
_atom_site_label
_atom_site_type_symbol
_atom_site_fract_x
_atom_site_fract_y
_atom_site_fract_z
Ba11	Ba1	0.547850	0.227050	0.615780
Ba21	Ba2	0.452150	0.772950	0.384220
V11	V1	0.869840	0.749800	0.174640
V21	V2	0.130160	0.250200	0.825360
H11	H1	0.596000	0.730000	0.731500
H21	H2	0.760000	0.121500	0.024000
H31	H3	0.150000	0.977000	0.424600
H41	H4	0.187000	0.953000	0.545000
H51	H5	0.404000	0.270000	0.268500
H61	H6	0.240000	0.878500	0.976000
H71	H7	0.850000	0.023000	0.575400
H81	H8	0.813000	0.047000	0.455000
C11	C1	0.706300	0.597800	0.894100
C21	C2	0.713300	0.745200	0.914400
C31	C3	0.652100	0.792700	0.821600
C41	C4	0.664600	0.934600	0.863000
C51	C5	0.590700	0.988800	0.761700
C61	C6	0.741700	0.023900	0.995100
C71	C7	0.803200	0.967800	0.081700
C81	C8	0.887900	0.041900	0.227600
C91	C9	0.293700	0.402200	0.105900
C101	C10	0.286700	0.254800	0.085600
C111	C11	0.347900	0.207300	0.178400
C121	C12	0.335400	0.065400	0.137000
C131	C13	0.409300	0.011200	0.238300
C141	C14	0.258300	0.976100	0.004900
C151	C15	0.196800	0.032200	0.918300
C161	C16	0.112100	0.958100	0.772400
N11	N1	0.788200	0.831600	0.039800
N21	N2	0.211800	0.168400	0.960200
O11	O1	0.642300	0.501300	0.786800
O21	O2	0.771600	0.587800	0.003100
O31	O3	0.925400	0.957700	0.280600
O41	O4	0.915000	0.166600	0.287200
O51	O5	0.567400	0.909000	0.647400
O61	O6	0.560200	0.108100	0.802200
O71	O7	0.740400	0.710200	0.256000
O81	O8	0.086800	0.727200	0.218700
O91	O9	0.242100	0.989700	0.498700
O101	O10	0.357700	0.498700	0.213200
O111	O11	0.228400	0.412200	0.996900
O121	O12	0.074600	0.042300	0.719400
O131	O13	0.085000	0.833400	0.712800
O141	O14	0.432600	0.091000	0.352600
O151	O15	0.439800	0.891900	0.197800
O161	O16	0.259600	0.289800	0.744000
O171	O17	0.913200	0.272800	0.781300
O181	O18	0.757900	0.010300	0.501300
