data_EXIDEV_clean_PM
_symmetry_space_group_name_H-M	'P1'
_cell_length_a	9.392500
_cell_length_b	10.197700
_cell_length_c	24.461600
_cell_angle_alpha	91.926000
_cell_angle_beta	90.000000
_cell_angle_gamma	90.000000
_symmetry_Int_Tables_number 1

loop_
_symmetry_equiv_pos_as_xyz
'x,y,z'

loop_
_atom_site_label
_atom_site_type_symbol
_atom_site_fract_x
_atom_site_fract_y
_atom_site_fract_z
Co11	Co1	0.657410	0.251400	0.126800
Co21	Co2	0.001300	0.749300	0.377500
Co31	Co3	0.342590	0.251400	0.626800
Co41	Co4	0.998700	0.749300	0.877500
H11	H1	0.898800	0.151500	0.062400
H21	H2	0.107700	0.018500	0.070300
H31	H3	0.923400	0.870100	0.198000
H41	H4	0.741600	0.019000	0.192200
H51	H5	0.336500	0.950300	0.113300
H61	H6	0.233700	0.865400	0.075000
H71	H7	0.225200	0.668800	0.176000
H81	H8	0.325900	0.563500	0.148300
H91	H9	0.965100	0.577800	0.037300
H101	H10	0.762600	0.464700	0.056300
H111	H11	0.923800	0.330200	0.187800
H121	H12	0.117900	0.441300	0.179400
H131	H13	0.503200	0.867800	0.163700
H141	H14	0.384700	0.823200	0.204900
H151	H15	0.600000	0.897900	0.247800
H161	H16	0.765200	0.898000	0.329600
H171	H17	0.903600	0.566000	0.279000
H181	H18	0.715900	0.521500	0.226400
H191	H19	0.532200	0.640000	0.087100
H201	H20	0.408000	0.671900	0.047100
H211	H21	0.680200	0.982600	0.018300
H221	H22	0.851100	0.961300	0.948800
H231	H23	0.772300	0.584000	0.942300
H241	H24	0.590600	0.606100	0.993200
H251	H25	0.402400	0.455900	0.252100
H261	H26	0.041800	0.348000	0.326700
H271	H27	0.254500	0.088100	0.230300
H281	H28	0.026900	0.136900	0.935100
H291	H29	0.256300	0.416800	0.014000
H301	H30	0.405700	0.047900	0.000600
H311	H31	0.964100	0.143100	0.308400
H321	H32	0.101200	0.151500	0.562400
H331	H33	0.892300	0.018500	0.570300
H341	H34	0.076600	0.870100	0.698000
H351	H35	0.258400	0.019000	0.692200
H361	H36	0.663500	0.950300	0.613300
H371	H37	0.766300	0.865400	0.575000
H381	H38	0.774800	0.668800	0.676000
H391	H39	0.674100	0.563500	0.648300
H401	H40	0.034900	0.577800	0.537300
H411	H41	0.237400	0.464700	0.556300
H421	H42	0.076200	0.330200	0.687800
H431	H43	0.882100	0.441300	0.679400
H441	H44	0.496800	0.867800	0.663700
H451	H45	0.615300	0.823200	0.704900
H461	H46	0.400000	0.897900	0.747800
H471	H47	0.234800	0.898000	0.829600
H481	H48	0.096400	0.566000	0.779000
H491	H49	0.284100	0.521500	0.726400
H501	H50	0.467800	0.640000	0.587100
H511	H51	0.592000	0.671900	0.547100
H521	H52	0.319800	0.982600	0.518300
H531	H53	0.148900	0.961300	0.448800
H541	H54	0.227700	0.584000	0.442300
H551	H55	0.409400	0.606100	0.493200
H561	H56	0.597600	0.455900	0.752100
H571	H57	0.958200	0.348000	0.826700
H581	H58	0.745500	0.088100	0.730300
H591	H59	0.973100	0.136900	0.435100
H601	H60	0.743700	0.416800	0.514000
H611	H61	0.594300	0.047900	0.500600
H621	H62	0.035900	0.143100	0.808400
C11	C1	0.909000	0.099000	0.092400
C21	C2	0.039000	0.024000	0.097800
C31	C3	0.054000	0.962000	0.144900
C41	C4	0.928900	0.939100	0.174200
C51	C5	0.816000	0.020000	0.167000
C61	C6	0.275000	0.874000	0.111300
C71	C7	0.361700	0.737000	0.128400
C81	C8	0.272000	0.642900	0.142100
C91	C9	0.055000	0.549000	0.115500
C101	C10	0.953000	0.537000	0.070500
C111	C11	0.836000	0.461000	0.081600
C121	C12	0.928000	0.385000	0.158200
C131	C13	0.043000	0.454000	0.155200
C141	C14	0.446000	0.794000	0.175100
C151	C15	0.631000	0.707000	0.233100
C161	C16	0.649000	0.823000	0.258000
C171	C17	0.761000	0.823000	0.306900
C181	C18	0.830000	0.626900	0.279400
C191	C19	0.726000	0.603000	0.243800
C201	C20	0.465000	0.707000	0.077300
C211	C21	0.637000	0.795000	0.021100
C221	C22	0.703000	0.900000	0.003400
C231	C23	0.805900	0.888100	0.962400
C241	C24	0.754000	0.666900	0.957700
C251	C25	0.654000	0.675000	0.989600
C261	C26	0.494000	0.241000	0.202000
C271	C27	0.347400	0.267000	0.235500
C281	C28	0.334500	0.392300	0.259100
C291	C29	0.220000	0.422700	0.293300
C301	C30	0.118400	0.327700	0.303800
C311	C31	0.131300	0.202300	0.280300
C321	C32	0.245800	0.171900	0.246100
C331	C33	0.177000	0.567000	0.312900
C341	C34	0.200000	0.940000	0.942900
C351	C35	0.213600	0.070900	0.964800
C361	C36	0.108100	0.162400	0.954400
C371	C37	0.124100	0.292000	0.972800
C381	C38	0.245600	0.330100	0.001700
C391	C39	0.351100	0.238600	0.012100
C401	C40	0.335100	0.109100	0.993600
C411	C41	0.464300	0.277700	0.048300
C421	C42	0.091000	0.099000	0.592400
C431	C43	0.961000	0.024000	0.597800
C441	C44	0.946000	0.962000	0.644900
C451	C45	0.071100	0.939100	0.674200
C461	C46	0.184000	0.020000	0.667000
C471	C47	0.725000	0.874000	0.611300
C481	C48	0.638300	0.737000	0.628400
C491	C49	0.728000	0.642900	0.642100
C501	C50	0.945000	0.549000	0.615500
C511	C51	0.047000	0.537000	0.570500
C521	C52	0.164000	0.461000	0.581600
C531	C53	0.072000	0.385000	0.658200
C541	C54	0.957000	0.454000	0.655200
C551	C55	0.554000	0.794000	0.675100
C561	C56	0.369000	0.707000	0.733100
C571	C57	0.351000	0.823000	0.758000
C581	C58	0.239000	0.823000	0.806900
C591	C59	0.170000	0.626900	0.779400
C601	C60	0.274000	0.603000	0.743800
C611	C61	0.535000	0.707000	0.577300
C621	C62	0.363000	0.795000	0.521100
C631	C63	0.297000	0.900000	0.503400
C641	C64	0.194100	0.888100	0.462400
C651	C65	0.246000	0.666900	0.457700
C661	C66	0.346000	0.675000	0.489600
C671	C67	0.506000	0.241000	0.702000
C681	C68	0.652600	0.267000	0.735500
C691	C69	0.665500	0.392300	0.759100
C701	C70	0.780000	0.422700	0.793300
C711	C71	0.881600	0.327700	0.803800
C721	C72	0.868700	0.202300	0.780300
C731	C73	0.754200	0.171900	0.746100
C741	C74	0.823000	0.567000	0.812900
C751	C75	0.800000	0.940000	0.442900
C761	C76	0.786400	0.070900	0.464800
C771	C77	0.891900	0.162400	0.454400
C781	C78	0.875900	0.292000	0.472800
C791	C79	0.754400	0.330100	0.501700
C801	C80	0.648900	0.238600	0.512100
C811	C81	0.664900	0.109100	0.493600
C821	C82	0.535700	0.277700	0.548300
N11	N1	0.807100	0.094700	0.128100
N21	N2	0.813100	0.381200	0.124300
N31	N3	0.843000	0.730500	0.317100
N41	N4	0.838000	0.761500	0.942900
N51	N5	0.192900	0.094700	0.628100
N61	N6	0.186900	0.381200	0.624300
N71	N7	0.157000	0.730500	0.817100
N81	N8	0.162000	0.761500	0.442900
O11	O1	0.162600	0.880500	0.154700
O21	O2	0.171800	0.617000	0.102900
O31	O3	0.536500	0.684800	0.191000
O41	O4	0.539700	0.814300	0.059500
O51	O5	0.580000	0.307000	0.202200
O61	O6	0.468100	0.134500	0.168500
O71	O7	0.026000	0.110400	0.288800
O81	O8	0.092800	0.582600	0.346700
O91	O9	0.300900	0.642100	0.305200
O101	O10	0.098200	0.914500	0.908600
O111	O11	0.243500	0.843700	0.971600
O121	O12	0.025000	0.384700	0.963600
O131	O13	0.477000	0.395000	0.067800
O141	O14	0.595000	0.219000	0.048000
O151	O15	0.837400	0.880500	0.654700
O161	O16	0.828200	0.617000	0.602900
O171	O17	0.463500	0.684800	0.691000
O181	O18	0.460300	0.814300	0.559500
O191	O19	0.420000	0.307000	0.702200
O201	O20	0.531900	0.134500	0.668500
O211	O21	0.974000	0.110400	0.788800
O221	O22	0.907200	0.582600	0.846700
O231	O23	0.699100	0.642100	0.805200
O241	O24	0.901800	0.914500	0.408600
O251	O25	0.756500	0.843700	0.471600
O261	O26	0.975000	0.384700	0.463600
O271	O27	0.523000	0.395000	0.567800
O281	O28	0.405000	0.219000	0.548000
