data_EXIDOF_clean_PM
_symmetry_space_group_name_H-M	'P1'
_cell_length_a	16.272000
_cell_length_b	16.272000
_cell_length_c	29.936000
_cell_angle_alpha	90.000000
_cell_angle_beta	90.000000
_cell_angle_gamma	90.000000
_symmetry_Int_Tables_number 1

loop_
_symmetry_equiv_pos_as_xyz
'x,y,z'

loop_
_atom_site_label
_atom_site_type_symbol
_atom_site_fract_x
_atom_site_fract_y
_atom_site_fract_z
O11	O1	0.660260	0.195840	0.101760
O21	O2	0.755920	0.345140	0.119250
O31	O3	0.723900	0.451340	0.075920
C11	C1	0.743630	0.324360	0.040690
O41	O4	0.778590	0.130250	0.088840
C21	C2	0.740440	0.375760	0.082710
C31	C3	0.741920	0.238260	0.040720
C41	C4	0.724600	0.185590	0.081440
O51	O5	0.160260	0.695840	0.601760
O61	O6	0.255920	0.845140	0.619250
O71	O7	0.223900	0.951340	0.575920
C51	C5	0.243630	0.824360	0.540690
O81	O8	0.278590	0.630250	0.588840
C61	C6	0.240440	0.875760	0.582710
C71	C7	0.241920	0.738260	0.540720
C81	C8	0.224600	0.685590	0.581440
O91	O9	0.839740	0.804160	0.601760
O101	O10	0.744080	0.654860	0.619250
O111	O11	0.776100	0.548660	0.575920
C91	C9	0.756370	0.675640	0.540690
O121	O12	0.721410	0.869750	0.588840
C101	C10	0.759560	0.624240	0.582710
C111	C11	0.758080	0.761740	0.540720
C121	C12	0.775400	0.814410	0.581440
O131	O13	0.339740	0.304160	0.101760
O141	O14	0.244080	0.154860	0.119250
O151	O15	0.276100	0.048660	0.075920
C131	C13	0.256370	0.175640	0.040690
O161	O16	0.221410	0.369750	0.088840
C141	C14	0.259560	0.124240	0.082710
C151	C15	0.258080	0.261740	0.040720
C161	C16	0.275400	0.314410	0.081440
O171	O17	0.054160	0.410260	0.351760
O181	O18	0.904860	0.505920	0.369250
O191	O19	0.798660	0.473900	0.325920
C171	C17	0.925640	0.493630	0.290690
O201	O20	0.119750	0.528590	0.338840
C181	C18	0.874240	0.490440	0.332710
C191	C19	0.011740	0.491920	0.290720
C201	C20	0.064410	0.474600	0.331440
O211	O21	0.554160	0.910260	0.851760
O221	O22	0.404860	0.005920	0.869250
O231	O23	0.298660	0.973900	0.825920
C211	C21	0.425640	0.993630	0.790690
O241	O24	0.619750	0.028590	0.838840
C221	C22	0.374240	0.990440	0.832710
C231	C23	0.511740	0.991920	0.790720
C241	C24	0.564410	0.974600	0.831440
O251	O25	0.445840	0.589740	0.851760
O261	O26	0.595140	0.494080	0.869250
O271	O27	0.701340	0.526100	0.825920
C251	C25	0.574360	0.506370	0.790690
O281	O28	0.380250	0.471410	0.838840
C261	C26	0.625760	0.509560	0.832710
C271	C27	0.488260	0.508080	0.790720
C281	C28	0.435590	0.525400	0.831440
O291	O29	0.945840	0.089740	0.351760
O301	O30	0.095140	0.994080	0.369250
O311	O31	0.201340	0.026100	0.325920
C291	C29	0.074360	0.006370	0.290690
O321	O32	0.880250	0.971410	0.338840
C301	C30	0.125760	0.009560	0.332710
C311	C31	0.988260	0.008080	0.290720
C321	C32	0.935590	0.025400	0.331440
O331	O33	0.839740	0.195840	0.898240
O341	O34	0.744080	0.345140	0.880750
O351	O35	0.776100	0.451340	0.924080
C331	C33	0.756370	0.324360	0.959310
O361	O36	0.721410	0.130250	0.911160
C341	C34	0.759560	0.375760	0.917290
C351	C35	0.758080	0.238260	0.959280
C361	C36	0.775400	0.185590	0.918560
O371	O37	0.339740	0.695840	0.398240
O381	O38	0.244080	0.845140	0.380750
O391	O39	0.276100	0.951340	0.424080
C371	C37	0.256370	0.824360	0.459310
O401	O40	0.221410	0.630250	0.411160
C381	C38	0.259560	0.875760	0.417290
C391	C39	0.258080	0.738260	0.459280
C401	C40	0.275400	0.685590	0.418560
O411	O41	0.660260	0.804160	0.398240
O421	O42	0.755920	0.654860	0.380750
O431	O43	0.723900	0.548660	0.424080
C411	C41	0.743630	0.675640	0.459310
O441	O44	0.778590	0.869750	0.411160
C421	C42	0.740440	0.624240	0.417290
C431	C43	0.741920	0.761740	0.459280
C441	C44	0.724600	0.814410	0.418560
O451	O45	0.160260	0.304160	0.898240
O461	O46	0.255920	0.154860	0.880750
O471	O47	0.223900	0.048660	0.924080
C451	C45	0.243630	0.175640	0.959310
O481	O48	0.278590	0.369750	0.911160
C461	C46	0.240440	0.124240	0.917290
C471	C47	0.241920	0.261740	0.959280
C481	C48	0.224600	0.314410	0.918560
O491	O49	0.445840	0.410260	0.648240
O501	O50	0.595140	0.505920	0.630750
O511	O51	0.701340	0.473900	0.674080
C491	C49	0.574360	0.493630	0.709310
O521	O52	0.380250	0.528590	0.661160
C501	C50	0.625760	0.490440	0.667290
C511	C51	0.488260	0.491920	0.709280
C521	C52	0.435590	0.474600	0.668560
O531	O53	0.945840	0.910260	0.148240
O541	O54	0.095140	0.005920	0.130750
O551	O55	0.201340	0.973900	0.174080
C531	C53	0.074360	0.993630	0.209310
O561	O56	0.880250	0.028590	0.161160
C541	C54	0.125760	0.990440	0.167290
C551	C55	0.988260	0.991920	0.209280
C561	C56	0.935590	0.974600	0.168560
O571	O57	0.054160	0.589740	0.148240
O581	O58	0.904860	0.494080	0.130750
O591	O59	0.798660	0.526100	0.174080
C571	C57	0.925640	0.506370	0.209310
O601	O60	0.119750	0.471410	0.161160
C581	C58	0.874240	0.509560	0.167290
C591	C59	0.011740	0.508080	0.209280
C601	C60	0.064410	0.525400	0.168560
O611	O61	0.554160	0.089740	0.648240
O621	O62	0.404860	0.994080	0.630750
O631	O63	0.298660	0.026100	0.674080
C611	C61	0.425640	0.006370	0.709310
O641	O64	0.619750	0.971410	0.661160
C621	C62	0.374240	0.009560	0.667290
C631	C63	0.511740	0.008080	0.709280
C641	C64	0.564410	0.025400	0.668560
O651	O65	0.339740	0.804160	0.898240
O661	O66	0.244080	0.654860	0.880750
O671	O67	0.276100	0.548660	0.924080
C651	C65	0.256370	0.675640	0.959310
O681	O68	0.221410	0.869750	0.911160
C661	C66	0.259560	0.624240	0.917290
C671	C67	0.258080	0.761740	0.959280
C681	C68	0.275400	0.814410	0.918560
O691	O69	0.839740	0.304160	0.398240
O701	O70	0.744080	0.154860	0.380750
O711	O71	0.776100	0.048660	0.424080
C691	C69	0.756370	0.175640	0.459310
O721	O72	0.721410	0.369750	0.411160
C701	C70	0.759560	0.124240	0.417290
C711	C71	0.758080	0.261740	0.459280
C721	C72	0.775400	0.314410	0.418560
O731	O73	0.160260	0.195840	0.398240
O741	O74	0.255920	0.345140	0.380750
O751	O75	0.223900	0.451340	0.424080
C731	C73	0.243630	0.324360	0.459310
O761	O76	0.278590	0.130250	0.411160
C741	C74	0.240440	0.375760	0.417290
C751	C75	0.241920	0.238260	0.459280
C761	C76	0.224600	0.185590	0.418560
O771	O77	0.660260	0.695840	0.898240
O781	O78	0.755920	0.845140	0.880750
O791	O79	0.723900	0.951340	0.924080
C771	C77	0.743630	0.824360	0.959310
O801	O80	0.778590	0.630250	0.911160
C781	C78	0.740440	0.875760	0.917290
C791	C79	0.741920	0.738260	0.959280
C801	C80	0.724600	0.685590	0.918560
O811	O81	0.945840	0.589740	0.648240
O821	O82	0.095140	0.494080	0.630750
O831	O83	0.201340	0.526100	0.674080
C811	C81	0.074360	0.506370	0.709310
O841	O84	0.880250	0.471410	0.661160
C821	C82	0.125760	0.509560	0.667290
C831	C83	0.988260	0.508080	0.709280
C841	C84	0.935590	0.525400	0.668560
O851	O85	0.445840	0.089740	0.148240
O861	O86	0.595140	0.994080	0.130750
O871	O87	0.701340	0.026100	0.174080
C851	C85	0.574360	0.006370	0.209310
O881	O88	0.380250	0.971410	0.161160
C861	C86	0.625760	0.009560	0.167290
C871	C87	0.488260	0.008080	0.209280
C881	C88	0.435590	0.025400	0.168560
O891	O89	0.554160	0.410260	0.148240
O901	O90	0.404860	0.505920	0.130750
O911	O91	0.298660	0.473900	0.174080
C891	C89	0.425640	0.493630	0.209310
O921	O92	0.619750	0.528590	0.161160
C901	C90	0.374240	0.490440	0.167290
C911	C91	0.511740	0.491920	0.209280
C921	C92	0.564410	0.474600	0.168560
O931	O93	0.054160	0.910260	0.648240
O941	O94	0.904860	0.005920	0.630750
O951	O95	0.798660	0.973900	0.674080
C931	C93	0.925640	0.993630	0.709310
O961	O96	0.119750	0.028590	0.661160
C941	C94	0.874240	0.990440	0.667290
C951	C95	0.011740	0.991920	0.709280
C961	C96	0.064410	0.974600	0.668560
O971	O97	0.160260	0.804160	0.101760
O981	O98	0.255920	0.654860	0.119250
O991	O99	0.223900	0.548660	0.075920
C971	C97	0.243630	0.675640	0.040690
O1001	O100	0.278590	0.869750	0.088840
C981	C98	0.240440	0.624240	0.082710
C991	C99	0.241920	0.761740	0.040720
C1001	C100	0.224600	0.814410	0.081440
O1011	O101	0.660260	0.304160	0.601760
O1021	O102	0.755920	0.154860	0.619250
O1031	O103	0.723900	0.048660	0.575920
C1011	C101	0.743630	0.175640	0.540690
O1041	O104	0.778590	0.369750	0.588840
C1021	C102	0.740440	0.124240	0.582710
C1031	C103	0.741920	0.261740	0.540720
C1041	C104	0.724600	0.314410	0.581440
O1051	O105	0.339740	0.195840	0.601760
O1061	O106	0.244080	0.345140	0.619250
O1071	O107	0.276100	0.451340	0.575920
C1051	C105	0.256370	0.324360	0.540690
O1081	O108	0.221410	0.130250	0.588840
C1061	C106	0.259560	0.375760	0.582710
C1071	C107	0.258080	0.238260	0.540720
C1081	C108	0.275400	0.185590	0.581440
O1091	O109	0.839740	0.695840	0.101760
O1101	O110	0.744080	0.845140	0.119250
O1111	O111	0.776100	0.951340	0.075920
C1091	C109	0.756370	0.824360	0.040690
O1121	O112	0.721410	0.630250	0.088840
C1101	C110	0.759560	0.875760	0.082710
C1111	C111	0.758080	0.738260	0.040720
C1121	C112	0.775400	0.685590	0.081440
O1131	O113	0.554160	0.589740	0.351760
O1141	O114	0.404860	0.494080	0.369250
O1151	O115	0.298660	0.526100	0.325920
C1131	C113	0.425640	0.506370	0.290690
O1161	O116	0.619750	0.471410	0.338840
C1141	C114	0.374240	0.509560	0.332710
C1151	C115	0.511740	0.508080	0.290720
C1161	C116	0.564410	0.525400	0.331440
O1171	O117	0.054160	0.089740	0.851760
O1181	O118	0.904860	0.994080	0.869250
O1191	O119	0.798660	0.026100	0.825920
C1171	C117	0.925640	0.006370	0.790690
O1201	O120	0.119750	0.971410	0.838840
C1181	C118	0.874240	0.009560	0.832710
C1191	C119	0.011740	0.008080	0.790720
C1201	C120	0.064410	0.025400	0.831440
O1211	O121	0.945840	0.410260	0.851760
O1221	O122	0.095140	0.505920	0.869250
O1231	O123	0.201340	0.473900	0.825920
C1211	C121	0.074360	0.493630	0.790690
O1241	O124	0.880250	0.528590	0.838840
C1221	C122	0.125760	0.490440	0.832710
C1231	C123	0.988260	0.491920	0.790720
C1241	C124	0.935590	0.474600	0.831440
O1251	O125	0.445840	0.910260	0.351760
O1261	O126	0.595140	0.005920	0.369250
O1271	O127	0.701340	0.973900	0.325920
C1251	C125	0.574360	0.993630	0.290690
O1281	O128	0.380250	0.028590	0.338840
C1261	C126	0.625760	0.990440	0.332710
C1271	C127	0.488260	0.991920	0.290720
C1281	C128	0.435590	0.974600	0.331440
Co11	Co1	0.720690	0.529310	0.125000
Co21	Co2	0.220690	0.029310	0.625000
Co31	Co3	0.779310	0.470690	0.625000
Co41	Co4	0.279310	0.970690	0.125000
Co51	Co5	0.720690	0.470690	0.375000
Co61	Co6	0.220690	0.970690	0.875000
Co71	Co7	0.779310	0.529310	0.875000
Co81	Co8	0.279310	0.029310	0.375000
Co91	Co9	0.279310	0.470690	0.875000
Co101	Co10	0.779310	0.970690	0.375000
Co111	Co11	0.220690	0.529310	0.375000
Co121	Co12	0.720690	0.029310	0.875000
Co131	Co13	0.279310	0.529310	0.625000
Co141	Co14	0.779310	0.029310	0.125000
Co151	Co15	0.220690	0.470690	0.125000
Co161	Co16	0.720690	0.970690	0.625000
C1291	C129	0.750000	0.198000	0.000000
H11	H1	0.750000	0.140800	0.000000
C1301	C130	0.750000	0.364900	0.000000
H21	H2	0.750000	0.422000	0.000000
C1311	C131	0.250000	0.698000	0.500000
H31	H3	0.250000	0.640800	0.500000
C1321	C132	0.250000	0.864900	0.500000
H41	H4	0.250000	0.922000	0.500000
C1331	C133	0.750000	0.802000	0.500000
H51	H5	0.750000	0.859200	0.500000
C1341	C134	0.750000	0.635100	0.500000
H61	H6	0.750000	0.578000	0.500000
C1351	C135	0.250000	0.302000	0.000000
H71	H7	0.250000	0.359200	0.000000
C1361	C136	0.250000	0.135100	0.000000
H81	H8	0.250000	0.078000	0.000000
C1371	C137	0.052000	0.500000	0.250000
H91	H9	0.109200	0.500000	0.250000
C1381	C138	0.885100	0.500000	0.250000
H101	H10	0.828000	0.500000	0.250000
C1391	C139	0.552000	0.000000	0.750000
H111	H11	0.609200	0.000000	0.750000
C1401	C140	0.385100	0.000000	0.750000
H121	H12	0.328000	0.000000	0.750000
C1411	C141	0.448000	0.500000	0.750000
H131	H13	0.390800	0.500000	0.750000
C1421	C142	0.614900	0.500000	0.750000
H141	H14	0.672000	0.500000	0.750000
C1431	C143	0.948000	0.000000	0.250000
H151	H15	0.890800	0.000000	0.250000
C1441	C144	0.114900	0.000000	0.250000
H161	H16	0.172000	0.000000	0.250000
C1451	C145	0.250000	0.802000	0.000000
H171	H17	0.250000	0.859200	0.000000
C1461	C146	0.250000	0.635100	0.000000
H181	H18	0.250000	0.578000	0.000000
C1471	C147	0.750000	0.302000	0.500000
H191	H19	0.750000	0.359200	0.500000
C1481	C148	0.750000	0.135100	0.500000
H201	H20	0.750000	0.078000	0.500000
C1491	C149	0.250000	0.198000	0.500000
H211	H21	0.250000	0.140800	0.500000
C1501	C150	0.250000	0.364900	0.500000
H221	H22	0.250000	0.422000	0.500000
C1511	C151	0.750000	0.698000	0.000000
H231	H23	0.750000	0.640800	0.000000
C1521	C152	0.750000	0.864900	0.000000
H241	H24	0.750000	0.922000	0.000000
C1531	C153	0.948000	0.500000	0.750000
H251	H25	0.890800	0.500000	0.750000
C1541	C154	0.114900	0.500000	0.750000
H261	H26	0.172000	0.500000	0.750000
C1551	C155	0.448000	0.000000	0.250000
H271	H27	0.390800	0.000000	0.250000
C1561	C156	0.614900	0.000000	0.250000
H281	H28	0.672000	0.000000	0.250000
C1571	C157	0.552000	0.500000	0.250000
H291	H29	0.609200	0.500000	0.250000
C1581	C158	0.385100	0.500000	0.250000
H301	H30	0.328000	0.500000	0.250000
C1591	C159	0.052000	0.000000	0.750000
H311	H31	0.109200	0.000000	0.750000
C1601	C160	0.885100	0.000000	0.750000
H321	H32	0.828000	0.000000	0.750000
