data_EXOFIH_clean_PM
_symmetry_space_group_name_H-M	'P1'
_cell_length_a	9.038000
_cell_length_b	9.038000
_cell_length_c	18.975000
_cell_angle_alpha	90.000000
_cell_angle_beta	90.000000
_cell_angle_gamma	120.000000
_symmetry_Int_Tables_number 1

loop_
_symmetry_equiv_pos_as_xyz
'x,y,z'

loop_
_atom_site_label
_atom_site_type_symbol
_atom_site_fract_x
_atom_site_fract_y
_atom_site_fract_z
C11	C1	0.769200	0.998400	0.077800
O11	O1	0.853500	0.112000	0.125200
C21	C2	0.631100	0.996900	0.038100
O21	O2	0.813700	0.887700	0.069500
C31	C3	0.001600	0.770800	0.744470
O31	O3	0.888000	0.741500	0.791870
C41	C4	0.003100	0.634200	0.704770
O41	O4	0.112300	0.926000	0.736170
C51	C5	0.229200	0.230800	0.411130
O51	O5	0.258500	0.146500	0.458530
C61	C6	0.365800	0.368900	0.371430
O61	O6	0.074000	0.186300	0.402830
C71	C7	0.230800	0.001600	0.077800
O71	O7	0.146500	0.888000	0.125200
C81	C8	0.368900	0.003100	0.038100
O81	O8	0.186300	0.112300	0.069500
C91	C9	0.998400	0.229200	0.744470
O91	O9	0.112000	0.258500	0.791870
C101	C10	0.996900	0.365800	0.704770
O101	O10	0.887700	0.074000	0.736170
C111	C11	0.770800	0.769200	0.411130
O111	O11	0.741500	0.853500	0.458530
C121	C12	0.634200	0.631100	0.371430
O121	O12	0.926000	0.813700	0.402830
C131	C13	0.998400	0.769200	0.588870
O131	O13	0.112000	0.853500	0.541470
C141	C14	0.996900	0.631100	0.628570
O141	O14	0.887700	0.813700	0.597170
C151	C15	0.770800	0.001600	0.922200
O151	O15	0.741500	0.888000	0.874800
C161	C16	0.634200	0.003100	0.961900
O161	O16	0.926000	0.112300	0.930500
C171	C17	0.230800	0.229200	0.255530
O171	O17	0.146500	0.258500	0.208130
C181	C18	0.368900	0.365800	0.295230
O181	O18	0.186300	0.074000	0.263830
C191	C19	0.001600	0.230800	0.588870
O191	O19	0.888000	0.146500	0.541470
C201	C20	0.003100	0.368900	0.628570
O201	O20	0.112300	0.186300	0.597170
C211	C21	0.229200	0.998400	0.922200
O211	O21	0.258500	0.112000	0.874800
C221	C22	0.365800	0.996900	0.961900
O221	O22	0.074000	0.887700	0.930500
C231	C23	0.769200	0.770800	0.255530
O231	O23	0.853500	0.741500	0.208130
C241	C24	0.631100	0.634200	0.295230
O241	O24	0.813700	0.926000	0.263830
In11	In1	0.000000	0.000000	0.166670
In21	In2	0.000000	0.000000	0.833330
In31	In3	0.000000	0.000000	0.500000
C251	C25	0.500000	0.000000	0.071500
H11	H1	0.500000	0.000000	0.121500
C261	C26	0.000000	0.500000	0.738170
H21	H2	0.000000	0.500000	0.788170
C271	C27	0.500000	0.500000	0.404830
H31	H3	0.500000	0.500000	0.454830
C281	C28	0.000000	0.500000	0.595170
H41	H4	0.000000	0.500000	0.545170
C291	C29	0.500000	0.000000	0.928500
H51	H5	0.500000	0.000000	0.878500
C301	C30	0.500000	0.500000	0.261830
H61	H6	0.500000	0.500000	0.211830
