data_EXOZIB_clean_PM
_symmetry_space_group_name_H-M	'P1'
_cell_length_a	11.709000
_cell_length_b	12.626000
_cell_length_c	13.194900
_cell_angle_alpha	103.482000
_cell_angle_beta	116.340000
_cell_angle_gamma	90.000000
_symmetry_Int_Tables_number 1

loop_
_symmetry_equiv_pos_as_xyz
'x,y,z'

loop_
_atom_site_label
_atom_site_type_symbol
_atom_site_fract_x
_atom_site_fract_y
_atom_site_fract_z
Cu11	Cu1	0.986470	0.094560	0.972940
Cu21	Cu2	0.013530	0.905440	0.027060
Cu31	Cu3	0.000000	0.500000	0.000000
H11	H1	0.932500	0.156900	0.731000
H21	H2	0.753500	0.301500	0.641000
H31	H3	0.823400	0.956200	0.248400
H41	H4	0.945800	0.024100	0.358200
H51	H5	0.911700	0.176400	0.287600
H61	H6	0.775900	0.123000	0.187800
H71	H7	0.201500	0.843100	0.269000
H81	H8	0.112500	0.698500	0.359000
H91	H9	0.575000	0.043800	0.751600
H101	H10	0.587600	0.975900	0.641800
H111	H11	0.624100	0.823600	0.712400
H121	H12	0.588100	0.877000	0.812200
H131	H13	0.067500	0.843100	0.269000
H141	H14	0.246500	0.698500	0.359000
H151	H15	0.176600	0.043800	0.751600
H161	H16	0.054200	0.975900	0.641800
H171	H17	0.088300	0.823600	0.712400
H181	H18	0.224100	0.877000	0.812200
H191	H19	0.798500	0.156900	0.731000
H201	H20	0.887500	0.301500	0.641000
H211	H21	0.425000	0.956200	0.248400
H221	H22	0.412400	0.024100	0.358200
H231	H23	0.375900	0.176400	0.287600
H241	H24	0.411900	0.123000	0.187800
C11	C1	0.840690	0.136400	0.472180
C21	C2	0.859100	0.028700	0.301000
C31	C3	0.862800	0.107900	0.232600
C41	C4	0.920080	0.069500	0.149960
C51	C5	0.368510	0.863600	0.527820
C61	C6	0.558100	0.971300	0.699000
C71	C7	0.630200	0.892100	0.767400
C81	C8	0.770120	0.930500	0.850040
C91	C9	0.159310	0.863600	0.527820
C101	C10	0.140900	0.971300	0.699000
C111	C11	0.137200	0.892100	0.767400
C121	C12	0.079920	0.930500	0.850040
C131	C13	0.631490	0.136400	0.472180
C141	C14	0.441900	0.028700	0.301000
C151	C15	0.369800	0.107900	0.232600
C161	C16	0.229880	0.069500	0.149960
C171	C17	0.927000	0.286700	0.854000
C181	C18	0.868300	0.203300	0.736600
C191	C19	0.818100	0.255400	0.636200
C201	C20	0.651400	0.029100	0.302800
C211	C21	0.073000	0.713300	0.146000
C221	C22	0.131700	0.796700	0.263400
C231	C23	0.181900	0.744600	0.363800
C241	C24	0.348600	0.970900	0.697200
N11	N1	0.780830	0.064800	0.361660
N21	N2	0.419170	0.935200	0.638340
N31	N3	0.219170	0.935200	0.638340
N41	N4	0.580830	0.064800	0.361660
N51	N5	0.761500	0.171200	0.523000
N61	N6	0.238500	0.828800	0.477000
O11	O1	0.950710	0.974200	0.140220
O21	O2	0.929670	0.133400	0.095540
O31	O3	0.953640	0.166200	0.520280
O41	O4	0.810490	0.025800	0.859780
O51	O5	0.834130	0.866600	0.904460
O61	O6	0.433360	0.833800	0.479720
O71	O7	0.049290	0.025800	0.859780
O81	O8	0.070330	0.866600	0.904460
O91	O9	0.046360	0.833800	0.479720
O101	O10	0.189510	0.974200	0.140220
O111	O11	0.165870	0.133400	0.095540
O121	O12	0.566640	0.166200	0.520280
O131	O13	0.972890	0.252600	0.945780
O141	O14	0.928200	0.385600	0.856400
O151	O15	0.602300	0.972400	0.204600
O161	O16	0.027110	0.747400	0.054220
O171	O17	0.071800	0.614400	0.143600
O181	O18	0.397700	0.027600	0.795400
