data_EYINOR_clean_PM
_symmetry_space_group_name_H-M	'P1'
_cell_length_a	29.854100
_cell_length_b	20.945900
_cell_length_c	19.378900
_cell_angle_alpha	90.000000
_cell_angle_beta	94.071000
_cell_angle_gamma	90.000000
_symmetry_Int_Tables_number 1

loop_
_symmetry_equiv_pos_as_xyz
'x,y,z'

loop_
_atom_site_label
_atom_site_type_symbol
_atom_site_fract_x
_atom_site_fract_y
_atom_site_fract_z
Yb11	Yb1	0.276930	0.175800	0.057120
Yb21	Yb2	0.182180	0.829120	0.963050
O11	O1	0.339900	0.104800	0.070400
O21	O2	0.277400	0.070700	0.019400
O31	O3	0.257000	0.839900	0.966700
O41	O4	0.308300	0.771400	0.003400
O51	O5	0.629080	0.723900	0.381900
O61	O6	0.697160	0.708600	0.352900
O71	O7	0.689460	0.808100	0.044600
O81	O8	0.731910	0.743300	0.111300
O91	O9	0.191200	0.943100	0.974900
O101	O10	0.148900	0.907700	0.891900
O111	O11	0.216600	0.184400	0.981500
O121	O12	0.173250	0.243400	0.912400
C11	C1	0.316700	0.060100	0.044700
C21	C2	0.334000	0.993700	0.046800
C31	C3	0.376800	0.980500	0.076600
H11	H1	0.394900	0.013600	0.094300
C41	C4	0.392800	0.917400	0.080300
C51	C5	0.365100	0.868200	0.054000
H21	H2	0.375400	0.826300	0.056600
C61	C6	0.322600	0.881100	0.023900
C71	C7	0.306900	0.943300	0.019100
H31	H3	0.278700	0.951800	0.997700
C81	C8	0.294100	0.826300	0.995500
C91	C9	0.436800	0.903500	0.111300
C101	C10	0.473200	0.886600	0.134100
C111	C11	0.514900	0.864400	0.157800
C121	C12	0.551200	0.843700	0.177100
C131	C13	0.592900	0.816000	0.192000
C141	C14	0.605500	0.788300	0.257000
H41	H4	0.585700	0.790600	0.291900
C151	C15	0.645900	0.758200	0.270100
C161	C16	0.676300	0.755700	0.219800
H51	H5	0.703900	0.735900	0.229400
C171	C17	0.666100	0.782600	0.154200
C181	C18	0.625000	0.812300	0.141300
H61	H6	0.618100	0.830400	0.098000
C191	C19	0.658200	0.728200	0.338700
C201	C20	0.698400	0.778500	0.099300
C211	C21	0.163900	0.953800	0.926300
C221	C22	0.148700	0.019100	0.907600
C231	C23	0.172900	0.072300	0.932300
H71	H7	0.198800	0.067000	0.961100
C241	C24	0.158200	0.132700	0.913800
C251	C25	0.119300	0.141500	0.872500
H81	H8	0.109600	0.182400	0.860400
C261	C26	0.094600	0.088700	0.848900
C271	C27	0.110500	0.026400	0.865800
H91	H9	0.094900	0.990800	0.848400
C281	C28	0.184700	0.191600	0.938000
C291	C29	0.054100	0.095600	0.805100
C301	C30	0.020200	0.097600	0.770900
Yb31	Yb3	0.776930	0.675800	0.057120
Yb41	Yb4	0.682180	0.329120	0.963050
O131	O13	0.839900	0.604800	0.070400
O141	O14	0.777400	0.570700	0.019400
O151	O15	0.757000	0.339900	0.966700
O161	O16	0.808300	0.271400	0.003400
O171	O17	0.129080	0.223900	0.381900
O181	O18	0.197160	0.208600	0.352900
O191	O19	0.189460	0.308100	0.044600
O201	O20	0.231910	0.243300	0.111300
O211	O21	0.691200	0.443100	0.974900
O221	O22	0.648900	0.407700	0.891900
O231	O23	0.716600	0.684400	0.981500
O241	O24	0.673250	0.743400	0.912400
C311	C31	0.816700	0.560100	0.044700
C321	C32	0.834000	0.493700	0.046800
C331	C33	0.876800	0.480500	0.076600
H101	H10	0.894900	0.513600	0.094300
C341	C34	0.892800	0.417400	0.080300
C351	C35	0.865100	0.368200	0.054000
H111	H11	0.875400	0.326300	0.056600
C361	C36	0.822600	0.381100	0.023900
C371	C37	0.806900	0.443300	0.019100
H121	H12	0.778700	0.451800	0.997700
C381	C38	0.794100	0.326300	0.995500
C391	C39	0.936800	0.403500	0.111300
C401	C40	0.973200	0.386600	0.134100
C411	C41	0.014900	0.364400	0.157800
C421	C42	0.051200	0.343700	0.177100
C431	C43	0.092900	0.316000	0.192000
C441	C44	0.105500	0.288300	0.257000
H131	H13	0.085700	0.290600	0.291900
C451	C45	0.145900	0.258200	0.270100
C461	C46	0.176300	0.255700	0.219800
H141	H14	0.203900	0.235900	0.229400
C471	C47	0.166100	0.282600	0.154200
C481	C48	0.125000	0.312300	0.141300
H151	H15	0.118100	0.330400	0.098000
C491	C49	0.158200	0.228200	0.338700
C501	C50	0.198400	0.278500	0.099300
C511	C51	0.663900	0.453800	0.926300
C521	C52	0.648700	0.519100	0.907600
C531	C53	0.672900	0.572300	0.932300
H161	H16	0.698800	0.567000	0.961100
C541	C54	0.658200	0.632700	0.913800
C551	C55	0.619300	0.641500	0.872500
H171	H17	0.609600	0.682400	0.860400
C561	C56	0.594600	0.588700	0.848900
C571	C57	0.610500	0.526400	0.865800
H181	H18	0.594900	0.490800	0.848400
C581	C58	0.684700	0.691600	0.938000
C591	C59	0.554100	0.595600	0.805100
C601	C60	0.520200	0.597600	0.770900
Yb51	Yb5	0.723070	0.175800	0.442880
Yb61	Yb6	0.817820	0.829120	0.536950
O251	O25	0.660100	0.104800	0.429600
O261	O26	0.722600	0.070700	0.480600
O271	O27	0.743000	0.839900	0.533300
O281	O28	0.691700	0.771400	0.496600
O291	O29	0.370920	0.723900	0.118100
O301	O30	0.302840	0.708600	0.147100
O311	O31	0.310540	0.808100	0.455400
O321	O32	0.268090	0.743300	0.388700
O331	O33	0.808800	0.943100	0.525100
O341	O34	0.851100	0.907700	0.608100
O351	O35	0.783400	0.184400	0.518500
O361	O36	0.826750	0.243400	0.587600
C611	C61	0.683300	0.060100	0.455300
C621	C62	0.666000	0.993700	0.453200
C631	C63	0.623200	0.980500	0.423400
H191	H19	0.605100	0.013600	0.405700
C641	C64	0.607200	0.917400	0.419700
C651	C65	0.634900	0.868200	0.446000
H201	H20	0.624600	0.826300	0.443400
C661	C66	0.677400	0.881100	0.476100
C671	C67	0.693100	0.943300	0.480900
H211	H21	0.721300	0.951800	0.502300
C681	C68	0.705900	0.826300	0.504500
C691	C69	0.563200	0.903500	0.388700
C701	C70	0.526800	0.886600	0.365900
C711	C71	0.485100	0.864400	0.342200
C721	C72	0.448800	0.843700	0.322900
C731	C73	0.407100	0.816000	0.308000
C741	C74	0.394500	0.788300	0.243000
H221	H22	0.414300	0.790600	0.208100
C751	C75	0.354100	0.758200	0.229900
C761	C76	0.323700	0.755700	0.280200
H231	H23	0.296100	0.735900	0.270600
C771	C77	0.333900	0.782600	0.345800
C781	C78	0.375000	0.812300	0.358700
H241	H24	0.381900	0.830400	0.402000
C791	C79	0.341800	0.728200	0.161300
C801	C80	0.301600	0.778500	0.400700
C811	C81	0.836100	0.953800	0.573700
C821	C82	0.851300	0.019100	0.592400
C831	C83	0.827100	0.072300	0.567700
H251	H25	0.801200	0.067000	0.538900
C841	C84	0.841800	0.132700	0.586200
C851	C85	0.880700	0.141500	0.627500
H261	H26	0.890400	0.182400	0.639600
C861	C86	0.905400	0.088700	0.651100
C871	C87	0.889500	0.026400	0.634200
H271	H27	0.905100	0.990800	0.651600
C881	C88	0.815300	0.191600	0.562000
C891	C89	0.945900	0.095600	0.694900
C901	C90	0.979800	0.097600	0.729100
Yb71	Yb7	0.223070	0.675800	0.442880
Yb81	Yb8	0.317820	0.329120	0.536950
O371	O37	0.160100	0.604800	0.429600
O381	O38	0.222600	0.570700	0.480600
O391	O39	0.243000	0.339900	0.533300
O401	O40	0.191700	0.271400	0.496600
O411	O41	0.870920	0.223900	0.118100
O421	O42	0.802840	0.208600	0.147100
O431	O43	0.810540	0.308100	0.455400
O441	O44	0.768090	0.243300	0.388700
O451	O45	0.308800	0.443100	0.525100
O461	O46	0.351100	0.407700	0.608100
O471	O47	0.283400	0.684400	0.518500
O481	O48	0.326750	0.743400	0.587600
C911	C91	0.183300	0.560100	0.455300
C921	C92	0.166000	0.493700	0.453200
C931	C93	0.123200	0.480500	0.423400
H281	H28	0.105100	0.513600	0.405700
C941	C94	0.107200	0.417400	0.419700
C951	C95	0.134900	0.368200	0.446000
H291	H29	0.124600	0.326300	0.443400
C961	C96	0.177400	0.381100	0.476100
C971	C97	0.193100	0.443300	0.480900
H301	H30	0.221300	0.451800	0.502300
C981	C98	0.205900	0.326300	0.504500
C991	C99	0.063200	0.403500	0.388700
C1001	C100	0.026800	0.386600	0.365900
C1011	C101	0.985100	0.364400	0.342200
C1021	C102	0.948800	0.343700	0.322900
C1031	C103	0.907100	0.316000	0.308000
C1041	C104	0.894500	0.288300	0.243000
H311	H31	0.914300	0.290600	0.208100
C1051	C105	0.854100	0.258200	0.229900
C1061	C106	0.823700	0.255700	0.280200
H321	H32	0.796100	0.235900	0.270600
C1071	C107	0.833900	0.282600	0.345800
C1081	C108	0.875000	0.312300	0.358700
H331	H33	0.881900	0.330400	0.402000
C1091	C109	0.841800	0.228200	0.161300
C1101	C110	0.801600	0.278500	0.400700
C1111	C111	0.336100	0.453800	0.573700
C1121	C112	0.351300	0.519100	0.592400
C1131	C113	0.327100	0.572300	0.567700
H341	H34	0.301200	0.567000	0.538900
C1141	C114	0.341800	0.632700	0.586200
C1151	C115	0.380700	0.641500	0.627500
H351	H35	0.390400	0.682400	0.639600
C1161	C116	0.405400	0.588700	0.651100
C1171	C117	0.389500	0.526400	0.634200
H361	H36	0.405100	0.490800	0.651600
C1181	C118	0.315300	0.691600	0.562000
C1191	C119	0.445900	0.595600	0.694900
C1201	C120	0.479800	0.597600	0.729100
Yb91	Yb9	0.723070	0.824200	0.942880
Yb101	Yb10	0.817820	0.170880	0.036950
O491	O49	0.660100	0.895200	0.929600
O501	O50	0.722600	0.929300	0.980600
O511	O51	0.743000	0.160100	0.033300
O521	O52	0.691700	0.228600	0.996600
O531	O53	0.370920	0.276100	0.618100
O541	O54	0.302840	0.291400	0.647100
O551	O55	0.310540	0.191900	0.955400
O561	O56	0.268090	0.256700	0.888700
O571	O57	0.808800	0.056900	0.025100
O581	O58	0.851100	0.092300	0.108100
O591	O59	0.783400	0.815600	0.018500
O601	O60	0.826750	0.756600	0.087600
C1211	C121	0.683300	0.939900	0.955300
C1221	C122	0.666000	0.006300	0.953200
C1231	C123	0.623200	0.019500	0.923400
H371	H37	0.605100	0.986400	0.905700
C1241	C124	0.607200	0.082600	0.919700
C1251	C125	0.634900	0.131800	0.946000
H381	H38	0.624600	0.173700	0.943400
C1261	C126	0.677400	0.118900	0.976100
C1271	C127	0.693100	0.056700	0.980900
H391	H39	0.721300	0.048200	0.002300
C1281	C128	0.705900	0.173700	0.004500
C1291	C129	0.563200	0.096500	0.888700
C1301	C130	0.526800	0.113400	0.865900
C1311	C131	0.485100	0.135600	0.842200
C1321	C132	0.448800	0.156300	0.822900
C1331	C133	0.407100	0.184000	0.808000
C1341	C134	0.394500	0.211700	0.743000
H401	H40	0.414300	0.209400	0.708100
C1351	C135	0.354100	0.241800	0.729900
C1361	C136	0.323700	0.244300	0.780200
H411	H41	0.296100	0.264100	0.770600
C1371	C137	0.333900	0.217400	0.845800
C1381	C138	0.375000	0.187700	0.858700
H421	H42	0.381900	0.169600	0.902000
C1391	C139	0.341800	0.271800	0.661300
C1401	C140	0.301600	0.221500	0.900700
C1411	C141	0.836100	0.046200	0.073700
C1421	C142	0.851300	0.980900	0.092400
C1431	C143	0.827100	0.927700	0.067700
H431	H43	0.801200	0.933000	0.038900
C1441	C144	0.841800	0.867300	0.086200
C1451	C145	0.880700	0.858500	0.127500
H441	H44	0.890400	0.817600	0.139600
C1461	C146	0.905400	0.911300	0.151100
C1471	C147	0.889500	0.973600	0.134200
H451	H45	0.905100	0.009200	0.151600
C1481	C148	0.815300	0.808400	0.062000
C1491	C149	0.945900	0.904400	0.194900
C1501	C150	0.979800	0.902400	0.229100
Yb111	Yb11	0.223070	0.324200	0.942880
Yb121	Yb12	0.317820	0.670880	0.036950
O611	O61	0.160100	0.395200	0.929600
O621	O62	0.222600	0.429300	0.980600
O631	O63	0.243000	0.660100	0.033300
O641	O64	0.191700	0.728600	0.996600
O651	O65	0.870920	0.776100	0.618100
O661	O66	0.802840	0.791400	0.647100
O671	O67	0.810540	0.691900	0.955400
O681	O68	0.768090	0.756700	0.888700
O691	O69	0.308800	0.556900	0.025100
O701	O70	0.351100	0.592300	0.108100
O711	O71	0.283400	0.315600	0.018500
O721	O72	0.326750	0.256600	0.087600
C1511	C151	0.183300	0.439900	0.955300
C1521	C152	0.166000	0.506300	0.953200
C1531	C153	0.123200	0.519500	0.923400
H461	H46	0.105100	0.486400	0.905700
C1541	C154	0.107200	0.582600	0.919700
C1551	C155	0.134900	0.631800	0.946000
H471	H47	0.124600	0.673700	0.943400
C1561	C156	0.177400	0.618900	0.976100
C1571	C157	0.193100	0.556700	0.980900
H481	H48	0.221300	0.548200	0.002300
C1581	C158	0.205900	0.673700	0.004500
C1591	C159	0.063200	0.596500	0.888700
C1601	C160	0.026800	0.613400	0.865900
C1611	C161	0.985100	0.635600	0.842200
C1621	C162	0.948800	0.656300	0.822900
C1631	C163	0.907100	0.684000	0.808000
C1641	C164	0.894500	0.711700	0.743000
H491	H49	0.914300	0.709400	0.708100
C1651	C165	0.854100	0.741800	0.729900
C1661	C166	0.823700	0.744300	0.780200
H501	H50	0.796100	0.764100	0.770600
C1671	C167	0.833900	0.717400	0.845800
C1681	C168	0.875000	0.687700	0.858700
H511	H51	0.881900	0.669600	0.902000
C1691	C169	0.841800	0.771800	0.661300
C1701	C170	0.801600	0.721500	0.900700
C1711	C171	0.336100	0.546200	0.073700
C1721	C172	0.351300	0.480900	0.092400
C1731	C173	0.327100	0.427700	0.067700
H521	H52	0.301200	0.433000	0.038900
C1741	C174	0.341800	0.367300	0.086200
C1751	C175	0.380700	0.358500	0.127500
H531	H53	0.390400	0.317600	0.139600
C1761	C176	0.405400	0.411300	0.151100
C1771	C177	0.389500	0.473600	0.134200
H541	H54	0.405100	0.509200	0.151600
C1781	C178	0.315300	0.308400	0.062000
C1791	C179	0.445900	0.404400	0.194900
C1801	C180	0.479800	0.402400	0.229100
Yb131	Yb13	0.276930	0.824200	0.557120
Yb141	Yb14	0.182180	0.170880	0.463050
O731	O73	0.339900	0.895200	0.570400
O741	O74	0.277400	0.929300	0.519400
O751	O75	0.257000	0.160100	0.466700
O761	O76	0.308300	0.228600	0.503400
O771	O77	0.629080	0.276100	0.881900
O781	O78	0.697160	0.291400	0.852900
O791	O79	0.689460	0.191900	0.544600
O801	O80	0.731910	0.256700	0.611300
O811	O81	0.191200	0.056900	0.474900
O821	O82	0.148900	0.092300	0.391900
O831	O83	0.216600	0.815600	0.481500
O841	O84	0.173250	0.756600	0.412400
C1811	C181	0.316700	0.939900	0.544700
C1821	C182	0.334000	0.006300	0.546800
C1831	C183	0.376800	0.019500	0.576600
H551	H55	0.394900	0.986400	0.594300
C1841	C184	0.392800	0.082600	0.580300
C1851	C185	0.365100	0.131800	0.554000
H561	H56	0.375400	0.173700	0.556600
C1861	C186	0.322600	0.118900	0.523900
C1871	C187	0.306900	0.056700	0.519100
H571	H57	0.278700	0.048200	0.497700
C1881	C188	0.294100	0.173700	0.495500
C1891	C189	0.436800	0.096500	0.611300
C1901	C190	0.473200	0.113400	0.634100
C1911	C191	0.514900	0.135600	0.657800
C1921	C192	0.551200	0.156300	0.677100
C1931	C193	0.592900	0.184000	0.692000
C1941	C194	0.605500	0.211700	0.757000
H581	H58	0.585700	0.209400	0.791900
C1951	C195	0.645900	0.241800	0.770100
C1961	C196	0.676300	0.244300	0.719800
H591	H59	0.703900	0.264100	0.729400
C1971	C197	0.666100	0.217400	0.654200
C1981	C198	0.625000	0.187700	0.641300
H601	H60	0.618100	0.169600	0.598000
C1991	C199	0.658200	0.271800	0.838700
C2001	C200	0.698400	0.221500	0.599300
C2011	C201	0.163900	0.046200	0.426300
C2021	C202	0.148700	0.980900	0.407600
C2031	C203	0.172900	0.927700	0.432300
H611	H61	0.198800	0.933000	0.461100
C2041	C204	0.158200	0.867300	0.413800
C2051	C205	0.119300	0.858500	0.372500
H621	H62	0.109600	0.817600	0.360400
C2061	C206	0.094600	0.911300	0.348900
C2071	C207	0.110500	0.973600	0.365800
H631	H63	0.094900	0.009200	0.348400
C2081	C208	0.184700	0.808400	0.438000
C2091	C209	0.054100	0.904400	0.305100
C2101	C210	0.020200	0.902400	0.270900
Yb151	Yb15	0.776930	0.324200	0.557120
Yb161	Yb16	0.682180	0.670880	0.463050
O851	O85	0.839900	0.395200	0.570400
O861	O86	0.777400	0.429300	0.519400
O871	O87	0.757000	0.660100	0.466700
O881	O88	0.808300	0.728600	0.503400
O891	O89	0.129080	0.776100	0.881900
O901	O90	0.197160	0.791400	0.852900
O911	O91	0.189460	0.691900	0.544600
O921	O92	0.231910	0.756700	0.611300
O931	O93	0.691200	0.556900	0.474900
O941	O94	0.648900	0.592300	0.391900
O951	O95	0.716600	0.315600	0.481500
O961	O96	0.673250	0.256600	0.412400
C2111	C211	0.816700	0.439900	0.544700
C2121	C212	0.834000	0.506300	0.546800
C2131	C213	0.876800	0.519500	0.576600
H641	H64	0.894900	0.486400	0.594300
C2141	C214	0.892800	0.582600	0.580300
C2151	C215	0.865100	0.631800	0.554000
H651	H65	0.875400	0.673700	0.556600
C2161	C216	0.822600	0.618900	0.523900
C2171	C217	0.806900	0.556700	0.519100
H661	H66	0.778700	0.548200	0.497700
C2181	C218	0.794100	0.673700	0.495500
C2191	C219	0.936800	0.596500	0.611300
C2201	C220	0.973200	0.613400	0.634100
C2211	C221	0.014900	0.635600	0.657800
C2221	C222	0.051200	0.656300	0.677100
C2231	C223	0.092900	0.684000	0.692000
C2241	C224	0.105500	0.711700	0.757000
H671	H67	0.085700	0.709400	0.791900
C2251	C225	0.145900	0.741800	0.770100
C2261	C226	0.176300	0.744300	0.719800
H681	H68	0.203900	0.764100	0.729400
C2271	C227	0.166100	0.717400	0.654200
C2281	C228	0.125000	0.687700	0.641300
H691	H69	0.118100	0.669600	0.598000
C2291	C229	0.158200	0.771800	0.838700
C2301	C230	0.198400	0.721500	0.599300
C2311	C231	0.663900	0.546200	0.426300
C2321	C232	0.648700	0.480900	0.407600
C2331	C233	0.672900	0.427700	0.432300
H701	H70	0.698800	0.433000	0.461100
C2341	C234	0.658200	0.367300	0.413800
C2351	C235	0.619300	0.358500	0.372500
H711	H71	0.609600	0.317600	0.360400
C2361	C236	0.594600	0.411300	0.348900
C2371	C237	0.610500	0.473600	0.365800
H721	H72	0.594900	0.509200	0.348400
C2381	C238	0.684700	0.308400	0.438000
C2391	C239	0.554100	0.404400	0.305100
C2401	C240	0.520200	0.402400	0.270900
