data_EYIYES_clean_PM
_symmetry_space_group_name_H-M	'P1'
_cell_length_a	29.953700
_cell_length_b	21.139800
_cell_length_c	19.438500
_cell_angle_alpha	90.000000
_cell_angle_beta	93.980000
_cell_angle_gamma	90.000000
_symmetry_Int_Tables_number 1

loop_
_symmetry_equiv_pos_as_xyz
'x,y,z'

loop_
_atom_site_label
_atom_site_type_symbol
_atom_site_fract_x
_atom_site_fract_y
_atom_site_fract_z
Dy11	Dy1	0.276530	0.174570	0.058850
Dy21	Dy2	0.181230	0.830300	0.963480
O11	O1	0.340300	0.101400	0.073000
O21	O2	0.280000	0.069000	0.015500
O31	O3	0.257300	0.840100	0.968900
O41	O4	0.309200	0.771800	0.001600
O51	O5	0.627800	0.722900	0.381300
O61	O6	0.695920	0.708500	0.351500
O71	O7	0.688860	0.808800	0.044700
O81	O8	0.731270	0.745500	0.113200
O91	O9	0.146200	0.909700	0.893000
O101	O10	0.191000	0.944900	0.973700
O111	O11	0.215600	0.184100	0.981400
O121	O12	0.171150	0.243900	0.912200
C11	C1	0.317200	0.057500	0.043800
C21	C2	0.334200	0.990900	0.046400
C31	C3	0.376700	0.977900	0.078100
H11	H1	0.394100	0.010800	0.097000
C41	C4	0.393100	0.916200	0.081700
C51	C5	0.364800	0.867000	0.055200
H21	H2	0.374700	0.825400	0.058700
C61	C6	0.323900	0.879200	0.025100
C71	C7	0.307500	0.941100	0.018500
H31	H3	0.279500	0.949100	0.996200
C81	C8	0.294500	0.825700	0.995600
C91	C9	0.436000	0.902400	0.112000
C101	C10	0.472500	0.885500	0.133400
C111	C11	0.514300	0.863600	0.157400
C121	C12	0.550200	0.841500	0.175300
C131	C13	0.592100	0.815300	0.193300
C141	C14	0.603800	0.787700	0.256500
H41	H4	0.583900	0.789700	0.291200
C151	C15	0.644500	0.757100	0.269300
C161	C16	0.675100	0.755300	0.217900
H51	H5	0.702400	0.734900	0.226700
C171	C17	0.665400	0.783800	0.153400
C181	C18	0.623700	0.812500	0.140700
H61	H6	0.616100	0.830100	0.097600
C191	C19	0.656900	0.727500	0.338700
C201	C20	0.698300	0.779400	0.100700
C211	C21	0.162000	0.955300	0.927000
C221	C22	0.147700	0.019600	0.907200
C231	C23	0.172300	0.073200	0.932700
H71	H7	0.197900	0.067700	0.962100
C241	C24	0.158000	0.134800	0.913200
C251	C25	0.117700	0.142900	0.873300
H81	H8	0.106900	0.183400	0.863300
C261	C26	0.093200	0.089400	0.848100
C271	C27	0.108700	0.028700	0.866400
H91	H9	0.092300	0.993600	0.850600
C281	C28	0.054500	0.096500	0.803600
C291	C29	0.019000	0.098100	0.771800
C301	C30	0.183500	0.190300	0.937800
Dy31	Dy3	0.776530	0.674570	0.058850
Dy41	Dy4	0.681230	0.330300	0.963480
O131	O13	0.840300	0.601400	0.073000
O141	O14	0.780000	0.569000	0.015500
O151	O15	0.757300	0.340100	0.968900
O161	O16	0.809200	0.271800	0.001600
O171	O17	0.127800	0.222900	0.381300
O181	O18	0.195920	0.208500	0.351500
O191	O19	0.188860	0.308800	0.044700
O201	O20	0.231270	0.245500	0.113200
O211	O21	0.646200	0.409700	0.893000
O221	O22	0.691000	0.444900	0.973700
O231	O23	0.715600	0.684100	0.981400
O241	O24	0.671150	0.743900	0.912200
C311	C31	0.817200	0.557500	0.043800
C321	C32	0.834200	0.490900	0.046400
C331	C33	0.876700	0.477900	0.078100
H101	H10	0.894100	0.510800	0.097000
C341	C34	0.893100	0.416200	0.081700
C351	C35	0.864800	0.367000	0.055200
H111	H11	0.874700	0.325400	0.058700
C361	C36	0.823900	0.379200	0.025100
C371	C37	0.807500	0.441100	0.018500
H121	H12	0.779500	0.449100	0.996200
C381	C38	0.794500	0.325700	0.995600
C391	C39	0.936000	0.402400	0.112000
C401	C40	0.972500	0.385500	0.133400
C411	C41	0.014300	0.363600	0.157400
C421	C42	0.050200	0.341500	0.175300
C431	C43	0.092100	0.315300	0.193300
C441	C44	0.103800	0.287700	0.256500
H131	H13	0.083900	0.289700	0.291200
C451	C45	0.144500	0.257100	0.269300
C461	C46	0.175100	0.255300	0.217900
H141	H14	0.202400	0.234900	0.226700
C471	C47	0.165400	0.283800	0.153400
C481	C48	0.123700	0.312500	0.140700
H151	H15	0.116100	0.330100	0.097600
C491	C49	0.156900	0.227500	0.338700
C501	C50	0.198300	0.279400	0.100700
C511	C51	0.662000	0.455300	0.927000
C521	C52	0.647700	0.519600	0.907200
C531	C53	0.672300	0.573200	0.932700
H161	H16	0.697900	0.567700	0.962100
C541	C54	0.658000	0.634800	0.913200
C551	C55	0.617700	0.642900	0.873300
H171	H17	0.606900	0.683400	0.863300
C561	C56	0.593200	0.589400	0.848100
C571	C57	0.608700	0.528700	0.866400
H181	H18	0.592300	0.493600	0.850600
C581	C58	0.554500	0.596500	0.803600
C591	C59	0.519000	0.598100	0.771800
C601	C60	0.683500	0.690300	0.937800
Dy51	Dy5	0.723470	0.174570	0.441150
Dy61	Dy6	0.818770	0.830300	0.536520
O251	O25	0.659700	0.101400	0.427000
O261	O26	0.720000	0.069000	0.484500
O271	O27	0.742700	0.840100	0.531100
O281	O28	0.690800	0.771800	0.498400
O291	O29	0.372200	0.722900	0.118700
O301	O30	0.304080	0.708500	0.148500
O311	O31	0.311140	0.808800	0.455300
O321	O32	0.268730	0.745500	0.386800
O331	O33	0.853800	0.909700	0.607000
O341	O34	0.809000	0.944900	0.526300
O351	O35	0.784400	0.184100	0.518600
O361	O36	0.828850	0.243900	0.587800
C611	C61	0.682800	0.057500	0.456200
C621	C62	0.665800	0.990900	0.453600
C631	C63	0.623300	0.977900	0.421900
H191	H19	0.605900	0.010800	0.403000
C641	C64	0.606900	0.916200	0.418300
C651	C65	0.635200	0.867000	0.444800
H201	H20	0.625300	0.825400	0.441300
C661	C66	0.676100	0.879200	0.474900
C671	C67	0.692500	0.941100	0.481500
H211	H21	0.720500	0.949100	0.503800
C681	C68	0.705500	0.825700	0.504400
C691	C69	0.564000	0.902400	0.388000
C701	C70	0.527500	0.885500	0.366600
C711	C71	0.485700	0.863600	0.342600
C721	C72	0.449800	0.841500	0.324700
C731	C73	0.407900	0.815300	0.306700
C741	C74	0.396200	0.787700	0.243500
H221	H22	0.416100	0.789700	0.208800
C751	C75	0.355500	0.757100	0.230700
C761	C76	0.324900	0.755300	0.282100
H231	H23	0.297600	0.734900	0.273300
C771	C77	0.334600	0.783800	0.346600
C781	C78	0.376300	0.812500	0.359300
H241	H24	0.383900	0.830100	0.402400
C791	C79	0.343100	0.727500	0.161300
C801	C80	0.301700	0.779400	0.399300
C811	C81	0.838000	0.955300	0.573000
C821	C82	0.852300	0.019600	0.592800
C831	C83	0.827700	0.073200	0.567300
H251	H25	0.802100	0.067700	0.537900
C841	C84	0.842000	0.134800	0.586800
C851	C85	0.882300	0.142900	0.626700
H261	H26	0.893100	0.183400	0.636700
C861	C86	0.906800	0.089400	0.651900
C871	C87	0.891300	0.028700	0.633600
H271	H27	0.907700	0.993600	0.649400
C881	C88	0.945500	0.096500	0.696400
C891	C89	0.981000	0.098100	0.728200
C901	C90	0.816500	0.190300	0.562200
Dy71	Dy7	0.223470	0.674570	0.441150
Dy81	Dy8	0.318770	0.330300	0.536520
O371	O37	0.159700	0.601400	0.427000
O381	O38	0.220000	0.569000	0.484500
O391	O39	0.242700	0.340100	0.531100
O401	O40	0.190800	0.271800	0.498400
O411	O41	0.872200	0.222900	0.118700
O421	O42	0.804080	0.208500	0.148500
O431	O43	0.811140	0.308800	0.455300
O441	O44	0.768730	0.245500	0.386800
O451	O45	0.353800	0.409700	0.607000
O461	O46	0.309000	0.444900	0.526300
O471	O47	0.284400	0.684100	0.518600
O481	O48	0.328850	0.743900	0.587800
C911	C91	0.182800	0.557500	0.456200
C921	C92	0.165800	0.490900	0.453600
C931	C93	0.123300	0.477900	0.421900
H281	H28	0.105900	0.510800	0.403000
C941	C94	0.106900	0.416200	0.418300
C951	C95	0.135200	0.367000	0.444800
H291	H29	0.125300	0.325400	0.441300
C961	C96	0.176100	0.379200	0.474900
C971	C97	0.192500	0.441100	0.481500
H301	H30	0.220500	0.449100	0.503800
C981	C98	0.205500	0.325700	0.504400
C991	C99	0.064000	0.402400	0.388000
C1001	C100	0.027500	0.385500	0.366600
C1011	C101	0.985700	0.363600	0.342600
C1021	C102	0.949800	0.341500	0.324700
C1031	C103	0.907900	0.315300	0.306700
C1041	C104	0.896200	0.287700	0.243500
H311	H31	0.916100	0.289700	0.208800
C1051	C105	0.855500	0.257100	0.230700
C1061	C106	0.824900	0.255300	0.282100
H321	H32	0.797600	0.234900	0.273300
C1071	C107	0.834600	0.283800	0.346600
C1081	C108	0.876300	0.312500	0.359300
H331	H33	0.883900	0.330100	0.402400
C1091	C109	0.843100	0.227500	0.161300
C1101	C110	0.801700	0.279400	0.399300
C1111	C111	0.338000	0.455300	0.573000
C1121	C112	0.352300	0.519600	0.592800
C1131	C113	0.327700	0.573200	0.567300
H341	H34	0.302100	0.567700	0.537900
C1141	C114	0.342000	0.634800	0.586800
C1151	C115	0.382300	0.642900	0.626700
H351	H35	0.393100	0.683400	0.636700
C1161	C116	0.406800	0.589400	0.651900
C1171	C117	0.391300	0.528700	0.633600
H361	H36	0.407700	0.493600	0.649400
C1181	C118	0.445500	0.596500	0.696400
C1191	C119	0.481000	0.598100	0.728200
C1201	C120	0.316500	0.690300	0.562200
Dy91	Dy9	0.723470	0.825430	0.941150
Dy101	Dy10	0.818770	0.169700	0.036520
O491	O49	0.659700	0.898600	0.927000
O501	O50	0.720000	0.931000	0.984500
O511	O51	0.742700	0.159900	0.031100
O521	O52	0.690800	0.228200	0.998400
O531	O53	0.372200	0.277100	0.618700
O541	O54	0.304080	0.291500	0.648500
O551	O55	0.311140	0.191200	0.955300
O561	O56	0.268730	0.254500	0.886800
O571	O57	0.853800	0.090300	0.107000
O581	O58	0.809000	0.055100	0.026300
O591	O59	0.784400	0.815900	0.018600
O601	O60	0.828850	0.756100	0.087800
C1211	C121	0.682800	0.942500	0.956200
C1221	C122	0.665800	0.009100	0.953600
C1231	C123	0.623300	0.022100	0.921900
H371	H37	0.605900	0.989200	0.903000
C1241	C124	0.606900	0.083800	0.918300
C1251	C125	0.635200	0.133000	0.944800
H381	H38	0.625300	0.174600	0.941300
C1261	C126	0.676100	0.120800	0.974900
C1271	C127	0.692500	0.058900	0.981500
H391	H39	0.720500	0.050900	0.003800
C1281	C128	0.705500	0.174300	0.004400
C1291	C129	0.564000	0.097600	0.888000
C1301	C130	0.527500	0.114500	0.866600
C1311	C131	0.485700	0.136400	0.842600
C1321	C132	0.449800	0.158500	0.824700
C1331	C133	0.407900	0.184700	0.806700
C1341	C134	0.396200	0.212300	0.743500
H401	H40	0.416100	0.210300	0.708800
C1351	C135	0.355500	0.242900	0.730700
C1361	C136	0.324900	0.244700	0.782100
H411	H41	0.297600	0.265100	0.773300
C1371	C137	0.334600	0.216200	0.846600
C1381	C138	0.376300	0.187500	0.859300
H421	H42	0.383900	0.169900	0.902400
C1391	C139	0.343100	0.272500	0.661300
C1401	C140	0.301700	0.220600	0.899300
C1411	C141	0.838000	0.044700	0.073000
C1421	C142	0.852300	0.980400	0.092800
C1431	C143	0.827700	0.926800	0.067300
H431	H43	0.802100	0.932300	0.037900
C1441	C144	0.842000	0.865200	0.086800
C1451	C145	0.882300	0.857100	0.126700
H441	H44	0.893100	0.816600	0.136700
C1461	C146	0.906800	0.910600	0.151900
C1471	C147	0.891300	0.971300	0.133600
H451	H45	0.907700	0.006400	0.149400
C1481	C148	0.945500	0.903500	0.196400
C1491	C149	0.981000	0.901900	0.228200
C1501	C150	0.816500	0.809700	0.062200
Dy111	Dy11	0.223470	0.325430	0.941150
Dy121	Dy12	0.318770	0.669700	0.036520
O611	O61	0.159700	0.398600	0.927000
O621	O62	0.220000	0.431000	0.984500
O631	O63	0.242700	0.659900	0.031100
O641	O64	0.190800	0.728200	0.998400
O651	O65	0.872200	0.777100	0.618700
O661	O66	0.804080	0.791500	0.648500
O671	O67	0.811140	0.691200	0.955300
O681	O68	0.768730	0.754500	0.886800
O691	O69	0.353800	0.590300	0.107000
O701	O70	0.309000	0.555100	0.026300
O711	O71	0.284400	0.315900	0.018600
O721	O72	0.328850	0.256100	0.087800
C1511	C151	0.182800	0.442500	0.956200
C1521	C152	0.165800	0.509100	0.953600
C1531	C153	0.123300	0.522100	0.921900
H461	H46	0.105900	0.489200	0.903000
C1541	C154	0.106900	0.583800	0.918300
C1551	C155	0.135200	0.633000	0.944800
H471	H47	0.125300	0.674600	0.941300
C1561	C156	0.176100	0.620800	0.974900
C1571	C157	0.192500	0.558900	0.981500
H481	H48	0.220500	0.550900	0.003800
C1581	C158	0.205500	0.674300	0.004400
C1591	C159	0.064000	0.597600	0.888000
C1601	C160	0.027500	0.614500	0.866600
C1611	C161	0.985700	0.636400	0.842600
C1621	C162	0.949800	0.658500	0.824700
C1631	C163	0.907900	0.684700	0.806700
C1641	C164	0.896200	0.712300	0.743500
H491	H49	0.916100	0.710300	0.708800
C1651	C165	0.855500	0.742900	0.730700
C1661	C166	0.824900	0.744700	0.782100
H501	H50	0.797600	0.765100	0.773300
C1671	C167	0.834600	0.716200	0.846600
C1681	C168	0.876300	0.687500	0.859300
H511	H51	0.883900	0.669900	0.902400
C1691	C169	0.843100	0.772500	0.661300
C1701	C170	0.801700	0.720600	0.899300
C1711	C171	0.338000	0.544700	0.073000
C1721	C172	0.352300	0.480400	0.092800
C1731	C173	0.327700	0.426800	0.067300
H521	H52	0.302100	0.432300	0.037900
C1741	C174	0.342000	0.365200	0.086800
C1751	C175	0.382300	0.357100	0.126700
H531	H53	0.393100	0.316600	0.136700
C1761	C176	0.406800	0.410600	0.151900
C1771	C177	0.391300	0.471300	0.133600
H541	H54	0.407700	0.506400	0.149400
C1781	C178	0.445500	0.403500	0.196400
C1791	C179	0.481000	0.401900	0.228200
C1801	C180	0.316500	0.309700	0.062200
Dy131	Dy13	0.276530	0.825430	0.558850
Dy141	Dy14	0.181230	0.169700	0.463480
O731	O73	0.340300	0.898600	0.573000
O741	O74	0.280000	0.931000	0.515500
O751	O75	0.257300	0.159900	0.468900
O761	O76	0.309200	0.228200	0.501600
O771	O77	0.627800	0.277100	0.881300
O781	O78	0.695920	0.291500	0.851500
O791	O79	0.688860	0.191200	0.544700
O801	O80	0.731270	0.254500	0.613200
O811	O81	0.146200	0.090300	0.393000
O821	O82	0.191000	0.055100	0.473700
O831	O83	0.215600	0.815900	0.481400
O841	O84	0.171150	0.756100	0.412200
C1811	C181	0.317200	0.942500	0.543800
C1821	C182	0.334200	0.009100	0.546400
C1831	C183	0.376700	0.022100	0.578100
H551	H55	0.394100	0.989200	0.597000
C1841	C184	0.393100	0.083800	0.581700
C1851	C185	0.364800	0.133000	0.555200
H561	H56	0.374700	0.174600	0.558700
C1861	C186	0.323900	0.120800	0.525100
C1871	C187	0.307500	0.058900	0.518500
H571	H57	0.279500	0.050900	0.496200
C1881	C188	0.294500	0.174300	0.495600
C1891	C189	0.436000	0.097600	0.612000
C1901	C190	0.472500	0.114500	0.633400
C1911	C191	0.514300	0.136400	0.657400
C1921	C192	0.550200	0.158500	0.675300
C1931	C193	0.592100	0.184700	0.693300
C1941	C194	0.603800	0.212300	0.756500
H581	H58	0.583900	0.210300	0.791200
C1951	C195	0.644500	0.242900	0.769300
C1961	C196	0.675100	0.244700	0.717900
H591	H59	0.702400	0.265100	0.726700
C1971	C197	0.665400	0.216200	0.653400
C1981	C198	0.623700	0.187500	0.640700
H601	H60	0.616100	0.169900	0.597600
C1991	C199	0.656900	0.272500	0.838700
C2001	C200	0.698300	0.220600	0.600700
C2011	C201	0.162000	0.044700	0.427000
C2021	C202	0.147700	0.980400	0.407200
C2031	C203	0.172300	0.926800	0.432700
H611	H61	0.197900	0.932300	0.462100
C2041	C204	0.158000	0.865200	0.413200
C2051	C205	0.117700	0.857100	0.373300
H621	H62	0.106900	0.816600	0.363300
C2061	C206	0.093200	0.910600	0.348100
C2071	C207	0.108700	0.971300	0.366400
H631	H63	0.092300	0.006400	0.350600
C2081	C208	0.054500	0.903500	0.303600
C2091	C209	0.019000	0.901900	0.271800
C2101	C210	0.183500	0.809700	0.437800
Dy151	Dy15	0.776530	0.325430	0.558850
Dy161	Dy16	0.681230	0.669700	0.463480
O851	O85	0.840300	0.398600	0.573000
O861	O86	0.780000	0.431000	0.515500
O871	O87	0.757300	0.659900	0.468900
O881	O88	0.809200	0.728200	0.501600
O891	O89	0.127800	0.777100	0.881300
O901	O90	0.195920	0.791500	0.851500
O911	O91	0.188860	0.691200	0.544700
O921	O92	0.231270	0.754500	0.613200
O931	O93	0.646200	0.590300	0.393000
O941	O94	0.691000	0.555100	0.473700
O951	O95	0.715600	0.315900	0.481400
O961	O96	0.671150	0.256100	0.412200
C2111	C211	0.817200	0.442500	0.543800
C2121	C212	0.834200	0.509100	0.546400
C2131	C213	0.876700	0.522100	0.578100
H641	H64	0.894100	0.489200	0.597000
C2141	C214	0.893100	0.583800	0.581700
C2151	C215	0.864800	0.633000	0.555200
H651	H65	0.874700	0.674600	0.558700
C2161	C216	0.823900	0.620800	0.525100
C2171	C217	0.807500	0.558900	0.518500
H661	H66	0.779500	0.550900	0.496200
C2181	C218	0.794500	0.674300	0.495600
C2191	C219	0.936000	0.597600	0.612000
C2201	C220	0.972500	0.614500	0.633400
C2211	C221	0.014300	0.636400	0.657400
C2221	C222	0.050200	0.658500	0.675300
C2231	C223	0.092100	0.684700	0.693300
C2241	C224	0.103800	0.712300	0.756500
H671	H67	0.083900	0.710300	0.791200
C2251	C225	0.144500	0.742900	0.769300
C2261	C226	0.175100	0.744700	0.717900
H681	H68	0.202400	0.765100	0.726700
C2271	C227	0.165400	0.716200	0.653400
C2281	C228	0.123700	0.687500	0.640700
H691	H69	0.116100	0.669900	0.597600
C2291	C229	0.156900	0.772500	0.838700
C2301	C230	0.198300	0.720600	0.600700
C2311	C231	0.662000	0.544700	0.427000
C2321	C232	0.647700	0.480400	0.407200
C2331	C233	0.672300	0.426800	0.432700
H701	H70	0.697900	0.432300	0.462100
C2341	C234	0.658000	0.365200	0.413200
C2351	C235	0.617700	0.357100	0.373300
H711	H71	0.606900	0.316600	0.363300
C2361	C236	0.593200	0.410600	0.348100
C2371	C237	0.608700	0.471300	0.366400
H721	H72	0.592300	0.506400	0.350600
C2381	C238	0.554500	0.403500	0.303600
C2391	C239	0.519000	0.401900	0.271800
C2401	C240	0.683500	0.309700	0.437800
