data_EYUWAW_clean_h_PM
_symmetry_space_group_name_H-M	'P1'
_cell_length_a	16.046000
_cell_length_b	18.334000
_cell_length_c	23.706000
_cell_angle_alpha	90.000000
_cell_angle_beta	90.000000
_cell_angle_gamma	90.000000
_symmetry_Int_Tables_number 1

loop_
_symmetry_equiv_pos_as_xyz
'x,y,z'

loop_
_atom_site_label
_atom_site_type_symbol
_atom_site_fract_x
_atom_site_fract_y
_atom_site_fract_z
Mn11	Mn1	0.185400	0.823000	0.598100
Mn21	Mn2	0.998700	0.705100	0.581000
Mn31	Mn3	0.814600	0.677000	0.098100
Mn41	Mn4	0.001300	0.794900	0.081000
Mn51	Mn5	0.685400	0.177000	0.901900
Mn61	Mn6	0.498700	0.294900	0.919000
Mn71	Mn7	0.314600	0.323000	0.401900
Mn81	Mn8	0.501300	0.205100	0.419000
Mn91	Mn9	0.814600	0.177000	0.401900
Mn101	Mn10	0.001300	0.294900	0.419000
Mn111	Mn11	0.185400	0.323000	0.901900
Mn121	Mn12	0.998700	0.205100	0.919000
Mn131	Mn13	0.314600	0.823000	0.098100
Mn141	Mn14	0.501300	0.705100	0.081000
Mn151	Mn15	0.685400	0.677000	0.598100
Mn161	Mn16	0.498700	0.794900	0.581000
C11	C1	0.960300	0.747000	0.762300
C21	C2	0.035100	0.778500	0.749700
C31	C3	0.089500	0.799600	0.793200
C41	C4	0.067800	0.788900	0.848300
C51	C5	0.967600	0.743400	0.919200
C61	C6	0.892800	0.713200	0.932700
C71	C7	0.837700	0.692500	0.889100
C81	C8	0.859400	0.702200	0.833900
C91	C9	0.936100	0.734900	0.819000
C101	C10	0.991400	0.755900	0.862800
C111	C11	0.061000	0.788700	0.689000
C121	C12	0.869500	0.701200	0.993200
C131	C13	0.144200	0.566200	0.690100
C141	C14	0.208300	0.608900	0.666300
C151	C15	0.288500	0.600200	0.684000
C161	C16	0.391500	0.535500	0.744600
C171	C17	0.408600	0.484500	0.784600
C181	C18	0.344300	0.441700	0.808400
C191	C19	0.264700	0.450900	0.789700
C201	C20	0.162300	0.514500	0.729700
C211	C21	0.309400	0.546700	0.724900
C221	C22	0.244900	0.502800	0.747800
C231	C23	0.184300	0.662400	0.621100
C241	C24	0.363400	0.388800	0.855600
C251	C25	0.039700	0.753000	0.262300
C261	C26	0.964900	0.721500	0.249700
C271	C27	0.910500	0.700400	0.293200
C281	C28	0.932200	0.711100	0.348300
C291	C29	0.032400	0.756600	0.419200
C301	C30	0.107200	0.786800	0.432700
C311	C31	0.162300	0.807500	0.389100
C321	C32	0.140600	0.797800	0.333900
C331	C33	0.063900	0.765100	0.319000
C341	C34	0.008600	0.744100	0.362800
C351	C35	0.939000	0.711300	0.189000
C361	C36	0.130500	0.798800	0.493200
C371	C37	0.855800	0.933800	0.190100
C381	C38	0.791700	0.891100	0.166300
C391	C39	0.711500	0.899800	0.184000
C401	C40	0.608500	0.964500	0.244600
C411	C41	0.591400	0.015500	0.284600
C421	C42	0.655700	0.058300	0.308400
C431	C43	0.735300	0.049100	0.289700
C441	C44	0.837700	0.985500	0.229700
C451	C45	0.690600	0.953300	0.224900
C461	C46	0.755100	0.997200	0.247800
C471	C47	0.815700	0.837600	0.121100
C481	C48	0.636600	0.111200	0.355600
C491	C49	0.460300	0.253000	0.737700
C501	C50	0.535100	0.221500	0.750300
C511	C51	0.589500	0.200400	0.706800
C521	C52	0.567800	0.211100	0.651700
C531	C53	0.467600	0.256600	0.580800
C541	C54	0.392800	0.286800	0.567300
C551	C55	0.337700	0.307500	0.610900
C561	C56	0.359400	0.297800	0.666100
C571	C57	0.436100	0.265100	0.681000
C581	C58	0.491400	0.244100	0.637200
C591	C59	0.561000	0.211300	0.811000
C601	C60	0.369500	0.298800	0.506800
C611	C61	0.644200	0.433800	0.809900
C621	C62	0.708300	0.391100	0.833700
C631	C63	0.788500	0.399800	0.816000
C641	C64	0.891500	0.464500	0.755400
C651	C65	0.908600	0.515500	0.715400
C661	C66	0.844300	0.558300	0.691600
C671	C67	0.764700	0.549100	0.710300
C681	C68	0.662300	0.485500	0.770300
C691	C69	0.809400	0.453300	0.775100
C701	C70	0.744900	0.497200	0.752200
C711	C71	0.684300	0.337600	0.878900
C721	C72	0.863400	0.611200	0.644400
C731	C73	0.539700	0.247000	0.237700
C741	C74	0.464900	0.278500	0.250300
C751	C75	0.410500	0.299600	0.206800
C761	C76	0.432200	0.288900	0.151700
C771	C77	0.532400	0.243400	0.080800
C781	C78	0.607200	0.213200	0.067300
C791	C79	0.662300	0.192500	0.110900
C801	C80	0.640600	0.202200	0.166100
C811	C81	0.563900	0.234900	0.181000
C821	C82	0.508600	0.255900	0.137200
C831	C83	0.439000	0.288700	0.311000
C841	C84	0.630500	0.201200	0.006800
C851	C85	0.355800	0.066200	0.309900
C861	C86	0.291700	0.108900	0.333700
C871	C87	0.211500	0.100200	0.316000
C881	C88	0.108500	0.035500	0.255400
C891	C89	0.091400	0.984500	0.215400
C901	C90	0.155700	0.941700	0.191600
C911	C91	0.235300	0.950900	0.210300
C921	C92	0.337700	0.014500	0.270300
C931	C93	0.190600	0.046700	0.275100
C941	C94	0.255100	0.002800	0.252200
C951	C95	0.315700	0.162400	0.378900
C961	C96	0.136600	0.888800	0.144400
C971	C97	0.039700	0.253000	0.237700
C981	C98	0.964900	0.221500	0.250300
C991	C99	0.910500	0.200400	0.206800
C1001	C100	0.932200	0.211100	0.151700
C1011	C101	0.032400	0.256600	0.080800
C1021	C102	0.107200	0.286800	0.067300
C1031	C103	0.162300	0.307500	0.110900
C1041	C104	0.140600	0.297800	0.166100
C1051	C105	0.063900	0.265100	0.181000
C1061	C106	0.008600	0.244100	0.137200
C1071	C107	0.939000	0.211300	0.311000
C1081	C108	0.130500	0.298800	0.006800
C1091	C109	0.855800	0.433800	0.309900
C1101	C110	0.791700	0.391100	0.333700
C1111	C111	0.711500	0.399800	0.316000
C1121	C112	0.608500	0.464500	0.255400
C1131	C113	0.591400	0.515500	0.215400
C1141	C114	0.655700	0.558300	0.191600
C1151	C115	0.735300	0.549100	0.210300
C1161	C116	0.837700	0.485500	0.270300
C1171	C117	0.690600	0.453300	0.275100
C1181	C118	0.755100	0.497200	0.252200
C1191	C119	0.815700	0.337600	0.378900
C1201	C120	0.636600	0.611200	0.144400
C1211	C121	0.960300	0.247000	0.737700
C1221	C122	0.035100	0.278500	0.750300
C1231	C123	0.089500	0.299600	0.706800
C1241	C124	0.067800	0.288900	0.651700
C1251	C125	0.967600	0.243400	0.580800
C1261	C126	0.892800	0.213200	0.567300
C1271	C127	0.837700	0.192500	0.610900
C1281	C128	0.859400	0.202200	0.666100
C1291	C129	0.936100	0.234900	0.681000
C1301	C130	0.991400	0.255900	0.637200
C1311	C131	0.061000	0.288700	0.811000
C1321	C132	0.869500	0.201200	0.506800
C1331	C133	0.144200	0.066200	0.809900
C1341	C134	0.208300	0.108900	0.833700
C1351	C135	0.288500	0.100200	0.816000
C1361	C136	0.391500	0.035500	0.755400
C1371	C137	0.408600	0.984500	0.715400
C1381	C138	0.344300	0.941700	0.691600
C1391	C139	0.264700	0.950900	0.710300
C1401	C140	0.162300	0.014500	0.770300
C1411	C141	0.309400	0.046700	0.775100
C1421	C142	0.244900	0.002800	0.752200
C1431	C143	0.184300	0.162400	0.878900
C1441	C144	0.363400	0.888800	0.644400
C1451	C145	0.539700	0.747000	0.262300
C1461	C146	0.464900	0.778500	0.249700
C1471	C147	0.410500	0.799600	0.293200
C1481	C148	0.432200	0.788900	0.348300
C1491	C149	0.532400	0.743400	0.419200
C1501	C150	0.607200	0.713200	0.432700
C1511	C151	0.662300	0.692500	0.389100
C1521	C152	0.640600	0.702200	0.333900
C1531	C153	0.563900	0.734900	0.319000
C1541	C154	0.508600	0.755900	0.362800
C1551	C155	0.439000	0.788700	0.189000
C1561	C156	0.630500	0.701200	0.493200
C1571	C157	0.355800	0.566200	0.190100
C1581	C158	0.291700	0.608900	0.166300
C1591	C159	0.211500	0.600200	0.184000
C1601	C160	0.108500	0.535500	0.244600
C1611	C161	0.091400	0.484500	0.284600
C1621	C162	0.155700	0.441700	0.308400
C1631	C163	0.235300	0.450900	0.289700
C1641	C164	0.337700	0.514500	0.229700
C1651	C165	0.190600	0.546700	0.224900
C1661	C166	0.255100	0.502800	0.247800
C1671	C167	0.315700	0.662400	0.121100
C1681	C168	0.136600	0.388800	0.355600
C1691	C169	0.460300	0.753000	0.762300
C1701	C170	0.535100	0.721500	0.749700
C1711	C171	0.589500	0.700400	0.793200
C1721	C172	0.567800	0.711100	0.848300
C1731	C173	0.467600	0.756600	0.919200
C1741	C174	0.392800	0.786800	0.932700
C1751	C175	0.337700	0.807500	0.889100
C1761	C176	0.359400	0.797800	0.833900
C1771	C177	0.436100	0.765100	0.819000
C1781	C178	0.491400	0.744100	0.862800
C1791	C179	0.561000	0.711300	0.689000
C1801	C180	0.369500	0.798800	0.993200
C1811	C181	0.644200	0.933800	0.690100
C1821	C182	0.708300	0.891100	0.666300
C1831	C183	0.788500	0.899800	0.684000
C1841	C184	0.891500	0.964500	0.744600
C1851	C185	0.908600	0.015500	0.784600
C1861	C186	0.844300	0.058300	0.808400
C1871	C187	0.764700	0.049100	0.789700
C1881	C188	0.662300	0.985500	0.729700
C1891	C189	0.809400	0.953300	0.724900
C1901	C190	0.744900	0.997200	0.747800
C1911	C191	0.684300	0.837600	0.621100
C1921	C192	0.863400	0.111200	0.855600
O11	O1	0.007300	0.776400	0.651600
O21	O2	0.133900	0.809300	0.679800
O31	O3	0.234000	0.712600	0.607600
O41	O4	0.114400	0.652600	0.598900
O51	O5	0.799900	0.674200	0.005100
O61	O6	0.920900	0.718100	0.031500
O71	O7	0.438500	0.375300	0.865300
O81	O8	0.303900	0.363000	0.883400
O91	O9	0.992700	0.723600	0.151600
O101	O10	0.866100	0.690700	0.179800
O111	O11	0.766000	0.787400	0.107600
O121	O12	0.885600	0.847400	0.098900
O131	O13	0.200100	0.825800	0.505100
O141	O14	0.079100	0.781900	0.531500
O151	O15	0.561500	0.124700	0.365300
O161	O16	0.696100	0.137000	0.383400
O171	O17	0.507300	0.223600	0.848400
O181	O18	0.633900	0.190700	0.820200
O191	O19	0.734000	0.287400	0.892400
O201	O20	0.614400	0.347400	0.901100
O211	O21	0.299900	0.325800	0.494900
O221	O22	0.420900	0.281900	0.468500
O231	O23	0.938500	0.624700	0.634700
O241	O24	0.803900	0.637000	0.616600
O251	O25	0.492700	0.276400	0.348400
O261	O26	0.366100	0.309300	0.320200
O271	O27	0.266000	0.212600	0.392400
O281	O28	0.385600	0.152600	0.401100
O291	O29	0.700100	0.174200	0.994900
O301	O30	0.579100	0.218100	0.968500
O311	O31	0.061500	0.875300	0.134700
O321	O32	0.196100	0.863000	0.116600
O331	O33	0.992700	0.223600	0.348400
O341	O34	0.866100	0.190700	0.320200
O351	O35	0.766000	0.287400	0.392400
O361	O36	0.885600	0.347400	0.401100
O371	O37	0.200100	0.325800	0.994900
O381	O38	0.079100	0.281900	0.968500
O391	O39	0.561500	0.624700	0.134700
O401	O40	0.696100	0.637000	0.116600
O411	O41	0.007300	0.276400	0.848400
O421	O42	0.133900	0.309300	0.820200
O431	O43	0.234000	0.212600	0.892400
O441	O44	0.114400	0.152600	0.901100
O451	O45	0.799900	0.174200	0.494900
O461	O46	0.920900	0.218100	0.468500
O471	O47	0.438500	0.875300	0.634700
O481	O48	0.303900	0.863000	0.616600
O491	O49	0.492700	0.776400	0.151600
O501	O50	0.366100	0.809300	0.179800
O511	O51	0.266000	0.712600	0.107600
O521	O52	0.385600	0.652600	0.098900
O531	O53	0.700100	0.674200	0.505100
O541	O54	0.579100	0.718100	0.531500
O551	O55	0.061500	0.375300	0.365300
O561	O56	0.196100	0.363000	0.383400
O571	O57	0.507300	0.723600	0.651600
O581	O58	0.633900	0.690700	0.679800
O591	O59	0.734000	0.787400	0.607600
O601	O60	0.614400	0.847400	0.598900
O611	O61	0.299900	0.825800	0.005100
O621	O62	0.420900	0.781900	0.031500
O631	O63	0.938500	0.124700	0.865300
O641	O64	0.803900	0.137000	0.883400
H11	H1	0.916250	0.730000	0.726940
H21	H2	0.152010	0.825760	0.782560
H31	H3	0.111770	0.806760	0.883450
H41	H4	0.013120	0.759390	0.953990
H51	H5	0.774620	0.667510	0.899870
H61	H6	0.815370	0.683810	0.798940
H71	H7	0.076850	0.574760	0.676290
H81	H8	0.339930	0.636170	0.665920
H91	H9	0.443910	0.570190	0.726310
H101	H10	0.475490	0.475820	0.799360
H111	H11	0.212220	0.416250	0.807940
H121	H12	0.110230	0.480020	0.748650
H131	H13	0.083750	0.770000	0.226940
H141	H14	0.847990	0.674240	0.282560
H151	H15	0.888230	0.693240	0.383450
H161	H16	0.986880	0.740610	0.453990
H171	H17	0.225380	0.832490	0.399870
H181	H18	0.184630	0.816190	0.298940
H191	H19	0.923150	0.925240	0.176290
H201	H20	0.660070	0.863830	0.165920
H211	H21	0.556090	0.929810	0.226310
H221	H22	0.524510	0.024180	0.299360
H231	H23	0.787780	0.083750	0.307940
H241	H24	0.889770	0.019980	0.248650
H251	H25	0.416250	0.270000	0.773060
H261	H26	0.652010	0.174240	0.717440
H271	H27	0.611770	0.193240	0.616550
H281	H28	0.513120	0.240610	0.546010
H291	H29	0.274620	0.332490	0.600130
H301	H30	0.315370	0.316190	0.701060
H311	H31	0.576850	0.425240	0.823710
H321	H32	0.839930	0.363830	0.834080
H331	H33	0.943910	0.429810	0.773690
H341	H34	0.975490	0.524180	0.700640
H351	H35	0.712220	0.583750	0.692060
H361	H36	0.610230	0.519980	0.751350
H371	H37	0.583750	0.230000	0.273060
H381	H38	0.347990	0.325760	0.217440
H391	H39	0.388230	0.306760	0.116550
H401	H40	0.486880	0.259390	0.046010
H411	H41	0.725380	0.167510	0.100130
H421	H42	0.684630	0.183810	0.201060
H431	H43	0.423150	0.074760	0.323710
H441	H44	0.160070	0.136170	0.334080
H451	H45	0.056090	0.070190	0.273690
H461	H46	0.024510	0.975820	0.200640
H471	H47	0.287780	0.916250	0.192060
H481	H48	0.389770	0.980020	0.251350
H491	H49	0.083750	0.270000	0.273060
H501	H50	0.847990	0.174240	0.217440
H511	H51	0.888230	0.193240	0.116550
H521	H52	0.986880	0.240610	0.046010
H531	H53	0.225380	0.332490	0.100130
H541	H54	0.184630	0.316190	0.201060
H551	H55	0.923150	0.425240	0.323710
H561	H56	0.660070	0.363830	0.334080
H571	H57	0.556090	0.429810	0.273690
H581	H58	0.524510	0.524180	0.200640
H591	H59	0.787780	0.583750	0.192060
H601	H60	0.889770	0.519980	0.251350
H611	H61	0.152010	0.325760	0.717440
H621	H62	0.111770	0.306760	0.616550
H631	H63	0.013120	0.259390	0.546010
H641	H64	0.774620	0.167510	0.600130
H651	H65	0.815370	0.183810	0.701060
H661	H66	0.076850	0.074760	0.823710
H671	H67	0.339930	0.136170	0.834080
H681	H68	0.443910	0.070190	0.773690
H691	H69	0.475490	0.975820	0.700640
H701	H70	0.212220	0.916250	0.692060
H711	H71	0.110230	0.980020	0.751350
H721	H72	0.583750	0.730000	0.226940
H731	H73	0.347990	0.825760	0.282560
H741	H74	0.388230	0.806760	0.383450
H751	H75	0.486880	0.759390	0.453990
H761	H76	0.725380	0.667510	0.399870
H771	H77	0.684630	0.683810	0.298940
H781	H78	0.423150	0.574760	0.176290
H791	H79	0.160070	0.636170	0.165920
H801	H80	0.056090	0.570190	0.226310
H811	H81	0.024510	0.475820	0.299360
H821	H82	0.287780	0.416250	0.307940
H831	H83	0.389770	0.480020	0.248650
H841	H84	0.416250	0.770000	0.726940
H851	H85	0.652010	0.674240	0.782560
H861	H86	0.611770	0.693240	0.883450
H871	H87	0.513120	0.740610	0.953990
H881	H88	0.274620	0.832490	0.899870
H891	H89	0.315370	0.816190	0.798940
H901	H90	0.576850	0.925240	0.676290
H911	H91	0.839930	0.863830	0.665920
H921	H92	0.943910	0.929810	0.726310
H931	H93	0.975490	0.024180	0.799360
H941	H94	0.712220	0.083750	0.807940
H951	H95	0.610230	0.019980	0.748650
