data_EZABAJ_clean_PM
_symmetry_space_group_name_H-M	'P1'
_cell_length_a	7.663000
_cell_length_b	10.104000
_cell_length_c	17.426000
_cell_angle_alpha	90.000000
_cell_angle_beta	90.000000
_cell_angle_gamma	90.000000
_symmetry_Int_Tables_number 1

loop_
_symmetry_equiv_pos_as_xyz
'x,y,z'

loop_
_atom_site_label
_atom_site_type_symbol
_atom_site_fract_x
_atom_site_fract_y
_atom_site_fract_z
N11	N1	0.150000	0.402900	0.792430
N21	N2	0.325800	0.401700	0.807640
N31	N3	0.212300	0.583600	0.859050
C11	C1	0.089400	0.511700	0.823870
H11	H1	0.972500	0.536400	0.821900
C21	C2	0.357600	0.511100	0.846770
H21	H2	0.467900	0.535500	0.864000
N41	N4	0.350000	0.597100	0.292430
N51	N5	0.174200	0.598300	0.307640
N61	N6	0.287700	0.416400	0.359050
C31	C3	0.410600	0.488300	0.323870
H31	H3	0.527500	0.463600	0.321900
C41	C4	0.142400	0.488900	0.346770
H41	H4	0.032100	0.464500	0.364000
N71	N7	0.850000	0.902900	0.207570
N81	N8	0.674200	0.901700	0.192360
N91	N9	0.787700	0.083600	0.140950
C51	C5	0.910600	0.011700	0.176130
H51	H5	0.027500	0.036400	0.178100
C61	C6	0.642400	0.011100	0.153230
H61	H6	0.532100	0.035500	0.136000
N101	N10	0.650000	0.097100	0.707570
N111	N11	0.825800	0.098300	0.692360
N121	N12	0.712300	0.916400	0.640950
C71	C7	0.589400	0.988300	0.676130
H71	H7	0.472500	0.963600	0.678100
C81	C8	0.857600	0.988900	0.653230
H81	H8	0.967900	0.964500	0.636000
N131	N13	0.850000	0.597100	0.207570
N141	N14	0.674200	0.598300	0.192360
N151	N15	0.787700	0.416400	0.140950
C91	C9	0.910600	0.488300	0.176130
H91	H9	0.027500	0.463600	0.178100
C101	C10	0.642400	0.488900	0.153230
H101	H10	0.532100	0.464500	0.136000
N161	N16	0.650000	0.402900	0.707570
N171	N17	0.825800	0.401700	0.692360
N181	N18	0.712300	0.583600	0.640950
C111	C11	0.589400	0.511700	0.676130
H111	H11	0.472500	0.536400	0.678100
C121	C12	0.857600	0.511100	0.653230
H121	H12	0.967900	0.535500	0.636000
N191	N19	0.150000	0.097100	0.792430
N201	N20	0.325800	0.098300	0.807640
N211	N21	0.212300	0.916400	0.859050
C131	C13	0.089400	0.988300	0.823870
H131	H13	0.972500	0.963600	0.821900
C141	C14	0.357600	0.988900	0.846770
H141	H14	0.467900	0.964500	0.864000
N221	N22	0.350000	0.902900	0.292430
N231	N23	0.174200	0.901700	0.307640
N241	N24	0.287700	0.083600	0.359050
C151	C15	0.410600	0.011700	0.323870
H151	H15	0.527500	0.036400	0.321900
C161	C16	0.142400	0.011100	0.346770
H161	H16	0.032100	0.035500	0.364000
Zn11	Zn1	0.156920	0.750000	0.915550
Zn21	Zn2	0.007500	0.750000	0.261190
N251	N25	0.339000	0.750000	0.141610
N261	N26	0.162100	0.750000	0.152290
N271	N27	0.213000	0.750000	0.027040
C171	C17	0.363300	0.750000	0.066800
H171	H17	0.472900	0.750000	0.043900
C181	C18	0.093100	0.750000	0.083200
H181	H18	0.973400	0.750000	0.074200
Zn31	Zn3	0.343080	0.250000	0.415550
Zn41	Zn4	0.492500	0.250000	0.761190
N281	N28	0.161000	0.250000	0.641610
N291	N29	0.337900	0.250000	0.652290
N301	N30	0.287000	0.250000	0.527040
C191	C19	0.136700	0.250000	0.566800
H191	H19	0.027100	0.250000	0.543900
C201	C20	0.406900	0.250000	0.583200
H201	H20	0.526600	0.250000	0.574200
Zn51	Zn5	0.843080	0.250000	0.084450
Zn61	Zn6	0.992500	0.250000	0.738810
N311	N31	0.661000	0.250000	0.858390
N321	N32	0.837900	0.250000	0.847710
N331	N33	0.787000	0.250000	0.972960
C211	C21	0.636700	0.250000	0.933200
H211	H21	0.527100	0.250000	0.956100
C221	C22	0.906900	0.250000	0.916800
H221	H22	0.026600	0.250000	0.925800
Zn71	Zn7	0.656920	0.750000	0.584450
Zn81	Zn8	0.507500	0.750000	0.238810
N341	N34	0.839000	0.750000	0.358390
N351	N35	0.662100	0.750000	0.347710
N361	N36	0.713000	0.750000	0.472960
C231	C23	0.863300	0.750000	0.433200
H231	H23	0.972900	0.750000	0.456100
C241	C24	0.593100	0.750000	0.416800
H241	H24	0.473400	0.750000	0.425800
