data_EZEQOR_clean_PM
_symmetry_space_group_name_H-M	'P1'
_cell_length_a	18.306600
_cell_length_b	16.979000
_cell_length_c	13.803500
_cell_angle_alpha	90.000000
_cell_angle_beta	130.134000
_cell_angle_gamma	90.000000
_symmetry_Int_Tables_number 1

loop_
_symmetry_equiv_pos_as_xyz
'x,y,z'

loop_
_atom_site_label
_atom_site_type_symbol
_atom_site_fract_x
_atom_site_fract_y
_atom_site_fract_z
O11	O1	0.099330	0.278660	0.888330
O21	O2	0.088580	0.108340	0.878820
O31	O3	0.231650	0.812270	0.356370
O41	O4	0.075810	0.801090	0.190960
O51	O5	0.231340	0.146100	0.057690
N11	N1	0.072950	0.339590	0.920700
C11	C1	0.157460	0.830890	0.247500
C21	C2	0.161650	0.098930	0.991700
C31	C3	0.166270	0.025180	0.056400
C41	C4	0.014880	0.466030	0.982600
C51	C5	0.087000	0.412970	0.900700
C61	C6	0.058100	0.476630	0.929700
C71	C7	0.163130	0.895300	0.178200
C81	C8	0.086200	0.911350	0.052500
C91	C9	0.242600	0.943500	0.240300
C101	C10	0.243100	0.008300	0.180100
C111	C11	0.087700	0.975120	0.991700
C121	C12	0.033600	0.326800	0.974400
C131	C13	0.004000	0.389290	0.004500
H11	H1	0.117000	0.417000	0.868000
H21	H2	0.028000	0.988000	0.898000
H31	H3	0.019000	0.272000	0.979000
H41	H4	0.026000	0.877000	0.008000
H51	H5	0.072000	0.528000	0.919000
H61	H6	0.292000	0.041000	0.224000
H71	H7	0.977000	0.377000	0.047000
H81	H8	0.300000	0.934000	0.330000
O61	O6	0.599330	0.778660	0.888330
O71	O7	0.588580	0.608340	0.878820
O81	O8	0.731650	0.312270	0.356370
O91	O9	0.575810	0.301090	0.190960
O101	O10	0.731340	0.646100	0.057690
N21	N2	0.572950	0.839590	0.920700
C141	C14	0.657460	0.330890	0.247500
C151	C15	0.661650	0.598930	0.991700
C161	C16	0.666270	0.525180	0.056400
C171	C17	0.514880	0.966030	0.982600
C181	C18	0.587000	0.912970	0.900700
C191	C19	0.558100	0.976630	0.929700
C201	C20	0.663130	0.395300	0.178200
C211	C21	0.586200	0.411350	0.052500
C221	C22	0.742600	0.443500	0.240300
C231	C23	0.743100	0.508300	0.180100
C241	C24	0.587700	0.475120	0.991700
C251	C25	0.533600	0.826800	0.974400
C261	C26	0.504000	0.889290	0.004500
H91	H9	0.617000	0.917000	0.868000
H101	H10	0.528000	0.488000	0.898000
H111	H11	0.519000	0.772000	0.979000
H121	H12	0.526000	0.377000	0.008000
H131	H13	0.572000	0.028000	0.919000
H141	H14	0.792000	0.541000	0.224000
H151	H15	0.477000	0.877000	0.047000
H161	H16	0.800000	0.434000	0.330000
O111	O11	0.900670	0.278660	0.611670
O121	O12	0.911420	0.108340	0.621180
O131	O13	0.768350	0.812270	0.143630
O141	O14	0.924190	0.801090	0.309040
O151	O15	0.768660	0.146100	0.442310
N31	N3	0.927050	0.339590	0.579300
C271	C27	0.842540	0.830890	0.252500
C281	C28	0.838350	0.098930	0.508300
C291	C29	0.833730	0.025180	0.443600
C301	C30	0.985120	0.466030	0.517400
C311	C31	0.913000	0.412970	0.599300
C321	C32	0.941900	0.476630	0.570300
C331	C33	0.836870	0.895300	0.321800
C341	C34	0.913800	0.911350	0.447500
C351	C35	0.757400	0.943500	0.259700
C361	C36	0.756900	0.008300	0.319900
C371	C37	0.912300	0.975120	0.508300
C381	C38	0.966400	0.326800	0.525600
C391	C39	0.996000	0.389290	0.495500
H171	H17	0.883000	0.417000	0.632000
H181	H18	0.972000	0.988000	0.602000
H191	H19	0.981000	0.272000	0.521000
H201	H20	0.974000	0.877000	0.492000
H211	H21	0.928000	0.528000	0.581000
H221	H22	0.708000	0.041000	0.276000
H231	H23	0.023000	0.377000	0.453000
H241	H24	0.700000	0.934000	0.170000
O161	O16	0.400670	0.778660	0.611670
O171	O17	0.411420	0.608340	0.621180
O181	O18	0.268350	0.312270	0.143630
O191	O19	0.424190	0.301090	0.309040
O201	O20	0.268660	0.646100	0.442310
N41	N4	0.427050	0.839590	0.579300
C401	C40	0.342540	0.330890	0.252500
C411	C41	0.338350	0.598930	0.508300
C421	C42	0.333730	0.525180	0.443600
C431	C43	0.485120	0.966030	0.517400
C441	C44	0.413000	0.912970	0.599300
C451	C45	0.441900	0.976630	0.570300
C461	C46	0.336870	0.395300	0.321800
C471	C47	0.413800	0.411350	0.447500
C481	C48	0.257400	0.443500	0.259700
C491	C49	0.256900	0.508300	0.319900
C501	C50	0.412300	0.475120	0.508300
C511	C51	0.466400	0.826800	0.525600
C521	C52	0.496000	0.889290	0.495500
H251	H25	0.383000	0.917000	0.632000
H261	H26	0.472000	0.488000	0.602000
H271	H27	0.481000	0.772000	0.521000
H281	H28	0.474000	0.377000	0.492000
H291	H29	0.428000	0.028000	0.581000
H301	H30	0.208000	0.541000	0.276000
H311	H31	0.523000	0.877000	0.453000
H321	H32	0.200000	0.434000	0.170000
O211	O21	0.900670	0.721340	0.111670
O221	O22	0.911420	0.891660	0.121180
O231	O23	0.768350	0.187730	0.643630
O241	O24	0.924190	0.198910	0.809040
O251	O25	0.768660	0.853900	0.942310
N51	N5	0.927050	0.660410	0.079300
C531	C53	0.842540	0.169110	0.752500
C541	C54	0.838350	0.901070	0.008300
C551	C55	0.833730	0.974820	0.943600
C561	C56	0.985120	0.533970	0.017400
C571	C57	0.913000	0.587030	0.099300
C581	C58	0.941900	0.523370	0.070300
C591	C59	0.836870	0.104700	0.821800
C601	C60	0.913800	0.088650	0.947500
C611	C61	0.757400	0.056500	0.759700
C621	C62	0.756900	0.991700	0.819900
C631	C63	0.912300	0.024880	0.008300
C641	C64	0.966400	0.673200	0.025600
C651	C65	0.996000	0.610710	0.995500
H331	H33	0.883000	0.583000	0.132000
H341	H34	0.972000	0.012000	0.102000
H351	H35	0.981000	0.728000	0.021000
H361	H36	0.974000	0.123000	0.992000
H371	H37	0.928000	0.472000	0.081000
H381	H38	0.708000	0.959000	0.776000
H391	H39	0.023000	0.623000	0.953000
H401	H40	0.700000	0.066000	0.670000
O261	O26	0.400670	0.221340	0.111670
O271	O27	0.411420	0.391660	0.121180
O281	O28	0.268350	0.687730	0.643630
O291	O29	0.424190	0.698910	0.809040
O301	O30	0.268660	0.353900	0.942310
N61	N6	0.427050	0.160410	0.079300
C661	C66	0.342540	0.669110	0.752500
C671	C67	0.338350	0.401070	0.008300
C681	C68	0.333730	0.474820	0.943600
C691	C69	0.485120	0.033970	0.017400
C701	C70	0.413000	0.087030	0.099300
C711	C71	0.441900	0.023370	0.070300
C721	C72	0.336870	0.604700	0.821800
C731	C73	0.413800	0.588650	0.947500
C741	C74	0.257400	0.556500	0.759700
C751	C75	0.256900	0.491700	0.819900
C761	C76	0.412300	0.524880	0.008300
C771	C77	0.466400	0.173200	0.025600
C781	C78	0.496000	0.110710	0.995500
H411	H41	0.383000	0.083000	0.132000
H421	H42	0.472000	0.512000	0.102000
H431	H43	0.481000	0.228000	0.021000
H441	H44	0.474000	0.623000	0.992000
H451	H45	0.428000	0.972000	0.081000
H461	H46	0.208000	0.459000	0.776000
H471	H47	0.523000	0.123000	0.953000
H481	H48	0.200000	0.566000	0.670000
O311	O31	0.099330	0.721340	0.388330
O321	O32	0.088580	0.891660	0.378820
O331	O33	0.231650	0.187730	0.856370
O341	O34	0.075810	0.198910	0.690960
O351	O35	0.231340	0.853900	0.557690
N71	N7	0.072950	0.660410	0.420700
C791	C79	0.157460	0.169110	0.747500
C801	C80	0.161650	0.901070	0.491700
C811	C81	0.166270	0.974820	0.556400
C821	C82	0.014880	0.533970	0.482600
C831	C83	0.087000	0.587030	0.400700
C841	C84	0.058100	0.523370	0.429700
C851	C85	0.163130	0.104700	0.678200
C861	C86	0.086200	0.088650	0.552500
C871	C87	0.242600	0.056500	0.740300
C881	C88	0.243100	0.991700	0.680100
C891	C89	0.087700	0.024880	0.491700
C901	C90	0.033600	0.673200	0.474400
C911	C91	0.004000	0.610710	0.504500
H491	H49	0.117000	0.583000	0.368000
H501	H50	0.028000	0.012000	0.398000
H511	H51	0.019000	0.728000	0.479000
H521	H52	0.026000	0.123000	0.508000
H531	H53	0.072000	0.472000	0.419000
H541	H54	0.292000	0.959000	0.724000
H551	H55	0.977000	0.623000	0.547000
H561	H56	0.300000	0.066000	0.830000
O361	O36	0.599330	0.221340	0.388330
O371	O37	0.588580	0.391660	0.378820
O381	O38	0.731650	0.687730	0.856370
O391	O39	0.575810	0.698910	0.690960
O401	O40	0.731340	0.353900	0.557690
N81	N8	0.572950	0.160410	0.420700
C921	C92	0.657460	0.669110	0.747500
C931	C93	0.661650	0.401070	0.491700
C941	C94	0.666270	0.474820	0.556400
C951	C95	0.514880	0.033970	0.482600
C961	C96	0.587000	0.087030	0.400700
C971	C97	0.558100	0.023370	0.429700
C981	C98	0.663130	0.604700	0.678200
C991	C99	0.586200	0.588650	0.552500
C1001	C100	0.742600	0.556500	0.740300
C1011	C101	0.743100	0.491700	0.680100
C1021	C102	0.587700	0.524880	0.491700
C1031	C103	0.533600	0.173200	0.474400
C1041	C104	0.504000	0.110710	0.504500
H571	H57	0.617000	0.083000	0.368000
H581	H58	0.528000	0.512000	0.398000
H591	H59	0.519000	0.228000	0.479000
H601	H60	0.526000	0.623000	0.508000
H611	H61	0.572000	0.972000	0.419000
H621	H62	0.792000	0.459000	0.724000
H631	H63	0.477000	0.123000	0.547000
H641	H64	0.800000	0.566000	0.830000
Mg11	Mg1	0.000000	0.191810	0.750000
Mg21	Mg2	0.500000	0.691810	0.750000
Mg31	Mg3	0.000000	0.808190	0.250000
Mg41	Mg4	0.500000	0.308190	0.250000
Mg51	Mg5	0.250000	0.250000	0.000000
Mg61	Mg6	0.750000	0.250000	0.500000
Mg71	Mg7	0.750000	0.750000	0.000000
Mg81	Mg8	0.250000	0.750000	0.500000
