data_EZITUE_clean_PM
_symmetry_space_group_name_H-M	'P1'
_cell_length_a	7.358300
_cell_length_b	27.280000
_cell_length_c	27.856000
_cell_angle_alpha	90.000000
_cell_angle_beta	90.000000
_cell_angle_gamma	90.000000
_symmetry_Int_Tables_number 1

loop_
_symmetry_equiv_pos_as_xyz
'x,y,z'

loop_
_atom_site_label
_atom_site_type_symbol
_atom_site_fract_x
_atom_site_fract_y
_atom_site_fract_z
Ba11	Ba1	0.865120	0.139790	0.288420
C11	C1	0.222300	0.031250	0.363330
H11	H1	0.102900	0.042700	0.353700
H21	H2	0.270000	0.010900	0.337700
C21	C2	0.347300	0.075430	0.370420
H31	H3	0.287000	0.097800	0.392900
C31	C3	0.527000	0.059290	0.393250
H41	H4	0.596900	0.041000	0.369800
H51	H5	0.596700	0.088100	0.402000
C41	C4	0.499000	0.027560	0.437900
H61	H6	0.615500	0.015600	0.449200
H71	H7	0.444900	0.047100	0.463200
C51	C5	0.204200	0.000710	0.408310
H81	H8	0.140300	0.019400	0.432600
H91	H9	0.132900	0.971700	0.401300
C61	C6	0.443000	0.939530	0.422690
C71	C7	0.648800	0.880720	0.440160
C81	C8	0.398600	0.861550	0.397830
C91	C9	0.940600	0.726940	0.298890
C101	C10	0.094800	0.761570	0.310860
H101	H10	0.172000	0.764700	0.282400
C111	C11	0.366900	0.102220	0.322570
C121	C12	0.150200	0.828350	0.577390
C131	C13	0.946000	0.903390	0.473780
H111	H11	0.893300	0.936000	0.474000
H121	H12	0.042300	0.902800	0.450000
C141	C14	0.024300	0.892110	0.522650
H131	H13	0.931800	0.897800	0.546800
H141	H14	0.124300	0.914400	0.529000
C151	C15	0.941800	0.804360	0.511380
H151	H15	0.988500	0.771100	0.511400
H161	H16	0.842600	0.805900	0.534300
C161	C16	0.870800	0.816760	0.461780
H171	H17	0.966900	0.812500	0.438300
H181	H18	0.771900	0.794800	0.453500
C171	C17	0.367500	0.779160	0.362860
H191	H19	0.435400	0.767900	0.390600
H201	H20	0.449600	0.780100	0.335600
C181	C18	0.022700	0.811990	0.323380
H211	H21	0.952000	0.824600	0.296700
H221	H22	0.943100	0.809600	0.351000
C191	C19	0.177400	0.847460	0.334520
H231	H23	0.247900	0.853100	0.305600
H241	H24	0.127100	0.878600	0.344700
C201	C20	0.092300	0.839560	0.527000
H251	H25	0.197000	0.835300	0.505600
C211	C21	0.212900	0.743490	0.352500
H261	H26	0.263000	0.711600	0.344600
H271	H27	0.138400	0.739900	0.381000
N11	N1	0.380700	0.986140	0.426740
N21	N2	0.334900	0.907750	0.398960
N31	N3	0.604400	0.928730	0.442300
N41	N4	0.549200	0.845290	0.418770
N51	N5	0.806600	0.867560	0.460910
N61	N6	0.296500	0.828620	0.372080
O11	O1	0.520600	0.106490	0.303850
O21	O2	0.934000	0.707880	0.258170
O31	O3	0.818000	0.719170	0.329990
O41	O4	0.223400	0.117340	0.302820
O51	O5	0.087400	0.849400	0.611980
O61	O6	0.272000	0.793650	0.581010
Ba21	Ba2	0.634880	0.860210	0.788420
C221	C22	0.277700	0.968750	0.863330
H281	H28	0.397100	0.957300	0.853700
H291	H29	0.230000	0.989100	0.837700
C231	C23	0.152700	0.924570	0.870420
H301	H30	0.213000	0.902200	0.892900
C241	C24	0.973000	0.940710	0.893250
H311	H31	0.903100	0.959000	0.869800
H321	H32	0.903300	0.911900	0.902000
C251	C25	0.001000	0.972440	0.937900
H331	H33	0.884500	0.984400	0.949200
H341	H34	0.055100	0.952900	0.963200
C261	C26	0.295800	0.999290	0.908310
H351	H35	0.359700	0.980600	0.932600
H361	H36	0.367100	0.028300	0.901300
C271	C27	0.057000	0.060470	0.922690
C281	C28	0.851200	0.119280	0.940160
C291	C29	0.101400	0.138450	0.897830
C301	C30	0.559400	0.273060	0.798890
C311	C31	0.405200	0.238430	0.810860
H371	H37	0.328000	0.235300	0.782400
C321	C32	0.133100	0.897780	0.822570
C331	C33	0.349800	0.171650	0.077390
C341	C34	0.554000	0.096610	0.973780
H381	H38	0.606700	0.064000	0.974000
H391	H39	0.457700	0.097200	0.950000
C351	C35	0.475700	0.107890	0.022650
H401	H40	0.568200	0.102200	0.046800
H411	H41	0.375700	0.085600	0.029000
C361	C36	0.558200	0.195640	0.011380
H421	H42	0.511500	0.228900	0.011400
H431	H43	0.657400	0.194100	0.034300
C371	C37	0.629200	0.183240	0.961780
H441	H44	0.533100	0.187500	0.938300
H451	H45	0.728100	0.205200	0.953500
C381	C38	0.132500	0.220840	0.862860
H461	H46	0.064600	0.232100	0.890600
H471	H47	0.050400	0.219900	0.835600
C391	C39	0.477300	0.188010	0.823380
H481	H48	0.548000	0.175400	0.796700
H491	H49	0.556900	0.190400	0.851000
C401	C40	0.322600	0.152540	0.834520
H501	H50	0.252100	0.146900	0.805600
H511	H51	0.372900	0.121400	0.844700
C411	C41	0.407700	0.160440	0.027000
H521	H52	0.303000	0.164700	0.005600
C421	C42	0.287100	0.256510	0.852500
H531	H53	0.237000	0.288400	0.844600
H541	H54	0.361600	0.260100	0.881000
N71	N7	0.119300	0.013860	0.926740
N81	N8	0.165100	0.092250	0.898960
N91	N9	0.895600	0.071270	0.942300
N101	N10	0.950800	0.154710	0.918770
N111	N11	0.693400	0.132440	0.960910
N121	N12	0.203500	0.171380	0.872080
O71	O7	0.979400	0.893510	0.803850
O81	O8	0.566000	0.292120	0.758170
O91	O9	0.682000	0.280830	0.829990
O101	O10	0.276600	0.882660	0.802820
O111	O11	0.412600	0.150600	0.111980
O121	O12	0.228000	0.206350	0.081010
Ba31	Ba3	0.134880	0.639790	0.211580
C431	C43	0.777700	0.531250	0.136670
H551	H55	0.897100	0.542700	0.146300
H561	H56	0.730000	0.510900	0.162300
C441	C44	0.652700	0.575430	0.129580
H571	H57	0.713000	0.597800	0.107100
C451	C45	0.473000	0.559290	0.106750
H581	H58	0.403100	0.541000	0.130200
H591	H59	0.403300	0.588100	0.098000
C461	C46	0.501000	0.527560	0.062100
H601	H60	0.384500	0.515600	0.050800
H611	H61	0.555100	0.547100	0.036800
C471	C47	0.795800	0.500710	0.091690
H621	H62	0.859700	0.519400	0.067400
H631	H63	0.867100	0.471700	0.098700
C481	C48	0.557000	0.439530	0.077310
C491	C49	0.351200	0.380720	0.059840
C501	C50	0.601400	0.361550	0.102170
C511	C51	0.059400	0.226940	0.201110
C521	C52	0.905200	0.261570	0.189140
H641	H64	0.828000	0.264700	0.217600
C531	C53	0.633100	0.602220	0.177430
C541	C54	0.849800	0.328350	0.922610
C551	C55	0.054000	0.403390	0.026220
H651	H65	0.106700	0.436000	0.026000
H661	H66	0.957700	0.402800	0.050000
C561	C56	0.975700	0.392110	0.977350
H671	H67	0.068200	0.397800	0.953200
H681	H68	0.875700	0.414400	0.971000
C571	C57	0.058200	0.304360	0.988620
H691	H69	0.011500	0.271100	0.988600
H701	H70	0.157400	0.305900	0.965700
C581	C58	0.129200	0.316760	0.038220
H711	H71	0.033100	0.312500	0.061700
H721	H72	0.228100	0.294800	0.046500
C591	C59	0.632500	0.279160	0.137140
H731	H73	0.564600	0.267900	0.109400
H741	H74	0.550400	0.280100	0.164400
C601	C60	0.977300	0.311990	0.176620
H751	H75	0.048000	0.324600	0.203300
H761	H76	0.056900	0.309600	0.149000
C611	C61	0.822600	0.347460	0.165480
H771	H77	0.752100	0.353100	0.194400
H781	H78	0.872900	0.378600	0.155300
C621	C62	0.907700	0.339560	0.973000
H791	H79	0.803000	0.335300	0.994400
C631	C63	0.787100	0.243490	0.147500
H801	H80	0.737000	0.211600	0.155400
H811	H81	0.861600	0.239900	0.119000
N131	N13	0.619300	0.486140	0.073260
N141	N14	0.665100	0.407750	0.101040
N151	N15	0.395600	0.428730	0.057700
N161	N16	0.450800	0.345290	0.081230
N171	N17	0.193400	0.367560	0.039090
N181	N18	0.703500	0.328620	0.127920
O131	O13	0.479400	0.606490	0.196150
O141	O14	0.066000	0.207880	0.241830
O151	O15	0.182000	0.219170	0.170010
O161	O16	0.776600	0.617340	0.197180
O171	O17	0.912600	0.349400	0.888020
O181	O18	0.728000	0.293650	0.918990
Ba41	Ba4	0.365120	0.360210	0.711580
C641	C64	0.722300	0.468750	0.636670
H821	H82	0.602900	0.457300	0.646300
H831	H83	0.770000	0.489100	0.662300
C651	C65	0.847300	0.424570	0.629580
H841	H84	0.787000	0.402200	0.607100
C661	C66	0.027000	0.440710	0.606750
H851	H85	0.096900	0.459000	0.630200
H861	H86	0.096700	0.411900	0.598000
C671	C67	0.999000	0.472440	0.562100
H871	H87	0.115500	0.484400	0.550800
H881	H88	0.944900	0.452900	0.536800
C681	C68	0.704200	0.499290	0.591690
H891	H89	0.640300	0.480600	0.567400
H901	H90	0.632900	0.528300	0.598700
C691	C69	0.943000	0.560470	0.577310
C701	C70	0.148800	0.619280	0.559840
C711	C71	0.898600	0.638450	0.602170
C721	C72	0.440600	0.773060	0.701110
C731	C73	0.594800	0.738430	0.689140
H911	H91	0.672000	0.735300	0.717600
C741	C74	0.866900	0.397780	0.677430
C751	C75	0.650200	0.671650	0.422610
C761	C76	0.446000	0.596610	0.526220
H921	H92	0.393300	0.564000	0.526000
H931	H93	0.542300	0.597200	0.550000
C771	C77	0.524300	0.607890	0.477350
H941	H94	0.431800	0.602200	0.453200
H951	H95	0.624300	0.585600	0.471000
C781	C78	0.441800	0.695640	0.488620
H961	H96	0.488500	0.728900	0.488600
H971	H97	0.342600	0.694100	0.465700
C791	C79	0.370800	0.683240	0.538220
H981	H98	0.466900	0.687500	0.561700
H991	H99	0.271900	0.705200	0.546500
C801	C80	0.867500	0.720840	0.637140
H1001	H100	0.935400	0.732100	0.609400
H1011	H101	0.949600	0.719900	0.664400
C811	C81	0.522700	0.688010	0.676620
H1021	H102	0.452000	0.675400	0.703300
H1031	H103	0.443100	0.690400	0.649000
C821	C82	0.677400	0.652540	0.665480
H1041	H104	0.747900	0.646900	0.694400
H1051	H105	0.627100	0.621400	0.655300
C831	C83	0.592300	0.660440	0.473000
H1061	H106	0.697000	0.664700	0.494400
C841	C84	0.712900	0.756510	0.647500
H1071	H107	0.763000	0.788400	0.655400
H1081	H108	0.638400	0.760100	0.619000
N191	N19	0.880700	0.513860	0.573260
N201	N20	0.834900	0.592250	0.601040
N211	N21	0.104400	0.571270	0.557700
N221	N22	0.049200	0.654710	0.581230
N231	N23	0.306600	0.632440	0.539090
N241	N24	0.796500	0.671380	0.627920
O191	O19	0.020600	0.393510	0.696150
O201	O20	0.434000	0.792120	0.741830
O211	O21	0.318000	0.780830	0.670010
O221	O22	0.723400	0.382660	0.697180
O231	O23	0.587400	0.650600	0.388020
O241	O24	0.772000	0.706350	0.418990
Ba51	Ba5	0.134880	0.860210	0.711580
C851	C85	0.777700	0.968750	0.636670
H1091	H109	0.897100	0.957300	0.646300
H1101	H110	0.730000	0.989100	0.662300
C861	C86	0.652700	0.924570	0.629580
H1111	H111	0.713000	0.902200	0.607100
C871	C87	0.473000	0.940710	0.606750
H1121	H112	0.403100	0.959000	0.630200
H1131	H113	0.403300	0.911900	0.598000
C881	C88	0.501000	0.972440	0.562100
H1141	H114	0.384500	0.984400	0.550800
H1151	H115	0.555100	0.952900	0.536800
C891	C89	0.795800	0.999290	0.591690
H1161	H116	0.859700	0.980600	0.567400
H1171	H117	0.867100	0.028300	0.598700
C901	C90	0.557000	0.060470	0.577310
C911	C91	0.351200	0.119280	0.559840
C921	C92	0.601400	0.138450	0.602170
C931	C93	0.059400	0.273060	0.701110
C941	C94	0.905200	0.238430	0.689140
H1181	H118	0.828000	0.235300	0.717600
C951	C95	0.633100	0.897780	0.677430
C961	C96	0.849800	0.171650	0.422610
C971	C97	0.054000	0.096610	0.526220
H1191	H119	0.106700	0.064000	0.526000
H1201	H120	0.957700	0.097200	0.550000
C981	C98	0.975700	0.107890	0.477350
H1211	H121	0.068200	0.102200	0.453200
H1221	H122	0.875700	0.085600	0.471000
C991	C99	0.058200	0.195640	0.488620
H1231	H123	0.011500	0.228900	0.488600
H1241	H124	0.157400	0.194100	0.465700
C1001	C100	0.129200	0.183240	0.538220
H1251	H125	0.033100	0.187500	0.561700
H1261	H126	0.228100	0.205200	0.546500
C1011	C101	0.632500	0.220840	0.637140
H1271	H127	0.564600	0.232100	0.609400
H1281	H128	0.550400	0.219900	0.664400
C1021	C102	0.977300	0.188010	0.676620
H1291	H129	0.048000	0.175400	0.703300
H1301	H130	0.056900	0.190400	0.649000
C1031	C103	0.822600	0.152540	0.665480
H1311	H131	0.752100	0.146900	0.694400
H1321	H132	0.872900	0.121400	0.655300
C1041	C104	0.907700	0.160440	0.473000
H1331	H133	0.803000	0.164700	0.494400
C1051	C105	0.787100	0.256510	0.647500
H1341	H134	0.737000	0.288400	0.655400
H1351	H135	0.861600	0.260100	0.619000
N251	N25	0.619300	0.013860	0.573260
N261	N26	0.665100	0.092250	0.601040
N271	N27	0.395600	0.071270	0.557700
N281	N28	0.450800	0.154710	0.581230
N291	N29	0.193400	0.132440	0.539090
N301	N30	0.703500	0.171380	0.627920
O251	O25	0.479400	0.893510	0.696150
O261	O26	0.066000	0.292120	0.741830
O271	O27	0.182000	0.280830	0.670010
O281	O28	0.776600	0.882660	0.697180
O291	O29	0.912600	0.150600	0.388020
O301	O30	0.728000	0.206350	0.418990
Ba61	Ba6	0.365120	0.139790	0.211580
C1061	C106	0.722300	0.031250	0.136670
H1361	H136	0.602900	0.042700	0.146300
H1371	H137	0.770000	0.010900	0.162300
C1071	C107	0.847300	0.075430	0.129580
H1381	H138	0.787000	0.097800	0.107100
C1081	C108	0.027000	0.059290	0.106750
H1391	H139	0.096900	0.041000	0.130200
H1401	H140	0.096700	0.088100	0.098000
C1091	C109	0.999000	0.027560	0.062100
H1411	H141	0.115500	0.015600	0.050800
H1421	H142	0.944900	0.047100	0.036800
C1101	C110	0.704200	0.000710	0.091690
H1431	H143	0.640300	0.019400	0.067400
H1441	H144	0.632900	0.971700	0.098700
C1111	C111	0.943000	0.939530	0.077310
C1121	C112	0.148800	0.880720	0.059840
C1131	C113	0.898600	0.861550	0.102170
C1141	C114	0.440600	0.726940	0.201110
C1151	C115	0.594800	0.761570	0.189140
H1451	H145	0.672000	0.764700	0.217600
C1161	C116	0.866900	0.102220	0.177430
C1171	C117	0.650200	0.828350	0.922610
C1181	C118	0.446000	0.903390	0.026220
H1461	H146	0.393300	0.936000	0.026000
H1471	H147	0.542300	0.902800	0.050000
C1191	C119	0.524300	0.892110	0.977350
H1481	H148	0.431800	0.897800	0.953200
H1491	H149	0.624300	0.914400	0.971000
C1201	C120	0.441800	0.804360	0.988620
H1501	H150	0.488500	0.771100	0.988600
H1511	H151	0.342600	0.805900	0.965700
C1211	C121	0.370800	0.816760	0.038220
H1521	H152	0.466900	0.812500	0.061700
H1531	H153	0.271900	0.794800	0.046500
C1221	C122	0.867500	0.779160	0.137140
H1541	H154	0.935400	0.767900	0.109400
H1551	H155	0.949600	0.780100	0.164400
C1231	C123	0.522700	0.811990	0.176620
H1561	H156	0.452000	0.824600	0.203300
H1571	H157	0.443100	0.809600	0.149000
C1241	C124	0.677400	0.847460	0.165480
H1581	H158	0.747900	0.853100	0.194400
H1591	H159	0.627100	0.878600	0.155300
C1251	C125	0.592300	0.839560	0.973000
H1601	H160	0.697000	0.835300	0.994400
C1261	C126	0.712900	0.743490	0.147500
H1611	H161	0.763000	0.711600	0.155400
H1621	H162	0.638400	0.739900	0.119000
N311	N31	0.880700	0.986140	0.073260
N321	N32	0.834900	0.907750	0.101040
N331	N33	0.104400	0.928730	0.057700
N341	N34	0.049200	0.845290	0.081230
N351	N35	0.306600	0.867560	0.039090
N361	N36	0.796500	0.828620	0.127920
O311	O31	0.020600	0.106490	0.196150
O321	O32	0.434000	0.707880	0.241830
O331	O33	0.318000	0.719170	0.170010
O341	O34	0.723400	0.117340	0.197180
O351	O35	0.587400	0.849400	0.888020
O361	O36	0.772000	0.793650	0.918990
Ba71	Ba7	0.865120	0.360210	0.788420
C1271	C127	0.222300	0.468750	0.863330
H1631	H163	0.102900	0.457300	0.853700
H1641	H164	0.270000	0.489100	0.837700
C1281	C128	0.347300	0.424570	0.870420
H1651	H165	0.287000	0.402200	0.892900
C1291	C129	0.527000	0.440710	0.893250
H1661	H166	0.596900	0.459000	0.869800
H1671	H167	0.596700	0.411900	0.902000
C1301	C130	0.499000	0.472440	0.937900
H1681	H168	0.615500	0.484400	0.949200
H1691	H169	0.444900	0.452900	0.963200
C1311	C131	0.204200	0.499290	0.908310
H1701	H170	0.140300	0.480600	0.932600
H1711	H171	0.132900	0.528300	0.901300
C1321	C132	0.443000	0.560470	0.922690
C1331	C133	0.648800	0.619280	0.940160
C1341	C134	0.398600	0.638450	0.897830
C1351	C135	0.940600	0.773060	0.798890
C1361	C136	0.094800	0.738430	0.810860
H1721	H172	0.172000	0.735300	0.782400
C1371	C137	0.366900	0.397780	0.822570
C1381	C138	0.150200	0.671650	0.077390
C1391	C139	0.946000	0.596610	0.973780
H1731	H173	0.893300	0.564000	0.974000
H1741	H174	0.042300	0.597200	0.950000
C1401	C140	0.024300	0.607890	0.022650
H1751	H175	0.931800	0.602200	0.046800
H1761	H176	0.124300	0.585600	0.029000
C1411	C141	0.941800	0.695640	0.011380
H1771	H177	0.988500	0.728900	0.011400
H1781	H178	0.842600	0.694100	0.034300
C1421	C142	0.870800	0.683240	0.961780
H1791	H179	0.966900	0.687500	0.938300
H1801	H180	0.771900	0.705200	0.953500
C1431	C143	0.367500	0.720840	0.862860
H1811	H181	0.435400	0.732100	0.890600
H1821	H182	0.449600	0.719900	0.835600
C1441	C144	0.022700	0.688010	0.823380
H1831	H183	0.952000	0.675400	0.796700
H1841	H184	0.943100	0.690400	0.851000
C1451	C145	0.177400	0.652540	0.834520
H1851	H185	0.247900	0.646900	0.805600
H1861	H186	0.127100	0.621400	0.844700
C1461	C146	0.092300	0.660440	0.027000
H1871	H187	0.197000	0.664700	0.005600
C1471	C147	0.212900	0.756510	0.852500
H1881	H188	0.263000	0.788400	0.844600
H1891	H189	0.138400	0.760100	0.881000
N371	N37	0.380700	0.513860	0.926740
N381	N38	0.334900	0.592250	0.898960
N391	N39	0.604400	0.571270	0.942300
N401	N40	0.549200	0.654710	0.918770
N411	N41	0.806600	0.632440	0.960910
N421	N42	0.296500	0.671380	0.872080
O371	O37	0.520600	0.393510	0.803850
O381	O38	0.934000	0.792120	0.758170
O391	O39	0.818000	0.780830	0.829990
O401	O40	0.223400	0.382660	0.802820
O411	O41	0.087400	0.650600	0.111980
O421	O42	0.272000	0.706350	0.081010
Ba81	Ba8	0.634880	0.639790	0.288420
C1481	C148	0.277700	0.531250	0.363330
H1901	H190	0.397100	0.542700	0.353700
H1911	H191	0.230000	0.510900	0.337700
C1491	C149	0.152700	0.575430	0.370420
H1921	H192	0.213000	0.597800	0.392900
C1501	C150	0.973000	0.559290	0.393250
H1931	H193	0.903100	0.541000	0.369800
H1941	H194	0.903300	0.588100	0.402000
C1511	C151	0.001000	0.527560	0.437900
H1951	H195	0.884500	0.515600	0.449200
H1961	H196	0.055100	0.547100	0.463200
C1521	C152	0.295800	0.500710	0.408310
H1971	H197	0.359700	0.519400	0.432600
H1981	H198	0.367100	0.471700	0.401300
C1531	C153	0.057000	0.439530	0.422690
C1541	C154	0.851200	0.380720	0.440160
C1551	C155	0.101400	0.361550	0.397830
C1561	C156	0.559400	0.226940	0.298890
C1571	C157	0.405200	0.261570	0.310860
H1991	H199	0.328000	0.264700	0.282400
C1581	C158	0.133100	0.602220	0.322570
C1591	C159	0.349800	0.328350	0.577390
C1601	C160	0.554000	0.403390	0.473780
H2001	H200	0.606700	0.436000	0.474000
H2011	H201	0.457700	0.402800	0.450000
C1611	C161	0.475700	0.392110	0.522650
H2021	H202	0.568200	0.397800	0.546800
H2031	H203	0.375700	0.414400	0.529000
C1621	C162	0.558200	0.304360	0.511380
H2041	H204	0.511500	0.271100	0.511400
H2051	H205	0.657400	0.305900	0.534300
C1631	C163	0.629200	0.316760	0.461780
H2061	H206	0.533100	0.312500	0.438300
H2071	H207	0.728100	0.294800	0.453500
C1641	C164	0.132500	0.279160	0.362860
H2081	H208	0.064600	0.267900	0.390600
H2091	H209	0.050400	0.280100	0.335600
C1651	C165	0.477300	0.311990	0.323380
H2101	H210	0.548000	0.324600	0.296700
H2111	H211	0.556900	0.309600	0.351000
C1661	C166	0.322600	0.347460	0.334520
H2121	H212	0.252100	0.353100	0.305600
H2131	H213	0.372900	0.378600	0.344700
C1671	C167	0.407700	0.339560	0.527000
H2141	H214	0.303000	0.335300	0.505600
C1681	C168	0.287100	0.243490	0.352500
H2151	H215	0.237000	0.211600	0.344600
H2161	H216	0.361600	0.239900	0.381000
N431	N43	0.119300	0.486140	0.426740
N441	N44	0.165100	0.407750	0.398960
N451	N45	0.895600	0.428730	0.442300
N461	N46	0.950800	0.345290	0.418770
N471	N47	0.693400	0.367560	0.460910
N481	N48	0.203500	0.328620	0.372080
O431	O43	0.979400	0.606490	0.303850
O441	O44	0.566000	0.207880	0.258170
O451	O45	0.682000	0.219170	0.329990
O461	O46	0.276600	0.617340	0.302820
O471	O47	0.412600	0.349400	0.611980
O481	O48	0.228000	0.293650	0.581010
