data_EZOBUR_clean_PM
_symmetry_space_group_name_H-M	'P1'
_cell_length_a	15.639900
_cell_length_b	17.984300
_cell_length_c	31.774100
_cell_angle_alpha	95.674200
_cell_angle_beta	104.247000
_cell_angle_gamma	90.000000
_symmetry_Int_Tables_number 1

loop_
_symmetry_equiv_pos_as_xyz
'x,y,z'

loop_
_atom_site_label
_atom_site_type_symbol
_atom_site_fract_x
_atom_site_fract_y
_atom_site_fract_z
Cu11	Cu1	0.900370	0.476120	0.689380
Cu21	Cu2	0.901630	0.364670	0.414240
Cu31	Cu3	0.210990	0.023880	0.310620
Cu41	Cu4	0.487390	0.135330	0.585760
Cu51	Cu5	0.099630	0.523880	0.310620
Cu61	Cu6	0.098370	0.635330	0.585760
Cu71	Cu7	0.789010	0.976120	0.689380
Cu81	Cu8	0.512610	0.864670	0.414240
Cu91	Cu9	0.000000	0.500000	0.000000
Cu101	Cu10	0.000000	0.000000	0.000000
Cu111	Cu11	0.747040	0.750000	0.000000
Cu121	Cu12	0.252960	0.250000	0.000000
H11	H1	0.939600	0.540500	0.905800
H21	H2	0.876700	0.618900	0.012200
H31	H3	0.782700	0.713500	0.906600
H41	H4	0.972000	0.589200	0.848600
H51	H5	0.842300	0.658300	0.734400
H61	H6	0.732000	0.699100	0.765000
H71	H7	0.734700	0.682600	0.836200
H81	H8	0.080700	0.659500	0.843600
H91	H9	0.103600	0.699600	0.806000
H101	H10	0.174800	0.652100	0.834800
H111	H11	0.061000	0.516500	0.833400
H121	H12	0.155200	0.509500	0.824600
H131	H13	0.073100	0.473200	0.790000
H141	H14	0.126600	0.626100	0.740200
H151	H15	0.112100	0.539100	0.733600
H161	H16	0.194900	0.575200	0.768000
H171	H17	0.922700	0.592600	0.532800
H181	H18	0.028800	0.563100	0.654200
H191	H19	0.794100	0.478700	0.599400
H201	H20	0.854500	0.506500	0.477000
H211	H21	0.599700	0.455900	0.417200
H221	H22	0.564400	0.482600	0.483400
H231	H23	0.670200	0.513400	0.546000
H241	H24	0.604300	0.533500	0.372400
H251	H25	0.679900	0.577800	0.360400
H261	H26	0.606200	0.535200	0.323400
H271	H27	0.791200	0.512300	0.329600
H281	H28	0.795600	0.424900	0.326400
H291	H29	0.721100	0.463400	0.293800
H301	H30	0.605000	0.389800	0.364200
H311	H31	0.605800	0.389600	0.315000
H321	H32	0.680600	0.350000	0.346800
H331	H33	0.982600	0.248700	0.679800
H341	H34	0.691500	0.461000	0.751200
H351	H35	0.902000	0.139200	0.357600
H361	H36	0.190900	0.679500	0.023800
H371	H37	0.550400	0.899100	0.947400
H381	H38	0.033800	0.959500	0.094200
H391	H39	0.864500	0.881100	0.987800
H401	H40	0.876100	0.786500	0.093400
H411	H41	0.123400	0.910800	0.151400
H421	H42	0.107900	0.841700	0.265600
H431	H43	0.967000	0.800900	0.235000
H441	H44	0.898500	0.817400	0.163800
H451	H45	0.237100	0.840500	0.156400
H461	H46	0.297600	0.800400	0.194000
H471	H47	0.340000	0.847900	0.165200
H481	H48	0.227600	0.983500	0.166600
H491	H49	0.330600	0.990500	0.175400
H501	H50	0.283100	0.026800	0.210000
H511	H51	0.386400	0.873900	0.259800
H521	H52	0.378500	0.960900	0.266400
H531	H53	0.426900	0.924800	0.232000
H541	H54	0.389900	0.907400	0.467200
H551	H55	0.374600	0.936900	0.345800
H561	H56	0.194700	0.021300	0.400600
H571	H57	0.377500	0.993500	0.523000
H581	H58	0.182500	0.044100	0.582800
H591	H59	0.081000	0.017400	0.516600
H601	H60	0.124200	0.986600	0.454000
H611	H61	0.231900	0.966500	0.627600
H621	H62	0.319500	0.922200	0.639600
H631	H63	0.282800	0.964800	0.676600
H641	H64	0.461600	0.987700	0.670400
H651	H65	0.469200	0.075100	0.673600
H661	H66	0.427300	0.036600	0.706200
H671	H67	0.240800	0.110200	0.635800
H681	H68	0.290800	0.110400	0.685000
H691	H69	0.333800	0.150000	0.653200
H701	H70	0.302800	0.251300	0.320200
H711	H71	0.940300	0.039000	0.248800
H721	H72	0.544400	0.360800	0.642400
H731	H73	0.167100	0.820500	0.976200
H741	H74	0.603000	0.600900	0.052600
H751	H75	0.060400	0.459500	0.094200
H761	H76	0.123300	0.381100	0.987800
H771	H77	0.217300	0.286500	0.093400
H781	H78	0.028000	0.410800	0.151400
H791	H79	0.157700	0.341700	0.265600
H801	H80	0.268000	0.300900	0.235000
H811	H81	0.265300	0.317400	0.163800
H821	H82	0.919300	0.340500	0.156400
H831	H83	0.896400	0.300400	0.194000
H841	H84	0.825200	0.347900	0.165200
H851	H85	0.939000	0.483500	0.166600
H861	H86	0.844800	0.490500	0.175400
H871	H87	0.926900	0.526800	0.210000
H881	H88	0.873400	0.373900	0.259800
H891	H89	0.887900	0.460900	0.266400
H901	H90	0.805100	0.424800	0.232000
H911	H91	0.077300	0.407400	0.467200
H921	H92	0.971200	0.436900	0.345800
H931	H93	0.205900	0.521300	0.400600
H941	H94	0.145500	0.493500	0.523000
H951	H95	0.400300	0.544100	0.582800
H961	H96	0.435600	0.517400	0.516600
H971	H97	0.329800	0.486600	0.454000
H981	H98	0.395700	0.466500	0.627600
H991	H99	0.320100	0.422200	0.639600
H1001	H100	0.393800	0.464800	0.676600
H1011	H101	0.208800	0.487700	0.670400
H1021	H102	0.204400	0.575100	0.673600
H1031	H103	0.278900	0.536600	0.706200
H1041	H104	0.395000	0.610200	0.635800
H1051	H105	0.394200	0.610400	0.685000
H1061	H106	0.319400	0.650000	0.653200
H1071	H107	0.017400	0.751300	0.320200
H1081	H108	0.308500	0.539000	0.248800
H1091	H109	0.098000	0.860800	0.642400
H1101	H110	0.809100	0.320500	0.976200
H1111	H111	0.449600	0.100900	0.052600
H1121	H112	0.966200	0.040500	0.905800
H1131	H113	0.135500	0.118900	0.012200
H1141	H114	0.123900	0.213500	0.906600
H1151	H115	0.876600	0.089200	0.848600
H1161	H116	0.892100	0.158300	0.734400
H1171	H117	0.033000	0.199100	0.765000
H1181	H118	0.101500	0.182600	0.836200
H1191	H119	0.762900	0.159500	0.843600
H1201	H120	0.702400	0.199600	0.806000
H1211	H121	0.660000	0.152100	0.834800
H1221	H122	0.772400	0.016500	0.833400
H1231	H123	0.669400	0.009500	0.824600
H1241	H124	0.716900	0.973200	0.790000
H1251	H125	0.613600	0.126100	0.740200
H1261	H126	0.621500	0.039100	0.733600
H1271	H127	0.573100	0.075200	0.768000
H1281	H128	0.610100	0.092600	0.532800
H1291	H129	0.625400	0.063100	0.654200
H1301	H130	0.805300	0.978700	0.599400
H1311	H131	0.622500	0.006500	0.477000
H1321	H132	0.817500	0.955900	0.417200
H1331	H133	0.919000	0.982600	0.483400
H1341	H134	0.875800	0.013400	0.546000
H1351	H135	0.768100	0.033500	0.372400
H1361	H136	0.680500	0.077800	0.360400
H1371	H137	0.717200	0.035200	0.323400
H1381	H138	0.538400	0.012300	0.329600
H1391	H139	0.530800	0.924900	0.326400
H1401	H140	0.572700	0.963400	0.293800
H1411	H141	0.759200	0.889800	0.364200
H1421	H142	0.709200	0.889600	0.315000
H1431	H143	0.666200	0.850000	0.346800
H1441	H144	0.697200	0.748700	0.679800
H1451	H145	0.059700	0.961000	0.751200
H1461	H146	0.455600	0.639200	0.357600
H1471	H147	0.832900	0.179500	0.023800
H1481	H148	0.397000	0.399100	0.947400
C11	C1	0.909890	0.575200	0.920180
C21	C2	0.872760	0.621500	0.982720
C31	C3	0.817510	0.677100	0.920820
C41	C4	0.860580	0.627900	0.896760
C51	C5	0.854750	0.634800	0.850100
C61	C6	0.922980	0.610800	0.831760
C71	C7	0.918340	0.619000	0.787680
C81	C8	0.845910	0.652200	0.763420
C91	C9	0.779990	0.676000	0.781780
C101	C10	0.781600	0.667200	0.824600
C111	C11	0.081090	0.586600	0.789580
C121	C12	0.113020	0.655900	0.821440
C131	C13	0.093790	0.514900	0.811380
C141	C14	0.133570	0.581300	0.754540
C151	C15	0.919810	0.571800	0.558020
C161	C16	0.981470	0.555500	0.629740
C171	C17	0.843600	0.505800	0.597600
C181	C18	0.845130	0.531100	0.558460
C191	C19	0.773850	0.513100	0.518100
C201	C20	0.795990	0.501000	0.478180
C211	C21	0.730630	0.480600	0.440060
C221	C22	0.643510	0.471500	0.442220
C231	C23	0.623070	0.486100	0.482140
C241	C24	0.685800	0.505400	0.519600
C251	C25	0.696950	0.464700	0.355100
C261	C26	0.641780	0.534200	0.352560
C271	C27	0.756900	0.466500	0.323200
C281	C28	0.641920	0.391700	0.344240
C291	C29	0.817250	0.243500	0.639700
C301	C30	0.876510	0.311000	0.658820
C311	C31	0.965280	0.297900	0.677560
C321	C32	0.027750	0.353800	0.692700
C331	C33	0.121800	0.329600	0.707000
C341	C34	0.634970	0.542600	0.685940
C351	C35	0.721900	0.507300	0.701400
C361	C36	0.737840	0.467700	0.738280
C371	C37	0.817010	0.438700	0.756220
C381	C38	0.830000	0.396500	0.796600
C391	C39	0.005730	0.151300	0.434860
C401	C40	0.958190	0.210600	0.408780
C411	C41	0.907980	0.189900	0.367360
C421	C42	0.865220	0.240200	0.338840
C431	C43	0.815290	0.209800	0.293980
C441	C44	0.213780	0.595800	0.956560
C451	C45	0.149170	0.585400	0.984940
C461	C46	0.151390	0.639200	0.019580
C471	C47	0.097510	0.636200	0.048420
C481	C48	0.106200	0.701000	0.083400
C491	C49	0.651470	0.869400	0.891940
C501	C50	0.656480	0.847100	0.938560
C511	C51	0.596500	0.870100	0.960800
C521	C52	0.600500	0.852800	0.002200
C531	C53	0.989710	0.924800	0.079820
C541	C54	0.890040	0.878500	0.017280
C551	C55	0.896690	0.822900	0.079180
C561	C56	0.963820	0.872100	0.103240
C571	C57	0.004650	0.865200	0.149900
C581	C58	0.091220	0.889200	0.168240
C591	C59	0.130660	0.881000	0.212320
C601	C60	0.082490	0.847800	0.236580
C611	C61	0.998210	0.824000	0.218220
C621	C62	0.957000	0.832800	0.175400
C631	C63	0.291510	0.913400	0.210420
C641	C64	0.291580	0.844100	0.178560
C651	C65	0.282410	0.985100	0.188620
C661	C66	0.379030	0.918700	0.245460
C671	C67	0.361790	0.928200	0.441980
C681	C68	0.351730	0.944500	0.370260
C691	C69	0.246000	0.994200	0.402400
C701	C70	0.286670	0.968900	0.441540
C711	C71	0.255750	0.986900	0.481900
C721	C72	0.317810	0.999000	0.521820
C731	C73	0.290570	0.019400	0.559940
C741	C74	0.201290	0.028500	0.557780
C751	C75	0.140930	0.013900	0.517860
C761	C76	0.166200	0.994600	0.480400
C771	C77	0.341850	0.035300	0.644900
C781	C78	0.289220	0.965800	0.647440
C791	C79	0.433700	0.033500	0.676800
C801	C80	0.297680	0.108300	0.655760
C811	C81	0.177550	0.256500	0.360300
C821	C82	0.217690	0.189000	0.341180
C831	C83	0.287720	0.202100	0.322440
C841	C84	0.335050	0.146200	0.307300
C851	C85	0.414800	0.170400	0.293000
C861	C86	0.949030	0.957400	0.314060
C871	C87	0.020500	0.992700	0.298600
C881	C88	0.999560	0.032300	0.261720
C891	C89	0.060790	0.061300	0.243780
C901	C90	0.033400	0.103500	0.203400
C911	C91	0.570870	0.348700	0.565140
C921	C92	0.549410	0.289400	0.591220
C931	C93	0.540620	0.310100	0.632640
C941	C94	0.526380	0.259800	0.661160
C951	C95	0.521310	0.290200	0.706020
C961	C96	0.257220	0.904200	0.043440
C971	C97	0.164230	0.914600	0.015060
C981	C98	0.131810	0.860800	0.980420
C991	C99	0.049090	0.863800	0.951580
C1001	C100	0.022800	0.799000	0.916600
C1011	C101	0.759530	0.630600	0.108060
C1021	C102	0.717920	0.652900	0.061440
C1031	C103	0.635700	0.629900	0.039200
C1041	C104	0.598300	0.647200	0.997800
C1051	C105	0.090110	0.424800	0.079820
C1061	C106	0.127240	0.378500	0.017280
C1071	C107	0.182490	0.322900	0.079180
C1081	C108	0.139420	0.372100	0.103240
C1091	C109	0.145250	0.365200	0.149900
C1101	C110	0.077020	0.389200	0.168240
C1111	C111	0.081660	0.381000	0.212320
C1121	C112	0.154090	0.347800	0.236580
C1131	C113	0.220010	0.324000	0.218220
C1141	C114	0.218400	0.332800	0.175400
C1151	C115	0.918910	0.413400	0.210420
C1161	C116	0.886980	0.344100	0.178560
C1171	C117	0.906210	0.485100	0.188620
C1181	C118	0.866430	0.418700	0.245460
C1191	C119	0.080190	0.428200	0.441980
C1201	C120	0.018530	0.444500	0.370260
C1211	C121	0.156400	0.494200	0.402400
C1221	C122	0.154870	0.468900	0.441540
C1231	C123	0.226150	0.486900	0.481900
C1241	C124	0.204010	0.499000	0.521820
C1251	C125	0.269370	0.519400	0.559940
C1261	C126	0.356490	0.528500	0.557780
C1271	C127	0.376930	0.513900	0.517860
C1281	C128	0.314200	0.494600	0.480400
C1291	C129	0.303050	0.535300	0.644900
C1301	C130	0.358220	0.465800	0.647440
C1311	C131	0.243100	0.533500	0.676800
C1321	C132	0.358080	0.608300	0.655760
C1331	C133	0.182750	0.756500	0.360300
C1341	C134	0.123490	0.689000	0.341180
C1351	C135	0.034720	0.702100	0.322440
C1361	C136	0.972250	0.646200	0.307300
C1371	C137	0.878200	0.670400	0.293000
C1381	C138	0.365030	0.457400	0.314060
C1391	C139	0.278100	0.492700	0.298600
C1401	C140	0.262160	0.532300	0.261720
C1411	C141	0.182990	0.561300	0.243780
C1421	C142	0.170000	0.603500	0.203400
C1431	C143	0.994270	0.848700	0.565140
C1441	C144	0.041810	0.789400	0.591220
C1451	C145	0.092020	0.810100	0.632640
C1461	C146	0.134780	0.759800	0.661160
C1471	C147	0.184710	0.790200	0.706020
C1481	C148	0.786220	0.404200	0.043440
C1491	C149	0.850830	0.414600	0.015060
C1501	C150	0.848610	0.360800	0.980420
C1511	C151	0.902490	0.363800	0.951580
C1521	C152	0.893800	0.299000	0.916600
C1531	C153	0.348530	0.130600	0.108060
C1541	C154	0.343520	0.152900	0.061440
C1551	C155	0.403500	0.129900	0.039200
C1561	C156	0.399500	0.147200	0.997800
C1571	C157	0.010290	0.075200	0.920180
C1581	C158	0.109960	0.121500	0.982720
C1591	C159	0.103310	0.177100	0.920820
C1601	C160	0.036180	0.127900	0.896760
C1611	C161	0.995350	0.134800	0.850100
C1621	C162	0.908780	0.110800	0.831760
C1631	C163	0.869340	0.119000	0.787680
C1641	C164	0.917510	0.152200	0.763420
C1651	C165	0.001790	0.176000	0.781780
C1661	C166	0.043000	0.167200	0.824600
C1671	C167	0.708490	0.086600	0.789580
C1681	C168	0.708420	0.155900	0.821440
C1691	C169	0.717590	0.014900	0.811380
C1701	C170	0.620970	0.081300	0.754540
C1711	C171	0.638210	0.071800	0.558020
C1721	C172	0.648270	0.055500	0.629740
C1731	C173	0.754000	0.005800	0.597600
C1741	C174	0.713330	0.031100	0.558460
C1751	C175	0.744250	0.013100	0.518100
C1761	C176	0.682190	0.001000	0.478180
C1771	C177	0.709430	0.980600	0.440060
C1781	C178	0.798710	0.971500	0.442220
C1791	C179	0.859070	0.986100	0.482140
C1801	C180	0.833800	0.005400	0.519600
C1811	C181	0.658150	0.964700	0.355100
C1821	C182	0.710780	0.034200	0.352560
C1831	C183	0.566300	0.966500	0.323200
C1841	C184	0.702320	0.891700	0.344240
C1851	C185	0.822450	0.743500	0.639700
C1861	C186	0.782310	0.811000	0.658820
C1871	C187	0.712280	0.797900	0.677560
C1881	C188	0.664950	0.853800	0.692700
C1891	C189	0.585200	0.829600	0.707000
C1901	C190	0.050970	0.042600	0.685940
C1911	C191	0.979500	0.007300	0.701400
C1921	C192	0.000440	0.967700	0.738280
C1931	C193	0.939210	0.938700	0.756220
C1941	C194	0.966600	0.896500	0.796600
C1951	C195	0.429130	0.651300	0.434860
C1961	C196	0.450590	0.710600	0.408780
C1971	C197	0.459380	0.689900	0.367360
C1981	C198	0.473620	0.740200	0.338840
C1991	C199	0.478690	0.709800	0.293980
C2001	C200	0.742780	0.095800	0.956560
C2011	C201	0.835770	0.085400	0.984940
C2021	C202	0.868190	0.139200	0.019580
C2031	C203	0.950910	0.136200	0.048420
C2041	C204	0.977200	0.201000	0.083400
C2051	C205	0.240470	0.369400	0.891940
C2061	C206	0.282080	0.347100	0.938560
C2071	C207	0.364300	0.370100	0.960800
C2081	C208	0.401700	0.352800	0.002200
N11	N1	0.916570	0.572100	0.963140
N21	N2	0.823760	0.674300	0.963520
N31	N3	0.986010	0.594000	0.767420
N41	N4	0.989040	0.582300	0.593480
N51	N5	0.910450	0.518400	0.633500
N61	N6	0.757400	0.466700	0.400600
N71	N7	0.953430	0.927900	0.036860
N81	N8	0.860240	0.825700	0.036480
N91	N9	0.218590	0.906000	0.232580
N101	N10	0.395560	0.917700	0.406520
N111	N11	0.276950	0.981600	0.366500
N121	N12	0.356800	0.033300	0.599400
N131	N13	0.083430	0.427900	0.036860
N141	N14	0.176240	0.325700	0.036480
N151	N15	0.013990	0.406000	0.232580
N161	N16	0.010960	0.417700	0.406520
N171	N17	0.089550	0.481600	0.366500
N181	N18	0.242600	0.533300	0.599400
N191	N19	0.046570	0.072100	0.963140
N201	N20	0.139760	0.174300	0.963520
N211	N21	0.781410	0.094000	0.767420
N221	N22	0.604440	0.082300	0.593480
N231	N23	0.723050	0.018400	0.633500
N241	N24	0.643200	0.966700	0.400600
O11	O1	0.962200	0.580900	0.725200
O21	O2	0.841060	0.459500	0.404120
O31	O3	0.840290	0.373000	0.654780
O41	O4	0.018820	0.423500	0.695040
O51	O5	0.775070	0.519800	0.678740
O61	O6	0.887250	0.440700	0.743500
O71	O7	0.972230	0.275200	0.428460
O81	O8	0.866310	0.309700	0.346020
O91	O9	0.099860	0.529300	0.972920
O101	O10	0.041450	0.588000	0.049100
O111	O11	0.723890	0.808100	0.950580
O121	O12	0.658880	0.818400	0.026160
O131	O13	0.237000	0.919100	0.274800
O141	O14	0.436940	0.040500	0.595880
O151	O15	0.185510	0.127000	0.345220
O161	O16	0.323780	0.076500	0.304960
O171	O17	0.096330	0.980200	0.321260
O181	O18	0.143750	0.059300	0.256500
O191	O19	0.543770	0.224800	0.571540
O201	O20	0.520290	0.190300	0.653980
O211	O21	0.126940	0.970700	0.027080
O221	O22	0.992350	0.912000	0.950900
O231	O23	0.773310	0.691900	0.049420
O241	O24	0.632720	0.681600	0.973840
O251	O25	0.037800	0.419100	0.274800
O261	O26	0.158940	0.540500	0.595880
O271	O27	0.159710	0.627000	0.345220
O281	O28	0.981180	0.576500	0.304960
O291	O29	0.224930	0.480200	0.321260
O301	O30	0.112750	0.559300	0.256500
O311	O31	0.027770	0.724800	0.571540
O321	O32	0.133690	0.690300	0.653980
O331	O33	0.900140	0.470700	0.027080
O341	O34	0.958550	0.412000	0.950900
O351	O35	0.276110	0.191900	0.049420
O361	O36	0.341120	0.181600	0.973840
O371	O37	0.763000	0.080900	0.725200
O381	O38	0.563060	0.959500	0.404120
O391	O39	0.814490	0.873000	0.654780
O401	O40	0.676220	0.923500	0.695040
O411	O41	0.903670	0.019800	0.678740
O421	O42	0.856250	0.940700	0.743500
O431	O43	0.456230	0.775200	0.428460
O441	O44	0.479710	0.809700	0.346020
O451	O45	0.873060	0.029300	0.972920
O461	O46	0.007650	0.088000	0.049100
O471	O47	0.226690	0.308100	0.950580
O481	O48	0.367280	0.318400	0.026160
F11	F1	0.786900	0.240500	0.595200
F21	F2	0.843600	0.181600	0.651600
F31	F3	0.744200	0.255900	0.661200
F41	F4	0.134640	0.265100	0.721080
F51	F5	0.173600	0.382100	0.735000
F61	F6	0.161600	0.336400	0.672200
F71	F7	0.641200	0.612000	0.680400
F81	F8	0.581600	0.504600	0.654000
F91	F9	0.584400	0.543500	0.716400
F101	F10	0.813700	0.328400	0.786800
F111	F11	0.767300	0.418100	0.818600
F121	F12	0.906000	0.416800	0.826600
F131	F13	0.995050	0.156600	0.476100
F141	F14	0.978700	0.081300	0.420200
F151	F15	0.095000	0.155800	0.443400
F161	F16	0.786270	0.142100	0.288740
F171	F17	0.756400	0.254300	0.273600
F181	F18	0.874700	0.215900	0.266400
F191	F19	0.284100	0.554500	0.969600
F201	F20	0.242000	0.668600	0.959200
F211	F21	0.189400	0.562600	0.917200
F221	F22	0.125630	0.766000	0.074260
F231	F23	0.034010	0.698600	0.104220
F241	F24	0.174600	0.690700	0.118000
F251	F25	0.597800	0.925600	0.883200
F261	F26	0.716100	0.880100	0.881800
F271	F27	0.612400	0.801000	0.866800
F281	F28	0.191700	0.259500	0.404800
F291	F29	0.192000	0.318400	0.348400
F301	F30	0.083000	0.244100	0.338800
F311	F31	0.413560	0.234900	0.278920
F321	F32	0.438600	0.117900	0.265000
F331	F33	0.489400	0.163600	0.327800
F341	F34	0.960800	0.888000	0.319600
F351	F35	0.927600	0.995400	0.346000
F361	F36	0.868000	0.956500	0.283600
F371	F37	0.026900	0.171600	0.213200
F381	F38	0.948700	0.081900	0.181400
F391	F39	0.079400	0.083200	0.173400
F401	F40	0.518950	0.343400	0.523900
F411	F41	0.558500	0.418700	0.579800
F421	F42	0.651600	0.344200	0.556600
F431	F43	0.497530	0.357900	0.711260
F441	F44	0.482800	0.245700	0.726400
F451	F45	0.608300	0.284100	0.733600
F461	F46	0.314500	0.945500	0.030400
F471	F47	0.282800	0.831400	0.040800
F481	F48	0.272200	0.937400	0.082800
F491	F49	0.051370	0.734000	0.925740
F501	F50	0.929790	0.801400	0.895780
F511	F51	0.056600	0.809300	0.882000
F521	F52	0.714600	0.574400	0.116800
F531	F53	0.834300	0.619900	0.118200
F541	F54	0.745600	0.699000	0.133200
F551	F55	0.213100	0.759500	0.404800
F561	F56	0.156400	0.818400	0.348400
F571	F57	0.255800	0.744100	0.338800
F581	F58	0.865360	0.734900	0.278920
F591	F59	0.826400	0.617900	0.265000
F601	F60	0.838400	0.663600	0.327800
F611	F61	0.358800	0.388000	0.319600
F621	F62	0.418400	0.495400	0.346000
F631	F63	0.415600	0.456500	0.283600
F641	F64	0.186300	0.671600	0.213200
F651	F65	0.232700	0.581900	0.181400
F661	F66	0.094000	0.583200	0.173400
F671	F67	0.004950	0.843400	0.523900
F681	F68	0.021300	0.918700	0.579800
F691	F69	0.905000	0.844200	0.556600
F701	F70	0.213730	0.857900	0.711260
F711	F71	0.243600	0.745700	0.726400
F721	F72	0.125300	0.784100	0.733600
F731	F73	0.715900	0.445500	0.030400
F741	F74	0.758000	0.331400	0.040800
F751	F75	0.810600	0.437400	0.082800
F761	F76	0.874370	0.234000	0.925740
F771	F77	0.965990	0.301400	0.895780
F781	F78	0.825400	0.309300	0.882000
F791	F79	0.402200	0.074400	0.116800
F801	F80	0.283900	0.119900	0.118200
F811	F81	0.387600	0.199000	0.133200
F821	F82	0.808300	0.740500	0.595200
F831	F83	0.808000	0.681600	0.651600
F841	F84	0.917000	0.755900	0.661200
F851	F85	0.586440	0.765100	0.721080
F861	F86	0.561400	0.882100	0.735000
F871	F87	0.510600	0.836400	0.672200
F881	F88	0.039200	0.112000	0.680400
F891	F89	0.072400	0.004600	0.654000
F901	F90	0.132000	0.043500	0.716400
F911	F91	0.973100	0.828400	0.786800
F921	F92	0.051300	0.918100	0.818600
F931	F93	0.920600	0.916800	0.826600
F941	F94	0.481050	0.656600	0.476100
F951	F95	0.441500	0.581300	0.420200
F961	F96	0.348400	0.655800	0.443400
F971	F97	0.502470	0.642100	0.288740
F981	F98	0.517200	0.754300	0.273600
F991	F99	0.391700	0.715900	0.266400
F1001	F100	0.685500	0.054500	0.969600
F1011	F101	0.717200	0.168600	0.959200
F1021	F102	0.727800	0.062600	0.917200
F1031	F103	0.948630	0.266000	0.074260
F1041	F104	0.070210	0.198600	0.104220
F1051	F105	0.943400	0.190700	0.118000
F1061	F106	0.285400	0.425600	0.883200
F1071	F107	0.165700	0.380100	0.881800
F1081	F108	0.254400	0.301000	0.866800
