data_EZUCIM_clean_PM
_symmetry_space_group_name_H-M	'P1'
_cell_length_a	8.741000
_cell_length_b	14.796000
_cell_length_c	19.340000
_cell_angle_alpha	90.000000
_cell_angle_beta	90.000000
_cell_angle_gamma	90.000000
_symmetry_Int_Tables_number 1

loop_
_symmetry_equiv_pos_as_xyz
'x,y,z'

loop_
_atom_site_label
_atom_site_type_symbol
_atom_site_fract_x
_atom_site_fract_y
_atom_site_fract_z
Zn11	Zn1	0.368540	0.044480	0.926700
Zn21	Zn2	0.131460	0.955520	0.426700
Zn31	Zn3	0.631460	0.544480	0.573300
Zn41	Zn4	0.868540	0.455520	0.073300
H11	H1	0.696300	0.865900	0.500400
H21	H2	0.155700	0.028800	0.691300
H31	H3	0.737300	0.712100	0.499500
H41	H4	0.832700	0.116600	0.580200
H51	H5	0.778100	0.021600	0.606000
H61	H6	0.158800	0.049300	0.808300
H71	H7	0.374300	0.826900	0.644200
H81	H8	0.418500	0.677900	0.638700
H91	H9	0.589900	0.986000	0.819800
H101	H10	0.605700	0.965400	0.702300
H111	H11	0.295000	0.999000	0.595000
H121	H12	0.689000	0.074000	0.467000
H131	H13	0.803700	0.134100	0.000400
H141	H14	0.344300	0.971200	0.191300
H151	H15	0.762700	0.287900	0.999500
H161	H16	0.667300	0.883400	0.080200
H171	H17	0.721900	0.978400	0.106000
H181	H18	0.341200	0.950700	0.308300
H191	H19	0.125700	0.173100	0.144200
H201	H20	0.081500	0.322100	0.138700
H211	H21	0.910100	0.014000	0.319800
H221	H22	0.894300	0.034600	0.202300
H231	H23	0.205000	0.001000	0.095000
H241	H24	0.811000	0.926000	0.967000
H251	H25	0.303700	0.365900	0.999600
H261	H26	0.844300	0.528800	0.808700
H271	H27	0.262700	0.212100	0.000500
H281	H28	0.167300	0.616600	0.919800
H291	H29	0.221900	0.521600	0.894000
H301	H30	0.841200	0.549300	0.691700
H311	H31	0.625700	0.326900	0.855800
H321	H32	0.581500	0.177900	0.861300
H331	H33	0.410100	0.486000	0.680200
H341	H34	0.394300	0.465400	0.797700
H351	H35	0.705000	0.499000	0.905000
H361	H36	0.311000	0.574000	0.033000
H371	H37	0.196300	0.634100	0.499600
H381	H38	0.655700	0.471200	0.308700
H391	H39	0.237300	0.787900	0.500500
H401	H40	0.332700	0.383400	0.419800
H411	H41	0.278100	0.478400	0.394000
H421	H42	0.658800	0.450700	0.191700
H431	H43	0.874300	0.673100	0.355800
H441	H44	0.918500	0.822100	0.361300
H451	H45	0.089900	0.514000	0.180200
H461	H46	0.105700	0.534600	0.297700
H471	H47	0.795000	0.501000	0.405000
H481	H48	0.189000	0.426000	0.533000
C11	C1	0.682400	0.058400	0.516700
C21	C2	0.382500	0.997900	0.682500
C31	C3	0.551600	0.015200	0.521000
C41	C4	0.531700	0.865300	0.573300
C51	C5	0.639500	0.828700	0.529400
C61	C6	0.245800	0.020900	0.716100
C71	C7	0.662800	0.735200	0.529000
C81	C8	0.809300	0.055500	0.565500
C91	C9	0.951900	0.013300	0.536000
C101	C10	0.248600	0.031400	0.786500
C111	C11	0.448900	0.805100	0.614300
C121	C12	0.476500	0.715700	0.610600
C131	C13	0.502600	0.994500	0.793100
C141	C14	0.513900	0.982800	0.722700
C151	C15	0.432900	0.018200	0.464700
C161	C16	0.817600	0.941600	0.016700
C171	C17	0.117500	0.002100	0.182500
C181	C18	0.948400	0.984800	0.021000
C191	C19	0.968300	0.134700	0.073300
C201	C20	0.860500	0.171300	0.029400
C211	C21	0.254200	0.979100	0.216100
C221	C22	0.837200	0.264800	0.029000
C231	C23	0.690700	0.944500	0.065500
C241	C24	0.548100	0.986700	0.036000
C251	C25	0.251400	0.968600	0.286500
C261	C26	0.051100	0.194900	0.114300
C271	C27	0.023500	0.284300	0.110600
C281	C28	0.997400	0.005500	0.293100
C291	C29	0.986100	0.017200	0.222700
C301	C30	0.067100	0.981800	0.964700
C311	C31	0.317600	0.558400	0.983300
C321	C32	0.617500	0.497900	0.817500
C331	C33	0.448400	0.515200	0.979000
C341	C34	0.468300	0.365300	0.926700
C351	C35	0.360500	0.328700	0.970600
C361	C36	0.754200	0.520900	0.783900
C371	C37	0.337200	0.235200	0.971000
C381	C38	0.190700	0.555500	0.934500
C391	C39	0.048100	0.513300	0.964000
C401	C40	0.751400	0.531400	0.713500
C411	C41	0.551100	0.305100	0.885700
C421	C42	0.523500	0.215700	0.889400
C431	C43	0.497400	0.494500	0.706900
C441	C44	0.486100	0.482800	0.777300
C451	C45	0.567100	0.518200	0.035300
C461	C46	0.182400	0.441600	0.483300
C471	C47	0.882500	0.502100	0.317500
C481	C48	0.051600	0.484800	0.479000
C491	C49	0.031700	0.634700	0.426700
C501	C50	0.139500	0.671300	0.470600
C511	C51	0.745800	0.479100	0.283900
C521	C52	0.162800	0.764800	0.471000
C531	C53	0.309300	0.444500	0.434500
C541	C54	0.451900	0.486700	0.464000
C551	C55	0.748600	0.468600	0.213500
C561	C56	0.948900	0.694900	0.385700
C571	C57	0.976500	0.784300	0.389400
C581	C58	0.002600	0.505500	0.206900
C591	C59	0.013900	0.517200	0.277300
C601	C60	0.932900	0.481800	0.535300
N11	N1	0.379400	0.988500	0.612600
N21	N2	0.511600	0.957200	0.578300
N31	N3	0.584100	0.676400	0.568600
N41	N4	0.371700	0.017600	0.825500
N51	N5	0.120600	0.011500	0.112600
N61	N6	0.988400	0.042800	0.078300
N71	N7	0.915900	0.323600	0.068600
N81	N8	0.128300	0.982400	0.325500
N91	N9	0.620600	0.488500	0.887400
N101	N10	0.488400	0.457200	0.921700
N111	N11	0.415900	0.176400	0.931400
N121	N12	0.628300	0.517600	0.674500
N131	N13	0.879400	0.511500	0.387400
N141	N14	0.011600	0.542800	0.421700
N151	N15	0.084100	0.823600	0.431400
N161	N16	0.871700	0.482400	0.174500
O11	O1	0.967700	0.023500	0.470300
O21	O2	0.045100	0.973400	0.572800
O31	O3	0.444400	0.071300	0.415000
O41	O4	0.325700	0.960400	0.472500
O51	O5	0.532300	0.976500	0.970300
O61	O6	0.454900	0.026600	0.072800
O71	O7	0.055600	0.928700	0.915000
O81	O8	0.174300	0.039600	0.972500
O91	O9	0.032300	0.523500	0.029700
O101	O10	0.954900	0.473400	0.927200
O111	O11	0.555600	0.571300	0.085000
O121	O12	0.674300	0.460400	0.027500
O131	O13	0.467700	0.476500	0.529700
O141	O14	0.545100	0.526600	0.427200
O151	O15	0.944400	0.428700	0.585000
O161	O16	0.825700	0.539600	0.527500
