data_EZULAO_clean_PM
_symmetry_space_group_name_H-M	'P1'
_cell_length_a	7.578100
_cell_length_b	9.811300
_cell_length_c	11.798600
_cell_angle_alpha	114.060000
_cell_angle_beta	108.045000
_cell_angle_gamma	91.344000
_symmetry_Int_Tables_number 1

loop_
_symmetry_equiv_pos_as_xyz
'x,y,z'

loop_
_atom_site_label
_atom_site_type_symbol
_atom_site_fract_x
_atom_site_fract_y
_atom_site_fract_z
Cd11	Cd1	0.242470	0.481970	0.001630
O11	O1	0.140000	0.228100	0.847600
O21	O2	0.410900	0.432500	0.850400
O31	O3	0.935900	0.417400	0.858300
O41	O4	0.643000	0.601000	0.839200
C11	C1	0.964000	0.260000	0.808000
C21	C2	0.808000	0.147000	0.688000
C31	C3	0.613000	0.179000	0.649500
H11	H1	0.571200	0.267300	0.699400
C41	C4	0.508000	0.069000	0.536800
C51	C5	0.836000	0.999000	0.622000
H21	H2	0.953000	0.970300	0.655800
C61	C6	0.434000	0.520000	0.798000
C71	C7	0.303000	0.522000	0.682300
C81	C8	0.355000	0.564000	0.596000
H31	H3	0.484500	0.595500	0.616000
C91	C9	0.226000	0.562000	0.484000
H41	H4	0.266000	0.582500	0.423300
C101	C10	0.090000	0.483000	0.657600
H51	H5	0.038900	0.466400	0.716200
C111	C11	0.008000	0.524000	0.459500
C121	C12	0.299000	0.105000	0.488000
H61	H6	0.271200	0.200800	0.536700
Cd21	Cd2	0.757530	0.518030	0.998370
O51	O5	0.860000	0.771900	0.152400
O61	O6	0.589100	0.567500	0.149600
O71	O7	0.064100	0.582600	0.141700
O81	O8	0.357000	0.399000	0.160800
C131	C13	0.036000	0.740000	0.192000
C141	C14	0.192000	0.853000	0.312000
C151	C15	0.387000	0.821000	0.350500
H71	H7	0.428800	0.732700	0.300600
C161	C16	0.492000	0.931000	0.463200
C171	C17	0.164000	0.001000	0.378000
H81	H8	0.047000	0.029700	0.344200
C181	C18	0.566000	0.480000	0.202000
C191	C19	0.697000	0.478000	0.317700
C201	C20	0.645000	0.436000	0.404000
H91	H9	0.515500	0.404500	0.384000
C211	C21	0.774000	0.438000	0.516000
H101	H10	0.734000	0.417500	0.576700
C221	C22	0.910000	0.517000	0.342400
H111	H11	0.961100	0.533600	0.283800
C231	C23	0.992000	0.476000	0.540500
C241	C24	0.701000	0.895000	0.512000
H121	H12	0.728800	0.799200	0.463300
