data_FABGOG_clean_PM
_symmetry_space_group_name_H-M	'P1'
_cell_length_a	12.723100
_cell_length_b	12.723100
_cell_length_c	16.481200
_cell_angle_alpha	90.000000
_cell_angle_beta	90.000000
_cell_angle_gamma	120.000000
_symmetry_Int_Tables_number 1

loop_
_symmetry_equiv_pos_as_xyz
'x,y,z'

loop_
_atom_site_label
_atom_site_type_symbol
_atom_site_fract_x
_atom_site_fract_y
_atom_site_fract_z
O11	O1	0.377000	0.993200	0.172200
O21	O2	0.533600	0.179500	0.170500
N11	N1	0.434800	0.370700	0.840000
N21	N2	0.312400	0.212300	0.913500
H11	H1	0.247000	0.145000	0.928700
C11	C1	0.325900	0.273100	0.844800
H21	H2	0.265000	0.249200	0.804300
C21	C2	0.494100	0.371600	0.910900
H31	H3	0.574500	0.431600	0.925100
C31	C3	0.419800	0.274200	0.956700
C41	C4	0.448600	0.235500	0.032500
H41	H4	0.523200	0.292000	0.057300
C51	C5	0.382400	0.129100	0.072100
H51	H5	0.302700	0.072800	0.054000
C61	C6	0.434100	0.100200	0.143700
O31	O3	0.006800	0.383800	0.172200
O41	O4	0.820500	0.354100	0.170500
N31	N3	0.629300	0.064100	0.840000
N41	N4	0.787700	0.100100	0.913500
H61	H6	0.855000	0.102000	0.928700
C71	C7	0.726900	0.052800	0.844800
H71	H7	0.750800	0.015800	0.804300
C81	C8	0.628400	0.122500	0.910900
H81	H8	0.568400	0.142900	0.925100
C91	C9	0.725800	0.145600	0.956700
C101	C10	0.764500	0.213100	0.032500
H91	H9	0.708000	0.231200	0.057300
C111	C11	0.870900	0.253300	0.072100
H101	H10	0.927200	0.229900	0.054000
C121	C12	0.899800	0.333900	0.143700
O51	O5	0.616200	0.623000	0.172200
O61	O6	0.645900	0.466400	0.170500
N51	N5	0.935900	0.565200	0.840000
N61	N6	0.899900	0.687600	0.913500
H111	H11	0.898000	0.753000	0.928700
C131	C13	0.947200	0.674100	0.844800
H121	H12	0.984200	0.735000	0.804300
C141	C14	0.877500	0.505900	0.910900
H131	H13	0.857100	0.425500	0.925100
C151	C15	0.854400	0.580200	0.956700
C161	C16	0.786900	0.551400	0.032500
H141	H14	0.768800	0.476800	0.057300
C171	C17	0.746700	0.617600	0.072100
H151	H15	0.770100	0.697300	0.054000
C181	C18	0.666100	0.565900	0.143700
O71	O7	0.623000	0.006800	0.672200
O81	O8	0.466400	0.820500	0.670500
N71	N7	0.565200	0.629300	0.340000
N81	N8	0.687600	0.787700	0.413500
H161	H16	0.753000	0.855000	0.428700
C191	C19	0.674100	0.726900	0.344800
H171	H17	0.735000	0.750800	0.304300
C201	C20	0.505900	0.628400	0.410900
H181	H18	0.425500	0.568400	0.425100
C211	C21	0.580200	0.725800	0.456700
C221	C22	0.551400	0.764500	0.532500
H191	H19	0.476800	0.708000	0.557300
C231	C23	0.617600	0.870900	0.572100
H201	H20	0.697300	0.927200	0.554000
C241	C24	0.565900	0.899800	0.643700
O91	O9	0.993200	0.616200	0.672200
O101	O10	0.179500	0.645900	0.670500
N91	N9	0.370700	0.935900	0.340000
N101	N10	0.212300	0.899900	0.413500
H211	H21	0.145000	0.898000	0.428700
C251	C25	0.273100	0.947200	0.344800
H221	H22	0.249200	0.984200	0.304300
C261	C26	0.371600	0.877500	0.410900
H231	H23	0.431600	0.857100	0.425100
C271	C27	0.274200	0.854400	0.456700
C281	C28	0.235500	0.786900	0.532500
H241	H24	0.292000	0.768800	0.557300
C291	C29	0.129100	0.746700	0.572100
H251	H25	0.072800	0.770100	0.554000
C301	C30	0.100200	0.666100	0.643700
O111	O11	0.383800	0.377000	0.672200
O121	O12	0.354100	0.533600	0.670500
N111	N11	0.064100	0.434800	0.340000
N121	N12	0.100100	0.312400	0.413500
H261	H26	0.102000	0.247000	0.428700
C311	C31	0.052800	0.325900	0.344800
H271	H27	0.015800	0.265000	0.304300
C321	C32	0.122500	0.494100	0.410900
H281	H28	0.142900	0.574500	0.425100
C331	C33	0.145600	0.419800	0.456700
C341	C34	0.213100	0.448600	0.532500
H291	H29	0.231200	0.523200	0.557300
C351	C35	0.253300	0.382400	0.572100
H301	H30	0.229900	0.302700	0.554000
C361	C36	0.333900	0.434100	0.643700
O131	O13	0.993200	0.377000	0.827800
O141	O14	0.179500	0.533600	0.829500
N131	N13	0.370700	0.434800	0.160000
N141	N14	0.212300	0.312400	0.086500
H311	H31	0.145000	0.247000	0.071300
C371	C37	0.273100	0.325900	0.155200
H321	H32	0.249200	0.265000	0.195700
C381	C38	0.371600	0.494100	0.089100
H331	H33	0.431600	0.574500	0.074900
C391	C39	0.274200	0.419800	0.043300
C401	C40	0.235500	0.448600	0.967500
H341	H34	0.292000	0.523200	0.942700
C411	C41	0.129100	0.382400	0.927900
H351	H35	0.072800	0.302700	0.946000
C421	C42	0.100200	0.434100	0.856300
O151	O15	0.383800	0.006800	0.827800
O161	O16	0.354100	0.820500	0.829500
N151	N15	0.064100	0.629300	0.160000
N161	N16	0.100100	0.787700	0.086500
H361	H36	0.102000	0.855000	0.071300
C431	C43	0.052800	0.726900	0.155200
H371	H37	0.015800	0.750800	0.195700
C441	C44	0.122500	0.628400	0.089100
H381	H38	0.142900	0.568400	0.074900
C451	C45	0.145600	0.725800	0.043300
C461	C46	0.213100	0.764500	0.967500
H391	H39	0.231200	0.708000	0.942700
C471	C47	0.253300	0.870900	0.927900
H401	H40	0.229900	0.927200	0.946000
C481	C48	0.333900	0.899800	0.856300
O171	O17	0.623000	0.616200	0.827800
O181	O18	0.466400	0.645900	0.829500
N171	N17	0.565200	0.935900	0.160000
N181	N18	0.687600	0.899900	0.086500
H411	H41	0.753000	0.898000	0.071300
C491	C49	0.674100	0.947200	0.155200
H421	H42	0.735000	0.984200	0.195700
C501	C50	0.505900	0.877500	0.089100
H431	H43	0.425500	0.857100	0.074900
C511	C51	0.580200	0.854400	0.043300
C521	C52	0.551400	0.786900	0.967500
H441	H44	0.476800	0.768800	0.942700
C531	C53	0.617600	0.746700	0.927900
H451	H45	0.697300	0.770100	0.946000
C541	C54	0.565900	0.666100	0.856300
O191	O19	0.006800	0.623000	0.327800
O201	O20	0.820500	0.466400	0.329500
N191	N19	0.629300	0.565200	0.660000
N201	N20	0.787700	0.687600	0.586500
H461	H46	0.855000	0.753000	0.571300
C551	C55	0.726900	0.674100	0.655200
H471	H47	0.750800	0.735000	0.695700
C561	C56	0.628400	0.505900	0.589100
H481	H48	0.568400	0.425500	0.574900
C571	C57	0.725800	0.580200	0.543300
C581	C58	0.764500	0.551400	0.467500
H491	H49	0.708000	0.476800	0.442700
C591	C59	0.870900	0.617600	0.427900
H501	H50	0.927200	0.697300	0.446000
C601	C60	0.899800	0.565900	0.356300
O211	O21	0.616200	0.993200	0.327800
O221	O22	0.645900	0.179500	0.329500
N211	N21	0.935900	0.370700	0.660000
N221	N22	0.899900	0.212300	0.586500
H511	H51	0.898000	0.145000	0.571300
C611	C61	0.947200	0.273100	0.655200
H521	H52	0.984200	0.249200	0.695700
C621	C62	0.877500	0.371600	0.589100
H531	H53	0.857100	0.431600	0.574900
C631	C63	0.854400	0.274200	0.543300
C641	C64	0.786900	0.235500	0.467500
H541	H54	0.768800	0.292000	0.442700
C651	C65	0.746700	0.129100	0.427900
H551	H55	0.770100	0.072800	0.446000
C661	C66	0.666100	0.100200	0.356300
O231	O23	0.377000	0.383800	0.327800
O241	O24	0.533600	0.354100	0.329500
N231	N23	0.434800	0.064100	0.660000
N241	N24	0.312400	0.100100	0.586500
H561	H56	0.247000	0.102000	0.571300
C671	C67	0.325900	0.052800	0.655200
H571	H57	0.265000	0.015800	0.695700
C681	C68	0.494100	0.122500	0.589100
H581	H58	0.574500	0.142900	0.574900
C691	C69	0.419800	0.145600	0.543300
C701	C70	0.448600	0.213100	0.467500
H591	H59	0.523200	0.231200	0.442700
C711	C71	0.382400	0.253300	0.427900
H601	H60	0.302700	0.229900	0.446000
C721	C72	0.434100	0.333900	0.356300
Cu11	Cu1	0.488860	0.977710	0.250000
Cu21	Cu2	0.022290	0.511140	0.250000
Cu31	Cu3	0.488860	0.511140	0.250000
Cu41	Cu4	0.511140	0.022290	0.750000
Cu51	Cu5	0.977710	0.488850	0.750000
Cu61	Cu6	0.511140	0.488850	0.750000
Cu71	Cu7	0.666670	0.333330	0.250000
Cu81	Cu8	0.333330	0.666670	0.750000
