data_FAFGAU_clean_PM
_symmetry_space_group_name_H-M	'P1'
_cell_length_a	8.061000
_cell_length_b	8.549700
_cell_length_c	19.740000
_cell_angle_alpha	88.256700
_cell_angle_beta	86.300000
_cell_angle_gamma	61.873300
_symmetry_Int_Tables_number 1

loop_
_symmetry_equiv_pos_as_xyz
'x,y,z'

loop_
_atom_site_label
_atom_site_type_symbol
_atom_site_fract_x
_atom_site_fract_y
_atom_site_fract_z
Nd11	Nd1	0.707840	0.075460	0.011880
Nd21	Nd2	0.216700	0.075460	0.488120
Nd31	Nd3	0.292160	0.924540	0.988120
Nd41	Nd4	0.783300	0.924540	0.511880
H11	H1	0.807000	0.286000	0.162000
H21	H2	0.995000	0.244000	0.199000
H31	H3	0.852000	0.548000	0.175000
H41	H4	0.030000	0.458000	0.122000
H51	H5	0.654000	0.556000	0.091000
H61	H6	0.833000	0.468000	0.038000
H71	H7	0.444000	0.448000	0.209000
H81	H8	0.255000	0.466000	0.180000
H91	H9	0.317000	0.190000	0.233000
H101	H10	0.907000	0.286000	0.338000
H111	H11	0.761000	0.244000	0.301000
H121	H12	0.600000	0.548000	0.325000
H131	H13	0.512000	0.458000	0.378000
H141	H14	0.790000	0.556000	0.409000
H151	H15	0.699000	0.468000	0.462000
H161	H16	0.108000	0.448000	0.291000
H171	H17	0.279000	0.466000	0.320000
H181	H18	0.493000	0.190000	0.267000
H191	H19	0.193000	0.714000	0.838000
H201	H20	0.005000	0.756000	0.801000
H211	H21	0.148000	0.452000	0.825000
H221	H22	0.970000	0.542000	0.878000
H231	H23	0.346000	0.444000	0.909000
H241	H24	0.167000	0.532000	0.962000
H251	H25	0.556000	0.552000	0.791000
H261	H26	0.745000	0.534000	0.820000
H271	H27	0.683000	0.810000	0.767000
H281	H28	0.093000	0.714000	0.662000
H291	H29	0.239000	0.756000	0.699000
H301	H30	0.400000	0.452000	0.675000
H311	H31	0.488000	0.542000	0.622000
H321	H32	0.210000	0.444000	0.591000
H331	H33	0.301000	0.532000	0.538000
H341	H34	0.892000	0.552000	0.709000
H351	H35	0.721000	0.534000	0.680000
H361	H36	0.507000	0.810000	0.733000
C11	C1	0.046900	0.148600	0.101900
C21	C2	0.931300	0.281400	0.155300
C31	C3	0.906400	0.468200	0.135400
C41	C4	0.777300	0.548600	0.077900
C51	C5	0.752200	0.727400	0.057300
C61	C6	0.496500	0.274400	0.129800
C71	C7	0.383400	0.381000	0.192100
C81	C8	0.804500	0.148600	0.398100
C91	C9	0.787300	0.281400	0.344700
C101	C10	0.625400	0.468200	0.364600
C111	C11	0.674100	0.548600	0.422100
C121	C12	0.520400	0.727400	0.442700
C131	C13	0.229100	0.274400	0.370200
C141	C14	0.235600	0.381000	0.307900
C151	C15	0.953100	0.851400	0.898100
C161	C16	0.068700	0.718600	0.844700
C171	C17	0.093600	0.531800	0.864600
C181	C18	0.222700	0.451400	0.922100
C191	C19	0.247800	0.272600	0.942700
C201	C20	0.503500	0.725600	0.870200
C211	C21	0.616600	0.619000	0.807900
C221	C22	0.195500	0.851400	0.601900
C231	C23	0.212700	0.718600	0.655300
C241	C24	0.374600	0.531800	0.635400
C251	C25	0.325900	0.451400	0.577900
C261	C26	0.479600	0.272600	0.557300
C271	C27	0.770900	0.725600	0.629800
C281	C28	0.764400	0.619000	0.692100
C291	C29	0.366900	0.266200	0.250000
C301	C30	0.633100	0.733800	0.750000
O11	O1	0.968400	0.089800	0.062100
O21	O2	0.780900	0.901600	0.905800
O31	O3	0.595000	0.839600	0.034000
O41	O4	0.882800	0.767200	0.060700
O51	O5	0.599100	0.110400	0.132800
O61	O6	0.490300	0.354800	0.074000
O71	O7	0.941800	0.089800	0.437900
O81	O8	0.317500	0.901600	0.594200
O91	O9	0.565400	0.839600	0.466000
O101	O10	0.350000	0.767200	0.439300
O111	O11	0.290500	0.110400	0.367200
O121	O12	0.154900	0.354800	0.426000
O131	O13	0.031600	0.910200	0.937900
O141	O14	0.219100	0.098400	0.094200
O151	O15	0.405000	0.160400	0.966000
O161	O16	0.117200	0.232800	0.939300
O171	O17	0.400900	0.889600	0.867200
O181	O18	0.509700	0.645200	0.926000
O191	O19	0.058200	0.910200	0.562100
O201	O20	0.682500	0.098400	0.405800
O211	O21	0.434600	0.160400	0.534000
O221	O22	0.650000	0.232800	0.560700
O231	O23	0.709500	0.889600	0.632800
O241	O24	0.845100	0.645200	0.574000
