data_FAFQEJ01_clean_PM
_symmetry_space_group_name_H-M	'P1'
_cell_length_a	14.619000
_cell_length_b	17.211000
_cell_length_c	21.215000
_cell_angle_alpha	90.000000
_cell_angle_beta	90.000000
_cell_angle_gamma	90.000000
_symmetry_Int_Tables_number 1

loop_
_symmetry_equiv_pos_as_xyz
'x,y,z'

loop_
_atom_site_label
_atom_site_type_symbol
_atom_site_fract_x
_atom_site_fract_y
_atom_site_fract_z
O11	O1	0.566900	0.583500	0.947400
O21	O2	0.645400	0.471300	0.876900
O31	O3	0.493900	0.440800	0.947700
O41	O4	0.658700	0.467600	0.005400
N11	N1	0.455300	0.733100	0.755200
O51	O5	0.533900	0.907500	0.688200
O61	O6	0.443900	0.815200	0.647100
O71	O7	0.708700	0.635300	0.854000
O81	O8	0.569800	0.627800	0.811500
C11	C1	0.498800	0.842600	0.687700
C21	C2	0.527500	0.789900	0.740300
C31	C3	0.618900	0.752400	0.723000
C41	C4	0.679500	0.724600	0.775800
C51	C5	0.649600	0.653900	0.816200
N21	N2	0.976900	0.434200	0.835500
O91	O9	0.836700	0.472900	0.907200
O101	O10	0.773700	0.355200	0.904500
O111	O11	0.036600	0.196000	0.980500
O121	O12	0.966200	0.104100	0.927100
C61	C6	0.835400	0.401900	0.893900
C71	C7	0.916900	0.368000	0.856600
C81	C8	0.974400	0.311900	0.896600
C91	C9	0.924100	0.233700	0.907400
C101	C10	0.979600	0.174100	0.940900
N31	N3	0.769100	0.803100	0.974000
O131	O13	0.877200	0.912800	0.096700
O141	O14	0.886100	0.921500	0.991600
O151	O15	0.578600	0.632600	0.073500
O161	O16	0.702800	0.659400	0.016500
C111	C11	0.851200	0.896900	0.041900
C121	C12	0.766000	0.847000	0.035600
C131	C13	0.747000	0.792300	0.091000
C141	C14	0.652900	0.752800	0.092800
C151	C15	0.644600	0.675600	0.059500
H11	H1	0.551900	0.640100	0.949300
H21	H2	0.678400	0.459300	0.836800
H31	H3	0.435800	0.410300	0.949300
H41	H4	0.698600	0.453900	0.042100
H51	H5	0.478100	0.696200	0.781700
H61	H6	0.435600	0.710100	0.719100
H71	H7	0.407700	0.757800	0.774200
H81	H8	0.537600	0.822700	0.778600
H91	H9	0.606000	0.707500	0.695200
H101	H10	0.654100	0.790500	0.697800
H111	H11	0.688800	0.768900	0.804900
H121	H12	0.739900	0.712100	0.757400
H131	H13	0.027500	0.415000	0.816000
H141	H14	0.994200	0.462800	0.869500
H151	H15	0.945400	0.464900	0.808100
H161	H16	0.893300	0.339800	0.818800
H171	H17	0.987700	0.336300	0.937900
H181	H18	0.033400	0.302000	0.875200
H191	H19	0.867800	0.243700	0.932000
H201	H20	0.905400	0.212500	0.865900
H211	H21	0.721500	0.769100	0.972200
H221	H22	0.822700	0.776600	0.971200
H231	H23	0.764900	0.837300	0.941400
H241	H24	0.712800	0.883400	0.033000
H251	H25	0.754600	0.822200	0.130500
H261	H26	0.794400	0.751200	0.090800
H271	H27	0.635700	0.745200	0.137500
H281	H28	0.607800	0.788900	0.074000
Er11	Er1	0.724900	0.560700	0.942600
Er21	Er2	0.626700	0.360700	0.943700
Er31	Er3	0.501400	0.522900	0.861100
Er41	Er4	0.517500	0.515600	0.037900
O171	O17	0.933100	0.416500	0.447400
O181	O18	0.854600	0.528700	0.376900
O191	O19	0.006100	0.559200	0.447700
O201	O20	0.841300	0.532400	0.505400
N41	N4	0.044700	0.266900	0.255200
O211	O21	0.966100	0.092500	0.188200
O221	O22	0.056100	0.184800	0.147100
O231	O23	0.791300	0.364700	0.354000
O241	O24	0.930200	0.372200	0.311500
C161	C16	0.001200	0.157400	0.187700
C171	C17	0.972500	0.210100	0.240300
C181	C18	0.881100	0.247600	0.223000
C191	C19	0.820500	0.275400	0.275800
C201	C20	0.850400	0.346100	0.316200
N51	N5	0.523100	0.565800	0.335500
O251	O25	0.663300	0.527100	0.407200
O261	O26	0.726300	0.644800	0.404500
O271	O27	0.463400	0.804000	0.480500
O281	O28	0.533800	0.895900	0.427100
C211	C21	0.664600	0.598100	0.393900
C221	C22	0.583100	0.632000	0.356600
C231	C23	0.525600	0.688100	0.396600
C241	C24	0.575900	0.766300	0.407400
C251	C25	0.520400	0.825900	0.440900
N61	N6	0.730900	0.196900	0.474000
O291	O29	0.622800	0.087200	0.596700
O301	O30	0.613900	0.078500	0.491600
O311	O31	0.921400	0.367400	0.573500
O321	O32	0.797200	0.340600	0.516500
C261	C26	0.648800	0.103100	0.541900
C271	C27	0.734000	0.153000	0.535600
C281	C28	0.753000	0.207700	0.591000
C291	C29	0.847100	0.247200	0.592800
C301	C30	0.855400	0.324400	0.559500
H291	H29	0.948100	0.359900	0.449300
H301	H30	0.821600	0.540700	0.336800
H311	H31	0.064200	0.589700	0.449300
H321	H32	0.801400	0.546100	0.542100
H331	H33	0.021900	0.303800	0.281700
H341	H34	0.064400	0.289900	0.219100
H351	H35	0.092300	0.242200	0.274200
H361	H36	0.962400	0.177300	0.278600
H371	H37	0.894000	0.292500	0.195200
H381	H38	0.845900	0.209500	0.197800
H391	H39	0.811200	0.231100	0.304900
H401	H40	0.760100	0.287900	0.257400
H411	H41	0.472500	0.585000	0.316000
H421	H42	0.505800	0.537200	0.369500
H431	H43	0.554600	0.535100	0.308100
H441	H44	0.606700	0.660200	0.318800
H451	H45	0.512300	0.663700	0.437900
H461	H46	0.466600	0.698000	0.375200
H471	H47	0.632200	0.756300	0.432000
H481	H48	0.594600	0.787500	0.365900
H491	H49	0.778500	0.230900	0.472200
H501	H50	0.677300	0.223400	0.471200
H511	H51	0.735100	0.162700	0.441400
H521	H52	0.787200	0.116600	0.533000
H531	H53	0.745400	0.177800	0.630500
H541	H54	0.705600	0.248800	0.590800
H551	H55	0.864300	0.254800	0.637500
H561	H56	0.892200	0.211100	0.574000
Er51	Er5	0.775100	0.439300	0.442600
Er61	Er6	0.873300	0.639300	0.443700
Er71	Er7	0.998600	0.477100	0.361100
Er81	Er8	0.982500	0.484400	0.537900
O331	O33	0.433100	0.083500	0.552600
O341	O34	0.354600	0.971300	0.623100
O351	O35	0.506100	0.940800	0.552300
O361	O36	0.341300	0.967600	0.494600
N71	N7	0.544700	0.233100	0.744800
O371	O37	0.466100	0.407500	0.811800
O381	O38	0.556100	0.315200	0.852900
O391	O39	0.291300	0.135300	0.646000
O401	O40	0.430200	0.127800	0.688500
C311	C31	0.501200	0.342600	0.812300
C321	C32	0.472500	0.289900	0.759700
C331	C33	0.381100	0.252400	0.777000
C341	C34	0.320500	0.224600	0.724200
C351	C35	0.350400	0.153900	0.683800
N81	N8	0.023100	0.934200	0.664500
O411	O41	0.163300	0.972900	0.592800
O421	O42	0.226300	0.855200	0.595500
O431	O43	0.963400	0.696000	0.519500
O441	O44	0.033800	0.604100	0.572900
C361	C36	0.164600	0.901900	0.606100
C371	C37	0.083100	0.868000	0.643400
C381	C38	0.025600	0.811900	0.603400
C391	C39	0.075900	0.733700	0.592600
C401	C40	0.020400	0.674100	0.559100
N91	N9	0.230900	0.303100	0.526000
O451	O45	0.122800	0.412800	0.403300
O461	O46	0.113900	0.421500	0.508400
O471	O47	0.421400	0.132600	0.426500
O481	O48	0.297200	0.159400	0.483500
C411	C41	0.148800	0.396900	0.458100
C421	C42	0.234000	0.347000	0.464400
C431	C43	0.253000	0.292300	0.409000
C441	C44	0.347100	0.252800	0.407200
C451	C45	0.355400	0.175600	0.440500
H571	H57	0.448100	0.140100	0.550700
H581	H58	0.321600	0.959300	0.663200
H591	H59	0.564200	0.910300	0.550700
H601	H60	0.301400	0.953900	0.457900
H611	H61	0.521900	0.196200	0.718300
H621	H62	0.564400	0.210100	0.780900
H631	H63	0.592300	0.257800	0.725800
H641	H64	0.462400	0.322700	0.721400
H651	H65	0.394000	0.207500	0.804800
H661	H66	0.345900	0.290500	0.802200
H671	H67	0.311200	0.268900	0.695100
H681	H68	0.260100	0.212100	0.742600
H691	H69	0.972500	0.915000	0.684000
H701	H70	0.005800	0.962800	0.630500
H711	H71	0.054600	0.964900	0.691900
H721	H72	0.106700	0.839800	0.681200
H731	H73	0.012300	0.836300	0.562100
H741	H74	0.966600	0.802000	0.624800
H751	H75	0.132200	0.743700	0.568000
H761	H76	0.094600	0.712500	0.634100
H771	H77	0.278500	0.269100	0.527800
H781	H78	0.177300	0.276600	0.528800
H791	H79	0.235100	0.337300	0.558600
H801	H80	0.287200	0.383400	0.467000
H811	H81	0.245400	0.322200	0.369500
H821	H82	0.205600	0.251200	0.409200
H831	H83	0.364300	0.245200	0.362500
H841	H84	0.392200	0.288900	0.426000
Er91	Er9	0.275100	0.060700	0.557400
Er101	Er10	0.373300	0.860700	0.556300
Er111	Er11	0.498600	0.022900	0.638900
Er121	Er12	0.482500	0.015600	0.462100
O491	O49	0.066900	0.916500	0.052600
O501	O50	0.145400	0.028700	0.123100
O511	O51	0.993900	0.059200	0.052300
O521	O52	0.158700	0.032400	0.994600
N101	N10	0.955300	0.766900	0.244800
O531	O53	0.033900	0.592500	0.311800
O541	O54	0.943900	0.684800	0.352900
O551	O55	0.208700	0.864700	0.146000
O561	O56	0.069800	0.872200	0.188500
C461	C46	0.998800	0.657400	0.312300
C471	C47	0.027500	0.710100	0.259700
C481	C48	0.118900	0.747600	0.277000
C491	C49	0.179500	0.775400	0.224200
C501	C50	0.149600	0.846100	0.183800
N111	N11	0.476900	0.065800	0.164500
O571	O57	0.336700	0.027100	0.092800
O581	O58	0.273700	0.144800	0.095500
O591	O59	0.536600	0.304000	0.019500
O601	O60	0.466200	0.395900	0.072900
C511	C51	0.335400	0.098100	0.106100
C521	C52	0.416900	0.132000	0.143400
C531	C53	0.474400	0.188100	0.103400
C541	C54	0.424100	0.266300	0.092600
C551	C55	0.479600	0.325900	0.059100
N121	N12	0.269100	0.696900	0.026000
O611	O61	0.377200	0.587200	0.903300
O621	O62	0.386100	0.578500	0.008400
O631	O63	0.078600	0.867400	0.926500
O641	O64	0.202800	0.840600	0.983500
C561	C56	0.351200	0.603100	0.958100
C571	C57	0.266000	0.653000	0.964400
C581	C58	0.247000	0.707700	0.909000
C591	C59	0.152900	0.747200	0.907200
C601	C60	0.144600	0.824400	0.940500
H851	H85	0.051900	0.859900	0.050700
H861	H86	0.178400	0.040700	0.163200
H871	H87	0.935800	0.089700	0.050700
H881	H88	0.198600	0.046100	0.957900
H891	H89	0.978100	0.803800	0.218300
H901	H90	0.935600	0.789900	0.280900
H911	H91	0.907700	0.742200	0.225800
H921	H92	0.037600	0.677300	0.221400
H931	H93	0.106000	0.792500	0.304800
H941	H94	0.154100	0.709500	0.302200
H951	H95	0.188800	0.731100	0.195100
H961	H96	0.239900	0.787900	0.242600
H971	H97	0.527500	0.085000	0.184000
H981	H98	0.494200	0.037200	0.130500
H991	H99	0.445400	0.035100	0.191900
H1001	H100	0.393300	0.160200	0.181200
H1011	H101	0.487700	0.163700	0.062100
H1021	H102	0.533400	0.198000	0.124800
H1031	H103	0.367800	0.256300	0.068000
H1041	H104	0.405400	0.287500	0.134100
H1051	H105	0.221500	0.730900	0.027800
H1061	H106	0.322700	0.723400	0.028800
H1071	H107	0.264900	0.662700	0.058600
H1081	H108	0.212800	0.616600	0.967000
H1091	H109	0.254600	0.677800	0.869500
H1101	H110	0.294400	0.748800	0.909200
H1111	H111	0.135700	0.754800	0.862500
H1121	H112	0.107800	0.711100	0.926000
Er131	Er13	0.224900	0.939300	0.057400
Er141	Er14	0.126700	0.139300	0.056300
Er151	Er15	0.001400	0.977100	0.138900
Er161	Er16	0.017500	0.984400	0.962100
