data_FAGMEI_clean_PM
_symmetry_space_group_name_H-M	'P1'
_cell_length_a	24.253800
_cell_length_b	24.253800
_cell_length_c	13.680900
_cell_angle_alpha	90.000000
_cell_angle_beta	90.000000
_cell_angle_gamma	90.000000
_symmetry_Int_Tables_number 1

loop_
_symmetry_equiv_pos_as_xyz
'x,y,z'

loop_
_atom_site_label
_atom_site_type_symbol
_atom_site_fract_x
_atom_site_fract_y
_atom_site_fract_z
S11	S1	0.161970	0.022240	0.497090
C11	C1	0.114000	0.068100	0.550800
C21	C2	0.067800	0.089100	0.502200
C31	C3	0.035100	0.127100	0.553000
C41	C4	0.051000	0.146400	0.645100
H11	H1	0.028100	0.172200	0.678100
C51	C5	0.099100	0.129200	0.689300
C61	C6	0.129700	0.088100	0.643300
H21	H2	0.161500	0.073500	0.674500
S21	S2	0.052900	0.068940	0.381210
C71	C7	0.068200	0.133900	0.321100
H31	H3	0.050700	0.134000	0.255700
H41	H4	0.051700	0.164300	0.359500
C81	C8	0.129500	0.145000	0.309200
H51	H5	0.135100	0.184500	0.293900
H61	H6	0.148400	0.137000	0.371700
N11	N1	0.154300	0.111300	0.231200
N21	N2	0.201800	0.082900	0.243100
C91	C9	0.212900	0.061200	0.156600
H71	H7	0.244000	0.038700	0.143000
C101	C10	0.173000	0.075800	0.088200
H81	H8	0.171100	0.065500	0.021200
C111	C11	0.137200	0.108300	0.139300
H91	H9	0.105400	0.125900	0.113300
C121	C12	0.115700	0.152900	0.788900
C131	C13	0.106400	0.215100	0.789700
H101	H10	0.128800	0.232200	0.738400
H111	H11	0.117100	0.230000	0.853500
H121	H12	0.067400	0.222900	0.777600
C141	C14	0.078300	0.126500	0.868200
H131	H13	0.039600	0.131200	0.849800
H141	H14	0.085100	0.144500	0.931200
H151	H15	0.086800	0.087100	0.873500
C151	C15	0.176400	0.142100	0.812000
H161	H16	0.181900	0.102600	0.823600
H171	H17	0.186900	0.162800	0.870600
H181	H18	0.199200	0.154000	0.756700
S31	S3	0.661970	0.522240	0.997090
C161	C16	0.614000	0.568100	0.050800
C171	C17	0.567800	0.589100	0.002200
C181	C18	0.535100	0.627100	0.053000
C191	C19	0.551000	0.646400	0.145100
H191	H19	0.528100	0.672200	0.178100
C201	C20	0.599100	0.629200	0.189300
C211	C21	0.629700	0.588100	0.143300
H201	H20	0.661500	0.573500	0.174500
S41	S4	0.552900	0.568940	0.881210
C221	C22	0.568200	0.633900	0.821100
H211	H21	0.550700	0.634000	0.755700
H221	H22	0.551700	0.664300	0.859500
C231	C23	0.629500	0.645000	0.809200
H231	H23	0.635100	0.684500	0.793900
H241	H24	0.648400	0.637000	0.871700
N31	N3	0.654300	0.611300	0.731200
N41	N4	0.701800	0.582900	0.743100
C241	C24	0.712900	0.561200	0.656600
H251	H25	0.744000	0.538700	0.643000
C251	C25	0.673000	0.575800	0.588200
H261	H26	0.671100	0.565500	0.521200
C261	C26	0.637200	0.608300	0.639300
H271	H27	0.605400	0.625900	0.613300
C271	C27	0.615700	0.652900	0.288900
C281	C28	0.606400	0.715100	0.289700
H281	H28	0.628800	0.732200	0.238400
H291	H29	0.617100	0.730000	0.353500
H301	H30	0.567400	0.722900	0.277600
C291	C29	0.578300	0.626500	0.368200
H311	H31	0.539600	0.631200	0.349800
H321	H32	0.585100	0.644500	0.431200
H331	H33	0.586800	0.587100	0.373500
C301	C30	0.676400	0.642100	0.312000
H341	H34	0.681900	0.602600	0.323600
H351	H35	0.686900	0.662800	0.370600
H361	H36	0.699200	0.654000	0.256700
S51	S5	0.838030	0.977760	0.497090
C311	C31	0.886000	0.931900	0.550800
C321	C32	0.932200	0.910900	0.502200
C331	C33	0.964900	0.872900	0.553000
C341	C34	0.949000	0.853600	0.645100
H371	H37	0.971900	0.827800	0.678100
C351	C35	0.900900	0.870800	0.689300
C361	C36	0.870300	0.911900	0.643300
H381	H38	0.838500	0.926500	0.674500
S61	S6	0.947100	0.931060	0.381210
C371	C37	0.931800	0.866100	0.321100
H391	H39	0.949300	0.866000	0.255700
H401	H40	0.948300	0.835700	0.359500
C381	C38	0.870500	0.855000	0.309200
H411	H41	0.864900	0.815500	0.293900
H421	H42	0.851600	0.863000	0.371700
N51	N5	0.845700	0.888700	0.231200
N61	N6	0.798200	0.917100	0.243100
C391	C39	0.787100	0.938800	0.156600
H431	H43	0.756000	0.961300	0.143000
C401	C40	0.827000	0.924200	0.088200
H441	H44	0.828900	0.934500	0.021200
C411	C41	0.862800	0.891700	0.139300
H451	H45	0.894600	0.874100	0.113300
C421	C42	0.884300	0.847100	0.788900
C431	C43	0.893600	0.784900	0.789700
H461	H46	0.871200	0.767800	0.738400
H471	H47	0.882900	0.770000	0.853500
H481	H48	0.932600	0.777100	0.777600
C441	C44	0.921700	0.873500	0.868200
H491	H49	0.960400	0.868800	0.849800
H501	H50	0.914900	0.855500	0.931200
H511	H51	0.913200	0.912900	0.873500
C451	C45	0.823600	0.857900	0.812000
H521	H52	0.818100	0.897400	0.823600
H531	H53	0.813100	0.837200	0.870600
H541	H54	0.800800	0.846000	0.756700
S71	S7	0.338030	0.477760	0.997090
C461	C46	0.386000	0.431900	0.050800
C471	C47	0.432200	0.410900	0.002200
C481	C48	0.464900	0.372900	0.053000
C491	C49	0.449000	0.353600	0.145100
H551	H55	0.471900	0.327800	0.178100
C501	C50	0.400900	0.370800	0.189300
C511	C51	0.370300	0.411900	0.143300
H561	H56	0.338500	0.426500	0.174500
S81	S8	0.447100	0.431060	0.881210
C521	C52	0.431800	0.366100	0.821100
H571	H57	0.449300	0.366000	0.755700
H581	H58	0.448300	0.335700	0.859500
C531	C53	0.370500	0.355000	0.809200
H591	H59	0.364900	0.315500	0.793900
H601	H60	0.351600	0.363000	0.871700
N71	N7	0.345700	0.388700	0.731200
N81	N8	0.298200	0.417100	0.743100
C541	C54	0.287100	0.438800	0.656600
H611	H61	0.256000	0.461300	0.643000
C551	C55	0.327000	0.424200	0.588200
H621	H62	0.328900	0.434500	0.521200
C561	C56	0.362800	0.391700	0.639300
H631	H63	0.394600	0.374100	0.613300
C571	C57	0.384300	0.347100	0.288900
C581	C58	0.393600	0.284900	0.289700
H641	H64	0.371200	0.267800	0.238400
H651	H65	0.382900	0.270000	0.353500
H661	H66	0.432600	0.277100	0.277600
C591	C59	0.421700	0.373500	0.368200
H671	H67	0.460400	0.368800	0.349800
H681	H68	0.414900	0.355500	0.431200
H691	H69	0.413200	0.412900	0.373500
C601	C60	0.323600	0.357900	0.312000
H701	H70	0.318100	0.397400	0.323600
H711	H71	0.313100	0.337200	0.370600
H721	H72	0.300800	0.346000	0.256700
S91	S9	0.022240	0.838030	0.502910
C611	C61	0.068100	0.886000	0.449200
C621	C62	0.089100	0.932200	0.497800
C631	C63	0.127100	0.964900	0.447000
C641	C64	0.146400	0.949000	0.354900
H731	H73	0.172200	0.971900	0.321900
C651	C65	0.129200	0.900900	0.310700
C661	C66	0.088100	0.870300	0.356700
H741	H74	0.073500	0.838500	0.325500
S101	S10	0.068940	0.947100	0.618790
C671	C67	0.133900	0.931800	0.678900
H751	H75	0.134000	0.949300	0.744300
H761	H76	0.164300	0.948300	0.640500
C681	C68	0.145000	0.870500	0.690800
H771	H77	0.184500	0.864900	0.706100
H781	H78	0.137000	0.851600	0.628300
N91	N9	0.111300	0.845700	0.768800
N101	N10	0.082900	0.798200	0.756900
C691	C69	0.061200	0.787100	0.843400
H791	H79	0.038700	0.756000	0.857000
C701	C70	0.075800	0.827000	0.911800
H801	H80	0.065500	0.828900	0.978800
C711	C71	0.108300	0.862800	0.860700
H811	H81	0.125900	0.894600	0.886700
C721	C72	0.152900	0.884300	0.211100
C731	C73	0.215100	0.893600	0.210300
H821	H82	0.232200	0.871200	0.261600
H831	H83	0.230000	0.882900	0.146500
H841	H84	0.222900	0.932600	0.222400
C741	C74	0.126500	0.921700	0.131800
H851	H85	0.131200	0.960400	0.150200
H861	H86	0.144500	0.914900	0.068800
H871	H87	0.087100	0.913200	0.126500
C751	C75	0.142100	0.823600	0.188000
H881	H88	0.102600	0.818100	0.176400
H891	H89	0.162800	0.813100	0.129400
H901	H90	0.154000	0.800800	0.243300
S111	S11	0.522240	0.338030	0.002910
C761	C76	0.568100	0.386000	0.949200
C771	C77	0.589100	0.432200	0.997800
C781	C78	0.627100	0.464900	0.947000
C791	C79	0.646400	0.449000	0.854900
H911	H91	0.672200	0.471900	0.821900
C801	C80	0.629200	0.400900	0.810700
C811	C81	0.588100	0.370300	0.856700
H921	H92	0.573500	0.338500	0.825500
S121	S12	0.568940	0.447100	0.118790
C821	C82	0.633900	0.431800	0.178900
H931	H93	0.634000	0.449300	0.244300
H941	H94	0.664300	0.448300	0.140500
C831	C83	0.645000	0.370500	0.190800
H951	H95	0.684500	0.364900	0.206100
H961	H96	0.637000	0.351600	0.128300
N111	N11	0.611300	0.345700	0.268800
N121	N12	0.582900	0.298200	0.256900
C841	C84	0.561200	0.287100	0.343400
H971	H97	0.538700	0.256000	0.357000
C851	C85	0.575800	0.327000	0.411800
H981	H98	0.565500	0.328900	0.478800
C861	C86	0.608300	0.362800	0.360700
H991	H99	0.625900	0.394600	0.386700
C871	C87	0.652900	0.384300	0.711100
C881	C88	0.715100	0.393600	0.710300
H1001	H100	0.732200	0.371200	0.761600
H1011	H101	0.730000	0.382900	0.646500
H1021	H102	0.722900	0.432600	0.722400
C891	C89	0.626500	0.421700	0.631800
H1031	H103	0.631200	0.460400	0.650200
H1041	H104	0.644500	0.414900	0.568800
H1051	H105	0.587100	0.413200	0.626500
C901	C90	0.642100	0.323600	0.688000
H1061	H106	0.602600	0.318100	0.676400
H1071	H107	0.662800	0.313100	0.629400
H1081	H108	0.654000	0.300800	0.743300
S131	S13	0.977760	0.161970	0.502910
C911	C91	0.931900	0.114000	0.449200
C921	C92	0.910900	0.067800	0.497800
C931	C93	0.872900	0.035100	0.447000
C941	C94	0.853600	0.051000	0.354900
H1091	H109	0.827800	0.028100	0.321900
C951	C95	0.870800	0.099100	0.310700
C961	C96	0.911900	0.129700	0.356700
H1101	H110	0.926500	0.161500	0.325500
S141	S14	0.931060	0.052900	0.618790
C971	C97	0.866100	0.068200	0.678900
H1111	H111	0.866000	0.050700	0.744300
H1121	H112	0.835700	0.051700	0.640500
C981	C98	0.855000	0.129500	0.690800
H1131	H113	0.815500	0.135100	0.706100
H1141	H114	0.863000	0.148400	0.628300
N131	N13	0.888700	0.154300	0.768800
N141	N14	0.917100	0.201800	0.756900
C991	C99	0.938800	0.212900	0.843400
H1151	H115	0.961300	0.244000	0.857000
C1001	C100	0.924200	0.173000	0.911800
H1161	H116	0.934500	0.171100	0.978800
C1011	C101	0.891700	0.137200	0.860700
H1171	H117	0.874100	0.105400	0.886700
C1021	C102	0.847100	0.115700	0.211100
C1031	C103	0.784900	0.106400	0.210300
H1181	H118	0.767800	0.128800	0.261600
H1191	H119	0.770000	0.117100	0.146500
H1201	H120	0.777100	0.067400	0.222400
C1041	C104	0.873500	0.078300	0.131800
H1211	H121	0.868800	0.039600	0.150200
H1221	H122	0.855500	0.085100	0.068800
H1231	H123	0.912900	0.086800	0.126500
C1051	C105	0.857900	0.176400	0.188000
H1241	H124	0.897400	0.181900	0.176400
H1251	H125	0.837200	0.186900	0.129400
H1261	H126	0.846000	0.199200	0.243300
S151	S15	0.477760	0.661970	0.002910
C1061	C106	0.431900	0.614000	0.949200
C1071	C107	0.410900	0.567800	0.997800
C1081	C108	0.372900	0.535100	0.947000
C1091	C109	0.353600	0.551000	0.854900
H1271	H127	0.327800	0.528100	0.821900
C1101	C110	0.370800	0.599100	0.810700
C1111	C111	0.411900	0.629700	0.856700
H1281	H128	0.426500	0.661500	0.825500
S161	S16	0.431060	0.552900	0.118790
C1121	C112	0.366100	0.568200	0.178900
H1291	H129	0.366000	0.550700	0.244300
H1301	H130	0.335700	0.551700	0.140500
C1131	C113	0.355000	0.629500	0.190800
H1311	H131	0.315500	0.635100	0.206100
H1321	H132	0.363000	0.648400	0.128300
N151	N15	0.388700	0.654300	0.268800
N161	N16	0.417100	0.701800	0.256900
C1141	C114	0.438800	0.712900	0.343400
H1331	H133	0.461300	0.744000	0.357000
C1151	C115	0.424200	0.673000	0.411800
H1341	H134	0.434500	0.671100	0.478800
C1161	C116	0.391700	0.637200	0.360700
H1351	H135	0.374100	0.605400	0.386700
C1171	C117	0.347100	0.615700	0.711100
C1181	C118	0.284900	0.606400	0.710300
H1361	H136	0.267800	0.628800	0.761600
H1371	H137	0.270000	0.617100	0.646500
H1381	H138	0.277100	0.567400	0.722400
C1191	C119	0.373500	0.578300	0.631800
H1391	H139	0.368800	0.539600	0.650200
H1401	H140	0.355500	0.585100	0.568800
H1411	H141	0.412900	0.586800	0.626500
C1201	C120	0.357900	0.676400	0.688000
H1421	H142	0.397400	0.681900	0.676400
H1431	H143	0.337200	0.686900	0.629400
H1441	H144	0.346000	0.699200	0.743300
S171	S17	0.338030	0.022240	0.252910
C1211	C121	0.386000	0.068100	0.199200
C1221	C122	0.432200	0.089100	0.247800
C1231	C123	0.464900	0.127100	0.197000
C1241	C124	0.449000	0.146400	0.104900
H1451	H145	0.471900	0.172200	0.071900
C1251	C125	0.400900	0.129200	0.060700
C1261	C126	0.370300	0.088100	0.106700
H1461	H146	0.338500	0.073500	0.075500
S181	S18	0.447100	0.068940	0.368790
C1271	C127	0.431800	0.133900	0.428900
H1471	H147	0.449300	0.134000	0.494300
H1481	H148	0.448300	0.164300	0.390500
C1281	C128	0.370500	0.145000	0.440800
H1491	H149	0.364900	0.184500	0.456100
H1501	H150	0.351600	0.137000	0.378300
N171	N17	0.345700	0.111300	0.518800
N181	N18	0.298200	0.082900	0.506900
C1291	C129	0.287100	0.061200	0.593400
H1511	H151	0.256000	0.038700	0.607000
C1301	C130	0.327000	0.075800	0.661800
H1521	H152	0.328900	0.065500	0.728800
C1311	C131	0.362800	0.108300	0.610700
H1531	H153	0.394600	0.125900	0.636700
C1321	C132	0.384300	0.152900	0.961100
C1331	C133	0.393600	0.215100	0.960300
H1541	H154	0.371200	0.232200	0.011600
H1551	H155	0.382900	0.230000	0.896500
H1561	H156	0.432600	0.222900	0.972400
C1341	C134	0.421700	0.126500	0.881800
H1571	H157	0.460400	0.131200	0.900200
H1581	H158	0.414900	0.144500	0.818800
H1591	H159	0.413200	0.087100	0.876500
C1351	C135	0.323600	0.142100	0.938000
H1601	H160	0.318100	0.102600	0.926400
H1611	H161	0.313100	0.162800	0.879400
H1621	H162	0.300800	0.154000	0.993300
S191	S19	0.838030	0.522240	0.752910
C1361	C136	0.886000	0.568100	0.699200
C1371	C137	0.932200	0.589100	0.747800
C1381	C138	0.964900	0.627100	0.697000
C1391	C139	0.949000	0.646400	0.604900
H1631	H163	0.971900	0.672200	0.571900
C1401	C140	0.900900	0.629200	0.560700
C1411	C141	0.870300	0.588100	0.606700
H1641	H164	0.838500	0.573500	0.575500
S201	S20	0.947100	0.568940	0.868790
C1421	C142	0.931800	0.633900	0.928900
H1651	H165	0.949300	0.634000	0.994300
H1661	H166	0.948300	0.664300	0.890500
C1431	C143	0.870500	0.645000	0.940800
H1671	H167	0.864900	0.684500	0.956100
H1681	H168	0.851600	0.637000	0.878300
N191	N19	0.845700	0.611300	0.018800
N201	N20	0.798200	0.582900	0.006900
C1441	C144	0.787100	0.561200	0.093400
H1691	H169	0.756000	0.538700	0.107000
C1451	C145	0.827000	0.575800	0.161800
H1701	H170	0.828900	0.565500	0.228800
C1461	C146	0.862800	0.608300	0.110700
H1711	H171	0.894600	0.625900	0.136700
C1471	C147	0.884300	0.652900	0.461100
C1481	C148	0.893600	0.715100	0.460300
H1721	H172	0.871200	0.732200	0.511600
H1731	H173	0.882900	0.730000	0.396500
H1741	H174	0.932600	0.722900	0.472400
C1491	C149	0.921700	0.626500	0.381800
H1751	H175	0.960400	0.631200	0.400200
H1761	H176	0.914900	0.644500	0.318800
H1771	H177	0.913200	0.587100	0.376500
C1501	C150	0.823600	0.642100	0.438000
H1781	H178	0.818100	0.602600	0.426400
H1791	H179	0.813100	0.662800	0.379400
H1801	H180	0.800800	0.654000	0.493300
S211	S21	0.661970	0.977760	0.252910
C1511	C151	0.614000	0.931900	0.199200
C1521	C152	0.567800	0.910900	0.247800
C1531	C153	0.535100	0.872900	0.197000
C1541	C154	0.551000	0.853600	0.104900
H1811	H181	0.528100	0.827800	0.071900
C1551	C155	0.599100	0.870800	0.060700
C1561	C156	0.629700	0.911900	0.106700
H1821	H182	0.661500	0.926500	0.075500
S221	S22	0.552900	0.931060	0.368790
C1571	C157	0.568200	0.866100	0.428900
H1831	H183	0.550700	0.866000	0.494300
H1841	H184	0.551700	0.835700	0.390500
C1581	C158	0.629500	0.855000	0.440800
H1851	H185	0.635100	0.815500	0.456100
H1861	H186	0.648400	0.863000	0.378300
N211	N21	0.654300	0.888700	0.518800
N221	N22	0.701800	0.917100	0.506900
C1591	C159	0.712900	0.938800	0.593400
H1871	H187	0.744000	0.961300	0.607000
C1601	C160	0.673000	0.924200	0.661800
H1881	H188	0.671100	0.934500	0.728800
C1611	C161	0.637200	0.891700	0.610700
H1891	H189	0.605400	0.874100	0.636700
C1621	C162	0.615700	0.847100	0.961100
C1631	C163	0.606400	0.784900	0.960300
H1901	H190	0.628800	0.767800	0.011600
H1911	H191	0.617100	0.770000	0.896500
H1921	H192	0.567400	0.777100	0.972400
C1641	C164	0.578300	0.873500	0.881800
H1931	H193	0.539600	0.868800	0.900200
H1941	H194	0.585100	0.855500	0.818800
H1951	H195	0.586800	0.912900	0.876500
C1651	C165	0.676400	0.857900	0.938000
H1961	H196	0.681900	0.897400	0.926400
H1971	H197	0.686900	0.837200	0.879400
H1981	H198	0.699200	0.846000	0.993300
S231	S23	0.161970	0.477760	0.752910
C1661	C166	0.114000	0.431900	0.699200
C1671	C167	0.067800	0.410900	0.747800
C1681	C168	0.035100	0.372900	0.697000
C1691	C169	0.051000	0.353600	0.604900
H1991	H199	0.028100	0.327800	0.571900
C1701	C170	0.099100	0.370800	0.560700
C1711	C171	0.129700	0.411900	0.606700
H2001	H200	0.161500	0.426500	0.575500
S241	S24	0.052900	0.431060	0.868790
C1721	C172	0.068200	0.366100	0.928900
H2011	H201	0.050700	0.366000	0.994300
H2021	H202	0.051700	0.335700	0.890500
C1731	C173	0.129500	0.355000	0.940800
H2031	H203	0.135100	0.315500	0.956100
H2041	H204	0.148400	0.363000	0.878300
N231	N23	0.154300	0.388700	0.018800
N241	N24	0.201800	0.417100	0.006900
C1741	C174	0.212900	0.438800	0.093400
H2051	H205	0.244000	0.461300	0.107000
C1751	C175	0.173000	0.424200	0.161800
H2061	H206	0.171100	0.434500	0.228800
C1761	C176	0.137200	0.391700	0.110700
H2071	H207	0.105400	0.374100	0.136700
C1771	C177	0.115700	0.347100	0.461100
C1781	C178	0.106400	0.284900	0.460300
H2081	H208	0.128800	0.267800	0.511600
H2091	H209	0.117100	0.270000	0.396500
H2101	H210	0.067400	0.277100	0.472400
C1791	C179	0.078300	0.373500	0.381800
H2111	H211	0.039600	0.368800	0.400200
H2121	H212	0.085100	0.355500	0.318800
H2131	H213	0.086800	0.412900	0.376500
C1801	C180	0.176400	0.357900	0.438000
H2141	H214	0.181900	0.397400	0.426400
H2151	H215	0.186900	0.337200	0.379400
H2161	H216	0.199200	0.346000	0.493300
S251	S25	0.477760	0.838030	0.247090
C1811	C181	0.431900	0.886000	0.300800
C1821	C182	0.410900	0.932200	0.252200
C1831	C183	0.372900	0.964900	0.303000
C1841	C184	0.353600	0.949000	0.395100
H2171	H217	0.327800	0.971900	0.428100
C1851	C185	0.370800	0.900900	0.439300
C1861	C186	0.411900	0.870300	0.393300
H2181	H218	0.426500	0.838500	0.424500
S261	S26	0.431060	0.947100	0.131210
C1871	C187	0.366100	0.931800	0.071100
H2191	H219	0.366000	0.949300	0.005700
H2201	H220	0.335700	0.948300	0.109500
C1881	C188	0.355000	0.870500	0.059200
H2211	H221	0.315500	0.864900	0.043900
H2221	H222	0.363000	0.851600	0.121700
N251	N25	0.388700	0.845700	0.981200
N261	N26	0.417100	0.798200	0.993100
C1891	C189	0.438800	0.787100	0.906600
H2231	H223	0.461300	0.756000	0.893000
C1901	C190	0.424200	0.827000	0.838200
H2241	H224	0.434500	0.828900	0.771200
C1911	C191	0.391700	0.862800	0.889300
H2251	H225	0.374100	0.894600	0.863300
C1921	C192	0.347100	0.884300	0.538900
C1931	C193	0.284900	0.893600	0.539700
H2261	H226	0.267800	0.871200	0.488400
H2271	H227	0.270000	0.882900	0.603500
H2281	H228	0.277100	0.932600	0.527600
C1941	C194	0.373500	0.921700	0.618200
H2291	H229	0.368800	0.960400	0.599800
H2301	H230	0.355500	0.914900	0.681200
H2311	H231	0.412900	0.913200	0.623500
C1951	C195	0.357900	0.823600	0.562000
H2321	H232	0.397400	0.818100	0.573600
H2331	H233	0.337200	0.813100	0.620600
H2341	H234	0.346000	0.800800	0.506700
S271	S27	0.977760	0.338030	0.747090
C1961	C196	0.931900	0.386000	0.800800
C1971	C197	0.910900	0.432200	0.752200
C1981	C198	0.872900	0.464900	0.803000
C1991	C199	0.853600	0.449000	0.895100
H2351	H235	0.827800	0.471900	0.928100
C2001	C200	0.870800	0.400900	0.939300
C2011	C201	0.911900	0.370300	0.893300
H2361	H236	0.926500	0.338500	0.924500
S281	S28	0.931060	0.447100	0.631210
C2021	C202	0.866100	0.431800	0.571100
H2371	H237	0.866000	0.449300	0.505700
H2381	H238	0.835700	0.448300	0.609500
C2031	C203	0.855000	0.370500	0.559200
H2391	H239	0.815500	0.364900	0.543900
H2401	H240	0.863000	0.351600	0.621700
N271	N27	0.888700	0.345700	0.481200
N281	N28	0.917100	0.298200	0.493100
C2041	C204	0.938800	0.287100	0.406600
H2411	H241	0.961300	0.256000	0.393000
C2051	C205	0.924200	0.327000	0.338200
H2421	H242	0.934500	0.328900	0.271200
C2061	C206	0.891700	0.362800	0.389300
H2431	H243	0.874100	0.394600	0.363300
C2071	C207	0.847100	0.384300	0.038900
C2081	C208	0.784900	0.393600	0.039700
H2441	H244	0.767800	0.371200	0.988400
H2451	H245	0.770000	0.382900	0.103500
H2461	H246	0.777100	0.432600	0.027600
C2091	C209	0.873500	0.421700	0.118200
H2471	H247	0.868800	0.460400	0.099800
H2481	H248	0.855500	0.414900	0.181200
H2491	H249	0.912900	0.413200	0.123500
C2101	C210	0.857900	0.323600	0.062000
H2501	H250	0.897400	0.318100	0.073600
H2511	H251	0.837200	0.313100	0.120600
H2521	H252	0.846000	0.300800	0.006700
S291	S29	0.522240	0.161970	0.247090
C2111	C211	0.568100	0.114000	0.300800
C2121	C212	0.589100	0.067800	0.252200
C2131	C213	0.627100	0.035100	0.303000
C2141	C214	0.646400	0.051000	0.395100
H2531	H253	0.672200	0.028100	0.428100
C2151	C215	0.629200	0.099100	0.439300
C2161	C216	0.588100	0.129700	0.393300
H2541	H254	0.573500	0.161500	0.424500
S301	S30	0.568940	0.052900	0.131210
C2171	C217	0.633900	0.068200	0.071100
H2551	H255	0.634000	0.050700	0.005700
H2561	H256	0.664300	0.051700	0.109500
C2181	C218	0.645000	0.129500	0.059200
H2571	H257	0.684500	0.135100	0.043900
H2581	H258	0.637000	0.148400	0.121700
N291	N29	0.611300	0.154300	0.981200
N301	N30	0.582900	0.201800	0.993100
C2191	C219	0.561200	0.212900	0.906600
H2591	H259	0.538700	0.244000	0.893000
C2201	C220	0.575800	0.173000	0.838200
H2601	H260	0.565500	0.171100	0.771200
C2211	C221	0.608300	0.137200	0.889300
H2611	H261	0.625900	0.105400	0.863300
C2221	C222	0.652900	0.115700	0.538900
C2231	C223	0.715100	0.106400	0.539700
H2621	H262	0.732200	0.128800	0.488400
H2631	H263	0.730000	0.117100	0.603500
H2641	H264	0.722900	0.067400	0.527600
C2241	C224	0.626500	0.078300	0.618200
H2651	H265	0.631200	0.039600	0.599800
H2661	H266	0.644500	0.085100	0.681200
H2671	H267	0.587100	0.086800	0.623500
C2251	C225	0.642100	0.176400	0.562000
H2681	H268	0.602600	0.181900	0.573600
H2691	H269	0.662800	0.186900	0.620600
H2701	H270	0.654000	0.199200	0.506700
S311	S31	0.022240	0.661970	0.747090
C2261	C226	0.068100	0.614000	0.800800
C2271	C227	0.089100	0.567800	0.752200
C2281	C228	0.127100	0.535100	0.803000
C2291	C229	0.146400	0.551000	0.895100
H2711	H271	0.172200	0.528100	0.928100
C2301	C230	0.129200	0.599100	0.939300
C2311	C231	0.088100	0.629700	0.893300
H2721	H272	0.073500	0.661500	0.924500
S321	S32	0.068940	0.552900	0.631210
C2321	C232	0.133900	0.568200	0.571100
H2731	H273	0.134000	0.550700	0.505700
H2741	H274	0.164300	0.551700	0.609500
C2331	C233	0.145000	0.629500	0.559200
H2751	H275	0.184500	0.635100	0.543900
H2761	H276	0.137000	0.648400	0.621700
N311	N31	0.111300	0.654300	0.481200
N321	N32	0.082900	0.701800	0.493100
C2341	C234	0.061200	0.712900	0.406600
H2771	H277	0.038700	0.744000	0.393000
C2351	C235	0.075800	0.673000	0.338200
H2781	H278	0.065500	0.671100	0.271200
C2361	C236	0.108300	0.637200	0.389300
H2791	H279	0.125900	0.605400	0.363300
C2371	C237	0.152900	0.615700	0.038900
C2381	C238	0.215100	0.606400	0.039700
H2801	H280	0.232200	0.628800	0.988400
H2811	H281	0.230000	0.617100	0.103500
H2821	H282	0.222900	0.567400	0.027600
C2391	C239	0.126500	0.578300	0.118200
H2831	H283	0.131200	0.539600	0.099800
H2841	H284	0.144500	0.585100	0.181200
H2851	H285	0.087100	0.586800	0.123500
C2401	C240	0.142100	0.676400	0.062000
H2861	H286	0.102600	0.681900	0.073600
H2871	H287	0.162800	0.686900	0.120600
H2881	H288	0.154000	0.699200	0.006700
Ag11	Ag1	0.250000	0.077660	0.375000
Ag21	Ag2	0.750000	0.577660	0.875000
Ag31	Ag3	0.750000	0.922340	0.375000
Ag41	Ag4	0.250000	0.422340	0.875000
Ag51	Ag5	0.077660	0.750000	0.625000
Ag61	Ag6	0.922340	0.250000	0.625000
Ag71	Ag7	0.422340	0.750000	0.125000
Ag81	Ag8	0.577660	0.250000	0.125000
