data_FAGQAI_clean_PM
_symmetry_space_group_name_H-M	'P1'
_cell_length_a	17.116100
_cell_length_b	38.686200
_cell_length_c	25.646700
_cell_angle_alpha	90.000000
_cell_angle_beta	101.441000
_cell_angle_gamma	90.000000
_symmetry_Int_Tables_number 1

loop_
_symmetry_equiv_pos_as_xyz
'x,y,z'

loop_
_atom_site_label
_atom_site_type_symbol
_atom_site_fract_x
_atom_site_fract_y
_atom_site_fract_z
Cu11	Cu1	0.940200	0.266000	0.205060
Cu21	Cu2	0.072170	0.252320	0.274200
Cu31	Cu3	0.006090	0.966010	0.499670
O11	O1	0.115040	0.976560	0.490880
O21	O2	0.884300	0.789030	0.264320
O31	O3	0.995000	0.799920	0.324210
O41	O4	0.894700	0.231000	0.244230
O51	O5	0.008800	0.217510	0.302430
O61	O6	0.038700	0.971300	0.576300
O71	O7	0.979000	0.228850	0.164290
O81	O8	0.091700	0.218340	0.222070
O91	O9	0.077900	0.800830	0.243280
O101	O10	0.967400	0.788170	0.183610
C11	C1	0.141400	0.006640	0.487520
C21	C2	0.223900	0.009670	0.475290
C31	C3	0.256300	0.041560	0.469900
H11	H1	0.228200	0.061700	0.475100
C41	C4	0.332500	0.043740	0.456600
H21	H2	0.355100	0.065500	0.452500
C51	C5	0.373100	0.014270	0.449600
C61	C6	0.340800	0.982600	0.456300
H31	H3	0.369900	0.962400	0.452600
C71	C7	0.264900	0.979930	0.468800
H41	H4	0.242400	0.958100	0.472700
C81	C8	0.450500	0.016490	0.435200
C91	C9	0.516700	0.016290	0.422400
C101	C10	0.591200	0.015110	0.408480
C111	C11	0.626700	0.983740	0.403440
H51	H5	0.601200	0.963200	0.410100
C121	C12	0.701700	0.982500	0.388190
C131	C13	0.740100	0.012740	0.379700
H61	H6	0.791100	0.011900	0.371200
C141	C14	0.703700	0.044020	0.383600
C151	C15	0.628800	0.045350	0.398170
H71	H7	0.604100	0.066800	0.400900
C161	C16	0.739100	0.949350	0.381900
C171	C17	0.771000	0.923360	0.372400
C181	C18	0.808000	0.892860	0.359400
C191	C19	0.765900	0.870780	0.321000
H81	H8	0.711600	0.874700	0.307000
C201	C20	0.805300	0.842790	0.303800
H91	H9	0.777400	0.828400	0.276800
C211	C21	0.882500	0.835640	0.324600
C221	C22	0.922500	0.856460	0.363500
H101	H10	0.975600	0.851400	0.379400
C231	C23	0.885500	0.885210	0.379900
H111	H11	0.914800	0.899800	0.405900
C241	C24	0.923200	0.805150	0.302800
C251	C25	0.742700	0.074950	0.371500
C261	C26	0.775700	0.099520	0.359600
C271	C27	0.816000	0.129430	0.342900
C281	C28	0.896700	0.133520	0.358200
H121	H12	0.926100	0.117100	0.381100
C291	C29	0.936500	0.161440	0.340700
H131	H13	0.991800	0.164200	0.352300
C301	C30	0.892400	0.185210	0.305700
C311	C31	0.811600	0.181770	0.289900
H141	H14	0.782700	0.197700	0.265900
C321	C32	0.770900	0.153830	0.309900
H151	H15	0.715100	0.152000	0.301000
C331	C33	0.933400	0.214070	0.281700
C341	C34	0.042500	0.000120	0.598740
C351	C35	0.062300	0.999750	0.659000
C361	C36	0.072200	0.969150	0.687100
H161	H16	0.069500	0.948100	0.668600
C371	C37	0.085900	0.969000	0.741600
H171	H17	0.092800	0.947800	0.759900
C381	C38	0.089700	0.999750	0.770100
C391	C39	0.085900	0.030110	0.742500
H181	H18	0.093200	0.051100	0.761200
C401	C40	0.071300	0.030420	0.686900
H191	H19	0.067600	0.051600	0.668600
C411	C41	0.098500	0.000080	0.826900
C421	C42	0.103000	0.000730	0.873200
C431	C43	0.104400	0.002260	0.930400
C441	C44	0.102600	0.033860	0.954700
H201	H20	0.101300	0.054300	0.934800
C451	C45	0.102800	0.035390	0.008400
C461	C46	0.104400	0.005510	0.037100
H211	H21	0.104600	0.006700	0.073800
C471	C47	0.105800	0.973600	0.013000
C481	C48	0.103900	0.971780	0.959500
H221	H22	0.102300	0.950200	0.942400
C491	C49	0.100300	0.068680	0.034200
C501	C50	0.092900	0.095450	0.057100
C511	C51	0.082700	0.125620	0.085700
C521	C52	0.018400	0.146440	0.070100
H231	H23	0.982200	0.141300	0.038400
C531	C53	0.004400	0.175060	0.099500
H241	H24	0.958900	0.188800	0.088300
C541	C54	0.058300	0.182990	0.145300
C551	C55	0.124900	0.163540	0.161300
H251	H25	0.162700	0.169900	0.191600
C561	C56	0.136900	0.133910	0.132200
H261	H26	0.181400	0.119700	0.144100
C571	C57	0.042700	0.212160	0.179800
C581	C58	0.100800	0.942040	0.044100
C591	C59	0.090200	0.917530	0.068700
C601	C60	0.077400	0.888460	0.100000
C611	C61	0.011100	0.868710	0.085300
H271	H27	0.974800	0.873700	0.053600
C621	C62	0.996600	0.840850	0.117400
H281	H28	0.951100	0.827000	0.106700
C631	C63	0.048500	0.833920	0.164100
C641	C64	0.114600	0.852900	0.178800
H291	H29	0.150200	0.847500	0.210600
C651	C65	0.132000	0.881220	0.146900
H301	H30	0.178600	0.894500	0.157200
C661	C66	0.030400	0.805020	0.198900
O111	O11	0.105070	0.034180	0.491340
O121	O12	0.029570	0.029150	0.576700
Cu41	Cu4	0.059800	0.766000	0.294940
Cu51	Cu5	0.927830	0.752320	0.225800
Cu61	Cu6	0.993910	0.466010	0.000330
O131	O13	0.884960	0.476560	0.009120
O141	O14	0.115700	0.289030	0.235680
O151	O15	0.005000	0.299920	0.175790
O161	O16	0.105300	0.731000	0.255770
O171	O17	0.991200	0.717510	0.197570
O181	O18	0.961300	0.471300	0.923700
O191	O19	0.021000	0.728850	0.335710
O201	O20	0.908300	0.718340	0.277930
O211	O21	0.922100	0.300830	0.256720
O221	O22	0.032600	0.288170	0.316390
C671	C67	0.858600	0.506640	0.012480
C681	C68	0.776100	0.509670	0.024710
C691	C69	0.743700	0.541560	0.030100
H311	H31	0.771800	0.561700	0.024900
C701	C70	0.667500	0.543740	0.043400
H321	H32	0.644900	0.565500	0.047500
C711	C71	0.626900	0.514270	0.050400
C721	C72	0.659200	0.482600	0.043700
H331	H33	0.630100	0.462400	0.047400
C731	C73	0.735100	0.479930	0.031200
H341	H34	0.757600	0.458100	0.027300
C741	C74	0.549500	0.516490	0.064800
C751	C75	0.483300	0.516290	0.077600
C761	C76	0.408800	0.515110	0.091520
C771	C77	0.373300	0.483740	0.096560
H351	H35	0.398800	0.463200	0.089900
C781	C78	0.298300	0.482500	0.111810
C791	C79	0.259900	0.512740	0.120300
H361	H36	0.208900	0.511900	0.128800
C801	C80	0.296300	0.544020	0.116400
C811	C81	0.371200	0.545350	0.101830
H371	H37	0.395900	0.566800	0.099100
C821	C82	0.260900	0.449350	0.118100
C831	C83	0.229000	0.423360	0.127600
C841	C84	0.192000	0.392860	0.140600
C851	C85	0.234100	0.370780	0.179000
H381	H38	0.288400	0.374700	0.193000
C861	C86	0.194700	0.342790	0.196200
H391	H39	0.222600	0.328400	0.223200
C871	C87	0.117500	0.335640	0.175400
C881	C88	0.077500	0.356460	0.136500
H401	H40	0.024400	0.351400	0.120600
C891	C89	0.114500	0.385210	0.120100
H411	H41	0.085200	0.399800	0.094100
C901	C90	0.076800	0.305150	0.197200
C911	C91	0.257300	0.574950	0.128500
C921	C92	0.224300	0.599520	0.140400
C931	C93	0.184000	0.629430	0.157100
C941	C94	0.103300	0.633520	0.141800
H421	H42	0.073900	0.617100	0.118900
C951	C95	0.063500	0.661440	0.159300
H431	H43	0.008200	0.664200	0.147700
C961	C96	0.107600	0.685210	0.194300
C971	C97	0.188400	0.681770	0.210100
H441	H44	0.217300	0.697700	0.234100
C981	C98	0.229100	0.653830	0.190100
H451	H45	0.284900	0.652000	0.199000
C991	C99	0.066600	0.714070	0.218300
C1001	C100	0.957500	0.500120	0.901260
C1011	C101	0.937700	0.499750	0.841000
C1021	C102	0.927800	0.469150	0.812900
H461	H46	0.930500	0.448100	0.831400
C1031	C103	0.914100	0.469000	0.758400
H471	H47	0.907200	0.447800	0.740100
C1041	C104	0.910300	0.499750	0.729900
C1051	C105	0.914100	0.530110	0.757500
H481	H48	0.906800	0.551100	0.738800
C1061	C106	0.928700	0.530420	0.813100
H491	H49	0.932400	0.551600	0.831400
C1071	C107	0.901500	0.500080	0.673100
C1081	C108	0.897000	0.500730	0.626800
C1091	C109	0.895600	0.502260	0.569600
C1101	C110	0.897400	0.533860	0.545300
H501	H50	0.898700	0.554300	0.565200
C1111	C111	0.897200	0.535390	0.491600
C1121	C112	0.895600	0.505510	0.462900
H511	H51	0.895400	0.506700	0.426200
C1131	C113	0.894200	0.473600	0.487000
C1141	C114	0.896100	0.471780	0.540500
H521	H52	0.897700	0.450200	0.557600
C1151	C115	0.899700	0.568680	0.465800
C1161	C116	0.907100	0.595450	0.442900
C1171	C117	0.917300	0.625620	0.414300
C1181	C118	0.981600	0.646440	0.429900
H531	H53	0.017800	0.641300	0.461600
C1191	C119	0.995600	0.675060	0.400500
H541	H54	0.041100	0.688800	0.411700
C1201	C120	0.941700	0.682990	0.354700
C1211	C121	0.875100	0.663540	0.338700
H551	H55	0.837300	0.669900	0.308400
C1221	C122	0.863100	0.633910	0.367800
H561	H56	0.818600	0.619700	0.355900
C1231	C123	0.957300	0.712160	0.320200
C1241	C124	0.899200	0.442040	0.455900
C1251	C125	0.909800	0.417530	0.431300
C1261	C126	0.922600	0.388460	0.400000
C1271	C127	0.988900	0.368710	0.414700
H571	H57	0.025200	0.373700	0.446400
C1281	C128	0.003400	0.340850	0.382600
H581	H58	0.048900	0.327000	0.393300
C1291	C129	0.951500	0.333920	0.335900
C1301	C130	0.885400	0.352900	0.321200
H591	H59	0.849800	0.347500	0.289400
C1311	C131	0.868000	0.381220	0.353100
H601	H60	0.821400	0.394500	0.342800
C1321	C132	0.969600	0.305020	0.301100
O231	O23	0.894930	0.534180	0.008660
O241	O24	0.970430	0.529150	0.923300
Cu71	Cu7	0.059800	0.734000	0.794940
Cu81	Cu8	0.927830	0.747680	0.725800
Cu91	Cu9	0.993910	0.033990	0.500330
O251	O25	0.884960	0.023440	0.509120
O261	O26	0.115700	0.210970	0.735680
O271	O27	0.005000	0.200080	0.675790
O281	O28	0.105300	0.769000	0.755770
O291	O29	0.991200	0.782490	0.697570
O301	O30	0.961300	0.028700	0.423700
O311	O31	0.021000	0.771150	0.835710
O321	O32	0.908300	0.781660	0.777930
O331	O33	0.922100	0.199170	0.756720
O341	O34	0.032600	0.211830	0.816390
C1331	C133	0.858600	0.993360	0.512480
C1341	C134	0.776100	0.990330	0.524710
C1351	C135	0.743700	0.958440	0.530100
H611	H61	0.771800	0.938300	0.524900
C1361	C136	0.667500	0.956260	0.543400
H621	H62	0.644900	0.934500	0.547500
C1371	C137	0.626900	0.985730	0.550400
C1381	C138	0.659200	0.017400	0.543700
H631	H63	0.630100	0.037600	0.547400
C1391	C139	0.735100	0.020070	0.531200
H641	H64	0.757600	0.041900	0.527300
C1401	C140	0.549500	0.983510	0.564800
C1411	C141	0.483300	0.983710	0.577600
C1421	C142	0.408800	0.984890	0.591520
C1431	C143	0.373300	0.016260	0.596560
H651	H65	0.398800	0.036800	0.589900
C1441	C144	0.298300	0.017500	0.611810
C1451	C145	0.259900	0.987260	0.620300
H661	H66	0.208900	0.988100	0.628800
C1461	C146	0.296300	0.955980	0.616400
C1471	C147	0.371200	0.954650	0.601830
H671	H67	0.395900	0.933200	0.599100
C1481	C148	0.260900	0.050650	0.618100
C1491	C149	0.229000	0.076640	0.627600
C1501	C150	0.192000	0.107140	0.640600
C1511	C151	0.234100	0.129220	0.679000
H681	H68	0.288400	0.125300	0.693000
C1521	C152	0.194700	0.157210	0.696200
H691	H69	0.222600	0.171600	0.723200
C1531	C153	0.117500	0.164360	0.675400
C1541	C154	0.077500	0.143540	0.636500
H701	H70	0.024400	0.148600	0.620600
C1551	C155	0.114500	0.114790	0.620100
H711	H71	0.085200	0.100200	0.594100
C1561	C156	0.076800	0.194850	0.697200
C1571	C157	0.257300	0.925050	0.628500
C1581	C158	0.224300	0.900480	0.640400
C1591	C159	0.184000	0.870570	0.657100
C1601	C160	0.103300	0.866480	0.641800
H721	H72	0.073900	0.882900	0.618900
C1611	C161	0.063500	0.838560	0.659300
H731	H73	0.008200	0.835800	0.647700
C1621	C162	0.107600	0.814790	0.694300
C1631	C163	0.188400	0.818230	0.710100
H741	H74	0.217300	0.802300	0.734100
C1641	C164	0.229100	0.846170	0.690100
H751	H75	0.284900	0.848000	0.699000
C1651	C165	0.066600	0.785930	0.718300
C1661	C166	0.957500	0.999880	0.401260
C1671	C167	0.937700	0.000250	0.341000
C1681	C168	0.927800	0.030850	0.312900
H761	H76	0.930500	0.051900	0.331400
C1691	C169	0.914100	0.031000	0.258400
H771	H77	0.907200	0.052200	0.240100
C1701	C170	0.910300	0.000250	0.229900
C1711	C171	0.914100	0.969890	0.257500
H781	H78	0.906800	0.948900	0.238800
C1721	C172	0.928700	0.969580	0.313100
H791	H79	0.932400	0.948400	0.331400
C1731	C173	0.901500	0.999920	0.173100
C1741	C174	0.897000	0.999270	0.126800
C1751	C175	0.895600	0.997740	0.069600
C1761	C176	0.897400	0.966140	0.045300
H801	H80	0.898700	0.945700	0.065200
C1771	C177	0.897200	0.964610	0.991600
C1781	C178	0.895600	0.994490	0.962900
H811	H81	0.895400	0.993300	0.926200
C1791	C179	0.894200	0.026400	0.987000
C1801	C180	0.896100	0.028220	0.040500
H821	H82	0.897700	0.049800	0.057600
C1811	C181	0.899700	0.931320	0.965800
C1821	C182	0.907100	0.904550	0.942900
C1831	C183	0.917300	0.874380	0.914300
C1841	C184	0.981600	0.853560	0.929900
H831	H83	0.017800	0.858700	0.961600
C1851	C185	0.995600	0.824940	0.900500
H841	H84	0.041100	0.811200	0.911700
C1861	C186	0.941700	0.817010	0.854700
C1871	C187	0.875100	0.836460	0.838700
H851	H85	0.837300	0.830100	0.808400
C1881	C188	0.863100	0.866090	0.867800
H861	H86	0.818600	0.880300	0.855900
C1891	C189	0.957300	0.787840	0.820200
C1901	C190	0.899200	0.057960	0.955900
C1911	C191	0.909800	0.082470	0.931300
C1921	C192	0.922600	0.111540	0.900000
C1931	C193	0.988900	0.131290	0.914700
H871	H87	0.025200	0.126300	0.946400
C1941	C194	0.003400	0.159150	0.882600
H881	H88	0.048900	0.173000	0.893300
C1951	C195	0.951500	0.166080	0.835900
C1961	C196	0.885400	0.147100	0.821200
H891	H89	0.849800	0.152500	0.789400
C1971	C197	0.868000	0.118780	0.853100
H901	H90	0.821400	0.105500	0.842800
C1981	C198	0.969600	0.194980	0.801100
O351	O35	0.894930	0.965820	0.508660
O361	O36	0.970430	0.970850	0.423300
Cu101	Cu10	0.940200	0.234000	0.705060
Cu111	Cu11	0.072170	0.247680	0.774200
Cu121	Cu12	0.006090	0.533990	0.999670
O371	O37	0.115040	0.523440	0.990880
O381	O38	0.884300	0.710970	0.764320
O391	O39	0.995000	0.700080	0.824210
O401	O40	0.894700	0.269000	0.744230
O411	O41	0.008800	0.282490	0.802430
O421	O42	0.038700	0.528700	0.076300
O431	O43	0.979000	0.271150	0.664290
O441	O44	0.091700	0.281660	0.722070
O451	O45	0.077900	0.699170	0.743280
O461	O46	0.967400	0.711830	0.683610
C1991	C199	0.141400	0.493360	0.987520
C2001	C200	0.223900	0.490330	0.975290
C2011	C201	0.256300	0.458440	0.969900
H911	H91	0.228200	0.438300	0.975100
C2021	C202	0.332500	0.456260	0.956600
H921	H92	0.355100	0.434500	0.952500
C2031	C203	0.373100	0.485730	0.949600
C2041	C204	0.340800	0.517400	0.956300
H931	H93	0.369900	0.537600	0.952600
C2051	C205	0.264900	0.520070	0.968800
H941	H94	0.242400	0.541900	0.972700
C2061	C206	0.450500	0.483510	0.935200
C2071	C207	0.516700	0.483710	0.922400
C2081	C208	0.591200	0.484890	0.908480
C2091	C209	0.626700	0.516260	0.903440
H951	H95	0.601200	0.536800	0.910100
C2101	C210	0.701700	0.517500	0.888190
C2111	C211	0.740100	0.487260	0.879700
H961	H96	0.791100	0.488100	0.871200
C2121	C212	0.703700	0.455980	0.883600
C2131	C213	0.628800	0.454650	0.898170
H971	H97	0.604100	0.433200	0.900900
C2141	C214	0.739100	0.550650	0.881900
C2151	C215	0.771000	0.576640	0.872400
C2161	C216	0.808000	0.607140	0.859400
C2171	C217	0.765900	0.629220	0.821000
H981	H98	0.711600	0.625300	0.807000
C2181	C218	0.805300	0.657210	0.803800
H991	H99	0.777400	0.671600	0.776800
C2191	C219	0.882500	0.664360	0.824600
C2201	C220	0.922500	0.643540	0.863500
H1001	H100	0.975600	0.648600	0.879400
C2211	C221	0.885500	0.614790	0.879900
H1011	H101	0.914800	0.600200	0.905900
C2221	C222	0.923200	0.694850	0.802800
C2231	C223	0.742700	0.425050	0.871500
C2241	C224	0.775700	0.400480	0.859600
C2251	C225	0.816000	0.370570	0.842900
C2261	C226	0.896700	0.366480	0.858200
H1021	H102	0.926100	0.382900	0.881100
C2271	C227	0.936500	0.338560	0.840700
H1031	H103	0.991800	0.335800	0.852300
C2281	C228	0.892400	0.314790	0.805700
C2291	C229	0.811600	0.318230	0.789900
H1041	H104	0.782700	0.302300	0.765900
C2301	C230	0.770900	0.346170	0.809900
H1051	H105	0.715100	0.348000	0.801000
C2311	C231	0.933400	0.285930	0.781700
C2321	C232	0.042500	0.499880	0.098740
C2331	C233	0.062300	0.500250	0.159000
C2341	C234	0.072200	0.530850	0.187100
H1061	H106	0.069500	0.551900	0.168600
C2351	C235	0.085900	0.531000	0.241600
H1071	H107	0.092800	0.552200	0.259900
C2361	C236	0.089700	0.500250	0.270100
C2371	C237	0.085900	0.469890	0.242500
H1081	H108	0.093200	0.448900	0.261200
C2381	C238	0.071300	0.469580	0.186900
H1091	H109	0.067600	0.448400	0.168600
C2391	C239	0.098500	0.499920	0.326900
C2401	C240	0.103000	0.499270	0.373200
C2411	C241	0.104400	0.497740	0.430400
C2421	C242	0.102600	0.466140	0.454700
H1101	H110	0.101300	0.445700	0.434800
C2431	C243	0.102800	0.464610	0.508400
C2441	C244	0.104400	0.494490	0.537100
H1111	H111	0.104600	0.493300	0.573800
C2451	C245	0.105800	0.526400	0.513000
C2461	C246	0.103900	0.528220	0.459500
H1121	H112	0.102300	0.549800	0.442400
C2471	C247	0.100300	0.431320	0.534200
C2481	C248	0.092900	0.404550	0.557100
C2491	C249	0.082700	0.374380	0.585700
C2501	C250	0.018400	0.353560	0.570100
H1131	H113	0.982200	0.358700	0.538400
C2511	C251	0.004400	0.324940	0.599500
H1141	H114	0.958900	0.311200	0.588300
C2521	C252	0.058300	0.317010	0.645300
C2531	C253	0.124900	0.336460	0.661300
H1151	H115	0.162700	0.330100	0.691600
C2541	C254	0.136900	0.366090	0.632200
H1161	H116	0.181400	0.380300	0.644100
C2551	C255	0.042700	0.287840	0.679800
C2561	C256	0.100800	0.557960	0.544100
C2571	C257	0.090200	0.582470	0.568700
C2581	C258	0.077400	0.611540	0.600000
C2591	C259	0.011100	0.631290	0.585300
H1171	H117	0.974800	0.626300	0.553600
C2601	C260	0.996600	0.659150	0.617400
H1181	H118	0.951100	0.673000	0.606700
C2611	C261	0.048500	0.666080	0.664100
C2621	C262	0.114600	0.647100	0.678800
H1191	H119	0.150200	0.652500	0.710600
C2631	C263	0.132000	0.618780	0.646900
H1201	H120	0.178600	0.605500	0.657200
C2641	C264	0.030400	0.694980	0.698900
O471	O47	0.105070	0.465820	0.991340
O481	O48	0.029570	0.470850	0.076700
