data_FAGVUH_clean_PM
_symmetry_space_group_name_H-M	'P1'
_cell_length_a	18.465000
_cell_length_b	9.367000
_cell_length_c	10.059000
_cell_angle_alpha	90.000000
_cell_angle_beta	90.000000
_cell_angle_gamma	90.000000
_symmetry_Int_Tables_number 1

loop_
_symmetry_equiv_pos_as_xyz
'x,y,z'

loop_
_atom_site_label
_atom_site_type_symbol
_atom_site_fract_x
_atom_site_fract_y
_atom_site_fract_z
Ru11	Ru1	0.484760	0.058780	0.594110
C11	C1	0.528900	0.767100	0.643200
C21	C2	0.637200	0.081900	0.528600
O11	O1	0.535900	0.764600	0.515700
O21	O2	0.505100	0.880700	0.703500
O31	O3	0.546300	0.657700	0.708500
O41	O4	0.619200	0.002000	0.430100
O51	O5	0.588400	0.118400	0.617100
O61	O6	0.702200	0.121400	0.542800
K11	K1	0.429200	0.502500	0.554800
Ru21	Ru2	0.015240	0.441220	0.594110
C31	C3	0.971100	0.732900	0.643200
C41	C4	0.862800	0.418100	0.528600
O71	O7	0.964100	0.735400	0.515700
O81	O8	0.994900	0.619300	0.703500
O91	O9	0.953700	0.842300	0.708500
O101	O10	0.880800	0.498000	0.430100
O111	O11	0.911600	0.381600	0.617100
O121	O12	0.797800	0.378600	0.542800
K21	K2	0.070800	0.997500	0.554800
Ru31	Ru3	0.515240	0.558780	0.905890
C51	C5	0.471100	0.267100	0.856800
C61	C6	0.362800	0.581900	0.971400
O131	O13	0.464100	0.264600	0.984300
O141	O14	0.494900	0.380700	0.796500
O151	O15	0.453700	0.157700	0.791500
O161	O16	0.380800	0.502000	0.069900
O171	O17	0.411600	0.618400	0.882900
O181	O18	0.297800	0.621400	0.957200
K31	K3	0.570800	0.002500	0.945200
Ru41	Ru4	0.984760	0.941220	0.905890
C71	C7	0.028900	0.232900	0.856800
C81	C8	0.137200	0.918100	0.971400
O191	O19	0.035900	0.235400	0.984300
O201	O20	0.005100	0.119300	0.796500
O211	O21	0.046300	0.342300	0.791500
O221	O22	0.119200	0.998000	0.069900
O231	O23	0.088400	0.881600	0.882900
O241	O24	0.202200	0.878600	0.957200
K41	K4	0.929200	0.497500	0.945200
Ru51	Ru5	0.515240	0.941220	0.405890
C91	C9	0.471100	0.232900	0.356800
C101	C10	0.362800	0.918100	0.471400
O251	O25	0.464100	0.235400	0.484300
O261	O26	0.494900	0.119300	0.296500
O271	O27	0.453700	0.342300	0.291500
O281	O28	0.380800	0.998000	0.569900
O291	O29	0.411600	0.881600	0.382900
O301	O30	0.297800	0.878600	0.457200
K51	K5	0.570800	0.497500	0.445200
Ru61	Ru6	0.984760	0.558780	0.405890
C111	C11	0.028900	0.267100	0.356800
C121	C12	0.137200	0.581900	0.471400
O311	O31	0.035900	0.264600	0.484300
O321	O32	0.005100	0.380700	0.296500
O331	O33	0.046300	0.157700	0.291500
O341	O34	0.119200	0.502000	0.569900
O351	O35	0.088400	0.618400	0.382900
O361	O36	0.202200	0.621400	0.457200
K61	K6	0.929200	0.002500	0.445200
Ru71	Ru7	0.484760	0.441220	0.094110
C131	C13	0.528900	0.732900	0.143200
C141	C14	0.637200	0.418100	0.028600
O371	O37	0.535900	0.735400	0.015700
O381	O38	0.505100	0.619300	0.203500
O391	O39	0.546300	0.842300	0.208500
O401	O40	0.619200	0.498000	0.930100
O411	O41	0.588400	0.381600	0.117100
O421	O42	0.702200	0.378600	0.042800
K71	K7	0.429200	0.997500	0.054800
Ru81	Ru8	0.015240	0.058780	0.094110
C151	C15	0.971100	0.767100	0.143200
C161	C16	0.862800	0.081900	0.028600
O431	O43	0.964100	0.764600	0.015700
O441	O44	0.994900	0.880700	0.203500
O451	O45	0.953700	0.657700	0.208500
O461	O46	0.880800	0.002000	0.930100
O471	O47	0.911600	0.118400	0.117100
O481	O48	0.797800	0.121400	0.042800
K81	K8	0.070800	0.502500	0.054800
Mg11	Mg1	0.750000	0.250000	0.685200
Mg21	Mg2	0.250000	0.750000	0.814800
Mg31	Mg3	0.250000	0.750000	0.314800
Mg41	Mg4	0.750000	0.250000	0.185200
