data_FAHQIR_clean_PM
_symmetry_space_group_name_H-M	'P1'
_cell_length_a	20.600000
_cell_length_b	10.427100
_cell_length_c	29.646000
_cell_angle_alpha	90.000000
_cell_angle_beta	113.510000
_cell_angle_gamma	90.000000
_symmetry_Int_Tables_number 1

loop_
_symmetry_equiv_pos_as_xyz
'x,y,z'

loop_
_atom_site_label
_atom_site_type_symbol
_atom_site_fract_x
_atom_site_fract_y
_atom_site_fract_z
Co11	Co1	0.165140	0.825830	0.337020
O11	O1	0.040200	0.805300	0.219250
O21	O2	0.155200	0.844100	0.265130
O31	O3	0.302200	0.017500	0.172800
O41	O4	0.249600	0.208800	0.148930
O51	O5	0.085000	0.329200	0.901000
O61	O6	0.169400	0.187500	0.908380
O71	O7	0.090400	0.662300	0.315780
N11	N1	0.050300	0.513700	0.222000
N21	N2	0.238500	0.979200	0.362800
C11	C1	0.100600	0.850600	0.225700
C21	C2	0.107300	0.913300	0.183200
C31	C3	0.170400	0.969200	0.187100
H11	H1	0.209100	0.964800	0.217200
C41	C4	0.178600	0.031200	0.148500
C51	C5	0.249200	0.089600	0.157500
C61	C6	0.120800	0.039400	0.102600
C71	C7	0.058800	0.981700	0.098800
H21	H2	0.020300	0.982900	0.068600
C81	C8	0.051200	0.922900	0.137600
H31	H3	0.007500	0.888400	0.133400
C91	C9	0.125500	0.101400	0.058900
C101	C10	0.182100	0.071600	0.046400
H41	H4	0.218400	0.018600	0.066500
C111	C11	0.184000	0.122200	0.003300
H51	H5	0.221800	0.102400	0.995000
C121	C12	0.129900	0.202100	0.972300
C131	C13	0.128900	0.244700	0.923900
C141	C14	0.077100	0.233600	0.986600
H61	H6	0.041600	0.289100	0.967100
C151	C15	0.074100	0.185500	0.029900
H71	H7	0.037600	0.210100	0.039000
C161	C16	0.072800	0.407400	0.243200
H81	H8	0.065600	0.387200	0.271400
C171	C17	0.111100	0.312500	0.224000
H91	H9	0.125300	0.232100	0.238100
C181	C18	0.122400	0.351300	0.186700
H101	H10	0.148000	0.298100	0.174700
C191	C19	0.101000	0.456000	0.165500
H111	H11	0.106900	0.478800	0.137000
C201	C20	0.068500	0.535500	0.186500
H121	H12	0.058200	0.617300	0.173000
C211	C21	0.292500	0.969500	0.405700
H131	H13	0.300500	0.892600	0.422900
C221	C22	0.338300	0.073700	0.425800
H141	H14	0.375500	0.067500	0.456500
C231	C23	0.326500	0.185600	0.398600
H151	H15	0.358300	0.253500	0.409400
C241	C24	0.269400	0.194900	0.357000
H161	H16	0.257400	0.272000	0.340000
C251	C25	0.228800	0.088400	0.340000
H171	H17	0.191000	0.094200	0.309500
H181	H18	0.083000	0.668000	0.342300
H191	H19	0.123000	0.609000	0.316000
Co21	Co2	0.665140	0.325830	0.337020
O81	O8	0.540200	0.305300	0.219250
O91	O9	0.655200	0.344100	0.265130
O101	O10	0.802200	0.517500	0.172800
O111	O11	0.749600	0.708800	0.148930
O121	O12	0.585000	0.829200	0.901000
O131	O13	0.669400	0.687500	0.908380
O141	O14	0.590400	0.162300	0.315780
N31	N3	0.550300	0.013700	0.222000
N41	N4	0.738500	0.479200	0.362800
C261	C26	0.600600	0.350600	0.225700
C271	C27	0.607300	0.413300	0.183200
C281	C28	0.670400	0.469200	0.187100
H201	H20	0.709100	0.464800	0.217200
C291	C29	0.678600	0.531200	0.148500
C301	C30	0.749200	0.589600	0.157500
C311	C31	0.620800	0.539400	0.102600
C321	C32	0.558800	0.481700	0.098800
H211	H21	0.520300	0.482900	0.068600
C331	C33	0.551200	0.422900	0.137600
H221	H22	0.507500	0.388400	0.133400
C341	C34	0.625500	0.601400	0.058900
C351	C35	0.682100	0.571600	0.046400
H231	H23	0.718400	0.518600	0.066500
C361	C36	0.684000	0.622200	0.003300
H241	H24	0.721800	0.602400	0.995000
C371	C37	0.629900	0.702100	0.972300
C381	C38	0.628900	0.744700	0.923900
C391	C39	0.577100	0.733600	0.986600
H251	H25	0.541600	0.789100	0.967100
C401	C40	0.574100	0.685500	0.029900
H261	H26	0.537600	0.710100	0.039000
C411	C41	0.572800	0.907400	0.243200
H271	H27	0.565600	0.887200	0.271400
C421	C42	0.611100	0.812500	0.224000
H281	H28	0.625300	0.732100	0.238100
C431	C43	0.622400	0.851300	0.186700
H291	H29	0.648000	0.798100	0.174700
C441	C44	0.601000	0.956000	0.165500
H301	H30	0.606900	0.978800	0.137000
C451	C45	0.568500	0.035500	0.186500
H311	H31	0.558200	0.117300	0.173000
C461	C46	0.792500	0.469500	0.405700
H321	H32	0.800500	0.392600	0.422900
C471	C47	0.838300	0.573700	0.425800
H331	H33	0.875500	0.567500	0.456500
C481	C48	0.826500	0.685600	0.398600
H341	H34	0.858300	0.753500	0.409400
C491	C49	0.769400	0.694900	0.357000
H351	H35	0.757400	0.772000	0.340000
C501	C50	0.728800	0.588400	0.340000
H361	H36	0.691000	0.594200	0.309500
H371	H37	0.583000	0.168000	0.342300
H381	H38	0.623000	0.109000	0.316000
Co31	Co3	0.834860	0.825830	0.162980
O151	O15	0.959800	0.805300	0.280750
O161	O16	0.844800	0.844100	0.234870
O171	O17	0.697800	0.017500	0.327200
O181	O18	0.750400	0.208800	0.351070
O191	O19	0.915000	0.329200	0.599000
O201	O20	0.830600	0.187500	0.591620
O211	O21	0.909600	0.662300	0.184220
N51	N5	0.949700	0.513700	0.278000
N61	N6	0.761500	0.979200	0.137200
C511	C51	0.899400	0.850600	0.274300
C521	C52	0.892700	0.913300	0.316800
C531	C53	0.829600	0.969200	0.312900
H391	H39	0.790900	0.964800	0.282800
C541	C54	0.821400	0.031200	0.351500
C551	C55	0.750800	0.089600	0.342500
C561	C56	0.879200	0.039400	0.397400
C571	C57	0.941200	0.981700	0.401200
H401	H40	0.979700	0.982900	0.431400
C581	C58	0.948800	0.922900	0.362400
H411	H41	0.992500	0.888400	0.366600
C591	C59	0.874500	0.101400	0.441100
C601	C60	0.817900	0.071600	0.453600
H421	H42	0.781600	0.018600	0.433500
C611	C61	0.816000	0.122200	0.496700
H431	H43	0.778200	0.102400	0.505000
C621	C62	0.870100	0.202100	0.527700
C631	C63	0.871100	0.244700	0.576100
C641	C64	0.922900	0.233600	0.513400
H441	H44	0.958400	0.289100	0.532900
C651	C65	0.925900	0.185500	0.470100
H451	H45	0.962400	0.210100	0.461000
C661	C66	0.927200	0.407400	0.256800
H461	H46	0.934400	0.387200	0.228600
C671	C67	0.888900	0.312500	0.276000
H471	H47	0.874700	0.232100	0.261900
C681	C68	0.877600	0.351300	0.313300
H481	H48	0.852000	0.298100	0.325300
C691	C69	0.899000	0.456000	0.334500
H491	H49	0.893100	0.478800	0.363000
C701	C70	0.931500	0.535500	0.313500
H501	H50	0.941800	0.617300	0.327000
C711	C71	0.707500	0.969500	0.094300
H511	H51	0.699500	0.892600	0.077100
C721	C72	0.661700	0.073700	0.074200
H521	H52	0.624500	0.067500	0.043500
C731	C73	0.673500	0.185600	0.101400
H531	H53	0.641700	0.253500	0.090600
C741	C74	0.730600	0.194900	0.143000
H541	H54	0.742600	0.272000	0.160000
C751	C75	0.771200	0.088400	0.160000
H551	H55	0.809000	0.094200	0.190500
H561	H56	0.917000	0.668000	0.157700
H571	H57	0.877000	0.609000	0.184000
Co41	Co4	0.334860	0.325830	0.162980
O221	O22	0.459800	0.305300	0.280750
O231	O23	0.344800	0.344100	0.234870
O241	O24	0.197800	0.517500	0.327200
O251	O25	0.250400	0.708800	0.351070
O261	O26	0.415000	0.829200	0.599000
O271	O27	0.330600	0.687500	0.591620
O281	O28	0.409600	0.162300	0.184220
N71	N7	0.449700	0.013700	0.278000
N81	N8	0.261500	0.479200	0.137200
C761	C76	0.399400	0.350600	0.274300
C771	C77	0.392700	0.413300	0.316800
C781	C78	0.329600	0.469200	0.312900
H581	H58	0.290900	0.464800	0.282800
C791	C79	0.321400	0.531200	0.351500
C801	C80	0.250800	0.589600	0.342500
C811	C81	0.379200	0.539400	0.397400
C821	C82	0.441200	0.481700	0.401200
H591	H59	0.479700	0.482900	0.431400
C831	C83	0.448800	0.422900	0.362400
H601	H60	0.492500	0.388400	0.366600
C841	C84	0.374500	0.601400	0.441100
C851	C85	0.317900	0.571600	0.453600
H611	H61	0.281600	0.518600	0.433500
C861	C86	0.316000	0.622200	0.496700
H621	H62	0.278200	0.602400	0.505000
C871	C87	0.370100	0.702100	0.527700
C881	C88	0.371100	0.744700	0.576100
C891	C89	0.422900	0.733600	0.513400
H631	H63	0.458400	0.789100	0.532900
C901	C90	0.425900	0.685500	0.470100
H641	H64	0.462400	0.710100	0.461000
C911	C91	0.427200	0.907400	0.256800
H651	H65	0.434400	0.887200	0.228600
C921	C92	0.388900	0.812500	0.276000
H661	H66	0.374700	0.732100	0.261900
C931	C93	0.377600	0.851300	0.313300
H671	H67	0.352000	0.798100	0.325300
C941	C94	0.399000	0.956000	0.334500
H681	H68	0.393100	0.978800	0.363000
C951	C95	0.431500	0.035500	0.313500
H691	H69	0.441800	0.117300	0.327000
C961	C96	0.207500	0.469500	0.094300
H701	H70	0.199500	0.392600	0.077100
C971	C97	0.161700	0.573700	0.074200
H711	H71	0.124500	0.567500	0.043500
C981	C98	0.173500	0.685600	0.101400
H721	H72	0.141700	0.753500	0.090600
C991	C99	0.230600	0.694900	0.143000
H731	H73	0.242600	0.772000	0.160000
C1001	C100	0.271200	0.588400	0.160000
H741	H74	0.309000	0.594200	0.190500
H751	H75	0.417000	0.168000	0.157700
H761	H76	0.377000	0.109000	0.184000
Co51	Co5	0.834860	0.174170	0.662980
O291	O29	0.959800	0.194700	0.780750
O301	O30	0.844800	0.155900	0.734870
O311	O31	0.697800	0.982500	0.827200
O321	O32	0.750400	0.791200	0.851070
O331	O33	0.915000	0.670800	0.099000
O341	O34	0.830600	0.812500	0.091620
O351	O35	0.909600	0.337700	0.684220
N91	N9	0.949700	0.486300	0.778000
N101	N10	0.761500	0.020800	0.637200
C1011	C101	0.899400	0.149400	0.774300
C1021	C102	0.892700	0.086700	0.816800
C1031	C103	0.829600	0.030800	0.812900
H771	H77	0.790900	0.035200	0.782800
C1041	C104	0.821400	0.968800	0.851500
C1051	C105	0.750800	0.910400	0.842500
C1061	C106	0.879200	0.960600	0.897400
C1071	C107	0.941200	0.018300	0.901200
H781	H78	0.979700	0.017100	0.931400
C1081	C108	0.948800	0.077100	0.862400
H791	H79	0.992500	0.111600	0.866600
C1091	C109	0.874500	0.898600	0.941100
C1101	C110	0.817900	0.928400	0.953600
H801	H80	0.781600	0.981400	0.933500
C1111	C111	0.816000	0.877800	0.996700
H811	H81	0.778200	0.897600	0.005000
C1121	C112	0.870100	0.797900	0.027700
C1131	C113	0.871100	0.755300	0.076100
C1141	C114	0.922900	0.766400	0.013400
H821	H82	0.958400	0.710900	0.032900
C1151	C115	0.925900	0.814500	0.970100
H831	H83	0.962400	0.789900	0.961000
C1161	C116	0.927200	0.592600	0.756800
H841	H84	0.934400	0.612800	0.728600
C1171	C117	0.888900	0.687500	0.776000
H851	H85	0.874700	0.767900	0.761900
C1181	C118	0.877600	0.648700	0.813300
H861	H86	0.852000	0.701900	0.825300
C1191	C119	0.899000	0.544000	0.834500
H871	H87	0.893100	0.521200	0.863000
C1201	C120	0.931500	0.464500	0.813500
H881	H88	0.941800	0.382700	0.827000
C1211	C121	0.707500	0.030500	0.594300
H891	H89	0.699500	0.107400	0.577100
C1221	C122	0.661700	0.926300	0.574200
H901	H90	0.624500	0.932500	0.543500
C1231	C123	0.673500	0.814400	0.601400
H911	H91	0.641700	0.746500	0.590600
C1241	C124	0.730600	0.805100	0.643000
H921	H92	0.742600	0.728000	0.660000
C1251	C125	0.771200	0.911600	0.660000
H931	H93	0.809000	0.905800	0.690500
H941	H94	0.917000	0.332000	0.657700
H951	H95	0.877000	0.391000	0.684000
Co61	Co6	0.334860	0.674170	0.662980
O361	O36	0.459800	0.694700	0.780750
O371	O37	0.344800	0.655900	0.734870
O381	O38	0.197800	0.482500	0.827200
O391	O39	0.250400	0.291200	0.851070
O401	O40	0.415000	0.170800	0.099000
O411	O41	0.330600	0.312500	0.091620
O421	O42	0.409600	0.837700	0.684220
N111	N11	0.449700	0.986300	0.778000
N121	N12	0.261500	0.520800	0.637200
C1261	C126	0.399400	0.649400	0.774300
C1271	C127	0.392700	0.586700	0.816800
C1281	C128	0.329600	0.530800	0.812900
H961	H96	0.290900	0.535200	0.782800
C1291	C129	0.321400	0.468800	0.851500
C1301	C130	0.250800	0.410400	0.842500
C1311	C131	0.379200	0.460600	0.897400
C1321	C132	0.441200	0.518300	0.901200
H971	H97	0.479700	0.517100	0.931400
C1331	C133	0.448800	0.577100	0.862400
H981	H98	0.492500	0.611600	0.866600
C1341	C134	0.374500	0.398600	0.941100
C1351	C135	0.317900	0.428400	0.953600
H991	H99	0.281600	0.481400	0.933500
C1361	C136	0.316000	0.377800	0.996700
H1001	H100	0.278200	0.397600	0.005000
C1371	C137	0.370100	0.297900	0.027700
C1381	C138	0.371100	0.255300	0.076100
C1391	C139	0.422900	0.266400	0.013400
H1011	H101	0.458400	0.210900	0.032900
C1401	C140	0.425900	0.314500	0.970100
H1021	H102	0.462400	0.289900	0.961000
C1411	C141	0.427200	0.092600	0.756800
H1031	H103	0.434400	0.112800	0.728600
C1421	C142	0.388900	0.187500	0.776000
H1041	H104	0.374700	0.267900	0.761900
C1431	C143	0.377600	0.148700	0.813300
H1051	H105	0.352000	0.201900	0.825300
C1441	C144	0.399000	0.044000	0.834500
H1061	H106	0.393100	0.021200	0.863000
C1451	C145	0.431500	0.964500	0.813500
H1071	H107	0.441800	0.882700	0.827000
C1461	C146	0.207500	0.530500	0.594300
H1081	H108	0.199500	0.607400	0.577100
C1471	C147	0.161700	0.426300	0.574200
H1091	H109	0.124500	0.432500	0.543500
C1481	C148	0.173500	0.314400	0.601400
H1101	H110	0.141700	0.246500	0.590600
C1491	C149	0.230600	0.305100	0.643000
H1111	H111	0.242600	0.228000	0.660000
C1501	C150	0.271200	0.411600	0.660000
H1121	H112	0.309000	0.405800	0.690500
H1131	H113	0.417000	0.832000	0.657700
H1141	H114	0.377000	0.891000	0.684000
Co71	Co7	0.165140	0.174170	0.837020
O431	O43	0.040200	0.194700	0.719250
O441	O44	0.155200	0.155900	0.765130
O451	O45	0.302200	0.982500	0.672800
O461	O46	0.249600	0.791200	0.648930
O471	O47	0.085000	0.670800	0.401000
O481	O48	0.169400	0.812500	0.408380
O491	O49	0.090400	0.337700	0.815780
N131	N13	0.050300	0.486300	0.722000
N141	N14	0.238500	0.020800	0.862800
C1511	C151	0.100600	0.149400	0.725700
C1521	C152	0.107300	0.086700	0.683200
C1531	C153	0.170400	0.030800	0.687100
H1151	H115	0.209100	0.035200	0.717200
C1541	C154	0.178600	0.968800	0.648500
C1551	C155	0.249200	0.910400	0.657500
C1561	C156	0.120800	0.960600	0.602600
C1571	C157	0.058800	0.018300	0.598800
H1161	H116	0.020300	0.017100	0.568600
C1581	C158	0.051200	0.077100	0.637600
H1171	H117	0.007500	0.111600	0.633400
C1591	C159	0.125500	0.898600	0.558900
C1601	C160	0.182100	0.928400	0.546400
H1181	H118	0.218400	0.981400	0.566500
C1611	C161	0.184000	0.877800	0.503300
H1191	H119	0.221800	0.897600	0.495000
C1621	C162	0.129900	0.797900	0.472300
C1631	C163	0.128900	0.755300	0.423900
C1641	C164	0.077100	0.766400	0.486600
H1201	H120	0.041600	0.710900	0.467100
C1651	C165	0.074100	0.814500	0.529900
H1211	H121	0.037600	0.789900	0.539000
C1661	C166	0.072800	0.592600	0.743200
H1221	H122	0.065600	0.612800	0.771400
C1671	C167	0.111100	0.687500	0.724000
H1231	H123	0.125300	0.767900	0.738100
C1681	C168	0.122400	0.648700	0.686700
H1241	H124	0.148000	0.701900	0.674700
C1691	C169	0.101000	0.544000	0.665500
H1251	H125	0.106900	0.521200	0.637000
C1701	C170	0.068500	0.464500	0.686500
H1261	H126	0.058200	0.382700	0.673000
C1711	C171	0.292500	0.030500	0.905700
H1271	H127	0.300500	0.107400	0.922900
C1721	C172	0.338300	0.926300	0.925800
H1281	H128	0.375500	0.932500	0.956500
C1731	C173	0.326500	0.814400	0.898600
H1291	H129	0.358300	0.746500	0.909400
C1741	C174	0.269400	0.805100	0.857000
H1301	H130	0.257400	0.728000	0.840000
C1751	C175	0.228800	0.911600	0.840000
H1311	H131	0.191000	0.905800	0.809500
H1321	H132	0.083000	0.332000	0.842300
H1331	H133	0.123000	0.391000	0.816000
Co81	Co8	0.665140	0.674170	0.837020
O501	O50	0.540200	0.694700	0.719250
O511	O51	0.655200	0.655900	0.765130
O521	O52	0.802200	0.482500	0.672800
O531	O53	0.749600	0.291200	0.648930
O541	O54	0.585000	0.170800	0.401000
O551	O55	0.669400	0.312500	0.408380
O561	O56	0.590400	0.837700	0.815780
N151	N15	0.550300	0.986300	0.722000
N161	N16	0.738500	0.520800	0.862800
C1761	C176	0.600600	0.649400	0.725700
C1771	C177	0.607300	0.586700	0.683200
C1781	C178	0.670400	0.530800	0.687100
H1341	H134	0.709100	0.535200	0.717200
C1791	C179	0.678600	0.468800	0.648500
C1801	C180	0.749200	0.410400	0.657500
C1811	C181	0.620800	0.460600	0.602600
C1821	C182	0.558800	0.518300	0.598800
H1351	H135	0.520300	0.517100	0.568600
C1831	C183	0.551200	0.577100	0.637600
H1361	H136	0.507500	0.611600	0.633400
C1841	C184	0.625500	0.398600	0.558900
C1851	C185	0.682100	0.428400	0.546400
H1371	H137	0.718400	0.481400	0.566500
C1861	C186	0.684000	0.377800	0.503300
H1381	H138	0.721800	0.397600	0.495000
C1871	C187	0.629900	0.297900	0.472300
C1881	C188	0.628900	0.255300	0.423900
C1891	C189	0.577100	0.266400	0.486600
H1391	H139	0.541600	0.210900	0.467100
C1901	C190	0.574100	0.314500	0.529900
H1401	H140	0.537600	0.289900	0.539000
C1911	C191	0.572800	0.092600	0.743200
H1411	H141	0.565600	0.112800	0.771400
C1921	C192	0.611100	0.187500	0.724000
H1421	H142	0.625300	0.267900	0.738100
C1931	C193	0.622400	0.148700	0.686700
H1431	H143	0.648000	0.201900	0.674700
C1941	C194	0.601000	0.044000	0.665500
H1441	H144	0.606900	0.021200	0.637000
C1951	C195	0.568500	0.964500	0.686500
H1451	H145	0.558200	0.882700	0.673000
C1961	C196	0.792500	0.530500	0.905700
H1461	H146	0.800500	0.607400	0.922900
C1971	C197	0.838300	0.426300	0.925800
H1471	H147	0.875500	0.432500	0.956500
C1981	C198	0.826500	0.314400	0.898600
H1481	H148	0.858300	0.246500	0.909400
C1991	C199	0.769400	0.305100	0.857000
H1491	H149	0.757400	0.228000	0.840000
C2001	C200	0.728800	0.411600	0.840000
H1501	H150	0.691000	0.405800	0.809500
H1511	H151	0.583000	0.832000	0.842300
H1521	H152	0.623000	0.891000	0.816000
Co91	Co9	0.000000	0.659270	0.250000
Co101	Co10	0.500000	0.159270	0.250000
Co111	Co11	0.000000	0.340730	0.750000
Co121	Co12	0.500000	0.840730	0.750000
