data_FAKLOU_clean_PM
_symmetry_space_group_name_H-M	'P1'
_cell_length_a	10.881800
_cell_length_b	12.951500
_cell_length_c	12.951500
_cell_angle_alpha	120.000000
_cell_angle_beta	90.000000
_cell_angle_gamma	90.000000
_symmetry_Int_Tables_number 1

loop_
_symmetry_equiv_pos_as_xyz
'x,y,z'

loop_
_atom_site_label
_atom_site_type_symbol
_atom_site_fract_x
_atom_site_fract_y
_atom_site_fract_z
Cd11	Cd1	0.500000	0.666670	0.333340
Cd21	Cd2	0.500000	0.333330	0.666660
H11	H1	0.897300	0.566600	0.178900
H21	H2	0.897300	0.612300	0.433400
H31	H3	0.897300	0.821100	0.387700
H41	H4	0.102700	0.612300	0.178900
H51	H5	0.102700	0.821100	0.433400
H61	H6	0.102700	0.566600	0.387700
H71	H7	0.102700	0.433400	0.821100
H81	H8	0.102700	0.387700	0.566600
H91	H9	0.102700	0.178900	0.612300
H101	H10	0.897300	0.387700	0.821100
H111	H11	0.897300	0.178900	0.566600
H121	H12	0.897300	0.433400	0.612300
C11	C1	0.938500	0.538600	0.104900
C21	C2	0.678000	0.484400	0.106100
C31	C3	0.938500	0.566300	0.461400
C41	C4	0.678000	0.621700	0.515600
C51	C5	0.938500	0.895100	0.433700
C61	C6	0.678000	0.893900	0.378300
C71	C7	0.061500	0.566300	0.104900
C81	C8	0.322000	0.621700	0.106100
C91	C9	0.061500	0.895100	0.461400
C101	C10	0.322000	0.893900	0.515600
C111	C11	0.061500	0.538600	0.433700
C121	C12	0.322000	0.484400	0.378300
C131	C13	0.061500	0.461400	0.895100
C141	C14	0.322000	0.515600	0.893900
C151	C15	0.061500	0.433700	0.538600
C161	C16	0.322000	0.378300	0.484400
C171	C17	0.061500	0.104900	0.566300
C181	C18	0.322000	0.106100	0.621700
C191	C19	0.938500	0.433700	0.895100
C201	C20	0.678000	0.378300	0.893900
C211	C21	0.938500	0.104900	0.538600
C221	C22	0.678000	0.106100	0.484400
C231	C23	0.938500	0.461400	0.566300
C241	C24	0.678000	0.515600	0.621700
C251	C25	0.743600	0.441900	0.000000
C261	C26	0.874200	0.471300	0.000000
C271	C27	0.743600	0.558100	0.558100
C281	C28	0.874200	0.528700	0.528700
C291	C29	0.743600	0.000000	0.441900
C301	C30	0.874200	0.000000	0.471300
C311	C31	0.256400	0.558100	0.000000
C321	C32	0.125800	0.528700	0.000000
C331	C33	0.256400	0.000000	0.558100
C341	C34	0.125800	0.000000	0.528700
C351	C35	0.256400	0.441900	0.441900
C361	C36	0.125800	0.471300	0.471300
N11	N1	0.624200	0.518000	0.192000
N21	N2	0.624200	0.674000	0.482000
N31	N3	0.624200	0.808000	0.326000
N41	N4	0.375800	0.674000	0.192000
N51	N5	0.375800	0.808000	0.482000
N61	N6	0.375800	0.518000	0.326000
N71	N7	0.375800	0.482000	0.808000
N81	N8	0.375800	0.326000	0.518000
N91	N9	0.375800	0.192000	0.674000
N101	N10	0.624200	0.326000	0.808000
N111	N11	0.624200	0.192000	0.518000
N121	N12	0.624200	0.482000	0.674000
