data_FALDAA_clean_PM
_symmetry_space_group_name_H-M	'P1'
_cell_length_a	9.366300
_cell_length_b	34.927600
_cell_length_c	17.186200
_cell_angle_alpha	90.000000
_cell_angle_beta	99.356000
_cell_angle_gamma	90.000000
_symmetry_Int_Tables_number 1

loop_
_symmetry_equiv_pos_as_xyz
'x,y,z'

loop_
_atom_site_label
_atom_site_type_symbol
_atom_site_fract_x
_atom_site_fract_y
_atom_site_fract_z
C11	C1	0.329400	0.017980	0.546900
C21	C2	0.237700	0.994750	0.493900
C31	C3	0.129300	0.011240	0.438700
C41	C4	0.113200	0.050680	0.436300
C51	C5	0.199800	0.073230	0.491200
C61	C6	0.305100	0.057020	0.548000
C71	C7	0.392800	0.082700	0.611500
H11	H1	0.449800	0.066900	0.650500
H21	H2	0.327700	0.098000	0.636100
H31	H3	0.455400	0.099100	0.587400
C81	C8	0.453200	0.000010	0.601400
H41	H4	0.495800	0.979500	0.574800
H51	H5	0.527400	0.018900	0.618800
C91	C9	0.260900	0.950990	0.497000
H61	H6	0.332300	0.944600	0.541800
H71	H7	0.293600	0.942700	0.449600
H81	H8	0.171300	0.938500	0.501500
C101	C10	0.028900	0.985510	0.384400
H91	H9	0.988700	0.965700	0.414000
H101	H10	0.950100	0.000100	0.354800
C111	C11	0.996200	0.069390	0.374800
H111	H11	0.982100	0.095500	0.389600
H121	H12	0.907000	0.055500	0.372400
H131	H13	0.026400	0.068900	0.324000
C121	C12	0.179500	0.116950	0.488700
H141	H14	0.265200	0.130500	0.514000
H151	H15	0.150200	0.126500	0.435500
C131	C13	0.477900	0.959890	0.715600
C141	C14	0.412900	0.940200	0.770200
H161	H16	0.316100	0.944600	0.773400
C151	C15	0.491300	0.914070	0.819800
H171	H17	0.448400	0.902000	0.858400
C161	C16	0.633800	0.905500	0.813000
C171	C17	0.695900	0.924560	0.759200
H181	H18	0.790900	0.918800	0.754200
C181	C18	0.621400	0.952840	0.710200
H191	H19	0.667500	0.966500	0.675000
C191	C19	0.716500	0.876440	0.864300
C201	C20	0.055800	0.941470	0.279700
C211	C21	0.149300	0.922580	0.237700
H201	H20	0.247800	0.928100	0.247100
C221	C22	0.095200	0.895450	0.181500
H211	H21	0.157700	0.882700	0.153500
C231	C23	0.947700	0.887280	0.167100
C241	C24	0.857200	0.905840	0.211900
H221	H22	0.759200	0.899900	0.204200
C251	C25	0.911500	0.933070	0.267700
H231	H23	0.850000	0.945500	0.296800
C261	C26	0.884800	0.859970	0.102800
C271	C27	0.008600	0.155470	0.552200
C281	C28	0.918900	0.158910	0.607900
H241	H24	0.907900	0.138600	0.641400
C291	C29	0.845100	0.192950	0.613600
H251	H25	0.783800	0.195300	0.650800
C301	C30	0.861600	0.223520	0.564100
C311	C31	0.960900	0.220800	0.515300
H261	H26	0.978900	0.242000	0.485500
C321	C32	0.036100	0.187320	0.508700
H271	H27	0.104800	0.186100	0.475300
C331	C33	0.772600	0.258570	0.568100
C341	C34	0.246200	0.814990	0.971300
H281	H28	0.244600	0.814200	0.025300
C351	C35	0.174400	0.816570	0.845900
C361	C36	0.100100	0.819630	0.767300
H291	H29	0.999800	0.821700	0.756900
C371	C37	0.180900	0.819520	0.706100
H301	H30	0.133600	0.820700	0.654200
C381	C38	0.336900	0.817530	0.722000
H311	H31	0.389200	0.817700	0.680400
C391	C39	0.409200	0.815330	0.799300
H321	H32	0.509500	0.813400	0.810400
C401	C40	0.326300	0.816110	0.859500
Cd11	Cd1	0.570870	0.831990	0.014670
Cd21	Cd2	0.903220	0.820660	0.940280
N11	N1	0.370300	0.815100	0.940630
N21	N2	0.124100	0.816050	0.916800
O11	O1	0.670500	0.865770	0.924750
O21	O2	0.832000	0.864500	0.847920
O31	O3	0.392700	0.984910	0.669200
O41	O4	0.966800	0.849610	0.057010
O51	O5	0.758700	0.849390	0.103200
O61	O6	0.121100	0.968550	0.330980
O71	O7	0.775600	0.283690	0.515480
O81	O8	0.694800	0.262330	0.618750
O91	O9	0.058900	0.118380	0.536460
C411	C41	0.170600	0.517980	0.953100
C421	C42	0.262300	0.494750	0.006100
C431	C43	0.370700	0.511240	0.061300
C441	C44	0.386800	0.550680	0.063700
C451	C45	0.300200	0.573230	0.008800
C461	C46	0.194900	0.557020	0.952000
C471	C47	0.107200	0.582700	0.888500
H331	H33	0.050200	0.566900	0.849500
H341	H34	0.172300	0.598000	0.863900
H351	H35	0.044600	0.599100	0.912600
C481	C48	0.046800	0.500010	0.898600
H361	H36	0.004200	0.479500	0.925200
H371	H37	0.972600	0.518900	0.881200
C491	C49	0.239100	0.450990	0.003000
H381	H38	0.167700	0.444600	0.958200
H391	H39	0.206400	0.442700	0.050400
H401	H40	0.328700	0.438500	0.998500
C501	C50	0.471100	0.485510	0.115600
H411	H41	0.511300	0.465700	0.086000
H421	H42	0.549900	0.500100	0.145200
C511	C51	0.503800	0.569390	0.125200
H431	H43	0.517900	0.595500	0.110400
H441	H44	0.593000	0.555500	0.127600
H451	H45	0.473600	0.568900	0.176000
C521	C52	0.320500	0.616950	0.011300
H461	H46	0.234800	0.630500	0.986000
H471	H47	0.349800	0.626500	0.064500
C531	C53	0.022100	0.459890	0.784400
C541	C54	0.087100	0.440200	0.729800
H481	H48	0.183900	0.444600	0.726600
C551	C55	0.008700	0.414070	0.680200
H491	H49	0.051600	0.402000	0.641600
C561	C56	0.866200	0.405500	0.687000
C571	C57	0.804100	0.424560	0.740800
H501	H50	0.709100	0.418800	0.745800
C581	C58	0.878600	0.452840	0.789800
H511	H51	0.832500	0.466500	0.825000
C591	C59	0.783500	0.376440	0.635700
C601	C60	0.444200	0.441470	0.220300
C611	C61	0.350700	0.422580	0.262300
H521	H52	0.252200	0.428100	0.252900
C621	C62	0.404800	0.395450	0.318500
H531	H53	0.342300	0.382700	0.346500
C631	C63	0.552300	0.387280	0.332900
C641	C64	0.642800	0.405840	0.288100
H541	H54	0.740800	0.399900	0.295800
C651	C65	0.588500	0.433070	0.232300
H551	H55	0.650000	0.445500	0.203200
C661	C66	0.615200	0.359970	0.397200
C671	C67	0.491400	0.655470	0.947800
C681	C68	0.581100	0.658910	0.892100
H561	H56	0.592100	0.638600	0.858600
C691	C69	0.654900	0.692950	0.886400
H571	H57	0.716200	0.695300	0.849200
C701	C70	0.638400	0.723520	0.935900
C711	C71	0.539100	0.720800	0.984700
H581	H58	0.521100	0.742000	0.014500
C721	C72	0.463900	0.687320	0.991300
H591	H59	0.395200	0.686100	0.024700
C731	C73	0.727400	0.758570	0.931900
C741	C74	0.253800	0.314990	0.528700
H601	H60	0.255400	0.314200	0.474700
C751	C75	0.325600	0.316570	0.654100
C761	C76	0.399900	0.319630	0.732700
H611	H61	0.500200	0.321700	0.743100
C771	C77	0.319100	0.319520	0.793900
H621	H62	0.366400	0.320700	0.845800
C781	C78	0.163100	0.317530	0.778000
H631	H63	0.110800	0.317700	0.819600
C791	C79	0.090800	0.315330	0.700700
H641	H64	0.990500	0.313400	0.689600
C801	C80	0.173700	0.316110	0.640500
Cd31	Cd3	0.929130	0.331990	0.485330
Cd41	Cd4	0.596780	0.320660	0.559720
N31	N3	0.129700	0.315100	0.559370
N41	N4	0.375900	0.316050	0.583200
O101	O10	0.829500	0.365770	0.575250
O111	O11	0.668000	0.364500	0.652080
O121	O12	0.107300	0.484910	0.830800
O131	O13	0.533200	0.349610	0.442990
O141	O14	0.741300	0.349390	0.396800
O151	O15	0.378900	0.468550	0.169020
O161	O16	0.724400	0.783690	0.984520
O171	O17	0.805200	0.762330	0.881250
O181	O18	0.441100	0.618380	0.963540
C811	C81	0.670600	0.982020	0.453100
C821	C82	0.762300	0.005250	0.506100
C831	C83	0.870700	0.988760	0.561300
C841	C84	0.886800	0.949320	0.563700
C851	C85	0.800200	0.926770	0.508800
C861	C86	0.694900	0.942980	0.452000
C871	C87	0.607200	0.917300	0.388500
H651	H65	0.550200	0.933100	0.349500
H661	H66	0.672300	0.902000	0.363900
H671	H67	0.544600	0.900900	0.412600
C881	C88	0.546800	0.999990	0.398600
H681	H68	0.504200	0.020500	0.425200
H691	H69	0.472600	0.981100	0.381200
C891	C89	0.739100	0.049010	0.503000
H701	H70	0.667700	0.055400	0.458200
H711	H71	0.706400	0.057300	0.550400
H721	H72	0.828700	0.061500	0.498500
C901	C90	0.971100	0.014490	0.615600
H731	H73	0.011300	0.034300	0.586000
H741	H74	0.049900	0.999900	0.645200
C911	C91	0.003800	0.930610	0.625200
H751	H75	0.017900	0.904500	0.610400
H761	H76	0.093000	0.944500	0.627600
H771	H77	0.973600	0.931100	0.676000
C921	C92	0.820500	0.883050	0.511300
H781	H78	0.734800	0.869500	0.486000
H791	H79	0.849800	0.873500	0.564500
C931	C93	0.522100	0.040110	0.284400
C941	C94	0.587100	0.059800	0.229800
H801	H80	0.683900	0.055400	0.226600
C951	C95	0.508700	0.085930	0.180200
H811	H81	0.551600	0.098000	0.141600
C961	C96	0.366200	0.094500	0.187000
C971	C97	0.304100	0.075440	0.240800
H821	H82	0.209100	0.081200	0.245800
C981	C98	0.378600	0.047160	0.289800
H831	H83	0.332500	0.033500	0.325000
C991	C99	0.283500	0.123560	0.135700
C1001	C100	0.944200	0.058530	0.720300
C1011	C101	0.850700	0.077420	0.762300
H841	H84	0.752200	0.071900	0.752900
C1021	C102	0.904800	0.104550	0.818500
H851	H85	0.842300	0.117300	0.846500
C1031	C103	0.052300	0.112720	0.832900
C1041	C104	0.142800	0.094160	0.788100
H861	H86	0.240800	0.100100	0.795800
C1051	C105	0.088500	0.066930	0.732300
H871	H87	0.150000	0.054500	0.703200
C1061	C106	0.115200	0.140030	0.897200
C1071	C107	0.991400	0.844530	0.447800
C1081	C108	0.081100	0.841090	0.392100
H881	H88	0.092100	0.861400	0.358600
C1091	C109	0.154900	0.807050	0.386400
H891	H89	0.216200	0.804700	0.349200
C1101	C110	0.138400	0.776480	0.435900
C1111	C111	0.039100	0.779200	0.484700
H901	H90	0.021100	0.758000	0.514500
C1121	C112	0.963900	0.812680	0.491300
H911	H91	0.895200	0.813900	0.524700
C1131	C113	0.227400	0.741430	0.431900
C1141	C114	0.753800	0.185010	0.028700
H921	H92	0.755400	0.185800	0.974700
C1151	C115	0.825600	0.183430	0.154100
C1161	C116	0.899900	0.180370	0.232700
H931	H93	0.000200	0.178300	0.243100
C1171	C117	0.819100	0.180480	0.293900
H941	H94	0.866400	0.179300	0.345800
C1181	C118	0.663100	0.182470	0.278000
H951	H95	0.610800	0.182300	0.319600
C1191	C119	0.590800	0.184670	0.200700
H961	H96	0.490500	0.186600	0.189600
C1201	C120	0.673700	0.183890	0.140500
Cd51	Cd5	0.429130	0.168010	0.985330
Cd61	Cd6	0.096780	0.179340	0.059720
N51	N5	0.629700	0.184900	0.059370
N61	N6	0.875900	0.183950	0.083200
O191	O19	0.329500	0.134230	0.075250
O201	O20	0.168000	0.135500	0.152080
O211	O21	0.607300	0.015090	0.330800
O221	O22	0.033200	0.150390	0.942990
O231	O23	0.241300	0.150610	0.896800
O241	O24	0.878900	0.031450	0.669020
O251	O25	0.224400	0.716310	0.484520
O261	O26	0.305200	0.737670	0.381250
O271	O27	0.941100	0.881620	0.463540
C1211	C121	0.829400	0.482020	0.046900
C1221	C122	0.737700	0.505250	0.993900
C1231	C123	0.629300	0.488760	0.938700
C1241	C124	0.613200	0.449320	0.936300
C1251	C125	0.699800	0.426770	0.991200
C1261	C126	0.805100	0.442980	0.048000
C1271	C127	0.892800	0.417300	0.111500
H971	H97	0.949800	0.433100	0.150500
H981	H98	0.827700	0.402000	0.136100
H991	H99	0.955400	0.400900	0.087400
C1281	C128	0.953200	0.499990	0.101400
H1001	H100	0.995800	0.520500	0.074800
H1011	H101	0.027400	0.481100	0.118800
C1291	C129	0.760900	0.549010	0.997000
H1021	H102	0.832300	0.555400	0.041800
H1031	H103	0.793600	0.557300	0.949600
H1041	H104	0.671300	0.561500	0.001500
C1301	C130	0.528900	0.514490	0.884400
H1051	H105	0.488700	0.534300	0.914000
H1061	H106	0.450100	0.499900	0.854800
C1311	C131	0.496200	0.430610	0.874800
H1071	H107	0.482100	0.404500	0.889600
H1081	H108	0.407000	0.444500	0.872400
H1091	H109	0.526400	0.431100	0.824000
C1321	C132	0.679500	0.383050	0.988700
H1101	H110	0.765200	0.369500	0.014000
H1111	H111	0.650200	0.373500	0.935500
C1331	C133	0.977900	0.540110	0.215600
C1341	C134	0.912900	0.559800	0.270200
H1121	H112	0.816100	0.555400	0.273400
C1351	C135	0.991300	0.585930	0.319800
H1131	H113	0.948400	0.598000	0.358400
C1361	C136	0.133800	0.594500	0.313000
C1371	C137	0.195900	0.575440	0.259200
H1141	H114	0.290900	0.581200	0.254200
C1381	C138	0.121400	0.547160	0.210200
H1151	H115	0.167500	0.533500	0.175000
C1391	C139	0.216500	0.623560	0.364300
C1401	C140	0.555800	0.558530	0.779700
C1411	C141	0.649300	0.577420	0.737700
H1161	H116	0.747800	0.571900	0.747100
C1421	C142	0.595200	0.604550	0.681500
H1171	H117	0.657700	0.617300	0.653500
C1431	C143	0.447700	0.612720	0.667100
C1441	C144	0.357200	0.594160	0.711900
H1181	H118	0.259200	0.600100	0.704200
C1451	C145	0.411500	0.566930	0.767700
H1191	H119	0.350000	0.554500	0.796800
C1461	C146	0.384800	0.640030	0.602800
C1471	C147	0.508600	0.344530	0.052200
C1481	C148	0.418900	0.341090	0.107900
H1201	H120	0.407900	0.361400	0.141400
C1491	C149	0.345100	0.307050	0.113600
H1211	H121	0.283800	0.304700	0.150800
C1501	C150	0.361600	0.276480	0.064100
C1511	C151	0.460900	0.279200	0.015300
H1221	H122	0.478900	0.258000	0.985500
C1521	C152	0.536100	0.312680	0.008700
H1231	H123	0.604800	0.313900	0.975300
C1531	C153	0.272600	0.241430	0.068100
C1541	C154	0.746200	0.685010	0.471300
H1241	H124	0.744600	0.685800	0.525300
C1551	C155	0.674400	0.683430	0.345900
C1561	C156	0.600100	0.680370	0.267300
H1251	H125	0.499800	0.678300	0.256900
C1571	C157	0.680900	0.680480	0.206100
H1261	H126	0.633600	0.679300	0.154200
C1581	C158	0.836900	0.682470	0.222000
H1271	H127	0.889200	0.682300	0.180400
C1591	C159	0.909200	0.684670	0.299300
H1281	H128	0.009500	0.686600	0.310400
C1601	C160	0.826300	0.683890	0.359500
Cd71	Cd7	0.070870	0.668010	0.514670
Cd81	Cd8	0.403220	0.679340	0.440280
N71	N7	0.870300	0.684900	0.440630
N81	N8	0.624100	0.683950	0.416800
O281	O28	0.170500	0.634230	0.424750
O291	O29	0.332000	0.635500	0.347920
O301	O30	0.892700	0.515090	0.169200
O311	O31	0.466800	0.650390	0.557010
O321	O32	0.258700	0.650610	0.603200
O331	O33	0.621100	0.531450	0.830980
O341	O34	0.275600	0.216310	0.015480
O351	O35	0.194800	0.237670	0.118750
O361	O36	0.558900	0.381620	0.036460
