data_FALLOT_clean_PM
_symmetry_space_group_name_H-M	'P1'
_cell_length_a	15.591000
_cell_length_b	15.241000
_cell_length_c	12.126000
_cell_angle_alpha	90.000000
_cell_angle_beta	90.000000
_cell_angle_gamma	90.000000
_symmetry_Int_Tables_number 1

loop_
_symmetry_equiv_pos_as_xyz
'x,y,z'

loop_
_atom_site_label
_atom_site_type_symbol
_atom_site_fract_x
_atom_site_fract_y
_atom_site_fract_z
W11	W1	0.015240	0.018100	0.098420
Cu11	Cu1	0.146600	0.987500	0.237000
Cu21	Cu2	0.109400	0.152600	0.025200
Cu31	Cu3	0.882000	0.070900	0.967000
Cu41	Cu4	0.911400	0.888400	0.172000
S11	S1	0.969800	0.156400	0.078900
S21	S2	0.152900	0.011200	0.049200
S31	S3	0.002100	0.974500	0.273700
S41	S4	0.937000	0.930600	0.991300
S51	S5	0.243900	0.416300	0.958900
S61	S6	0.884200	0.103700	0.779100
S71	S7	0.194700	0.108600	0.351400
S81	S8	0.400000	0.837300	0.306300
N11	N1	0.234800	0.907100	0.284000
C11	C1	0.302900	0.878000	0.293000
N21	N2	0.178700	0.257000	0.033000
C21	C2	0.208500	0.324200	0.006000
N31	N3	0.094000	0.256000	0.319000
C31	C3	0.136000	0.193200	0.332000
N41	N4	0.711300	0.088000	0.721000
C41	C4	0.781400	0.093000	0.749000
W21	W2	0.484760	0.981900	0.598420
Cu51	Cu5	0.353400	0.012500	0.737000
Cu61	Cu6	0.390600	0.847400	0.525200
Cu71	Cu7	0.618000	0.929100	0.467000
Cu81	Cu8	0.588600	0.111600	0.672000
S91	S9	0.530200	0.843600	0.578900
S101	S10	0.347100	0.988800	0.549200
S111	S11	0.497900	0.025500	0.773700
S121	S12	0.563000	0.069400	0.491300
S131	S13	0.256100	0.583700	0.458900
S141	S14	0.615800	0.896300	0.279100
S151	S15	0.305300	0.891400	0.851400
S161	S16	0.100000	0.162700	0.806300
N51	N5	0.265200	0.092900	0.784000
C51	C5	0.197100	0.122000	0.793000
N61	N6	0.321300	0.743000	0.533000
C61	C6	0.291500	0.675800	0.506000
N71	N7	0.406000	0.744000	0.819000
C71	C7	0.364000	0.806800	0.832000
N81	N8	0.788700	0.912000	0.221000
C81	C8	0.718600	0.907000	0.249000
W31	W3	0.984760	0.518100	0.401580
Cu91	Cu9	0.853400	0.487500	0.263000
Cu101	Cu10	0.890600	0.652600	0.474800
Cu111	Cu11	0.118000	0.570900	0.533000
Cu121	Cu12	0.088600	0.388400	0.328000
S171	S17	0.030200	0.656400	0.421100
S181	S18	0.847100	0.511200	0.450800
S191	S19	0.997900	0.474500	0.226300
S201	S20	0.063000	0.430600	0.508700
S211	S21	0.756100	0.916300	0.541100
S221	S22	0.115800	0.603700	0.720900
S231	S23	0.805300	0.608600	0.148600
S241	S24	0.600000	0.337300	0.193700
N91	N9	0.765200	0.407100	0.216000
C91	C9	0.697100	0.378000	0.207000
N101	N10	0.821300	0.757000	0.467000
C101	C10	0.791500	0.824200	0.494000
N111	N11	0.906000	0.756000	0.181000
C111	C11	0.864000	0.693200	0.168000
N121	N12	0.288700	0.588000	0.779000
C121	C12	0.218600	0.593000	0.751000
W41	W4	0.515240	0.481900	0.901580
Cu131	Cu13	0.646600	0.512500	0.763000
Cu141	Cu14	0.609400	0.347400	0.974800
Cu151	Cu15	0.382000	0.429100	0.033000
Cu161	Cu16	0.411400	0.611600	0.828000
S251	S25	0.469800	0.343600	0.921100
S261	S26	0.652900	0.488800	0.950800
S271	S27	0.502100	0.525500	0.726300
S281	S28	0.437000	0.569400	0.008700
S291	S29	0.743900	0.083700	0.041100
S301	S30	0.384200	0.396300	0.220900
S311	S31	0.694700	0.391400	0.648600
S321	S32	0.900000	0.662700	0.693700
N131	N13	0.734800	0.592900	0.716000
C131	C13	0.802900	0.622000	0.707000
N141	N14	0.678700	0.243000	0.967000
C141	C14	0.708500	0.175800	0.994000
N151	N15	0.594000	0.244000	0.681000
C151	C15	0.636000	0.306800	0.668000
N161	N16	0.211300	0.412000	0.279000
C161	C16	0.281400	0.407000	0.251000
