data_FAMQAO_clean_PM
_symmetry_space_group_name_H-M	'P1'
_cell_length_a	18.747100
_cell_length_b	18.747100
_cell_length_c	34.833900
_cell_angle_alpha	90.000000
_cell_angle_beta	90.000000
_cell_angle_gamma	90.000000
_symmetry_Int_Tables_number 1

loop_
_symmetry_equiv_pos_as_xyz
'x,y,z'

loop_
_atom_site_label
_atom_site_type_symbol
_atom_site_fract_x
_atom_site_fract_y
_atom_site_fract_z
C11	C1	0.023000	0.431300	0.034000
C21	C2	0.050800	0.363700	0.034000
H11	H1	0.013600	0.454300	0.057200
C31	C3	0.056200	0.315100	0.070000
O11	O1	0.111000	0.279000	0.075800
N11	N1	0.009000	0.331000	0.096800
H21	H2	0.982000	0.367000	0.092200
C41	C4	0.013900	0.303800	0.140200
C51	C5	0.948500	0.298800	0.160800
C61	C6	0.948900	0.278700	0.200300
C71	C7	0.014700	0.263700	0.219100
C81	C8	0.080100	0.268700	0.198400
C91	C9	0.079700	0.288800	0.159000
H31	H3	0.905600	0.308600	0.148600
H41	H4	0.014900	0.250500	0.244800
H51	H5	0.122400	0.292200	0.145500
C101	C10	0.885100	0.273700	0.220400
O21	O2	0.828100	0.295000	0.205800
O31	O3	0.883600	0.247700	0.253400
C111	C11	0.144300	0.254100	0.216800
O41	O4	0.202300	0.269300	0.201200
O51	O5	0.145000	0.225500	0.249200
Cu11	Cu1	0.794800	0.241900	0.274000
C121	C12	0.977000	0.568700	0.034000
C131	C13	0.949200	0.636300	0.034000
H61	H6	0.986400	0.545700	0.057200
C141	C14	0.943800	0.684900	0.070000
O61	O6	0.889000	0.721000	0.075800
N21	N2	0.991000	0.669000	0.096800
H71	H7	0.018000	0.633000	0.092200
C151	C15	0.986100	0.696200	0.140200
C161	C16	0.051500	0.701200	0.160800
C171	C17	0.051100	0.721300	0.200300
C181	C18	0.985300	0.736300	0.219100
C191	C19	0.919900	0.731300	0.198400
C201	C20	0.920300	0.711200	0.159000
H81	H8	0.094400	0.691400	0.148600
H91	H9	0.985100	0.749500	0.244800
H101	H10	0.877600	0.707800	0.145500
C211	C21	0.114900	0.726300	0.220400
O71	O7	0.171900	0.705000	0.205800
O81	O8	0.116400	0.752300	0.253400
C221	C22	0.855700	0.745900	0.216800
O91	O9	0.797700	0.730700	0.201200
O101	O10	0.855000	0.774500	0.249200
Cu21	Cu2	0.205200	0.758100	0.274000
C231	C23	0.568700	0.023000	0.034000
C241	C24	0.636300	0.050800	0.034000
H111	H11	0.545700	0.013600	0.057200
C251	C25	0.684900	0.056200	0.070000
O111	O11	0.721000	0.111000	0.075800
N31	N3	0.669000	0.009000	0.096800
H121	H12	0.633000	0.982000	0.092200
C261	C26	0.696200	0.013900	0.140200
C271	C27	0.701200	0.948500	0.160800
C281	C28	0.721300	0.948900	0.200300
C291	C29	0.736300	0.014700	0.219100
C301	C30	0.731300	0.080100	0.198400
C311	C31	0.711200	0.079700	0.159000
H131	H13	0.691400	0.905600	0.148600
H141	H14	0.749500	0.014900	0.244800
H151	H15	0.707800	0.122400	0.145500
C321	C32	0.726300	0.885100	0.220400
O121	O12	0.705000	0.828100	0.205800
O131	O13	0.752300	0.883600	0.253400
C331	C33	0.745900	0.144300	0.216800
O141	O14	0.730700	0.202300	0.201200
O151	O15	0.774500	0.145000	0.249200
Cu31	Cu3	0.758100	0.794800	0.274000
C341	C34	0.431300	0.977000	0.034000
C351	C35	0.363700	0.949200	0.034000
H161	H16	0.454300	0.986400	0.057200
C361	C36	0.315100	0.943800	0.070000
O161	O16	0.279000	0.889000	0.075800
N41	N4	0.331000	0.991000	0.096800
H171	H17	0.367000	0.018000	0.092200
C371	C37	0.303800	0.986100	0.140200
C381	C38	0.298800	0.051500	0.160800
C391	C39	0.278700	0.051100	0.200300
C401	C40	0.263700	0.985300	0.219100
C411	C41	0.268700	0.919900	0.198400
C421	C42	0.288800	0.920300	0.159000
H181	H18	0.308600	0.094400	0.148600
H191	H19	0.250500	0.985100	0.244800
H201	H20	0.292200	0.877600	0.145500
C431	C43	0.273700	0.114900	0.220400
O171	O17	0.295000	0.171900	0.205800
O181	O18	0.247700	0.116400	0.253400
C441	C44	0.254100	0.855700	0.216800
O191	O19	0.269300	0.797700	0.201200
O201	O20	0.225500	0.855000	0.249200
Cu41	Cu4	0.241900	0.205200	0.274000
C451	C45	0.477000	0.931300	0.466000
C461	C46	0.449200	0.863700	0.466000
H211	H21	0.486400	0.954300	0.442800
C471	C47	0.443800	0.815100	0.430000
O211	O21	0.389000	0.779000	0.424200
N51	N5	0.491000	0.831000	0.403200
H221	H22	0.518000	0.867000	0.407800
C481	C48	0.486100	0.803800	0.359800
C491	C49	0.551500	0.798800	0.339200
C501	C50	0.551100	0.778700	0.299700
C511	C51	0.485300	0.763700	0.280900
C521	C52	0.419900	0.768700	0.301600
C531	C53	0.420300	0.788800	0.341000
H231	H23	0.594400	0.808600	0.351400
H241	H24	0.485100	0.750500	0.255200
H251	H25	0.377600	0.792200	0.354500
C541	C54	0.614900	0.773700	0.279600
O221	O22	0.671900	0.795000	0.294200
O231	O23	0.616400	0.747700	0.246600
C551	C55	0.355700	0.754100	0.283200
O241	O24	0.297700	0.769300	0.298800
O251	O25	0.355000	0.725500	0.250800
Cu51	Cu5	0.705200	0.741900	0.226000
C561	C56	0.523000	0.068700	0.466000
C571	C57	0.550800	0.136300	0.466000
H261	H26	0.513600	0.045700	0.442800
C581	C58	0.556200	0.184900	0.430000
O261	O26	0.611000	0.221000	0.424200
N61	N6	0.509000	0.169000	0.403200
H271	H27	0.482000	0.133000	0.407800
C591	C59	0.513900	0.196200	0.359800
C601	C60	0.448500	0.201200	0.339200
C611	C61	0.448900	0.221300	0.299700
C621	C62	0.514700	0.236300	0.280900
C631	C63	0.580100	0.231300	0.301600
C641	C64	0.579700	0.211200	0.341000
H281	H28	0.405600	0.191400	0.351400
H291	H29	0.514900	0.249500	0.255200
H301	H30	0.622400	0.207800	0.354500
C651	C65	0.385100	0.226300	0.279600
O271	O27	0.328100	0.205000	0.294200
O281	O28	0.383600	0.252300	0.246600
C661	C66	0.644300	0.245900	0.283200
O291	O29	0.702300	0.230700	0.298800
O301	O30	0.645000	0.274500	0.250800
Cu61	Cu6	0.294800	0.258100	0.226000
C671	C67	0.931300	0.523000	0.466000
C681	C68	0.863700	0.550800	0.466000
H311	H31	0.954300	0.513600	0.442800
C691	C69	0.815100	0.556200	0.430000
O311	O31	0.779000	0.611000	0.424200
N71	N7	0.831000	0.509000	0.403200
H321	H32	0.867000	0.482000	0.407800
C701	C70	0.803800	0.513900	0.359800
C711	C71	0.798800	0.448500	0.339200
C721	C72	0.778700	0.448900	0.299700
C731	C73	0.763700	0.514700	0.280900
C741	C74	0.768700	0.580100	0.301600
C751	C75	0.788800	0.579700	0.341000
H331	H33	0.808600	0.405600	0.351400
H341	H34	0.750500	0.514900	0.255200
H351	H35	0.792200	0.622400	0.354500
C761	C76	0.773700	0.385100	0.279600
O321	O32	0.795000	0.328100	0.294200
O331	O33	0.747700	0.383600	0.246600
C771	C77	0.754100	0.644300	0.283200
O341	O34	0.769300	0.702300	0.298800
O351	O35	0.725500	0.645000	0.250800
Cu71	Cu7	0.741900	0.294800	0.226000
C781	C78	0.068700	0.477000	0.466000
C791	C79	0.136300	0.449200	0.466000
H361	H36	0.045700	0.486400	0.442800
C801	C80	0.184900	0.443800	0.430000
O361	O36	0.221000	0.389000	0.424200
N81	N8	0.169000	0.491000	0.403200
H371	H37	0.133000	0.518000	0.407800
C811	C81	0.196200	0.486100	0.359800
C821	C82	0.201200	0.551500	0.339200
C831	C83	0.221300	0.551100	0.299700
C841	C84	0.236300	0.485300	0.280900
C851	C85	0.231300	0.419900	0.301600
C861	C86	0.211200	0.420300	0.341000
H381	H38	0.191400	0.594400	0.351400
H391	H39	0.249500	0.485100	0.255200
H401	H40	0.207800	0.377600	0.354500
C871	C87	0.226300	0.614900	0.279600
O371	O37	0.205000	0.671900	0.294200
O381	O38	0.252300	0.616400	0.246600
C881	C88	0.245900	0.355700	0.283200
O391	O39	0.230700	0.297700	0.298800
O401	O40	0.274500	0.355000	0.250800
Cu81	Cu8	0.258100	0.705200	0.226000
C891	C89	0.977000	0.568700	0.966000
C901	C90	0.949200	0.636300	0.966000
H411	H41	0.986400	0.545700	0.942800
C911	C91	0.943800	0.684900	0.930000
O411	O41	0.889000	0.721000	0.924200
N91	N9	0.991000	0.669000	0.903200
H421	H42	0.018000	0.633000	0.907800
C921	C92	0.986100	0.696200	0.859800
C931	C93	0.051500	0.701200	0.839200
C941	C94	0.051100	0.721300	0.799700
C951	C95	0.985300	0.736300	0.780900
C961	C96	0.919900	0.731300	0.801600
C971	C97	0.920300	0.711200	0.841000
H431	H43	0.094400	0.691400	0.851400
H441	H44	0.985100	0.749500	0.755200
H451	H45	0.877600	0.707800	0.854500
C981	C98	0.114900	0.726300	0.779600
O421	O42	0.171900	0.705000	0.794200
O431	O43	0.116400	0.752300	0.746600
C991	C99	0.855700	0.745900	0.783200
O441	O44	0.797700	0.730700	0.798800
O451	O45	0.855000	0.774500	0.750800
Cu91	Cu9	0.205200	0.758100	0.726000
C1001	C100	0.023000	0.431300	0.966000
C1011	C101	0.050800	0.363700	0.966000
H461	H46	0.013600	0.454300	0.942800
C1021	C102	0.056200	0.315100	0.930000
O461	O46	0.111000	0.279000	0.924200
N101	N10	0.009000	0.331000	0.903200
H471	H47	0.982000	0.367000	0.907800
C1031	C103	0.013900	0.303800	0.859800
C1041	C104	0.948500	0.298800	0.839200
C1051	C105	0.948900	0.278700	0.799700
C1061	C106	0.014700	0.263700	0.780900
C1071	C107	0.080100	0.268700	0.801600
C1081	C108	0.079700	0.288800	0.841000
H481	H48	0.905600	0.308600	0.851400
H491	H49	0.014900	0.250500	0.755200
H501	H50	0.122400	0.292200	0.854500
C1091	C109	0.885100	0.273700	0.779600
O471	O47	0.828100	0.295000	0.794200
O481	O48	0.883600	0.247700	0.746600
C1101	C110	0.144300	0.254100	0.783200
O491	O49	0.202300	0.269300	0.798800
O501	O50	0.145000	0.225500	0.750800
Cu101	Cu10	0.794800	0.241900	0.726000
C1111	C111	0.431300	0.977000	0.966000
C1121	C112	0.363700	0.949200	0.966000
H511	H51	0.454300	0.986400	0.942800
C1131	C113	0.315100	0.943800	0.930000
O511	O51	0.279000	0.889000	0.924200
N111	N11	0.331000	0.991000	0.903200
H521	H52	0.367000	0.018000	0.907800
C1141	C114	0.303800	0.986100	0.859800
C1151	C115	0.298800	0.051500	0.839200
C1161	C116	0.278700	0.051100	0.799700
C1171	C117	0.263700	0.985300	0.780900
C1181	C118	0.268700	0.919900	0.801600
C1191	C119	0.288800	0.920300	0.841000
H531	H53	0.308600	0.094400	0.851400
H541	H54	0.250500	0.985100	0.755200
H551	H55	0.292200	0.877600	0.854500
C1201	C120	0.273700	0.114900	0.779600
O521	O52	0.295000	0.171900	0.794200
O531	O53	0.247700	0.116400	0.746600
C1211	C121	0.254100	0.855700	0.783200
O541	O54	0.269300	0.797700	0.798800
O551	O55	0.225500	0.855000	0.750800
Cu111	Cu11	0.241900	0.205200	0.726000
C1221	C122	0.568700	0.023000	0.966000
C1231	C123	0.636300	0.050800	0.966000
H561	H56	0.545700	0.013600	0.942800
C1241	C124	0.684900	0.056200	0.930000
O561	O56	0.721000	0.111000	0.924200
N121	N12	0.669000	0.009000	0.903200
H571	H57	0.633000	0.982000	0.907800
C1251	C125	0.696200	0.013900	0.859800
C1261	C126	0.701200	0.948500	0.839200
C1271	C127	0.721300	0.948900	0.799700
C1281	C128	0.736300	0.014700	0.780900
C1291	C129	0.731300	0.080100	0.801600
C1301	C130	0.711200	0.079700	0.841000
H581	H58	0.691400	0.905600	0.851400
H591	H59	0.749500	0.014900	0.755200
H601	H60	0.707800	0.122400	0.854500
C1311	C131	0.726300	0.885100	0.779600
O571	O57	0.705000	0.828100	0.794200
O581	O58	0.752300	0.883600	0.746600
C1321	C132	0.745900	0.144300	0.783200
O591	O59	0.730700	0.202300	0.798800
O601	O60	0.774500	0.145000	0.750800
Cu121	Cu12	0.758100	0.794800	0.726000
C1331	C133	0.523000	0.068700	0.534000
C1341	C134	0.550800	0.136300	0.534000
H611	H61	0.513600	0.045700	0.557200
C1351	C135	0.556200	0.184900	0.570000
O611	O61	0.611000	0.221000	0.575800
N131	N13	0.509000	0.169000	0.596800
H621	H62	0.482000	0.133000	0.592200
C1361	C136	0.513900	0.196200	0.640200
C1371	C137	0.448500	0.201200	0.660800
C1381	C138	0.448900	0.221300	0.700300
C1391	C139	0.514700	0.236300	0.719100
C1401	C140	0.580100	0.231300	0.698400
C1411	C141	0.579700	0.211200	0.659000
H631	H63	0.405600	0.191400	0.648600
H641	H64	0.514900	0.249500	0.744800
H651	H65	0.622400	0.207800	0.645500
C1421	C142	0.385100	0.226300	0.720400
O621	O62	0.328100	0.205000	0.705800
O631	O63	0.383600	0.252300	0.753400
C1431	C143	0.644300	0.245900	0.716800
O641	O64	0.702300	0.230700	0.701200
O651	O65	0.645000	0.274500	0.749200
Cu131	Cu13	0.294800	0.258100	0.774000
C1441	C144	0.477000	0.931300	0.534000
C1451	C145	0.449200	0.863700	0.534000
H661	H66	0.486400	0.954300	0.557200
C1461	C146	0.443800	0.815100	0.570000
O661	O66	0.389000	0.779000	0.575800
N141	N14	0.491000	0.831000	0.596800
H671	H67	0.518000	0.867000	0.592200
C1471	C147	0.486100	0.803800	0.640200
C1481	C148	0.551500	0.798800	0.660800
C1491	C149	0.551100	0.778700	0.700300
C1501	C150	0.485300	0.763700	0.719100
C1511	C151	0.419900	0.768700	0.698400
C1521	C152	0.420300	0.788800	0.659000
H681	H68	0.594400	0.808600	0.648600
H691	H69	0.485100	0.750500	0.744800
H701	H70	0.377600	0.792200	0.645500
C1531	C153	0.614900	0.773700	0.720400
O671	O67	0.671900	0.795000	0.705800
O681	O68	0.616400	0.747700	0.753400
C1541	C154	0.355700	0.754100	0.716800
O691	O69	0.297700	0.769300	0.701200
O701	O70	0.355000	0.725500	0.749200
Cu141	Cu14	0.705200	0.741900	0.774000
C1551	C155	0.068700	0.477000	0.534000
C1561	C156	0.136300	0.449200	0.534000
H711	H71	0.045700	0.486400	0.557200
C1571	C157	0.184900	0.443800	0.570000
O711	O71	0.221000	0.389000	0.575800
N151	N15	0.169000	0.491000	0.596800
H721	H72	0.133000	0.518000	0.592200
C1581	C158	0.196200	0.486100	0.640200
C1591	C159	0.201200	0.551500	0.660800
C1601	C160	0.221300	0.551100	0.700300
C1611	C161	0.236300	0.485300	0.719100
C1621	C162	0.231300	0.419900	0.698400
C1631	C163	0.211200	0.420300	0.659000
H731	H73	0.191400	0.594400	0.648600
H741	H74	0.249500	0.485100	0.744800
H751	H75	0.207800	0.377600	0.645500
C1641	C164	0.226300	0.614900	0.720400
O721	O72	0.205000	0.671900	0.705800
O731	O73	0.252300	0.616400	0.753400
C1651	C165	0.245900	0.355700	0.716800
O741	O74	0.230700	0.297700	0.701200
O751	O75	0.274500	0.355000	0.749200
Cu151	Cu15	0.258100	0.705200	0.774000
C1661	C166	0.931300	0.523000	0.534000
C1671	C167	0.863700	0.550800	0.534000
H761	H76	0.954300	0.513600	0.557200
C1681	C168	0.815100	0.556200	0.570000
O761	O76	0.779000	0.611000	0.575800
N161	N16	0.831000	0.509000	0.596800
H771	H77	0.867000	0.482000	0.592200
C1691	C169	0.803800	0.513900	0.640200
C1701	C170	0.798800	0.448500	0.660800
C1711	C171	0.778700	0.448900	0.700300
C1721	C172	0.763700	0.514700	0.719100
C1731	C173	0.768700	0.580100	0.698400
C1741	C174	0.788800	0.579700	0.659000
H781	H78	0.808600	0.405600	0.648600
H791	H79	0.750500	0.514900	0.744800
H801	H80	0.792200	0.622400	0.645500
C1751	C175	0.773700	0.385100	0.720400
O771	O77	0.795000	0.328100	0.705800
O781	O78	0.747700	0.383600	0.753400
C1761	C176	0.754100	0.644300	0.716800
O791	O79	0.769300	0.702300	0.701200
O801	O80	0.725500	0.645000	0.749200
Cu161	Cu16	0.741900	0.294800	0.774000
C1771	C177	0.009200	0.465100	0.000000
C1781	C178	0.064600	0.330000	0.000000
H811	H81	0.083500	0.284100	0.000000
C1791	C179	0.990800	0.534900	0.000000
C1801	C180	0.935400	0.670000	0.000000
H821	H82	0.916500	0.715900	0.000000
C1811	C181	0.534900	0.009200	0.000000
C1821	C182	0.670000	0.064600	0.000000
H831	H83	0.715900	0.083500	0.000000
C1831	C183	0.465100	0.990800	0.000000
C1841	C184	0.330000	0.935400	0.000000
H841	H84	0.284100	0.916500	0.000000
C1851	C185	0.490800	0.965100	0.500000
C1861	C186	0.435400	0.830000	0.500000
H851	H85	0.416500	0.784100	0.500000
C1871	C187	0.509200	0.034900	0.500000
C1881	C188	0.564600	0.170000	0.500000
H861	H86	0.583500	0.215900	0.500000
C1891	C189	0.965100	0.509200	0.500000
C1901	C190	0.830000	0.564600	0.500000
H871	H87	0.784100	0.583500	0.500000
C1911	C191	0.034900	0.490800	0.500000
C1921	C192	0.170000	0.435400	0.500000
H881	H88	0.215900	0.416500	0.500000
