data_FAMQES_clean_PM
_symmetry_space_group_name_H-M	'P1'
_cell_length_a	18.684100
_cell_length_b	18.684100
_cell_length_c	34.679600
_cell_angle_alpha	90.000000
_cell_angle_beta	90.000000
_cell_angle_gamma	90.000000
_symmetry_Int_Tables_number 1

loop_
_symmetry_equiv_pos_as_xyz
'x,y,z'

loop_
_atom_site_label
_atom_site_type_symbol
_atom_site_fract_x
_atom_site_fract_y
_atom_site_fract_z
Cu11	Cu1	0.738010	0.304690	0.221160
O11	O1	0.837000	0.312800	0.201990
O21	O2	0.212400	0.267200	0.196410
O31	O3	0.153800	0.222500	0.247580
O41	O4	0.890630	0.249300	0.249000
C11	C1	0.889400	0.282700	0.216850
C21	C2	0.155600	0.250700	0.214430
C31	C3	0.087600	0.267100	0.194590
C41	C4	0.960100	0.286900	0.195830
C51	C5	0.023000	0.264100	0.214420
H11	H1	0.021400	0.247300	0.239600
C61	C6	0.089100	0.291200	0.156500
H21	H2	0.132400	0.293400	0.143300
C71	C7	0.026200	0.311800	0.138400
C81	C8	0.962000	0.309400	0.158410
H31	H3	0.919800	0.323200	0.146200
C91	C9	0.028400	0.425300	0.034320
H41	H4	0.019800	0.448000	0.057700
C101	C10	0.055700	0.357500	0.034450
O51	O5	0.122100	0.280800	0.075060
C111	C11	0.070400	0.320900	0.071520
N11	N1	0.024000	0.335100	0.099720
H51	H5	0.988300	0.361700	0.093500
Cu21	Cu2	0.261990	0.695310	0.221160
O61	O6	0.163000	0.687200	0.201990
O71	O7	0.787600	0.732800	0.196410
O81	O8	0.846200	0.777500	0.247580
O91	O9	0.109370	0.750700	0.249000
C121	C12	0.110600	0.717300	0.216850
C131	C13	0.844400	0.749300	0.214430
C141	C14	0.912400	0.732900	0.194590
C151	C15	0.039900	0.713100	0.195830
C161	C16	0.977000	0.735900	0.214420
H61	H6	0.978600	0.752700	0.239600
C171	C17	0.910900	0.708800	0.156500
H71	H7	0.867600	0.706600	0.143300
C181	C18	0.973800	0.688200	0.138400
C191	C19	0.038000	0.690600	0.158410
H81	H8	0.080200	0.676800	0.146200
C201	C20	0.971600	0.574700	0.034320
H91	H9	0.980200	0.552000	0.057700
C211	C21	0.944300	0.642500	0.034450
O101	O10	0.877900	0.719200	0.075060
C221	C22	0.929600	0.679100	0.071520
N21	N2	0.976000	0.664900	0.099720
H101	H10	0.011700	0.638300	0.093500
Cu31	Cu3	0.695310	0.738010	0.221160
O111	O11	0.687200	0.837000	0.201990
O121	O12	0.732800	0.212400	0.196410
O131	O13	0.777500	0.153800	0.247580
O141	O14	0.750700	0.890630	0.249000
C231	C23	0.717300	0.889400	0.216850
C241	C24	0.749300	0.155600	0.214430
C251	C25	0.732900	0.087600	0.194590
C261	C26	0.713100	0.960100	0.195830
C271	C27	0.735900	0.023000	0.214420
H111	H11	0.752700	0.021400	0.239600
C281	C28	0.708800	0.089100	0.156500
H121	H12	0.706600	0.132400	0.143300
C291	C29	0.688200	0.026200	0.138400
C301	C30	0.690600	0.962000	0.158410
H131	H13	0.676800	0.919800	0.146200
C311	C31	0.574700	0.028400	0.034320
H141	H14	0.552000	0.019800	0.057700
C321	C32	0.642500	0.055700	0.034450
O151	O15	0.719200	0.122100	0.075060
C331	C33	0.679100	0.070400	0.071520
N31	N3	0.664900	0.024000	0.099720
H151	H15	0.638300	0.988300	0.093500
Cu41	Cu4	0.304690	0.261990	0.221160
O161	O16	0.312800	0.163000	0.201990
O171	O17	0.267200	0.787600	0.196410
O181	O18	0.222500	0.846200	0.247580
O191	O19	0.249300	0.109370	0.249000
C341	C34	0.282700	0.110600	0.216850
C351	C35	0.250700	0.844400	0.214430
C361	C36	0.267100	0.912400	0.194590
C371	C37	0.286900	0.039900	0.195830
C381	C38	0.264100	0.977000	0.214420
H161	H16	0.247300	0.978600	0.239600
C391	C39	0.291200	0.910900	0.156500
H171	H17	0.293400	0.867600	0.143300
C401	C40	0.311800	0.973800	0.138400
C411	C41	0.309400	0.038000	0.158410
H181	H18	0.323200	0.080200	0.146200
C421	C42	0.425300	0.971600	0.034320
H191	H19	0.448000	0.980200	0.057700
C431	C43	0.357500	0.944300	0.034450
O201	O20	0.280800	0.877900	0.075060
C441	C44	0.320900	0.929600	0.071520
N41	N4	0.335100	0.976000	0.099720
H201	H20	0.361700	0.011700	0.093500
Cu51	Cu5	0.761990	0.804690	0.278840
O211	O21	0.663000	0.812800	0.298010
O221	O22	0.287600	0.767200	0.303590
O231	O23	0.346200	0.722500	0.252420
O241	O24	0.609370	0.749300	0.251000
C451	C45	0.610600	0.782700	0.283150
C461	C46	0.344400	0.750700	0.285570
C471	C47	0.412400	0.767100	0.305410
C481	C48	0.539900	0.786900	0.304170
C491	C49	0.477000	0.764100	0.285580
H211	H21	0.478600	0.747300	0.260400
C501	C50	0.410900	0.791200	0.343500
H221	H22	0.367600	0.793400	0.356700
C511	C51	0.473800	0.811800	0.361600
C521	C52	0.538000	0.809400	0.341590
H231	H23	0.580200	0.823200	0.353800
C531	C53	0.471600	0.925300	0.465680
H241	H24	0.480200	0.948000	0.442300
C541	C54	0.444300	0.857500	0.465550
O251	O25	0.377900	0.780800	0.424940
C551	C55	0.429600	0.820900	0.428480
N51	N5	0.476000	0.835100	0.400280
H251	H25	0.511700	0.861700	0.406500
Cu61	Cu6	0.238010	0.195310	0.278840
O261	O26	0.337000	0.187200	0.298010
O271	O27	0.712400	0.232800	0.303590
O281	O28	0.653800	0.277500	0.252420
O291	O29	0.390630	0.250700	0.251000
C561	C56	0.389400	0.217300	0.283150
C571	C57	0.655600	0.249300	0.285570
C581	C58	0.587600	0.232900	0.305410
C591	C59	0.460100	0.213100	0.304170
C601	C60	0.523000	0.235900	0.285580
H261	H26	0.521400	0.252700	0.260400
C611	C61	0.589100	0.208800	0.343500
H271	H27	0.632400	0.206600	0.356700
C621	C62	0.526200	0.188200	0.361600
C631	C63	0.462000	0.190600	0.341590
H281	H28	0.419800	0.176800	0.353800
C641	C64	0.528400	0.074700	0.465680
H291	H29	0.519800	0.052000	0.442300
C651	C65	0.555700	0.142500	0.465550
O301	O30	0.622100	0.219200	0.424940
C661	C66	0.570400	0.179100	0.428480
N61	N6	0.524000	0.164900	0.400280
H301	H30	0.488300	0.138300	0.406500
Cu71	Cu7	0.804690	0.238010	0.278840
O311	O31	0.812800	0.337000	0.298010
O321	O32	0.767200	0.712400	0.303590
O331	O33	0.722500	0.653800	0.252420
O341	O34	0.749300	0.390630	0.251000
C671	C67	0.782700	0.389400	0.283150
C681	C68	0.750700	0.655600	0.285570
C691	C69	0.767100	0.587600	0.305410
C701	C70	0.786900	0.460100	0.304170
C711	C71	0.764100	0.523000	0.285580
H311	H31	0.747300	0.521400	0.260400
C721	C72	0.791200	0.589100	0.343500
H321	H32	0.793400	0.632400	0.356700
C731	C73	0.811800	0.526200	0.361600
C741	C74	0.809400	0.462000	0.341590
H331	H33	0.823200	0.419800	0.353800
C751	C75	0.925300	0.528400	0.465680
H341	H34	0.948000	0.519800	0.442300
C761	C76	0.857500	0.555700	0.465550
O351	O35	0.780800	0.622100	0.424940
C771	C77	0.820900	0.570400	0.428480
N71	N7	0.835100	0.524000	0.400280
H351	H35	0.861700	0.488300	0.406500
Cu81	Cu8	0.195310	0.761990	0.278840
O361	O36	0.187200	0.663000	0.298010
O371	O37	0.232800	0.287600	0.303590
O381	O38	0.277500	0.346200	0.252420
O391	O39	0.250700	0.609370	0.251000
C781	C78	0.217300	0.610600	0.283150
C791	C79	0.249300	0.344400	0.285570
C801	C80	0.232900	0.412400	0.305410
C811	C81	0.213100	0.539900	0.304170
C821	C82	0.235900	0.477000	0.285580
H361	H36	0.252700	0.478600	0.260400
C831	C83	0.208800	0.410900	0.343500
H371	H37	0.206600	0.367600	0.356700
C841	C84	0.188200	0.473800	0.361600
C851	C85	0.190600	0.538000	0.341590
H381	H38	0.176800	0.580200	0.353800
C861	C86	0.074700	0.471600	0.465680
H391	H39	0.052000	0.480200	0.442300
C871	C87	0.142500	0.444300	0.465550
O401	O40	0.219200	0.377900	0.424940
C881	C88	0.179100	0.429600	0.428480
N81	N8	0.164900	0.476000	0.400280
H401	H40	0.138300	0.511700	0.406500
Cu91	Cu9	0.261990	0.695310	0.778840
O411	O41	0.163000	0.687200	0.798010
O421	O42	0.787600	0.732800	0.803590
O431	O43	0.846200	0.777500	0.752420
O441	O44	0.109370	0.750700	0.751000
C891	C89	0.110600	0.717300	0.783150
C901	C90	0.844400	0.749300	0.785570
C911	C91	0.912400	0.732900	0.805410
C921	C92	0.039900	0.713100	0.804170
C931	C93	0.977000	0.735900	0.785580
H411	H41	0.978600	0.752700	0.760400
C941	C94	0.910900	0.708800	0.843500
H421	H42	0.867600	0.706600	0.856700
C951	C95	0.973800	0.688200	0.861600
C961	C96	0.038000	0.690600	0.841590
H431	H43	0.080200	0.676800	0.853800
C971	C97	0.971600	0.574700	0.965680
H441	H44	0.980200	0.552000	0.942300
C981	C98	0.944300	0.642500	0.965550
O451	O45	0.877900	0.719200	0.924940
C991	C99	0.929600	0.679100	0.928480
N91	N9	0.976000	0.664900	0.900280
H451	H45	0.011700	0.638300	0.906500
Cu101	Cu10	0.738010	0.304690	0.778840
O461	O46	0.837000	0.312800	0.798010
O471	O47	0.212400	0.267200	0.803590
O481	O48	0.153800	0.222500	0.752420
O491	O49	0.890630	0.249300	0.751000
C1001	C100	0.889400	0.282700	0.783150
C1011	C101	0.155600	0.250700	0.785570
C1021	C102	0.087600	0.267100	0.805410
C1031	C103	0.960100	0.286900	0.804170
C1041	C104	0.023000	0.264100	0.785580
H461	H46	0.021400	0.247300	0.760400
C1051	C105	0.089100	0.291200	0.843500
H471	H47	0.132400	0.293400	0.856700
C1061	C106	0.026200	0.311800	0.861600
C1071	C107	0.962000	0.309400	0.841590
H481	H48	0.919800	0.323200	0.853800
C1081	C108	0.028400	0.425300	0.965680
H491	H49	0.019800	0.448000	0.942300
C1091	C109	0.055700	0.357500	0.965550
O501	O50	0.122100	0.280800	0.924940
C1101	C110	0.070400	0.320900	0.928480
N101	N10	0.024000	0.335100	0.900280
H501	H50	0.988300	0.361700	0.906500
Cu111	Cu11	0.304690	0.261990	0.778840
O511	O51	0.312800	0.163000	0.798010
O521	O52	0.267200	0.787600	0.803590
O531	O53	0.222500	0.846200	0.752420
O541	O54	0.249300	0.109370	0.751000
C1111	C111	0.282700	0.110600	0.783150
C1121	C112	0.250700	0.844400	0.785570
C1131	C113	0.267100	0.912400	0.805410
C1141	C114	0.286900	0.039900	0.804170
C1151	C115	0.264100	0.977000	0.785580
H511	H51	0.247300	0.978600	0.760400
C1161	C116	0.291200	0.910900	0.843500
H521	H52	0.293400	0.867600	0.856700
C1171	C117	0.311800	0.973800	0.861600
C1181	C118	0.309400	0.038000	0.841590
H531	H53	0.323200	0.080200	0.853800
C1191	C119	0.425300	0.971600	0.965680
H541	H54	0.448000	0.980200	0.942300
C1201	C120	0.357500	0.944300	0.965550
O551	O55	0.280800	0.877900	0.924940
C1211	C121	0.320900	0.929600	0.928480
N111	N11	0.335100	0.976000	0.900280
H551	H55	0.361700	0.011700	0.906500
Cu121	Cu12	0.695310	0.738010	0.778840
O561	O56	0.687200	0.837000	0.798010
O571	O57	0.732800	0.212400	0.803590
O581	O58	0.777500	0.153800	0.752420
O591	O59	0.750700	0.890630	0.751000
C1221	C122	0.717300	0.889400	0.783150
C1231	C123	0.749300	0.155600	0.785570
C1241	C124	0.732900	0.087600	0.805410
C1251	C125	0.713100	0.960100	0.804170
C1261	C126	0.735900	0.023000	0.785580
H561	H56	0.752700	0.021400	0.760400
C1271	C127	0.708800	0.089100	0.843500
H571	H57	0.706600	0.132400	0.856700
C1281	C128	0.688200	0.026200	0.861600
C1291	C129	0.690600	0.962000	0.841590
H581	H58	0.676800	0.919800	0.853800
C1301	C130	0.574700	0.028400	0.965680
H591	H59	0.552000	0.019800	0.942300
C1311	C131	0.642500	0.055700	0.965550
O601	O60	0.719200	0.122100	0.924940
C1321	C132	0.679100	0.070400	0.928480
N121	N12	0.664900	0.024000	0.900280
H601	H60	0.638300	0.988300	0.906500
Cu131	Cu13	0.238010	0.195310	0.721160
O611	O61	0.337000	0.187200	0.701990
O621	O62	0.712400	0.232800	0.696410
O631	O63	0.653800	0.277500	0.747580
O641	O64	0.390630	0.250700	0.749000
C1331	C133	0.389400	0.217300	0.716850
C1341	C134	0.655600	0.249300	0.714430
C1351	C135	0.587600	0.232900	0.694590
C1361	C136	0.460100	0.213100	0.695830
C1371	C137	0.523000	0.235900	0.714420
H611	H61	0.521400	0.252700	0.739600
C1381	C138	0.589100	0.208800	0.656500
H621	H62	0.632400	0.206600	0.643300
C1391	C139	0.526200	0.188200	0.638400
C1401	C140	0.462000	0.190600	0.658410
H631	H63	0.419800	0.176800	0.646200
C1411	C141	0.528400	0.074700	0.534320
H641	H64	0.519800	0.052000	0.557700
C1421	C142	0.555700	0.142500	0.534450
O651	O65	0.622100	0.219200	0.575060
C1431	C143	0.570400	0.179100	0.571520
N131	N13	0.524000	0.164900	0.599720
H651	H65	0.488300	0.138300	0.593500
Cu141	Cu14	0.761990	0.804690	0.721160
O661	O66	0.663000	0.812800	0.701990
O671	O67	0.287600	0.767200	0.696410
O681	O68	0.346200	0.722500	0.747580
O691	O69	0.609370	0.749300	0.749000
C1441	C144	0.610600	0.782700	0.716850
C1451	C145	0.344400	0.750700	0.714430
C1461	C146	0.412400	0.767100	0.694590
C1471	C147	0.539900	0.786900	0.695830
C1481	C148	0.477000	0.764100	0.714420
H661	H66	0.478600	0.747300	0.739600
C1491	C149	0.410900	0.791200	0.656500
H671	H67	0.367600	0.793400	0.643300
C1501	C150	0.473800	0.811800	0.638400
C1511	C151	0.538000	0.809400	0.658410
H681	H68	0.580200	0.823200	0.646200
C1521	C152	0.471600	0.925300	0.534320
H691	H69	0.480200	0.948000	0.557700
C1531	C153	0.444300	0.857500	0.534450
O701	O70	0.377900	0.780800	0.575060
C1541	C154	0.429600	0.820900	0.571520
N141	N14	0.476000	0.835100	0.599720
H701	H70	0.511700	0.861700	0.593500
Cu151	Cu15	0.195310	0.761990	0.721160
O711	O71	0.187200	0.663000	0.701990
O721	O72	0.232800	0.287600	0.696410
O731	O73	0.277500	0.346200	0.747580
O741	O74	0.250700	0.609370	0.749000
C1551	C155	0.217300	0.610600	0.716850
C1561	C156	0.249300	0.344400	0.714430
C1571	C157	0.232900	0.412400	0.694590
C1581	C158	0.213100	0.539900	0.695830
C1591	C159	0.235900	0.477000	0.714420
H711	H71	0.252700	0.478600	0.739600
C1601	C160	0.208800	0.410900	0.656500
H721	H72	0.206600	0.367600	0.643300
C1611	C161	0.188200	0.473800	0.638400
C1621	C162	0.190600	0.538000	0.658410
H731	H73	0.176800	0.580200	0.646200
C1631	C163	0.074700	0.471600	0.534320
H741	H74	0.052000	0.480200	0.557700
C1641	C164	0.142500	0.444300	0.534450
O751	O75	0.219200	0.377900	0.575060
C1651	C165	0.179100	0.429600	0.571520
N151	N15	0.164900	0.476000	0.599720
H751	H75	0.138300	0.511700	0.593500
Cu161	Cu16	0.804690	0.238010	0.721160
O761	O76	0.812800	0.337000	0.701990
O771	O77	0.767200	0.712400	0.696410
O781	O78	0.722500	0.653800	0.747580
O791	O79	0.749300	0.390630	0.749000
C1661	C166	0.782700	0.389400	0.716850
C1671	C167	0.750700	0.655600	0.714430
C1681	C168	0.767100	0.587600	0.694590
C1691	C169	0.786900	0.460100	0.695830
C1701	C170	0.764100	0.523000	0.714420
H761	H76	0.747300	0.521400	0.739600
C1711	C171	0.791200	0.589100	0.656500
H771	H77	0.793400	0.632400	0.643300
C1721	C172	0.811800	0.526200	0.638400
C1731	C173	0.809400	0.462000	0.658410
H781	H78	0.823200	0.419800	0.646200
C1741	C174	0.925300	0.528400	0.534320
H791	H79	0.948000	0.519800	0.557700
C1751	C175	0.857500	0.555700	0.534450
O801	O80	0.780800	0.622100	0.575060
C1761	C176	0.820900	0.570400	0.571520
N161	N16	0.835100	0.524000	0.599720
H801	H80	0.861700	0.488300	0.593500
C1771	C177	0.012800	0.461900	0.000000
C1781	C178	0.072600	0.324600	0.000000
H811	H81	0.095400	0.280400	0.000000
C1791	C179	0.987200	0.538100	0.000000
C1801	C180	0.927400	0.675400	0.000000
H821	H82	0.904600	0.719600	0.000000
C1811	C181	0.538100	0.012800	0.000000
C1821	C182	0.675400	0.072600	0.000000
H831	H83	0.719600	0.095400	0.000000
C1831	C183	0.461900	0.987200	0.000000
C1841	C184	0.324600	0.927400	0.000000
H841	H84	0.280400	0.904600	0.000000
C1851	C185	0.487200	0.961900	0.500000
C1861	C186	0.427400	0.824600	0.500000
H851	H85	0.404600	0.780400	0.500000
C1871	C187	0.512800	0.038100	0.500000
C1881	C188	0.572600	0.175400	0.500000
H861	H86	0.595400	0.219600	0.500000
C1891	C189	0.961900	0.512800	0.500000
C1901	C190	0.824600	0.572600	0.500000
H871	H87	0.780400	0.595400	0.500000
C1911	C191	0.038100	0.487200	0.500000
C1921	C192	0.175400	0.427400	0.500000
H881	H88	0.219600	0.404600	0.500000
