data_FAPXIG_clean_PM
_symmetry_space_group_name_H-M	'P1'
_cell_length_a	15.041800
_cell_length_b	15.041800
_cell_length_c	11.961100
_cell_angle_alpha	90.000000
_cell_angle_beta	90.000000
_cell_angle_gamma	90.000000
_symmetry_Int_Tables_number 1

loop_
_symmetry_equiv_pos_as_xyz
'x,y,z'

loop_
_atom_site_label
_atom_site_type_symbol
_atom_site_fract_x
_atom_site_fract_y
_atom_site_fract_z
O11	O1	0.876100	0.133600	0.236100
O21	O2	0.843900	0.039500	0.372900
C11	C1	0.838800	0.118800	0.331800
C21	C2	0.793700	0.187600	0.389900
C31	C3	0.749500	0.253300	0.330800
C41	C4	0.793800	0.189000	0.505600
C51	C5	0.705500	0.320400	0.387500
H11	H1	0.749400	0.252300	0.253100
C61	C6	0.749700	0.256100	0.562260
H21	H2	0.823400	0.144900	0.545300
C71	C7	0.705600	0.321800	0.503200
C81	C8	0.660200	0.387700	0.326900
H31	H3	0.676000	0.366800	0.541300
O31	O3	0.642700	0.463800	0.372300
O41	O4	0.635200	0.374900	0.224700
O51	O5	0.123900	0.866400	0.736100
O61	O6	0.156100	0.960500	0.872900
C91	C9	0.161200	0.881200	0.831800
C101	C10	0.206300	0.812400	0.889900
C111	C11	0.250500	0.746700	0.830800
C121	C12	0.206200	0.811000	0.005600
C131	C13	0.294500	0.679600	0.887500
H41	H4	0.250600	0.747700	0.753100
C141	C14	0.250300	0.743900	0.062260
H51	H5	0.176600	0.855100	0.045300
C151	C15	0.294400	0.678200	0.003200
C161	C16	0.339800	0.612300	0.826900
H61	H6	0.324000	0.633200	0.041300
O71	O7	0.357300	0.536200	0.872300
O81	O8	0.364800	0.625100	0.724700
O91	O9	0.866400	0.876100	0.486100
O101	O10	0.960500	0.843900	0.622900
C171	C17	0.881200	0.838800	0.581800
C181	C18	0.812400	0.793700	0.639900
C191	C19	0.746700	0.749500	0.580800
C201	C20	0.811000	0.793800	0.755600
C211	C21	0.679600	0.705500	0.637500
H71	H7	0.747700	0.749400	0.503100
C221	C22	0.743900	0.749700	0.812260
H81	H8	0.855100	0.823400	0.795300
C231	C23	0.678200	0.705600	0.753200
C241	C24	0.612300	0.660200	0.576900
H91	H9	0.633200	0.676000	0.791300
O111	O11	0.536200	0.642700	0.622300
O121	O12	0.625100	0.635200	0.474700
O131	O13	0.133600	0.123900	0.986100
O141	O14	0.039500	0.156100	0.122900
C251	C25	0.118800	0.161200	0.081800
C261	C26	0.187600	0.206300	0.139900
C271	C27	0.253300	0.250500	0.080800
C281	C28	0.189000	0.206200	0.255600
C291	C29	0.320400	0.294500	0.137500
H101	H10	0.252300	0.250600	0.003100
C301	C30	0.256100	0.250300	0.312260
H111	H11	0.144900	0.176600	0.295300
C311	C31	0.321800	0.294400	0.253200
C321	C32	0.387700	0.339800	0.076900
H121	H12	0.366800	0.324000	0.291300
O151	O15	0.463800	0.357300	0.122300
O161	O16	0.374900	0.364800	0.974700
O171	O17	0.123900	0.133600	0.763900
O181	O18	0.156100	0.039500	0.627100
C331	C33	0.161200	0.118800	0.668200
C341	C34	0.206300	0.187600	0.610100
C351	C35	0.250500	0.253300	0.669200
C361	C36	0.206200	0.189000	0.494400
C371	C37	0.294500	0.320400	0.612500
H131	H13	0.250600	0.252300	0.746900
C381	C38	0.250300	0.256100	0.437740
H141	H14	0.176600	0.144900	0.454700
C391	C39	0.294400	0.321800	0.496800
C401	C40	0.339800	0.387700	0.673100
H151	H15	0.324000	0.366800	0.458700
O191	O19	0.357300	0.463800	0.627700
O201	O20	0.364800	0.374900	0.775300
O211	O21	0.876100	0.866400	0.263900
O221	O22	0.843900	0.960500	0.127100
C411	C41	0.838800	0.881200	0.168200
C421	C42	0.793700	0.812400	0.110100
C431	C43	0.749500	0.746700	0.169200
C441	C44	0.793800	0.811000	0.994400
C451	C45	0.705500	0.679600	0.112500
H161	H16	0.749400	0.747700	0.246900
C461	C46	0.749700	0.743900	0.937740
H171	H17	0.823400	0.855100	0.954700
C471	C47	0.705600	0.678200	0.996800
C481	C48	0.660200	0.612300	0.173100
H181	H18	0.676000	0.633200	0.958700
O231	O23	0.642700	0.536200	0.127700
O241	O24	0.635200	0.625100	0.275300
O251	O25	0.133600	0.876100	0.513900
O261	O26	0.039500	0.843900	0.377100
C491	C49	0.118800	0.838800	0.418200
C501	C50	0.187600	0.793700	0.360100
C511	C51	0.253300	0.749500	0.419200
C521	C52	0.189000	0.793800	0.244400
C531	C53	0.320400	0.705500	0.362500
H191	H19	0.252300	0.749400	0.496900
C541	C54	0.256100	0.749700	0.187740
H201	H20	0.144900	0.823400	0.204700
C551	C55	0.321800	0.705600	0.246800
C561	C56	0.387700	0.660200	0.423100
H211	H21	0.366800	0.676000	0.208700
O271	O27	0.463800	0.642700	0.377700
O281	O28	0.374900	0.635200	0.525300
O291	O29	0.866400	0.123900	0.013900
O301	O30	0.960500	0.156100	0.877100
C571	C57	0.881200	0.161200	0.918200
C581	C58	0.812400	0.206300	0.860100
C591	C59	0.746700	0.250500	0.919200
C601	C60	0.811000	0.206200	0.744400
C611	C61	0.679600	0.294500	0.862500
H221	H22	0.747700	0.250600	0.996900
C621	C62	0.743900	0.250300	0.687740
H231	H23	0.855100	0.176600	0.704700
C631	C63	0.678200	0.294400	0.746800
C641	C64	0.612300	0.339800	0.923100
H241	H24	0.633200	0.324000	0.708700
O311	O31	0.536200	0.357300	0.877700
O321	O32	0.625100	0.364800	0.025300
V11	V1	0.936000	0.064000	0.125000
V21	V2	0.064000	0.936000	0.625000
V31	V3	0.936000	0.936000	0.375000
V41	V4	0.064000	0.064000	0.875000
O331	O33	0.976600	0.000000	0.250000
O341	O34	0.023400	0.000000	0.750000
O351	O35	0.000000	0.976600	0.500000
O361	O36	0.000000	0.023400	0.000000
V51	V5	0.556000	0.556000	0.375000
V61	V6	0.444000	0.444000	0.875000
V71	V7	0.444000	0.556000	0.625000
V81	V8	0.556000	0.444000	0.125000
O371	O37	0.487800	0.500000	0.250000
O381	O38	0.512200	0.500000	0.750000
O391	O39	0.500000	0.487800	0.500000
O401	O40	0.500000	0.512200	0.000000
