data_FAQGEL_clean_PM
_symmetry_space_group_name_H-M	'P1'
_cell_length_a	16.368000
_cell_length_b	16.368000
_cell_length_c	22.206100
_cell_angle_alpha	68.374000
_cell_angle_beta	68.374000
_cell_angle_gamma	60.000000
_symmetry_Int_Tables_number 1

loop_
_symmetry_equiv_pos_as_xyz
'x,y,z'

loop_
_atom_site_label
_atom_site_type_symbol
_atom_site_fract_x
_atom_site_fract_y
_atom_site_fract_z
Cd11	Cd1	0.045140	0.309380	0.781340
Cd21	Cd2	0.309380	0.864140	0.781340
Cd31	Cd3	0.864140	0.045140	0.781340
Cd41	Cd4	0.454860	0.635860	0.718660
Cd51	Cd5	0.190620	0.454860	0.718660
Cd61	Cd6	0.635860	0.190620	0.718660
Cd71	Cd7	0.954860	0.690620	0.218660
Cd81	Cd8	0.690620	0.135860	0.218660
Cd91	Cd9	0.135860	0.954860	0.218660
Cd101	Cd10	0.545140	0.364140	0.281340
Cd111	Cd11	0.809380	0.545140	0.281340
Cd121	Cd12	0.364140	0.809380	0.281340
H11	H1	0.333000	0.290000	0.904000
H21	H2	0.329500	0.213500	0.031500
H31	H3	0.967200	0.163200	0.909400
H41	H4	0.070800	0.126800	0.907600
H51	H5	0.916000	0.187000	0.811000
H61	H6	0.992900	0.155900	0.748300
H71	H7	0.290000	0.473000	0.904000
H81	H8	0.213500	0.425500	0.031500
H91	H9	0.163200	0.960200	0.909400
H101	H10	0.126800	0.894800	0.907600
H111	H11	0.187000	0.086000	0.811000
H121	H12	0.155900	0.102900	0.748300
H131	H13	0.473000	0.333000	0.904000
H141	H14	0.425500	0.329500	0.031500
H151	H15	0.960200	0.967200	0.909400
H161	H16	0.894800	0.070800	0.907600
H171	H17	0.086000	0.916000	0.811000
H181	H18	0.102900	0.992900	0.748300
H191	H19	0.167000	0.027000	0.596000
H201	H20	0.170500	0.074500	0.468500
H211	H21	0.532800	0.539800	0.590600
H221	H22	0.429200	0.605200	0.592400
H231	H23	0.584000	0.414000	0.689000
H241	H24	0.507100	0.397100	0.751700
H251	H25	0.210000	0.167000	0.596000
H261	H26	0.286500	0.170500	0.468500
H271	H27	0.336800	0.532800	0.590600
H281	H28	0.373200	0.429200	0.592400
H291	H29	0.313000	0.584000	0.689000
H301	H30	0.344100	0.507100	0.751700
H311	H31	0.027000	0.210000	0.596000
H321	H32	0.074500	0.286500	0.468500
H331	H33	0.539800	0.336800	0.590600
H341	H34	0.605200	0.373200	0.592400
H351	H35	0.414000	0.313000	0.689000
H361	H36	0.397100	0.344100	0.751700
H371	H37	0.667000	0.710000	0.096000
H381	H38	0.670500	0.786500	0.968500
H391	H39	0.032800	0.836800	0.090600
H401	H40	0.929200	0.873200	0.092400
H411	H41	0.084000	0.813000	0.189000
H421	H42	0.007100	0.844100	0.251700
H431	H43	0.710000	0.527000	0.096000
H441	H44	0.786500	0.574500	0.968500
H451	H45	0.836800	0.039800	0.090600
H461	H46	0.873200	0.105200	0.092400
H471	H47	0.813000	0.914000	0.189000
H481	H48	0.844100	0.897100	0.251700
H491	H49	0.527000	0.667000	0.096000
H501	H50	0.574500	0.670500	0.968500
H511	H51	0.039800	0.032800	0.090600
H521	H52	0.105200	0.929200	0.092400
H531	H53	0.914000	0.084000	0.189000
H541	H54	0.897100	0.007100	0.251700
H551	H55	0.833000	0.973000	0.404000
H561	H56	0.829500	0.925500	0.531500
H571	H57	0.467200	0.460200	0.409400
H581	H58	0.570800	0.394800	0.407600
H591	H59	0.416000	0.586000	0.311000
H601	H60	0.492900	0.602900	0.248300
H611	H61	0.790000	0.833000	0.404000
H621	H62	0.713500	0.829500	0.531500
H631	H63	0.663200	0.467200	0.409400
H641	H64	0.626800	0.570800	0.407600
H651	H65	0.687000	0.416000	0.311000
H661	H66	0.655900	0.492900	0.248300
H671	H67	0.973000	0.790000	0.404000
H681	H68	0.925500	0.713500	0.531500
H691	H69	0.460200	0.663200	0.409400
H701	H70	0.394800	0.626800	0.407600
H711	H71	0.586000	0.687000	0.311000
H721	H72	0.602900	0.655900	0.248300
C11	C1	0.224980	0.094080	0.104460
C21	C2	0.235120	0.156120	0.035640
C31	C3	0.287970	0.209670	0.008190
C41	C4	0.280580	0.260880	0.941560
C51	C5	0.222790	0.245490	0.920530
C61	C6	0.199100	0.285900	0.853300
C71	C7	0.023110	0.124510	0.893170
C81	C8	0.978100	0.146120	0.794620
C91	C9	0.094080	0.576480	0.104460
C101	C10	0.156120	0.573120	0.035640
C111	C11	0.209670	0.494170	0.008190
C121	C12	0.260880	0.516980	0.941560
C131	C13	0.245490	0.611190	0.920530
C141	C14	0.285900	0.661700	0.853300
C151	C15	0.124510	0.959210	0.893170
C161	C16	0.146120	0.081160	0.794620
C171	C17	0.576480	0.224980	0.104460
C181	C18	0.573120	0.235120	0.035640
C191	C19	0.494170	0.287970	0.008190
C201	C20	0.516980	0.280580	0.941560
C211	C21	0.611190	0.222790	0.920530
C221	C22	0.661700	0.199100	0.853300
C231	C23	0.959210	0.023110	0.893170
C241	C24	0.081160	0.978100	0.794620
C251	C25	0.275020	0.923520	0.395540
C261	C26	0.264880	0.926880	0.464360
C271	C27	0.212030	0.005830	0.491810
C281	C28	0.219420	0.983020	0.558440
C291	C29	0.277210	0.888810	0.579470
C301	C30	0.300900	0.838300	0.646700
C311	C31	0.476890	0.540790	0.606830
C321	C32	0.521900	0.418840	0.705380
C331	C33	0.405920	0.275020	0.395540
C341	C34	0.343880	0.264880	0.464360
C351	C35	0.290330	0.212030	0.491810
C361	C36	0.239120	0.219420	0.558440
C371	C37	0.254510	0.277210	0.579470
C381	C38	0.214100	0.300900	0.646700
C391	C39	0.375490	0.476890	0.606830
C401	C40	0.353880	0.521900	0.705380
C411	C41	0.923520	0.405920	0.395540
C421	C42	0.926880	0.343880	0.464360
C431	C43	0.005830	0.290330	0.491810
C441	C44	0.983020	0.239120	0.558440
C451	C45	0.888810	0.254510	0.579470
C461	C46	0.838300	0.214100	0.646700
C471	C47	0.540790	0.375490	0.606830
C481	C48	0.418840	0.353880	0.705380
C491	C49	0.775020	0.905920	0.895540
C501	C50	0.764880	0.843880	0.964360
C511	C51	0.712030	0.790330	0.991810
C521	C52	0.719420	0.739120	0.058440
C531	C53	0.777210	0.754510	0.079470
C541	C54	0.800900	0.714100	0.146700
C551	C55	0.976890	0.875490	0.106830
C561	C56	0.021900	0.853880	0.205380
C571	C57	0.905920	0.423520	0.895540
C581	C58	0.843880	0.426880	0.964360
C591	C59	0.790330	0.505830	0.991810
C601	C60	0.739120	0.483020	0.058440
C611	C61	0.754510	0.388810	0.079470
C621	C62	0.714100	0.338300	0.146700
C631	C63	0.875490	0.040790	0.106830
C641	C64	0.853880	0.918840	0.205380
C651	C65	0.423520	0.775020	0.895540
C661	C66	0.426880	0.764880	0.964360
C671	C67	0.505830	0.712030	0.991810
C681	C68	0.483020	0.719420	0.058440
C691	C69	0.388810	0.777210	0.079470
C701	C70	0.338300	0.800900	0.146700
C711	C71	0.040790	0.976890	0.106830
C721	C72	0.918840	0.021900	0.205380
C731	C73	0.724980	0.076480	0.604460
C741	C74	0.735120	0.073120	0.535640
C751	C75	0.787970	0.994170	0.508190
C761	C76	0.780580	0.016980	0.441560
C771	C77	0.722790	0.111190	0.420530
C781	C78	0.699100	0.161700	0.353300
C791	C79	0.523110	0.459210	0.393170
C801	C80	0.478100	0.581160	0.294620
C811	C81	0.594080	0.724980	0.604460
C821	C82	0.656120	0.735120	0.535640
C831	C83	0.709670	0.787970	0.508190
C841	C84	0.760880	0.780580	0.441560
C851	C85	0.745490	0.722790	0.420530
C861	C86	0.785900	0.699100	0.353300
C871	C87	0.624510	0.523110	0.393170
C881	C88	0.646120	0.478100	0.294620
C891	C89	0.076480	0.594080	0.604460
C901	C90	0.073120	0.656120	0.535640
C911	C91	0.994170	0.709670	0.508190
C921	C92	0.016980	0.760880	0.441560
C931	C93	0.111190	0.745490	0.420530
C941	C94	0.161700	0.785900	0.353300
C951	C95	0.459210	0.624510	0.393170
C961	C96	0.581160	0.646120	0.294620
S11	S1	0.175890	0.168190	0.981100
S21	S2	0.168190	0.674820	0.981100
S31	S3	0.674820	0.175890	0.981100
S41	S4	0.324110	0.825180	0.518900
S51	S5	0.331810	0.324110	0.518900
S61	S6	0.825180	0.331810	0.518900
S71	S7	0.824110	0.831810	0.018900
S81	S8	0.831810	0.325180	0.018900
S91	S9	0.325180	0.824110	0.018900
S101	S10	0.675890	0.174820	0.481100
S111	S11	0.668190	0.675890	0.481100
S121	S12	0.174820	0.668190	0.481100
N11	N1	0.047500	0.152780	0.818650
N21	N2	0.152780	0.981070	0.818650
N31	N3	0.981070	0.047500	0.818650
N41	N4	0.452500	0.518930	0.681350
N51	N5	0.347220	0.452500	0.681350
N61	N6	0.518930	0.347220	0.681350
N71	N7	0.952500	0.847220	0.181350
N81	N8	0.847220	0.018930	0.181350
N91	N9	0.018930	0.952500	0.181350
N101	N10	0.547500	0.481070	0.318650
N111	N11	0.652780	0.547500	0.318650
N121	N12	0.481070	0.652780	0.318650
N131	N13	0.027540	0.027540	0.917380
N141	N14	0.472460	0.472460	0.582620
N151	N15	0.972460	0.972460	0.082620
N161	N16	0.527540	0.527540	0.417380
O11	O1	0.158250	0.066970	0.123750
O21	O2	0.282360	0.075960	0.136320
O31	O3	0.155650	0.250730	0.841750
O41	O4	0.226260	0.350890	0.815650
O51	O5	0.066970	0.651030	0.123750
O61	O6	0.075960	0.505360	0.136320
O71	O7	0.250730	0.751870	0.841750
O81	O8	0.350890	0.607200	0.815650
O91	O9	0.651030	0.158250	0.123750
O101	O10	0.505360	0.282360	0.136320
O111	O11	0.751870	0.155650	0.841750
O121	O12	0.607200	0.226260	0.815650
O131	O13	0.341750	0.848970	0.376250
O141	O14	0.217640	0.994640	0.363680
O151	O15	0.344350	0.748130	0.658250
O161	O16	0.273740	0.892800	0.684350
O171	O17	0.433030	0.341750	0.376250
O181	O18	0.424040	0.217640	0.363680
O191	O19	0.249270	0.344350	0.658250
O201	O20	0.149110	0.273740	0.684350
O211	O21	0.848970	0.433030	0.376250
O221	O22	0.994640	0.424040	0.363680
O231	O23	0.748130	0.249270	0.658250
O241	O24	0.892800	0.149110	0.684350
O251	O25	0.841750	0.933030	0.876250
O261	O26	0.717640	0.924040	0.863680
O271	O27	0.844350	0.749270	0.158250
O281	O28	0.773740	0.649110	0.184350
O291	O29	0.933030	0.348970	0.876250
O301	O30	0.924040	0.494640	0.863680
O311	O31	0.749270	0.248130	0.158250
O321	O32	0.649110	0.392800	0.184350
O331	O33	0.348970	0.841750	0.876250
O341	O34	0.494640	0.717640	0.863680
O351	O35	0.248130	0.844350	0.158250
O361	O36	0.392800	0.773740	0.184350
O371	O37	0.658250	0.151030	0.623750
O381	O38	0.782360	0.005360	0.636320
O391	O39	0.655650	0.251870	0.341750
O401	O40	0.726260	0.107200	0.315650
O411	O41	0.566970	0.658250	0.623750
O421	O42	0.575960	0.782360	0.636320
O431	O43	0.750730	0.655650	0.341750
O441	O44	0.850890	0.726260	0.315650
O451	O45	0.151030	0.566970	0.623750
O461	O46	0.005360	0.575960	0.636320
O471	O47	0.251870	0.750730	0.341750
O481	O48	0.107200	0.850890	0.315650
O491	O49	0.034180	0.465820	0.750000
O501	O50	0.465820	0.750000	0.750000
O511	O51	0.750000	0.034180	0.750000
O521	O52	0.965820	0.534180	0.250000
O531	O53	0.534180	0.250000	0.250000
O541	O54	0.250000	0.965820	0.250000
