data_FAQGIO_clean_PM
_symmetry_space_group_name_H-M	'P1'
_cell_length_a	20.299600
_cell_length_b	9.400100
_cell_length_c	9.694100
_cell_angle_alpha	90.000000
_cell_angle_beta	111.310000
_cell_angle_gamma	90.000000
_symmetry_Int_Tables_number 1

loop_
_symmetry_equiv_pos_as_xyz
'x,y,z'

loop_
_atom_site_label
_atom_site_type_symbol
_atom_site_fract_x
_atom_site_fract_y
_atom_site_fract_z
P11	P1	0.394660	0.419900	0.964260
F11	F1	0.312920	0.122740	0.163090
O11	O1	0.440000	0.455860	0.123120
O21	O2	0.438450	0.366200	0.878250
F21	F2	0.559970	0.780840	0.383000
F31	F3	0.264050	0.407220	0.146050
O31	O3	0.339530	0.307800	0.955480
O41	O4	0.357620	0.562600	0.896100
H11	H1	0.331500	0.564000	0.823000
P21	P2	0.894660	0.919900	0.964260
F41	F4	0.812920	0.622740	0.163090
O51	O5	0.940000	0.955860	0.123120
O61	O6	0.938450	0.866200	0.878250
F51	F5	0.059970	0.280840	0.383000
F61	F6	0.764050	0.907220	0.146050
O71	O7	0.839530	0.807800	0.955480
O81	O8	0.857620	0.062600	0.896100
H21	H2	0.831500	0.064000	0.823000
P31	P3	0.605340	0.419900	0.535740
F71	F7	0.687080	0.122740	0.336910
O91	O9	0.560000	0.455860	0.376880
O101	O10	0.561550	0.366200	0.621750
F81	F8	0.440030	0.780840	0.117000
F91	F9	0.735950	0.407220	0.353950
O111	O11	0.660470	0.307800	0.544520
O121	O12	0.642380	0.562600	0.603900
H31	H3	0.668500	0.564000	0.677000
P41	P4	0.105340	0.919900	0.535740
F101	F10	0.187080	0.622740	0.336910
O131	O13	0.060000	0.955860	0.376880
O141	O14	0.061550	0.866200	0.621750
F111	F11	0.940030	0.280840	0.117000
F121	F12	0.235950	0.907220	0.353950
O151	O15	0.160470	0.807800	0.544520
O161	O16	0.142380	0.062600	0.603900
H41	H4	0.168500	0.064000	0.677000
P51	P5	0.605340	0.580100	0.035740
F131	F13	0.687080	0.877260	0.836910
O171	O17	0.560000	0.544140	0.876880
O181	O18	0.561550	0.633800	0.121750
F141	F14	0.440030	0.219160	0.617000
F151	F15	0.735950	0.592780	0.853950
O191	O19	0.660470	0.692200	0.044520
O201	O20	0.642380	0.437400	0.103900
H51	H5	0.668500	0.436000	0.177000
P61	P6	0.105340	0.080100	0.035740
F161	F16	0.187080	0.377260	0.836910
O211	O21	0.060000	0.044140	0.876880
O221	O22	0.061550	0.133800	0.121750
F171	F17	0.940030	0.719160	0.617000
F181	F18	0.235950	0.092780	0.853950
O231	O23	0.160470	0.192200	0.044520
O241	O24	0.142380	0.937400	0.103900
H61	H6	0.168500	0.936000	0.177000
P71	P7	0.394660	0.580100	0.464260
F191	F19	0.312920	0.877260	0.663090
O251	O25	0.440000	0.544140	0.623120
O261	O26	0.438450	0.633800	0.378250
F201	F20	0.559970	0.219160	0.883000
F211	F21	0.264050	0.592780	0.646050
O271	O27	0.339530	0.692200	0.455480
O281	O28	0.357620	0.437400	0.396100
H71	H7	0.331500	0.436000	0.323000
P81	P8	0.894660	0.080100	0.464260
F221	F22	0.812920	0.377260	0.663090
O291	O29	0.940000	0.044140	0.623120
O301	O30	0.938450	0.133800	0.378250
F231	F23	0.059970	0.719160	0.883000
F241	F24	0.764050	0.092780	0.646050
O311	O31	0.839530	0.192200	0.455480
O321	O32	0.857620	0.937400	0.396100
H81	H8	0.831500	0.936000	0.323000
Sc11	Sc1	0.500000	0.626670	0.250000
Sc21	Sc2	0.000000	0.126670	0.250000
Sc31	Sc3	0.500000	0.373330	0.750000
Sc41	Sc4	0.000000	0.873330	0.750000
Sc51	Sc5	0.250000	0.250000	0.000000
Sc61	Sc6	0.750000	0.250000	0.500000
Sc71	Sc7	0.750000	0.750000	0.000000
Sc81	Sc8	0.250000	0.750000	0.500000
