data_FAQLUH_clean_PM
_symmetry_space_group_name_H-M	'P1'
_cell_length_a	15.165800
_cell_length_b	15.165800
_cell_length_c	12.056800
_cell_angle_alpha	90.000000
_cell_angle_beta	90.000000
_cell_angle_gamma	90.000000
_symmetry_Int_Tables_number 1

loop_
_symmetry_equiv_pos_as_xyz
'x,y,z'

loop_
_atom_site_label
_atom_site_type_symbol
_atom_site_fract_x
_atom_site_fract_y
_atom_site_fract_z
O11	O1	0.619500	0.381400	0.608200
O21	O2	0.596900	0.288500	0.746900
C11	C1	0.588700	0.363100	0.702400
C21	C2	0.541380	0.431650	0.762800
C31	C3	0.541380	0.431650	0.878900
H11	H1	0.572400	0.380400	0.922400
O31	O3	0.119500	0.881400	0.108200
O41	O4	0.096900	0.788500	0.246900
C41	C4	0.088700	0.863100	0.202400
C51	C5	0.041380	0.931650	0.262800
C61	C6	0.041380	0.931650	0.378900
H21	H2	0.072400	0.880400	0.422400
O51	O5	0.880500	0.118600	0.108200
O61	O6	0.903100	0.211500	0.246900
C71	C7	0.911300	0.136900	0.202400
C81	C8	0.958620	0.068350	0.262800
C91	C9	0.958620	0.068350	0.378900
H31	H3	0.927600	0.119600	0.422400
O71	O7	0.380500	0.618600	0.608200
O81	O8	0.403100	0.711500	0.746900
C101	C10	0.411300	0.636900	0.702400
C111	C11	0.458620	0.568350	0.762800
C121	C12	0.458620	0.568350	0.878900
H41	H4	0.427600	0.619600	0.922400
O91	O9	0.618600	0.119500	0.858200
O101	O10	0.711500	0.096900	0.996900
C131	C13	0.636900	0.088700	0.952400
C141	C14	0.568350	0.041380	0.012800
C151	C15	0.568350	0.041380	0.128900
H51	H5	0.619600	0.072400	0.172400
O111	O11	0.118600	0.619500	0.358200
O121	O12	0.211500	0.596900	0.496900
C161	C16	0.136900	0.588700	0.452400
C171	C17	0.068350	0.541380	0.512800
C181	C18	0.068350	0.541380	0.628900
H61	H6	0.119600	0.572400	0.672400
O131	O13	0.881400	0.380500	0.358200
O141	O14	0.788500	0.403100	0.496900
C191	C19	0.863100	0.411300	0.452400
C201	C20	0.931650	0.458620	0.512800
C211	C21	0.931650	0.458620	0.628900
H71	H7	0.880400	0.427600	0.672400
O151	O15	0.381400	0.880500	0.858200
O161	O16	0.288500	0.903100	0.996900
C221	C22	0.363100	0.911300	0.952400
C231	C23	0.431650	0.958620	0.012800
C241	C24	0.431650	0.958620	0.128900
H81	H8	0.380400	0.927600	0.172400
O171	O17	0.880500	0.381400	0.141800
O181	O18	0.903100	0.288500	0.003100
C251	C25	0.911300	0.363100	0.047600
C261	C26	0.958620	0.431650	0.987200
C271	C27	0.958620	0.431650	0.871100
H91	H9	0.927600	0.380400	0.827600
O191	O19	0.380500	0.881400	0.641800
O201	O20	0.403100	0.788500	0.503100
C281	C28	0.411300	0.863100	0.547600
C291	C29	0.458620	0.931650	0.487200
C301	C30	0.458620	0.931650	0.371100
H101	H10	0.427600	0.880400	0.327600
O211	O21	0.619500	0.118600	0.641800
O221	O22	0.596900	0.211500	0.503100
C311	C31	0.588700	0.136900	0.547600
C321	C32	0.541380	0.068350	0.487200
C331	C33	0.541380	0.068350	0.371100
H111	H11	0.572400	0.119600	0.327600
O231	O23	0.119500	0.618600	0.141800
O241	O24	0.096900	0.711500	0.003100
C341	C34	0.088700	0.636900	0.047600
C351	C35	0.041380	0.568350	0.987200
C361	C36	0.041380	0.568350	0.871100
H121	H12	0.072400	0.619600	0.827600
O251	O25	0.881400	0.119500	0.891800
O261	O26	0.788500	0.096900	0.753100
C371	C37	0.863100	0.088700	0.797600
C381	C38	0.931650	0.041380	0.737200
C391	C39	0.931650	0.041380	0.621100
H131	H13	0.880400	0.072400	0.577600
O271	O27	0.381400	0.619500	0.391800
O281	O28	0.288500	0.596900	0.253100
C401	C40	0.363100	0.588700	0.297600
C411	C41	0.431650	0.541380	0.237200
C421	C42	0.431650	0.541380	0.121100
H141	H14	0.380400	0.572400	0.077600
O291	O29	0.618600	0.380500	0.391800
O301	O30	0.711500	0.403100	0.253100
C431	C43	0.636900	0.411300	0.297600
C441	C44	0.568350	0.458620	0.237200
C451	C45	0.568350	0.458620	0.121100
H151	H15	0.619600	0.427600	0.077600
O311	O31	0.118600	0.880500	0.891800
O321	O32	0.211500	0.903100	0.753100
C461	C46	0.136900	0.911300	0.797600
C471	C47	0.068350	0.958620	0.737200
C481	C48	0.068350	0.958620	0.621100
H161	H16	0.119600	0.927600	0.577600
V11	V1	0.698000	0.302000	0.500000
V21	V2	0.198000	0.802000	0.000000
V31	V3	0.802000	0.198000	0.000000
V41	V4	0.302000	0.698000	0.500000
V51	V5	0.698000	0.198000	0.750000
V61	V6	0.198000	0.698000	0.250000
V71	V7	0.802000	0.302000	0.250000
V81	V8	0.302000	0.802000	0.750000
O331	O33	0.750900	0.250000	0.625000
H171	H17	0.821800	0.250000	0.625000
O341	O34	0.250900	0.750000	0.125000
H181	H18	0.321800	0.750000	0.125000
O351	O35	0.749100	0.250000	0.125000
H191	H19	0.678200	0.250000	0.125000
O361	O36	0.249100	0.750000	0.625000
H201	H20	0.178200	0.750000	0.625000
O371	O37	0.750000	0.250900	0.875000
H211	H21	0.750000	0.321800	0.875000
O381	O38	0.250000	0.750900	0.375000
H221	H22	0.250000	0.821800	0.375000
O391	O39	0.750000	0.249100	0.375000
H231	H23	0.750000	0.178200	0.375000
O401	O40	0.250000	0.749100	0.875000
H241	H24	0.250000	0.678200	0.875000
C491	C49	0.500000	0.500000	0.704800
C501	C50	0.500000	0.500000	0.936900
H251	H25	0.500000	0.500000	0.617700
C511	C51	0.000000	0.000000	0.204800
C521	C52	0.000000	0.000000	0.436900
H261	H26	0.000000	0.000000	0.117700
C531	C53	0.500000	0.000000	0.954800
C541	C54	0.500000	0.000000	0.186900
H271	H27	0.500000	0.000000	0.867700
C551	C55	0.000000	0.500000	0.454800
C561	C56	0.000000	0.500000	0.686900
H281	H28	0.000000	0.500000	0.367700
C571	C57	0.000000	0.500000	0.045200
C581	C58	0.000000	0.500000	0.813100
H291	H29	0.000000	0.500000	0.132300
C591	C59	0.500000	0.000000	0.545200
C601	C60	0.500000	0.000000	0.313100
H301	H30	0.500000	0.000000	0.632300
C611	C61	0.000000	0.000000	0.795200
C621	C62	0.000000	0.000000	0.563100
H311	H31	0.000000	0.000000	0.882300
C631	C63	0.500000	0.500000	0.295200
C641	C64	0.500000	0.500000	0.063100
H321	H32	0.500000	0.500000	0.382300
