data_FAQVEA_clean_PM
_symmetry_space_group_name_H-M	'P1'
_cell_length_a	9.774800
_cell_length_b	11.979500
_cell_length_c	11.979500
_cell_angle_alpha	90.307800
_cell_angle_beta	110.049000
_cell_angle_gamma	110.049000
_symmetry_Int_Tables_number 1

loop_
_symmetry_equiv_pos_as_xyz
'x,y,z'

loop_
_atom_site_label
_atom_site_type_symbol
_atom_site_fract_x
_atom_site_fract_y
_atom_site_fract_z
Zn11	Zn1	0.846530	0.159220	0.374060
Zn21	Zn2	0.346530	0.374060	0.159220
H11	H1	0.199400	0.473400	0.744600
H21	H2	0.993100	0.126100	0.760900
H31	H3	0.322600	0.503800	0.949000
H41	H4	0.124700	0.164600	0.964800
H51	H5	0.202900	0.477700	0.344300
H61	H6	0.055400	0.448100	0.225900
H71	H7	0.034600	0.418800	0.347800
H81	H8	0.699400	0.744600	0.473400
H91	H9	0.493100	0.760900	0.126100
H101	H10	0.822600	0.949000	0.503800
H111	H11	0.624700	0.964800	0.164600
H121	H12	0.702900	0.344300	0.477700
H131	H13	0.555400	0.225900	0.448100
H141	H14	0.534600	0.347800	0.418800
C11	C1	0.000100	0.277100	0.596100
C21	C2	0.101700	0.302400	0.279800
C31	C3	0.081400	0.296500	0.730300
C41	C4	0.181800	0.409300	0.788100
C51	C5	0.059900	0.203600	0.797400
C61	C6	0.255900	0.426800	0.910600
C71	C7	0.139100	0.227800	0.919800
C81	C8	0.098300	0.422100	0.301300
C91	C9	0.500100	0.596100	0.277100
C101	C10	0.601700	0.279800	0.302400
C111	C11	0.581400	0.730300	0.296500
C121	C12	0.681800	0.788100	0.409300
C131	C13	0.559900	0.797400	0.203600
C141	C14	0.755900	0.910600	0.426800
C151	C15	0.639100	0.919800	0.227800
C161	C16	0.598300	0.301300	0.422100
N11	N1	0.015100	0.200380	0.305820
N21	N2	0.235700	0.337190	0.976890
N31	N3	0.054600	0.113000	0.270600
N41	N4	0.193000	0.278650	0.229150
N51	N5	0.160600	0.159200	0.225200
N61	N6	0.515100	0.305820	0.200380
N71	N7	0.735700	0.976890	0.337190
N81	N8	0.554600	0.270600	0.113000
N91	N9	0.693000	0.229150	0.278650
N101	N10	0.660600	0.225200	0.159200
O11	O1	0.910400	0.169930	0.548170
O21	O2	0.020400	0.360890	0.538910
O31	O3	0.410400	0.548170	0.169930
O41	O4	0.520400	0.538910	0.360890
Zn31	Zn3	0.653470	0.625940	0.840780
Zn41	Zn4	0.153470	0.840780	0.625940
H151	H15	0.300600	0.255400	0.526600
H161	H16	0.506900	0.239100	0.873900
H171	H17	0.177400	0.051000	0.496200
H181	H18	0.375300	0.035200	0.835400
H191	H19	0.297100	0.655700	0.522300
H201	H20	0.444600	0.774100	0.551900
H211	H21	0.465400	0.652200	0.581200
H221	H22	0.800600	0.526600	0.255400
H231	H23	0.006900	0.873900	0.239100
H241	H24	0.677400	0.496200	0.051000
H251	H25	0.875300	0.835400	0.035200
H261	H26	0.797100	0.522300	0.655700
H271	H27	0.944600	0.551900	0.774100
H281	H28	0.965400	0.581200	0.652200
C171	C17	0.499900	0.403900	0.722900
C181	C18	0.398300	0.720200	0.697600
C191	C19	0.418600	0.269700	0.703500
C201	C20	0.318200	0.211900	0.590700
C211	C21	0.440100	0.202600	0.796400
C221	C22	0.244100	0.089400	0.573200
C231	C23	0.360900	0.080200	0.772200
C241	C24	0.401700	0.698700	0.577900
C251	C25	0.999900	0.722900	0.403900
C261	C26	0.898300	0.697600	0.720200
C271	C27	0.918600	0.703500	0.269700
C281	C28	0.818200	0.590700	0.211900
C291	C29	0.940100	0.796400	0.202600
C301	C30	0.744100	0.573200	0.089400
C311	C31	0.860900	0.772200	0.080200
C321	C32	0.901700	0.577900	0.698700
N111	N11	0.484900	0.694180	0.799620
N121	N12	0.264300	0.023110	0.662810
N131	N13	0.445400	0.729400	0.887000
N141	N14	0.307000	0.770850	0.721350
N151	N15	0.339400	0.774800	0.840800
N161	N16	0.984900	0.799620	0.694180
N171	N17	0.764300	0.662810	0.023110
N181	N18	0.945400	0.887000	0.729400
N191	N19	0.807000	0.721350	0.770850
N201	N20	0.839400	0.840800	0.774800
O51	O5	0.589600	0.451830	0.830070
O61	O6	0.479600	0.461090	0.639110
O71	O7	0.089600	0.830070	0.451830
O81	O8	0.979600	0.639110	0.461090
