data_FARBIL_clean_PM
_symmetry_space_group_name_H-M	'P1'
_cell_length_a	6.750700
_cell_length_b	16.979800
_cell_length_c	12.923200
_cell_angle_alpha	90.000000
_cell_angle_beta	90.000000
_cell_angle_gamma	90.000000
_symmetry_Int_Tables_number 1

loop_
_symmetry_equiv_pos_as_xyz
'x,y,z'

loop_
_atom_site_label
_atom_site_type_symbol
_atom_site_fract_x
_atom_site_fract_y
_atom_site_fract_z
O11	O1	0.652900	0.166400	0.164300
O21	O2	0.322200	0.167400	0.146500
C11	C1	0.502000	0.066000	0.063700
C21	C2	0.659800	0.011400	0.070900
C31	C3	0.348700	0.052200	0.995500
H11	H1	0.244400	0.087900	0.994100
C41	C4	0.492500	0.139200	0.128900
C51	C5	0.831000	0.018500	0.146500
H21	H2	0.816100	0.065800	0.186400
H31	H3	0.953500	0.020500	0.108900
H41	H4	0.831500	0.973800	0.191900
O31	O3	0.847100	0.833600	0.664300
O41	O4	0.177800	0.832600	0.646500
C61	C6	0.998000	0.934000	0.563700
C71	C7	0.840200	0.988600	0.570900
C81	C8	0.151300	0.947800	0.495500
H51	H5	0.255600	0.912100	0.494100
C91	C9	0.007500	0.860800	0.628900
C101	C10	0.669000	0.981500	0.646500
H61	H6	0.683900	0.934200	0.686400
H71	H7	0.546500	0.979500	0.608900
H81	H8	0.668500	0.026200	0.691900
O51	O5	0.347100	0.666400	0.835700
O61	O6	0.677800	0.667400	0.853500
C111	C11	0.498000	0.566000	0.936300
C121	C12	0.340200	0.511400	0.929100
C131	C13	0.651300	0.552200	0.004500
H91	H9	0.755600	0.587900	0.005900
C141	C14	0.507500	0.639200	0.871100
C151	C15	0.169000	0.518500	0.853500
H101	H10	0.183900	0.565800	0.813600
H111	H11	0.046500	0.520500	0.891100
H121	H12	0.168500	0.473800	0.808100
O71	O7	0.152900	0.333600	0.335700
O81	O8	0.822200	0.332600	0.353500
C161	C16	0.002000	0.434000	0.436300
C171	C17	0.159800	0.488600	0.429100
C181	C18	0.848700	0.447800	0.504500
H131	H13	0.744400	0.412100	0.505900
C191	C19	0.992500	0.360800	0.371100
C201	C20	0.331000	0.481500	0.353500
H141	H14	0.316100	0.434200	0.313600
H151	H15	0.453500	0.479500	0.391100
H161	H16	0.331500	0.526200	0.308100
O91	O9	0.347100	0.833600	0.835700
O101	O10	0.677800	0.832600	0.853500
C211	C21	0.498000	0.934000	0.936300
C221	C22	0.340200	0.988600	0.929100
C231	C23	0.651300	0.947800	0.004500
H171	H17	0.755600	0.912100	0.005900
C241	C24	0.507500	0.860800	0.871100
C251	C25	0.169000	0.981500	0.853500
H181	H18	0.183900	0.934200	0.813600
H191	H19	0.046500	0.979500	0.891100
H201	H20	0.168500	0.026200	0.808100
O111	O11	0.152900	0.166400	0.335700
O121	O12	0.822200	0.167400	0.353500
C261	C26	0.002000	0.066000	0.436300
C271	C27	0.159800	0.011400	0.429100
C281	C28	0.848700	0.052200	0.504500
H211	H21	0.744400	0.087900	0.505900
C291	C29	0.992500	0.139200	0.371100
C301	C30	0.331000	0.018500	0.353500
H221	H22	0.316100	0.065800	0.313600
H231	H23	0.453500	0.020500	0.391100
H241	H24	0.331500	0.973800	0.308100
O131	O13	0.652900	0.333600	0.164300
O141	O14	0.322200	0.332600	0.146500
C311	C31	0.502000	0.434000	0.063700
C321	C32	0.659800	0.488600	0.070900
C331	C33	0.348700	0.447800	0.995500
H251	H25	0.244400	0.412100	0.994100
C341	C34	0.492500	0.360800	0.128900
C351	C35	0.831000	0.481500	0.146500
H261	H26	0.816100	0.434200	0.186400
H271	H27	0.953500	0.479500	0.108900
H281	H28	0.831500	0.526200	0.191900
O151	O15	0.847100	0.666400	0.664300
O161	O16	0.177800	0.667400	0.646500
C361	C36	0.998000	0.566000	0.563700
C371	C37	0.840200	0.511400	0.570900
C381	C38	0.151300	0.552200	0.495500
H291	H29	0.255600	0.587900	0.494100
C391	C39	0.007500	0.639200	0.628900
C401	C40	0.669000	0.518500	0.646500
H301	H30	0.683900	0.565800	0.686400
H311	H31	0.546500	0.520500	0.608900
H321	H32	0.668500	0.473800	0.691900
V11	V1	0.704700	0.250000	0.266550
O171	O17	0.482500	0.250000	0.313400
V21	V2	0.795300	0.750000	0.766550
O181	O18	0.017500	0.750000	0.813400
V31	V3	0.295300	0.750000	0.733450
O191	O19	0.517500	0.750000	0.686600
V41	V4	0.204700	0.250000	0.233450
O201	O20	0.982500	0.250000	0.186600
