data_FARFUA_clean_PM
_symmetry_space_group_name_H-M	'P1'
_cell_length_a	15.101000
_cell_length_b	18.652800
_cell_length_c	30.239700
_cell_angle_alpha	100.155000
_cell_angle_beta	90.000000
_cell_angle_gamma	113.878000
_symmetry_Int_Tables_number 1

loop_
_symmetry_equiv_pos_as_xyz
'x,y,z'

loop_
_atom_site_label
_atom_site_type_symbol
_atom_site_fract_x
_atom_site_fract_y
_atom_site_fract_z
Zn11	Zn1	0.269070	0.739400	0.448000
Zn21	Zn2	0.198230	0.150880	0.599480
Zn31	Zn3	0.823680	0.359460	0.281920
Zn41	Zn4	0.470330	0.739400	0.948000
Zn51	Zn5	0.952650	0.150880	0.099480
Zn61	Zn6	0.535780	0.359460	0.781920
H11	H1	0.990800	0.020000	0.573700
H21	H2	0.852000	0.000600	0.531100
H31	H3	0.018100	0.187800	0.473900
H41	H4	0.150600	0.203600	0.520000
H51	H5	0.519800	0.967000	0.391600
H61	H6	0.912100	0.272400	0.417700
H71	H7	0.924100	0.360400	0.368700
H81	H8	0.663700	0.115600	0.346200
H91	H9	0.012400	0.310000	0.162100
H101	H10	0.126800	0.392400	0.219700
H111	H11	0.272900	0.252000	0.189200
H121	H12	0.153200	0.174600	0.132800
H131	H13	0.204700	0.531800	0.307000
H141	H14	0.180300	0.627800	0.359000
H151	H15	0.425400	0.680400	0.429200
H161	H16	0.457000	0.586600	0.379200
H171	H17	0.603400	0.496000	0.334600
H181	H18	0.743200	0.472800	0.335700
H191	H19	0.625100	0.285800	0.237100
H201	H20	0.480900	0.300000	0.235500
H211	H21	0.452000	0.837600	0.514000
H221	H22	0.605300	0.940200	0.511200
H231	H23	0.371600	0.859000	0.393900
H241	H24	0.686900	0.203400	0.297300
H251	H25	0.029200	0.020000	0.073700
H261	H26	0.148600	0.000600	0.031100
H271	H27	0.169700	0.187800	0.973900
H281	H28	0.053000	0.203600	0.020000
H291	H29	0.447200	0.967000	0.891600
H301	H30	0.360300	0.272400	0.917700
H311	H31	0.436300	0.360400	0.868700
H321	H32	0.451900	0.115600	0.846200
H331	H33	0.297600	0.310000	0.662100
H341	H34	0.265600	0.392400	0.719700
H351	H35	0.979100	0.252000	0.689200
H361	H36	0.021400	0.174600	0.632800
H371	H37	0.327100	0.531800	0.807000
H381	H38	0.447500	0.627800	0.859000
H391	H39	0.255000	0.680400	0.929200
H401	H40	0.129600	0.586600	0.879200
H411	H41	0.892600	0.496000	0.834600
H421	H42	0.729600	0.472800	0.835700
H431	H43	0.660700	0.285800	0.737100
H441	H44	0.819100	0.300000	0.735500
H451	H45	0.385600	0.837600	0.014000
H461	H46	0.334900	0.940200	0.011200
H471	H47	0.487400	0.859000	0.893900
H481	H48	0.516500	0.203400	0.797300
C11	C1	0.995100	0.055400	0.553900
C21	C2	0.912600	0.043000	0.528700
C31	C3	0.921400	0.095600	0.499200
C41	C4	0.010400	0.154000	0.495000
C51	C5	0.089000	0.162400	0.522400
C61	C6	0.834300	0.088200	0.471600
C71	C7	0.674900	0.025800	0.449600
C81	C8	0.772200	0.129400	0.418800
C91	C9	0.577400	0.963200	0.452800
C101	C10	0.507500	0.940400	0.416400
C111	C11	0.783600	0.182800	0.386900
C121	C12	0.864000	0.257400	0.393600
C131	C13	0.871500	0.309200	0.363900
C141	C14	0.719200	0.165200	0.351500
C151	C15	0.065400	0.297400	0.168600
C161	C16	0.133400	0.347200	0.202600
C171	C17	0.213800	0.330200	0.211800
C181	C18	0.219300	0.265000	0.184900
C191	C19	0.146800	0.218600	0.151500
C201	C20	0.289000	0.380000	0.248100
C211	C21	0.348500	0.484600	0.306500
C221	C22	0.435500	0.412600	0.284000
C231	C23	0.332500	0.547800	0.337900
C241	C24	0.250800	0.561400	0.332000
C251	C25	0.237200	0.619000	0.363100
C261	C26	0.380300	0.649800	0.404000
C271	C27	0.399200	0.594000	0.374700
C281	C28	0.525300	0.399200	0.286200
C291	C29	0.605900	0.451400	0.314800
C301	C30	0.690000	0.438800	0.314400
C311	C31	0.620300	0.329200	0.257100
C321	C32	0.533700	0.336400	0.256100
C331	C33	0.466000	0.862800	0.488600
C341	C34	0.557000	0.925000	0.487100
C351	C35	0.419400	0.876800	0.418500
C361	C36	0.732400	0.218000	0.322500
C371	C37	0.060300	0.055400	0.053900
C381	C38	0.130400	0.043000	0.028700
C391	C39	0.174200	0.095600	0.999200
C401	C40	0.143600	0.154000	0.995000
C411	C41	0.073400	0.162400	0.022400
C421	C42	0.253900	0.088200	0.971600
C431	C43	0.350900	0.025800	0.949600
C441	C44	0.357200	0.129400	0.918800
C451	C45	0.385800	0.963200	0.952800
C461	C46	0.432900	0.940400	0.916400
C471	C47	0.399200	0.182800	0.886900
C481	C48	0.393400	0.257400	0.893600
C491	C49	0.437700	0.309200	0.863900
C501	C50	0.446000	0.165200	0.851500
C511	C51	0.232000	0.297400	0.668600
C521	C52	0.213800	0.347200	0.702600
C531	C53	0.116400	0.330200	0.711800
C541	C54	0.045700	0.265000	0.684900
C551	C55	0.071800	0.218600	0.651500
C561	C56	0.091000	0.380000	0.748100
C571	C57	0.136100	0.484600	0.806500
C581	C58	0.977100	0.412600	0.784000
C591	C59	0.215300	0.547800	0.837900
C601	C60	0.310600	0.561400	0.832000
C611	C61	0.381800	0.619000	0.863100
C621	C62	0.269500	0.649800	0.904000
C631	C63	0.194800	0.594000	0.874700
C641	C64	0.873900	0.399200	0.786200
C651	C65	0.845500	0.451400	0.814800
C661	C66	0.748800	0.438800	0.814400
C671	C67	0.708900	0.329200	0.757100
C681	C68	0.802700	0.336400	0.756100
C691	C69	0.396800	0.862800	0.988600
C701	C70	0.368000	0.925000	0.987100
C711	C71	0.457400	0.876800	0.918500
C721	C72	0.485600	0.218000	0.822500
I11	I1	0.170870	0.038100	0.641230
I21	I2	0.350470	0.228580	0.563140
I31	I3	0.812050	0.270920	0.205090
I41	I4	0.969100	0.488680	0.312230
I51	I5	0.139610	0.771360	0.413540
I61	I6	0.261140	0.682300	0.517930
I71	I7	0.867230	0.038100	0.141230
I81	I8	0.878110	0.228580	0.063140
I91	I9	0.458870	0.270920	0.705090
I101	I10	0.519580	0.488680	0.812230
I111	I11	0.631750	0.771360	0.913540
I121	I12	0.421160	0.682300	0.017930
N11	N1	0.082300	0.115800	0.551800
N21	N2	0.748000	0.031400	0.476700
N31	N3	0.683400	0.072200	0.420100
N41	N4	0.849200	0.139200	0.443700
N51	N5	0.069100	0.231400	0.143800
N61	N6	0.366200	0.362800	0.252400
N71	N7	0.430300	0.473800	0.312400
N81	N8	0.278400	0.441400	0.273300
N91	N9	0.299600	0.662800	0.398400
N101	N10	0.698500	0.379000	0.284400
N111	N11	0.806800	0.288000	0.329300
N121	N12	0.399100	0.839600	0.453900
N131	N13	0.033500	0.115800	0.051800
N141	N14	0.283400	0.031400	0.976700
N151	N15	0.388800	0.072200	0.920100
N161	N16	0.290000	0.139200	0.943700
N171	N17	0.162300	0.231400	0.643800
N181	N18	0.996600	0.362800	0.752400
N191	N19	0.043500	0.473800	0.812400
N201	N20	0.163000	0.441400	0.773300
N211	N21	0.363200	0.662800	0.898400
N221	N22	0.680500	0.379000	0.784400
N231	N23	0.481200	0.288000	0.829300
N241	N24	0.440500	0.839600	0.953900
Zn71	Zn7	0.529670	0.260600	0.052000
Zn81	Zn8	0.047350	0.849120	0.900520
Zn91	Zn9	0.464220	0.640540	0.218080
Zn101	Zn10	0.730930	0.260600	0.552000
Zn111	Zn11	0.801770	0.849120	0.400520
Zn121	Zn12	0.176320	0.640540	0.718080
H491	H49	0.970800	0.980000	0.926300
H501	H50	0.851400	0.999400	0.968900
H511	H51	0.830300	0.812200	0.026100
H521	H52	0.947000	0.796400	0.980000
H531	H53	0.552800	0.033000	0.108400
H541	H54	0.639700	0.727600	0.082300
H551	H55	0.563700	0.639600	0.131300
H561	H56	0.548100	0.884400	0.153800
H571	H57	0.702400	0.690000	0.337900
H581	H58	0.734400	0.607600	0.280300
H591	H59	0.020900	0.748000	0.310800
H601	H60	0.978600	0.825400	0.367200
H611	H61	0.672900	0.468200	0.193000
H621	H62	0.552500	0.372200	0.141000
H631	H63	0.745000	0.319600	0.070800
H641	H64	0.870400	0.413400	0.120800
H651	H65	0.107400	0.504000	0.165400
H661	H66	0.270400	0.527200	0.164300
H671	H67	0.339300	0.714200	0.262900
H681	H68	0.180900	0.700000	0.264500
H691	H69	0.614400	0.162400	0.986000
H701	H70	0.665100	0.059800	0.988800
H711	H71	0.512600	0.141000	0.106100
H721	H72	0.483500	0.796600	0.202700
H731	H73	0.009200	0.980000	0.426300
H741	H74	0.148000	0.999400	0.468900
H751	H75	0.981900	0.812200	0.526100
H761	H76	0.849400	0.796400	0.480000
H771	H77	0.480200	0.033000	0.608400
H781	H78	0.087900	0.727600	0.582300
H791	H79	0.075900	0.639600	0.631300
H801	H80	0.336300	0.884400	0.653800
H811	H81	0.987600	0.690000	0.837900
H821	H82	0.873200	0.607600	0.780300
H831	H83	0.727100	0.748000	0.810800
H841	H84	0.846800	0.825400	0.867200
H851	H85	0.795300	0.468200	0.693000
H861	H86	0.819700	0.372200	0.641000
H871	H87	0.574600	0.319600	0.570800
H881	H88	0.543000	0.413400	0.620800
H891	H89	0.396600	0.504000	0.665400
H901	H90	0.256800	0.527200	0.664300
H911	H91	0.374900	0.714200	0.762900
H921	H92	0.519100	0.700000	0.764500
H931	H93	0.548000	0.162400	0.486000
H941	H94	0.394700	0.059800	0.488800
H951	H95	0.628400	0.141000	0.606100
H961	H96	0.313100	0.796600	0.702700
C731	C73	0.939700	0.944600	0.946100
C741	C74	0.869600	0.957000	0.971300
C751	C75	0.825800	0.904400	0.000800
C761	C76	0.856400	0.846000	0.005000
C771	C77	0.926600	0.837600	0.977600
C781	C78	0.746100	0.911800	0.028400
C791	C79	0.649100	0.974200	0.050400
C801	C80	0.642800	0.870600	0.081200
C811	C81	0.614200	0.036800	0.047200
C821	C82	0.567100	0.059600	0.083600
C831	C83	0.600800	0.817200	0.113100
C841	C84	0.606600	0.742600	0.106400
C851	C85	0.562300	0.690800	0.136100
C861	C86	0.554000	0.834800	0.148500
C871	C87	0.768000	0.702600	0.331400
C881	C88	0.786200	0.652800	0.297400
C891	C89	0.883600	0.669800	0.288200
C901	C90	0.954300	0.735000	0.315100
C911	C91	0.928200	0.781400	0.348500
C921	C92	0.909000	0.620000	0.251900
C931	C93	0.863900	0.515400	0.193500
C941	C94	0.022900	0.587400	0.216000
C951	C95	0.784700	0.452200	0.162100
C961	C96	0.689400	0.438600	0.168000
C971	C97	0.618200	0.381000	0.136900
C981	C98	0.730500	0.350200	0.096000
C991	C99	0.805200	0.406000	0.125300
C1001	C100	0.126100	0.600800	0.213800
C1011	C101	0.154500	0.548600	0.185200
C1021	C102	0.251200	0.561200	0.185600
C1031	C103	0.291100	0.670800	0.242900
C1041	C104	0.197300	0.663600	0.243900
C1051	C105	0.603200	0.137200	0.011400
C1061	C106	0.632000	0.075000	0.012900
C1071	C107	0.542600	0.123200	0.081500
C1081	C108	0.514400	0.782000	0.177500
C1091	C109	0.004900	0.944600	0.446100
C1101	C110	0.087400	0.957000	0.471300
C1111	C111	0.078600	0.904400	0.500800
C1121	C112	0.989600	0.846000	0.505000
C1131	C113	0.911000	0.837600	0.477600
C1141	C114	0.165700	0.911800	0.528400
C1151	C115	0.325100	0.974200	0.550400
C1161	C116	0.227800	0.870600	0.581200
C1171	C117	0.422600	0.036800	0.547200
C1181	C118	0.492500	0.059600	0.583600
C1191	C119	0.216400	0.817200	0.613100
C1201	C120	0.136000	0.742600	0.606400
C1211	C121	0.128500	0.690800	0.636100
C1221	C122	0.280800	0.834800	0.648500
C1231	C123	0.934600	0.702600	0.831400
C1241	C124	0.866600	0.652800	0.797400
C1251	C125	0.786200	0.669800	0.788200
C1261	C126	0.780700	0.735000	0.815100
C1271	C127	0.853200	0.781400	0.848500
C1281	C128	0.711000	0.620000	0.751900
C1291	C129	0.651500	0.515400	0.693500
C1301	C130	0.564500	0.587400	0.716000
C1311	C131	0.667500	0.452200	0.662100
C1321	C132	0.749200	0.438600	0.668000
C1331	C133	0.762800	0.381000	0.636900
C1341	C134	0.619700	0.350200	0.596000
C1351	C135	0.600800	0.406000	0.625300
C1361	C136	0.474700	0.600800	0.713800
C1371	C137	0.394100	0.548600	0.685200
C1381	C138	0.310000	0.561200	0.685600
C1391	C139	0.379700	0.670800	0.742900
C1401	C140	0.466300	0.663600	0.743900
C1411	C141	0.534000	0.137200	0.511400
C1421	C142	0.443000	0.075000	0.512900
C1431	C143	0.580600	0.123200	0.581500
C1441	C144	0.267600	0.782000	0.677500
I131	I13	0.132770	0.961900	0.858770
I141	I14	0.121890	0.771420	0.936860
I151	I15	0.541130	0.729080	0.294910
I161	I16	0.480420	0.511320	0.187770
I171	I17	0.368250	0.228640	0.086460
I181	I18	0.578840	0.317700	0.982070
I191	I19	0.829130	0.961900	0.358770
I201	I20	0.649530	0.771420	0.436860
I211	I21	0.187950	0.729080	0.794910
I221	I22	0.030900	0.511320	0.687770
I231	I23	0.860390	0.228640	0.586460
I241	I24	0.738860	0.317700	0.482070
N251	N25	0.966500	0.884200	0.948200
N261	N26	0.716600	0.968600	0.023300
N271	N27	0.611200	0.927800	0.079900
N281	N28	0.710000	0.860800	0.056300
N291	N29	0.837700	0.768600	0.356200
N301	N30	0.003400	0.637200	0.247600
N311	N31	0.956500	0.526200	0.187600
N321	N32	0.837000	0.558600	0.226700
N331	N33	0.636800	0.337200	0.101600
N341	N34	0.319500	0.621000	0.215600
N351	N35	0.518800	0.712000	0.170700
N361	N36	0.559500	0.160400	0.046100
N371	N37	0.917700	0.884200	0.448200
N381	N38	0.252000	0.968600	0.523300
N391	N39	0.316600	0.927800	0.579900
N401	N40	0.150800	0.860800	0.556300
N411	N41	0.930900	0.768600	0.856200
N421	N42	0.633800	0.637200	0.747600
N431	N43	0.569700	0.526200	0.687600
N441	N44	0.721600	0.558600	0.726700
N451	N45	0.700400	0.337200	0.601600
N461	N46	0.301500	0.621000	0.715600
N471	N47	0.193200	0.712000	0.670700
N481	N48	0.600900	0.160400	0.546100
