data_FARFOU_clean_PM
_symmetry_space_group_name_H-M	'P1'
_cell_length_a	14.820900
_cell_length_b	19.150800
_cell_length_c	31.354000
_cell_angle_alpha	101.865000
_cell_angle_beta	90.000000
_cell_angle_gamma	112.765000
_symmetry_Int_Tables_number 1

loop_
_symmetry_equiv_pos_as_xyz
'x,y,z'

loop_
_atom_site_label
_atom_site_type_symbol
_atom_site_fract_x
_atom_site_fract_y
_atom_site_fract_z
Zn11	Zn1	0.717040	0.245520	0.560340
Zn21	Zn2	0.187370	0.658440	0.731210
Zn31	Zn3	0.036530	0.828200	0.910200
Zn41	Zn4	0.528480	0.245520	0.060340
Zn51	Zn5	0.471070	0.658440	0.231210
Zn61	Zn6	0.791670	0.828200	0.410200
H11	H1	0.610800	0.141600	0.617400
H21	H2	0.478800	0.032400	0.617500
H31	H3	0.383200	0.042800	0.500000
H41	H4	0.530400	0.148000	0.501100
H51	H5	0.572900	0.317800	0.576000
H61	H6	0.546200	0.418200	0.623200
H71	H7	0.797400	0.462000	0.694100
H81	H8	0.817300	0.362200	0.644300
H91	H9	0.396300	0.511200	0.672100
H101	H10	0.254900	0.535200	0.679900
H111	H11	0.390400	0.724600	0.769100
H121	H12	0.536800	0.705200	0.765800
H131	H13	0.080600	0.651400	0.646300
H141	H14	0.096800	0.727800	0.595400
H151	H15	0.343700	0.887800	0.663900
H161	H16	0.321200	0.806000	0.712800
H171	H17	0.724200	0.731800	0.816000
H181	H18	0.841900	0.802600	0.874600
H191	H19	0.996100	0.677600	0.839300
H201	H20	0.881900	0.601200	0.780800
H211	H21	0.848900	0.759400	0.476100
H221	H22	0.981800	0.776200	0.523100
H231	H23	0.134100	0.975800	0.484900
H241	H24	0.995800	0.954400	0.440800
H251	H25	0.530800	0.141600	0.117400
H261	H26	0.553600	0.032400	0.117500
H271	H27	0.659600	0.042800	0.000000
H281	H28	0.617600	0.148000	0.001100
H291	H29	0.744900	0.317800	0.076000
H301	H30	0.872000	0.418200	0.123200
H311	H31	0.664600	0.462000	0.194100
H321	H32	0.544900	0.362200	0.144300
H331	H33	0.114900	0.511200	0.172100
H341	H34	0.280300	0.535200	0.179900
H351	H35	0.334200	0.724600	0.269100
H361	H36	0.168400	0.705200	0.265800
H371	H37	0.570800	0.651400	0.146300
H381	H38	0.631000	0.727800	0.095400
H391	H39	0.544100	0.887800	0.163900
H401	H40	0.484800	0.806000	0.212800
H411	H41	0.007600	0.731800	0.316000
H421	H42	0.960700	0.802600	0.374600
H431	H43	0.681500	0.677600	0.339300
H441	H44	0.719300	0.601200	0.280800
H451	H45	0.910500	0.759400	0.976100
H461	H46	0.794400	0.776200	0.023100
H471	H47	0.841700	0.975800	0.984900
H481	H48	0.958600	0.954400	0.940800
C11	C1	0.565500	0.118400	0.592100
C21	C2	0.486100	0.055800	0.593100
C31	C3	0.412600	0.024200	0.558200
C41	C4	0.430800	0.060600	0.524400
C51	C5	0.519200	0.124000	0.525400
C61	C6	0.619100	0.348000	0.600400
C71	C7	0.602300	0.407600	0.628400
C81	C8	0.669700	0.450800	0.664000
C91	C9	0.750100	0.433200	0.669800
C101	C10	0.761300	0.373400	0.640100
C111	C11	0.657100	0.514400	0.695800
C121	C12	0.571200	0.587000	0.719800
C131	C13	0.717100	0.613600	0.754700
C141	C14	0.481300	0.602600	0.718600
C151	C15	0.397500	0.555200	0.693000
C161	C16	0.313600	0.570800	0.697200
C171	C17	0.391900	0.680400	0.749100
C181	C18	0.479600	0.669000	0.747600
C191	C19	0.135300	0.699800	0.649900
C201	C20	0.144400	0.745600	0.619700
C211	C21	0.289000	0.839400	0.659500
C221	C22	0.274400	0.789400	0.688300
C231	C23	0.791800	0.658200	0.792000
C241	C24	0.779100	0.719200	0.820200
C251	C25	0.850400	0.761200	0.854900
C261	C26	0.940100	0.688600	0.834700
C271	C27	0.872400	0.643000	0.799600
C281	C28	0.908000	0.804400	0.478400
C291	C29	0.986600	0.813200	0.506400
C301	C30	0.071000	0.877800	0.508600
C311	C31	0.075600	0.931000	0.483800
C321	C32	0.993100	0.917600	0.457500
C331	C33	0.160400	0.890400	0.537800
C341	C34	0.229900	0.863800	0.592100
C351	C35	0.319700	0.957800	0.559900
C361	C36	0.219000	0.814000	0.624400
C371	C37	0.552900	0.118400	0.092100
C381	C38	0.569700	0.055800	0.093100
C391	C39	0.611600	0.024200	0.058200
C401	C40	0.629800	0.060600	0.024400
C411	C41	0.604800	0.124000	0.025400
C421	C42	0.728900	0.348000	0.100400
C431	C43	0.805300	0.407600	0.128400
C441	C44	0.781100	0.450800	0.164000
C451	C45	0.683100	0.433200	0.169800
C461	C46	0.612100	0.373400	0.140100
C471	C47	0.857300	0.514400	0.195800
C481	C48	0.015800	0.587000	0.219800
C491	C49	0.896500	0.613600	0.254700
C501	C50	0.121300	0.602600	0.218600
C511	C51	0.157700	0.555200	0.193000
C521	C52	0.257200	0.570800	0.197200
C531	C53	0.288500	0.680400	0.249100
C541	C54	0.189400	0.669000	0.247600
C551	C55	0.564500	0.699800	0.149900
C561	C56	0.601200	0.745600	0.119700
C571	C57	0.550400	0.839400	0.159500
C581	C58	0.515000	0.789400	0.188300
C591	C59	0.866400	0.658200	0.292000
C601	C60	0.940100	0.719200	0.320200
C611	C61	0.910800	0.761200	0.354900
C621	C62	0.748500	0.688600	0.334700
C631	C63	0.770600	0.643000	0.299600
C641	C64	0.896400	0.804400	0.978400
C651	C65	0.826600	0.813200	0.006400
C661	C66	0.806800	0.877800	0.008600
C671	C67	0.855400	0.931000	0.983800
C681	C68	0.924500	0.917600	0.957500
C691	C69	0.730000	0.890400	0.037800
C701	C70	0.633900	0.863800	0.092100
C711	C71	0.638100	0.957800	0.059900
C721	C72	0.595000	0.814000	0.124400
I11	I1	0.726890	0.285300	0.487820
I21	I2	0.846110	0.213240	0.595720
I31	I3	0.210590	0.746620	0.806740
I41	I4	0.033040	0.536040	0.706340
I51	I5	0.117990	0.944440	0.874790
I61	I6	0.113950	0.756740	0.946260
I71	I7	0.558410	0.285300	0.987820
I81	I8	0.367130	0.213240	0.095720
I91	I9	0.536030	0.746620	0.306740
I101	I10	0.503000	0.536040	0.206340
I111	I11	0.826450	0.944440	0.374790
I121	I12	0.642790	0.756740	0.446260
N11	N1	0.586200	0.151400	0.557500
N21	N2	0.697300	0.331800	0.606400
N31	N3	0.727600	0.553600	0.728200
N41	N4	0.641600	0.634200	0.751200
N51	N5	0.575000	0.527400	0.689900
N61	N6	0.929700	0.748000	0.862600
N71	N7	0.311700	0.633200	0.724200
N81	N8	0.202500	0.722800	0.684000
N91	N9	0.911300	0.856000	0.454500
N101	N10	0.148100	0.846800	0.565600
N111	N11	0.313400	0.918800	0.590900
N121	N12	0.245400	0.945800	0.531200
N131	N13	0.565200	0.151400	0.057500
N141	N14	0.634500	0.331800	0.106400
N151	N15	0.826000	0.553600	0.228200
N161	N16	0.992600	0.634200	0.251200
N171	N17	0.952400	0.527400	0.189900
N181	N18	0.818300	0.748000	0.362600
N191	N19	0.321500	0.633200	0.224200
N201	N20	0.520300	0.722800	0.184000
N211	N21	0.944700	0.856000	0.954500
N221	N22	0.698700	0.846800	0.065600
N231	N23	0.605400	0.918800	0.090900
N241	N24	0.700400	0.945800	0.031200
Zn71	Zn7	0.471520	0.754480	0.939660
Zn81	Zn8	0.528930	0.341560	0.768790
Zn91	Zn9	0.208330	0.171800	0.589800
Zn101	Zn10	0.282960	0.754480	0.439660
Zn111	Zn11	0.812630	0.341560	0.268790
Zn121	Zn12	0.963470	0.171800	0.089800
H491	H49	0.469200	0.858400	0.882600
H501	H50	0.446400	0.967600	0.882500
H511	H51	0.340400	0.957200	0.000000
H521	H52	0.382400	0.852000	0.998900
H531	H53	0.255100	0.682200	0.924000
H541	H54	0.128000	0.581800	0.876800
H551	H55	0.335400	0.538000	0.805900
H561	H56	0.455100	0.637800	0.855700
H571	H57	0.885100	0.488800	0.827900
H581	H58	0.719700	0.464800	0.820100
H591	H59	0.665800	0.275400	0.730900
H601	H60	0.831600	0.294800	0.734200
H611	H61	0.429200	0.348600	0.853700
H621	H62	0.369000	0.272200	0.904600
H631	H63	0.455900	0.112200	0.836100
H641	H64	0.515200	0.194000	0.787200
H651	H65	0.992400	0.268200	0.684000
H661	H66	0.039300	0.197400	0.625400
H671	H67	0.318500	0.322400	0.660700
H681	H68	0.280700	0.398800	0.719200
H691	H69	0.089500	0.240600	0.023900
H701	H70	0.205600	0.223800	0.976900
H711	H71	0.158300	0.024200	0.015100
H721	H72	0.041400	0.045600	0.059200
H731	H73	0.389200	0.858400	0.382600
H741	H74	0.521200	0.967600	0.382500
H751	H75	0.616800	0.957200	0.500000
H761	H76	0.469600	0.852000	0.498900
H771	H77	0.427100	0.682200	0.424000
H781	H78	0.453800	0.581800	0.376800
H791	H79	0.202600	0.538000	0.305900
H801	H80	0.182700	0.637800	0.355700
H811	H81	0.603700	0.488800	0.327900
H821	H82	0.745100	0.464800	0.320100
H831	H83	0.609600	0.275400	0.230900
H841	H84	0.463200	0.294800	0.234200
H851	H85	0.919400	0.348600	0.353700
H861	H86	0.903200	0.272200	0.404600
H871	H87	0.656300	0.112200	0.336100
H881	H88	0.678800	0.194000	0.287200
H891	H89	0.275800	0.268200	0.184000
H901	H90	0.158100	0.197400	0.125400
H911	H91	0.003900	0.322400	0.160700
H921	H92	0.118100	0.398800	0.219200
H931	H93	0.151100	0.240600	0.523900
H941	H94	0.018200	0.223800	0.476900
H951	H95	0.865900	0.024200	0.515100
H961	H96	0.004200	0.045600	0.559200
C731	C73	0.447100	0.881600	0.907900
C741	C74	0.430300	0.944200	0.906900
C751	C75	0.388400	0.975800	0.941800
C761	C76	0.370200	0.939400	0.975600
C771	C77	0.395200	0.876000	0.974600
C781	C78	0.271100	0.652000	0.899600
C791	C79	0.194700	0.592400	0.871600
C801	C80	0.218900	0.549200	0.836000
C811	C81	0.316900	0.566800	0.830200
C821	C82	0.387900	0.626600	0.859900
C831	C83	0.142700	0.485600	0.804200
C841	C84	0.984200	0.413000	0.780200
C851	C85	0.103500	0.386400	0.745300
C861	C86	0.878700	0.397400	0.781400
C871	C87	0.842300	0.444800	0.807000
C881	C88	0.742800	0.429200	0.802800
C891	C89	0.711500	0.319600	0.750900
C901	C90	0.810600	0.331000	0.752400
C911	C91	0.435500	0.300200	0.850100
C921	C92	0.398800	0.254400	0.880300
C931	C93	0.449600	0.160600	0.840500
C941	C94	0.485000	0.210600	0.811700
C951	C95	0.133600	0.341800	0.708000
C961	C96	0.059900	0.280800	0.679800
C971	C97	0.089200	0.238800	0.645100
C981	C98	0.251500	0.311400	0.665300
C991	C99	0.229400	0.357000	0.700400
C1001	C100	0.103600	0.195600	0.021600
C1011	C101	0.173400	0.186800	0.993600
C1021	C102	0.193200	0.122200	0.991400
C1031	C103	0.144600	0.069000	0.016200
C1041	C104	0.075500	0.082400	0.042500
C1051	C105	0.270000	0.109600	0.962200
C1061	C106	0.366100	0.136200	0.907900
C1071	C107	0.361900	0.042200	0.940100
C1081	C108	0.405000	0.186000	0.875600
C1091	C109	0.434500	0.881600	0.407900
C1101	C110	0.513900	0.944200	0.406900
C1111	C111	0.587400	0.975800	0.441800
C1121	C112	0.569200	0.939400	0.475600
C1131	C113	0.480800	0.876000	0.474600
C1141	C114	0.380900	0.652000	0.399600
C1151	C115	0.397700	0.592400	0.371600
C1161	C116	0.330300	0.549200	0.336000
C1171	C117	0.249900	0.566800	0.330200
C1181	C118	0.238700	0.626600	0.359900
C1191	C119	0.342900	0.485600	0.304200
C1201	C120	0.428800	0.413000	0.280200
C1211	C121	0.282900	0.386400	0.245300
C1221	C122	0.518700	0.397400	0.281400
C1231	C123	0.602500	0.444800	0.307000
C1241	C124	0.686400	0.429200	0.302800
C1251	C125	0.608100	0.319600	0.250900
C1261	C126	0.520400	0.331000	0.252400
C1271	C127	0.864700	0.300200	0.350100
C1281	C128	0.855600	0.254400	0.380300
C1291	C129	0.711000	0.160600	0.340500
C1301	C130	0.725600	0.210600	0.311700
C1311	C131	0.208200	0.341800	0.208000
C1321	C132	0.220900	0.280800	0.179800
C1331	C133	0.149600	0.238800	0.145100
C1341	C134	0.059900	0.311400	0.165300
C1351	C135	0.127600	0.357000	0.200400
C1361	C136	0.092000	0.195600	0.521600
C1371	C137	0.013400	0.186800	0.493600
C1381	C138	0.929000	0.122200	0.491400
C1391	C139	0.924400	0.069000	0.516200
C1401	C140	0.006900	0.082400	0.542500
C1411	C141	0.839600	0.109600	0.462200
C1421	C142	0.770100	0.136200	0.407900
C1431	C143	0.680300	0.042200	0.440100
C1441	C144	0.781000	0.186000	0.375600
I131	I13	0.441590	0.714700	0.012180
I141	I14	0.632870	0.786760	0.904280
I151	I15	0.463970	0.253380	0.693260
I161	I16	0.497000	0.463960	0.793660
I171	I17	0.173550	0.055560	0.625210
I181	I18	0.357210	0.243260	0.553740
I191	I19	0.273110	0.714700	0.512180
I201	I20	0.153890	0.786760	0.404280
I211	I21	0.789410	0.253380	0.193260
I221	I22	0.966960	0.463960	0.293660
I231	I23	0.882010	0.055560	0.125210
I241	I24	0.886050	0.243260	0.053740
N251	N25	0.434800	0.848600	0.942500
N261	N26	0.365500	0.668200	0.893600
N271	N27	0.174000	0.446400	0.771800
N281	N28	0.007400	0.365800	0.748800
N291	N29	0.047600	0.472600	0.810100
N301	N30	0.181700	0.252000	0.637400
N311	N31	0.678500	0.366800	0.775800
N321	N32	0.479700	0.277200	0.816000
N331	N33	0.055300	0.144000	0.045500
N341	N34	0.301300	0.153200	0.934400
N351	N35	0.394600	0.081200	0.909100
N361	N36	0.299600	0.054200	0.968800
N371	N37	0.413800	0.848600	0.442500
N381	N38	0.302700	0.668200	0.393600
N391	N39	0.272400	0.446400	0.271800
N401	N40	0.358400	0.365800	0.248800
N411	N41	0.425000	0.472600	0.310100
N421	N42	0.070300	0.252000	0.137400
N431	N43	0.688300	0.366800	0.275800
N441	N44	0.797500	0.277200	0.316000
N451	N45	0.088700	0.144000	0.545500
N461	N46	0.851900	0.153200	0.434400
N471	N47	0.686600	0.081200	0.409100
N481	N48	0.754600	0.054200	0.468800
