data_FARFIO_clean_PM
_symmetry_space_group_name_H-M	'P1'
_cell_length_a	14.920200
_cell_length_b	19.197700
_cell_length_c	31.233300
_cell_angle_alpha	102.452000
_cell_angle_beta	90.000000
_cell_angle_gamma	112.867000
_symmetry_Int_Tables_number 1

loop_
_symmetry_equiv_pos_as_xyz
'x,y,z'

loop_
_atom_site_label
_atom_site_type_symbol
_atom_site_fract_x
_atom_site_fract_y
_atom_site_fract_z
Zn11	Zn1	0.800650	0.837880	0.906420
Zn21	Zn2	0.469810	0.648560	0.719860
Zn31	Zn3	0.525890	0.248400	0.558030
Zn41	Zn4	0.037230	0.837880	0.406420
Zn51	Zn5	0.178750	0.648560	0.219860
Zn61	Zn6	0.722510	0.248400	0.058030
H11	H1	0.849200	0.781000	0.980300
H21	H2	0.980500	0.796800	0.027000
H31	H3	0.144300	0.982400	0.979700
H41	H4	0.007500	0.962800	0.935900
H51	H5	0.974600	0.816200	0.869000
H61	H6	0.015400	0.736200	0.813400
H71	H7	0.728000	0.605400	0.779900
H81	H8	0.694900	0.687000	0.837400
H91	H9	0.866400	0.397200	0.628700
H101	H10	0.739500	0.303800	0.579400
H111	H11	0.544900	0.362000	0.645300
H121	H12	0.665800	0.458600	0.696500
H131	H13	0.173100	0.694200	0.764600
H141	H14	0.336900	0.716000	0.762700
H151	H15	0.275200	0.523000	0.672900
H161	H16	0.109800	0.496600	0.670700
H171	H17	0.086800	0.644400	0.132300
H181	H18	0.099200	0.724600	0.084900
H191	H19	0.341900	0.885800	0.160400
H201	H20	0.316500	0.804000	0.208000
H211	H21	0.378800	0.061800	0.004300
H221	H22	0.503600	0.004200	0.097400
H231	H23	0.525900	0.163000	0.004200
H241	H24	0.648000	0.106800	0.094200
H251	H25	0.931800	0.781000	0.480300
H261	H26	0.816300	0.796800	0.527000
H271	H27	0.838100	0.982400	0.479700
H281	H28	0.955300	0.962800	0.435900
H291	H29	0.841600	0.816200	0.369000
H301	H30	0.720800	0.736200	0.313400
H311	H31	0.877400	0.605400	0.279900
H321	H32	0.992100	0.687000	0.337400
H331	H33	0.530800	0.397200	0.128700
H341	H34	0.564300	0.303800	0.079400
H351	H35	0.817100	0.362000	0.145300
H361	H36	0.792800	0.458600	0.196500
H371	H37	0.521100	0.694200	0.264600
H381	H38	0.379100	0.716000	0.262700
H391	H39	0.247800	0.523000	0.172900
H401	H40	0.386800	0.496600	0.170700
H411	H41	0.557600	0.644400	0.632300
H421	H42	0.625400	0.724600	0.584900
H431	H43	0.543900	0.885800	0.660400
H441	H44	0.487500	0.804000	0.708000
H451	H45	0.683000	0.061800	0.504300
H461	H46	0.500600	0.004200	0.597400
H471	H47	0.637100	0.163000	0.504200
H481	H48	0.458800	0.106800	0.594200
C11	C1	0.910600	0.822200	0.980000
C21	C2	0.988500	0.830800	0.007900
C31	C3	0.078100	0.890000	0.007000
C41	C4	0.084310	0.940020	0.980100
C51	C5	0.002700	0.927800	0.954000
C61	C6	0.924000	0.772200	0.850800
C71	C7	0.948700	0.725000	0.817700
C81	C8	0.876290	0.661580	0.790600
C91	C9	0.780000	0.648000	0.798100
C101	C10	0.761100	0.697200	0.832300
C111	C11	0.902740	0.609680	0.754900
C121	C12	0.017480	0.577760	0.719900
C131	C13	0.858290	0.504380	0.698500
C141	C14	0.780200	0.440000	0.667600
C151	C15	0.801100	0.391800	0.632600
C161	C16	0.725000	0.336000	0.603600
C171	C17	0.611220	0.370040	0.642000
C181	C18	0.682670	0.427740	0.672500
C191	C19	0.122990	0.592780	0.718100
C201	C20	0.192200	0.658000	0.745200
C211	C21	0.289700	0.670400	0.744000
C221	C22	0.253900	0.558400	0.691600
C231	C23	0.155200	0.542000	0.690300
C241	C24	0.138200	0.694600	0.138300
C251	C25	0.146000	0.741800	0.109700
C261	C26	0.222230	0.813860	0.117200
C271	C27	0.287900	0.836800	0.154300
C281	C28	0.273000	0.787200	0.182100
C291	C29	0.232760	0.864320	0.086300
C301	C30	0.166010	0.898620	0.033950
C311	C31	0.326400	0.961000	0.055500
C321	C32	0.421400	0.024600	0.053300
C331	C33	0.432300	0.071200	0.024400
C341	C34	0.505400	0.037600	0.078700
C351	C35	0.520500	0.131600	0.024500
C361	C36	0.591200	0.099000	0.076700
C371	C37	0.911600	0.822200	0.480000
C381	C38	0.842300	0.830800	0.507900
C391	C39	0.811900	0.890000	0.507000
C401	C40	0.855710	0.940020	0.480100
C411	C41	0.925100	0.927800	0.454000
C421	C42	0.848200	0.772200	0.350800
C431	C43	0.776300	0.725000	0.317700
C441	C44	0.785290	0.661580	0.290600
C451	C45	0.868000	0.648000	0.298100
C461	C46	0.936100	0.697200	0.332300
C471	C47	0.706940	0.609680	0.254900
C481	C48	0.560280	0.577760	0.219900
C491	C49	0.646090	0.504380	0.198500
C501	C50	0.659800	0.440000	0.167600
C511	C51	0.590700	0.391800	0.132600
C521	C52	0.611000	0.336000	0.103600
C531	C53	0.758820	0.370040	0.142000
C541	C54	0.745070	0.427740	0.172500
C551	C55	0.469790	0.592780	0.218100
C561	C56	0.465800	0.658000	0.245200
C571	C57	0.380700	0.670400	0.244000
C581	C58	0.304500	0.558400	0.191600
C591	C59	0.386800	0.542000	0.190300
C601	C60	0.556400	0.694600	0.638300
C611	C61	0.595800	0.741800	0.609700
C621	C62	0.591630	0.813860	0.617200
C631	C63	0.548900	0.836800	0.654300
C641	C64	0.514200	0.787200	0.682100
C651	C65	0.631560	0.864320	0.586300
C661	C66	0.732610	0.898620	0.533950
C671	C67	0.634600	0.961000	0.555500
C681	C68	0.603200	0.024600	0.553300
C691	C69	0.638900	0.071200	0.524400
C701	C70	0.532200	0.037600	0.578700
C711	C71	0.611100	0.131600	0.524500
C721	C72	0.507800	0.099000	0.576700
I11	I1	0.824680	0.950720	0.872310
I21	I2	0.650540	0.760680	0.939320
I31	I3	0.546640	0.738240	0.794760
I41	I4	0.497780	0.524820	0.691990
I51	I5	0.362960	0.225140	0.590080
I61	I6	0.574790	0.298660	0.488980
I71	I7	0.126040	0.950720	0.372310
I81	I8	0.110140	0.760680	0.439320
I91	I9	0.191600	0.738240	0.294760
I101	I10	0.027040	0.524820	0.191990
I111	I11	0.862180	0.225140	0.090080
I121	I12	0.723870	0.298660	0.988980
N11	N1	0.916890	0.868380	0.953040
N21	N2	0.830740	0.758080	0.858500
N31	N3	0.997480	0.628760	0.750450
N41	N4	0.951960	0.515320	0.692320
N51	N5	0.830020	0.548440	0.730250
N61	N6	0.320640	0.621680	0.717670
N71	N7	0.631610	0.325020	0.607850
N81	N8	0.200280	0.716960	0.174200
N91	N9	0.152240	0.851680	0.061420
N101	N10	0.251690	0.952380	0.028430
N111	N11	0.321170	0.919740	0.085640
N121	N12	0.598100	0.148000	0.051410
N131	N13	0.951490	0.868380	0.453040
N141	N14	0.927340	0.758080	0.358500
N151	N15	0.631280	0.628760	0.250450
N161	N16	0.563360	0.515320	0.192320
N171	N17	0.718420	0.548440	0.230250
N181	N18	0.301040	0.621680	0.217670
N191	N19	0.693410	0.325020	0.107850
N201	N20	0.516680	0.716960	0.674200
N211	N21	0.699440	0.851680	0.561420
N221	N22	0.700690	0.952380	0.528430
N231	N23	0.598570	0.919740	0.585640
N241	N24	0.549900	0.148000	0.551410
Zn71	Zn7	0.962770	0.162120	0.593580
Zn81	Zn8	0.821250	0.351440	0.780140
Zn91	Zn9	0.277490	0.751600	0.941970
Zn101	Zn10	0.199350	0.162120	0.093580
Zn111	Zn11	0.530190	0.351440	0.280140
Zn121	Zn12	0.474110	0.751600	0.441970
H491	H49	0.068200	0.219000	0.519700
H501	H50	0.183700	0.203200	0.473000
H511	H51	0.161900	0.017600	0.520300
H521	H52	0.044700	0.037200	0.564100
H531	H53	0.158400	0.183800	0.631000
H541	H54	0.279200	0.263800	0.686600
H551	H55	0.122600	0.394600	0.720100
H561	H56	0.007900	0.313000	0.662600
H571	H57	0.469200	0.602800	0.871300
H581	H58	0.435700	0.696200	0.920600
H591	H59	0.182900	0.638000	0.854700
H601	H60	0.207200	0.541400	0.803500
H611	H61	0.478900	0.305800	0.735400
H621	H62	0.620900	0.284000	0.737300
H631	H63	0.752200	0.477000	0.827100
H641	H64	0.613200	0.503400	0.829300
H651	H65	0.442400	0.355600	0.367700
H661	H66	0.374600	0.275400	0.415100
H671	H67	0.456100	0.114200	0.339600
H681	H68	0.512500	0.196000	0.292000
H691	H69	0.317000	0.938200	0.495700
H701	H70	0.499400	0.995800	0.402600
H711	H71	0.362900	0.837000	0.495800
H721	H72	0.541200	0.893200	0.405800
H731	H73	0.150800	0.219000	0.019700
H741	H74	0.019500	0.203200	0.973000
H751	H75	0.855700	0.017600	0.020300
H761	H76	0.992500	0.037200	0.064100
H771	H77	0.025400	0.183800	0.131000
H781	H78	0.984600	0.263800	0.186600
H791	H79	0.272000	0.394600	0.220100
H801	H80	0.305100	0.313000	0.162600
H811	H81	0.133600	0.602800	0.371300
H821	H82	0.260500	0.696200	0.420600
H831	H83	0.455100	0.638000	0.354700
H841	H84	0.334200	0.541400	0.303500
H851	H85	0.826900	0.305800	0.235400
H861	H86	0.663100	0.284000	0.237300
H871	H87	0.724800	0.477000	0.327100
H881	H88	0.890200	0.503400	0.329300
H891	H89	0.913200	0.355600	0.867700
H901	H90	0.900800	0.275400	0.915100
H911	H91	0.658100	0.114200	0.839600
H921	H92	0.683500	0.196000	0.792000
H931	H93	0.621200	0.938200	0.995700
H941	H94	0.496400	0.995800	0.902600
H951	H95	0.474100	0.837000	0.995800
H961	H96	0.352000	0.893200	0.905800
C731	C73	0.088400	0.177800	0.520000
C741	C74	0.157700	0.169200	0.492100
C751	C75	0.188100	0.110000	0.493000
C761	C76	0.144290	0.059980	0.519900
C771	C77	0.074900	0.072200	0.546000
C781	C78	0.151800	0.227800	0.649200
C791	C79	0.223700	0.275000	0.682300
C801	C80	0.214710	0.338420	0.709400
C811	C81	0.132000	0.352000	0.701900
C821	C82	0.063900	0.302800	0.667700
C831	C83	0.293060	0.390320	0.745100
C841	C84	0.439720	0.422240	0.780100
C851	C85	0.353910	0.495620	0.801500
C861	C86	0.340200	0.560000	0.832400
C871	C87	0.409300	0.608200	0.867400
C881	C88	0.389000	0.664000	0.896400
C891	C89	0.241180	0.629960	0.858000
C901	C90	0.254930	0.572260	0.827500
C911	C91	0.530210	0.407220	0.781900
C921	C92	0.534200	0.342000	0.754800
C931	C93	0.619300	0.329600	0.756000
C941	C94	0.695500	0.441600	0.808400
C951	C95	0.613200	0.458000	0.809700
C961	C96	0.443600	0.305400	0.361700
C971	C97	0.404200	0.258200	0.390300
C981	C98	0.408370	0.186140	0.382800
C991	C99	0.451100	0.163200	0.345700
C1001	C100	0.485800	0.212800	0.317900
C1011	C101	0.368440	0.135680	0.413700
C1021	C102	0.267390	0.101380	0.466050
C1031	C103	0.365400	0.039000	0.444500
C1041	C104	0.396800	0.975400	0.446700
C1051	C105	0.361100	0.928800	0.475600
C1061	C106	0.467800	0.962400	0.421300
C1071	C107	0.388900	0.868400	0.475500
C1081	C108	0.492200	0.901000	0.423300
C1091	C109	0.089400	0.177800	0.020000
C1101	C110	0.011500	0.169200	0.992100
C1111	C111	0.921900	0.110000	0.993000
C1121	C112	0.915690	0.059980	0.019900
C1131	C113	0.997300	0.072200	0.046000
C1141	C114	0.076000	0.227800	0.149200
C1151	C115	0.051300	0.275000	0.182300
C1161	C116	0.123710	0.338420	0.209400
C1171	C117	0.220000	0.352000	0.201900
C1181	C118	0.238900	0.302800	0.167700
C1191	C119	0.097260	0.390320	0.245100
C1201	C120	0.982520	0.422240	0.280100
C1211	C121	0.141710	0.495620	0.301500
C1221	C122	0.219800	0.560000	0.332400
C1231	C123	0.198900	0.608200	0.367400
C1241	C124	0.275000	0.664000	0.396400
C1251	C125	0.388780	0.629960	0.358000
C1261	C126	0.317330	0.572260	0.327500
C1271	C127	0.877010	0.407220	0.281900
C1281	C128	0.807800	0.342000	0.254800
C1291	C129	0.710300	0.329600	0.256000
C1301	C130	0.746100	0.441600	0.308400
C1311	C131	0.844800	0.458000	0.309700
C1321	C132	0.861800	0.305400	0.861700
C1331	C133	0.854000	0.258200	0.890300
C1341	C134	0.777770	0.186140	0.882800
C1351	C135	0.712100	0.163200	0.845700
C1361	C136	0.727000	0.212800	0.817900
C1371	C137	0.767240	0.135680	0.913700
C1381	C138	0.833990	0.101380	0.966050
C1391	C139	0.673600	0.039000	0.944500
C1401	C140	0.578600	0.975400	0.946700
C1411	C141	0.567700	0.928800	0.975600
C1421	C142	0.494600	0.962400	0.921300
C1431	C143	0.479500	0.868400	0.975500
C1441	C144	0.408800	0.901000	0.923300
I131	I13	0.873960	0.049280	0.627690
I141	I14	0.889860	0.239320	0.560680
I151	I15	0.808400	0.261760	0.705240
I161	I16	0.972960	0.475180	0.808010
I171	I17	0.137820	0.774860	0.909920
I181	I18	0.276130	0.701340	0.011020
I191	I19	0.175320	0.049280	0.127690
I201	I20	0.349460	0.239320	0.060680
I211	I21	0.453360	0.261760	0.205240
I221	I22	0.502220	0.475180	0.308010
I231	I23	0.637040	0.774860	0.409920
I241	I24	0.425210	0.701340	0.511020
N251	N25	0.048510	0.131620	0.546960
N261	N26	0.072660	0.241920	0.641500
N271	N27	0.368720	0.371240	0.749550
N281	N28	0.436640	0.484680	0.807680
N291	N29	0.281580	0.451560	0.769750
N301	N30	0.698960	0.378320	0.782330
N311	N31	0.306590	0.674980	0.892150
N321	N32	0.483320	0.283040	0.325800
N331	N33	0.300560	0.148320	0.438580
N341	N34	0.299310	0.047620	0.471570
N351	N35	0.401430	0.080260	0.414360
N361	N36	0.450100	0.852000	0.448590
N371	N37	0.083110	0.131620	0.046960
N381	N38	0.169260	0.241920	0.141500
N391	N39	0.002520	0.371240	0.249550
N401	N40	0.048040	0.484680	0.307680
N411	N41	0.169980	0.451560	0.269750
N421	N42	0.679360	0.378320	0.282330
N431	N43	0.368390	0.674980	0.392150
N441	N44	0.799720	0.283040	0.825800
N451	N45	0.847760	0.148320	0.938580
N461	N46	0.748310	0.047620	0.971570
N471	N47	0.678830	0.080260	0.914360
N481	N48	0.401900	0.852000	0.948590
