data_FASVIH_clean_PM
_symmetry_space_group_name_H-M	'P1'
_cell_length_a	7.405400
_cell_length_b	18.811000
_cell_length_c	12.006000
_cell_angle_alpha	90.000000
_cell_angle_beta	97.060000
_cell_angle_gamma	90.000000
_symmetry_Int_Tables_number 1

loop_
_symmetry_equiv_pos_as_xyz
'x,y,z'

loop_
_atom_site_label
_atom_site_type_symbol
_atom_site_fract_x
_atom_site_fract_y
_atom_site_fract_z
C11	C1	0.031400	0.176400	0.326100
C21	C2	0.959700	0.238900	0.256900
C31	C3	0.777300	0.257200	0.252600
H11	H1	0.702000	0.231500	0.294300
C41	C4	0.708200	0.312200	0.188200
H21	H2	0.585300	0.323000	0.186100
C51	C5	0.816400	0.353700	0.124000
C61	C6	0.000000	0.335400	0.126900
C71	C7	0.069300	0.277800	0.195000
H31	H3	0.191800	0.266000	0.198000
C81	C8	0.124300	0.374800	0.061400
Cu11	Cu1	0.937610	0.075520	0.493780
Cu21	Cu2	0.317400	0.059010	0.431500
O11	O1	0.911100	0.145500	0.376900
O21	O2	0.195100	0.158940	0.331000
O31	O3	0.294900	0.366570	0.087700
O41	O4	0.066500	0.416760	0.981700
O51	O5	0.919700	0.991600	0.589800
O61	O6	0.736900	0.407380	0.066700
C91	C9	0.468600	0.676400	0.173900
C101	C10	0.540300	0.738900	0.243100
C111	C11	0.722700	0.757200	0.247400
H41	H4	0.798000	0.731500	0.205700
C121	C12	0.791800	0.812200	0.311800
H51	H5	0.914700	0.823000	0.313900
C131	C13	0.683600	0.853700	0.376000
C141	C14	0.500000	0.835400	0.373100
C151	C15	0.430700	0.777800	0.305000
H61	H6	0.308200	0.766000	0.302000
C161	C16	0.375700	0.874800	0.438600
Cu31	Cu3	0.562390	0.575520	0.006220
Cu41	Cu4	0.182600	0.559010	0.068500
O71	O7	0.588900	0.645500	0.123100
O81	O8	0.304900	0.658940	0.169000
O91	O9	0.205100	0.866570	0.412300
O101	O10	0.433500	0.916760	0.518300
O111	O11	0.580300	0.491600	0.910200
O121	O12	0.763100	0.907380	0.433300
C171	C17	0.968600	0.823600	0.673900
C181	C18	0.040300	0.761100	0.743100
C191	C19	0.222700	0.742800	0.747400
H71	H7	0.298000	0.768500	0.705700
C201	C20	0.291800	0.687800	0.811800
H81	H8	0.414700	0.677000	0.813900
C211	C21	0.183600	0.646300	0.876000
C221	C22	0.000000	0.664600	0.873100
C231	C23	0.930700	0.722200	0.805000
H91	H9	0.808200	0.734000	0.802000
C241	C24	0.875700	0.625200	0.938600
Cu51	Cu5	0.062390	0.924480	0.506220
Cu61	Cu6	0.682600	0.940990	0.568500
O131	O13	0.088900	0.854500	0.623100
O141	O14	0.804900	0.841060	0.669000
O151	O15	0.705100	0.633430	0.912300
O161	O16	0.933500	0.583240	0.018300
O171	O17	0.080300	0.008400	0.410200
O181	O18	0.263100	0.592620	0.933300
C251	C25	0.531400	0.323600	0.826100
C261	C26	0.459700	0.261100	0.756900
C271	C27	0.277300	0.242800	0.752600
H101	H10	0.202000	0.268500	0.794300
C281	C28	0.208200	0.187800	0.688200
H111	H11	0.085300	0.177000	0.686100
C291	C29	0.316400	0.146300	0.624000
C301	C30	0.500000	0.164600	0.626900
C311	C31	0.569300	0.222200	0.695000
H121	H12	0.691800	0.234000	0.698000
C321	C32	0.624300	0.125200	0.561400
Cu71	Cu7	0.437610	0.424480	0.993780
Cu81	Cu8	0.817400	0.440990	0.931500
O191	O19	0.411100	0.354500	0.876900
O201	O20	0.695100	0.341060	0.831000
O211	O21	0.794900	0.133430	0.587700
O221	O22	0.566500	0.083240	0.481700
O231	O23	0.419700	0.508400	0.089800
O241	O24	0.236900	0.092620	0.566700
