data_FATVOM_clean_PM
_symmetry_space_group_name_H-M	'P1'
_cell_length_a	11.350200
_cell_length_b	16.150100
_cell_length_c	11.365800
_cell_angle_alpha	90.000000
_cell_angle_beta	101.935000
_cell_angle_gamma	90.000000
_symmetry_Int_Tables_number 1

loop_
_symmetry_equiv_pos_as_xyz
'x,y,z'

loop_
_atom_site_label
_atom_site_type_symbol
_atom_site_fract_x
_atom_site_fract_y
_atom_site_fract_z
Cu11	Cu1	0.372570	0.589840	0.616270
O11	O1	0.418440	0.571680	0.453980
O21	O2	0.394780	0.692720	0.526380
O31	O3	0.592360	0.518850	0.310500
N11	N1	0.341690	0.646710	0.760030
C11	C1	0.462690	0.690390	0.341930
C21	C2	0.462700	0.776960	0.341000
H11	H1	0.437400	0.805900	0.402100
C31	C3	0.422640	0.648860	0.444160
C41	C4	0.339500	0.729460	0.764800
H21	H2	0.362200	0.759500	0.703200
C51	C5	0.305000	0.771900	0.857200
H31	H3	0.305000	0.829500	0.857500
C61	C6	0.270030	0.728360	0.950040
C71	C7	0.275200	0.642530	0.945400
H41	H4	0.254700	0.611000	0.006700
C81	C8	0.310600	0.603900	0.850300
H51	H5	0.313000	0.546400	0.848600
Cu21	Cu2	0.872570	0.089840	0.616270
O41	O4	0.918440	0.071680	0.453980
O51	O5	0.894780	0.192720	0.526380
O61	O6	0.092360	0.018850	0.310500
N21	N2	0.841690	0.146710	0.760030
C91	C9	0.962690	0.190390	0.341930
C101	C10	0.962700	0.276960	0.341000
H61	H6	0.937400	0.305900	0.402100
C111	C11	0.922640	0.148860	0.444160
C121	C12	0.839500	0.229460	0.764800
H71	H7	0.862200	0.259500	0.703200
C131	C13	0.805000	0.271900	0.857200
H81	H8	0.805000	0.329500	0.857500
C141	C14	0.770030	0.228360	0.950040
C151	C15	0.775200	0.142530	0.945400
H91	H9	0.754700	0.111000	0.006700
C161	C16	0.810600	0.103900	0.850300
H101	H10	0.813000	0.046400	0.848600
Cu31	Cu3	0.627430	0.589840	0.883730
O71	O7	0.581560	0.571680	0.046020
O81	O8	0.605220	0.692720	0.973620
O91	O9	0.407640	0.518850	0.189500
N31	N3	0.658310	0.646710	0.739970
C171	C17	0.537310	0.690390	0.158070
C181	C18	0.537300	0.776960	0.159000
H111	H11	0.562600	0.805900	0.097900
C191	C19	0.577360	0.648860	0.055840
C201	C20	0.660500	0.729460	0.735200
H121	H12	0.637800	0.759500	0.796800
C211	C21	0.695000	0.771900	0.642800
H131	H13	0.695000	0.829500	0.642500
C221	C22	0.729970	0.728360	0.549960
C231	C23	0.724800	0.642530	0.554600
H141	H14	0.745300	0.611000	0.493300
C241	C24	0.689400	0.603900	0.649700
H151	H15	0.687000	0.546400	0.651400
Cu41	Cu4	0.127430	0.089840	0.883730
O101	O10	0.081560	0.071680	0.046020
O111	O11	0.105220	0.192720	0.973620
O121	O12	0.907640	0.018850	0.189500
N41	N4	0.158310	0.146710	0.739970
C251	C25	0.037310	0.190390	0.158070
C261	C26	0.037300	0.276960	0.159000
H161	H16	0.062600	0.305900	0.097900
C271	C27	0.077360	0.148860	0.055840
C281	C28	0.160500	0.229460	0.735200
H171	H17	0.137800	0.259500	0.796800
C291	C29	0.195000	0.271900	0.642800
H181	H18	0.195000	0.329500	0.642500
C301	C30	0.229970	0.228360	0.549960
C311	C31	0.224800	0.142530	0.554600
H191	H19	0.245300	0.111000	0.493300
C321	C32	0.189400	0.103900	0.649700
H201	H20	0.187000	0.046400	0.651400
Cu51	Cu5	0.627430	0.410160	0.383730
O131	O13	0.581560	0.428320	0.546020
O141	O14	0.605220	0.307280	0.473620
O151	O15	0.407640	0.481150	0.689500
N51	N5	0.658310	0.353290	0.239970
C331	C33	0.537310	0.309610	0.658070
C341	C34	0.537300	0.223040	0.659000
H211	H21	0.562600	0.194100	0.597900
C351	C35	0.577360	0.351140	0.555840
C361	C36	0.660500	0.270540	0.235200
H221	H22	0.637800	0.240500	0.296800
C371	C37	0.695000	0.228100	0.142800
H231	H23	0.695000	0.170500	0.142500
C381	C38	0.729970	0.271640	0.049960
C391	C39	0.724800	0.357470	0.054600
H241	H24	0.745300	0.389000	0.993300
C401	C40	0.689400	0.396100	0.149700
H251	H25	0.687000	0.453600	0.151400
Cu61	Cu6	0.127430	0.910160	0.383730
O161	O16	0.081560	0.928320	0.546020
O171	O17	0.105220	0.807280	0.473620
O181	O18	0.907640	0.981150	0.689500
N61	N6	0.158310	0.853290	0.239970
C411	C41	0.037310	0.809610	0.658070
C421	C42	0.037300	0.723040	0.659000
H261	H26	0.062600	0.694100	0.597900
C431	C43	0.077360	0.851140	0.555840
C441	C44	0.160500	0.770540	0.235200
H271	H27	0.137800	0.740500	0.296800
C451	C45	0.195000	0.728100	0.142800
H281	H28	0.195000	0.670500	0.142500
C461	C46	0.229970	0.771640	0.049960
C471	C47	0.224800	0.857470	0.054600
H291	H29	0.245300	0.889000	0.993300
C481	C48	0.189400	0.896100	0.149700
H301	H30	0.187000	0.953600	0.151400
Cu71	Cu7	0.372570	0.410160	0.116270
O191	O19	0.418440	0.428320	0.953980
O201	O20	0.394780	0.307280	0.026380
O211	O21	0.592360	0.481150	0.810500
N71	N7	0.341690	0.353290	0.260030
C491	C49	0.462690	0.309610	0.841930
C501	C50	0.462700	0.223040	0.841000
H311	H31	0.437400	0.194100	0.902100
C511	C51	0.422640	0.351140	0.944160
C521	C52	0.339500	0.270540	0.264800
H321	H32	0.362200	0.240500	0.203200
C531	C53	0.305000	0.228100	0.357200
H331	H33	0.305000	0.170500	0.357500
C541	C54	0.270030	0.271640	0.450040
C551	C55	0.275200	0.357470	0.445400
H341	H34	0.254700	0.389000	0.506700
C561	C56	0.310600	0.396100	0.350300
H351	H35	0.313000	0.453600	0.348600
Cu81	Cu8	0.872570	0.910160	0.116270
O221	O22	0.918440	0.928320	0.953980
O231	O23	0.894780	0.807280	0.026380
O241	O24	0.092360	0.981150	0.810500
N81	N8	0.841690	0.853290	0.260030
C571	C57	0.962690	0.809610	0.841930
C581	C58	0.962700	0.723040	0.841000
H361	H36	0.937400	0.694100	0.902100
C591	C59	0.922640	0.851140	0.944160
C601	C60	0.839500	0.770540	0.264800
H371	H37	0.862200	0.740500	0.203200
C611	C61	0.805000	0.728100	0.357200
H381	H38	0.805000	0.670500	0.357500
C621	C62	0.770030	0.771640	0.450040
C631	C63	0.775200	0.857470	0.445400
H391	H39	0.754700	0.889000	0.506700
C641	C64	0.810600	0.896100	0.350300
H401	H40	0.813000	0.953600	0.348600
C651	C65	0.500000	0.552140	0.250000
C661	C66	0.500000	0.646110	0.250000
C671	C67	0.500000	0.819800	0.250000
H411	H41	0.500000	0.877400	0.250000
C681	C68	0.000000	0.052140	0.250000
C691	C69	0.000000	0.146110	0.250000
C701	C70	0.000000	0.319800	0.250000
H421	H42	0.000000	0.377400	0.250000
C711	C71	0.500000	0.447860	0.750000
C721	C72	0.500000	0.353890	0.750000
C731	C73	0.500000	0.180200	0.750000
H431	H43	0.500000	0.122600	0.750000
C741	C74	0.000000	0.947860	0.750000
C751	C75	0.000000	0.853890	0.750000
C761	C76	0.000000	0.680200	0.750000
H441	H44	0.000000	0.622600	0.750000
