data_FAVKAP_clean_PM
_symmetry_space_group_name_H-M	'P1'
_cell_length_a	11.184000
_cell_length_b	11.184000
_cell_length_c	14.591000
_cell_angle_alpha	90.000000
_cell_angle_beta	90.000000
_cell_angle_gamma	120.000000
_symmetry_Int_Tables_number 1

loop_
_symmetry_equiv_pos_as_xyz
'x,y,z'

loop_
_atom_site_label
_atom_site_type_symbol
_atom_site_fract_x
_atom_site_fract_y
_atom_site_fract_z
O11	O1	0.893000	0.370000	0.151000
O21	O2	0.881000	0.559000	0.154000
C11	C1	0.919000	0.482000	0.114000
C21	C2	0.935000	0.482000	0.019000
O31	O3	0.630000	0.523000	0.151000
O41	O4	0.441000	0.322000	0.154000
C31	C3	0.518000	0.437000	0.114000
C41	C4	0.518000	0.453000	0.019000
O51	O5	0.477000	0.107000	0.151000
O61	O6	0.678000	0.119000	0.154000
C51	C5	0.563000	0.081000	0.114000
C61	C6	0.547000	0.065000	0.019000
O71	O7	0.893000	0.370000	0.349000
O81	O8	0.881000	0.559000	0.346000
C71	C7	0.919000	0.482000	0.386000
C81	C8	0.935000	0.482000	0.481000
O91	O9	0.630000	0.523000	0.349000
O101	O10	0.441000	0.322000	0.346000
C91	C9	0.518000	0.437000	0.386000
C101	C10	0.518000	0.453000	0.481000
O111	O11	0.477000	0.107000	0.349000
O121	O12	0.678000	0.119000	0.346000
C111	C11	0.563000	0.081000	0.386000
C121	C12	0.547000	0.065000	0.481000
O131	O13	0.370000	0.893000	0.849000
O141	O14	0.559000	0.881000	0.846000
C131	C13	0.482000	0.919000	0.886000
C141	C14	0.482000	0.935000	0.981000
O151	O15	0.523000	0.630000	0.849000
O161	O16	0.322000	0.441000	0.846000
C151	C15	0.437000	0.518000	0.886000
C161	C16	0.453000	0.518000	0.981000
O171	O17	0.107000	0.477000	0.849000
O181	O18	0.119000	0.678000	0.846000
C171	C17	0.081000	0.563000	0.886000
C181	C18	0.065000	0.547000	0.981000
O191	O19	0.370000	0.893000	0.651000
O201	O20	0.559000	0.881000	0.654000
C191	C19	0.482000	0.919000	0.614000
C201	C20	0.482000	0.935000	0.519000
O211	O21	0.523000	0.630000	0.651000
O221	O22	0.322000	0.441000	0.654000
C211	C21	0.437000	0.518000	0.614000
C221	C22	0.453000	0.518000	0.519000
O231	O23	0.107000	0.477000	0.651000
O241	O24	0.119000	0.678000	0.654000
C231	C23	0.081000	0.563000	0.614000
C241	C24	0.065000	0.547000	0.519000
Fe11	Fe1	0.769000	0.237000	0.250000
Fe21	Fe2	0.763000	0.532000	0.250000
Fe31	Fe3	0.468000	0.231000	0.250000
Fe41	Fe4	0.237000	0.769000	0.750000
Fe51	Fe5	0.532000	0.763000	0.750000
Fe61	Fe6	0.231000	0.468000	0.750000
O251	O25	0.666670	0.333330	0.250000
O261	O26	0.333330	0.666670	0.750000
