data_FAVKET_clean_PM
_symmetry_space_group_name_H-M	'P1'
_cell_length_a	9.135000
_cell_length_b	16.137000
_cell_length_c	19.968000
_cell_angle_alpha	90.000000
_cell_angle_beta	90.000000
_cell_angle_gamma	90.000000
_symmetry_Int_Tables_number 1

loop_
_symmetry_equiv_pos_as_xyz
'x,y,z'

loop_
_atom_site_label
_atom_site_type_symbol
_atom_site_fract_x
_atom_site_fract_y
_atom_site_fract_z
Fe11	Fe1	0.926000	0.660000	0.263000
O11	O1	0.866000	0.445000	0.336000
O21	O2	0.973000	0.569000	0.334000
O31	O3	0.785000	0.690000	0.330000
O41	O4	0.582000	0.748000	0.299000
O51	O5	0.516000	0.584000	0.324000
O61	O6	0.581000	0.452000	0.328000
C11	C1	0.924000	0.509000	0.371000
C21	C2	0.663000	0.721000	0.346000
C31	C3	0.507000	0.513000	0.351000
C41	C4	0.530000	0.507000	0.469000
C51	C5	0.437000	0.503000	0.413000
C61	C6	0.038000	0.473000	0.414000
C71	C7	0.050000	0.475000	0.483000
C81	C8	0.653000	0.767000	0.408000
C91	C9	0.648000	0.727000	0.469000
Fe21	Fe2	0.926000	0.840000	0.737000
O71	O7	0.866000	0.055000	0.664000
O81	O8	0.973000	0.931000	0.666000
O91	O9	0.785000	0.810000	0.670000
O101	O10	0.582000	0.752000	0.701000
O111	O11	0.516000	0.916000	0.676000
O121	O12	0.581000	0.048000	0.672000
C101	C10	0.924000	0.991000	0.629000
C111	C11	0.663000	0.779000	0.654000
C121	C12	0.507000	0.987000	0.649000
C131	C13	0.530000	0.993000	0.531000
C141	C14	0.437000	0.997000	0.587000
C151	C15	0.038000	0.027000	0.586000
C161	C16	0.050000	0.025000	0.517000
C171	C17	0.653000	0.733000	0.592000
C181	C18	0.648000	0.773000	0.531000
Fe31	Fe3	0.574000	0.840000	0.763000
O131	O13	0.634000	0.055000	0.836000
O141	O14	0.527000	0.931000	0.834000
O151	O15	0.715000	0.810000	0.830000
O161	O16	0.918000	0.752000	0.799000
O171	O17	0.984000	0.916000	0.824000
O181	O18	0.919000	0.048000	0.828000
C191	C19	0.576000	0.991000	0.871000
C201	C20	0.837000	0.779000	0.846000
C211	C21	0.993000	0.987000	0.851000
C221	C22	0.970000	0.993000	0.969000
C231	C23	0.063000	0.997000	0.913000
C241	C24	0.462000	0.027000	0.914000
C251	C25	0.450000	0.025000	0.983000
C261	C26	0.847000	0.733000	0.908000
C271	C27	0.852000	0.773000	0.969000
Fe41	Fe4	0.574000	0.660000	0.237000
O191	O19	0.634000	0.445000	0.164000
O201	O20	0.527000	0.569000	0.166000
O211	O21	0.715000	0.690000	0.170000
O221	O22	0.918000	0.748000	0.201000
O231	O23	0.984000	0.584000	0.176000
O241	O24	0.919000	0.452000	0.172000
C281	C28	0.576000	0.509000	0.129000
C291	C29	0.837000	0.721000	0.154000
C301	C30	0.993000	0.513000	0.149000
C311	C31	0.970000	0.507000	0.031000
C321	C32	0.063000	0.503000	0.087000
C331	C33	0.462000	0.473000	0.086000
C341	C34	0.450000	0.475000	0.017000
C351	C35	0.847000	0.767000	0.092000
C361	C36	0.852000	0.727000	0.031000
Fe51	Fe5	0.074000	0.340000	0.737000
O251	O25	0.134000	0.555000	0.664000
O261	O26	0.027000	0.431000	0.666000
O271	O27	0.215000	0.310000	0.670000
O281	O28	0.418000	0.252000	0.701000
O291	O29	0.484000	0.416000	0.676000
O301	O30	0.419000	0.548000	0.672000
C371	C37	0.076000	0.491000	0.629000
C381	C38	0.337000	0.279000	0.654000
C391	C39	0.493000	0.487000	0.649000
C401	C40	0.470000	0.493000	0.531000
C411	C41	0.563000	0.497000	0.587000
C421	C42	0.962000	0.527000	0.586000
C431	C43	0.950000	0.525000	0.517000
C441	C44	0.347000	0.233000	0.592000
C451	C45	0.352000	0.273000	0.531000
Fe61	Fe6	0.074000	0.160000	0.263000
O311	O31	0.134000	0.945000	0.336000
O321	O32	0.027000	0.069000	0.334000
O331	O33	0.215000	0.190000	0.330000
O341	O34	0.418000	0.248000	0.299000
O351	O35	0.484000	0.084000	0.324000
O361	O36	0.419000	0.952000	0.328000
C461	C46	0.076000	0.009000	0.371000
C471	C47	0.337000	0.221000	0.346000
C481	C48	0.493000	0.013000	0.351000
C491	C49	0.470000	0.007000	0.469000
C501	C50	0.563000	0.003000	0.413000
C511	C51	0.962000	0.973000	0.414000
C521	C52	0.950000	0.975000	0.483000
C531	C53	0.347000	0.267000	0.408000
C541	C54	0.352000	0.227000	0.469000
Fe71	Fe7	0.426000	0.160000	0.237000
O371	O37	0.366000	0.945000	0.164000
O381	O38	0.473000	0.069000	0.166000
O391	O39	0.285000	0.190000	0.170000
O401	O40	0.082000	0.248000	0.201000
O411	O41	0.016000	0.084000	0.176000
O421	O42	0.081000	0.952000	0.172000
C551	C55	0.424000	0.009000	0.129000
C561	C56	0.163000	0.221000	0.154000
C571	C57	0.007000	0.013000	0.149000
C581	C58	0.030000	0.007000	0.031000
C591	C59	0.937000	0.003000	0.087000
C601	C60	0.538000	0.973000	0.086000
C611	C61	0.550000	0.975000	0.017000
C621	C62	0.153000	0.267000	0.092000
C631	C63	0.148000	0.227000	0.031000
Fe81	Fe8	0.426000	0.340000	0.763000
O431	O43	0.366000	0.555000	0.836000
O441	O44	0.473000	0.431000	0.834000
O451	O45	0.285000	0.310000	0.830000
O461	O46	0.082000	0.252000	0.799000
O471	O47	0.016000	0.416000	0.824000
O481	O48	0.081000	0.548000	0.828000
C641	C64	0.424000	0.491000	0.871000
C651	C65	0.163000	0.279000	0.846000
C661	C66	0.007000	0.487000	0.851000
C671	C67	0.030000	0.493000	0.969000
C681	C68	0.937000	0.497000	0.913000
C691	C69	0.538000	0.527000	0.914000
C701	C70	0.550000	0.525000	0.983000
C711	C71	0.153000	0.233000	0.908000
C721	C72	0.148000	0.273000	0.969000
Fe91	Fe9	0.750000	0.441000	0.250000
O491	O49	0.750000	0.570000	0.250000
Fe101	Fe10	0.750000	0.059000	0.750000
O501	O50	0.750000	0.930000	0.750000
Fe111	Fe11	0.250000	0.559000	0.750000
O511	O51	0.250000	0.430000	0.750000
Fe121	Fe12	0.250000	0.941000	0.250000
O521	O52	0.250000	0.070000	0.250000
