data_FAWCEN_SL_PM
_symmetry_space_group_name_H-M	'P1'
_cell_length_a	14.593300
_cell_length_b	14.593300
_cell_length_c	14.593300
_cell_angle_alpha	109.471200
_cell_angle_beta	109.471200
_cell_angle_gamma	109.471200
_symmetry_Int_Tables_number 1

loop_
_symmetry_equiv_pos_as_xyz
'x,y,z'

loop_
_atom_site_label
_atom_site_type_symbol
_atom_site_fract_x
_atom_site_fract_y
_atom_site_fract_z
H11	H1	0.465900	0.567700	0.334800
C21	C2	0.518800	0.575200	0.311600
N31	N3	0.552600	0.647000	0.271000
H41	H4	0.232900	0.131100	0.665200
C51	C5	0.263600	0.207200	0.688400
N61	N6	0.376000	0.281600	0.729000
H71	H7	0.767100	0.432300	0.898200
C81	C8	0.736400	0.424800	0.943600
N91	N9	0.624000	0.353000	0.905600
H101	H10	0.534100	0.868900	0.101800
C111	C11	0.481200	0.792800	0.056400
N121	N12	0.447400	0.718400	0.094400
H131	H13	0.334800	0.465900	0.567700
C141	C14	0.311600	0.518800	0.575200
N151	N15	0.271000	0.552600	0.647000
H161	H16	0.665200	0.232900	0.131100
C171	C17	0.688400	0.263600	0.207200
N181	N18	0.729000	0.376000	0.281600
H191	H19	0.898200	0.767100	0.432300
C201	C20	0.943600	0.736400	0.424800
N211	N21	0.905600	0.624000	0.353000
H221	H22	0.101800	0.534100	0.868900
C231	C23	0.056400	0.481200	0.792800
N241	N24	0.094400	0.447400	0.718400
H251	H25	0.567700	0.334800	0.465900
C261	C26	0.575200	0.311600	0.518800
N271	N27	0.647000	0.271000	0.552600
H281	H28	0.131100	0.665200	0.232900
C291	C29	0.207200	0.688400	0.263600
N301	N30	0.281600	0.729000	0.376000
H311	H31	0.432300	0.898200	0.767100
C321	C32	0.424800	0.943600	0.736400
N331	N33	0.353000	0.905600	0.624000
H341	H34	0.868900	0.101800	0.534100
C351	C35	0.792800	0.056400	0.481200
N361	N36	0.718400	0.094400	0.447400
H371	H37	0.567700	0.465900	0.334800
C381	C38	0.575200	0.518800	0.311600
N391	N39	0.647000	0.552600	0.271000
H401	H40	0.131100	0.232900	0.665200
C411	C41	0.207200	0.263600	0.688400
N421	N42	0.281600	0.376000	0.729000
H431	H43	0.432300	0.767100	0.898200
C441	C44	0.424800	0.736400	0.943600
N451	N45	0.353000	0.624000	0.905600
H461	H46	0.868900	0.534100	0.101800
C471	C47	0.792800	0.481200	0.056400
N481	N48	0.718400	0.447400	0.094400
H491	H49	0.465900	0.334800	0.567700
C501	C50	0.518800	0.311600	0.575200
N511	N51	0.552600	0.271000	0.647000
H521	H52	0.232900	0.665200	0.131100
C531	C53	0.263600	0.688400	0.207200
N541	N54	0.376000	0.729000	0.281600
H551	H55	0.767100	0.898200	0.432300
C561	C56	0.736400	0.943600	0.424800
N571	N57	0.624000	0.905600	0.353000
H581	H58	0.534100	0.101800	0.868900
C591	C59	0.481200	0.056400	0.792800
N601	N60	0.447400	0.094400	0.718400
H611	H61	0.334800	0.567700	0.465900
C621	C62	0.311600	0.575200	0.518800
N631	N63	0.271000	0.647000	0.552600
H641	H64	0.665200	0.131100	0.232900
C651	C65	0.688400	0.207200	0.263600
N661	N66	0.729000	0.281600	0.376000
H671	H67	0.898200	0.432300	0.767100
C681	C68	0.943600	0.424800	0.736400
N691	N69	0.905600	0.353000	0.624000
H701	H70	0.101800	0.868900	0.534100
C711	C71	0.056400	0.792800	0.481200
N721	N72	0.094400	0.718400	0.447400
Zn731	Zn73	0.500000	0.750000	0.250000
Zn741	Zn74	0.500000	0.250000	0.750000
Zn751	Zn75	0.250000	0.500000	0.750000
Zn761	Zn76	0.750000	0.500000	0.250000
Zn771	Zn77	0.750000	0.250000	0.500000
Zn781	Zn78	0.250000	0.750000	0.500000
C791	C79	0.629300	0.629300	0.248000
C801	C80	0.684600	0.684600	0.197000
C811	C81	0.381300	0.381300	0.752000
C821	C82	0.487600	0.487600	0.803000
C831	C83	0.618700	0.370700	0.000000
C841	C84	0.512400	0.315400	0.000000
C851	C85	0.370700	0.618700	0.000000
C861	C86	0.315400	0.512400	0.000000
C871	C87	0.248000	0.629300	0.629300
C881	C88	0.197000	0.684600	0.684600
C891	C89	0.752000	0.381300	0.381300
C901	C90	0.803000	0.487600	0.487600
C911	C91	0.000000	0.618700	0.370700
C921	C92	0.000000	0.512400	0.315400
C931	C93	0.000000	0.370700	0.618700
C941	C94	0.000000	0.315400	0.512400
C951	C95	0.629300	0.248000	0.629300
C961	C96	0.684600	0.197000	0.684600
C971	C97	0.381300	0.752000	0.381300
C981	C98	0.487600	0.803000	0.487600
C991	C99	0.370700	0.000000	0.618700
C1001	C100	0.315400	0.000000	0.512400
C1011	C101	0.618700	0.000000	0.370700
C1021	C102	0.512400	0.000000	0.315400
H1031	H103	0.663060	0.617960	0.112670
H1041	H104	0.779430	0.734320	0.255340
H1051	H105	0.653590	0.743800	0.184000
H1061	H106	0.524090	0.478990	0.744660
H1071	H107	0.550400	0.505300	0.887330
H1081	H108	0.469590	0.559790	0.816000
H1091	H109	0.532500	0.312390	0.081070
H1101	H110	0.312390	0.532500	0.081070
H1111	H111	0.232560	0.701870	0.774730
H1121	H112	0.102100	0.627080	0.636710
H1131	H113	0.217340	0.767130	0.684640
H1141	H114	0.825180	0.471560	0.561200
H1151	H115	0.740520	0.518830	0.482720
H1161	H116	0.882300	0.553680	0.500150
H1171	H117	0.022470	0.481830	0.377600
H1181	H118	0.064420	0.528150	0.286500
H1191	H119	0.073620	0.299300	0.530900
H1201	H120	0.008330	0.372360	0.474350
H1211	H121	0.627080	0.102100	0.636710
H1221	H122	0.701870	0.232560	0.774730
H1231	H123	0.767130	0.217340	0.684640
H1241	H124	0.518830	0.740520	0.482720
H1251	H125	0.471560	0.825180	0.561200
H1261	H126	0.553680	0.882300	0.500150
H1271	H127	0.299300	0.073620	0.530900
H1281	H128	0.372360	0.008330	0.474350
H1291	H129	0.481830	0.022470	0.377600
H1301	H130	0.528150	0.064420	0.286500
H1311	H131	0.913110	0.445940	0.239820
H1321	H132	0.918050	0.232260	0.450680
H1331	H133	0.232260	0.918050	0.450680
H1341	H134	0.445940	0.913110	0.239820
H1351	H135	0.456410	0.226350	0.925220
H1361	H136	0.467010	0.365180	0.993710
H1371	H137	0.226350	0.456410	0.925220
H1381	H138	0.365180	0.467010	0.993710
