data_FAYPIG_clean_PM
_symmetry_space_group_name_H-M	'P1'
_cell_length_a	19.562000
_cell_length_b	20.850000
_cell_length_c	23.573000
_cell_angle_alpha	115.321000
_cell_angle_beta	112.654000
_cell_angle_gamma	92.849000
_symmetry_Int_Tables_number 1

loop_
_symmetry_equiv_pos_as_xyz
'x,y,z'

loop_
_atom_site_label
_atom_site_type_symbol
_atom_site_fract_x
_atom_site_fract_y
_atom_site_fract_z
Zn11	Zn1	0.219200	0.585800	0.418200
Zn21	Zn2	0.015100	0.527400	0.319700
Zn31	Zn3	0.281300	0.509500	0.533200
Zn41	Zn4	0.300900	0.523600	0.298600
Zn51	Zn5	0.281600	0.785700	0.519700
H11	H1	0.926300	0.664700	0.364700
H21	H2	0.911400	0.781700	0.420100
H31	H3	0.140200	0.862700	0.521500
H41	H4	0.062700	0.945400	0.530200
H51	H5	0.990100	0.916600	0.457900
H61	H6	0.981500	0.917900	0.521800
H71	H7	0.943800	0.425600	0.144000
H81	H8	0.943500	0.355000	0.036500
H91	H9	0.173600	0.419200	0.129700
H101	H10	0.413200	0.862100	0.492500
H111	H11	0.495500	0.874500	0.446400
H121	H12	0.427900	0.656800	0.316000
H131	H13	0.550900	0.824500	0.370700
H141	H14	0.562100	0.746700	0.359100
H151	H15	0.497800	0.754400	0.298900
H161	H16	0.410400	0.405000	0.512000
H171	H17	0.505800	0.363500	0.380600
H181	H18	0.431800	0.426600	0.331300
H191	H19	0.510800	0.337000	0.518000
H201	H20	0.507300	0.288700	0.444100
H211	H21	0.570500	0.363000	0.498100
H221	H22	0.385800	0.850800	0.682600
H231	H23	0.468700	0.863000	0.790400
H241	H24	0.412200	0.643800	0.708700
H251	H25	0.325800	0.509200	0.094000
H261	H26	0.374700	0.460300	0.013900
H271	H27	0.440400	0.320700	0.080800
H281	H28	0.388400	0.368300	0.163000
H291	H29	0.376700	0.366700	0.913500
H301	H30	0.454700	0.425400	0.972100
H311	H31	0.474900	0.466200	0.713400
H321	H32	0.505300	0.428100	0.794900
H331	H33	0.279400	0.350000	0.724900
H341	H34	0.255000	0.403100	0.649900
H351	H35	0.791100	0.558200	0.200600
H361	H36	0.674500	0.528800	0.104900
H371	H37	0.676000	0.315900	0.024800
H381	H38	0.792600	0.345300	0.120500
H391	H39	0.580900	0.312400	0.925200
H401	H40	0.550600	0.305900	0.975800
H411	H41	0.506100	0.340000	0.832700
H421	H42	0.507200	0.416400	0.889500
H431	H43	0.373700	0.247800	0.825000
H441	H44	0.420100	0.230000	0.885500
H451	H45	0.465700	0.007500	0.659600
H461	H46	0.516000	0.130300	0.744600
H471	H47	0.334800	0.124200	0.785100
H481	H48	0.284600	0.001400	0.700100
H491	H49	0.135800	0.408800	0.534100
H501	H50	0.013200	0.353600	0.506700
H511	H51	0.923800	0.425600	0.367400
H521	H52	0.840300	0.353200	0.384100
H531	H53	0.876000	0.294800	0.402300
H541	H54	0.873600	0.366500	0.461400
H551	H55	0.524200	0.813700	0.860700
H561	H56	0.469100	0.744400	0.844800
H571	H57	0.536200	0.735400	0.823600
H581	H58	0.109900	0.338500	0.009500
H591	H59	0.037300	0.281800	0.988700
H601	H60	0.027700	0.345200	0.969500
C11	C1	0.106200	0.753000	0.456800
C21	C2	0.042000	0.693500	0.409900
C31	C3	0.969000	0.704000	0.396000
C41	C4	0.960200	0.774000	0.429000
C51	C5	0.024000	0.833800	0.476000
C61	C6	0.097000	0.823000	0.490100
C71	C7	0.014000	0.910000	0.499000
C81	C8	0.128000	0.463000	0.197000
C91	C9	0.059000	0.465000	0.201000
C101	C10	0.990000	0.424000	0.141000
C111	C11	0.990000	0.382000	0.077000
C121	C12	0.059000	0.380000	0.072000
C131	C13	0.128000	0.420000	0.133000
C141	C14	0.376000	0.690000	0.379000
C151	C15	0.371000	0.752000	0.432000
C161	C16	0.416000	0.821000	0.457000
C171	C17	0.465000	0.828000	0.430000
C181	C18	0.470000	0.767000	0.377000
C191	C19	0.425000	0.698000	0.351000
C201	C20	0.525000	0.774000	0.349000
C211	C21	0.377000	0.453600	0.392000
C221	C22	0.370300	0.447200	0.446200
C231	C23	0.415000	0.409000	0.475800
C241	C24	0.465000	0.378000	0.451000
C251	C25	0.472000	0.384000	0.397000
C261	C26	0.428000	0.422000	0.367500
C271	C27	0.518000	0.338000	0.481000
C281	C28	0.349000	0.740000	0.631100
C291	C29	0.391000	0.809000	0.688000
C301	C30	0.441000	0.817000	0.752000
C311	C31	0.449000	0.755000	0.760200
C321	C32	0.407000	0.685000	0.703500
C331	C33	0.357000	0.678000	0.638900
C341	C34	0.341000	0.481000	0.196000
C351	C35	0.360000	0.448000	0.140000
C361	C36	0.351000	0.472000	0.093000
C371	C37	0.377000	0.442000	0.044000
C381	C38	0.407000	0.385000	0.040000
C391	C39	0.416000	0.358000	0.083000
C401	C40	0.388000	0.389000	0.135000
C411	C41	0.429000	0.373000	0.945000
C421	C42	0.341000	0.468000	0.623000
C431	C43	0.364000	0.439000	0.674000
C441	C44	0.435000	0.445000	0.717000
C451	C45	0.454000	0.422000	0.765000
C461	C46	0.394000	0.389000	0.768000
C471	C47	0.319000	0.376000	0.725000
C481	C48	0.305000	0.406000	0.678000
C491	C49	0.803400	0.454700	0.170000
C501	C50	0.768100	0.509600	0.165300
C511	C51	0.698200	0.492000	0.108000
C521	C52	0.663700	0.419400	0.055300
C531	C53	0.699100	0.364500	0.060000
C541	C54	0.769000	0.382100	0.117400
C551	C55	0.553000	0.334000	0.952000
C561	C56	0.472000	0.330000	0.903000
C571	C57	0.479000	0.365000	0.859000
C581	C58	0.425000	0.251000	0.857000
C591	C59	0.336000	0.913000	0.615000
C601	C60	0.370000	0.992300	0.671400
C611	C61	0.439000	0.031000	0.684700
C621	C62	0.469600	0.104000	0.736000
C631	C63	0.430000	0.139500	0.773300
C641	C64	0.361000	0.101000	0.760000
C651	C65	0.331000	0.027000	0.709000
C661	C66	0.040000	0.455300	0.417200
C671	C67	0.103200	0.450300	0.467000
C681	C68	0.093000	0.412000	0.500700
C691	C69	0.020000	0.379100	0.484000
C701	C70	0.956000	0.384100	0.434000
C711	C71	0.966300	0.422000	0.400800
C721	C72	0.880000	0.346000	0.419000
C731	C73	0.884000	0.483000	0.231000
C741	C74	0.499000	0.763000	0.828000
C751	C75	0.058000	0.332000	0.004000
N11	N1	0.167000	0.730000	0.466000
N21	N2	0.144000	0.657000	0.420600
N31	N3	0.071000	0.636500	0.387000
N41	N4	0.075000	0.500000	0.266000
N51	N5	0.153000	0.523000	0.302000
N61	N6	0.185000	0.498000	0.262000
N71	N7	0.328000	0.633000	0.365000
N81	N8	0.296000	0.657000	0.409000
N91	N9	0.320000	0.729000	0.448000
N101	N10	0.319100	0.484400	0.460800
N111	N11	0.293400	0.510300	0.413000
N121	N12	0.328000	0.492000	0.371000
N131	N13	0.162000	0.486000	0.469600
N141	N14	0.143700	0.516500	0.428900
N151	N15	0.067000	0.496000	0.395100
N161	N16	0.309000	0.620000	0.573000
N171	N17	0.285400	0.651000	0.534600
N181	N18	0.305000	0.722000	0.559000
O11	O1	0.274000	0.461000	0.586000
O21	O2	0.391000	0.500000	0.620000
O31	O3	0.402300	0.358300	0.812300
O41	O4	0.909000	0.428000	0.236300
O51	O5	0.913000	0.541000	0.272000
O61	O6	0.592100	0.407000	0.002100
O71	O7	0.271000	0.881400	0.600300
O81	O8	0.374000	0.881000	0.587600
O91	O9	0.463200	0.212600	0.819200
O101	O10	0.430900	0.346100	0.990600
O111	O11	0.312000	0.538000	0.205000
O121	O12	0.344000	0.459000	0.239000
Zn61	Zn6	0.780800	0.414200	0.581800
Zn71	Zn7	0.984900	0.472600	0.680300
Zn81	Zn8	0.718700	0.490500	0.466800
Zn91	Zn9	0.699100	0.476400	0.701400
Zn101	Zn10	0.718400	0.214300	0.480300
H611	H61	0.073700	0.335300	0.635300
H621	H62	0.088600	0.218300	0.579900
H631	H63	0.859800	0.137300	0.478500
H641	H64	0.937300	0.054600	0.469800
H651	H65	0.009900	0.083400	0.542100
H661	H66	0.018500	0.082100	0.478200
H671	H67	0.056200	0.574400	0.856000
H681	H68	0.056500	0.645000	0.963500
H691	H69	0.826400	0.580800	0.870300
H701	H70	0.586800	0.137900	0.507500
H711	H71	0.504500	0.125500	0.553600
H721	H72	0.572100	0.343200	0.684000
H731	H73	0.449100	0.175500	0.629300
H741	H74	0.437900	0.253300	0.640900
H751	H75	0.502200	0.245600	0.701100
H761	H76	0.589600	0.595000	0.488000
H771	H77	0.494200	0.636500	0.619400
H781	H78	0.568200	0.573400	0.668700
H791	H79	0.489200	0.663000	0.482000
H801	H80	0.492700	0.711300	0.555900
H811	H81	0.429500	0.637000	0.501900
H821	H82	0.614200	0.149200	0.317400
H831	H83	0.531300	0.137000	0.209600
H841	H84	0.587800	0.356200	0.291300
H851	H85	0.674200	0.490800	0.906000
H861	H86	0.625300	0.539700	0.986100
H871	H87	0.559600	0.679300	0.919200
H881	H88	0.611600	0.631700	0.837000
H891	H89	0.623300	0.633300	0.086500
H901	H90	0.545300	0.574600	0.027900
H911	H91	0.525100	0.533800	0.286600
H921	H92	0.494700	0.571900	0.205100
H931	H93	0.720600	0.650000	0.275100
H941	H94	0.745000	0.596900	0.350100
H951	H95	0.208900	0.441800	0.799400
H961	H96	0.325500	0.471200	0.895100
H971	H97	0.324000	0.684100	0.975200
H981	H98	0.207400	0.654700	0.879500
H991	H99	0.419100	0.687600	0.074800
H1001	H100	0.449400	0.694100	0.024200
H1011	H101	0.493900	0.660000	0.167300
H1021	H102	0.492800	0.583600	0.110500
H1031	H103	0.626300	0.752200	0.175000
H1041	H104	0.579900	0.770000	0.114500
H1051	H105	0.534300	0.992500	0.340400
H1061	H106	0.484000	0.869700	0.255400
H1071	H107	0.665200	0.875800	0.214900
H1081	H108	0.715400	0.998600	0.299900
H1091	H109	0.864200	0.591200	0.465900
H1101	H110	0.986800	0.646400	0.493300
H1111	H111	0.076200	0.574400	0.632600
H1121	H112	0.159700	0.646800	0.615900
H1131	H113	0.124000	0.705200	0.597700
H1141	H114	0.126400	0.633500	0.538600
H1151	H115	0.475800	0.186300	0.139300
H1161	H116	0.530900	0.255600	0.155200
H1171	H117	0.463800	0.264600	0.176400
H1181	H118	0.890100	0.661500	0.990500
H1191	H119	0.962700	0.718200	0.011300
H1201	H120	0.972300	0.654800	0.030500
C761	C76	0.893800	0.247000	0.543200
C771	C77	0.958000	0.306500	0.590100
C781	C78	0.031000	0.296000	0.604000
C791	C79	0.039800	0.226000	0.571000
C801	C80	0.976000	0.166200	0.524000
C811	C81	0.903000	0.177000	0.509900
C821	C82	0.986000	0.090000	0.501000
C831	C83	0.872000	0.537000	0.803000
C841	C84	0.941000	0.535000	0.799000
C851	C85	0.010000	0.576000	0.859000
C861	C86	0.010000	0.618000	0.923000
C871	C87	0.941000	0.620000	0.928000
C881	C88	0.872000	0.580000	0.867000
C891	C89	0.624000	0.310000	0.621000
C901	C90	0.629000	0.248000	0.568000
C911	C91	0.584000	0.179000	0.543000
C921	C92	0.535000	0.172000	0.570000
C931	C93	0.530000	0.233000	0.623000
C941	C94	0.575000	0.302000	0.649000
C951	C95	0.475000	0.226000	0.651000
C961	C96	0.623000	0.546400	0.608000
C971	C97	0.629700	0.552800	0.553800
C981	C98	0.585000	0.591000	0.524200
C991	C99	0.535000	0.622000	0.549000
C1001	C100	0.528000	0.616000	0.603000
C1011	C101	0.572000	0.578000	0.632500
C1021	C102	0.482000	0.662000	0.519000
C1031	C103	0.651000	0.260000	0.368900
C1041	C104	0.609000	0.191000	0.312000
C1051	C105	0.559000	0.183000	0.248000
C1061	C106	0.551000	0.245000	0.239800
C1071	C107	0.593000	0.315000	0.296500
C1081	C108	0.643000	0.322000	0.361100
C1091	C109	0.659000	0.519000	0.804000
C1101	C110	0.640000	0.552000	0.860000
C1111	C111	0.649000	0.528000	0.907000
C1121	C112	0.623000	0.558000	0.956000
C1131	C113	0.593000	0.615000	0.960000
C1141	C114	0.584000	0.642000	0.917000
C1151	C115	0.612000	0.611000	0.865000
C1161	C116	0.571000	0.627000	0.055000
C1171	C117	0.659000	0.532000	0.377000
C1181	C118	0.636000	0.561000	0.326000
C1191	C119	0.565000	0.555000	0.283000
C1201	C120	0.546000	0.578000	0.235000
C1211	C121	0.606000	0.611000	0.232000
C1221	C122	0.681000	0.624000	0.275000
C1231	C123	0.695000	0.594000	0.322000
C1241	C124	0.196600	0.545300	0.830000
C1251	C125	0.231900	0.490400	0.834700
C1261	C126	0.301800	0.508000	0.892000
C1271	C127	0.336300	0.580600	0.944700
C1281	C128	0.300900	0.635500	0.940000
C1291	C129	0.231000	0.617900	0.882600
C1301	C130	0.447000	0.666000	0.048000
C1311	C131	0.528000	0.670000	0.097000
C1321	C132	0.521000	0.635000	0.141000
C1331	C133	0.575000	0.749000	0.143000
C1341	C134	0.664000	0.087000	0.385000
C1351	C135	0.630000	0.007700	0.328600
C1361	C136	0.561000	0.969000	0.315300
C1371	C137	0.530400	0.896000	0.264000
C1381	C138	0.570000	0.860500	0.226700
C1391	C139	0.639000	0.899000	0.240000
C1401	C140	0.669000	0.973000	0.291000
C1411	C141	0.960000	0.544700	0.582800
C1421	C142	0.896800	0.549700	0.533000
C1431	C143	0.907000	0.588000	0.499300
C1441	C144	0.980000	0.620900	0.516000
C1451	C145	0.044000	0.615900	0.566000
C1461	C146	0.033700	0.578000	0.599200
C1471	C147	0.120000	0.654000	0.581000
C1481	C148	0.116000	0.517000	0.769000
C1491	C149	0.501000	0.237000	0.172000
C1501	C150	0.942000	0.668000	0.996000
N191	N19	0.833000	0.270000	0.534000
N201	N20	0.856000	0.343000	0.579400
N211	N21	0.929000	0.363500	0.613000
N221	N22	0.925000	0.500000	0.734000
N231	N23	0.847000	0.477000	0.698000
N241	N24	0.815000	0.502000	0.738000
N251	N25	0.672000	0.367000	0.635000
N261	N26	0.704000	0.343000	0.591000
N271	N27	0.680000	0.271000	0.552000
N281	N28	0.680900	0.515600	0.539200
N291	N29	0.706600	0.489700	0.587000
N301	N30	0.672000	0.508000	0.629000
N311	N31	0.838000	0.514000	0.530400
N321	N32	0.856300	0.483500	0.571100
N331	N33	0.933000	0.504000	0.604900
N341	N34	0.691000	0.380000	0.427000
N351	N35	0.714600	0.349000	0.465400
N361	N36	0.695000	0.278000	0.441000
O131	O13	0.726000	0.539000	0.414000
O141	O14	0.609000	0.500000	0.380000
O151	O15	0.597700	0.641700	0.187700
O161	O16	0.091000	0.572000	0.763700
O171	O17	0.087000	0.459000	0.728000
O181	O18	0.407900	0.593000	0.997900
O191	O19	0.729000	0.118600	0.399700
O201	O20	0.626000	0.119000	0.412400
O211	O21	0.536800	0.787400	0.180800
O221	O22	0.569100	0.653900	0.009400
O231	O23	0.688000	0.462000	0.795000
O241	O24	0.656000	0.541000	0.761000
