data_FAYPOM_clean_PM
_symmetry_space_group_name_H-M	'P1'
_cell_length_a	20.049000
_cell_length_b	20.287000
_cell_length_c	20.832300
_cell_angle_alpha	60.862200
_cell_angle_beta	77.321200
_cell_angle_gamma	63.206900
_symmetry_Int_Tables_number 1

loop_
_symmetry_equiv_pos_as_xyz
'x,y,z'

loop_
_atom_site_label
_atom_site_type_symbol
_atom_site_fract_x
_atom_site_fract_y
_atom_site_fract_z
Zn11	Zn1	0.880330	0.840240	0.029820
Zn21	Zn2	0.649960	0.032940	0.800520
Zn31	Zn3	0.619670	0.129940	0.029820
Zn41	Zn4	0.850040	0.166540	0.800520
Zn51	Zn5	0.750000	0.041760	0.916480
H11	H1	0.356000	0.102300	0.902400
H21	H2	0.518900	0.005700	0.664400
H31	H3	0.068100	0.667800	0.210600
H41	H4	0.435900	0.156800	0.023400
H51	H5	0.468700	0.062600	0.847000
H61	H6	0.638000	0.008700	0.215400
H71	H7	0.464200	0.236500	0.627800
H81	H8	0.339200	0.149400	0.982200
H91	H9	0.376300	0.284400	0.542800
H101	H10	0.890300	0.690300	0.992600
H111	H11	0.706900	0.845900	0.809200
H121	H12	0.860800	0.625900	0.943800
H131	H13	0.772600	0.706000	0.847200
H141	H14	0.696600	0.892600	0.324000
H151	H15	0.452000	0.930300	0.583600
H161	H16	0.519300	0.945500	0.591400
H171	H17	0.460200	0.934200	0.654600
H181	H18	0.278200	0.310900	0.490600
H191	H19	0.338200	0.311500	0.427400
H201	H20	0.147700	0.540600	0.291200
H211	H21	0.243700	0.410500	0.333800
H221	H22	0.181700	0.414100	0.394800
H231	H23	0.981700	0.564100	0.152600
H241	H24	0.661800	0.130500	0.619400
H251	H25	0.730500	0.203400	0.507400
H261	H26	0.024000	0.353000	0.211800
H271	H27	0.964700	0.434300	0.215600
H281	H28	0.019600	0.438800	0.148600
H291	H29	0.144000	0.995300	0.902400
H301	H30	0.981100	0.329900	0.664400
H311	H31	0.431900	0.121600	0.210600
H321	H32	0.064100	0.819800	0.023400
H331	H33	0.031300	0.090400	0.847000
H341	H34	0.862000	0.775900	0.215400
H351	H35	0.035800	0.135700	0.627800
H361	H36	0.160800	0.868400	0.982200
H371	H37	0.123700	0.172800	0.542800
H381	H38	0.609700	0.317100	0.992600
H391	H39	0.793100	0.344900	0.809200
H401	H40	0.639200	0.430300	0.943800
H411	H41	0.727400	0.446800	0.847200
H421	H42	0.803400	0.783400	0.324000
H431	H43	0.048000	0.486100	0.583600
H441	H44	0.980700	0.463100	0.591400
H451	H45	0.039800	0.411200	0.654600
H461	H46	0.221800	0.198500	0.490600
H471	H47	0.161800	0.261100	0.427400
H481	H48	0.352300	0.168200	0.291200
H491	H49	0.256300	0.255700	0.333800
H501	H50	0.318300	0.191100	0.394800
H511	H51	0.518300	0.283300	0.152600
H521	H52	0.838200	0.250100	0.619400
H531	H53	0.769500	0.289200	0.507400
H541	H54	0.476000	0.435200	0.211800
H551	H55	0.535300	0.350100	0.215600
H561	H56	0.480400	0.412600	0.148600
C11	C1	0.396400	0.105100	0.914400
C21	C2	0.512200	0.113000	0.954800
C31	C3	0.522200	0.084400	0.903200
C41	C4	0.490400	0.061970	0.639460
C51	C5	0.067000	0.620370	0.215260
C61	C6	0.443800	0.138200	0.988400
C71	C7	0.719200	0.958960	0.151280
C81	C8	0.462600	0.080800	0.882000
C91	C9	0.811800	0.802300	0.936200
C101	C10	0.499300	0.117500	0.653400
C111	C11	0.438500	0.091330	0.587940
C121	C12	0.681500	0.964210	0.215380
C131	C13	0.457700	0.199750	0.617900
C141	C14	0.386900	0.132500	0.962800
C151	C15	0.405500	0.228130	0.566540
C161	C16	0.759200	0.848800	0.879200
C171	C17	0.852500	0.720200	0.957800
C181	C18	0.742800	0.814500	0.846000
C191	C19	0.836500	0.682700	0.927200
C201	C20	0.781600	0.731600	0.869200
C211	C21	0.717200	0.894400	0.279000
C221	C22	0.467400	0.956100	0.602400
C231	C23	0.964600	0.709000	0.121200
C241	C24	0.304800	0.285410	0.458180
C251	C25	0.395700	0.176010	0.549580
C261	C26	0.114600	0.544190	0.263420
C271	C27	0.208700	0.386490	0.364020
C281	C28	0.114000	0.474230	0.271140
C291	C29	0.553300	0.089600	0.711600
C301	C30	0.018300	0.626750	0.174300
C311	C31	0.015500	0.559400	0.180600
C321	C32	0.064600	0.480700	0.230200
C331	C33	0.729100	0.138500	0.687400
C341	C34	0.695700	0.150000	0.619600
C351	C35	0.732700	0.202300	0.552000
C361	C36	0.014500	0.408200	0.200600
C371	C37	0.103600	0.980500	0.914400
C381	C38	0.987800	0.932200	0.954800
C391	C39	0.977800	0.012400	0.903200
C401	C40	0.009600	0.298570	0.639460
C411	C41	0.433000	0.164370	0.215260
C421	C42	0.056200	0.873400	0.988400
C431	C43	0.780800	0.889760	0.151280
C441	C44	0.037400	0.037200	0.882000
C451	C45	0.688200	0.261500	0.936200
C461	C46	0.000700	0.229100	0.653400
C471	C47	0.061500	0.320730	0.587940
C481	C48	0.818500	0.820410	0.215380
C491	C49	0.042300	0.182350	0.617900
C501	C50	0.113100	0.904700	0.962800
C511	C51	0.094500	0.205330	0.566540
C521	C52	0.740800	0.272000	0.879200
C531	C53	0.647500	0.322000	0.957800
C541	C54	0.757200	0.339500	0.846000
C551	C55	0.663500	0.390100	0.927200
C561	C56	0.718400	0.399200	0.869200
C571	C57	0.782800	0.826600	0.279000
C581	C58	0.032600	0.441500	0.602400
C591	C59	0.535400	0.169800	0.121200
C601	C60	0.195200	0.256410	0.458180
C611	C61	0.104300	0.274410	0.549580
C621	C62	0.385400	0.192390	0.263420
C631	C63	0.291300	0.249490	0.364020
C641	C64	0.386000	0.254630	0.271140
C651	C65	0.946700	0.198800	0.711600
C661	C66	0.481700	0.198950	0.174300
C671	C67	0.484500	0.260000	0.180600
C681	C68	0.435400	0.289100	0.230200
C691	C69	0.770900	0.174100	0.687400
C701	C70	0.804300	0.230400	0.619600
C711	C71	0.767300	0.245700	0.552000
C721	C72	0.485500	0.391200	0.200600
C731	C73	0.250000	0.294450	0.411100
N11	N1	0.628900	0.078170	0.918860
N21	N2	0.815600	0.854450	0.956100
N31	N3	0.765700	0.929620	0.913760
N41	N4	0.595300	0.063740	0.881920
N51	N5	0.581100	0.108790	0.964220
N61	N6	0.702800	0.014950	0.077700
N71	N7	0.732000	0.926390	0.867820
N81	N8	0.712600	0.094500	0.755600
N91	N9	0.871100	0.002970	0.918860
N101	N10	0.684400	0.189450	0.956100
N111	N11	0.734300	0.156620	0.913760
N121	N12	0.904700	0.054340	0.881920
N131	N13	0.918900	0.926990	0.964220
N141	N14	0.797200	0.907350	0.077700
N151	N15	0.768000	0.205790	0.867820
N161	N16	0.787400	0.149900	0.755600
N171	N17	0.750000	0.982130	0.035740
N181	N18	0.750000	0.101770	0.796460
O11	O1	0.595600	0.015480	0.743440
O21	O2	0.921400	0.716370	0.084860
O31	O3	0.556600	0.141700	0.723800
O41	O4	0.424000	0.042650	0.569100
O51	O5	0.157750	0.395580	0.318640
O61	O6	0.346100	0.198510	0.500180
O71	O7	0.965900	0.771710	0.113580
O81	O8	0.069500	0.406380	0.240440
O91	O9	0.904400	0.241080	0.743440
O101	O10	0.578600	0.198770	0.084860
O111	O11	0.943400	0.134500	0.723800
O121	O12	0.076000	0.388250	0.569100
O131	O13	0.342250	0.285780	0.318640
O141	O14	0.153900	0.301310	0.500180
O151	O15	0.534100	0.114710	0.113580
O161	O16	0.430500	0.353180	0.240440
Zn61	Zn6	0.119670	0.159760	0.970180
Zn71	Zn7	0.350040	0.967060	0.199480
Zn81	Zn8	0.380330	0.870060	0.970180
Zn91	Zn9	0.149960	0.833460	0.199480
Zn101	Zn10	0.250000	0.958240	0.083520
H571	H57	0.644000	0.897700	0.097600
H581	H58	0.481100	0.994300	0.335600
H591	H59	0.931900	0.332200	0.789400
H601	H60	0.564100	0.843200	0.976600
H611	H61	0.531300	0.937400	0.153000
H621	H62	0.362000	0.991300	0.784600
H631	H63	0.535800	0.763500	0.372200
H641	H64	0.660800	0.850600	0.017800
H651	H65	0.623700	0.715600	0.457200
H661	H66	0.109700	0.309700	0.007400
H671	H67	0.293100	0.154100	0.190800
H681	H68	0.139200	0.374100	0.056200
H691	H69	0.227400	0.294000	0.152800
H701	H70	0.303400	0.107400	0.676000
H711	H71	0.548000	0.069700	0.416400
H721	H72	0.480700	0.054500	0.408600
H731	H73	0.539800	0.065800	0.345400
H741	H74	0.721800	0.689100	0.509400
H751	H75	0.661800	0.688500	0.572600
H761	H76	0.852300	0.459400	0.708800
H771	H77	0.756300	0.589500	0.666200
H781	H78	0.818300	0.585900	0.605200
H791	H79	0.018300	0.435900	0.847400
H801	H80	0.338200	0.869500	0.380600
H811	H81	0.269500	0.796600	0.492600
H821	H82	0.976000	0.647000	0.788200
H831	H83	0.035300	0.565700	0.784400
H841	H84	0.980400	0.561200	0.851400
H851	H85	0.856000	0.004700	0.097600
H861	H86	0.018900	0.670100	0.335600
H871	H87	0.568100	0.878400	0.789400
H881	H88	0.935900	0.180200	0.976600
H891	H89	0.968700	0.909600	0.153000
H901	H90	0.138000	0.224100	0.784600
H911	H91	0.964200	0.864300	0.372200
H921	H92	0.839200	0.131600	0.017800
H931	H93	0.876300	0.827200	0.457200
H941	H94	0.390300	0.682900	0.007400
H951	H95	0.206900	0.655100	0.190800
H961	H96	0.360800	0.569700	0.056200
H971	H97	0.272600	0.553200	0.152800
H981	H98	0.196600	0.216600	0.676000
H991	H99	0.952000	0.513900	0.416400
H1001	H100	0.019300	0.536900	0.408600
H1011	H101	0.960200	0.588800	0.345400
H1021	H102	0.778200	0.801500	0.509400
H1031	H103	0.838200	0.738900	0.572600
H1041	H104	0.647700	0.831800	0.708800
H1051	H105	0.743700	0.744300	0.666200
H1061	H106	0.681700	0.808900	0.605200
H1071	H107	0.481700	0.716700	0.847400
H1081	H108	0.161800	0.749900	0.380600
H1091	H109	0.230500	0.710800	0.492600
H1101	H110	0.524000	0.564800	0.788200
H1111	H111	0.464700	0.649900	0.784400
H1121	H112	0.519600	0.587400	0.851400
C741	C74	0.603600	0.894900	0.085600
C751	C75	0.487800	0.887000	0.045200
C761	C76	0.477800	0.915600	0.096800
C771	C77	0.509600	0.938030	0.360540
C781	C78	0.933000	0.379630	0.784740
C791	C79	0.556200	0.861800	0.011600
C801	C80	0.280800	0.041040	0.848720
C811	C81	0.537400	0.919200	0.118000
C821	C82	0.188200	0.197700	0.063800
C831	C83	0.500700	0.882500	0.346600
C841	C84	0.561500	0.908670	0.412060
C851	C85	0.318500	0.035790	0.784620
C861	C86	0.542300	0.800250	0.382100
C871	C87	0.613100	0.867500	0.037200
C881	C88	0.594500	0.771870	0.433460
C891	C89	0.240800	0.151200	0.120800
C901	C90	0.147500	0.279800	0.042200
C911	C91	0.257200	0.185500	0.154000
C921	C92	0.163500	0.317300	0.072800
C931	C93	0.218400	0.268400	0.130800
C941	C94	0.282800	0.105600	0.721000
C951	C95	0.532600	0.043900	0.397600
C961	C96	0.035400	0.291000	0.878800
C971	C97	0.695200	0.714590	0.541820
C981	C98	0.604300	0.823990	0.450420
C991	C99	0.885400	0.455810	0.736580
C1001	C100	0.791300	0.613510	0.635980
C1011	C101	0.886000	0.525770	0.728860
C1021	C102	0.446700	0.910400	0.288400
C1031	C103	0.981700	0.373250	0.825700
C1041	C104	0.984500	0.440600	0.819400
C1051	C105	0.935400	0.519300	0.769800
C1061	C106	0.270900	0.861500	0.312600
C1071	C107	0.304300	0.850000	0.380400
C1081	C108	0.267300	0.797700	0.448000
C1091	C109	0.985500	0.591800	0.799400
C1101	C110	0.896400	0.019500	0.085600
C1111	C111	0.012200	0.067800	0.045200
C1121	C112	0.022200	0.987600	0.096800
C1131	C113	0.990400	0.701430	0.360540
C1141	C114	0.567000	0.835630	0.784740
C1151	C115	0.943800	0.126600	0.011600
C1161	C116	0.219200	0.110240	0.848720
C1171	C117	0.962600	0.962800	0.118000
C1181	C118	0.311800	0.738500	0.063800
C1191	C119	0.999300	0.770900	0.346600
C1201	C120	0.938500	0.679270	0.412060
C1211	C121	0.181500	0.179590	0.784620
C1221	C122	0.957700	0.817650	0.382100
C1231	C123	0.886900	0.095300	0.037200
C1241	C124	0.905500	0.794670	0.433460
C1251	C125	0.259200	0.728000	0.120800
C1261	C126	0.352500	0.678000	0.042200
C1271	C127	0.242800	0.660500	0.154000
C1281	C128	0.336500	0.609900	0.072800
C1291	C129	0.281600	0.600800	0.130800
C1301	C130	0.217200	0.173400	0.721000
C1311	C131	0.967400	0.558500	0.397600
C1321	C132	0.464600	0.830200	0.878800
C1331	C133	0.804800	0.743590	0.541820
C1341	C134	0.895700	0.725590	0.450420
C1351	C135	0.614600	0.807610	0.736580
C1361	C136	0.708700	0.750510	0.635980
C1371	C137	0.614000	0.745370	0.728860
C1381	C138	0.053300	0.801200	0.288400
C1391	C139	0.518300	0.801050	0.825700
C1401	C140	0.515500	0.740000	0.819400
C1411	C141	0.564600	0.710900	0.769800
C1421	C142	0.229100	0.825900	0.312600
C1431	C143	0.195700	0.769600	0.380400
C1441	C144	0.232700	0.754300	0.448000
C1451	C145	0.514500	0.608800	0.799400
C1461	C146	0.750000	0.705550	0.588900
N191	N19	0.371100	0.921830	0.081140
N201	N20	0.184400	0.145550	0.043900
N211	N21	0.234300	0.070380	0.086240
N221	N22	0.404700	0.936260	0.118080
N231	N23	0.418900	0.891210	0.035780
N241	N24	0.297200	0.985050	0.922300
N251	N25	0.268000	0.073610	0.132180
N261	N26	0.287400	0.905500	0.244400
N271	N27	0.128900	0.997030	0.081140
N281	N28	0.315600	0.810550	0.043900
N291	N29	0.265700	0.843380	0.086240
N301	N30	0.095300	0.945660	0.118080
N311	N31	0.081100	0.073010	0.035780
N321	N32	0.202800	0.092650	0.922300
N331	N33	0.232000	0.794210	0.132180
N341	N34	0.212600	0.850100	0.244400
N351	N35	0.250000	0.017870	0.964260
N361	N36	0.250000	0.898230	0.203540
O171	O17	0.404400	0.984520	0.256560
O181	O18	0.078600	0.283630	0.915140
O191	O19	0.443400	0.858300	0.276200
O201	O20	0.576000	0.957350	0.430900
O211	O21	0.842250	0.604420	0.681360
O221	O22	0.653900	0.801490	0.499820
O231	O23	0.034100	0.228290	0.886420
O241	O24	0.930500	0.593620	0.759560
O251	O25	0.095600	0.758920	0.256560
O261	O26	0.421400	0.801230	0.915140
O271	O27	0.056600	0.865500	0.276200
O281	O28	0.924000	0.611750	0.430900
O291	O29	0.657750	0.714220	0.681360
O301	O30	0.846100	0.698690	0.499820
O311	O31	0.465900	0.885290	0.886420
O321	O32	0.569500	0.646820	0.759560
