data_FAZPED_clean_PM
_symmetry_space_group_name_H-M	'P1'
_cell_length_a	12.172000
_cell_length_b	16.397400
_cell_length_c	16.397400
_cell_angle_alpha	65.910600
_cell_angle_beta	75.674000
_cell_angle_gamma	104.326000
_symmetry_Int_Tables_number 1

loop_
_symmetry_equiv_pos_as_xyz
'x,y,z'

loop_
_atom_site_label
_atom_site_type_symbol
_atom_site_fract_x
_atom_site_fract_y
_atom_site_fract_z
Co11	Co1	0.377480	0.400590	0.552760
Co21	Co2	0.604130	0.353220	0.606970
Co31	Co3	0.930240	0.552760	0.046650
Co41	Co4	0.211100	0.606970	0.039810
Co51	Co5	0.976890	0.046650	0.400590
Co61	Co6	0.250910	0.039810	0.353220
Co71	Co7	0.622520	0.599410	0.447240
Co81	Co8	0.395870	0.646780	0.393030
Co91	Co9	0.069760	0.447240	0.953350
Co101	Co10	0.788900	0.393030	0.960190
Co111	Co11	0.023110	0.953350	0.599410
Co121	Co12	0.749090	0.960190	0.646780
H11	H1	0.248000	0.563700	0.230500
H21	H2	0.437100	0.386100	0.144700
H31	H3	0.202500	0.121700	0.594300
H41	H4	0.160000	0.850300	0.712600
H51	H5	0.439400	0.043800	0.706900
H61	H6	0.422000	0.383200	0.290000
H71	H7	0.327800	0.885000	0.749700
H81	H8	0.353900	0.475300	0.049100
H91	H9	0.478500	0.230500	0.205800
H101	H10	0.581800	0.144700	0.469200
H111	H11	0.796800	0.594300	0.284000
H121	H12	0.872600	0.712600	0.437100
H131	H13	0.146300	0.706900	0.249300
H141	H14	0.712000	0.290000	0.326800
H151	H15	0.077500	0.749700	0.365300
H161	H16	0.403000	0.049100	0.475600
H171	H17	0.684300	0.205800	0.563700
H181	H18	0.051000	0.469200	0.386100
H191	H19	0.080800	0.284000	0.121700
H201	H20	0.309700	0.437100	0.850300
H211	H21	0.395600	0.249300	0.043800
H221	H22	0.038800	0.326800	0.383200
H231	H23	0.442800	0.365300	0.885000
H241	H24	0.878600	0.475600	0.475300
H251	H25	0.752000	0.436300	0.769500
H261	H26	0.562900	0.613900	0.855300
H271	H27	0.797500	0.878300	0.405700
H281	H28	0.840000	0.149700	0.287400
H291	H29	0.560600	0.956200	0.293100
H301	H30	0.578000	0.616800	0.710000
H311	H31	0.672200	0.115000	0.250300
H321	H32	0.646100	0.524700	0.950900
H331	H33	0.521500	0.769500	0.794200
H341	H34	0.418200	0.855300	0.530800
H351	H35	0.203200	0.405700	0.716000
H361	H36	0.127400	0.287400	0.562900
H371	H37	0.853700	0.293100	0.750700
H381	H38	0.288000	0.710000	0.673200
H391	H39	0.922500	0.250300	0.634700
H401	H40	0.597000	0.950900	0.524400
H411	H41	0.315700	0.794200	0.436300
H421	H42	0.949000	0.530800	0.613900
H431	H43	0.919200	0.716000	0.878300
H441	H44	0.690300	0.562900	0.149700
H451	H45	0.604400	0.750700	0.956200
H461	H46	0.961200	0.673200	0.616800
H471	H47	0.557200	0.634700	0.115000
H481	H48	0.121400	0.524400	0.524700
C11	C1	0.334400	0.474600	0.274300
C21	C2	0.286200	0.527200	0.213200
C31	C3	0.332600	0.099600	0.643900
C41	C4	0.398400	0.421500	0.163900
C51	C5	0.230000	0.073900	0.624200
C61	C6	0.204400	0.914400	0.694200
C71	C7	0.327100	0.480000	0.366400
C81	C8	0.371000	0.028800	0.691900
C91	C9	0.390300	0.420000	0.249700
C101	C10	0.398100	0.205200	0.613000
C111	C11	0.304400	0.934600	0.717100
C121	C12	0.348500	0.475500	0.106600
C131	C13	0.608700	0.274300	0.251100
C141	C14	0.499400	0.213200	0.259600
C151	C15	0.976500	0.643900	0.256500
C161	C16	0.562300	0.163900	0.414600
C171	C17	0.854200	0.624200	0.301900
C181	C18	0.898600	0.694200	0.391400
C191	C19	0.693500	0.366400	0.153600
C201	C20	0.062900	0.691900	0.279300
C211	C21	0.640000	0.249700	0.330300
C221	C22	0.011100	0.613000	0.181800
C231	C23	0.021500	0.717100	0.348300
C241	C24	0.455100	0.106600	0.417900
C251	C25	0.859800	0.251100	0.474600
C261	C26	0.759000	0.259600	0.527200
C271	C27	0.233000	0.256500	0.099600
C281	C28	0.976900	0.414600	0.421500
C291	C29	0.156100	0.301900	0.073900
C301	C30	0.290000	0.391400	0.914400
C311	C31	0.847100	0.153600	0.480000
C321	C32	0.342200	0.279300	0.028800
C331	C33	0.970300	0.330300	0.420000
C341	C34	0.192900	0.181800	0.205200
C351	C35	0.369800	0.348300	0.934600
C361	C36	0.873000	0.417900	0.475500
C371	C37	0.665600	0.525400	0.725700
C381	C38	0.713800	0.472800	0.786800
C391	C39	0.667400	0.900400	0.356100
C401	C40	0.601600	0.578500	0.836100
C411	C41	0.770000	0.926100	0.375800
C421	C42	0.795600	0.085600	0.305800
C431	C43	0.672900	0.520000	0.633600
C441	C44	0.629000	0.971200	0.308100
C451	C45	0.609700	0.580000	0.750300
C461	C46	0.601900	0.794800	0.387000
C471	C47	0.695600	0.065400	0.282900
C481	C48	0.651500	0.524500	0.893400
C491	C49	0.391300	0.725700	0.748900
C501	C50	0.500600	0.786800	0.740400
C511	C51	0.023500	0.356100	0.743500
C521	C52	0.437700	0.836100	0.585400
C531	C53	0.145800	0.375800	0.698100
C541	C54	0.101400	0.305800	0.608600
C551	C55	0.306500	0.633600	0.846400
C561	C56	0.937100	0.308100	0.720700
C571	C57	0.360000	0.750300	0.669700
C581	C58	0.988900	0.387000	0.818200
C591	C59	0.978500	0.282900	0.651700
C601	C60	0.544900	0.893400	0.582100
C611	C61	0.140200	0.748900	0.525400
C621	C62	0.241000	0.740400	0.472800
C631	C63	0.767000	0.743500	0.900400
C641	C64	0.023100	0.585400	0.578500
C651	C65	0.843900	0.698100	0.926100
C661	C66	0.710000	0.608600	0.085600
C671	C67	0.152900	0.846400	0.520000
C681	C68	0.657800	0.720700	0.971200
C691	C69	0.029700	0.669700	0.580000
C701	C70	0.807100	0.818200	0.794800
C711	C71	0.630200	0.651700	0.065400
C721	C72	0.127000	0.582100	0.524500
N11	N1	0.292900	0.527500	0.130400
N21	N2	0.168200	0.983100	0.645900
N31	N3	0.578600	0.449300	0.482100
N41	N4	0.603500	0.431900	0.414600
N51	N5	0.624000	0.418200	0.352600
N61	N6	0.423300	0.130400	0.342100
N71	N7	0.814100	0.645900	0.371000
N81	N8	0.060700	0.482100	0.068600
N91	N9	0.018100	0.414600	0.153500
N101	N10	0.976600	0.352600	0.229200
N111	N11	0.765400	0.342100	0.527500
N121	N12	0.185100	0.371000	0.983100
N131	N13	0.129300	0.068600	0.449300
N141	N14	0.171600	0.153500	0.431900
N151	N15	0.205800	0.229200	0.418200
N161	N16	0.707100	0.472500	0.869600
N171	N17	0.831800	0.016900	0.354100
N181	N18	0.421400	0.550700	0.517900
N191	N19	0.396500	0.568100	0.585400
N201	N20	0.376000	0.581800	0.647400
N211	N21	0.576700	0.869600	0.657900
N221	N22	0.185900	0.354100	0.629000
N231	N23	0.939300	0.517900	0.931400
N241	N24	0.981900	0.585400	0.846500
N251	N25	0.023400	0.647400	0.770800
N261	N26	0.234600	0.657900	0.472500
N271	N27	0.814900	0.629000	0.016900
N281	N28	0.870700	0.931400	0.550700
N291	N29	0.828400	0.846500	0.568100
N301	N30	0.794200	0.770800	0.581800
Cl11	Cl1	0.413520	0.356150	0.705090
Cl21	Cl2	0.118610	0.705090	0.938760
Cl31	Cl3	0.057370	0.938760	0.356150
Cl41	Cl4	0.586480	0.643850	0.294910
Cl51	Cl5	0.881390	0.294910	0.061240
Cl61	Cl6	0.942630	0.061240	0.643850
O11	O1	0.347000	0.260800	0.581300
O21	O2	0.358700	0.423400	0.423200
O31	O3	0.499500	0.227100	0.620800
O41	O4	0.292700	0.543200	0.375000
O51	O5	0.928300	0.581300	0.157900
O61	O6	0.781900	0.423200	0.153400
O71	O7	0.120300	0.620800	0.152100
O81	O8	0.667700	0.375000	0.081800
O91	O9	0.086200	0.157900	0.260800
O101	O10	0.935300	0.153400	0.423400
O111	O11	0.272400	0.152100	0.227100
O121	O12	0.749500	0.081800	0.543200
O131	O13	0.653000	0.739200	0.418700
O141	O14	0.641300	0.576600	0.576800
O151	O15	0.500500	0.772900	0.379200
O161	O16	0.707300	0.456800	0.625000
O171	O17	0.071700	0.418700	0.842100
O181	O18	0.218100	0.576800	0.846600
O191	O19	0.879700	0.379200	0.847900
O201	O20	0.332300	0.625000	0.918200
O211	O21	0.913800	0.842100	0.739200
O221	O22	0.064700	0.846600	0.576600
O231	O23	0.727600	0.847900	0.772900
O241	O24	0.250500	0.918200	0.456800
