data_FEBPUY_clean_PM
_symmetry_space_group_name_H-M	'P1'
_cell_length_a	13.668000
_cell_length_b	17.525000
_cell_length_c	19.059000
_cell_angle_alpha	90.000000
_cell_angle_beta	90.000000
_cell_angle_gamma	90.000000
_symmetry_Int_Tables_number 1

loop_
_symmetry_equiv_pos_as_xyz
'x,y,z'

loop_
_atom_site_label
_atom_site_type_symbol
_atom_site_fract_x
_atom_site_fract_y
_atom_site_fract_z
Cu11	Cu1	0.430010	0.139770	0.609770
O11	O1	0.524010	0.117730	0.685300
O21	O2	0.562100	0.995700	0.663800
O31	O3	0.569420	0.048480	0.923710
O41	O4	0.490200	0.016120	0.825260
O51	O5	0.337320	0.313840	0.043370
O61	O6	0.316400	0.218480	0.119410
O71	O7	0.252700	0.022860	0.994330
O81	O8	0.369700	0.111690	0.997230
N11	N1	0.819600	0.105640	0.827280
N21	N2	0.043400	0.180520	0.947020
C11	C1	0.735600	0.082110	0.856020
H11	H1	0.732800	0.077600	0.904600
C21	C2	0.652500	0.064050	0.817990
C31	C3	0.561800	0.040400	0.857820
C41	C4	0.657600	0.068040	0.744650
C51	C5	0.572300	0.056800	0.694950
C61	C6	0.746600	0.089600	0.715250
H21	H2	0.753200	0.091200	0.666700
C71	C7	0.825000	0.108700	0.756880
H31	H3	0.883200	0.124000	0.735900
C81	C8	0.118700	0.132500	0.957710
H41	H4	0.113600	0.083200	0.939900
C91	C9	0.203600	0.151700	0.993740
C101	C10	0.283100	0.091200	0.996960
C111	C11	0.211000	0.225800	0.020480
C121	C12	0.296600	0.252400	0.065440
C131	C13	0.132800	0.275200	0.009490
H51	H5	0.135800	0.324900	0.026400
C141	C14	0.051110	0.251050	0.973740
H61	H6	0.999300	0.284900	0.967900
Cu21	Cu2	0.069990	0.860230	0.109770
O91	O9	0.975990	0.882270	0.185300
O101	O10	0.937900	0.004300	0.163800
O111	O11	0.930580	0.951520	0.423710
O121	O12	0.009800	0.983880	0.325260
O131	O13	0.162680	0.686160	0.543370
O141	O14	0.183600	0.781520	0.619410
O151	O15	0.247300	0.977140	0.494330
O161	O16	0.130300	0.888310	0.497230
N31	N3	0.680400	0.894360	0.327280
N41	N4	0.456600	0.819480	0.447020
C151	C15	0.764400	0.917890	0.356020
H71	H7	0.767200	0.922400	0.404600
C161	C16	0.847500	0.935950	0.317990
C171	C17	0.938200	0.959600	0.357820
C181	C18	0.842400	0.931960	0.244650
C191	C19	0.927700	0.943200	0.194950
C201	C20	0.753400	0.910400	0.215250
H81	H8	0.746800	0.908800	0.166700
C211	C21	0.675000	0.891300	0.256880
H91	H9	0.616800	0.876000	0.235900
C221	C22	0.381300	0.867500	0.457710
H101	H10	0.386400	0.916800	0.439900
C231	C23	0.296400	0.848300	0.493740
C241	C24	0.216900	0.908800	0.496960
C251	C25	0.289000	0.774200	0.520480
C261	C26	0.203400	0.747600	0.565440
C271	C27	0.367200	0.724800	0.509490
H111	H11	0.364200	0.675100	0.526400
C281	C28	0.448890	0.748950	0.473740
H121	H12	0.500700	0.715100	0.467900
Cu31	Cu3	0.569990	0.639770	0.890230
O171	O17	0.475990	0.617730	0.814700
O181	O18	0.437900	0.495700	0.836200
O191	O19	0.430580	0.548480	0.576290
O201	O20	0.509800	0.516120	0.674740
O211	O21	0.662680	0.813840	0.456630
O221	O22	0.683600	0.718480	0.380590
O231	O23	0.747300	0.522860	0.505670
O241	O24	0.630300	0.611690	0.502770
N51	N5	0.180400	0.605640	0.672720
N61	N6	0.956600	0.680520	0.552980
C291	C29	0.264400	0.582110	0.643980
H131	H13	0.267200	0.577600	0.595400
C301	C30	0.347500	0.564050	0.682010
C311	C31	0.438200	0.540400	0.642180
C321	C32	0.342400	0.568040	0.755350
C331	C33	0.427700	0.556800	0.805050
C341	C34	0.253400	0.589600	0.784750
H141	H14	0.246800	0.591200	0.833300
C351	C35	0.175000	0.608700	0.743120
H151	H15	0.116800	0.624000	0.764100
C361	C36	0.881300	0.632500	0.542290
H161	H16	0.886400	0.583200	0.560100
C371	C37	0.796400	0.651700	0.506260
C381	C38	0.716900	0.591200	0.503040
C391	C39	0.789000	0.725800	0.479520
C401	C40	0.703400	0.752400	0.434560
C411	C41	0.867200	0.775200	0.490510
H171	H17	0.864200	0.824900	0.473600
C421	C42	0.948890	0.751050	0.526260
H181	H18	0.000700	0.784900	0.532100
Cu41	Cu4	0.930010	0.360230	0.390230
O251	O25	0.024010	0.382270	0.314700
O261	O26	0.062100	0.504300	0.336200
O271	O27	0.069420	0.451520	0.076290
O281	O28	0.990200	0.483880	0.174740
O291	O29	0.837320	0.186160	0.956630
O301	O30	0.816400	0.281520	0.880590
O311	O31	0.752700	0.477140	0.005670
O321	O32	0.869700	0.388310	0.002770
N71	N7	0.319600	0.394360	0.172720
N81	N8	0.543400	0.319480	0.052980
C431	C43	0.235600	0.417890	0.143980
H191	H19	0.232800	0.422400	0.095400
C441	C44	0.152500	0.435950	0.182010
C451	C45	0.061800	0.459600	0.142180
C461	C46	0.157600	0.431960	0.255350
C471	C47	0.072300	0.443200	0.305050
C481	C48	0.246600	0.410400	0.284750
H201	H20	0.253200	0.408800	0.333300
C491	C49	0.325000	0.391300	0.243120
H211	H21	0.383200	0.376000	0.264100
C501	C50	0.618700	0.367500	0.042290
H221	H22	0.613600	0.416800	0.060100
C511	C51	0.703600	0.348300	0.006260
C521	C52	0.783100	0.408800	0.003040
C531	C53	0.711000	0.274200	0.979520
C541	C54	0.796600	0.247600	0.934560
C551	C55	0.632800	0.224800	0.990510
H231	H23	0.635800	0.175100	0.973600
C561	C56	0.551110	0.248950	0.026260
H241	H24	0.499300	0.215100	0.032100
Cu51	Cu5	0.569990	0.860230	0.390230
O331	O33	0.475990	0.882270	0.314700
O341	O34	0.437900	0.004300	0.336200
O351	O35	0.430580	0.951520	0.076290
O361	O36	0.509800	0.983880	0.174740
O371	O37	0.662680	0.686160	0.956630
O381	O38	0.683600	0.781520	0.880590
O391	O39	0.747300	0.977140	0.005670
O401	O40	0.630300	0.888310	0.002770
N91	N9	0.180400	0.894360	0.172720
N101	N10	0.956600	0.819480	0.052980
C571	C57	0.264400	0.917890	0.143980
H251	H25	0.267200	0.922400	0.095400
C581	C58	0.347500	0.935950	0.182010
C591	C59	0.438200	0.959600	0.142180
C601	C60	0.342400	0.931960	0.255350
C611	C61	0.427700	0.943200	0.305050
C621	C62	0.253400	0.910400	0.284750
H261	H26	0.246800	0.908800	0.333300
C631	C63	0.175000	0.891300	0.243120
H271	H27	0.116800	0.876000	0.264100
C641	C64	0.881300	0.867500	0.042290
H281	H28	0.886400	0.916800	0.060100
C651	C65	0.796400	0.848300	0.006260
C661	C66	0.716900	0.908800	0.003040
C671	C67	0.789000	0.774200	0.979520
C681	C68	0.703400	0.747600	0.934560
C691	C69	0.867200	0.724800	0.990510
H291	H29	0.864200	0.675100	0.973600
C701	C70	0.948890	0.748950	0.026260
H301	H30	0.000700	0.715100	0.032100
Cu61	Cu6	0.930010	0.139770	0.890230
O411	O41	0.024010	0.117730	0.814700
O421	O42	0.062100	0.995700	0.836200
O431	O43	0.069420	0.048480	0.576290
O441	O44	0.990200	0.016120	0.674740
O451	O45	0.837320	0.313840	0.456630
O461	O46	0.816400	0.218480	0.380590
O471	O47	0.752700	0.022860	0.505670
O481	O48	0.869700	0.111690	0.502770
N111	N11	0.319600	0.105640	0.672720
N121	N12	0.543400	0.180520	0.552980
C711	C71	0.235600	0.082110	0.643980
H311	H31	0.232800	0.077600	0.595400
C721	C72	0.152500	0.064050	0.682010
C731	C73	0.061800	0.040400	0.642180
C741	C74	0.157600	0.068040	0.755350
C751	C75	0.072300	0.056800	0.805050
C761	C76	0.246600	0.089600	0.784750
H321	H32	0.253200	0.091200	0.833300
C771	C77	0.325000	0.108700	0.743120
H331	H33	0.383200	0.124000	0.764100
C781	C78	0.618700	0.132500	0.542290
H341	H34	0.613600	0.083200	0.560100
C791	C79	0.703600	0.151700	0.506260
C801	C80	0.783100	0.091200	0.503040
C811	C81	0.711000	0.225800	0.479520
C821	C82	0.796600	0.252400	0.434560
C831	C83	0.632800	0.275200	0.490510
H351	H35	0.635800	0.324900	0.473600
C841	C84	0.551110	0.251050	0.526260
H361	H36	0.499300	0.284900	0.532100
Cu71	Cu7	0.430010	0.360230	0.109770
O491	O49	0.524010	0.382270	0.185300
O501	O50	0.562100	0.504300	0.163800
O511	O51	0.569420	0.451520	0.423710
O521	O52	0.490200	0.483880	0.325260
O531	O53	0.337320	0.186160	0.543370
O541	O54	0.316400	0.281520	0.619410
O551	O55	0.252700	0.477140	0.494330
O561	O56	0.369700	0.388310	0.497230
N131	N13	0.819600	0.394360	0.327280
N141	N14	0.043400	0.319480	0.447020
C851	C85	0.735600	0.417890	0.356020
H371	H37	0.732800	0.422400	0.404600
C861	C86	0.652500	0.435950	0.317990
C871	C87	0.561800	0.459600	0.357820
C881	C88	0.657600	0.431960	0.244650
C891	C89	0.572300	0.443200	0.194950
C901	C90	0.746600	0.410400	0.215250
H381	H38	0.753200	0.408800	0.166700
C911	C91	0.825000	0.391300	0.256880
H391	H39	0.883200	0.376000	0.235900
C921	C92	0.118700	0.367500	0.457710
H401	H40	0.113600	0.416800	0.439900
C931	C93	0.203600	0.348300	0.493740
C941	C94	0.283100	0.408800	0.496960
C951	C95	0.211000	0.274200	0.520480
C961	C96	0.296600	0.247600	0.565440
C971	C97	0.132800	0.224800	0.509490
H411	H41	0.135800	0.175100	0.526400
C981	C98	0.051110	0.248950	0.473740
H421	H42	0.999300	0.215100	0.467900
Cu81	Cu8	0.069990	0.639770	0.609770
O571	O57	0.975990	0.617730	0.685300
O581	O58	0.937900	0.495700	0.663800
O591	O59	0.930580	0.548480	0.923710
O601	O60	0.009800	0.516120	0.825260
O611	O61	0.162680	0.813840	0.043370
O621	O62	0.183600	0.718480	0.119410
O631	O63	0.247300	0.522860	0.994330
O641	O64	0.130300	0.611690	0.997230
N151	N15	0.680400	0.605640	0.827280
N161	N16	0.456600	0.680520	0.947020
C991	C99	0.764400	0.582110	0.856020
H431	H43	0.767200	0.577600	0.904600
C1001	C100	0.847500	0.564050	0.817990
C1011	C101	0.938200	0.540400	0.857820
C1021	C102	0.842400	0.568040	0.744650
C1031	C103	0.927700	0.556800	0.694950
C1041	C104	0.753400	0.589600	0.715250
H441	H44	0.746800	0.591200	0.666700
C1051	C105	0.675000	0.608700	0.756880
H451	H45	0.616800	0.624000	0.735900
C1061	C106	0.381300	0.632500	0.957710
H461	H46	0.386400	0.583200	0.939900
C1071	C107	0.296400	0.651700	0.993740
C1081	C108	0.216900	0.591200	0.996960
C1091	C109	0.289000	0.725800	0.020480
C1101	C110	0.203400	0.752400	0.065440
C1111	C111	0.367200	0.775200	0.009490
H471	H47	0.364200	0.824900	0.026400
C1121	C112	0.448890	0.751050	0.973740
H481	H48	0.500700	0.784900	0.967900
Cu91	Cu9	0.500000	0.000000	0.000000
Cu101	Cu10	0.000000	0.000000	0.500000
Cu111	Cu11	0.500000	0.500000	0.500000
Cu121	Cu12	0.000000	0.500000	0.000000
