data_FEBXIV_clean_PM
_symmetry_space_group_name_H-M	'P1'
_cell_length_a	24.461600
_cell_length_b	24.461600
_cell_length_c	39.882100
_cell_angle_alpha	72.141100
_cell_angle_beta	72.141100
_cell_angle_gamma	90.000000
_symmetry_Int_Tables_number 1

loop_
_symmetry_equiv_pos_as_xyz
'x,y,z'

loop_
_atom_site_label
_atom_site_type_symbol
_atom_site_fract_x
_atom_site_fract_y
_atom_site_fract_z
Cu11	Cu1	0.903000	0.899460	0.273560
Cu21	Cu2	0.823440	0.826980	0.273560
Cu31	Cu3	0.649460	0.073440	0.773560
Cu41	Cu4	0.576980	0.153000	0.773560
Cu51	Cu5	0.926560	0.350540	0.226440
Cu61	Cu6	0.847000	0.423020	0.226440
Cu71	Cu7	0.173020	0.176560	0.726440
Cu81	Cu8	0.100540	0.097000	0.726440
P11	P1	0.663010	0.336990	0.000000
P21	P2	0.336990	0.663010	0.000000
P31	P3	0.086990	0.586990	0.500000
P41	P4	0.413010	0.913010	0.500000
H11	H1	0.705200	0.088900	0.862800
H21	H2	0.656500	0.261400	0.885200
H31	H3	0.060000	0.228200	0.815800
H41	H4	0.877600	0.129400	0.858400
H51	H5	0.623100	0.230000	0.845600
H61	H6	0.986400	0.243900	0.868000
H71	H7	0.730600	0.113900	0.909000
H81	H8	0.948900	0.115800	0.809000
H91	H9	0.643100	0.223400	0.951600
H101	H10	0.862400	0.226100	0.974400
H111	H11	0.933600	0.211000	0.926000
H121	H12	0.808600	0.188600	0.881800
H131	H13	0.432000	0.048300	0.862800
H141	H14	0.458300	0.853400	0.885200
H151	H15	0.124200	0.956000	0.815800
H161	H16	0.264000	0.012200	0.858400
H171	H17	0.531300	0.924400	0.845600
H181	H18	0.145600	0.888100	0.868000
H191	H19	0.360400	0.977100	0.909000
H201	H20	0.242100	0.075200	0.809000
H211	H21	0.405300	0.825000	0.951600
H221	H22	0.163200	0.799500	0.974400
H231	H23	0.140400	0.863000	0.926000
H241	H24	0.309600	0.929600	0.881800
H251	H25	0.838900	0.682000	0.362800
H261	H26	0.011400	0.708300	0.385200
H271	H27	0.978200	0.374200	0.315800
H281	H28	0.879400	0.514000	0.358400
H291	H29	0.980000	0.781300	0.345600
H301	H30	0.993900	0.395600	0.368000
H311	H31	0.863900	0.610400	0.409000
H321	H32	0.865800	0.492100	0.309000
H331	H33	0.973400	0.655300	0.451600
H341	H34	0.976100	0.413200	0.474400
H351	H35	0.961000	0.390400	0.426000
H361	H36	0.938600	0.559600	0.381800
H371	H37	0.798300	0.955200	0.362800
H381	H38	0.603400	0.906500	0.385200
H391	H39	0.706000	0.310000	0.315800
H401	H40	0.762200	0.127600	0.358400
H411	H41	0.674400	0.873100	0.345600
H421	H42	0.638100	0.236400	0.368000
H431	H43	0.727100	0.980600	0.409000
H441	H44	0.825200	0.198900	0.309000
H451	H45	0.575000	0.893100	0.451600
H461	H46	0.549500	0.112400	0.474400
H471	H47	0.613000	0.183600	0.426000
H481	H48	0.679600	0.058600	0.381800
H491	H49	0.318000	0.161100	0.637200
H501	H50	0.291700	0.988600	0.614800
H511	H51	0.625800	0.021800	0.684200
H521	H52	0.486000	0.120600	0.641600
H531	H53	0.218700	0.020000	0.654400
H541	H54	0.604400	0.006100	0.632000
H551	H55	0.389600	0.136100	0.591000
H561	H56	0.507900	0.134200	0.691000
H571	H57	0.344700	0.026600	0.548400
H581	H58	0.586800	0.023900	0.525600
H591	H59	0.609600	0.039000	0.574000
H601	H60	0.440400	0.061400	0.618200
H611	H61	0.044800	0.201700	0.637200
H621	H62	0.093500	0.396600	0.614800
H631	H63	0.690000	0.294000	0.684200
H641	H64	0.872400	0.237800	0.641600
H651	H65	0.126900	0.325600	0.654400
H661	H66	0.763600	0.361900	0.632000
H671	H67	0.019400	0.272900	0.591000
H681	H68	0.801100	0.174800	0.691000
H691	H69	0.106900	0.425000	0.548400
H701	H70	0.887600	0.450500	0.525600
H711	H71	0.816400	0.387000	0.574000
H721	H72	0.941400	0.320400	0.618200
H731	H73	0.951700	0.568000	0.137200
H741	H74	0.146600	0.541700	0.114800
H751	H75	0.044000	0.875800	0.184200
H761	H76	0.987800	0.736000	0.141600
H771	H77	0.075600	0.468700	0.154400
H781	H78	0.111900	0.854400	0.132000
H791	H79	0.022900	0.639600	0.091000
H801	H80	0.924800	0.757900	0.191000
H811	H81	0.175000	0.594700	0.048400
H821	H82	0.200500	0.836800	0.025600
H831	H83	0.137000	0.859600	0.074000
H841	H84	0.070400	0.690400	0.118200
H851	H85	0.911100	0.294800	0.137200
H861	H86	0.738600	0.343500	0.114800
H871	H87	0.771800	0.940000	0.184200
H881	H88	0.870600	0.122400	0.141600
H891	H89	0.770000	0.376900	0.154400
H901	H90	0.756100	0.013600	0.132000
H911	H91	0.886100	0.269400	0.091000
H921	H92	0.884200	0.051100	0.191000
H931	H93	0.776600	0.356900	0.048400
H941	H94	0.773900	0.137600	0.025600
H951	H95	0.789000	0.066400	0.074000
H961	H96	0.811400	0.191400	0.118200
C11	C1	0.639580	0.141660	0.821240
C21	C2	0.660630	0.158530	0.850140
C31	C3	0.694340	0.122480	0.868120
C41	C4	0.665420	0.226540	0.881160
C51	C5	0.751360	0.238060	0.983080
C61	C6	0.700280	0.188480	0.899640
C71	C7	0.023330	0.208460	0.824480
C81	C8	0.914070	0.149650	0.849700
C91	C9	0.057110	0.157690	0.775300
C101	C10	0.011770	0.170170	0.807460
C111	C11	0.646710	0.207720	0.857360
C121	C12	0.979080	0.218940	0.856040
C131	C13	0.776680	0.209290	0.928440
C141	C14	0.711390	0.138820	0.894760
C151	C15	0.957010	0.141350	0.820380
C161	C16	0.681200	0.224100	0.951400
C171	C17	0.720420	0.209320	0.925360
C181	C18	0.791830	0.222430	0.957140
C191	C19	0.925950	0.188350	0.866100
C201	C20	0.852060	0.220350	0.955080
C211	C21	0.895390	0.210440	0.926380
C221	C22	0.878340	0.198870	0.896520
C231	C23	0.819770	0.197730	0.899860
C241	C24	0.696160	0.241860	0.980080
C251	C25	0.539180	0.037100	0.821240
C261	C26	0.489230	0.991330	0.850140
C271	C27	0.437540	0.009400	0.868120
C281	C28	0.453420	0.892300	0.881160
C291	C29	0.265560	0.778860	0.983080
C301	C30	0.400080	0.911880	0.899640
C311	C31	0.152190	0.967060	0.824480
C321	C32	0.236230	0.000650	0.849700
C331	C33	0.167590	0.067010	0.775300
C341	C34	0.180770	0.022370	0.807460
C351	C35	0.495930	0.934920	0.857360
C361	C36	0.164880	0.925020	0.856040
C371	C37	0.294880	0.862270	0.928440
C381	C38	0.393850	0.966420	0.894760
C391	C39	0.222610	0.038270	0.820380
C401	C40	0.367400	0.824500	0.951400
C411	C41	0.354220	0.865320	0.925360
C421	C42	0.251030	0.820430	0.957140
C431	C43	0.207950	0.945550	0.866100
C441	C44	0.192860	0.824570	0.955080
C451	C45	0.178230	0.863180	0.926380
C461	C46	0.225140	0.904610	0.896520
C471	C47	0.280370	0.902410	0.899860
C481	C48	0.323760	0.778060	0.980080
C491	C49	0.891660	0.789180	0.321240
C501	C50	0.908530	0.739230	0.350140
C511	C51	0.872480	0.687540	0.368120
C521	C52	0.976540	0.703420	0.381160
C531	C53	0.988060	0.515560	0.483080
C541	C54	0.938480	0.650080	0.399640
C551	C55	0.958460	0.402190	0.324480
C561	C56	0.899650	0.486230	0.349700
C571	C57	0.907690	0.417590	0.275300
C581	C58	0.920170	0.430770	0.307460
C591	C59	0.957720	0.745930	0.357360
C601	C60	0.968940	0.414880	0.356040
C611	C61	0.959290	0.544880	0.428440
C621	C62	0.888820	0.643850	0.394760
C631	C63	0.891350	0.472610	0.320380
C641	C64	0.974100	0.617400	0.451400
C651	C65	0.959320	0.604220	0.425360
C661	C66	0.972430	0.501030	0.457140
C671	C67	0.938350	0.457950	0.366100
C681	C68	0.970350	0.442860	0.455080
C691	C69	0.960440	0.428230	0.426380
C701	C70	0.948870	0.475140	0.396520
C711	C71	0.947730	0.530370	0.399860
C721	C72	0.991860	0.573760	0.480080
C731	C73	0.787100	0.889580	0.321240
C741	C74	0.741330	0.910630	0.350140
C751	C75	0.759400	0.944340	0.368120
C761	C76	0.642300	0.915420	0.381160
C771	C77	0.528860	0.001360	0.483080
C781	C78	0.661880	0.950280	0.399640
C791	C79	0.717060	0.273330	0.324480
C801	C80	0.750650	0.164070	0.349700
C811	C81	0.817010	0.307110	0.275300
C821	C82	0.772370	0.261770	0.307460
C831	C83	0.684920	0.896710	0.357360
C841	C84	0.675020	0.229080	0.356040
C851	C85	0.612270	0.026680	0.428440
C861	C86	0.716420	0.961390	0.394760
C871	C87	0.788270	0.207010	0.320380
C881	C88	0.574500	0.931200	0.451400
C891	C89	0.615320	0.970420	0.425360
C901	C90	0.570430	0.041830	0.457140
C911	C91	0.695550	0.175950	0.366100
C921	C92	0.574570	0.102060	0.455080
C931	C93	0.613180	0.145390	0.426380
C941	C94	0.654610	0.128340	0.396520
C951	C95	0.652410	0.069770	0.399860
C961	C96	0.528060	0.946160	0.480080
C971	C97	0.210820	0.108340	0.678760
C981	C98	0.260770	0.091470	0.649860
C991	C99	0.312460	0.127520	0.631880
C1001	C100	0.296580	0.023460	0.618840
C1011	C101	0.484440	0.011940	0.516920
C1021	C102	0.349920	0.061520	0.600360
C1031	C103	0.597810	0.041540	0.675520
C1041	C104	0.513770	0.100350	0.650300
C1051	C105	0.582410	0.092310	0.724700
C1061	C106	0.569230	0.079830	0.692540
C1071	C107	0.254070	0.042280	0.642640
C1081	C108	0.585120	0.031060	0.643960
C1091	C109	0.455120	0.040710	0.571560
C1101	C110	0.356150	0.111180	0.605240
C1111	C111	0.527390	0.108650	0.679620
C1121	C112	0.382600	0.025900	0.548600
C1131	C113	0.395780	0.040680	0.574640
C1141	C114	0.498970	0.027570	0.542860
C1151	C115	0.542050	0.061650	0.633900
C1161	C116	0.557140	0.029650	0.544920
C1171	C117	0.571770	0.039560	0.573620
C1181	C118	0.524860	0.051130	0.603480
C1191	C119	0.469630	0.052270	0.600140
C1201	C120	0.426240	0.008140	0.519920
C1211	C121	0.110420	0.212900	0.678760
C1221	C122	0.089370	0.258670	0.649860
C1231	C123	0.055660	0.240600	0.631880
C1241	C124	0.084580	0.357700	0.618840
C1251	C125	0.998640	0.471140	0.516920
C1261	C126	0.049720	0.338120	0.600360
C1271	C127	0.726670	0.282940	0.675520
C1281	C128	0.835930	0.249350	0.650300
C1291	C129	0.692890	0.182990	0.724700
C1301	C130	0.738230	0.227630	0.692540
C1311	C131	0.103290	0.315080	0.642640
C1321	C132	0.770920	0.324980	0.643960
C1331	C133	0.973320	0.387730	0.571560
C1341	C134	0.038610	0.283580	0.605240
C1351	C135	0.792990	0.211730	0.679620
C1361	C136	0.068800	0.425500	0.548600
C1371	C137	0.029580	0.384680	0.574640
C1381	C138	0.958170	0.429570	0.542860
C1391	C139	0.824050	0.304450	0.633900
C1401	C140	0.897940	0.425430	0.544920
C1411	C141	0.854610	0.386820	0.573620
C1421	C142	0.871660	0.345390	0.603480
C1431	C143	0.930230	0.347590	0.600140
C1441	C144	0.053840	0.471940	0.519920
C1451	C145	0.962900	0.460820	0.178760
C1461	C146	0.008670	0.510770	0.149860
C1471	C147	0.990600	0.562460	0.131880
C1481	C148	0.107700	0.546580	0.118840
C1491	C149	0.221140	0.734440	0.016920
C1501	C150	0.088120	0.599920	0.100360
C1511	C151	0.032940	0.847810	0.175520
C1521	C152	0.999350	0.763770	0.150300
C1531	C153	0.932990	0.832410	0.224700
C1541	C154	0.977630	0.819230	0.192540
C1551	C155	0.065080	0.504070	0.142640
C1561	C156	0.074980	0.835120	0.143960
C1571	C157	0.137730	0.705120	0.071560
C1581	C158	0.033580	0.606150	0.105240
C1591	C159	0.961730	0.777390	0.179620
C1601	C160	0.175500	0.632600	0.048600
C1611	C161	0.134680	0.645780	0.074640
C1621	C162	0.179570	0.748970	0.042860
C1631	C163	0.054450	0.792050	0.133900
C1641	C164	0.175430	0.807140	0.044920
C1651	C165	0.136820	0.821770	0.073620
C1661	C166	0.095390	0.774860	0.103480
C1671	C167	0.097590	0.719630	0.100140
C1681	C168	0.221940	0.676240	0.019920
C1691	C169	0.858340	0.360420	0.178760
C1701	C170	0.841470	0.339370	0.149860
C1711	C171	0.877520	0.305660	0.131880
C1721	C172	0.773460	0.334580	0.118840
C1731	C173	0.761940	0.248640	0.016920
C1741	C174	0.811520	0.299720	0.100360
C1751	C175	0.791540	0.976670	0.175520
C1761	C176	0.850350	0.085930	0.150300
C1771	C177	0.842310	0.942890	0.224700
C1781	C178	0.829830	0.988230	0.192540
C1791	C179	0.792280	0.353290	0.142640
C1801	C180	0.781060	0.020920	0.143960
C1811	C181	0.790710	0.223320	0.071560
C1821	C182	0.861180	0.288610	0.105240
C1831	C183	0.858650	0.042990	0.179620
C1841	C184	0.775900	0.318800	0.048600
C1851	C185	0.790680	0.279580	0.074640
C1861	C186	0.777570	0.208170	0.042860
C1871	C187	0.811650	0.074050	0.133900
C1881	C188	0.779650	0.147940	0.044920
C1891	C189	0.789560	0.104610	0.073620
C1901	C190	0.801130	0.121660	0.103480
C1911	C191	0.802270	0.180230	0.100140
C1921	C192	0.758140	0.303840	0.019920
O11	O1	0.662040	0.096950	0.814160
O21	O2	0.606820	0.170660	0.809020
O31	O3	0.044580	0.122110	0.762020
O41	O4	0.105830	0.185280	0.767400
O51	O5	0.653860	0.262980	0.006040
O61	O6	0.629590	0.341850	0.036780
O71	O7	0.523800	0.088890	0.814160
O81	O8	0.584160	0.020320	0.809020
O91	O9	0.193400	0.115870	0.762020
O101	O10	0.126770	0.047320	0.767400
O111	O11	0.340100	0.730980	0.006040
O121	O12	0.333630	0.621370	0.036780
O131	O13	0.846950	0.773800	0.314160
O141	O14	0.920660	0.834160	0.309020
O151	O15	0.872110	0.443400	0.262020
O161	O16	0.935280	0.376770	0.267400
O171	O17	0.012980	0.590100	0.506040
O181	O18	0.091850	0.583630	0.536780
O191	O19	0.838890	0.912040	0.314160
O201	O20	0.770320	0.856820	0.309020
O211	O21	0.865870	0.294580	0.262020
O221	O22	0.797320	0.355830	0.267400
O231	O23	0.480980	0.903860	0.506040
O241	O24	0.371370	0.879590	0.536780
O251	O25	0.226200	0.153050	0.685840
O261	O26	0.165840	0.079340	0.690980
O271	O27	0.556600	0.127890	0.737980
O281	O28	0.623230	0.064720	0.732600
O291	O29	0.409900	0.987020	0.493960
O301	O30	0.416370	0.908150	0.463220
O311	O31	0.087960	0.161110	0.685840
O321	O32	0.143180	0.229680	0.690980
O331	O33	0.705420	0.134130	0.737980
O341	O34	0.644170	0.202680	0.732600
O351	O35	0.096140	0.519020	0.493960
O361	O36	0.120410	0.628630	0.463220
O371	O37	0.911110	0.476200	0.185840
O381	O38	0.979680	0.415840	0.190980
O391	O39	0.884130	0.806600	0.237980
O401	O40	0.952680	0.873230	0.232600
O411	O41	0.269020	0.659900	0.993960
O421	O42	0.378630	0.666370	0.963220
O431	O43	0.903050	0.337960	0.185840
O441	O44	0.829340	0.393180	0.190980
O451	O45	0.877890	0.955420	0.237980
O461	O46	0.814720	0.894170	0.232600
O471	O47	0.737020	0.346140	0.993960
O481	O48	0.658150	0.370410	0.963220
