data_FECXUI_clean_PM
_symmetry_space_group_name_H-M	'P1'
_cell_length_a	18.626500
_cell_length_b	23.579300
_cell_length_c	30.122700
_cell_angle_alpha	93.223000
_cell_angle_beta	90.000000
_cell_angle_gamma	90.000000
_symmetry_Int_Tables_number 1

loop_
_symmetry_equiv_pos_as_xyz
'x,y,z'

loop_
_atom_site_label
_atom_site_type_symbol
_atom_site_fract_x
_atom_site_fract_y
_atom_site_fract_z
Zn11	Zn1	0.579390	0.649940	0.619860
Zn21	Zn2	0.420000	0.657490	0.200940
Zn31	Zn3	0.505870	0.589590	0.698670
Zn41	Zn4	0.505570	0.721930	0.697600
Zn51	Zn5	0.007940	0.219590	0.618890
Zn61	Zn6	0.006070	0.084720	0.624130
Zn71	Zn7	0.586860	0.657690	0.192100
Zn81	Zn8	0.402420	0.650000	0.630420
Zn91	Zn9	0.920610	0.149940	0.119860
Zn101	Zn10	0.080000	0.157490	0.700940
Zn111	Zn11	0.994130	0.089590	0.198670
Zn121	Zn12	0.994430	0.221930	0.197600
Zn131	Zn13	0.492060	0.719590	0.118890
Zn141	Zn14	0.493930	0.584720	0.124130
Zn151	Zn15	0.913140	0.157690	0.692100
Zn161	Zn16	0.097580	0.150000	0.130420
H11	H1	0.521300	0.584000	0.837800
H21	H2	0.880500	0.936100	0.626400
H31	H3	0.585100	0.669600	0.480400
H41	H4	0.654100	0.459100	0.703300
H51	H5	0.363000	0.627900	0.415600
H61	H6	0.109700	0.381300	0.197100
H71	H7	0.418300	0.640000	0.340400
H81	H8	0.638900	0.684400	0.406500
H91	H9	0.645300	0.855800	0.696700
H101	H10	0.772100	0.292000	0.721800
H111	H11	0.700400	0.368800	0.730200
H121	H12	0.343100	0.454200	0.120900
H131	H13	0.212300	0.876000	0.253200
H141	H14	0.858500	0.351500	0.611500
H151	H15	0.291100	0.799400	0.245600
H161	H16	0.528500	0.536500	0.909600
H171	H17	0.152900	0.478600	0.219700
H181	H18	0.236800	0.547900	0.215400
H191	H19	0.731100	0.515200	0.589000
H201	H20	0.676400	0.956800	0.713700
H211	H21	0.374700	0.634000	0.491000
H221	H22	0.753300	0.031900	0.707400
H231	H23	0.768100	0.760500	0.612000
H241	H24	0.498500	0.711000	0.986100
H251	H25	0.848400	0.833100	0.607300
H261	H26	0.302400	0.356100	0.099600
H271	H27	0.804700	0.438500	0.580100
H281	H28	0.330900	0.836900	0.119600
H291	H29	0.494000	0.759500	0.913300
H301	H30	0.145700	0.953700	0.220300
H311	H31	0.625900	0.683000	0.330700
H321	H32	0.490800	0.752700	0.838500
H331	H33	0.194000	0.993600	0.096000
H341	H34	0.272200	0.920600	0.089100
H351	H35	0.219000	0.286700	0.104400
H361	H36	0.978700	0.084000	0.337800
H371	H37	0.619500	0.436100	0.126400
H381	H38	0.914900	0.169600	0.980400
H391	H39	0.845900	0.959100	0.203300
H401	H40	0.137000	0.127900	0.915600
H411	H41	0.390300	0.881300	0.697100
H421	H42	0.081700	0.140000	0.840400
H431	H43	0.861100	0.184400	0.906500
H441	H44	0.854700	0.355800	0.196700
H451	H45	0.727900	0.792000	0.221800
H461	H46	0.799600	0.868800	0.230200
H471	H47	0.156900	0.954200	0.620900
H481	H48	0.287700	0.376000	0.753200
H491	H49	0.641500	0.851500	0.111500
H501	H50	0.208900	0.299400	0.745600
H511	H51	0.971500	0.036500	0.409600
H521	H52	0.347100	0.978600	0.719700
H531	H53	0.263200	0.047900	0.715400
H541	H54	0.768900	0.015200	0.089000
H551	H55	0.823600	0.456800	0.213700
H561	H56	0.125300	0.134000	0.991000
H571	H57	0.746700	0.531900	0.207400
H581	H58	0.731900	0.260500	0.112000
H591	H59	0.001500	0.211000	0.486100
H601	H60	0.651600	0.333100	0.107300
H611	H61	0.197600	0.856100	0.599600
H621	H62	0.695300	0.938500	0.080100
H631	H63	0.169100	0.336900	0.619600
H641	H64	0.006000	0.259500	0.413300
H651	H65	0.354300	0.453700	0.720300
H661	H66	0.874100	0.183000	0.830700
H671	H67	0.009200	0.252700	0.338500
H681	H68	0.306000	0.493600	0.596000
H691	H69	0.227800	0.420600	0.589100
H701	H70	0.281000	0.786700	0.604400
C11	C1	0.513500	0.657500	0.279100
C21	C2	0.515600	0.622000	0.900100
C31	C3	0.516500	0.619100	0.853200
C41	C4	0.466900	0.650300	0.400200
C51	C5	0.519700	0.660700	0.327800
C61	C6	0.794900	0.892700	0.647400
C71	C7	0.840300	0.939500	0.644600
C81	C8	0.481900	0.651000	0.493600
C91	C9	0.194600	0.422400	0.172400
C101	C10	0.697400	0.801700	0.654900
C111	C11	0.684600	0.494800	0.646300
C121	C12	0.540600	0.662400	0.467200
C131	C13	0.731300	0.407600	0.674500
C141	C14	0.533300	0.663000	0.420600
C151	C15	0.684600	0.454700	0.678900
C161	C16	0.407100	0.637600	0.428300
C171	C17	0.147000	0.377200	0.176600
C181	C18	0.462000	0.649000	0.353900
C191	C19	0.778000	0.401800	0.637400
C201	C20	0.594700	0.675700	0.393400
C211	C21	0.684800	0.852300	0.677800
C221	C22	0.878900	0.038400	0.663600
C231	C23	0.773500	0.319400	0.700900
C241	C24	0.518500	0.575800	0.969300
C251	C25	0.730900	0.365000	0.705800
C261	C26	0.730500	0.899800	0.673400
C271	C27	0.305300	0.458600	0.141000
C281	C28	0.236100	0.868100	0.226400
C291	C29	0.153300	0.327400	0.151800
C301	C30	0.319300	0.812700	0.180900
C311	C31	0.824700	0.354400	0.634300
C321	C32	0.828100	0.988900	0.667200
C331	C33	0.283200	0.822600	0.222200
C341	C34	0.300700	0.507000	0.167900
C351	C35	0.522000	0.571700	0.924500
C361	C36	0.253800	0.415300	0.143000
C371	C37	0.224000	0.902400	0.190200
C381	C38	0.510300	0.667400	0.829800
C391	C39	0.103300	0.278900	0.156100
C401	C40	0.190800	0.473400	0.199800
C411	C41	0.241000	0.514600	0.197600
C421	C42	0.730800	0.488000	0.610200
C431	C43	0.260200	0.892400	0.151300
C441	C44	0.717300	0.952300	0.696100
C451	C45	0.414600	0.639900	0.473300
C461	C46	0.107600	0.027700	0.163000
C471	C47	0.763400	0.996900	0.693000
C481	C48	0.759700	0.794900	0.627800
C491	C49	0.503800	0.676200	0.970300
C501	C50	0.807300	0.838600	0.624600
C511	C51	0.160600	0.980100	0.158400
C521	C52	0.262800	0.361900	0.118100
C531	C53	0.507300	0.674800	0.923700
C541	C54	0.371600	0.764100	0.177400
C551	C55	0.775500	0.442700	0.605100
C561	C56	0.307800	0.845200	0.146600
C571	C57	0.499100	0.724100	0.898400
C581	C58	0.171600	0.947100	0.194200
C591	C59	0.586800	0.674600	0.348400
C601	C60	0.498700	0.720300	0.853900
C611	C61	0.508000	0.628800	0.992400
C621	C62	0.200300	0.970200	0.119500
C631	C63	0.821100	0.312400	0.664000
C641	C64	0.247500	0.927400	0.115600
C651	C65	0.870900	0.263600	0.660700
C661	C66	0.504300	0.631300	0.042200
C671	C67	0.356700	0.551900	0.165600
C681	C68	0.644900	0.754100	0.658100
C691	C69	0.510700	0.663400	0.780400
C701	C70	0.490500	0.649900	0.543300
C711	C71	0.634600	0.544500	0.651700
C721	C72	0.213900	0.320400	0.121600
C731	C73	0.986500	0.157500	0.779100
C741	C74	0.984400	0.122000	0.400100
C751	C75	0.983500	0.119100	0.353200
C761	C76	0.033100	0.150300	0.900200
C771	C77	0.980300	0.160700	0.827800
C781	C78	0.705100	0.392700	0.147400
C791	C79	0.659700	0.439500	0.144600
C801	C80	0.018100	0.151000	0.993600
C811	C81	0.305400	0.922400	0.672400
C821	C82	0.802600	0.301700	0.154900
C831	C83	0.815400	0.994800	0.146300
C841	C84	0.959400	0.162400	0.967200
C851	C85	0.768700	0.907600	0.174500
C861	C86	0.966700	0.163000	0.920600
C871	C87	0.815400	0.954700	0.178900
C881	C88	0.092900	0.137600	0.928300
C891	C89	0.353000	0.877200	0.676600
C901	C90	0.038000	0.149000	0.853900
C911	C91	0.722000	0.901800	0.137400
C921	C92	0.905300	0.175700	0.893400
C931	C93	0.815200	0.352300	0.177800
C941	C94	0.621100	0.538400	0.163600
C951	C95	0.726500	0.819400	0.200900
C961	C96	0.981500	0.075800	0.469300
C971	C97	0.769100	0.865000	0.205800
C981	C98	0.769500	0.399800	0.173400
C991	C99	0.194700	0.958600	0.641000
C1001	C100	0.263900	0.368100	0.726400
C1011	C101	0.346700	0.827400	0.651800
C1021	C102	0.180700	0.312700	0.680900
C1031	C103	0.675300	0.854400	0.134300
C1041	C104	0.671900	0.488900	0.167200
C1051	C105	0.216800	0.322600	0.722200
C1061	C106	0.199300	0.007000	0.667900
C1071	C107	0.978000	0.071700	0.424500
C1081	C108	0.246200	0.915300	0.643000
C1091	C109	0.276000	0.402400	0.690200
C1101	C110	0.989700	0.167400	0.329800
C1111	C111	0.396700	0.778900	0.656100
C1121	C112	0.309200	0.973400	0.699800
C1131	C113	0.259000	0.014600	0.697600
C1141	C114	0.769200	0.988000	0.110200
C1151	C115	0.239800	0.392400	0.651300
C1161	C116	0.782700	0.452300	0.196100
C1171	C117	0.085400	0.139900	0.973300
C1181	C118	0.392400	0.527700	0.663000
C1191	C119	0.736600	0.496900	0.193000
C1201	C120	0.740300	0.294900	0.127800
C1211	C121	0.996200	0.176200	0.470300
C1221	C122	0.692700	0.338600	0.124600
C1231	C123	0.339400	0.480100	0.658400
C1241	C124	0.237200	0.861900	0.618100
C1251	C125	0.992700	0.174800	0.423700
C1261	C126	0.128400	0.264100	0.677400
C1271	C127	0.724500	0.942700	0.105100
C1281	C128	0.192200	0.345200	0.646600
C1291	C129	0.000900	0.224100	0.398400
C1301	C130	0.328400	0.447100	0.694200
C1311	C131	0.913200	0.174600	0.848400
C1321	C132	0.001300	0.220300	0.353900
C1331	C133	0.992000	0.128800	0.492400
C1341	C134	0.299700	0.470200	0.619500
C1351	C135	0.678900	0.812400	0.164000
C1361	C136	0.252500	0.427400	0.615600
C1371	C137	0.629100	0.763600	0.160700
C1381	C138	0.995700	0.131300	0.542200
C1391	C139	0.143300	0.051900	0.665600
C1401	C140	0.855100	0.254100	0.158100
C1411	C141	0.989300	0.163400	0.280400
C1421	C142	0.009500	0.149900	0.043300
C1431	C143	0.865400	0.044500	0.151700
C1441	C144	0.286100	0.820400	0.621600
O11	O1	0.436200	0.642300	0.564600
O21	O2	0.568200	0.664400	0.256900
O31	O3	0.351800	0.594600	0.192000
O41	O4	0.509400	0.709900	0.761100
O51	O5	0.598000	0.760000	0.687400
O61	O6	0.931700	0.030200	0.639600
O71	O7	0.364000	0.726300	0.205400
O81	O8	0.452600	0.648400	0.262300
O91	O9	0.495200	0.584800	0.060200
O101	O10	0.060800	0.282500	0.188200
O111	O11	0.065800	0.030300	0.196100
O121	O12	0.919100	0.264300	0.629800
O131	O13	0.850500	0.220000	0.684600
O141	O14	0.862000	0.085000	0.684900
O151	O15	0.510100	0.677700	0.062500
O161	O16	0.595900	0.548100	0.685700
O171	O17	0.413600	0.761400	0.146300
O181	O18	0.500200	0.653200	0.660500
O191	O19	0.497900	0.655900	0.158800
O201	O20	0.513500	0.614700	0.761500
O211	O21	0.635900	0.579900	0.622000
O221	O22	0.650400	0.711900	0.631300
O231	O23	0.405500	0.543100	0.137400
O241	O24	0.554200	0.657400	0.558000
O251	O25	0.106900	0.237900	0.129100
O261	O26	0.109100	0.062300	0.133500
O271	O27	0.063800	0.142300	0.064600
O281	O28	0.931800	0.164400	0.756900
O291	O29	0.148200	0.094600	0.692000
O301	O30	0.990600	0.209900	0.261100
O311	O31	0.902000	0.260000	0.187400
O321	O32	0.568300	0.530200	0.139600
O331	O33	0.136000	0.226300	0.705400
O341	O34	0.047400	0.148400	0.762300
O351	O35	0.004800	0.084800	0.560200
O361	O36	0.439200	0.782500	0.688200
O371	O37	0.434200	0.530300	0.696100
O381	O38	0.580900	0.764300	0.129800
O391	O39	0.649500	0.720000	0.184600
O401	O40	0.638000	0.585000	0.184900
O411	O41	0.989900	0.177700	0.562500
O421	O42	0.904100	0.048100	0.185700
O431	O43	0.086400	0.261400	0.646300
O441	O44	0.999800	0.153200	0.160500
O451	O45	0.002100	0.155900	0.658800
O461	O46	0.986500	0.114700	0.261500
O471	O47	0.864100	0.079900	0.122000
O481	O48	0.849600	0.211900	0.131300
O491	O49	0.094500	0.043100	0.637400
O501	O50	0.945800	0.157400	0.058000
O511	O51	0.393100	0.737900	0.629100
O521	O52	0.390900	0.562300	0.633500
Zn171	Zn17	0.079390	0.850060	0.880140
Zn181	Zn18	0.920000	0.842510	0.299060
Zn191	Zn19	0.005870	0.910410	0.801330
Zn201	Zn20	0.005570	0.778070	0.802400
Zn211	Zn21	0.507940	0.280410	0.881110
Zn221	Zn22	0.506070	0.415280	0.875870
Zn231	Zn23	0.086860	0.842310	0.307900
Zn241	Zn24	0.902420	0.850000	0.869580
Zn251	Zn25	0.420610	0.350060	0.380140
Zn261	Zn26	0.580000	0.342510	0.799060
Zn271	Zn27	0.494130	0.410410	0.301330
Zn281	Zn28	0.494430	0.278070	0.302400
Zn291	Zn29	0.992060	0.780410	0.381110
Zn301	Zn30	0.993930	0.915280	0.375870
Zn311	Zn31	0.413140	0.342310	0.807900
Zn321	Zn32	0.597580	0.350000	0.369580
H711	H71	0.021300	0.916000	0.662200
H721	H72	0.380500	0.563900	0.873600
H731	H73	0.085100	0.830400	0.019600
H741	H74	0.154100	0.040900	0.796700
H751	H75	0.863000	0.872100	0.084400
H761	H76	0.609700	0.118700	0.302900
H771	H77	0.918300	0.860000	0.159600
H781	H78	0.138900	0.815600	0.093500
H791	H79	0.145300	0.644200	0.803300
H801	H80	0.272100	0.208000	0.778200
H811	H81	0.200400	0.131200	0.769800
H821	H82	0.843100	0.045800	0.379100
H831	H83	0.712300	0.624000	0.246800
H841	H84	0.358500	0.148500	0.888500
H851	H85	0.791100	0.700600	0.254400
H861	H86	0.028500	0.963500	0.590400
H871	H87	0.652900	0.021400	0.280300
H881	H88	0.736800	0.952100	0.284600
H891	H89	0.231100	0.984800	0.911000
H901	H90	0.176400	0.543200	0.786300
H911	H91	0.874700	0.866000	0.009000
H921	H92	0.253300	0.468100	0.792600
H931	H93	0.268100	0.739500	0.888000
H941	H94	0.998500	0.789000	0.513900
H951	H95	0.348400	0.666900	0.892700
H961	H96	0.802400	0.143900	0.400400
H971	H97	0.304700	0.061500	0.919900
H981	H98	0.830900	0.663100	0.380400
H991	H99	0.994000	0.740500	0.586700
H1001	H100	0.645700	0.546300	0.279700
H1011	H101	0.125900	0.817000	0.169300
H1021	H102	0.990800	0.747300	0.661500
H1031	H103	0.694000	0.506400	0.404000
H1041	H104	0.772200	0.579400	0.410900
H1051	H105	0.719000	0.213300	0.395600
H1061	H106	0.478700	0.416000	0.162200
H1071	H107	0.119500	0.063900	0.373600
H1081	H108	0.414900	0.330400	0.519600
H1091	H109	0.345900	0.540900	0.296700
H1101	H110	0.637000	0.372100	0.584400
H1111	H111	0.890300	0.618700	0.802900
H1121	H112	0.581700	0.360000	0.659600
H1131	H113	0.361100	0.315600	0.593500
H1141	H114	0.354700	0.144200	0.303300
H1151	H115	0.227900	0.708000	0.278200
H1161	H116	0.299600	0.631200	0.269800
H1171	H117	0.656900	0.545800	0.879100
H1181	H118	0.787700	0.124000	0.746800
H1191	H119	0.141500	0.648500	0.388500
H1201	H120	0.708900	0.200600	0.754400
H1211	H121	0.471500	0.463500	0.090400
H1221	H122	0.847100	0.521400	0.780300
H1231	H123	0.763200	0.452100	0.784600
H1241	H124	0.268900	0.484800	0.411000
H1251	H125	0.323600	0.043200	0.286300
H1261	H126	0.625300	0.366000	0.509000
H1271	H127	0.246700	0.968100	0.292600
H1281	H128	0.231900	0.239500	0.388000
H1291	H129	0.501500	0.289000	0.013900
H1301	H130	0.151600	0.166900	0.392700
H1311	H131	0.697600	0.643900	0.900400
H1321	H132	0.195300	0.561500	0.419900
H1331	H133	0.669100	0.163100	0.880400
H1341	H134	0.506000	0.240500	0.086700
H1351	H135	0.854300	0.046300	0.779700
H1361	H136	0.374100	0.317000	0.669300
H1371	H137	0.509200	0.247300	0.161500
H1381	H138	0.806000	0.006400	0.904000
H1391	H139	0.727800	0.079400	0.910900
H1401	H140	0.781000	0.713300	0.895600
C1451	C145	0.013500	0.842500	0.220900
C1461	C146	0.015600	0.878000	0.599900
C1471	C147	0.016500	0.880900	0.646800
C1481	C148	0.966900	0.849700	0.099800
C1491	C149	0.019700	0.839300	0.172200
C1501	C150	0.294900	0.607300	0.852600
C1511	C151	0.340300	0.560500	0.855400
C1521	C152	0.981900	0.849000	0.006400
C1531	C153	0.694600	0.077600	0.327600
C1541	C154	0.197400	0.698300	0.845100
C1551	C155	0.184600	0.005200	0.853700
C1561	C156	0.040600	0.837600	0.032800
C1571	C157	0.231300	0.092400	0.825500
C1581	C158	0.033300	0.837000	0.079400
C1591	C159	0.184600	0.045300	0.821100
C1601	C160	0.907100	0.862400	0.071700
C1611	C161	0.647000	0.122800	0.323400
C1621	C162	0.962000	0.851000	0.146100
C1631	C163	0.278000	0.098200	0.862600
C1641	C164	0.094700	0.824300	0.106600
C1651	C165	0.184800	0.647700	0.822200
C1661	C166	0.378900	0.461600	0.836400
C1671	C167	0.273500	0.180600	0.799100
C1681	C168	0.018500	0.924200	0.530700
C1691	C169	0.230900	0.135000	0.794200
C1701	C170	0.230500	0.600200	0.826600
C1711	C171	0.805300	0.041400	0.359000
C1721	C172	0.736100	0.631900	0.273600
C1731	C173	0.653300	0.172600	0.348200
C1741	C174	0.819300	0.687300	0.319100
C1751	C175	0.324700	0.145600	0.865700
C1761	C176	0.328100	0.511100	0.832800
C1771	C177	0.783200	0.677400	0.277800
C1781	C178	0.800700	0.993000	0.332100
C1791	C179	0.022000	0.928300	0.575500
C1801	C180	0.753800	0.084700	0.357000
C1811	C181	0.724000	0.597600	0.309800
C1821	C182	0.010300	0.832600	0.670200
C1831	C183	0.603300	0.221100	0.343900
C1841	C184	0.690800	0.026600	0.300200
C1851	C185	0.741000	0.985400	0.302400
C1861	C186	0.230800	0.012000	0.889800
C1871	C187	0.760200	0.607600	0.348700
C1881	C188	0.217300	0.547700	0.803900
C1891	C189	0.914600	0.860100	0.026700
C1901	C190	0.607600	0.472300	0.337000
C1911	C191	0.263400	0.503100	0.807000
C1921	C192	0.259700	0.705100	0.872200
C1931	C193	0.003800	0.823800	0.529700
C1941	C194	0.307300	0.661400	0.875400
C1951	C195	0.660600	0.519900	0.341600
C1961	C196	0.762800	0.138100	0.381900
C1971	C197	0.007300	0.825200	0.576300
C1981	C198	0.871600	0.735900	0.322600
C1991	C199	0.275500	0.057300	0.894900
C2001	C200	0.807800	0.654800	0.353400
C2011	C201	0.999100	0.775900	0.601600
C2021	C202	0.671600	0.552900	0.305800
C2031	C203	0.086800	0.825400	0.151600
C2041	C204	0.998700	0.779700	0.646100
C2051	C205	0.008000	0.871200	0.507600
C2061	C206	0.700300	0.529800	0.380500
C2071	C207	0.321100	0.187600	0.836000
C2081	C208	0.747500	0.572600	0.384400
C2091	C209	0.370900	0.236400	0.839300
C2101	C210	0.004300	0.868700	0.457800
C2111	C211	0.856700	0.948100	0.334400
C2121	C212	0.144900	0.745900	0.841900
C2131	C213	0.010700	0.836600	0.719600
C2141	C214	0.990500	0.850100	0.956700
C2151	C215	0.134600	0.955500	0.848300
C2161	C216	0.713900	0.179600	0.378400
C2171	C217	0.486500	0.342500	0.720900
C2181	C218	0.484400	0.378000	0.099900
C2191	C219	0.483500	0.380900	0.146800
C2201	C220	0.533100	0.349700	0.599800
C2211	C221	0.480300	0.339300	0.672200
C2221	C222	0.205100	0.107300	0.352600
C2231	C223	0.159700	0.060500	0.355400
C2241	C224	0.518100	0.349000	0.506400
C2251	C225	0.805400	0.577600	0.827600
C2261	C226	0.302600	0.198300	0.345100
C2271	C227	0.315400	0.505200	0.353700
C2281	C228	0.459400	0.337600	0.532800
C2291	C229	0.268700	0.592400	0.325500
C2301	C230	0.466700	0.337000	0.579400
C2311	C231	0.315400	0.545300	0.321100
C2321	C232	0.592900	0.362400	0.571700
C2331	C233	0.853000	0.622800	0.823400
C2341	C234	0.538000	0.351000	0.646100
C2351	C235	0.222000	0.598200	0.362600
C2361	C236	0.405300	0.324300	0.606600
C2371	C237	0.315200	0.147700	0.322200
C2381	C238	0.121100	0.961600	0.336400
C2391	C239	0.226500	0.680600	0.299100
C2401	C240	0.481500	0.424200	0.030700
C2411	C241	0.269100	0.635000	0.294200
C2421	C242	0.269500	0.100200	0.326600
C2431	C243	0.694700	0.541400	0.859000
C2441	C244	0.763900	0.131900	0.773600
C2451	C245	0.846700	0.672600	0.848200
C2461	C246	0.680700	0.187300	0.819100
C2471	C247	0.175300	0.645600	0.365700
C2481	C248	0.171900	0.011100	0.332800
C2491	C249	0.716800	0.177400	0.777800
C2501	C250	0.699300	0.493000	0.832100
C2511	C251	0.478000	0.428300	0.075500
C2521	C252	0.746200	0.584700	0.857000
C2531	C253	0.776000	0.097600	0.809800
C2541	C254	0.489700	0.332600	0.170200
C2551	C255	0.896700	0.721100	0.843900
C2561	C256	0.809200	0.526600	0.800200
C2571	C257	0.759000	0.485400	0.802400
C2581	C258	0.269200	0.512000	0.389800
C2591	C259	0.739800	0.107600	0.848700
C2601	C260	0.282700	0.047700	0.303900
C2611	C261	0.585400	0.360100	0.526700
C2621	C262	0.892400	0.972300	0.837000
C2631	C263	0.236600	0.003100	0.307000
C2641	C264	0.240300	0.205100	0.372200
C2651	C265	0.496200	0.323800	0.029700
C2661	C266	0.192700	0.161400	0.375400
C2671	C267	0.839400	0.019900	0.841600
C2681	C268	0.737200	0.638100	0.881900
C2691	C269	0.492700	0.325200	0.076300
C2701	C270	0.628400	0.235900	0.822600
C2711	C271	0.224500	0.557300	0.394900
C2721	C272	0.692200	0.154800	0.853400
C2731	C273	0.500900	0.275900	0.101600
C2741	C274	0.828400	0.052900	0.805800
C2751	C275	0.413200	0.325400	0.651600
C2761	C276	0.501300	0.279700	0.146100
C2771	C277	0.492000	0.371200	0.007600
C2781	C278	0.799700	0.029800	0.880500
C2791	C279	0.178900	0.687600	0.336000
C2801	C280	0.752500	0.072600	0.884400
C2811	C281	0.129100	0.736400	0.339300
C2821	C282	0.495700	0.368700	0.957800
C2831	C283	0.643300	0.448100	0.834400
C2841	C284	0.355100	0.245900	0.341900
C2851	C285	0.489300	0.336600	0.219600
C2861	C286	0.509500	0.350100	0.456700
C2871	C287	0.365400	0.455500	0.348300
C2881	C288	0.786100	0.679600	0.878400
O531	O53	0.936200	0.857700	0.935400
O541	O54	0.068200	0.835600	0.243100
O551	O55	0.851800	0.905400	0.308000
O561	O56	0.009400	0.790100	0.738900
O571	O57	0.098000	0.740000	0.812600
O581	O58	0.431700	0.469800	0.860400
O591	O59	0.864000	0.773700	0.294600
O601	O60	0.952600	0.851600	0.237700
O611	O61	0.995200	0.915200	0.439800
O621	O62	0.560800	0.217500	0.311800
O631	O63	0.565800	0.469700	0.303900
O641	O64	0.419100	0.235700	0.870200
O651	O65	0.350500	0.280000	0.815400
O661	O66	0.362000	0.415000	0.815100
O671	O67	0.010100	0.822300	0.437500
O681	O68	0.095900	0.951900	0.814300
O691	O69	0.913600	0.738600	0.353700
O701	O70	0.000200	0.846800	0.839500
O711	O71	0.997900	0.844100	0.341200
O721	O72	0.013500	0.885300	0.738500
O731	O73	0.135900	0.920100	0.878000
O741	O74	0.150400	0.788100	0.868700
O751	O75	0.905500	0.956900	0.362600
O761	O76	0.054200	0.842600	0.942000
O771	O77	0.606900	0.262100	0.370900
O781	O78	0.609100	0.437700	0.366500
O791	O79	0.563800	0.357700	0.435400
O801	O80	0.431800	0.335600	0.743100
O811	O81	0.648200	0.405400	0.808000
O821	O82	0.490600	0.290100	0.238900
O831	O83	0.402000	0.240000	0.312600
O841	O84	0.068300	0.969800	0.360400
O851	O85	0.636000	0.273700	0.794600
O861	O86	0.547400	0.351600	0.737700
O871	O87	0.504800	0.415200	0.939800
O881	O88	0.939200	0.717500	0.811800
O891	O89	0.934200	0.969700	0.803900
O901	O90	0.080900	0.735700	0.370200
O911	O91	0.149500	0.780000	0.315400
O921	O92	0.138000	0.915000	0.315100
O931	O93	0.489900	0.322300	0.937500
O941	O94	0.404100	0.451900	0.314300
O951	O95	0.586400	0.238600	0.853700
O961	O96	0.499800	0.346800	0.339500
O971	O97	0.502100	0.344100	0.841200
O981	O98	0.486500	0.385300	0.238500
O991	O99	0.364100	0.420100	0.378000
O1001	O100	0.349600	0.288100	0.368700
O1011	O101	0.594500	0.456900	0.862600
O1021	O102	0.445800	0.342600	0.442000
O1031	O103	0.893100	0.762100	0.870900
O1041	O104	0.890900	0.937700	0.866500
