data_FECYIX_clean_PM
_symmetry_space_group_name_H-M	'P1'
_cell_length_a	12.335000
_cell_length_b	12.335000
_cell_length_c	5.265000
_cell_angle_alpha	90.000000
_cell_angle_beta	90.000000
_cell_angle_gamma	90.000000
_symmetry_Int_Tables_number 1

loop_
_symmetry_equiv_pos_as_xyz
'x,y,z'

loop_
_atom_site_label
_atom_site_type_symbol
_atom_site_fract_x
_atom_site_fract_y
_atom_site_fract_z
C11	C1	0.295400	0.794300	0.719500
H11	H1	0.263300	0.803200	0.546400
C21	C2	0.344800	0.681400	0.739300
H21	H2	0.382400	0.661400	0.580000
H31	H3	0.288300	0.626500	0.776100
C31	C3	0.475600	0.830600	0.900800
H41	H4	0.542300	0.828500	0.792700
C41	C4	0.498400	0.895200	0.140200
C51	C5	0.206200	0.813400	0.918400
N11	N1	0.383700	0.874100	0.750600
H51	H5	0.402000	0.897000	0.616000
O11	O1	0.583240	0.871310	0.257000
O21	O2	0.431480	0.966770	0.211200
O31	O3	0.207760	0.899110	0.046500
O41	O4	0.132280	0.743140	0.942000
S11	S1	0.439700	0.692300	0.999920
Co11	Co1	0.321240	0.015460	0.941370
C61	C6	0.704600	0.205700	0.219500
H61	H6	0.736700	0.196800	0.046400
C71	C7	0.655200	0.318600	0.239300
H71	H7	0.617600	0.338600	0.080000
H81	H8	0.711700	0.373500	0.276100
C81	C8	0.524400	0.169400	0.400800
H91	H9	0.457700	0.171500	0.292700
C91	C9	0.501600	0.104800	0.640200
C101	C10	0.793800	0.186600	0.418400
N21	N2	0.616300	0.125900	0.250600
H101	H10	0.598000	0.103000	0.116000
O51	O5	0.416760	0.128690	0.757000
O61	O6	0.568520	0.033230	0.711200
O71	O7	0.792240	0.100890	0.546500
O81	O8	0.867720	0.256860	0.442000
S21	S2	0.560300	0.307700	0.499920
Co21	Co2	0.678760	0.984540	0.441370
C111	C11	0.205700	0.295400	0.969500
H111	H11	0.196800	0.263300	0.796400
C121	C12	0.318600	0.344800	0.989300
H121	H12	0.338600	0.382400	0.830000
H131	H13	0.373500	0.288300	0.026100
C131	C13	0.169400	0.475600	0.150800
H141	H14	0.171500	0.542300	0.042700
C141	C14	0.104800	0.498400	0.390200
C151	C15	0.186600	0.206200	0.168400
N31	N3	0.125900	0.383700	0.000600
H151	H15	0.103000	0.402000	0.866000
O91	O9	0.128690	0.583240	0.507000
O101	O10	0.033230	0.431480	0.461200
O111	O11	0.100890	0.207760	0.296500
O121	O12	0.256860	0.132280	0.192000
S31	S3	0.307700	0.439700	0.249920
Co31	Co3	0.984540	0.321240	0.191370
C161	C16	0.794300	0.704600	0.469500
H161	H16	0.803200	0.736700	0.296400
C171	C17	0.681400	0.655200	0.489300
H171	H17	0.661400	0.617600	0.330000
H181	H18	0.626500	0.711700	0.526100
C181	C18	0.830600	0.524400	0.650800
H191	H19	0.828500	0.457700	0.542700
C191	C19	0.895200	0.501600	0.890200
C201	C20	0.813400	0.793800	0.668400
N41	N4	0.874100	0.616300	0.500600
H201	H20	0.897000	0.598000	0.366000
O131	O13	0.871310	0.416760	0.007000
O141	O14	0.966770	0.568520	0.961200
O151	O15	0.899110	0.792240	0.796500
O161	O16	0.743140	0.867720	0.692000
S41	S4	0.692300	0.560300	0.749920
Co41	Co4	0.015460	0.678760	0.691370
