data_FEJDEE_clean_PM
_symmetry_space_group_name_H-M	'P1'
_cell_length_a	7.770300
_cell_length_b	9.149900
_cell_length_c	14.468500
_cell_angle_alpha	89.965000
_cell_angle_beta	87.050000
_cell_angle_gamma	65.332000
_symmetry_Int_Tables_number 1

loop_
_symmetry_equiv_pos_as_xyz
'x,y,z'

loop_
_atom_site_label
_atom_site_type_symbol
_atom_site_fract_x
_atom_site_fract_y
_atom_site_fract_z
Zn11	Zn1	0.218570	0.968900	0.110660
Zn21	Zn2	0.407190	0.939170	0.379250
Zn31	Zn3	0.703140	0.309050	0.235820
P11	P1	0.523000	0.678700	0.210070
H11	H1	0.698000	0.653000	0.212000
P21	P2	0.137500	0.236300	0.270120
H21	H2	0.209000	0.354000	0.277000
P31	P3	0.322100	0.890400	0.593550
H31	H3	0.153000	0.930000	0.602100
P41	P4	0.199300	0.999900	0.889010
H41	H4	0.297000	0.053000	0.837000
O11	O1	0.450400	0.777900	0.124500
O21	O2	0.228000	0.146500	0.179600
O31	O3	0.225000	0.044100	0.986000
O41	O4	0.999400	0.080100	0.858500
O51	O5	0.419800	0.766800	0.298000
O61	O6	0.191400	0.133300	0.354900
O71	O7	0.380900	0.839700	0.494100
O81	O8	0.356600	0.036000	0.623000
O91	O9	0.413900	0.745500	0.654400
O101	O10	0.926100	0.329900	0.269100
O111	O11	0.516900	0.514400	0.202000
O121	O12	0.282500	0.817700	0.873300
Zn41	Zn4	0.781430	0.031100	0.889340
Zn51	Zn5	0.592810	0.060830	0.620750
Zn61	Zn6	0.296860	0.690950	0.764180
P51	P5	0.477000	0.321300	0.789930
H51	H5	0.302000	0.347000	0.788000
P61	P6	0.862500	0.763700	0.729880
H61	H6	0.791000	0.646000	0.723000
P71	P7	0.677900	0.109600	0.406450
H71	H7	0.847000	0.070000	0.397900
P81	P8	0.800700	0.000100	0.110990
H81	H8	0.703000	0.947000	0.163000
O131	O13	0.549600	0.222100	0.875500
O141	O14	0.772000	0.853500	0.820400
O151	O15	0.775000	0.955900	0.014000
O161	O16	0.000600	0.919900	0.141500
O171	O17	0.580200	0.233200	0.702000
O181	O18	0.808600	0.866700	0.645100
O191	O19	0.619100	0.160300	0.505900
O201	O20	0.643400	0.964000	0.377000
O211	O21	0.586100	0.254500	0.345600
O221	O22	0.073900	0.670100	0.730900
O231	O23	0.483100	0.485600	0.798000
O241	O24	0.717500	0.182300	0.126700
