data_FEJKEM_clean_PM
_symmetry_space_group_name_H-M	'P1'
_cell_length_a	8.140300
_cell_length_b	13.282800
_cell_length_c	17.517500
_cell_angle_alpha	90.000000
_cell_angle_beta	90.000000
_cell_angle_gamma	90.000000
_symmetry_Int_Tables_number 1

loop_
_symmetry_equiv_pos_as_xyz
'x,y,z'

loop_
_atom_site_label
_atom_site_type_symbol
_atom_site_fract_x
_atom_site_fract_y
_atom_site_fract_z
Mn11	Mn1	0.523320	0.790920	0.604120
Mn21	Mn2	0.023320	0.209080	0.395880
Mn31	Mn3	0.523320	0.709080	0.104120
Mn41	Mn4	0.023320	0.290920	0.895880
Hg11	Hg1	0.002590	0.772160	0.338390
Hg21	Hg2	0.502590	0.227840	0.661610
Hg31	Hg3	0.002590	0.727840	0.838390
Hg41	Hg4	0.502590	0.272160	0.161610
H11	H1	0.347100	0.566500	0.638500
H21	H2	0.291500	0.419800	0.399200
H31	H3	0.383400	0.505200	0.294000
H41	H4	0.493300	0.663000	0.308300
H51	H5	0.847100	0.433500	0.361500
H61	H6	0.791500	0.580200	0.600800
H71	H7	0.883400	0.494800	0.706000
H81	H8	0.993300	0.337000	0.691700
H91	H9	0.347100	0.933500	0.138500
H101	H10	0.291500	0.080200	0.899200
H111	H11	0.383400	0.994800	0.794000
H121	H12	0.493300	0.837000	0.808300
H131	H13	0.847100	0.066500	0.861500
H141	H14	0.791500	0.919800	0.100800
H151	H15	0.883400	0.005200	0.206000
H161	H16	0.993300	0.163000	0.191700
C11	C1	0.426000	0.621900	0.478400
C21	C2	0.360400	0.568700	0.585800
C31	C3	0.338300	0.483400	0.403400
C41	C4	0.391300	0.533600	0.342400
C51	C5	0.458700	0.629000	0.351800
C61	C6	0.166000	0.835900	0.695100
C71	C7	0.666600	0.667400	0.756900
C81	C8	0.886700	0.758400	0.515700
C91	C9	0.659200	0.006800	0.676100
C101	C10	0.926000	0.378100	0.521600
C111	C11	0.860400	0.431300	0.414200
C121	C12	0.838300	0.516600	0.596600
C131	C13	0.891300	0.466400	0.657600
C141	C14	0.958700	0.371000	0.648200
C151	C15	0.666000	0.164100	0.304900
C161	C16	0.166600	0.332600	0.243100
C171	C17	0.386700	0.241600	0.484300
C181	C18	0.159200	0.993200	0.323900
C191	C19	0.426000	0.878100	0.978400
C201	C20	0.360400	0.931300	0.085800
C211	C21	0.338300	0.016600	0.903400
C221	C22	0.391300	0.966400	0.842400
C231	C23	0.458700	0.871000	0.851800
C241	C24	0.166000	0.664100	0.195100
C251	C25	0.666600	0.832600	0.256900
C261	C26	0.886700	0.741600	0.015700
C271	C27	0.659200	0.493200	0.176100
C281	C28	0.926000	0.121900	0.021600
C291	C29	0.860400	0.068700	0.914200
C301	C30	0.838300	0.983400	0.096600
C311	C31	0.891300	0.033600	0.157600
C321	C32	0.958700	0.129000	0.148200
C331	C33	0.666000	0.335900	0.804900
C341	C34	0.166600	0.167400	0.743100
C351	C35	0.386700	0.258400	0.984300
C361	C36	0.159200	0.506800	0.823900
S11	S1	0.742030	0.619490	0.836120
S21	S2	0.070500	0.743920	0.476460
S31	S3	0.740600	0.112510	0.708440
S41	S4	0.000300	0.869290	0.743990
S51	S5	0.242030	0.380510	0.163880
S61	S6	0.570500	0.256080	0.523540
S71	S7	0.240600	0.887490	0.291560
S81	S8	0.500300	0.130710	0.256010
S91	S9	0.742030	0.880510	0.336120
S101	S10	0.070500	0.756080	0.976460
S111	S11	0.740600	0.387490	0.208440
S121	S12	0.000300	0.630710	0.243990
S131	S13	0.242030	0.119490	0.663880
S141	S14	0.570500	0.243920	0.023540
S151	S15	0.240600	0.612510	0.791560
S161	S16	0.500300	0.369290	0.756010
N11	N1	0.430800	0.647600	0.551300
N21	N2	0.355500	0.529400	0.471500
N31	N3	0.281500	0.815700	0.660500
N41	N4	0.611100	0.700500	0.702100
N51	N5	0.766200	0.768100	0.546300
N61	N6	0.604100	0.931900	0.655000
N71	N7	0.310900	0.494400	0.542000
N81	N8	0.476600	0.674200	0.417900
N91	N9	0.930800	0.352400	0.448700
N101	N10	0.855500	0.470600	0.528500
N111	N11	0.781500	0.184300	0.339500
N121	N12	0.111100	0.299500	0.297900
N131	N13	0.266200	0.231900	0.453700
N141	N14	0.104100	0.068100	0.345000
N151	N15	0.810900	0.505600	0.458000
N161	N16	0.976600	0.325800	0.582100
N171	N17	0.430800	0.852400	0.051300
N181	N18	0.355500	0.970600	0.971500
N191	N19	0.281500	0.684300	0.160500
N201	N20	0.611100	0.799500	0.202100
N211	N21	0.766200	0.731900	0.046300
N221	N22	0.604100	0.568100	0.155000
N231	N23	0.310900	0.005600	0.042000
N241	N24	0.476600	0.825800	0.917900
N251	N25	0.930800	0.147600	0.948700
N261	N26	0.855500	0.029400	0.028500
N271	N27	0.781500	0.315700	0.839500
N281	N28	0.111100	0.200500	0.797900
N291	N29	0.266200	0.268100	0.953700
N301	N30	0.104100	0.431900	0.845000
N311	N31	0.810900	0.994400	0.958000
N321	N32	0.976600	0.174200	0.082100
