data_FELVUP_clean_PM
_symmetry_space_group_name_H-M	'P1'
_cell_length_a	18.731600
_cell_length_b	18.731600
_cell_length_c	18.731600
_cell_angle_alpha	60.000000
_cell_angle_beta	60.000000
_cell_angle_gamma	60.000000
_symmetry_Int_Tables_number 1

loop_
_symmetry_equiv_pos_as_xyz
'x,y,z'

loop_
_atom_site_label
_atom_site_type_symbol
_atom_site_fract_x
_atom_site_fract_y
_atom_site_fract_z
Ca11	Ca1	0.500000	0.500000	0.500000
Ca21	Ca2	0.000000	0.000000	0.500000
Ca31	Ca3	0.000000	0.500000	0.000000
Ca41	Ca4	0.000000	0.500000	0.500000
Ca51	Ca5	0.500000	0.500000	0.000000
Ca61	Ca6	0.000000	0.000000	0.000000
Ca71	Ca7	0.500000	0.000000	0.500000
Ca81	Ca8	0.500000	0.000000	0.000000
Ho11	Ho1	0.750000	0.250000	0.250000
Ho21	Ho2	0.750000	0.250000	0.750000
Ho31	Ho3	0.750000	0.750000	0.250000
Ho41	Ho4	0.250000	0.250000	0.250000
Ho51	Ho5	0.250000	0.750000	0.750000
Ho61	Ho6	0.250000	0.750000	0.250000
Ho71	Ho7	0.250000	0.250000	0.750000
Ho81	Ho8	0.750000	0.750000	0.750000
H11	H1	0.515700	0.416500	0.344300
H21	H2	0.575700	0.474300	0.294700
H31	H3	0.916500	0.015700	0.723500
H41	H4	0.974300	0.075700	0.655300
H51	H5	0.844300	0.723500	0.015700
H61	H6	0.794700	0.655300	0.075700
H71	H7	0.223500	0.344300	0.416500
H81	H8	0.155300	0.294700	0.474300
H91	H9	0.515700	0.344300	0.723500
H101	H10	0.575700	0.294700	0.655300
H111	H11	0.916500	0.723500	0.344300
H121	H12	0.974300	0.655300	0.294700
H131	H13	0.844300	0.015700	0.416500
H141	H14	0.794700	0.075700	0.474300
H151	H15	0.223500	0.416500	0.015700
H161	H16	0.155300	0.474300	0.075700
H171	H17	0.515700	0.723500	0.416500
H181	H18	0.575700	0.655300	0.474300
H191	H19	0.916500	0.344300	0.015700
H201	H20	0.974300	0.294700	0.075700
H211	H21	0.844300	0.416500	0.723500
H221	H22	0.794700	0.474300	0.655300
H231	H23	0.223500	0.015700	0.344300
H241	H24	0.155300	0.075700	0.294700
H251	H25	0.583500	0.484300	0.155700
H261	H26	0.525700	0.424300	0.205300
H271	H27	0.984300	0.083500	0.776500
H281	H28	0.924300	0.025700	0.844700
H291	H29	0.276500	0.155700	0.484300
H301	H30	0.344700	0.205300	0.424300
H311	H31	0.655700	0.776500	0.083500
H321	H32	0.705300	0.844700	0.025700
H331	H33	0.655700	0.484300	0.776500
H341	H34	0.705300	0.424300	0.844700
H351	H35	0.276500	0.083500	0.155700
H361	H36	0.344700	0.025700	0.205300
H371	H37	0.984300	0.155700	0.083500
H381	H38	0.924300	0.205300	0.025700
H391	H39	0.583500	0.776500	0.484300
H401	H40	0.525700	0.844700	0.424300
H411	H41	0.276500	0.484300	0.083500
H421	H42	0.344700	0.424300	0.025700
H431	H43	0.655700	0.083500	0.484300
H441	H44	0.705300	0.025700	0.424300
H451	H45	0.583500	0.155700	0.776500
H461	H46	0.525700	0.205300	0.844700
H471	H47	0.984300	0.776500	0.155700
H481	H48	0.924300	0.844700	0.205300
H491	H49	0.484300	0.583500	0.655700
H501	H50	0.424300	0.525700	0.705300
H511	H51	0.083500	0.984300	0.276500
H521	H52	0.025700	0.924300	0.344700
H531	H53	0.155700	0.276500	0.984300
H541	H54	0.205300	0.344700	0.924300
H551	H55	0.776500	0.655700	0.583500
H561	H56	0.844700	0.705300	0.525700
H571	H57	0.484300	0.655700	0.276500
H581	H58	0.424300	0.705300	0.344700
H591	H59	0.083500	0.276500	0.655700
H601	H60	0.025700	0.344700	0.705300
H611	H61	0.155700	0.984300	0.583500
H621	H62	0.205300	0.924300	0.525700
H631	H63	0.776500	0.583500	0.984300
H641	H64	0.844700	0.525700	0.924300
H651	H65	0.484300	0.276500	0.583500
H661	H66	0.424300	0.344700	0.525700
H671	H67	0.083500	0.655700	0.984300
H681	H68	0.025700	0.705300	0.924300
H691	H69	0.155700	0.583500	0.276500
H701	H70	0.205300	0.525700	0.344700
H711	H71	0.776500	0.984300	0.655700
H721	H72	0.844700	0.924300	0.705300
H731	H73	0.416500	0.515700	0.844300
H741	H74	0.474300	0.575700	0.794700
H751	H75	0.015700	0.916500	0.223500
H761	H76	0.075700	0.974300	0.155300
H771	H77	0.723500	0.844300	0.515700
H781	H78	0.655300	0.794700	0.575700
H791	H79	0.344300	0.223500	0.916500
H801	H80	0.294700	0.155300	0.974300
H811	H81	0.344300	0.515700	0.223500
H821	H82	0.294700	0.575700	0.155300
H831	H83	0.723500	0.916500	0.844300
H841	H84	0.655300	0.974300	0.794700
H851	H85	0.015700	0.844300	0.916500
H861	H86	0.075700	0.794700	0.974300
H871	H87	0.416500	0.223500	0.515700
H881	H88	0.474300	0.155300	0.575700
H891	H89	0.723500	0.515700	0.916500
H901	H90	0.655300	0.575700	0.974300
H911	H91	0.344300	0.916500	0.515700
H921	H92	0.294700	0.974300	0.575700
H931	H93	0.416500	0.844300	0.223500
H941	H94	0.474300	0.794700	0.155300
H951	H95	0.015700	0.223500	0.844300
H961	H96	0.075700	0.155300	0.794700
C11	C1	0.575810	0.414990	0.317870
C21	C2	0.620620	0.359440	0.385580
C31	C3	0.914990	0.075810	0.691330
C41	C4	0.859440	0.120620	0.634360
C51	C5	0.817870	0.691330	0.075810
C61	C6	0.885580	0.634360	0.120620
C71	C7	0.191330	0.317870	0.414990
C81	C8	0.134360	0.385580	0.359440
C91	C9	0.575810	0.317870	0.691330
C101	C10	0.620620	0.385580	0.634360
C111	C11	0.914990	0.691330	0.317870
C121	C12	0.859440	0.634360	0.385580
C131	C13	0.817870	0.075810	0.414990
C141	C14	0.885580	0.120620	0.359440
C151	C15	0.191330	0.414990	0.075810
C161	C16	0.134360	0.359440	0.120620
C171	C17	0.575810	0.691330	0.414990
C181	C18	0.620620	0.634360	0.359440
C191	C19	0.914990	0.317870	0.075810
C201	C20	0.859440	0.385580	0.120620
C211	C21	0.817870	0.414990	0.691330
C221	C22	0.885580	0.359440	0.634360
C231	C23	0.191330	0.075810	0.317870
C241	C24	0.134360	0.120620	0.385580
C251	C25	0.585010	0.424190	0.182130
C261	C26	0.640560	0.379380	0.114420
C271	C27	0.924190	0.085010	0.808670
C281	C28	0.879380	0.140560	0.865640
C291	C29	0.308670	0.182130	0.424190
C301	C30	0.365640	0.114420	0.379380
C311	C31	0.682130	0.808670	0.085010
C321	C32	0.614420	0.865640	0.140560
C331	C33	0.682130	0.424190	0.808670
C341	C34	0.614420	0.379380	0.865640
C351	C35	0.308670	0.085010	0.182130
C361	C36	0.365640	0.140560	0.114420
C371	C37	0.924190	0.182130	0.085010
C381	C38	0.879380	0.114420	0.140560
C391	C39	0.585010	0.808670	0.424190
C401	C40	0.640560	0.865640	0.379380
C411	C41	0.308670	0.424190	0.085010
C421	C42	0.365640	0.379380	0.140560
C431	C43	0.682130	0.085010	0.424190
C441	C44	0.614420	0.140560	0.379380
C451	C45	0.585010	0.182130	0.808670
C461	C46	0.640560	0.114420	0.865640
C471	C47	0.924190	0.808670	0.182130
C481	C48	0.879380	0.865640	0.114420
C491	C49	0.424190	0.585010	0.682130
C501	C50	0.379380	0.640560	0.614420
C511	C51	0.085010	0.924190	0.308670
C521	C52	0.140560	0.879380	0.365640
C531	C53	0.182130	0.308670	0.924190
C541	C54	0.114420	0.365640	0.879380
C551	C55	0.808670	0.682130	0.585010
C561	C56	0.865640	0.614420	0.640560
C571	C57	0.424190	0.682130	0.308670
C581	C58	0.379380	0.614420	0.365640
C591	C59	0.085010	0.308670	0.682130
C601	C60	0.140560	0.365640	0.614420
C611	C61	0.182130	0.924190	0.585010
C621	C62	0.114420	0.879380	0.640560
C631	C63	0.808670	0.585010	0.924190
C641	C64	0.865640	0.640560	0.879380
C651	C65	0.424190	0.308670	0.585010
C661	C66	0.379380	0.365640	0.640560
C671	C67	0.085010	0.682130	0.924190
C681	C68	0.140560	0.614420	0.879380
C691	C69	0.182130	0.585010	0.308670
C701	C70	0.114420	0.640560	0.365640
C711	C71	0.808670	0.924190	0.682130
C721	C72	0.865640	0.879380	0.614420
C731	C73	0.414990	0.575810	0.817870
C741	C74	0.359440	0.620620	0.885580
C751	C75	0.075810	0.914990	0.191330
C761	C76	0.120620	0.859440	0.134360
C771	C77	0.691330	0.817870	0.575810
C781	C78	0.634360	0.885580	0.620620
C791	C79	0.317870	0.191330	0.914990
C801	C80	0.385580	0.134360	0.859440
C811	C81	0.317870	0.575810	0.191330
C821	C82	0.385580	0.620620	0.134360
C831	C83	0.691330	0.914990	0.817870
C841	C84	0.634360	0.859440	0.885580
C851	C85	0.075810	0.817870	0.914990
C861	C86	0.120620	0.885580	0.859440
C871	C87	0.414990	0.191330	0.575810
C881	C88	0.359440	0.134360	0.620620
C891	C89	0.691330	0.575810	0.914990
C901	C90	0.634360	0.620620	0.859440
C911	C91	0.317870	0.914990	0.575810
C921	C92	0.385580	0.859440	0.620620
C931	C93	0.414990	0.817870	0.191330
C941	C94	0.359440	0.885580	0.134360
C951	C95	0.075810	0.191330	0.817870
C961	C96	0.120620	0.134360	0.885580
O11	O1	0.687450	0.294970	0.371990
O21	O2	0.589410	0.381370	0.450470
O31	O3	0.794970	0.187450	0.645590
O41	O4	0.881370	0.089410	0.578750
O51	O5	0.871990	0.645590	0.187450
O61	O6	0.950470	0.578750	0.089410
O71	O7	0.145590	0.371990	0.294970
O81	O8	0.078750	0.450470	0.381370
O91	O9	0.687450	0.371990	0.645590
O101	O10	0.589410	0.450470	0.578750
O111	O11	0.794970	0.645590	0.371990
O121	O12	0.881370	0.578750	0.450470
O131	O13	0.871990	0.187450	0.294970
O141	O14	0.950470	0.089410	0.381370
O151	O15	0.145590	0.294970	0.187450
O161	O16	0.078750	0.381370	0.089410
O171	O17	0.687450	0.645590	0.294970
O181	O18	0.589410	0.578750	0.381370
O191	O19	0.794970	0.371990	0.187450
O201	O20	0.881370	0.450470	0.089410
O211	O21	0.871990	0.294970	0.645590
O221	O22	0.950470	0.381370	0.578750
O231	O23	0.145590	0.187450	0.371990
O241	O24	0.078750	0.089410	0.450470
O251	O25	0.705030	0.312550	0.128010
O261	O26	0.618630	0.410590	0.049530
O271	O27	0.812550	0.205030	0.854410
O281	O28	0.910590	0.118630	0.921250
O291	O29	0.354410	0.128010	0.312550
O301	O30	0.421250	0.049530	0.410590
O311	O31	0.628010	0.854410	0.205030
O321	O32	0.549530	0.921250	0.118630
O331	O33	0.628010	0.312550	0.854410
O341	O34	0.549530	0.410590	0.921250
O351	O35	0.354410	0.205030	0.128010
O361	O36	0.421250	0.118630	0.049530
O371	O37	0.812550	0.128010	0.205030
O381	O38	0.910590	0.049530	0.118630
O391	O39	0.705030	0.854410	0.312550
O401	O40	0.618630	0.921250	0.410590
O411	O41	0.354410	0.312550	0.205030
O421	O42	0.421250	0.410590	0.118630
O431	O43	0.628010	0.205030	0.312550
O441	O44	0.549530	0.118630	0.410590
O451	O45	0.705030	0.128010	0.854410
O461	O46	0.618630	0.049530	0.921250
O471	O47	0.812550	0.854410	0.128010
O481	O48	0.910590	0.921250	0.049530
O491	O49	0.312550	0.705030	0.628010
O501	O50	0.410590	0.618630	0.549530
O511	O51	0.205030	0.812550	0.354410
O521	O52	0.118630	0.910590	0.421250
O531	O53	0.128010	0.354410	0.812550
O541	O54	0.049530	0.421250	0.910590
O551	O55	0.854410	0.628010	0.705030
O561	O56	0.921250	0.549530	0.618630
O571	O57	0.312550	0.628010	0.354410
O581	O58	0.410590	0.549530	0.421250
O591	O59	0.205030	0.354410	0.628010
O601	O60	0.118630	0.421250	0.549530
O611	O61	0.128010	0.812550	0.705030
O621	O62	0.049530	0.910590	0.618630
O631	O63	0.854410	0.705030	0.812550
O641	O64	0.921250	0.618630	0.910590
O651	O65	0.312550	0.354410	0.705030
O661	O66	0.410590	0.421250	0.618630
O671	O67	0.205030	0.628010	0.812550
O681	O68	0.118630	0.549530	0.910590
O691	O69	0.128010	0.705030	0.354410
O701	O70	0.049530	0.618630	0.421250
O711	O71	0.854410	0.812550	0.628010
O721	O72	0.921250	0.910590	0.549530
O731	O73	0.294970	0.687450	0.871990
O741	O74	0.381370	0.589410	0.950470
O751	O75	0.187450	0.794970	0.145590
O761	O76	0.089410	0.881370	0.078750
O771	O77	0.645590	0.871990	0.687450
O781	O78	0.578750	0.950470	0.589410
O791	O79	0.371990	0.145590	0.794970
O801	O80	0.450470	0.078750	0.881370
O811	O81	0.371990	0.687450	0.145590
O821	O82	0.450470	0.589410	0.078750
O831	O83	0.645590	0.794970	0.871990
O841	O84	0.578750	0.881370	0.950470
O851	O85	0.187450	0.871990	0.794970
O861	O86	0.089410	0.950470	0.881370
O871	O87	0.294970	0.145590	0.687450
O881	O88	0.381370	0.078750	0.589410
O891	O89	0.645590	0.687450	0.794970
O901	O90	0.578750	0.589410	0.881370
O911	O91	0.371990	0.794970	0.687450
O921	O92	0.450470	0.881370	0.589410
O931	O93	0.294970	0.871990	0.145590
O941	O94	0.381370	0.950470	0.078750
O951	O95	0.187450	0.145590	0.871990
O961	O96	0.089410	0.078750	0.950470
O971	O97	0.620120	0.379880	0.250000
O981	O98	0.879880	0.120120	0.750000
O991	O99	0.750000	0.750000	0.120120
O1001	O100	0.250000	0.250000	0.379880
O1011	O101	0.620120	0.250000	0.750000
O1021	O102	0.879880	0.750000	0.250000
O1031	O103	0.750000	0.120120	0.379880
O1041	O104	0.250000	0.379880	0.120120
O1051	O105	0.620120	0.750000	0.379880
O1061	O106	0.879880	0.250000	0.120120
O1071	O107	0.750000	0.379880	0.750000
O1081	O108	0.250000	0.120120	0.250000
O1091	O109	0.379880	0.620120	0.750000
O1101	O110	0.120120	0.879880	0.250000
O1111	O111	0.250000	0.250000	0.879880
O1121	O112	0.750000	0.750000	0.620120
O1131	O113	0.379880	0.750000	0.250000
O1141	O114	0.120120	0.250000	0.750000
O1151	O115	0.250000	0.879880	0.620120
O1161	O116	0.750000	0.620120	0.879880
O1171	O117	0.379880	0.250000	0.620120
O1181	O118	0.120120	0.750000	0.879880
O1191	O119	0.250000	0.620120	0.250000
O1201	O120	0.750000	0.879880	0.750000
