data_FELVEZ_clean_PM
_symmetry_space_group_name_H-M	'P1'
_cell_length_a	18.720900
_cell_length_b	18.720900
_cell_length_c	18.720900
_cell_angle_alpha	60.000000
_cell_angle_beta	60.000000
_cell_angle_gamma	60.000000
_symmetry_Int_Tables_number 1

loop_
_symmetry_equiv_pos_as_xyz
'x,y,z'

loop_
_atom_site_label
_atom_site_type_symbol
_atom_site_fract_x
_atom_site_fract_y
_atom_site_fract_z
Ca11	Ca1	0.500000	0.500000	0.500000
Ca21	Ca2	0.000000	0.000000	0.500000
Ca31	Ca3	0.000000	0.500000	0.000000
Ca41	Ca4	0.000000	0.500000	0.500000
Ca51	Ca5	0.500000	0.500000	0.000000
Ca61	Ca6	0.000000	0.000000	0.000000
Ca71	Ca7	0.500000	0.000000	0.500000
Ca81	Ca8	0.500000	0.000000	0.000000
Dy11	Dy1	0.750000	0.250000	0.250000
Dy21	Dy2	0.750000	0.250000	0.750000
Dy31	Dy3	0.750000	0.750000	0.250000
Dy41	Dy4	0.250000	0.250000	0.250000
Dy51	Dy5	0.250000	0.750000	0.750000
Dy61	Dy6	0.250000	0.750000	0.250000
Dy71	Dy7	0.250000	0.250000	0.750000
Dy81	Dy8	0.750000	0.750000	0.750000
H11	H1	0.516000	0.416400	0.344800
H21	H2	0.576300	0.474100	0.294900
H31	H3	0.916400	0.016000	0.722800
H41	H4	0.974100	0.076300	0.654700
H51	H5	0.844800	0.722800	0.016000
H61	H6	0.794900	0.654700	0.076300
H71	H7	0.222800	0.344800	0.416400
H81	H8	0.154700	0.294900	0.474100
H91	H9	0.516000	0.344800	0.722800
H101	H10	0.576300	0.294900	0.654700
H111	H11	0.916400	0.722800	0.344800
H121	H12	0.974100	0.654700	0.294900
H131	H13	0.844800	0.016000	0.416400
H141	H14	0.794900	0.076300	0.474100
H151	H15	0.222800	0.416400	0.016000
H161	H16	0.154700	0.474100	0.076300
H171	H17	0.516000	0.722800	0.416400
H181	H18	0.576300	0.654700	0.474100
H191	H19	0.916400	0.344800	0.016000
H201	H20	0.974100	0.294900	0.076300
H211	H21	0.844800	0.416400	0.722800
H221	H22	0.794900	0.474100	0.654700
H231	H23	0.222800	0.016000	0.344800
H241	H24	0.154700	0.076300	0.294900
H251	H25	0.583600	0.484000	0.155200
H261	H26	0.525900	0.423700	0.205100
H271	H27	0.984000	0.083600	0.777200
H281	H28	0.923700	0.025900	0.845300
H291	H29	0.277200	0.155200	0.484000
H301	H30	0.345300	0.205100	0.423700
H311	H31	0.655200	0.777200	0.083600
H321	H32	0.705100	0.845300	0.025900
H331	H33	0.655200	0.484000	0.777200
H341	H34	0.705100	0.423700	0.845300
H351	H35	0.277200	0.083600	0.155200
H361	H36	0.345300	0.025900	0.205100
H371	H37	0.984000	0.155200	0.083600
H381	H38	0.923700	0.205100	0.025900
H391	H39	0.583600	0.777200	0.484000
H401	H40	0.525900	0.845300	0.423700
H411	H41	0.277200	0.484000	0.083600
H421	H42	0.345300	0.423700	0.025900
H431	H43	0.655200	0.083600	0.484000
H441	H44	0.705100	0.025900	0.423700
H451	H45	0.583600	0.155200	0.777200
H461	H46	0.525900	0.205100	0.845300
H471	H47	0.984000	0.777200	0.155200
H481	H48	0.923700	0.845300	0.205100
H491	H49	0.484000	0.583600	0.655200
H501	H50	0.423700	0.525900	0.705100
H511	H51	0.083600	0.984000	0.277200
H521	H52	0.025900	0.923700	0.345300
H531	H53	0.155200	0.277200	0.984000
H541	H54	0.205100	0.345300	0.923700
H551	H55	0.777200	0.655200	0.583600
H561	H56	0.845300	0.705100	0.525900
H571	H57	0.484000	0.655200	0.277200
H581	H58	0.423700	0.705100	0.345300
H591	H59	0.083600	0.277200	0.655200
H601	H60	0.025900	0.345300	0.705100
H611	H61	0.155200	0.984000	0.583600
H621	H62	0.205100	0.923700	0.525900
H631	H63	0.777200	0.583600	0.984000
H641	H64	0.845300	0.525900	0.923700
H651	H65	0.484000	0.277200	0.583600
H661	H66	0.423700	0.345300	0.525900
H671	H67	0.083600	0.655200	0.984000
H681	H68	0.025900	0.705100	0.923700
H691	H69	0.155200	0.583600	0.277200
H701	H70	0.205100	0.525900	0.345300
H711	H71	0.777200	0.984000	0.655200
H721	H72	0.845300	0.923700	0.705100
H731	H73	0.416400	0.516000	0.844800
H741	H74	0.474100	0.576300	0.794900
H751	H75	0.016000	0.916400	0.222800
H761	H76	0.076300	0.974100	0.154700
H771	H77	0.722800	0.844800	0.516000
H781	H78	0.654700	0.794900	0.576300
H791	H79	0.344800	0.222800	0.916400
H801	H80	0.294900	0.154700	0.974100
H811	H81	0.344800	0.516000	0.222800
H821	H82	0.294900	0.576300	0.154700
H831	H83	0.722800	0.916400	0.844800
H841	H84	0.654700	0.974100	0.794900
H851	H85	0.016000	0.844800	0.916400
H861	H86	0.076300	0.794900	0.974100
H871	H87	0.416400	0.222800	0.516000
H881	H88	0.474100	0.154700	0.576300
H891	H89	0.722800	0.516000	0.916400
H901	H90	0.654700	0.576300	0.974100
H911	H91	0.344800	0.916400	0.516000
H921	H92	0.294900	0.974100	0.576300
H931	H93	0.416400	0.844800	0.222800
H941	H94	0.474100	0.794900	0.154700
H951	H95	0.016000	0.222800	0.844800
H961	H96	0.076300	0.154700	0.794900
C11	C1	0.576300	0.414700	0.318100
C21	C2	0.620550	0.359730	0.385470
C31	C3	0.914700	0.076300	0.690900
C41	C4	0.859730	0.120550	0.634250
C51	C5	0.818100	0.690900	0.076300
C61	C6	0.885470	0.634250	0.120550
C71	C7	0.190900	0.318100	0.414700
C81	C8	0.134250	0.385470	0.359730
C91	C9	0.576300	0.318100	0.690900
C101	C10	0.620550	0.385470	0.634250
C111	C11	0.914700	0.690900	0.318100
C121	C12	0.859730	0.634250	0.385470
C131	C13	0.818100	0.076300	0.414700
C141	C14	0.885470	0.120550	0.359730
C151	C15	0.190900	0.414700	0.076300
C161	C16	0.134250	0.359730	0.120550
C171	C17	0.576300	0.690900	0.414700
C181	C18	0.620550	0.634250	0.359730
C191	C19	0.914700	0.318100	0.076300
C201	C20	0.859730	0.385470	0.120550
C211	C21	0.818100	0.414700	0.690900
C221	C22	0.885470	0.359730	0.634250
C231	C23	0.190900	0.076300	0.318100
C241	C24	0.134250	0.120550	0.385470
C251	C25	0.585300	0.423700	0.181900
C261	C26	0.640270	0.379450	0.114530
C271	C27	0.923700	0.085300	0.809100
C281	C28	0.879450	0.140270	0.865750
C291	C29	0.309100	0.181900	0.423700
C301	C30	0.365750	0.114530	0.379450
C311	C31	0.681900	0.809100	0.085300
C321	C32	0.614530	0.865750	0.140270
C331	C33	0.681900	0.423700	0.809100
C341	C34	0.614530	0.379450	0.865750
C351	C35	0.309100	0.085300	0.181900
C361	C36	0.365750	0.140270	0.114530
C371	C37	0.923700	0.181900	0.085300
C381	C38	0.879450	0.114530	0.140270
C391	C39	0.585300	0.809100	0.423700
C401	C40	0.640270	0.865750	0.379450
C411	C41	0.309100	0.423700	0.085300
C421	C42	0.365750	0.379450	0.140270
C431	C43	0.681900	0.085300	0.423700
C441	C44	0.614530	0.140270	0.379450
C451	C45	0.585300	0.181900	0.809100
C461	C46	0.640270	0.114530	0.865750
C471	C47	0.923700	0.809100	0.181900
C481	C48	0.879450	0.865750	0.114530
C491	C49	0.423700	0.585300	0.681900
C501	C50	0.379450	0.640270	0.614530
C511	C51	0.085300	0.923700	0.309100
C521	C52	0.140270	0.879450	0.365750
C531	C53	0.181900	0.309100	0.923700
C541	C54	0.114530	0.365750	0.879450
C551	C55	0.809100	0.681900	0.585300
C561	C56	0.865750	0.614530	0.640270
C571	C57	0.423700	0.681900	0.309100
C581	C58	0.379450	0.614530	0.365750
C591	C59	0.085300	0.309100	0.681900
C601	C60	0.140270	0.365750	0.614530
C611	C61	0.181900	0.923700	0.585300
C621	C62	0.114530	0.879450	0.640270
C631	C63	0.809100	0.585300	0.923700
C641	C64	0.865750	0.640270	0.879450
C651	C65	0.423700	0.309100	0.585300
C661	C66	0.379450	0.365750	0.640270
C671	C67	0.085300	0.681900	0.923700
C681	C68	0.140270	0.614530	0.879450
C691	C69	0.181900	0.585300	0.309100
C701	C70	0.114530	0.640270	0.365750
C711	C71	0.809100	0.923700	0.681900
C721	C72	0.865750	0.879450	0.614530
C731	C73	0.414700	0.576300	0.818100
C741	C74	0.359730	0.620550	0.885470
C751	C75	0.076300	0.914700	0.190900
C761	C76	0.120550	0.859730	0.134250
C771	C77	0.690900	0.818100	0.576300
C781	C78	0.634250	0.885470	0.620550
C791	C79	0.318100	0.190900	0.914700
C801	C80	0.385470	0.134250	0.859730
C811	C81	0.318100	0.576300	0.190900
C821	C82	0.385470	0.620550	0.134250
C831	C83	0.690900	0.914700	0.818100
C841	C84	0.634250	0.859730	0.885470
C851	C85	0.076300	0.818100	0.914700
C861	C86	0.120550	0.885470	0.859730
C871	C87	0.414700	0.190900	0.576300
C881	C88	0.359730	0.134250	0.620550
C891	C89	0.690900	0.576300	0.914700
C901	C90	0.634250	0.620550	0.859730
C911	C91	0.318100	0.914700	0.576300
C921	C92	0.385470	0.859730	0.620550
C931	C93	0.414700	0.818100	0.190900
C941	C94	0.359730	0.885470	0.134250
C951	C95	0.076300	0.190900	0.818100
C961	C96	0.120550	0.134250	0.885470
O11	O1	0.687050	0.295610	0.371950
O21	O2	0.589050	0.381610	0.450710
O31	O3	0.795610	0.187050	0.645390
O41	O4	0.881610	0.089050	0.578630
O51	O5	0.871950	0.645390	0.187050
O61	O6	0.950710	0.578630	0.089050
O71	O7	0.145390	0.371950	0.295610
O81	O8	0.078630	0.450710	0.381610
O91	O9	0.687050	0.371950	0.645390
O101	O10	0.589050	0.450710	0.578630
O111	O11	0.795610	0.645390	0.371950
O121	O12	0.881610	0.578630	0.450710
O131	O13	0.871950	0.187050	0.295610
O141	O14	0.950710	0.089050	0.381610
O151	O15	0.145390	0.295610	0.187050
O161	O16	0.078630	0.381610	0.089050
O171	O17	0.687050	0.645390	0.295610
O181	O18	0.589050	0.578630	0.381610
O191	O19	0.795610	0.371950	0.187050
O201	O20	0.881610	0.450710	0.089050
O211	O21	0.871950	0.295610	0.645390
O221	O22	0.950710	0.381610	0.578630
O231	O23	0.145390	0.187050	0.371950
O241	O24	0.078630	0.089050	0.450710
O251	O25	0.704390	0.312950	0.128050
O261	O26	0.618390	0.410950	0.049290
O271	O27	0.812950	0.204390	0.854610
O281	O28	0.910950	0.118390	0.921370
O291	O29	0.354610	0.128050	0.312950
O301	O30	0.421370	0.049290	0.410950
O311	O31	0.628050	0.854610	0.204390
O321	O32	0.549290	0.921370	0.118390
O331	O33	0.628050	0.312950	0.854610
O341	O34	0.549290	0.410950	0.921370
O351	O35	0.354610	0.204390	0.128050
O361	O36	0.421370	0.118390	0.049290
O371	O37	0.812950	0.128050	0.204390
O381	O38	0.910950	0.049290	0.118390
O391	O39	0.704390	0.854610	0.312950
O401	O40	0.618390	0.921370	0.410950
O411	O41	0.354610	0.312950	0.204390
O421	O42	0.421370	0.410950	0.118390
O431	O43	0.628050	0.204390	0.312950
O441	O44	0.549290	0.118390	0.410950
O451	O45	0.704390	0.128050	0.854610
O461	O46	0.618390	0.049290	0.921370
O471	O47	0.812950	0.854610	0.128050
O481	O48	0.910950	0.921370	0.049290
O491	O49	0.312950	0.704390	0.628050
O501	O50	0.410950	0.618390	0.549290
O511	O51	0.204390	0.812950	0.354610
O521	O52	0.118390	0.910950	0.421370
O531	O53	0.128050	0.354610	0.812950
O541	O54	0.049290	0.421370	0.910950
O551	O55	0.854610	0.628050	0.704390
O561	O56	0.921370	0.549290	0.618390
O571	O57	0.312950	0.628050	0.354610
O581	O58	0.410950	0.549290	0.421370
O591	O59	0.204390	0.354610	0.628050
O601	O60	0.118390	0.421370	0.549290
O611	O61	0.128050	0.812950	0.704390
O621	O62	0.049290	0.910950	0.618390
O631	O63	0.854610	0.704390	0.812950
O641	O64	0.921370	0.618390	0.910950
O651	O65	0.312950	0.354610	0.704390
O661	O66	0.410950	0.421370	0.618390
O671	O67	0.204390	0.628050	0.812950
O681	O68	0.118390	0.549290	0.910950
O691	O69	0.128050	0.704390	0.354610
O701	O70	0.049290	0.618390	0.421370
O711	O71	0.854610	0.812950	0.628050
O721	O72	0.921370	0.910950	0.549290
O731	O73	0.295610	0.687050	0.871950
O741	O74	0.381610	0.589050	0.950710
O751	O75	0.187050	0.795610	0.145390
O761	O76	0.089050	0.881610	0.078630
O771	O77	0.645390	0.871950	0.687050
O781	O78	0.578630	0.950710	0.589050
O791	O79	0.371950	0.145390	0.795610
O801	O80	0.450710	0.078630	0.881610
O811	O81	0.371950	0.687050	0.145390
O821	O82	0.450710	0.589050	0.078630
O831	O83	0.645390	0.795610	0.871950
O841	O84	0.578630	0.881610	0.950710
O851	O85	0.187050	0.871950	0.795610
O861	O86	0.089050	0.950710	0.881610
O871	O87	0.295610	0.145390	0.687050
O881	O88	0.381610	0.078630	0.589050
O891	O89	0.645390	0.687050	0.795610
O901	O90	0.578630	0.589050	0.881610
O911	O91	0.371950	0.795610	0.687050
O921	O92	0.450710	0.881610	0.589050
O931	O93	0.295610	0.871950	0.145390
O941	O94	0.381610	0.950710	0.078630
O951	O95	0.187050	0.145390	0.871950
O961	O96	0.089050	0.078630	0.950710
O971	O97	0.619640	0.380360	0.250000
O981	O98	0.880360	0.119640	0.750000
O991	O99	0.750000	0.750000	0.119640
O1001	O100	0.250000	0.250000	0.380360
O1011	O101	0.619640	0.250000	0.750000
O1021	O102	0.880360	0.750000	0.250000
O1031	O103	0.750000	0.119640	0.380360
O1041	O104	0.250000	0.380360	0.119640
O1051	O105	0.619640	0.750000	0.380360
O1061	O106	0.880360	0.250000	0.119640
O1071	O107	0.750000	0.380360	0.750000
O1081	O108	0.250000	0.119640	0.250000
O1091	O109	0.380360	0.619640	0.750000
O1101	O110	0.119640	0.880360	0.250000
O1111	O111	0.250000	0.250000	0.880360
O1121	O112	0.750000	0.750000	0.619640
O1131	O113	0.380360	0.750000	0.250000
O1141	O114	0.119640	0.250000	0.750000
O1151	O115	0.250000	0.880360	0.619640
O1161	O116	0.750000	0.619640	0.880360
O1171	O117	0.380360	0.250000	0.619640
O1181	O118	0.119640	0.750000	0.880360
O1191	O119	0.250000	0.619640	0.250000
O1201	O120	0.750000	0.880360	0.750000
