data_FENROG_clean_PM
_symmetry_space_group_name_H-M	'P1'
_cell_length_a	13.047000
_cell_length_b	11.689300
_cell_length_c	7.824400
_cell_angle_alpha	90.000000
_cell_angle_beta	109.954000
_cell_angle_gamma	90.000000
_symmetry_Int_Tables_number 1

loop_
_symmetry_equiv_pos_as_xyz
'x,y,z'

loop_
_atom_site_label
_atom_site_type_symbol
_atom_site_fract_x
_atom_site_fract_y
_atom_site_fract_z
C11	C1	0.135700	0.866200	0.950400
O11	O1	0.131100	0.901500	0.796700
O21	O2	0.072900	0.911000	0.027000
C21	C2	0.216400	0.775800	0.052500
H11	H1	0.176800	0.714900	0.086900
H21	H2	0.265600	0.809500	0.163600
C31	C3	0.635700	0.366200	0.950400
O31	O3	0.631100	0.401500	0.796700
O41	O4	0.572900	0.411000	0.027000
C41	C4	0.716400	0.275800	0.052500
H31	H3	0.676800	0.214900	0.086900
H41	H4	0.765600	0.309500	0.163600
C51	C5	0.864300	0.866200	0.549600
O51	O5	0.868900	0.901500	0.703300
O61	O6	0.927100	0.911000	0.473000
C61	C6	0.783600	0.775800	0.447500
H51	H5	0.823200	0.714900	0.413100
H61	H6	0.734400	0.809500	0.336400
C71	C7	0.364300	0.366200	0.549600
O71	O7	0.368900	0.401500	0.703300
O81	O8	0.427100	0.411000	0.473000
C81	C8	0.283600	0.275800	0.447500
H71	H7	0.323200	0.214900	0.413100
H81	H8	0.234400	0.309500	0.336400
C91	C9	0.864300	0.133800	0.049600
O91	O9	0.868900	0.098500	0.203300
O101	O10	0.927100	0.089000	0.973000
C101	C10	0.783600	0.224200	0.947500
H91	H9	0.823200	0.285100	0.913100
H101	H10	0.734400	0.190500	0.836400
C111	C11	0.364300	0.633800	0.049600
O111	O11	0.368900	0.598500	0.203300
O121	O12	0.427100	0.589000	0.973000
C121	C12	0.283600	0.724200	0.947500
H111	H11	0.323200	0.785100	0.913100
H121	H12	0.234400	0.690500	0.836400
C131	C13	0.135700	0.133800	0.450400
O131	O13	0.131100	0.098500	0.296700
O141	O14	0.072900	0.089000	0.527000
C141	C14	0.216400	0.224200	0.552500
H131	H13	0.176800	0.285100	0.586900
H141	H14	0.265600	0.190500	0.663600
C151	C15	0.635700	0.633800	0.450400
O151	O15	0.631100	0.598500	0.296700
O161	O16	0.572900	0.589000	0.527000
C161	C16	0.716400	0.724200	0.552500
H151	H15	0.676800	0.785100	0.586900
H161	H16	0.765600	0.690500	0.663600
Er11	Er1	0.000000	0.055400	0.750000
Er21	Er2	0.500000	0.555400	0.750000
Er31	Er3	0.000000	0.944600	0.250000
Er41	Er4	0.500000	0.444600	0.250000
