data_FENVOL_charged_PM
_symmetry_space_group_name_H-M	'P1'
_cell_length_a	17.486600
_cell_length_b	17.486600
_cell_length_c	17.486600
_cell_angle_alpha	96.522000
_cell_angle_beta	116.309000
_cell_angle_gamma	116.309000
_symmetry_Int_Tables_number 1

loop_
_symmetry_equiv_pos_as_xyz
'x,y,z'

loop_
_atom_site_label
_atom_site_type_symbol
_atom_site_fract_x
_atom_site_fract_y
_atom_site_fract_z
Zn11	Zn1	0.507980	0.957290	0.998150
Zn21	Zn2	0.492020	0.490170	0.449310
Zn31	Zn3	0.959140	0.001850	0.509830
Zn41	Zn4	0.040860	0.550690	0.042710
Zn51	Zn5	0.459140	0.259830	0.251850
Zn61	Zn6	0.540860	0.792710	0.800690
Zn71	Zn7	0.992020	0.199310	0.740170
Zn81	Zn8	0.007980	0.748150	0.207290
Zn91	Zn9	0.875300	0.500300	0.125000
Zn101	Zn10	0.124700	0.249700	0.625000
Zn111	Zn11	0.375300	0.875000	0.750300
Zn121	Zn12	0.624700	0.375000	0.499700
P11	P1	0.614390	0.997430	0.893980
P21	P2	0.385610	0.279590	0.383040
P31	P3	0.103450	0.106020	0.720410
P41	P4	0.896550	0.616960	0.002570
P51	P5	0.603450	0.470410	0.356020
P61	P6	0.396550	0.752570	0.866960
P71	P7	0.885610	0.133040	0.529590
P81	P8	0.114390	0.643980	0.247430
H11	H1	0.724500	0.194300	0.994200
H21	H2	0.929700	0.312000	0.928500
H31	H3	0.740400	0.035900	0.824300
H41	H4	0.275500	0.269700	0.469800
H51	H5	0.070300	0.998800	0.382300
H61	H6	0.259600	0.083900	0.295500
H71	H7	0.200100	0.005800	0.730300
H81	H8	0.383500	0.071500	0.001200
H91	H9	0.211600	0.175700	0.916100
H101	H10	0.799900	0.530200	0.805700
H111	H11	0.616500	0.617700	0.688000
H121	H12	0.788400	0.704500	0.964100
H131	H13	0.700100	0.480300	0.255800
H141	H14	0.883500	0.751200	0.321500
H151	H15	0.711600	0.666100	0.425700
H161	H16	0.299900	0.555700	0.780200
H171	H17	0.116500	0.438000	0.867700
H181	H18	0.288400	0.714100	0.954500
H191	H19	0.775500	0.219800	0.519700
H201	H20	0.570300	0.132300	0.248800
H211	H21	0.759600	0.045500	0.333900
H221	H22	0.224500	0.744200	0.444300
H231	H23	0.429700	0.678500	0.562000
H241	H24	0.240400	0.574300	0.285900
C11	C1	0.718600	0.100100	0.909500
C21	C2	0.753900	0.188300	0.962800
C31	C3	0.832100	0.267200	0.970100
C41	C4	0.876800	0.259100	0.923100
C51	C5	0.842900	0.173300	0.868600
C61	C6	0.763600	0.093900	0.861500
C71	C7	0.663300	0.506500	0.636600
C81	C8	0.886900	0.161900	0.816000
C91	C9	0.281400	0.190900	0.381500
C101	C10	0.246100	0.208900	0.434400
C111	C11	0.167900	0.138000	0.435100
C121	C12	0.123200	0.046300	0.382300
C131	C13	0.157100	0.025700	0.330400
C141	C14	0.236400	0.097900	0.330300
C151	C15	0.336700	0.973300	0.843200
C161	C16	0.113100	0.929100	0.275000
C171	C17	0.190600	0.090500	0.809100
C181	C18	0.225500	0.037200	0.791100
C191	C19	0.297100	0.029900	0.862000
C201	C20	0.336000	0.076900	0.953700
C211	C21	0.304700	0.131400	0.974300
C221	C22	0.232400	0.138500	0.902100
C231	C23	0.869900	0.363400	0.026700
C241	C24	0.345900	0.184000	0.070900
C251	C25	0.809400	0.618500	0.899900
C261	C26	0.774500	0.565600	0.811700
C271	C27	0.702900	0.564900	0.732800
C281	C28	0.664000	0.617700	0.740900
C291	C29	0.695300	0.669600	0.826700
C301	C30	0.767600	0.669700	0.906100
C311	C31	0.130100	0.156800	0.493500
C321	C32	0.654100	0.725000	0.838100
C331	C33	0.690600	0.559100	0.340500
C341	C34	0.725500	0.541100	0.287200
C351	C35	0.797100	0.612000	0.279900
C361	C36	0.836000	0.703700	0.326900
C371	C37	0.804700	0.724300	0.381400
C381	C38	0.732400	0.652100	0.388500
C391	C39	0.369900	0.776700	0.613400
C401	C40	0.845900	0.820900	0.434000
C411	C41	0.309400	0.649900	0.868500
C421	C42	0.274500	0.561700	0.815600
C431	C43	0.202900	0.482800	0.814900
C441	C44	0.164000	0.490900	0.867700
C451	C45	0.195300	0.576700	0.919600
C461	C46	0.267600	0.656100	0.919700
C471	C47	0.630100	0.243500	0.406800
C481	C48	0.154100	0.588100	0.975000
C491	C49	0.781400	0.131500	0.440900
C501	C50	0.746100	0.184400	0.458900
C511	C51	0.667900	0.185100	0.388000
C521	C52	0.623200	0.132300	0.296300
C531	C53	0.657100	0.080400	0.275700
C541	C54	0.736400	0.080300	0.347900
C551	C55	0.836700	0.593200	0.223300
C561	C56	0.613100	0.025000	0.179100
C571	C57	0.218600	0.659500	0.350100
C581	C58	0.253900	0.712800	0.438300
C591	C59	0.332100	0.720100	0.517200
C601	C60	0.376800	0.673100	0.509100
C611	C61	0.342900	0.618600	0.423300
C621	C62	0.263600	0.611500	0.343900
C631	C63	0.163300	0.386600	0.756500
C641	C64	0.386900	0.566000	0.411900
O11	O1	0.834000	0.538400	0.021200
O21	O2	0.620300	0.017300	0.983200
O31	O3	0.955100	0.710300	0.078800
O41	O4	0.604200	0.514400	0.572000
O51	O5	0.695000	0.455500	0.630300
O61	O6	0.952600	0.236400	0.818200
O71	O7	0.687000	0.775000	0.913400
O81	O8	0.166000	0.187200	0.704400
O91	O9	0.379700	0.362900	0.397000
O101	O10	0.044900	0.123700	0.755200
O111	O11	0.395800	0.967800	0.910200
O121	O12	0.305000	0.935300	0.760500
O131	O13	0.047400	0.865600	0.283800
O141	O14	0.313000	0.226400	0.088000
O151	O15	0.517200	0.978800	0.812800
O161	O16	0.034100	0.016800	0.637100
O171	O17	0.631500	0.921200	0.876300
O181	O18	0.942400	0.428000	0.032200
O191	O19	0.825200	0.369700	0.064700
O201	O20	0.418200	0.181800	0.134400
O211	O21	0.861600	0.086600	0.773600
O221	O22	0.482800	0.295600	0.461600
O231	O23	0.965900	0.603000	0.982700
O241	O24	0.368500	0.244800	0.289700
O251	O25	0.057600	0.089800	0.485600
O261	O26	0.174800	0.239500	0.544500
O271	O27	0.581800	0.716200	0.763600
O281	O28	0.138400	0.912000	0.225000
O291	O29	0.017200	0.562800	0.228800
O301	O30	0.534100	0.387100	0.266800
O311	O31	0.131500	0.626300	0.171200
O321	O32	0.442400	0.782200	0.678000
O331	O33	0.325200	0.814700	0.619700
O341	O34	0.918200	0.884400	0.431800
O351	O35	0.361600	0.523600	0.336600
O361	O36	0.982800	0.211600	0.545600
O371	O37	0.465900	0.732700	0.853000
O381	O38	0.868500	0.039700	0.494800
O391	O39	0.557600	0.235600	0.339800
O401	O40	0.674800	0.294500	0.489500
O411	O41	0.081800	0.513600	0.966200
O421	O42	0.638400	0.975000	0.162000
O431	O43	0.666000	0.454400	0.437200
O441	O44	0.879700	0.147000	0.612900
O451	O45	0.544900	0.505200	0.373700
O461	O46	0.895800	0.660200	0.217800
O471	O47	0.805000	0.510500	0.185300
O481	O48	0.547400	0.033800	0.115600
O491	O49	0.813000	0.838000	0.476400
O501	O50	0.334000	0.771200	0.788400
O511	O51	0.120300	0.733200	0.267300
O521	O52	0.455100	0.828800	0.960300
O531	O53	0.104200	0.322000	0.764400
O541	O54	0.195000	0.380300	0.705500
O551	O55	0.452600	0.568200	0.486400
O561	O56	0.187000	0.663400	0.025000
H251	H25	0.292300	0.868000	0.257500
H261	H26	0.307400	0.809400	0.198400
H271	H27	0.418600	0.928900	0.217500
H281	H28	0.385600	0.984500	0.255900
H291	H29	0.356900	0.024800	0.147100
H301	H30	0.165800	0.832400	0.160600
H311	H31	0.110500	0.784800	0.992500
H321	H32	0.111000	0.859000	0.051600
H331	H33	0.211400	0.951100	0.032500
H341	H34	0.228600	0.879700	0.994100
H351	H35	0.377700	0.959800	0.102900
H361	H36	0.171800	0.755200	0.089400
C651	C65	0.287500	0.853100	0.199800
C661	C66	0.361100	0.933800	0.203500
C671	C67	0.153300	0.837700	0.050200
C681	C68	0.230300	0.907600	0.046500
C691	C69	0.336100	0.961100	0.125000
N11	N1	0.179300	0.804300	0.125000
H371	H37	0.707700	0.965200	0.575700
H381	H38	0.692600	0.891000	0.502000
H391	H39	0.581400	0.798900	0.510300
H401	H40	0.614400	0.870300	0.598900
H411	H41	0.643100	0.790200	0.667900
H421	H42	0.834200	0.994800	0.666600
H431	H43	0.889500	0.882000	0.674300
H441	H44	0.889000	0.940600	0.748000
H451	H45	0.788600	0.821100	0.739700
H461	H46	0.771400	0.765500	0.651100
H471	H47	0.622300	0.725200	0.582100
H481	H48	0.828200	0.917600	0.583400
C701	C70	0.712500	0.912300	0.565600
C711	C71	0.638900	0.842400	0.572700
C721	C72	0.846700	0.896900	0.684400
C731	C73	0.769700	0.816200	0.677300
C741	C74	0.663900	0.788900	0.625000
N21	N2	0.820700	0.945700	0.625000
H491	H49	0.610500	0.742500	0.034800
H501	H50	0.611000	0.801600	0.109000
H511	H51	0.711400	0.782500	0.201100
H521	H52	0.728600	0.744100	0.129700
H531	H53	0.877700	0.852900	0.209800
H541	H54	0.671800	0.839400	0.005200
H551	H55	0.792300	0.007500	0.118000
H561	H56	0.807400	0.948400	0.059400
H571	H57	0.918600	0.967500	0.178900
H581	H58	0.885600	0.005900	0.234500
H591	H59	0.856900	0.897100	0.274800
H601	H60	0.665800	0.910600	0.082400
C751	C75	0.653300	0.800200	0.087700
C761	C76	0.730300	0.796500	0.157600
C771	C77	0.787500	0.949800	0.103100
C781	C78	0.861100	0.953500	0.183800
C791	C79	0.836100	0.875000	0.211100
N31	N3	0.679300	0.875000	0.054300
H611	H61	0.389500	0.424300	0.132000
H621	H62	0.389000	0.498000	0.190600
H631	H63	0.288600	0.489700	0.071100
H641	H64	0.271400	0.401100	0.015500
H651	H65	0.122300	0.332100	0.975200
H661	H66	0.328200	0.333400	0.167600
H671	H67	0.207700	0.325700	0.215200
H681	H68	0.192600	0.252000	0.141000
H691	H69	0.081400	0.260300	0.048900
H701	H70	0.114400	0.348900	0.120300
H711	H71	0.143100	0.417900	0.040200
H721	H72	0.334200	0.416600	0.244800
C801	C80	0.346700	0.434400	0.146900
C811	C81	0.269700	0.427300	0.066200
C821	C82	0.212500	0.315600	0.162300
C831	C83	0.138900	0.322700	0.092400
C841	C84	0.163900	0.375000	0.038900
N41	N4	0.320700	0.375000	0.195700
