data_FEPQEW_clean_PM
_symmetry_space_group_name_H-M	'P1'
_cell_length_a	12.702000
_cell_length_b	9.365000
_cell_length_c	11.253000
_cell_angle_alpha	90.000000
_cell_angle_beta	90.000000
_cell_angle_gamma	90.000000
_symmetry_Int_Tables_number 1

loop_
_symmetry_equiv_pos_as_xyz
'x,y,z'

loop_
_atom_site_label
_atom_site_type_symbol
_atom_site_fract_x
_atom_site_fract_y
_atom_site_fract_z
P11	P1	0.424720	0.511600	0.200560
O11	O1	0.237800	0.868200	0.112400
O21	O2	0.514100	0.530600	0.109500
H11	H1	0.569700	0.503200	0.138600
O31	O3	0.373200	0.367800	0.176700
O41	O4	0.344900	0.629900	0.176800
O51	O5	0.153400	0.014800	0.955900
O61	O6	0.031000	0.477300	0.324700
P21	P2	0.075280	0.488400	0.200560
O71	O7	0.262200	0.131800	0.112400
O81	O8	0.985900	0.469400	0.109500
H21	H2	0.930300	0.496800	0.138600
O91	O9	0.126800	0.632200	0.176700
O101	O10	0.155100	0.370100	0.176800
O111	O11	0.346600	0.985200	0.955900
O121	O12	0.469000	0.522700	0.324700
P31	P3	0.075280	0.011600	0.299440
O131	O13	0.262200	0.368200	0.387600
O141	O14	0.985900	0.030600	0.390500
H31	H3	0.930300	0.003200	0.361400
O151	O15	0.126800	0.867800	0.323300
O161	O16	0.155100	0.129900	0.323200
O171	O17	0.346600	0.514800	0.544100
O181	O18	0.469000	0.977300	0.175300
P41	P4	0.424720	0.988400	0.299440
O191	O19	0.237800	0.631800	0.387600
O201	O20	0.514100	0.969400	0.390500
H41	H4	0.569700	0.996800	0.361400
O211	O21	0.373200	0.132200	0.323300
O221	O22	0.344900	0.870100	0.323200
O231	O23	0.153400	0.485200	0.544100
O241	O24	0.031000	0.022700	0.175300
P51	P5	0.575280	0.488400	0.799440
O251	O25	0.762200	0.131800	0.887600
O261	O26	0.485900	0.469400	0.890500
H51	H5	0.430300	0.496800	0.861400
O271	O27	0.626800	0.632200	0.823300
O281	O28	0.655100	0.370100	0.823200
O291	O29	0.846600	0.985200	0.044100
O301	O30	0.969000	0.522700	0.675300
P61	P6	0.924720	0.511600	0.799440
O311	O31	0.737800	0.868200	0.887600
O321	O32	0.014100	0.530600	0.890500
H61	H6	0.069700	0.503200	0.861400
O331	O33	0.873200	0.367800	0.823300
O341	O34	0.844900	0.629900	0.823200
O351	O35	0.653400	0.014800	0.044100
O361	O36	0.531000	0.477300	0.675300
P71	P7	0.924720	0.988400	0.700560
O371	O37	0.737800	0.631800	0.612400
O381	O38	0.014100	0.969400	0.609500
H71	H7	0.069700	0.996800	0.638600
O391	O39	0.873200	0.132200	0.676700
O401	O40	0.844900	0.870100	0.676800
O411	O41	0.653400	0.485200	0.455900
O421	O42	0.531000	0.022700	0.824700
P81	P8	0.575280	0.011600	0.700560
O431	O43	0.762200	0.368200	0.612400
O441	O44	0.485900	0.030600	0.609500
H81	H8	0.430300	0.003200	0.638600
O451	O45	0.626800	0.867800	0.676700
O461	O46	0.655100	0.129900	0.676800
O471	O47	0.846600	0.514800	0.455900
O481	O48	0.969000	0.977300	0.824700
Ti11	Ti1	0.257990	0.250000	0.250000
Ti21	Ti2	0.242010	0.750000	0.250000
Ti31	Ti3	0.742010	0.750000	0.750000
Ti41	Ti4	0.757990	0.250000	0.750000
Ti51	Ti5	0.000000	0.000000	0.000000
Ti61	Ti6	0.500000	0.000000	0.000000
Ti71	Ti7	0.500000	0.500000	0.500000
Ti81	Ti8	0.000000	0.500000	0.500000
P91	P9	0.250000	0.000000	0.033700
P101	P10	0.250000	0.500000	0.466300
P111	P11	0.750000	0.000000	0.966300
P121	P12	0.750000	0.500000	0.533700
