data_FERVUV_clean_PM
_symmetry_space_group_name_H-M	'P1'
_cell_length_a	26.242000
_cell_length_b	26.242000
_cell_length_c	9.564400
_cell_angle_alpha	90.000000
_cell_angle_beta	90.000000
_cell_angle_gamma	120.000000
_symmetry_Int_Tables_number 1

loop_
_symmetry_equiv_pos_as_xyz
'x,y,z'

loop_
_atom_site_label
_atom_site_type_symbol
_atom_site_fract_x
_atom_site_fract_y
_atom_site_fract_z
N11	N1	0.331700	0.218800	0.307600
C11	C1	0.451200	0.270000	0.173500
H11	H1	0.430400	0.290100	0.175100
C21	C2	0.512700	0.302200	0.171300
H21	H2	0.532600	0.343100	0.170500
C31	C3	0.326900	0.251600	0.381500
N21	N2	0.998370	0.552130	0.640930
C41	C4	0.117870	0.603330	0.506830
H31	H3	0.097070	0.623430	0.508430
C51	C5	0.179370	0.635530	0.504630
H41	H4	0.199270	0.676430	0.503830
C61	C6	0.993570	0.584930	0.714830
N31	N3	0.665030	0.885470	0.974270
C71	C7	0.784530	0.936670	0.840170
H51	H5	0.763730	0.956770	0.841770
C81	C8	0.846030	0.968870	0.837970
H61	H6	0.865930	0.009770	0.837170
C91	C9	0.660230	0.918270	0.048170
N41	N4	0.781200	0.112900	0.307600
C101	C10	0.730000	0.181200	0.173500
H71	H7	0.709900	0.140300	0.175100
C111	C11	0.697800	0.210500	0.171300
H81	H8	0.656900	0.189500	0.170500
C121	C12	0.748400	0.075300	0.381500
N51	N5	0.447870	0.446230	0.640930
C131	C13	0.396670	0.514530	0.506830
H91	H9	0.376570	0.473630	0.508430
C141	C14	0.364470	0.543830	0.504630
H101	H10	0.323570	0.522830	0.503830
C151	C15	0.415070	0.408630	0.714830
N61	N6	0.114530	0.779570	0.974270
C161	C16	0.063330	0.847870	0.840170
H111	H11	0.043230	0.806970	0.841770
C171	C17	0.031130	0.877170	0.837970
H121	H12	0.990230	0.856170	0.837170
C181	C18	0.081730	0.741970	0.048170
N71	N7	0.887100	0.668300	0.307600
C191	C19	0.818800	0.548800	0.173500
H131	H13	0.859700	0.569600	0.175100
C201	C20	0.789500	0.487300	0.171300
H141	H14	0.810500	0.467400	0.170500
C211	C21	0.924700	0.673100	0.381500
N81	N8	0.553770	0.001630	0.640930
C221	C22	0.485470	0.882130	0.506830
H151	H15	0.526370	0.902930	0.508430
C231	C23	0.456170	0.820630	0.504630
H161	H16	0.477170	0.800730	0.503830
C241	C24	0.591370	0.006430	0.714830
N91	N9	0.220430	0.334970	0.974270
C251	C25	0.152130	0.215470	0.840170
H171	H17	0.193030	0.236270	0.841770
C261	C26	0.122830	0.153970	0.837970
H181	H18	0.143830	0.134070	0.837170
C271	C27	0.258030	0.339770	0.048170
N101	N10	0.218800	0.331700	0.692400
C281	C28	0.270000	0.451200	0.826500
H191	H19	0.290100	0.430400	0.824900
C291	C29	0.302200	0.512700	0.828700
H201	H20	0.343100	0.532600	0.829500
C301	C30	0.251600	0.326900	0.618500
N111	N11	0.885470	0.665030	0.025730
C311	C31	0.936670	0.784530	0.159830
H211	H21	0.956770	0.763730	0.158230
C321	C32	0.968870	0.846030	0.162030
H221	H22	0.009770	0.865930	0.162830
C331	C33	0.918270	0.660230	0.951830
N121	N12	0.552130	0.998370	0.359070
C341	C34	0.603330	0.117870	0.493170
H231	H23	0.623430	0.097070	0.491570
C351	C35	0.635530	0.179370	0.495370
H241	H24	0.676430	0.199270	0.496170
C361	C36	0.584930	0.993570	0.285170
N131	N13	0.112900	0.781200	0.692400
C371	C37	0.181200	0.730000	0.826500
H251	H25	0.140300	0.709900	0.824900
C381	C38	0.210500	0.697800	0.828700
H261	H26	0.189500	0.656900	0.829500
C391	C39	0.075300	0.748400	0.618500
N141	N14	0.779570	0.114530	0.025730
C401	C40	0.847870	0.063330	0.159830
H271	H27	0.806970	0.043230	0.158230
C411	C41	0.877170	0.031130	0.162030
H281	H28	0.856170	0.990230	0.162830
C421	C42	0.741970	0.081730	0.951830
N151	N15	0.446230	0.447870	0.359070
C431	C43	0.514530	0.396670	0.493170
H291	H29	0.473630	0.376570	0.491570
C441	C44	0.543830	0.364470	0.495370
H301	H30	0.522830	0.323570	0.496170
C451	C45	0.408630	0.415070	0.285170
N161	N16	0.668300	0.887100	0.692400
C461	C46	0.548800	0.818800	0.826500
H311	H31	0.569600	0.859700	0.824900
C471	C47	0.487300	0.789500	0.828700
H321	H32	0.467400	0.810500	0.829500
C481	C48	0.673100	0.924700	0.618500
N171	N17	0.334970	0.220430	0.025730
C491	C49	0.215470	0.152130	0.159830
H331	H33	0.236270	0.193030	0.158230
C501	C50	0.153970	0.122830	0.162030
H341	H34	0.134070	0.143830	0.162830
C511	C51	0.339770	0.258030	0.951830
N181	N18	0.001630	0.553770	0.359070
C521	C52	0.882130	0.485470	0.493170
H351	H35	0.902930	0.526370	0.491570
C531	C53	0.820630	0.456170	0.495370
H361	H36	0.800730	0.477170	0.496170
C541	C54	0.006430	0.591370	0.285170
N191	N19	0.668300	0.781200	0.692400
C551	C55	0.548800	0.730000	0.826500
H371	H37	0.569600	0.709900	0.824900
C561	C56	0.487300	0.697800	0.828700
H381	H38	0.467400	0.656900	0.829500
C571	C57	0.673100	0.748400	0.618500
N201	N20	0.334970	0.114530	0.025730
C581	C58	0.215470	0.063330	0.159830
H391	H39	0.236270	0.043230	0.158230
C591	C59	0.153970	0.031130	0.162030
H401	H40	0.134070	0.990230	0.162830
C601	C60	0.339770	0.081730	0.951830
N211	N21	0.001630	0.447870	0.359070
C611	C61	0.882130	0.396670	0.493170
H411	H41	0.902930	0.376570	0.491570
C621	C62	0.820630	0.364470	0.495370
H421	H42	0.800730	0.323570	0.496170
C631	C63	0.006430	0.415070	0.285170
N221	N22	0.218800	0.887100	0.692400
C641	C64	0.270000	0.818800	0.826500
H431	H43	0.290100	0.859700	0.824900
C651	C65	0.302200	0.789500	0.828700
H441	H44	0.343100	0.810500	0.829500
C661	C66	0.251600	0.924700	0.618500
N231	N23	0.885470	0.220430	0.025730
C671	C67	0.936670	0.152130	0.159830
H451	H45	0.956770	0.193030	0.158230
C681	C68	0.968870	0.122830	0.162030
H461	H46	0.009770	0.143830	0.162830
C691	C69	0.918270	0.258030	0.951830
N241	N24	0.552130	0.553770	0.359070
C701	C70	0.603330	0.485470	0.493170
H471	H47	0.623430	0.526370	0.491570
C711	C71	0.635530	0.456170	0.495370
H481	H48	0.676430	0.477170	0.496170
C721	C72	0.584930	0.591370	0.285170
N251	N25	0.112900	0.331700	0.692400
C731	C73	0.181200	0.451200	0.826500
H491	H49	0.140300	0.430400	0.824900
C741	C74	0.210500	0.512700	0.828700
H501	H50	0.189500	0.532600	0.829500
C751	C75	0.075300	0.326900	0.618500
N261	N26	0.779570	0.665030	0.025730
C761	C76	0.847870	0.784530	0.159830
H511	H51	0.806970	0.763730	0.158230
C771	C77	0.877170	0.846030	0.162030
H521	H52	0.856170	0.865930	0.162830
C781	C78	0.741970	0.660230	0.951830
N271	N27	0.446230	0.998370	0.359070
C791	C79	0.514530	0.117870	0.493170
H531	H53	0.473630	0.097070	0.491570
C801	C80	0.543830	0.179370	0.495370
H541	H54	0.522830	0.199270	0.496170
C811	C81	0.408630	0.993570	0.285170
N281	N28	0.781200	0.668300	0.307600
C821	C82	0.730000	0.548800	0.173500
H551	H55	0.709900	0.569600	0.175100
C831	C83	0.697800	0.487300	0.171300
H561	H56	0.656900	0.467400	0.170500
C841	C84	0.748400	0.673100	0.381500
N291	N29	0.447870	0.001630	0.640930
C851	C85	0.396670	0.882130	0.506830
H571	H57	0.376570	0.902930	0.508430
C861	C86	0.364470	0.820630	0.504630
H581	H58	0.323570	0.800730	0.503830
C871	C87	0.415070	0.006430	0.714830
N301	N30	0.114530	0.334970	0.974270
C881	C88	0.063330	0.215470	0.840170
H591	H59	0.043230	0.236270	0.841770
C891	C89	0.031130	0.153970	0.837970
H601	H60	0.990230	0.134070	0.837170
C901	C90	0.081730	0.339770	0.048170
N311	N31	0.887100	0.218800	0.307600
C911	C91	0.818800	0.270000	0.173500
H611	H61	0.859700	0.290100	0.175100
C921	C92	0.789500	0.302200	0.171300
H621	H62	0.810500	0.343100	0.170500
C931	C93	0.924700	0.251600	0.381500
N321	N32	0.553770	0.552130	0.640930
C941	C94	0.485470	0.603330	0.506830
H631	H63	0.526370	0.623430	0.508430
C951	C95	0.456170	0.635530	0.504630
H641	H64	0.477170	0.676430	0.503830
C961	C96	0.591370	0.584930	0.714830
N331	N33	0.220430	0.885470	0.974270
C971	C97	0.152130	0.936670	0.840170
H651	H65	0.193030	0.956770	0.841770
C981	C98	0.122830	0.968870	0.837970
H661	H66	0.143830	0.009770	0.837170
C991	C99	0.258030	0.918270	0.048170
N341	N34	0.331700	0.112900	0.307600
C1001	C100	0.451200	0.181200	0.173500
H671	H67	0.430400	0.140300	0.175100
C1011	C101	0.512700	0.210500	0.171300
H681	H68	0.532600	0.189500	0.170500
C1021	C102	0.326900	0.075300	0.381500
N351	N35	0.998370	0.446230	0.640930
C1031	C103	0.117870	0.514530	0.506830
H691	H69	0.097070	0.473630	0.508430
C1041	C104	0.179370	0.543830	0.504630
H701	H70	0.199270	0.522830	0.503830
C1051	C105	0.993570	0.408630	0.714830
N361	N36	0.665030	0.779570	0.974270
C1061	C106	0.784530	0.847870	0.840170
H711	H71	0.763730	0.806970	0.841770
C1071	C107	0.846030	0.877170	0.837970
H721	H72	0.865930	0.856170	0.837170
C1081	C108	0.660230	0.741970	0.048170
Ag11	Ag1	0.298600	0.298600	0.500000
Ag21	Ag2	0.965270	0.631930	0.833330
Ag31	Ag3	0.631930	0.965270	0.166670
Ag41	Ag4	0.701400	0.000000	0.500000
Ag51	Ag5	0.368070	0.333330	0.833330
Ag61	Ag6	0.034730	0.666670	0.166670
Ag71	Ag7	0.000000	0.701400	0.500000
Ag81	Ag8	0.666670	0.034730	0.833330
Ag91	Ag9	0.333330	0.368070	0.166670
Ag101	Ag10	0.701400	0.701400	0.500000
Ag111	Ag11	0.368070	0.034730	0.833330
Ag121	Ag12	0.034730	0.368070	0.166670
Ag131	Ag13	0.298600	0.000000	0.500000
Ag141	Ag14	0.965270	0.333330	0.833330
Ag151	Ag15	0.631930	0.666670	0.166670
Ag161	Ag16	0.000000	0.298600	0.500000
Ag171	Ag17	0.666670	0.631930	0.833330
Ag181	Ag18	0.333330	0.965270	0.166670
Fe11	Fe1	0.333330	0.166670	0.166670
Fe21	Fe2	0.000000	0.500000	0.500000
Fe31	Fe3	0.833330	0.166670	0.166670
Fe41	Fe4	0.500000	0.500000	0.500000
Fe51	Fe5	0.833330	0.666670	0.166670
Fe61	Fe6	0.500000	0.000000	0.500000
Fe71	Fe7	0.166670	0.333330	0.833330
Fe81	Fe8	0.166670	0.833330	0.833330
Fe91	Fe9	0.666670	0.833330	0.833330
N371	N37	0.421000	0.210500	0.173300
C1091	C109	0.543800	0.271900	0.170200
C1101	C110	0.608900	0.304450	0.164500
N381	N38	0.087670	0.543830	0.506630
C1111	C111	0.210470	0.605230	0.503530
C1121	C112	0.275570	0.637780	0.497830
N391	N39	0.754330	0.877170	0.839970
C1131	C113	0.877130	0.938570	0.836870
C1141	C114	0.942230	0.971120	0.831170
N401	N40	0.789500	0.210500	0.173300
C1151	C115	0.728100	0.271900	0.170200
C1161	C116	0.695550	0.304450	0.164500
N411	N41	0.456170	0.543830	0.506630
C1171	C117	0.394770	0.605230	0.503530
C1181	C118	0.362220	0.637780	0.497830
N421	N42	0.122830	0.877170	0.839970
C1191	C119	0.061430	0.938570	0.836870
C1201	C120	0.028880	0.971120	0.831170
N431	N43	0.789500	0.579000	0.173300
C1211	C121	0.728100	0.456200	0.170200
C1221	C122	0.695550	0.391100	0.164500
N441	N44	0.456170	0.912330	0.506630
C1231	C123	0.394770	0.789530	0.503530
C1241	C124	0.362220	0.724430	0.497830
N451	N45	0.122830	0.245670	0.839970
C1251	C125	0.061430	0.122870	0.836870
C1261	C126	0.028880	0.057770	0.831170
N461	N46	0.210500	0.421000	0.826700
C1271	C127	0.271900	0.543800	0.829800
C1281	C128	0.304450	0.608900	0.835500
N471	N47	0.877170	0.754330	0.160030
C1291	C129	0.938570	0.877130	0.163130
C1301	C130	0.971120	0.942230	0.168830
N481	N48	0.543830	0.087670	0.493370
C1311	C131	0.605230	0.210470	0.496470
C1321	C132	0.637780	0.275570	0.502170
N491	N49	0.210500	0.789500	0.826700
C1331	C133	0.271900	0.728100	0.829800
C1341	C134	0.304450	0.695550	0.835500
N501	N50	0.877170	0.122830	0.160030
C1351	C135	0.938570	0.061430	0.163130
C1361	C136	0.971120	0.028880	0.168830
N511	N51	0.543830	0.456170	0.493370
C1371	C137	0.605230	0.394770	0.496470
C1381	C138	0.637780	0.362220	0.502170
N521	N52	0.579000	0.789500	0.826700
C1391	C139	0.456200	0.728100	0.829800
C1401	C140	0.391100	0.695550	0.835500
N531	N53	0.245670	0.122830	0.160030
C1411	C141	0.122870	0.061430	0.163130
C1421	C142	0.057770	0.028880	0.168830
N541	N54	0.912330	0.456170	0.493370
C1431	C143	0.789530	0.394770	0.496470
C1441	C144	0.724430	0.362220	0.502170
N551	N55	0.636140	0.363860	0.165400
N561	N56	0.302810	0.697190	0.498730
N571	N57	0.969470	0.030530	0.832070
N581	N58	0.636140	0.272280	0.165400
N591	N59	0.302810	0.605610	0.498730
N601	N60	0.969470	0.938950	0.832070
N611	N61	0.727720	0.363860	0.165400
N621	N62	0.394390	0.697190	0.498730
N631	N63	0.061050	0.030530	0.832070
N641	N64	0.363860	0.636140	0.834600
N651	N65	0.030530	0.969470	0.167930
N661	N66	0.697190	0.302810	0.501270
N671	N67	0.272280	0.636140	0.834600
N681	N68	0.938950	0.969470	0.167930
N691	N69	0.605610	0.302810	0.501270
N701	N70	0.363860	0.727720	0.834600
N711	N71	0.030530	0.061050	0.167930
N721	N72	0.697190	0.394390	0.501270
