data_FERVOP_clean_PM
_symmetry_space_group_name_H-M	'P1'
_cell_length_a	9.103000
_cell_length_b	15.453700
_cell_length_c	15.453700
_cell_angle_alpha	63.757600
_cell_angle_beta	78.676400
_cell_angle_gamma	101.324000
_symmetry_Int_Tables_number 1

loop_
_symmetry_equiv_pos_as_xyz
'x,y,z'

loop_
_atom_site_label
_atom_site_type_symbol
_atom_site_fract_x
_atom_site_fract_y
_atom_site_fract_z
Fe11	Fe1	0.500000	0.500000	0.000000
Fe21	Fe2	0.500000	0.000000	0.500000
Fe31	Fe3	0.000000	0.500000	0.500000
Ag11	Ag1	0.304370	0.608740	0.695630
Ag21	Ag2	0.000000	0.695630	0.695630
Ag31	Ag3	0.695630	0.695630	0.608740
Ag41	Ag4	0.695630	0.391260	0.304370
Ag51	Ag5	0.000000	0.304370	0.304370
Ag61	Ag6	0.304370	0.304370	0.391260
H11	H1	0.477300	0.572700	0.148600
H21	H2	0.529600	0.720100	0.154400
H31	H3	0.625900	0.148600	0.278700
H41	H4	0.684000	0.154400	0.125500
H51	H5	0.904600	0.278700	0.572700
H61	H6	0.809500	0.125500	0.720100
H71	H7	0.374100	0.278700	0.148600
H81	H8	0.316000	0.125500	0.154400
H91	H9	0.095400	0.572700	0.278700
H101	H10	0.190500	0.720100	0.125500
H111	H11	0.522700	0.148600	0.572700
H121	H12	0.470400	0.154400	0.720100
H131	H13	0.522700	0.427300	0.851400
H141	H14	0.470400	0.279900	0.845600
H151	H15	0.374100	0.851400	0.721300
H161	H16	0.316000	0.845600	0.874500
H171	H17	0.095400	0.721300	0.427300
H181	H18	0.190500	0.874500	0.279900
H191	H19	0.625900	0.721300	0.851400
H201	H20	0.684000	0.874500	0.845600
H211	H21	0.904600	0.427300	0.721300
H221	H22	0.809500	0.279900	0.874500
H231	H23	0.477300	0.851400	0.427300
H241	H24	0.529600	0.845600	0.279900
C11	C1	0.521400	0.634400	0.087600
C21	C2	0.551000	0.722600	0.091800
C31	C3	0.364600	0.586000	0.823200
C41	C4	0.609000	0.087600	0.278000
C51	C5	0.642800	0.091800	0.185600
C61	C6	0.187800	0.823200	0.590800
C71	C7	0.887000	0.278000	0.634400
C81	C8	0.828400	0.185600	0.722600
C91	C9	0.778600	0.590800	0.586000
C101	C10	0.391000	0.278000	0.087600
C111	C11	0.357200	0.185600	0.091800
C121	C12	0.812200	0.590800	0.823200
C131	C13	0.113000	0.634400	0.278000
C141	C14	0.171600	0.722600	0.185600
C151	C15	0.221400	0.586000	0.590800
C161	C16	0.478600	0.087600	0.634400
C171	C17	0.449000	0.091800	0.722600
C181	C18	0.635400	0.823200	0.586000
C191	C19	0.478600	0.365600	0.912400
C201	C20	0.449000	0.277400	0.908200
C211	C21	0.635400	0.414000	0.176800
C221	C22	0.391000	0.912400	0.722000
C231	C23	0.357200	0.908200	0.814400
C241	C24	0.812200	0.176800	0.409200
C251	C25	0.113000	0.722000	0.365600
C261	C26	0.171600	0.814400	0.277400
C271	C27	0.221400	0.409200	0.414000
C281	C28	0.609000	0.722000	0.912400
C291	C29	0.642800	0.814400	0.908200
C301	C30	0.187800	0.409200	0.176800
C311	C31	0.887000	0.365600	0.722000
C321	C32	0.828400	0.277400	0.814400
C331	C33	0.778600	0.414000	0.409200
C341	C34	0.521400	0.912400	0.365600
C351	C35	0.551000	0.908200	0.277400
C361	C36	0.364600	0.176800	0.414000
C371	C37	0.615000	0.818000	0.000000
C381	C38	0.651100	0.914300	0.000000
C391	C39	0.615000	0.000000	0.182000
C401	C40	0.651100	0.000000	0.085700
C411	C41	0.797000	0.182000	0.818000
C421	C42	0.736800	0.085700	0.914300
C431	C43	0.385000	0.182000	0.000000
C441	C44	0.348900	0.085700	0.000000
C451	C45	0.203000	0.818000	0.182000
C461	C46	0.263200	0.914300	0.085700
C471	C47	0.385000	0.000000	0.818000
C481	C48	0.348900	0.000000	0.914300
N11	N1	0.406600	0.556100	0.893200
N21	N2	0.299800	0.893200	0.550700
N31	N3	0.850500	0.550700	0.556100
N41	N4	0.700200	0.550700	0.893200
N51	N5	0.149500	0.556100	0.550700
N61	N6	0.593400	0.893200	0.556100
N71	N7	0.593400	0.443900	0.106800
N81	N8	0.700200	0.106800	0.449300
N91	N9	0.149500	0.449300	0.443900
N101	N10	0.299800	0.449300	0.106800
N111	N11	0.850500	0.443900	0.449300
N121	N12	0.406600	0.106800	0.443900
N131	N13	0.552700	0.632000	0.000000
N141	N14	0.552700	0.000000	0.368000
N151	N15	0.920700	0.368000	0.632000
N161	N16	0.447300	0.368000	0.000000
N171	N17	0.079300	0.632000	0.368000
N181	N18	0.447300	0.000000	0.632000
N191	N19	0.705550	0.000000	0.910350
N201	N20	0.615900	0.910350	0.089650
N211	N21	0.705550	0.089650	0.000000
N221	N22	0.384100	0.089650	0.910350
N231	N23	0.294450	0.000000	0.089650
N241	N24	0.294450	0.910350	0.000000
