data_FEWQIJ_manual_PM
_symmetry_space_group_name_H-M	'P1'
_cell_length_a	27.393400
_cell_length_b	27.393400
_cell_length_c	14.010800
_cell_angle_alpha	90.000000
_cell_angle_beta	90.000000
_cell_angle_gamma	120.000000
_symmetry_Int_Tables_number 1

loop_
_symmetry_equiv_pos_as_xyz
'x,y,z'

loop_
_atom_site_label
_atom_site_type_symbol
_atom_site_fract_x
_atom_site_fract_y
_atom_site_fract_z
Dy11	Dy1	0.739110	0.413710	0.024510
C21	C2	0.771600	0.555200	0.135200
N31	N3	0.784600	0.605500	0.171750
C41	C4	0.767500	0.609700	0.258000
H51	H5	0.778100	0.644900	0.283850
C61	C6	0.794600	0.557200	0.037950
N71	N7	0.718500	0.510200	0.275700
O81	O8	0.723600	0.455200	0.162950
C91	C9	0.733400	0.561100	0.308500
H101	H10	0.720500	0.564200	0.368550
C111	C11	0.738600	0.505900	0.187950
O121	O12	0.782500	0.512900	0.494550
O131	O13	0.823800	0.605500	0.001000
O141	O14	0.659000	0.417400	0.473400
H151	H15	0.539520	0.322890	0.336570
Dy161	Dy16	0.405780	0.747040	0.191180
C171	C17	0.438270	0.888530	0.301870
N181	N18	0.451270	0.938830	0.338420
C191	C19	0.434170	0.943030	0.424670
H201	H20	0.444770	0.978230	0.450520
C211	C21	0.461270	0.890530	0.204620
N221	N22	0.385170	0.843530	0.442370
O231	O23	0.390270	0.788530	0.329620
C241	C24	0.400070	0.894430	0.475170
H251	H25	0.387170	0.897530	0.035220
C261	C26	0.405270	0.839230	0.354620
O271	O27	0.449170	0.846230	0.161220
O281	O28	0.490470	0.938830	0.167670
O291	O29	0.325670	0.750730	0.140070
H301	H30	0.206190	0.656230	0.003240
Dy311	Dy31	0.072440	0.080380	0.357840
C321	C32	0.104930	0.221870	0.468530
N331	N33	0.117930	0.272170	0.005080
C341	C34	0.100830	0.276370	0.091330
H351	H35	0.111430	0.311570	0.117180
C361	C36	0.127930	0.223870	0.371280
N371	N37	0.051830	0.176870	0.109030
O381	O38	0.056930	0.121870	0.496280
C391	C39	0.066730	0.227770	0.141830
H401	H40	0.053830	0.230870	0.201880
C411	C41	0.071930	0.172570	0.021280
O421	O42	0.115830	0.179570	0.327880
O431	O43	0.157130	0.272170	0.334330
O441	O44	0.992330	0.084070	0.306730
H451	H45	0.872860	0.989560	0.169900
Dy461	Dy46	0.586290	0.325400	0.024510
C471	C47	0.444800	0.216400	0.135200
N481	N48	0.394500	0.179100	0.171750
C491	C49	0.390300	0.157800	0.258000
H501	H50	0.355100	0.133200	0.283850
C511	C51	0.442800	0.237400	0.037950
N521	N52	0.489800	0.208300	0.275700
O531	O53	0.544800	0.268400	0.162950
C541	C54	0.438900	0.172300	0.308500
H551	H55	0.435800	0.156300	0.368550
C561	C56	0.494100	0.232700	0.187950
O571	O57	0.487100	0.269600	0.494550
O581	O58	0.394500	0.218300	0.001000
O591	O59	0.582600	0.241600	0.473400
H601	H60	0.677110	0.216630	0.336570
Dy611	Dy61	0.252960	0.658730	0.191180
C621	C62	0.111470	0.549730	0.301870
N631	N63	0.061170	0.512430	0.338420
C641	C64	0.056970	0.491130	0.424670
H651	H65	0.021770	0.466530	0.450520
C661	C66	0.109470	0.570730	0.204620
N671	N67	0.156470	0.541630	0.442370
O681	O68	0.211470	0.601730	0.329620
C691	C69	0.105570	0.505630	0.475170
H701	H70	0.102470	0.489630	0.035220
C711	C71	0.160770	0.566030	0.354620
O721	O72	0.153770	0.602930	0.161220
O731	O73	0.061170	0.551630	0.167670
O741	O74	0.249270	0.574930	0.140070
H751	H75	0.343770	0.549960	0.003240
Dy761	Dy76	0.919620	0.992070	0.357840
C771	C77	0.778130	0.883070	0.468530
N781	N78	0.727830	0.845770	0.005080
C791	C79	0.723630	0.824470	0.091330
H801	H80	0.688430	0.799870	0.117180
C811	C81	0.776130	0.904070	0.371280
N821	N82	0.823130	0.874970	0.109030
O831	O83	0.878130	0.935070	0.496280
C841	C84	0.772230	0.838970	0.141830
H851	H85	0.769130	0.822970	0.201880
C861	C86	0.827430	0.899370	0.021280
O871	O87	0.820430	0.936270	0.327880
O881	O88	0.727830	0.884970	0.334330
O891	O89	0.915930	0.908270	0.306730
H901	H90	0.010440	0.883300	0.169900
Dy911	Dy91	0.674600	0.260890	0.024510
C921	C92	0.783600	0.228400	0.135200
N931	N93	0.820900	0.215400	0.171750
C941	C94	0.842200	0.232500	0.258000
H951	H95	0.866800	0.221900	0.283850
C961	C96	0.762600	0.205400	0.037950
N971	N97	0.791700	0.281500	0.275700
O981	O98	0.731600	0.276400	0.162950
C991	C99	0.827700	0.266600	0.308500
H1001	H100	0.843700	0.279500	0.368550
C1011	C101	0.767300	0.261400	0.187950
O1021	O102	0.730400	0.217500	0.494550
O1031	O103	0.781700	0.176200	0.001000
O1041	O104	0.758400	0.341000	0.473400
H1051	H105	0.783370	0.460480	0.336570
Dy1061	Dy106	0.341270	0.594220	0.191180
C1071	C107	0.450270	0.561730	0.301870
N1081	N108	0.487570	0.548730	0.338420
C1091	C109	0.508870	0.565830	0.424670
H1101	H110	0.533470	0.555230	0.450520
C1111	C111	0.429270	0.538730	0.204620
N1121	N112	0.458370	0.614830	0.442370
O1131	O113	0.398270	0.609730	0.329620
C1141	C114	0.494370	0.599930	0.475170
H1151	H115	0.510370	0.612830	0.035220
C1161	C116	0.433970	0.594730	0.354620
O1171	O117	0.397070	0.550830	0.161220
O1181	O118	0.448370	0.509530	0.167670
O1191	O119	0.425070	0.674330	0.140070
H1201	H120	0.450040	0.793810	0.003240
Dy1211	Dy121	0.007930	0.927560	0.357840
C1221	C122	0.116930	0.895070	0.468530
N1231	N123	0.154230	0.882070	0.005080
C1241	C124	0.175530	0.899170	0.091330
H1251	H125	0.200130	0.888570	0.117180
C1261	C126	0.095930	0.872070	0.371280
N1271	N127	0.125030	0.948170	0.109030
O1281	O128	0.064930	0.943070	0.496280
C1291	C129	0.161030	0.933270	0.141830
H1301	H130	0.177030	0.946170	0.201880
C1311	C131	0.100630	0.928070	0.021280
O1321	O132	0.063730	0.884170	0.327880
O1331	O133	0.115030	0.842870	0.334330
O1341	O134	0.091730	0.007670	0.306730
H1351	H135	0.116700	0.127140	0.169900
Dy1361	Dy136	0.260890	0.586290	0.475490
C1371	C137	0.228400	0.444800	0.364800
N1381	N138	0.215400	0.394500	0.328250
C1391	C139	0.232500	0.390300	0.242000
H1401	H140	0.221900	0.355100	0.216150
C1411	C141	0.205400	0.442800	0.462050
N1421	N142	0.281500	0.489800	0.224300
O1431	O143	0.276400	0.544800	0.337050
C1441	C144	0.266600	0.438900	0.191500
H1451	H145	0.279500	0.435800	0.131450
C1461	C146	0.261400	0.494100	0.312050
O1471	O147	0.217500	0.487100	0.005450
O1481	O148	0.176200	0.394500	0.499000
O1491	O149	0.341000	0.582600	0.026600
H1501	H150	0.460480	0.677110	0.163430
Dy1511	Dy151	0.927560	0.919620	0.142160
C1521	C152	0.895070	0.778130	0.031470
N1531	N153	0.882070	0.727830	0.494920
C1541	C154	0.899170	0.723630	0.408670
H1551	H155	0.888570	0.688430	0.382820
C1561	C156	0.872070	0.776130	0.128720
N1571	N157	0.948170	0.823130	0.390970
O1581	O158	0.943070	0.878130	0.003720
C1591	C159	0.933270	0.772230	0.358170
H1601	H160	0.946170	0.769130	0.298120
C1611	C161	0.928070	0.827430	0.478720
O1621	O162	0.884170	0.820430	0.172120
O1631	O163	0.842870	0.727830	0.165670
O1641	O164	0.007670	0.915930	0.193270
H1651	H165	0.127140	0.010440	0.330100
Dy1661	Dy166	0.594220	0.252960	0.308820
C1671	C167	0.561730	0.111470	0.198130
N1681	N168	0.548730	0.061170	0.161580
C1691	C169	0.565830	0.056970	0.075330
H1701	H170	0.555230	0.021770	0.049480
C1711	C171	0.538730	0.109470	0.295380
N1721	N172	0.614830	0.156470	0.057630
O1731	O173	0.609730	0.211470	0.170380
C1741	C174	0.599930	0.105570	0.024830
H1751	H175	0.612830	0.102470	0.464780
C1761	C176	0.594730	0.160770	0.145380
O1771	O177	0.550830	0.153770	0.338780
O1781	O178	0.509530	0.061170	0.332330
O1791	O179	0.674330	0.249270	0.359930
H1801	H180	0.793810	0.343770	0.496760
Dy1811	Dy181	0.413710	0.674600	0.475490
C1821	C182	0.555200	0.783600	0.364800
N1831	N183	0.605500	0.820900	0.328250
C1841	C184	0.609700	0.842200	0.242000
H1851	H185	0.644900	0.866800	0.216150
C1861	C186	0.557200	0.762600	0.462050
N1871	N187	0.510200	0.791700	0.224300
O1881	O188	0.455200	0.731600	0.337050
C1891	C189	0.561100	0.827700	0.191500
H1901	H190	0.564200	0.843700	0.131450
C1911	C191	0.505900	0.767300	0.312050
O1921	O192	0.512900	0.730400	0.005450
O1931	O193	0.605500	0.781700	0.499000
O1941	O194	0.417400	0.758400	0.026600
H1951	H195	0.322890	0.783370	0.163430
Dy1961	Dy196	0.080380	0.007930	0.142160
C1971	C197	0.221870	0.116930	0.031470
N1981	N198	0.272170	0.154230	0.494920
C1991	C199	0.276370	0.175530	0.408670
H2001	H200	0.311570	0.200130	0.382820
C2011	C201	0.223870	0.095930	0.128720
N2021	N202	0.176870	0.125030	0.390970
O2031	O203	0.121870	0.064930	0.003720
C2041	C204	0.227770	0.161030	0.358170
H2051	H205	0.230870	0.177030	0.298120
C2061	C206	0.172570	0.100630	0.478720
O2071	O207	0.179570	0.063730	0.172120
O2081	O208	0.272170	0.115030	0.165670
O2091	O209	0.084070	0.091730	0.193270
H2101	H210	0.989560	0.116700	0.330100
Dy2111	Dy211	0.747040	0.341270	0.308820
C2121	C212	0.888530	0.450270	0.198130
N2131	N213	0.938830	0.487570	0.161580
C2141	C214	0.943030	0.508870	0.075330
H2151	H215	0.978230	0.533470	0.049480
C2161	C216	0.890530	0.429270	0.295380
N2171	N217	0.843530	0.458370	0.057630
O2181	O218	0.788530	0.398270	0.170380
C2191	C219	0.894430	0.494370	0.024830
H2201	H220	0.897530	0.510370	0.464780
C2211	C221	0.839230	0.433970	0.145380
O2221	O222	0.846230	0.397070	0.338780
O2231	O223	0.938830	0.448370	0.332330
O2241	O224	0.750730	0.425070	0.359930
H2251	H225	0.656230	0.450040	0.496760
Dy2261	Dy226	0.325400	0.739110	0.475490
C2271	C227	0.216400	0.771600	0.364800
N2281	N228	0.179100	0.784600	0.328250
C2291	C229	0.157800	0.767500	0.242000
H2301	H230	0.133200	0.778100	0.216150
C2311	C231	0.237400	0.794600	0.462050
N2321	N232	0.208300	0.718500	0.224300
O2331	O233	0.268400	0.723600	0.337050
C2341	C234	0.172300	0.733400	0.191500
H2351	H235	0.156300	0.720500	0.131450
C2361	C236	0.232700	0.738600	0.312050
O2371	O237	0.269600	0.782500	0.005450
O2381	O238	0.218300	0.823800	0.499000
O2391	O239	0.241600	0.659000	0.026600
H2401	H240	0.216630	0.539520	0.163430
Dy2411	Dy241	0.992070	0.072440	0.142160
C2421	C242	0.883070	0.104930	0.031470
N2431	N243	0.845770	0.117930	0.494920
C2441	C244	0.824470	0.100830	0.408670
H2451	H245	0.799870	0.111430	0.382820
C2461	C246	0.904070	0.127930	0.128720
N2471	N247	0.874970	0.051830	0.390970
O2481	O248	0.935070	0.056930	0.003720
C2491	C249	0.838970	0.066730	0.358170
H2501	H250	0.822970	0.053830	0.298120
C2511	C251	0.899370	0.071930	0.478720
O2521	O252	0.936270	0.115830	0.172120
O2531	O253	0.884970	0.157130	0.165670
O2541	O254	0.908270	0.992330	0.193270
H2551	H255	0.883300	0.872860	0.330100
Dy2561	Dy256	0.658730	0.405780	0.308820
C2571	C257	0.549730	0.438270	0.198130
N2581	N258	0.512430	0.451270	0.161580
C2591	C259	0.491130	0.434170	0.075330
H2601	H260	0.466530	0.444770	0.049480
C2611	C261	0.570730	0.461270	0.295380
N2621	N262	0.541630	0.385170	0.057630
O2631	O263	0.601730	0.390270	0.170380
C2641	C264	0.505630	0.400070	0.024830
H2651	H265	0.489630	0.387170	0.464780
C2661	C266	0.566030	0.405270	0.145380
O2671	O267	0.602930	0.449170	0.338780
O2681	O268	0.551630	0.490470	0.332330
O2691	O269	0.574930	0.325670	0.359930
H2701	H270	0.549960	0.206190	0.496760
Cu2711	Cu271	0.833330	0.666670	0.083330
Cu2721	Cu272	0.500000	0.000000	0.250000
Cu2731	Cu273	0.333330	0.166670	0.083330
Cu2741	Cu274	0.000000	0.500000	0.250000
Cu2751	Cu275	0.833330	0.166670	0.083330
Cu2761	Cu276	0.500000	0.500000	0.250000
Cu2771	Cu277	0.166670	0.333330	0.416670
Cu2781	Cu278	0.666670	0.833330	0.416670
Cu2791	Cu279	0.166670	0.833330	0.416670
O2801	O280	0.666670	0.333330	0.416670
O2811	O281	0.000000	0.000000	0.250000
O2821	O282	0.333330	0.666670	0.083330
O2831	O283	0.666670	0.333330	0.077000
O2841	O284	0.333330	0.666670	0.243670
O2851	O285	0.000000	0.000000	0.410330
O2861	O286	0.333330	0.666670	0.423000
O2871	O287	0.000000	0.000000	0.089670
O2881	O288	0.666670	0.333330	0.256330
Dy2891	Dy289	0.739110	0.413710	0.524510
C2901	C290	0.771600	0.555200	0.635200
N2911	N291	0.784600	0.605500	0.671750
C2921	C292	0.767500	0.609700	0.758000
H2931	H293	0.778100	0.644900	0.783850
C2941	C294	0.794600	0.557200	0.537950
N2951	N295	0.718500	0.510200	0.775700
O2961	O296	0.723600	0.455200	0.662950
C2971	C297	0.733400	0.561100	0.808500
H2981	H298	0.720500	0.564200	0.868550
C2991	C299	0.738600	0.505900	0.687950
O3001	O300	0.782500	0.512900	0.994550
O3011	O301	0.823800	0.605500	0.501000
O3021	O302	0.659000	0.417400	0.973400
H3031	H303	0.539520	0.322890	0.836570
Dy3041	Dy304	0.405780	0.747040	0.691180
C3051	C305	0.438270	0.888530	0.801870
N3061	N306	0.451270	0.938830	0.838420
C3071	C307	0.434170	0.943030	0.924670
H3081	H308	0.444770	0.978230	0.950520
C3091	C309	0.461270	0.890530	0.704620
N3101	N310	0.385170	0.843530	0.942370
O3111	O311	0.390270	0.788530	0.829620
C3121	C312	0.400070	0.894430	0.975170
H3131	H313	0.387170	0.897530	0.535220
C3141	C314	0.405270	0.839230	0.854620
O3151	O315	0.449170	0.846230	0.661220
O3161	O316	0.490470	0.938830	0.667670
O3171	O317	0.325670	0.750730	0.640070
H3181	H318	0.206190	0.656230	0.503240
Dy3191	Dy319	0.072440	0.080380	0.857840
C3201	C320	0.104930	0.221870	0.968530
N3211	N321	0.117930	0.272170	0.505080
C3221	C322	0.100830	0.276370	0.591330
H3231	H323	0.111430	0.311570	0.617180
C3241	C324	0.127930	0.223870	0.871280
N3251	N325	0.051830	0.176870	0.609030
O3261	O326	0.056930	0.121870	0.996280
C3271	C327	0.066730	0.227770	0.641830
H3281	H328	0.053830	0.230870	0.701880
C3291	C329	0.071930	0.172570	0.521280
O3301	O330	0.115830	0.179570	0.827880
O3311	O331	0.157130	0.272170	0.834330
O3321	O332	0.992330	0.084070	0.806730
H3331	H333	0.872860	0.989560	0.669900
Dy3341	Dy334	0.586290	0.325400	0.524510
C3351	C335	0.444800	0.216400	0.635200
N3361	N336	0.394500	0.179100	0.671750
C3371	C337	0.390300	0.157800	0.758000
H3381	H338	0.355100	0.133200	0.783850
C3391	C339	0.442800	0.237400	0.537950
N3401	N340	0.489800	0.208300	0.775700
O3411	O341	0.544800	0.268400	0.662950
C3421	C342	0.438900	0.172300	0.808500
H3431	H343	0.435800	0.156300	0.868550
C3441	C344	0.494100	0.232700	0.687950
O3451	O345	0.487100	0.269600	0.994550
O3461	O346	0.394500	0.218300	0.501000
O3471	O347	0.582600	0.241600	0.973400
H3481	H348	0.677110	0.216630	0.836570
Dy3491	Dy349	0.252960	0.658730	0.691180
C3501	C350	0.111470	0.549730	0.801870
N3511	N351	0.061170	0.512430	0.838420
C3521	C352	0.056970	0.491130	0.924670
H3531	H353	0.021770	0.466530	0.950520
C3541	C354	0.109470	0.570730	0.704620
N3551	N355	0.156470	0.541630	0.942370
O3561	O356	0.211470	0.601730	0.829620
C3571	C357	0.105570	0.505630	0.975170
H3581	H358	0.102470	0.489630	0.535220
C3591	C359	0.160770	0.566030	0.854620
O3601	O360	0.153770	0.602930	0.661220
O3611	O361	0.061170	0.551630	0.667670
O3621	O362	0.249270	0.574930	0.640070
H3631	H363	0.343770	0.549960	0.503240
Dy3641	Dy364	0.919620	0.992070	0.857840
C3651	C365	0.778130	0.883070	0.968530
N3661	N366	0.727830	0.845770	0.505080
C3671	C367	0.723630	0.824470	0.591330
H3681	H368	0.688430	0.799870	0.617180
C3691	C369	0.776130	0.904070	0.871280
N3701	N370	0.823130	0.874970	0.609030
O3711	O371	0.878130	0.935070	0.996280
C3721	C372	0.772230	0.838970	0.641830
H3731	H373	0.769130	0.822970	0.701880
C3741	C374	0.827430	0.899370	0.521280
O3751	O375	0.820430	0.936270	0.827880
O3761	O376	0.727830	0.884970	0.834330
O3771	O377	0.915930	0.908270	0.806730
H3781	H378	0.010440	0.883300	0.669900
Dy3791	Dy379	0.674600	0.260890	0.524510
C3801	C380	0.783600	0.228400	0.635200
N3811	N381	0.820900	0.215400	0.671750
C3821	C382	0.842200	0.232500	0.758000
H3831	H383	0.866800	0.221900	0.783850
C3841	C384	0.762600	0.205400	0.537950
N3851	N385	0.791700	0.281500	0.775700
O3861	O386	0.731600	0.276400	0.662950
C3871	C387	0.827700	0.266600	0.808500
H3881	H388	0.843700	0.279500	0.868550
C3891	C389	0.767300	0.261400	0.687950
O3901	O390	0.730400	0.217500	0.994550
O3911	O391	0.781700	0.176200	0.501000
O3921	O392	0.758400	0.341000	0.973400
H3931	H393	0.783370	0.460480	0.836570
Dy3941	Dy394	0.341270	0.594220	0.691180
C3951	C395	0.450270	0.561730	0.801870
N3961	N396	0.487570	0.548730	0.838420
C3971	C397	0.508870	0.565830	0.924670
H3981	H398	0.533470	0.555230	0.950520
C3991	C399	0.429270	0.538730	0.704620
N4001	N400	0.458370	0.614830	0.942370
O4011	O401	0.398270	0.609730	0.829620
C4021	C402	0.494370	0.599930	0.975170
H4031	H403	0.510370	0.612830	0.535220
C4041	C404	0.433970	0.594730	0.854620
O4051	O405	0.397070	0.550830	0.661220
O4061	O406	0.448370	0.509530	0.667670
O4071	O407	0.425070	0.674330	0.640070
H4081	H408	0.450040	0.793810	0.503240
Dy4091	Dy409	0.007930	0.927560	0.857840
C4101	C410	0.116930	0.895070	0.968530
N4111	N411	0.154230	0.882070	0.505080
C4121	C412	0.175530	0.899170	0.591330
H4131	H413	0.200130	0.888570	0.617180
C4141	C414	0.095930	0.872070	0.871280
N4151	N415	0.125030	0.948170	0.609030
O4161	O416	0.064930	0.943070	0.996280
C4171	C417	0.161030	0.933270	0.641830
H4181	H418	0.177030	0.946170	0.701880
C4191	C419	0.100630	0.928070	0.521280
O4201	O420	0.063730	0.884170	0.827880
O4211	O421	0.115030	0.842870	0.834330
O4221	O422	0.091730	0.007670	0.806730
H4231	H423	0.116700	0.127140	0.669900
Dy4241	Dy424	0.260890	0.586290	0.975490
C4251	C425	0.228400	0.444800	0.864800
N4261	N426	0.215400	0.394500	0.828250
C4271	C427	0.232500	0.390300	0.742000
H4281	H428	0.221900	0.355100	0.716150
C4291	C429	0.205400	0.442800	0.962050
N4301	N430	0.281500	0.489800	0.724300
O4311	O431	0.276400	0.544800	0.837050
C4321	C432	0.266600	0.438900	0.691500
H4331	H433	0.279500	0.435800	0.631450
C4341	C434	0.261400	0.494100	0.812050
O4351	O435	0.217500	0.487100	0.505450
O4361	O436	0.176200	0.394500	0.999000
O4371	O437	0.341000	0.582600	0.526600
H4381	H438	0.460480	0.677110	0.663430
Dy4391	Dy439	0.927560	0.919620	0.642160
C4401	C440	0.895070	0.778130	0.531470
N4411	N441	0.882070	0.727830	0.994920
C4421	C442	0.899170	0.723630	0.908670
H4431	H443	0.888570	0.688430	0.882820
C4441	C444	0.872070	0.776130	0.628720
N4451	N445	0.948170	0.823130	0.890970
O4461	O446	0.943070	0.878130	0.503720
C4471	C447	0.933270	0.772230	0.858170
H4481	H448	0.946170	0.769130	0.798120
C4491	C449	0.928070	0.827430	0.978720
O4501	O450	0.884170	0.820430	0.672120
O4511	O451	0.842870	0.727830	0.665670
O4521	O452	0.007670	0.915930	0.693270
H4531	H453	0.127140	0.010440	0.830100
Dy4541	Dy454	0.594220	0.252960	0.808820
C4551	C455	0.561730	0.111470	0.698130
N4561	N456	0.548730	0.061170	0.661580
C4571	C457	0.565830	0.056970	0.575330
H4581	H458	0.555230	0.021770	0.549480
C4591	C459	0.538730	0.109470	0.795380
N4601	N460	0.614830	0.156470	0.557630
O4611	O461	0.609730	0.211470	0.670380
C4621	C462	0.599930	0.105570	0.524830
H4631	H463	0.612830	0.102470	0.964780
C4641	C464	0.594730	0.160770	0.645380
O4651	O465	0.550830	0.153770	0.838780
O4661	O466	0.509530	0.061170	0.832330
O4671	O467	0.674330	0.249270	0.859930
H4681	H468	0.793810	0.343770	0.996760
Dy4691	Dy469	0.413710	0.674600	0.975490
C4701	C470	0.555200	0.783600	0.864800
N4711	N471	0.605500	0.820900	0.828250
C4721	C472	0.609700	0.842200	0.742000
H4731	H473	0.644900	0.866800	0.716150
C4741	C474	0.557200	0.762600	0.962050
N4751	N475	0.510200	0.791700	0.724300
O4761	O476	0.455200	0.731600	0.837050
C4771	C477	0.561100	0.827700	0.691500
H4781	H478	0.564200	0.843700	0.631450
C4791	C479	0.505900	0.767300	0.812050
O4801	O480	0.512900	0.730400	0.505450
O4811	O481	0.605500	0.781700	0.999000
O4821	O482	0.417400	0.758400	0.526600
H4831	H483	0.322890	0.783370	0.663430
Dy4841	Dy484	0.080380	0.007930	0.642160
C4851	C485	0.221870	0.116930	0.531470
N4861	N486	0.272170	0.154230	0.994920
C4871	C487	0.276370	0.175530	0.908670
H4881	H488	0.311570	0.200130	0.882820
C4891	C489	0.223870	0.095930	0.628720
N4901	N490	0.176870	0.125030	0.890970
O4911	O491	0.121870	0.064930	0.503720
C4921	C492	0.227770	0.161030	0.858170
H4931	H493	0.230870	0.177030	0.798120
C4941	C494	0.172570	0.100630	0.978720
O4951	O495	0.179570	0.063730	0.672120
O4961	O496	0.272170	0.115030	0.665670
O4971	O497	0.084070	0.091730	0.693270
H4981	H498	0.989560	0.116700	0.830100
Dy4991	Dy499	0.747040	0.341270	0.808820
C5001	C500	0.888530	0.450270	0.698130
N5011	N501	0.938830	0.487570	0.661580
C5021	C502	0.943030	0.508870	0.575330
H5031	H503	0.978230	0.533470	0.549480
C5041	C504	0.890530	0.429270	0.795380
N5051	N505	0.843530	0.458370	0.557630
O5061	O506	0.788530	0.398270	0.670380
C5071	C507	0.894430	0.494370	0.524830
H5081	H508	0.897530	0.510370	0.964780
C5091	C509	0.839230	0.433970	0.645380
O5101	O510	0.846230	0.397070	0.838780
O5111	O511	0.938830	0.448370	0.832330
O5121	O512	0.750730	0.425070	0.859930
H5131	H513	0.656230	0.450040	0.996760
Dy5141	Dy514	0.325400	0.739110	0.975490
C5151	C515	0.216400	0.771600	0.864800
N5161	N516	0.179100	0.784600	0.828250
C5171	C517	0.157800	0.767500	0.742000
H5181	H518	0.133200	0.778100	0.716150
C5191	C519	0.237400	0.794600	0.962050
N5201	N520	0.208300	0.718500	0.724300
O5211	O521	0.268400	0.723600	0.837050
C5221	C522	0.172300	0.733400	0.691500
H5231	H523	0.156300	0.720500	0.631450
C5241	C524	0.232700	0.738600	0.812050
O5251	O525	0.269600	0.782500	0.505450
O5261	O526	0.218300	0.823800	0.999000
O5271	O527	0.241600	0.659000	0.526600
H5281	H528	0.216630	0.539520	0.663430
Dy5291	Dy529	0.992070	0.072440	0.642160
C5301	C530	0.883070	0.104930	0.531470
N5311	N531	0.845770	0.117930	0.994920
C5321	C532	0.824470	0.100830	0.908670
H5331	H533	0.799870	0.111430	0.882820
C5341	C534	0.904070	0.127930	0.628720
N5351	N535	0.874970	0.051830	0.890970
O5361	O536	0.935070	0.056930	0.503720
C5371	C537	0.838970	0.066730	0.858170
H5381	H538	0.822970	0.053830	0.798120
C5391	C539	0.899370	0.071930	0.978720
O5401	O540	0.936270	0.115830	0.672120
O5411	O541	0.884970	0.157130	0.665670
O5421	O542	0.908270	0.992330	0.693270
H5431	H543	0.883300	0.872860	0.830100
Dy5441	Dy544	0.658730	0.405780	0.808820
C5451	C545	0.549730	0.438270	0.698130
N5461	N546	0.512430	0.451270	0.661580
C5471	C547	0.491130	0.434170	0.575330
H5481	H548	0.466530	0.444770	0.549480
C5491	C549	0.570730	0.461270	0.795380
N5501	N550	0.541630	0.385170	0.557630
O5511	O551	0.601730	0.390270	0.670380
C5521	C552	0.505630	0.400070	0.524830
H5531	H553	0.489630	0.387170	0.964780
C5541	C554	0.566030	0.405270	0.645380
O5551	O555	0.602930	0.449170	0.838780
O5561	O556	0.551630	0.490470	0.832330
O5571	O557	0.574930	0.325670	0.859930
H5581	H558	0.549960	0.206190	0.996760
Cu5591	Cu559	0.833330	0.666670	0.583330
Cu5601	Cu560	0.500000	0.000000	0.750000
Cu5611	Cu561	0.333330	0.166670	0.583330
Cu5621	Cu562	0.000000	0.500000	0.750000
Cu5631	Cu563	0.833330	0.166670	0.583330
Cu5641	Cu564	0.500000	0.500000	0.750000
Cu5651	Cu565	0.166670	0.333330	0.916670
Cu5661	Cu566	0.666670	0.833330	0.916670
Cu5671	Cu567	0.166670	0.833330	0.916670
O5681	O568	0.666670	0.333330	0.916670
O5691	O569	0.000000	0.000000	0.750000
O5701	O570	0.333330	0.666670	0.583330
O5711	O571	0.666670	0.333330	0.577000
O5721	O572	0.333330	0.666670	0.743670
O5731	O573	0.000000	0.000000	0.910330
O5741	O574	0.333330	0.666670	0.923000
O5751	O575	0.000000	0.000000	0.589670
O5761	O576	0.666670	0.333330	0.756330
