data_FEYQIK_clean_PM
_symmetry_space_group_name_H-M	'P1'
_cell_length_a	8.655000
_cell_length_b	9.936600
_cell_length_c	11.717000
_cell_angle_alpha	74.710000
_cell_angle_beta	69.795000
_cell_angle_gamma	85.959000
_symmetry_Int_Tables_number 1

loop_
_symmetry_equiv_pos_as_xyz
'x,y,z'

loop_
_atom_site_label
_atom_site_type_symbol
_atom_site_fract_x
_atom_site_fract_y
_atom_site_fract_z
Pr11	Pr1	0.745550	0.977610	0.011920
Pr21	Pr2	0.254450	0.022390	0.988080
H11	H1	0.265600	0.975400	0.672100
H21	H2	0.245800	0.813500	0.725400
H31	H3	0.095100	0.798400	0.602800
H41	H4	0.085700	0.961400	0.560400
H51	H5	0.374200	0.972900	0.457100
H61	H6	0.376200	0.809600	0.493400
H71	H7	0.204500	0.959500	0.336500
H81	H8	0.233800	0.798700	0.362400
H91	H9	0.754900	0.483300	0.218300
H101	H10	0.720900	0.469600	0.098800
H111	H11	0.034900	0.522500	0.102700
H121	H12	0.976700	0.378200	0.099400
H131	H13	0.734400	0.024600	0.327900
H141	H14	0.754200	0.186500	0.274600
H151	H15	0.904900	0.201600	0.397200
H161	H16	0.914300	0.038600	0.439600
H171	H17	0.625800	0.027100	0.542900
H181	H18	0.623800	0.190400	0.506600
H191	H19	0.795500	0.040500	0.663500
H201	H20	0.766200	0.201300	0.637600
H211	H21	0.245100	0.516700	0.781700
H221	H22	0.279100	0.530400	0.901200
H231	H23	0.965100	0.477500	0.897300
H241	H24	0.023300	0.621800	0.900600
C11	C1	0.044600	0.915600	0.806800
C21	C2	0.189900	0.897000	0.697200
C31	C3	0.155000	0.885300	0.582900
C41	C4	0.310900	0.889400	0.472000
C51	C5	0.282900	0.888200	0.351200
C61	C6	0.564400	0.087300	0.763300
C71	C7	0.762200	0.671500	0.092800
C81	C8	0.789400	0.516600	0.127400
C91	C9	0.967200	0.478400	0.071300
C101	C10	0.955400	0.084400	0.193200
C111	C11	0.810100	0.103000	0.302800
C121	C12	0.845000	0.114700	0.417100
C131	C13	0.689100	0.110600	0.528000
C141	C14	0.717100	0.111800	0.648800
C151	C15	0.435600	0.912700	0.236700
C161	C16	0.237800	0.328500	0.907200
C171	C17	0.210600	0.483400	0.872600
C181	C18	0.032800	0.521600	0.928700
O11	O1	0.577700	0.044800	0.872120
O21	O2	0.575100	0.892700	0.246800
O31	O3	0.862500	0.753000	0.098300
O41	O4	0.641600	0.718600	0.059100
O51	O5	0.900600	0.883600	0.818800
O61	O6	0.068100	0.964700	0.889080
O71	O7	0.422300	0.955200	0.127880
O81	O8	0.424900	0.107300	0.753200
O91	O9	0.137500	0.247000	0.901700
O101	O10	0.358400	0.281400	0.940900
O111	O11	0.099400	0.116400	0.181200
O121	O12	0.931900	0.035300	0.110920
