data_FEZCUJ_charged_PM
_symmetry_space_group_name_H-M	'P1'
_cell_length_a	15.080500
_cell_length_b	15.682300
_cell_length_c	27.302400
_cell_angle_alpha	90.000000
_cell_angle_beta	101.670000
_cell_angle_gamma	90.000000
_symmetry_Int_Tables_number 1

loop_
_symmetry_equiv_pos_as_xyz
'x,y,z'

loop_
_atom_site_label
_atom_site_type_symbol
_atom_site_fract_x
_atom_site_fract_y
_atom_site_fract_z
Er11	Er1	0.780080	0.616270	0.371150
H11	H1	0.920800	0.575200	0.288800
H21	H2	0.142500	0.610000	0.278700
H31	H3	0.083900	0.527600	0.286200
H41	H4	0.049000	0.591400	0.240600
H51	H5	0.728100	0.609900	0.234400
H61	H6	0.584700	0.735900	0.146300
H71	H7	0.686700	0.702100	0.153600
H81	H8	0.605400	0.635900	0.152200
H91	H9	0.545700	0.794500	0.207000
H101	H10	0.541800	0.735200	0.254200
H111	H11	0.620900	0.804200	0.257200
H121	H12	0.862900	0.804000	0.330500
H131	H13	0.690700	0.978800	0.353500
H141	H14	0.656700	0.881900	0.351200
H151	H15	0.726800	0.915800	0.399300
H161	H16	0.785500	0.011600	0.308900
H171	H17	0.883200	0.968000	0.323300
H181	H18	0.812100	0.936400	0.275000
H191	H19	0.549700	0.631200	0.323300
H201	H20	0.438500	0.769200	0.415100
H211	H21	0.514100	0.702600	0.440800
H221	H22	0.543100	0.787600	0.415700
H231	H23	0.358700	0.734800	0.348600
H241	H24	0.406000	0.728500	0.301200
H251	H25	0.377100	0.643500	0.326400
H261	H26	0.811000	0.772300	0.463200
H271	H27	0.675100	0.689500	0.562800
H281	H28	0.648300	0.648000	0.508300
H291	H29	0.740800	0.621300	0.545000
H301	H30	0.716100	0.815700	0.566600
H311	H31	0.811700	0.835400	0.552100
H321	H32	0.719800	0.862500	0.514900
H331	H33	0.675000	0.512900	0.455000
H341	H34	0.519600	0.337800	0.377000
H351	H35	0.554800	0.411400	0.345100
H361	H36	0.623300	0.339400	0.371500
H371	H37	0.493800	0.371900	0.445900
H381	H38	0.579800	0.396000	0.488300
H391	H39	0.511500	0.469000	0.463100
H401	H40	0.864200	0.433100	0.427500
H411	H41	0.130000	0.440300	0.453600
H421	H42	0.079300	0.498900	0.408600
H431	H43	0.081700	0.526700	0.465200
H441	H44	0.070100	0.328200	0.463300
H451	H45	0.977700	0.331200	0.483600
H461	H46	0.975800	0.307600	0.426400
H471	H47	0.707800	0.431200	0.300500
H481	H48	0.802200	0.263800	0.246100
H491	H49	0.732200	0.273000	0.282700
H501	H50	0.713800	0.321800	0.230100
H511	H51	0.924700	0.331400	0.264200
H521	H52	0.915300	0.432900	0.260500
H531	H53	0.941600	0.387800	0.314100
C11	C1	0.950100	0.619800	0.309500
C21	C2	0.085100	0.692000	0.341700
C31	C3	0.081000	0.587400	0.275600
C41	C4	0.692700	0.650300	0.247890
C51	C5	0.627900	0.693000	0.162820
C61	C6	0.582000	0.763800	0.235360
C71	C7	0.815100	0.818900	0.346830
C81	C8	0.708300	0.919900	0.362900
C91	C9	0.819000	0.958000	0.309300
C101	C10	0.558400	0.659400	0.354700
C111	C11	0.496700	0.743100	0.413200
C121	C12	0.400500	0.701600	0.332850
C131	C13	0.783900	0.724500	0.475780
C141	C14	0.698600	0.668300	0.534190
C151	C15	0.748500	0.819400	0.538970
C161	C16	0.661300	0.481200	0.424800
C171	C17	0.571000	0.374700	0.374600
C181	C18	0.540400	0.415100	0.457200
C191	C19	0.916200	0.467600	0.428460
C201	C20	0.078200	0.478100	0.442300
C211	C21	0.005500	0.342500	0.454800
C221	C22	0.770500	0.437300	0.300820
C231	C23	0.760600	0.302700	0.258300
C241	C24	0.905700	0.382500	0.280000
N11	N1	0.032500	0.637000	0.307090
N21	N2	0.638100	0.700600	0.216970
N31	N3	0.783100	0.895100	0.340000
N41	N4	0.488800	0.698600	0.366020
N51	N5	0.745600	0.736800	0.514090
N61	N6	0.593800	0.427300	0.419240
N71	N7	0.995100	0.431800	0.441520
N81	N8	0.810300	0.375700	0.281810
O11	O1	0.905070	0.657820	0.337220
O21	O2	0.700100	0.653400	0.293650
O31	O3	0.789000	0.763850	0.372750
O41	O4	0.634720	0.656300	0.381580
O51	O5	0.787370	0.654140	0.454420
O61	O6	0.708740	0.493740	0.393220
O71	O7	0.904250	0.543850	0.417190
O81	O8	0.808200	0.503530	0.319310
Er21	Er2	0.219920	0.116270	0.128850
H541	H54	0.079200	0.075200	0.211200
H551	H55	0.857500	0.110000	0.221300
H561	H56	0.916100	0.027600	0.213800
H571	H57	0.951000	0.091400	0.259400
H581	H58	0.271900	0.109900	0.265600
H591	H59	0.415300	0.235900	0.353700
H601	H60	0.313300	0.202100	0.346400
H611	H61	0.394600	0.135900	0.347800
H621	H62	0.454300	0.294500	0.293000
H631	H63	0.458200	0.235200	0.245800
H641	H64	0.379100	0.304200	0.242800
H651	H65	0.137100	0.304000	0.169500
H661	H66	0.309300	0.478800	0.146500
H671	H67	0.343300	0.381900	0.148800
H681	H68	0.273200	0.415800	0.100700
H691	H69	0.214500	0.511600	0.191100
H701	H70	0.116800	0.468000	0.176700
H711	H71	0.187900	0.436400	0.225000
H721	H72	0.450300	0.131200	0.176700
H731	H73	0.561500	0.269200	0.084900
H741	H74	0.485900	0.202600	0.059200
H751	H75	0.456900	0.287600	0.084300
H761	H76	0.641300	0.234800	0.151400
H771	H77	0.594000	0.228500	0.198800
H781	H78	0.622900	0.143500	0.173600
H791	H79	0.189000	0.272300	0.036800
H801	H80	0.324900	0.189500	0.937200
H811	H81	0.351700	0.148000	0.991700
H821	H82	0.259200	0.121300	0.955000
H831	H83	0.283900	0.315700	0.933400
H841	H84	0.188300	0.335400	0.947900
H851	H85	0.280200	0.362500	0.985100
H861	H86	0.325000	0.012900	0.045000
H871	H87	0.480400	0.837800	0.123000
H881	H88	0.445200	0.911400	0.154900
H891	H89	0.376700	0.839400	0.128500
H901	H90	0.506200	0.871900	0.054100
H911	H91	0.420200	0.896000	0.011700
H921	H92	0.488500	0.969000	0.036900
H931	H93	0.135800	0.933100	0.072500
H941	H94	0.870000	0.940300	0.046400
H951	H95	0.920700	0.998900	0.091400
H961	H96	0.918300	0.026700	0.034800
H971	H97	0.929900	0.828200	0.036700
H981	H98	0.022300	0.831200	0.016400
H991	H99	0.024200	0.807600	0.073600
H1001	H100	0.292200	0.931200	0.199500
H1011	H101	0.197800	0.763800	0.253900
H1021	H102	0.267800	0.773000	0.217300
H1031	H103	0.286200	0.821800	0.269900
H1041	H104	0.075300	0.831400	0.235800
H1051	H105	0.084700	0.932900	0.239500
H1061	H106	0.058400	0.887800	0.185900
C251	C25	0.049900	0.119800	0.190500
C261	C26	0.914900	0.192000	0.158300
C271	C27	0.919000	0.087400	0.224400
C281	C28	0.307300	0.150300	0.252110
C291	C29	0.372100	0.193000	0.337180
C301	C30	0.418000	0.263800	0.264640
C311	C31	0.184900	0.318900	0.153170
C321	C32	0.291700	0.419900	0.137100
C331	C33	0.181000	0.458000	0.190700
C341	C34	0.441600	0.159400	0.145300
C351	C35	0.503300	0.243100	0.086800
C361	C36	0.599500	0.201600	0.167150
C371	C37	0.216100	0.224500	0.024220
C381	C38	0.301400	0.168300	0.965810
C391	C39	0.251500	0.319400	0.961030
C401	C40	0.338700	0.981200	0.075200
C411	C41	0.429000	0.874700	0.125400
C421	C42	0.459600	0.915100	0.042800
C431	C43	0.083800	0.967600	0.071540
C441	C44	0.921800	0.978100	0.057700
C451	C45	0.994500	0.842500	0.045200
C461	C46	0.229500	0.937300	0.199180
C471	C47	0.239400	0.802700	0.241700
C481	C48	0.094300	0.882500	0.220000
N91	N9	0.967500	0.137000	0.192910
N101	N10	0.361900	0.200600	0.283030
N111	N11	0.216900	0.395100	0.160000
N121	N12	0.511200	0.198600	0.133980
N131	N13	0.254400	0.236800	0.985910
N141	N14	0.406200	0.927300	0.080760
N151	N15	0.004900	0.931800	0.058480
N161	N16	0.189700	0.875700	0.218190
O91	O9	0.094930	0.157820	0.162780
O101	O10	0.299900	0.153400	0.206350
O111	O11	0.211000	0.263850	0.127250
O121	O12	0.365280	0.156300	0.118420
O131	O13	0.212630	0.154140	0.045580
O141	O14	0.291260	0.993740	0.106780
O151	O15	0.095750	0.043850	0.082810
O161	O16	0.191800	0.003530	0.180690
Er31	Er3	0.219920	0.383730	0.628850
H1071	H107	0.079200	0.424800	0.711200
H1081	H108	0.857500	0.390000	0.721300
H1091	H109	0.916100	0.472400	0.713800
H1101	H110	0.951000	0.408600	0.759400
H1111	H111	0.271900	0.390100	0.765600
H1121	H112	0.415300	0.264100	0.853700
H1131	H113	0.313300	0.297900	0.846400
H1141	H114	0.394600	0.364100	0.847800
H1151	H115	0.454300	0.205500	0.793000
H1161	H116	0.458200	0.264800	0.745800
H1171	H117	0.379100	0.195800	0.742800
H1181	H118	0.137100	0.196000	0.669500
H1191	H119	0.309300	0.021200	0.646500
H1201	H120	0.343300	0.118100	0.648800
H1211	H121	0.273200	0.084200	0.600700
H1221	H122	0.214500	0.988400	0.691100
H1231	H123	0.116800	0.032000	0.676700
H1241	H124	0.187900	0.063600	0.725000
H1251	H125	0.450300	0.368800	0.676700
H1261	H126	0.561500	0.230800	0.584900
H1271	H127	0.485900	0.297400	0.559200
H1281	H128	0.456900	0.212400	0.584300
H1291	H129	0.641300	0.265200	0.651400
H1301	H130	0.594000	0.271500	0.698800
H1311	H131	0.622900	0.356500	0.673600
H1321	H132	0.189000	0.227700	0.536800
H1331	H133	0.324900	0.310500	0.437200
H1341	H134	0.351700	0.352000	0.491700
H1351	H135	0.259200	0.378700	0.455000
H1361	H136	0.283900	0.184300	0.433400
H1371	H137	0.188300	0.164600	0.447900
H1381	H138	0.280200	0.137500	0.485100
H1391	H139	0.325000	0.487100	0.545000
H1401	H140	0.480400	0.662200	0.623000
H1411	H141	0.445200	0.588600	0.654900
H1421	H142	0.376700	0.660600	0.628500
H1431	H143	0.506200	0.628100	0.554100
H1441	H144	0.420200	0.604000	0.511700
H1451	H145	0.488500	0.531000	0.536900
H1461	H146	0.135800	0.566900	0.572500
H1471	H147	0.870000	0.559700	0.546400
H1481	H148	0.920700	0.501100	0.591400
H1491	H149	0.918300	0.473300	0.534800
H1501	H150	0.929900	0.671800	0.536700
H1511	H151	0.022300	0.668800	0.516400
H1521	H152	0.024200	0.692400	0.573600
H1531	H153	0.292200	0.568800	0.699500
H1541	H154	0.197800	0.736200	0.753900
H1551	H155	0.267800	0.727000	0.717300
H1561	H156	0.286200	0.678200	0.769900
H1571	H157	0.075300	0.668600	0.735800
H1581	H158	0.084700	0.567100	0.739500
H1591	H159	0.058400	0.612200	0.685900
C491	C49	0.049900	0.380200	0.690500
C501	C50	0.914900	0.308000	0.658300
C511	C51	0.919000	0.412600	0.724400
C521	C52	0.307300	0.349700	0.752110
C531	C53	0.372100	0.307000	0.837180
C541	C54	0.418000	0.236200	0.764640
C551	C55	0.184900	0.181100	0.653170
C561	C56	0.291700	0.080100	0.637100
C571	C57	0.181000	0.042000	0.690700
C581	C58	0.441600	0.340600	0.645300
C591	C59	0.503300	0.256900	0.586800
C601	C60	0.599500	0.298400	0.667150
C611	C61	0.216100	0.275500	0.524220
C621	C62	0.301400	0.331700	0.465810
C631	C63	0.251500	0.180600	0.461030
C641	C64	0.338700	0.518800	0.575200
C651	C65	0.429000	0.625300	0.625400
C661	C66	0.459600	0.584900	0.542800
C671	C67	0.083800	0.532400	0.571540
C681	C68	0.921800	0.521900	0.557700
C691	C69	0.994500	0.657500	0.545200
C701	C70	0.229500	0.562700	0.699180
C711	C71	0.239400	0.697300	0.741700
C721	C72	0.094300	0.617500	0.720000
N171	N17	0.967500	0.363000	0.692910
N181	N18	0.361900	0.299400	0.783030
N191	N19	0.216900	0.104900	0.660000
N201	N20	0.511200	0.301400	0.633980
N211	N21	0.254400	0.263200	0.485910
N221	N22	0.406200	0.572700	0.580760
N231	N23	0.004900	0.568200	0.558480
N241	N24	0.189700	0.624300	0.718190
O171	O17	0.094930	0.342180	0.662780
O181	O18	0.299900	0.346600	0.706350
O191	O19	0.211000	0.236150	0.627250
O201	O20	0.365280	0.343700	0.618420
O211	O21	0.212630	0.345860	0.545580
O221	O22	0.291260	0.506260	0.606780
O231	O23	0.095750	0.456150	0.582810
O241	O24	0.191800	0.496470	0.680690
Er41	Er4	0.780080	0.883730	0.871150
H1601	H160	0.920800	0.924800	0.788800
H1611	H161	0.142500	0.890000	0.778700
H1621	H162	0.083900	0.972400	0.786200
H1631	H163	0.049000	0.908600	0.740600
H1641	H164	0.728100	0.890100	0.734400
H1651	H165	0.584700	0.764100	0.646300
H1661	H166	0.686700	0.797900	0.653600
H1671	H167	0.605400	0.864100	0.652200
H1681	H168	0.545700	0.705500	0.707000
H1691	H169	0.541800	0.764800	0.754200
H1701	H170	0.620900	0.695800	0.757200
H1711	H171	0.862900	0.696000	0.830500
H1721	H172	0.690700	0.521200	0.853500
H1731	H173	0.656700	0.618100	0.851200
H1741	H174	0.726800	0.584200	0.899300
H1751	H175	0.785500	0.488400	0.808900
H1761	H176	0.883200	0.532000	0.823300
H1771	H177	0.812100	0.563600	0.775000
H1781	H178	0.549700	0.868800	0.823300
H1791	H179	0.438500	0.730800	0.915100
H1801	H180	0.514100	0.797400	0.940800
H1811	H181	0.543100	0.712400	0.915700
H1821	H182	0.358700	0.765200	0.848600
H1831	H183	0.406000	0.771500	0.801200
H1841	H184	0.377100	0.856500	0.826400
H1851	H185	0.811000	0.727700	0.963200
H1861	H186	0.675100	0.810500	0.062800
H1871	H187	0.648300	0.852000	0.008300
H1881	H188	0.740800	0.878700	0.045000
H1891	H189	0.716100	0.684300	0.066600
H1901	H190	0.811700	0.664600	0.052100
H1911	H191	0.719800	0.637500	0.014900
H1921	H192	0.675000	0.987100	0.955000
H1931	H193	0.519600	0.162200	0.877000
H1941	H194	0.554800	0.088600	0.845100
H1951	H195	0.623300	0.160600	0.871500
H1961	H196	0.493800	0.128100	0.945900
H1971	H197	0.579800	0.104000	0.988300
H1981	H198	0.511500	0.031000	0.963100
H1991	H199	0.864200	0.066900	0.927500
H2001	H200	0.130000	0.059700	0.953600
H2011	H201	0.079300	0.001100	0.908600
H2021	H202	0.081700	0.973300	0.965200
H2031	H203	0.070100	0.171800	0.963300
H2041	H204	0.977700	0.168800	0.983600
H2051	H205	0.975800	0.192400	0.926400
H2061	H206	0.707800	0.068800	0.800500
H2071	H207	0.802200	0.236200	0.746100
H2081	H208	0.732200	0.227000	0.782700
H2091	H209	0.713800	0.178200	0.730100
H2101	H210	0.924700	0.168600	0.764200
H2111	H211	0.915300	0.067100	0.760500
H2121	H212	0.941600	0.112200	0.814100
C731	C73	0.950100	0.880200	0.809500
C741	C74	0.085100	0.808000	0.841700
C751	C75	0.081000	0.912600	0.775600
C761	C76	0.692700	0.849700	0.747890
C771	C77	0.627900	0.807000	0.662820
C781	C78	0.582000	0.736200	0.735360
C791	C79	0.815100	0.681100	0.846830
C801	C80	0.708300	0.580100	0.862900
C811	C81	0.819000	0.542000	0.809300
C821	C82	0.558400	0.840600	0.854700
C831	C83	0.496700	0.756900	0.913200
C841	C84	0.400500	0.798400	0.832850
C851	C85	0.783900	0.775500	0.975780
C861	C86	0.698600	0.831700	0.034190
C871	C87	0.748500	0.680600	0.038970
C881	C88	0.661300	0.018800	0.924800
C891	C89	0.571000	0.125300	0.874600
C901	C90	0.540400	0.084900	0.957200
C911	C91	0.916200	0.032400	0.928460
C921	C92	0.078200	0.021900	0.942300
C931	C93	0.005500	0.157500	0.954800
C941	C94	0.770500	0.062700	0.800820
C951	C95	0.760600	0.197300	0.758300
C961	C96	0.905700	0.117500	0.780000
N251	N25	0.032500	0.863000	0.807090
N261	N26	0.638100	0.799400	0.716970
N271	N27	0.783100	0.604900	0.840000
N281	N28	0.488800	0.801400	0.866020
N291	N29	0.745600	0.763200	0.014090
N301	N30	0.593800	0.072700	0.919240
N311	N31	0.995100	0.068200	0.941520
N321	N32	0.810300	0.124300	0.781810
O251	O25	0.905070	0.842180	0.837220
O261	O26	0.700100	0.846600	0.793650
O271	O27	0.789000	0.736150	0.872750
O281	O28	0.634720	0.843700	0.881580
O291	O29	0.787370	0.845860	0.954420
O301	O30	0.708740	0.006260	0.893220
O311	O31	0.904250	0.956150	0.917190
O321	O32	0.808200	0.996470	0.819310
Cu11	Cu1	0.232340	0.799900	0.621960
Cu21	Cu2	0.727270	0.556300	0.657260
Cu31	Cu3	0.926500	0.808740	0.665360
Cu41	Cu4	0.469800	0.976300	0.725610
Cu51	Cu5	0.731310	0.064740	0.653300
Cu61	Cu6	0.745030	0.317840	0.542500
Cu71	Cu7	0.767660	0.299900	0.878040
Cu81	Cu8	0.272730	0.056300	0.842740
Cu91	Cu9	0.073500	0.308740	0.834640
Cu101	Cu10	0.530200	0.476300	0.774390
Cu111	Cu11	0.268690	0.564740	0.846700
Cu121	Cu12	0.254970	0.817840	0.957500
Cu131	Cu13	0.767660	0.200100	0.378040
Cu141	Cu14	0.272730	0.443700	0.342740
Cu151	Cu15	0.073500	0.191260	0.334640
Cu161	Cu16	0.530200	0.023700	0.274390
Cu171	Cu17	0.268690	0.935260	0.346700
Cu181	Cu18	0.254970	0.682160	0.457500
Cu191	Cu19	0.232340	0.700100	0.121960
Cu201	Cu20	0.727270	0.943700	0.157260
Cu211	Cu21	0.926500	0.691260	0.165360
Cu221	Cu22	0.469800	0.523700	0.225610
Cu231	Cu23	0.731310	0.435260	0.153300
Cu241	Cu24	0.745030	0.182160	0.042500
C971	C97	0.042400	0.811900	0.648100
C981	C98	0.814100	0.644700	0.668450
C991	C99	0.336700	0.847700	0.662590
C1001	C100	0.640000	0.527300	0.695830
C1011	C101	0.240200	0.710900	0.522060
C1021	C102	0.862900	0.912100	0.672090
C1031	C103	0.727800	0.420700	0.575710
C1041	C104	0.568500	0.022200	0.701940
C1051	C105	0.739500	0.158200	0.610660
C1061	C106	0.957600	0.311900	0.851900
C1071	C107	0.185900	0.144700	0.831550
C1081	C108	0.663300	0.347700	0.837410
C1091	C109	0.360000	0.027300	0.804170
C1101	C110	0.759800	0.210900	0.977940
C1111	C111	0.137100	0.412100	0.827910
C1121	C112	0.272200	0.920700	0.924290
C1131	C113	0.431500	0.522200	0.798060
C1141	C114	0.260500	0.658200	0.889340
C1151	C115	0.957600	0.188100	0.351900
C1161	C116	0.185900	0.355300	0.331550
C1171	C117	0.663300	0.152300	0.337410
C1181	C118	0.360000	0.472700	0.304170
C1191	C119	0.759800	0.289100	0.477940
C1201	C120	0.137100	0.087900	0.327910
C1211	C121	0.272200	0.579300	0.424290
C1221	C122	0.431500	0.977800	0.298060
C1231	C123	0.260500	0.841800	0.389340
C1241	C124	0.042400	0.688100	0.148100
C1251	C125	0.814100	0.855300	0.168450
C1261	C126	0.336700	0.652300	0.162590
C1271	C127	0.640000	0.972700	0.195830
C1281	C128	0.240200	0.789100	0.022060
C1291	C129	0.862900	0.587900	0.172090
C1301	C130	0.727800	0.079300	0.075710
C1311	C131	0.568500	0.477800	0.201940
C1321	C132	0.739500	0.341800	0.110660
N331	N33	0.112500	0.812400	0.636960
N341	N34	0.862000	0.703300	0.671510
N351	N35	0.396400	0.883300	0.687470
N361	N36	0.591800	0.506700	0.721600
N371	N37	0.235000	0.737400	0.561340
N381	N38	0.818200	0.972600	0.668960
N391	N39	0.722500	0.478900	0.600600
N401	N40	0.628100	0.045900	0.685380
N411	N41	0.744600	0.216400	0.585290
N421	N42	0.887500	0.312400	0.863040
N431	N43	0.138000	0.203300	0.828490
N441	N44	0.603600	0.383300	0.812530
N451	N45	0.408200	0.006700	0.778400
N461	N46	0.765000	0.237400	0.938660
N471	N47	0.181800	0.472600	0.831040
N481	N48	0.277500	0.978900	0.899400
N491	N49	0.371900	0.545900	0.814620
N501	N50	0.255400	0.716400	0.914710
N511	N51	0.887500	0.187600	0.363040
N521	N52	0.138000	0.296700	0.328490
N531	N53	0.603600	0.116700	0.312530
N541	N54	0.408200	0.493300	0.278400
N551	N55	0.765000	0.262600	0.438660
N561	N56	0.181800	0.027400	0.331040
N571	N57	0.277500	0.521100	0.399400
N581	N58	0.371900	0.954100	0.314620
N591	N59	0.255400	0.783600	0.414710
N601	N60	0.112500	0.687600	0.136960
N611	N61	0.862000	0.796700	0.171510
N621	N62	0.396400	0.616700	0.187470
N631	N63	0.591800	0.993300	0.221600
N641	N64	0.235000	0.762600	0.061340
N651	N65	0.818200	0.527400	0.168960
N661	N66	0.722500	0.021100	0.100600
N671	N67	0.628100	0.454100	0.185380
N681	N68	0.744600	0.283600	0.085290
