data_FIDRIV_clean_PM
_symmetry_space_group_name_H-M	'P1'
_cell_length_a	14.127300
_cell_length_b	23.697200
_cell_length_c	23.697200
_cell_angle_alpha	90.000000
_cell_angle_beta	90.000000
_cell_angle_gamma	90.000000
_symmetry_Int_Tables_number 1

loop_
_symmetry_equiv_pos_as_xyz
'x,y,z'

loop_
_atom_site_label
_atom_site_type_symbol
_atom_site_fract_x
_atom_site_fract_y
_atom_site_fract_z
Na11	Na1	0.250000	0.918990	0.500000
Na21	Na2	0.750000	0.081010	0.500000
Na31	Na3	0.000000	0.500000	0.918990
Na41	Na4	0.500000	0.500000	0.081010
Dy11	Dy1	0.000000	0.000000	0.590120
Dy21	Dy2	0.500000	0.000000	0.409880
Dy31	Dy3	0.750000	0.409880	0.000000
Dy41	Dy4	0.250000	0.590120	0.000000
H11	H1	0.846100	0.959200	0.471300
H21	H2	0.777700	0.944000	0.307400
H31	H3	0.039700	0.904100	0.360000
H41	H4	0.060800	0.949500	0.265600
H51	H5	0.783600	0.854300	0.294500
H61	H6	0.738000	0.852100	0.234200
H71	H7	0.801800	0.802200	0.255100
H81	H8	0.098400	0.951700	0.086600
H91	H9	0.095400	0.005000	0.125800
H101	H10	0.191800	0.984800	0.100000
H111	H11	0.218300	0.860900	0.179500
H121	H12	0.178600	0.864700	0.117900
H131	H13	0.270000	0.898200	0.134500
H141	H14	0.213000	0.950600	0.240300
H151	H15	0.260200	0.983900	0.190500
H161	H16	0.163900	0.004700	0.216000
H171	H17	0.346100	0.040800	0.528700
H181	H18	0.277700	0.056000	0.692600
H191	H19	0.539700	0.095900	0.640000
H201	H20	0.560800	0.050500	0.734400
H211	H21	0.283600	0.145700	0.705500
H221	H22	0.238000	0.147900	0.765800
H231	H23	0.301800	0.197800	0.744900
H241	H24	0.598400	0.048300	0.913400
H251	H25	0.595400	0.995000	0.874200
H261	H26	0.691800	0.015200	0.900000
H271	H27	0.718300	0.139100	0.820500
H281	H28	0.678600	0.135300	0.882100
H291	H29	0.770000	0.101800	0.865500
H301	H30	0.713000	0.049400	0.759700
H311	H31	0.760200	0.016100	0.809500
H321	H32	0.663900	0.995300	0.784000
H331	H33	0.596100	0.528700	0.959200
H341	H34	0.527700	0.692600	0.944000
H351	H35	0.789700	0.640000	0.904100
H361	H36	0.810800	0.734400	0.949500
H371	H37	0.533600	0.705500	0.854300
H381	H38	0.488000	0.765800	0.852100
H391	H39	0.551800	0.744900	0.802200
H401	H40	0.848400	0.913400	0.951700
H411	H41	0.845400	0.874200	0.005000
H421	H42	0.941800	0.900000	0.984800
H431	H43	0.968300	0.820500	0.860900
H441	H44	0.928600	0.882100	0.864700
H451	H45	0.020000	0.865500	0.898200
H461	H46	0.963000	0.759700	0.950600
H471	H47	0.010200	0.809500	0.983900
H481	H48	0.913900	0.784000	0.004700
H491	H49	0.096100	0.471300	0.040800
H501	H50	0.027700	0.307400	0.056000
H511	H51	0.289700	0.360000	0.095900
H521	H52	0.310800	0.265600	0.050500
H531	H53	0.033600	0.294500	0.145700
H541	H54	0.988000	0.234200	0.147900
H551	H55	0.051800	0.255100	0.197800
H561	H56	0.348400	0.086600	0.048300
H571	H57	0.345400	0.125800	0.995000
H581	H58	0.441800	0.100000	0.015200
H591	H59	0.468300	0.179500	0.139100
H601	H60	0.428600	0.117900	0.135300
H611	H61	0.520000	0.134500	0.101800
H621	H62	0.463000	0.240300	0.049400
H631	H63	0.510200	0.190500	0.016100
H641	H64	0.413900	0.216000	0.995300
H651	H65	0.153900	0.040800	0.471300
H661	H66	0.222300	0.056000	0.307400
H671	H67	0.960300	0.095900	0.360000
H681	H68	0.939200	0.050500	0.265600
H691	H69	0.216400	0.145700	0.294500
H701	H70	0.262000	0.147900	0.234200
H711	H71	0.198200	0.197800	0.255100
H721	H72	0.901600	0.048300	0.086600
H731	H73	0.904600	0.995000	0.125800
H741	H74	0.808200	0.015200	0.100000
H751	H75	0.781700	0.139100	0.179500
H761	H76	0.821400	0.135300	0.117900
H771	H77	0.730000	0.101800	0.134500
H781	H78	0.787000	0.049400	0.240300
H791	H79	0.739800	0.016100	0.190500
H801	H80	0.836100	0.995300	0.216000
H811	H81	0.653900	0.959200	0.528700
H821	H82	0.722300	0.944000	0.692600
H831	H83	0.460300	0.904100	0.640000
H841	H84	0.439200	0.949500	0.734400
H851	H85	0.716400	0.854300	0.705500
H861	H86	0.762000	0.852100	0.765800
H871	H87	0.698200	0.802200	0.744900
H881	H88	0.401600	0.951700	0.913400
H891	H89	0.404600	0.005000	0.874200
H901	H90	0.308200	0.984800	0.900000
H911	H91	0.281700	0.860900	0.820500
H921	H92	0.321400	0.864700	0.882100
H931	H93	0.230000	0.898200	0.865500
H941	H94	0.287000	0.950600	0.759700
H951	H95	0.239800	0.983900	0.809500
H961	H96	0.336100	0.004700	0.784000
H971	H97	0.403900	0.471300	0.959200
H981	H98	0.472300	0.307400	0.944000
H991	H99	0.210300	0.360000	0.904100
H1001	H100	0.189200	0.265600	0.949500
H1011	H101	0.466400	0.294500	0.854300
H1021	H102	0.512000	0.234200	0.852100
H1031	H103	0.448200	0.255100	0.802200
H1041	H104	0.151600	0.086600	0.951700
H1051	H105	0.154600	0.125800	0.005000
H1061	H106	0.058200	0.100000	0.984800
H1071	H107	0.031700	0.179500	0.860900
H1081	H108	0.071400	0.117900	0.864700
H1091	H109	0.980000	0.134500	0.898200
H1101	H110	0.037000	0.240300	0.950600
H1111	H111	0.989800	0.190500	0.983900
H1121	H112	0.086100	0.216000	0.004700
H1131	H113	0.903900	0.528700	0.040800
H1141	H114	0.972300	0.692600	0.056000
H1151	H115	0.710300	0.640000	0.095900
H1161	H116	0.689200	0.734400	0.050500
H1171	H117	0.966400	0.705500	0.145700
H1181	H118	0.012000	0.765800	0.147900
H1191	H119	0.948200	0.744900	0.197800
H1201	H120	0.651600	0.913400	0.048300
H1211	H121	0.654600	0.874200	0.995000
H1221	H122	0.558200	0.900000	0.015200
H1231	H123	0.531700	0.820500	0.139100
H1241	H124	0.571400	0.882100	0.135300
H1251	H125	0.480000	0.865500	0.101800
H1261	H126	0.537000	0.759700	0.049400
H1271	H127	0.489800	0.809500	0.016100
H1281	H128	0.586100	0.784000	0.995300
C11	C1	0.024500	0.928500	0.471000
C21	C2	0.953800	0.930800	0.422820
C31	C3	0.862800	0.949800	0.434560
C41	C4	0.796800	0.954700	0.391330
C51	C5	0.821800	0.940700	0.336370
C61	C6	0.912800	0.921700	0.324630
C71	C7	0.978820	0.916800	0.367860
C81	C8	0.699300	0.973300	0.403900
C91	C9	0.938100	0.905400	0.265050
C101	C10	0.880300	0.871800	0.231590
C111	C11	0.906300	0.859700	0.176330
C121	C12	0.990200	0.881200	0.154520
C131	C13	0.048100	0.914900	0.187980
C141	C14	0.022000	0.927000	0.243240
C151	C15	0.792700	0.842400	0.256200
C161	C16	0.148100	0.936200	0.164700
C171	C17	0.132000	0.972600	0.114900
C181	C18	0.209500	0.885200	0.147500
C191	C19	0.201100	0.972100	0.206700
C201	C20	0.524500	0.071500	0.529000
C211	C21	0.453800	0.069200	0.577180
C221	C22	0.362800	0.050200	0.565440
C231	C23	0.296800	0.045300	0.608670
C241	C24	0.321800	0.059300	0.663630
C251	C25	0.412800	0.078300	0.675370
C261	C26	0.478820	0.083200	0.632140
C271	C27	0.199300	0.026700	0.596100
C281	C28	0.438100	0.094600	0.734950
C291	C29	0.380300	0.128200	0.768410
C301	C30	0.406300	0.140300	0.823670
C311	C31	0.490200	0.118800	0.845480
C321	C32	0.548100	0.085100	0.812020
C331	C33	0.522000	0.073000	0.756760
C341	C34	0.292700	0.157600	0.743800
C351	C35	0.648100	0.063800	0.835300
C361	C36	0.632000	0.027400	0.885100
C371	C37	0.709500	0.114800	0.852500
C381	C38	0.701100	0.027900	0.793300
C391	C39	0.774500	0.529000	0.928500
C401	C40	0.703800	0.577180	0.930800
C411	C41	0.612800	0.565440	0.949800
C421	C42	0.546800	0.608670	0.954700
C431	C43	0.571800	0.663630	0.940700
C441	C44	0.662800	0.675370	0.921700
C451	C45	0.728820	0.632140	0.916800
C461	C46	0.449300	0.596100	0.973300
C471	C47	0.688100	0.734950	0.905400
C481	C48	0.630300	0.768410	0.871800
C491	C49	0.656300	0.823670	0.859700
C501	C50	0.740200	0.845480	0.881200
C511	C51	0.798100	0.812020	0.914900
C521	C52	0.772000	0.756760	0.927000
C531	C53	0.542700	0.743800	0.842400
C541	C54	0.898100	0.835300	0.936200
C551	C55	0.882000	0.885100	0.972600
C561	C56	0.959500	0.852500	0.885200
C571	C57	0.951100	0.793300	0.972100
C581	C58	0.274500	0.471000	0.071500
C591	C59	0.203800	0.422820	0.069200
C601	C60	0.112800	0.434560	0.050200
C611	C61	0.046800	0.391330	0.045300
C621	C62	0.071800	0.336370	0.059300
C631	C63	0.162800	0.324630	0.078300
C641	C64	0.228820	0.367860	0.083200
C651	C65	0.949300	0.403900	0.026700
C661	C66	0.188100	0.265050	0.094600
C671	C67	0.130300	0.231590	0.128200
C681	C68	0.156300	0.176330	0.140300
C691	C69	0.240200	0.154520	0.118800
C701	C70	0.298100	0.187980	0.085100
C711	C71	0.272000	0.243240	0.073000
C721	C72	0.042700	0.256200	0.157600
C731	C73	0.398100	0.164700	0.063800
C741	C74	0.382000	0.114900	0.027400
C751	C75	0.459500	0.147500	0.114800
C761	C76	0.451100	0.206700	0.027900
C771	C77	0.975500	0.071500	0.471000
C781	C78	0.046200	0.069200	0.422820
C791	C79	0.137200	0.050200	0.434560
C801	C80	0.203200	0.045300	0.391330
C811	C81	0.178200	0.059300	0.336370
C821	C82	0.087200	0.078300	0.324630
C831	C83	0.021180	0.083200	0.367860
C841	C84	0.300700	0.026700	0.403900
C851	C85	0.061900	0.094600	0.265050
C861	C86	0.119700	0.128200	0.231590
C871	C87	0.093700	0.140300	0.176330
C881	C88	0.009800	0.118800	0.154520
C891	C89	0.951900	0.085100	0.187980
C901	C90	0.978000	0.073000	0.243240
C911	C91	0.207300	0.157600	0.256200
C921	C92	0.851900	0.063800	0.164700
C931	C93	0.868000	0.027400	0.114900
C941	C94	0.790500	0.114800	0.147500
C951	C95	0.798900	0.027900	0.206700
C961	C96	0.475500	0.928500	0.529000
C971	C97	0.546200	0.930800	0.577180
C981	C98	0.637200	0.949800	0.565440
C991	C99	0.703200	0.954700	0.608670
C1001	C100	0.678200	0.940700	0.663630
C1011	C101	0.587200	0.921700	0.675370
C1021	C102	0.521180	0.916800	0.632140
C1031	C103	0.800700	0.973300	0.596100
C1041	C104	0.561900	0.905400	0.734950
C1051	C105	0.619700	0.871800	0.768410
C1061	C106	0.593700	0.859700	0.823670
C1071	C107	0.509800	0.881200	0.845480
C1081	C108	0.451900	0.914900	0.812020
C1091	C109	0.478000	0.927000	0.756760
C1101	C110	0.707300	0.842400	0.743800
C1111	C111	0.351900	0.936200	0.835300
C1121	C112	0.368000	0.972600	0.885100
C1131	C113	0.290500	0.885200	0.852500
C1141	C114	0.298900	0.972100	0.793300
C1151	C115	0.225500	0.471000	0.928500
C1161	C116	0.296200	0.422820	0.930800
C1171	C117	0.387200	0.434560	0.949800
C1181	C118	0.453200	0.391330	0.954700
C1191	C119	0.428200	0.336370	0.940700
C1201	C120	0.337200	0.324630	0.921700
C1211	C121	0.271180	0.367860	0.916800
C1221	C122	0.550700	0.403900	0.973300
C1231	C123	0.311900	0.265050	0.905400
C1241	C124	0.369700	0.231590	0.871800
C1251	C125	0.343700	0.176330	0.859700
C1261	C126	0.259800	0.154520	0.881200
C1271	C127	0.201900	0.187980	0.914900
C1281	C128	0.228000	0.243240	0.927000
C1291	C129	0.457300	0.256200	0.842400
C1301	C130	0.101900	0.164700	0.936200
C1311	C131	0.118000	0.114900	0.972600
C1321	C132	0.040500	0.147500	0.885200
C1331	C133	0.048900	0.206700	0.972100
C1341	C134	0.725500	0.529000	0.071500
C1351	C135	0.796200	0.577180	0.069200
C1361	C136	0.887200	0.565440	0.050200
C1371	C137	0.953200	0.608670	0.045300
C1381	C138	0.928200	0.663630	0.059300
C1391	C139	0.837200	0.675370	0.078300
C1401	C140	0.771180	0.632140	0.083200
C1411	C141	0.050700	0.596100	0.026700
C1421	C142	0.811900	0.734950	0.094600
C1431	C143	0.869700	0.768410	0.128200
C1441	C144	0.843700	0.823670	0.140300
C1451	C145	0.759800	0.845480	0.118800
C1461	C146	0.701900	0.812020	0.085100
C1471	C147	0.728000	0.756760	0.073000
C1481	C148	0.957300	0.743800	0.157600
C1491	C149	0.601900	0.835300	0.063800
C1501	C150	0.618000	0.885100	0.027400
C1511	C151	0.540500	0.852500	0.114800
C1521	C152	0.548900	0.793300	0.027900
O11	O1	0.996000	0.936700	0.519600
O21	O2	0.108300	0.911900	0.456200
O31	O3	0.680800	0.007600	0.442350
O41	O4	0.632700	0.954500	0.373200
O51	O5	0.013700	0.869700	0.099600
O61	O6	0.496000	0.063300	0.480400
O71	O7	0.608300	0.088100	0.543800
O81	O8	0.180800	0.992400	0.557650
O91	O9	0.132700	0.045500	0.626800
O101	O10	0.513700	0.130300	0.900400
O111	O11	0.746000	0.480400	0.936700
O121	O12	0.858300	0.543800	0.911900
O131	O13	0.430800	0.557650	0.007600
O141	O14	0.382700	0.626800	0.954500
O151	O15	0.763700	0.900400	0.869700
O161	O16	0.246000	0.519600	0.063300
O171	O17	0.358300	0.456200	0.088100
O181	O18	0.930800	0.442350	0.992400
O191	O19	0.882700	0.373200	0.045500
O201	O20	0.263700	0.099600	0.130300
O211	O21	0.004000	0.063300	0.519600
O221	O22	0.891700	0.088100	0.456200
O231	O23	0.319200	0.992400	0.442350
O241	O24	0.367300	0.045500	0.373200
O251	O25	0.986300	0.130300	0.099600
O261	O26	0.504000	0.936700	0.480400
O271	O27	0.391700	0.911900	0.543800
O281	O28	0.819200	0.007600	0.557650
O291	O29	0.867300	0.954500	0.626800
O301	O30	0.486300	0.869700	0.900400
O311	O31	0.254000	0.519600	0.936700
O321	O32	0.141700	0.456200	0.911900
O331	O33	0.569200	0.442350	0.007600
O341	O34	0.617300	0.373200	0.954500
O351	O35	0.236300	0.099600	0.869700
O361	O36	0.754000	0.480400	0.063300
O371	O37	0.641700	0.543800	0.088100
O381	O38	0.069200	0.557650	0.992400
O391	O39	0.117300	0.626800	0.045500
O401	O40	0.736300	0.900400	0.130300
