data_FIFMIS_clean_PM
_symmetry_space_group_name_H-M	'P1'
_cell_length_a	15.928800
_cell_length_b	15.928800
_cell_length_c	21.366300
_cell_angle_alpha	90.000000
_cell_angle_beta	90.000000
_cell_angle_gamma	120.000000
_symmetry_Int_Tables_number 1

loop_
_symmetry_equiv_pos_as_xyz
'x,y,z'

loop_
_atom_site_label
_atom_site_type_symbol
_atom_site_fract_x
_atom_site_fract_y
_atom_site_fract_z
Co11	Co1	0.153440	0.706850	0.991840
Co21	Co2	0.030710	0.513760	0.885880
Co31	Co3	0.553410	0.846560	0.658510
Co41	Co4	0.483050	0.969290	0.552550
Co51	Co5	0.293150	0.446590	0.325170
Co61	Co6	0.486240	0.516950	0.219210
Co71	Co7	0.846560	0.293150	0.491840
Co81	Co8	0.969290	0.486240	0.385880
Co91	Co9	0.446590	0.153440	0.158510
Co101	Co10	0.516950	0.030710	0.052550
Co111	Co11	0.706850	0.553410	0.825170
Co121	Co12	0.513760	0.483050	0.719210
H11	H1	0.194800	0.665200	0.524700
H21	H2	0.013200	0.459500	0.643900
H31	H3	0.268900	0.667700	0.704500
H41	H4	0.067900	0.452600	0.750600
H51	H5	0.168100	0.537100	0.773500
H61	H6	0.103800	0.698700	0.757000
H71	H7	0.185400	0.688400	0.790800
H81	H8	0.935600	0.471300	0.742300
H91	H9	0.972600	0.580200	0.725400
H101	H10	0.947200	0.653500	0.988900
H111	H11	0.845700	0.715600	0.995700
H121	H12	0.076400	0.974400	0.033500
H131	H13	0.170900	0.907500	0.024300
H141	H14	0.917200	0.962800	0.030400
H151	H15	0.763500	0.787300	0.002000
H161	H16	0.602600	0.772400	0.011400
H171	H17	0.507200	0.838900	0.025200
H181	H18	0.732900	0.098500	0.025200
H191	H19	0.834200	0.039500	0.013200
H201	H20	0.470400	0.805200	0.191370
H211	H21	0.446300	0.986800	0.310570
H221	H22	0.398800	0.731100	0.371170
H231	H23	0.384700	0.932100	0.417270
H241	H24	0.369000	0.831900	0.440170
H251	H25	0.594900	0.896200	0.423670
H261	H26	0.503000	0.814600	0.457470
H271	H27	0.535700	0.064400	0.408970
H281	H28	0.607600	0.027400	0.392070
H291	H29	0.706300	0.052800	0.655570
H301	H30	0.869900	0.154300	0.662370
H311	H31	0.898000	0.923600	0.700170
H321	H32	0.736600	0.829100	0.690970
H331	H33	0.045600	0.082800	0.697070
H341	H34	0.023800	0.236500	0.668670
H351	H35	0.169800	0.397400	0.678070
H361	H36	0.331700	0.492800	0.691870
H371	H37	0.365600	0.267100	0.691870
H381	H38	0.205300	0.165800	0.679870
H391	H39	0.334800	0.529600	0.858030
H401	H40	0.540500	0.553700	0.977230
H411	H41	0.332300	0.601200	0.037830
H421	H42	0.547400	0.615300	0.083930
H431	H43	0.462900	0.631000	0.106830
H441	H44	0.301300	0.405100	0.090330
H451	H45	0.311600	0.497000	0.124130
H461	H46	0.528700	0.464300	0.075630
H471	H47	0.419800	0.392400	0.058730
H481	H48	0.346500	0.293700	0.322230
H491	H49	0.284400	0.130100	0.329030
H501	H50	0.025600	0.102000	0.366830
H511	H51	0.092500	0.263400	0.357630
H521	H52	0.037200	0.954400	0.363730
H531	H53	0.212700	0.976200	0.335330
H541	H54	0.227600	0.830200	0.344730
H551	H55	0.161100	0.668300	0.358530
H561	H56	0.901500	0.634400	0.358530
H571	H57	0.960500	0.794700	0.346530
H581	H58	0.805200	0.334800	0.024700
H591	H59	0.986800	0.540500	0.143900
H601	H60	0.731100	0.332300	0.204500
H611	H61	0.932100	0.547400	0.250600
H621	H62	0.831900	0.462900	0.273500
H631	H63	0.896200	0.301300	0.257000
H641	H64	0.814600	0.311600	0.290800
H651	H65	0.064400	0.528700	0.242300
H661	H66	0.027400	0.419800	0.225400
H671	H67	0.052800	0.346500	0.488900
H681	H68	0.154300	0.284400	0.495700
H691	H69	0.923600	0.025600	0.533500
H701	H70	0.829100	0.092500	0.524300
H711	H71	0.082800	0.037200	0.530400
H721	H72	0.236500	0.212700	0.502000
H731	H73	0.397400	0.227600	0.511400
H741	H74	0.492800	0.161100	0.525200
H751	H75	0.267100	0.901500	0.525200
H761	H76	0.165800	0.960500	0.513200
H771	H77	0.529600	0.194800	0.691370
H781	H78	0.553700	0.013200	0.810570
H791	H79	0.601200	0.268900	0.871170
H801	H80	0.615300	0.067900	0.917270
H811	H81	0.631000	0.168100	0.940170
H821	H82	0.405100	0.103800	0.923670
H831	H83	0.497000	0.185400	0.957470
H841	H84	0.464300	0.935600	0.908970
H851	H85	0.392400	0.972600	0.892070
H861	H86	0.293700	0.947200	0.155570
H871	H87	0.130100	0.845700	0.162370
H881	H88	0.102000	0.076400	0.200170
H891	H89	0.263400	0.170900	0.190970
H901	H90	0.954400	0.917200	0.197070
H911	H91	0.976200	0.763500	0.168670
H921	H92	0.830200	0.602600	0.178070
H931	H93	0.668300	0.507200	0.191870
H941	H94	0.634400	0.732900	0.191870
H951	H95	0.794700	0.834200	0.179870
H961	H96	0.665200	0.470400	0.358030
H971	H97	0.459500	0.446300	0.477230
H981	H98	0.667700	0.398800	0.537830
H991	H99	0.452600	0.384700	0.583930
H1001	H100	0.537100	0.369000	0.606830
H1011	H101	0.698700	0.594900	0.590330
H1021	H102	0.688400	0.503000	0.624130
H1031	H103	0.471300	0.535700	0.575630
H1041	H104	0.580200	0.607600	0.558730
H1051	H105	0.653500	0.706300	0.822230
H1061	H106	0.715600	0.869900	0.829030
H1071	H107	0.974400	0.898000	0.866830
H1081	H108	0.907500	0.736600	0.857630
H1091	H109	0.962800	0.045600	0.863730
H1101	H110	0.787300	0.023800	0.835330
H1111	H111	0.772400	0.169800	0.844730
H1121	H112	0.838900	0.331700	0.858530
H1131	H113	0.098500	0.365600	0.858530
H1141	H114	0.039500	0.205300	0.846530
C11	C1	0.247100	0.679800	0.612300
C21	C2	0.180800	0.637500	0.564300
C31	C3	0.092700	0.553100	0.575600
C41	C4	0.071800	0.515700	0.636300
C51	C5	0.134700	0.559100	0.684700
C61	C6	0.223800	0.639700	0.672300
C71	C7	0.108900	0.522500	0.751600
C81	C8	0.117500	0.670200	0.792900
C91	C9	0.100700	0.712500	0.852300
C101	C10	0.963200	0.536100	0.759500
C111	C11	0.892700	0.538600	0.807200
C121	C12	0.347500	0.768400	0.603800
C131	C13	0.020200	0.499200	0.523700
C141	C14	0.973300	0.719100	0.997700
C151	C15	0.911900	0.755600	0.002200
C161	C16	0.949700	0.854300	0.016600
C171	C17	0.048100	0.908700	0.024300
C181	C18	0.104400	0.868200	0.018700
C191	C19	0.887200	0.897300	0.020500
C201	C20	0.793700	0.852900	0.011500
C211	C21	0.731500	0.896800	0.014900
C221	C22	0.631100	0.839300	0.015900
C231	C23	0.574000	0.879800	0.023300
C241	C24	0.706700	0.031700	0.023500
C251	C25	0.767900	0.997000	0.016700
C261	C26	0.432700	0.752900	0.278970
C271	C27	0.456700	0.819200	0.230970
C281	C28	0.460400	0.907300	0.242270
C291	C29	0.443900	0.928200	0.302970
C301	C30	0.424400	0.865300	0.351370
C311	C31	0.415900	0.776200	0.338970
C321	C32	0.413600	0.891100	0.418270
C331	C33	0.552700	0.882500	0.459570
C341	C34	0.611800	0.899300	0.518970
C351	C35	0.572900	0.036800	0.426170
C361	C36	0.645900	0.107300	0.473870
C371	C37	0.420900	0.652500	0.270470
C381	C38	0.479000	0.979800	0.190370
C391	C39	0.745800	0.026700	0.664370
C401	C40	0.843700	0.088100	0.668870
C411	C41	0.904600	0.050300	0.683270
C421	C42	0.860600	0.951900	0.690970
C431	C43	0.763800	0.895600	0.685370
C441	C44	0.010100	0.112800	0.687170
C451	C45	0.059200	0.206300	0.678170
C461	C46	0.165300	0.268500	0.681570
C471	C47	0.208200	0.368900	0.682570
C481	C48	0.305800	0.426000	0.689970
C491	C49	0.325000	0.293300	0.690170
C501	C50	0.229100	0.232100	0.683370
C511	C51	0.320200	0.567300	0.945630
C521	C52	0.362500	0.543300	0.897630
C531	C53	0.446900	0.539600	0.908930
C541	C54	0.484300	0.556100	0.969630
C551	C55	0.440900	0.575600	0.018030
C561	C56	0.360300	0.584100	0.005630
C571	C57	0.477500	0.586400	0.084930
C581	C58	0.329800	0.447300	0.126230
C591	C59	0.287500	0.388200	0.185630
C601	C60	0.463900	0.427100	0.092830
C611	C61	0.461400	0.354100	0.140530
C621	C62	0.231600	0.579100	0.937130
C631	C63	0.500800	0.521000	0.857030
C641	C64	0.280900	0.254200	0.331030
C651	C65	0.244400	0.156300	0.335530
C661	C66	0.145700	0.095400	0.349930
C671	C67	0.091300	0.139400	0.357630
C681	C68	0.131800	0.236200	0.352030
C691	C69	0.102700	0.989900	0.353830
C701	C70	0.147100	0.940800	0.344830
C711	C71	0.103200	0.834700	0.348230
C721	C72	0.160700	0.791800	0.349230
C731	C73	0.120200	0.694200	0.356630
C741	C74	0.968300	0.675000	0.356830
C751	C75	0.003000	0.770900	0.350030
C761	C76	0.752900	0.320200	0.112300
C771	C77	0.819200	0.362500	0.064300
C781	C78	0.907300	0.446900	0.075600
C791	C79	0.928200	0.484300	0.136300
C801	C80	0.865300	0.440900	0.184700
C811	C81	0.776200	0.360300	0.172300
C821	C82	0.891100	0.477500	0.251600
C831	C83	0.882500	0.329800	0.292900
C841	C84	0.899300	0.287500	0.352300
C851	C85	0.036800	0.463900	0.259500
C861	C86	0.107300	0.461400	0.307200
C871	C87	0.652500	0.231600	0.103800
C881	C88	0.979800	0.500800	0.023700
C891	C89	0.026700	0.280900	0.497700
C901	C90	0.088100	0.244400	0.502200
C911	C91	0.050300	0.145700	0.516600
C921	C92	0.951900	0.091300	0.524300
C931	C93	0.895600	0.131800	0.518700
C941	C94	0.112800	0.102700	0.520500
C951	C95	0.206300	0.147100	0.511500
C961	C96	0.268500	0.103200	0.514900
C971	C97	0.368900	0.160700	0.515900
C981	C98	0.426000	0.120200	0.523300
C991	C99	0.293300	0.968300	0.523500
C1001	C100	0.232100	0.003000	0.516700
C1011	C101	0.567300	0.247100	0.778970
C1021	C102	0.543300	0.180800	0.730970
C1031	C103	0.539600	0.092700	0.742270
C1041	C104	0.556100	0.071800	0.802970
C1051	C105	0.575600	0.134700	0.851370
C1061	C106	0.584100	0.223800	0.838970
C1071	C107	0.586400	0.108900	0.918270
C1081	C108	0.447300	0.117500	0.959570
C1091	C109	0.388200	0.100700	0.018970
C1101	C110	0.427100	0.963200	0.926170
C1111	C111	0.354100	0.892700	0.973870
C1121	C112	0.579100	0.347500	0.770470
C1131	C113	0.521000	0.020200	0.690370
C1141	C114	0.254200	0.973300	0.164370
C1151	C115	0.156300	0.911900	0.168870
C1161	C116	0.095400	0.949700	0.183270
C1171	C117	0.139400	0.048100	0.190970
C1181	C118	0.236200	0.104400	0.185370
C1191	C119	0.989900	0.887200	0.187170
C1201	C120	0.940800	0.793700	0.178170
C1211	C121	0.834700	0.731500	0.181570
C1221	C122	0.791800	0.631100	0.182570
C1231	C123	0.694200	0.574000	0.189970
C1241	C124	0.675000	0.706700	0.190170
C1251	C125	0.770900	0.767900	0.183370
C1261	C126	0.679800	0.432700	0.445630
C1271	C127	0.637500	0.456700	0.397630
C1281	C128	0.553100	0.460400	0.408930
C1291	C129	0.515700	0.443900	0.469630
C1301	C130	0.559100	0.424400	0.518030
C1311	C131	0.639700	0.415900	0.505630
C1321	C132	0.522500	0.413600	0.584930
C1331	C133	0.670200	0.552700	0.626230
C1341	C134	0.712500	0.611800	0.685630
C1351	C135	0.536100	0.572900	0.592830
C1361	C136	0.538600	0.645900	0.640530
C1371	C137	0.768400	0.420900	0.437130
C1381	C138	0.499200	0.479000	0.357030
C1391	C139	0.719100	0.745800	0.831030
C1401	C140	0.755600	0.843700	0.835530
C1411	C141	0.854300	0.904600	0.849930
C1421	C142	0.908700	0.860600	0.857630
C1431	C143	0.868200	0.763800	0.852030
C1441	C144	0.897300	0.010100	0.853830
C1451	C145	0.852900	0.059200	0.844830
C1461	C146	0.896800	0.165300	0.848230
C1471	C147	0.839300	0.208200	0.849230
C1481	C148	0.879800	0.305800	0.856630
C1491	C149	0.031700	0.325000	0.856830
C1501	C150	0.997000	0.229100	0.850030
N11	N1	0.058200	0.564100	0.788430
N21	N2	0.069500	0.773800	0.005500
N31	N3	0.608900	0.974700	0.027930
N41	N4	0.505900	0.941800	0.455100
N51	N5	0.704300	0.930500	0.672170
N61	N6	0.365800	0.391100	0.694600
N71	N7	0.435900	0.494100	0.121760
N81	N8	0.226200	0.295700	0.338830
N91	N9	0.025300	0.634200	0.361260
N101	N10	0.941800	0.435900	0.288430
N111	N11	0.930500	0.226200	0.505500
N121	N12	0.391100	0.025300	0.527930
N131	N13	0.494100	0.058200	0.955100
N141	N14	0.295700	0.069500	0.172170
N151	N15	0.634200	0.608900	0.194600
N161	N16	0.564100	0.505900	0.621760
N171	N17	0.773800	0.704300	0.838830
N181	N18	0.974700	0.365800	0.861260
O11	O1	0.087700	0.661600	0.902560
O21	O2	0.104700	0.790100	0.850700
O31	O3	0.898800	0.515600	0.862590
O41	O4	0.834500	0.561600	0.787060
O51	O5	0.410100	0.770800	0.640700
O61	O6	0.360400	0.830500	0.563290
O71	O7	0.030400	0.542000	0.472750
O81	O8	0.955400	0.415700	0.536690
O91	O9	0.573900	0.912300	0.569230
O101	O10	0.685400	0.895300	0.517370
O111	O11	0.616800	0.101200	0.529260
O121	O12	0.727100	0.165500	0.453730
O131	O13	0.360700	0.589900	0.307370
O141	O14	0.470100	0.639600	0.229960
O151	O15	0.511600	0.969600	0.139420
O161	O16	0.460300	0.044600	0.203360
O171	O17	0.338400	0.426100	0.235890
O181	O18	0.209900	0.314600	0.184030
O191	O19	0.484400	0.383200	0.195920
O201	O20	0.438400	0.272900	0.120390
O211	O21	0.229200	0.639300	0.974030
O221	O22	0.169500	0.529900	0.896620
O231	O23	0.458000	0.488400	0.806080
O241	O24	0.584300	0.539700	0.870020
O251	O25	0.912300	0.338400	0.402560
O261	O26	0.895300	0.209900	0.350700
O271	O27	0.101200	0.484400	0.362590
O281	O28	0.165500	0.438400	0.287060
O291	O29	0.589900	0.229200	0.140700
O301	O30	0.639600	0.169500	0.063290
O311	O31	0.969600	0.458000	0.972750
O321	O32	0.044600	0.584300	0.036690
O331	O33	0.426100	0.087700	0.069230
O341	O34	0.314600	0.104700	0.017370
O351	O35	0.383200	0.898800	0.029260
O361	O36	0.272900	0.834500	0.953730
O371	O37	0.639300	0.410100	0.807370
O381	O38	0.529900	0.360400	0.729960
O391	O39	0.488400	0.030400	0.639420
O401	O40	0.539700	0.955400	0.703360
O411	O41	0.661600	0.573900	0.735890
O421	O42	0.790100	0.685400	0.684030
O431	O43	0.515600	0.616800	0.695920
O441	O44	0.561600	0.727100	0.620390
O451	O45	0.770800	0.360700	0.474030
O461	O46	0.830500	0.470100	0.396620
O471	O47	0.542000	0.511600	0.306080
O481	O48	0.415700	0.460300	0.370020
