data_FIFMOX_clean_PM
_symmetry_space_group_name_H-M	'P1'
_cell_length_a	12.580000
_cell_length_b	26.713000
_cell_length_c	33.455000
_cell_angle_alpha	90.000000
_cell_angle_beta	90.000000
_cell_angle_gamma	90.000000
_symmetry_Int_Tables_number 1

loop_
_symmetry_equiv_pos_as_xyz
'x,y,z'

loop_
_atom_site_label
_atom_site_type_symbol
_atom_site_fract_x
_atom_site_fract_y
_atom_site_fract_z
Co11	Co1	0.514620	0.931240	0.385320
Co21	Co2	0.985380	0.431240	0.614680
Co31	Co3	0.014620	0.431240	0.114680
Co41	Co4	0.485380	0.931240	0.885320
Ag11	Ag1	0.741110	0.280080	0.362320
Ag21	Ag2	0.758890	0.780080	0.637680
Ag31	Ag3	0.241110	0.780080	0.137680
Ag41	Ag4	0.258890	0.280080	0.862320
H11	H1	0.283800	0.958300	0.356300
H21	H2	0.222500	0.043500	0.336800
H31	H3	0.378600	0.101500	0.344200
H41	H4	0.774200	0.073800	0.401200
H51	H5	0.870500	0.998300	0.426600
H61	H6	0.746100	0.925100	0.419600
H71	H7	0.689000	0.096300	0.320100
H81	H8	0.738100	0.179600	0.313200
H91	H9	0.553100	0.219800	0.401000
H101	H10	0.495300	0.138400	0.410200
H111	H11	0.694500	0.969800	0.328600
H121	H12	0.706100	0.950500	0.254700
H131	H13	0.551600	0.896900	0.238100
H141	H14	0.241700	0.812900	0.328500
H151	H15	0.193400	0.822100	0.400500
H161	H16	0.328800	0.880000	0.431000
H171	H17	0.505100	0.802800	0.255800
H181	H18	0.438700	0.768100	0.197800
H191	H19	0.173800	0.844800	0.209800
H201	H20	0.233500	0.880800	0.268400
H211	H21	0.647600	0.846900	0.344000
H221	H22	0.751100	0.781200	0.380300
H231	H23	0.726500	0.796200	0.453700
H241	H24	0.462400	0.920400	0.534700
H251	H25	0.335300	0.987200	0.511300
H261	H26	0.361200	0.996000	0.437200
H271	H27	0.555000	0.783100	0.503800
H281	H28	0.622500	0.751600	0.562300
H291	H29	0.765000	0.878900	0.586800
H301	H30	0.697500	0.915400	0.529200
H311	H31	0.216200	0.458300	0.643700
H321	H32	0.277500	0.543500	0.663200
H331	H33	0.121400	0.601500	0.655800
H341	H34	0.725800	0.573800	0.598800
H351	H35	0.629500	0.498300	0.573400
H361	H36	0.753900	0.425100	0.580400
H371	H37	0.811000	0.596300	0.679900
H381	H38	0.761900	0.679600	0.686800
H391	H39	0.946900	0.719800	0.599000
H401	H40	0.004700	0.638400	0.589800
H411	H41	0.805500	0.469800	0.671400
H421	H42	0.793900	0.450500	0.745300
H431	H43	0.948400	0.396900	0.761900
H441	H44	0.258300	0.312900	0.671500
H451	H45	0.306600	0.322100	0.599500
H461	H46	0.171200	0.380000	0.569000
H471	H47	0.994900	0.302800	0.744200
H481	H48	0.061300	0.268100	0.802200
H491	H49	0.326200	0.344800	0.790200
H501	H50	0.266500	0.380800	0.731600
H511	H51	0.852400	0.346900	0.656000
H521	H52	0.748900	0.281200	0.619700
H531	H53	0.773500	0.296200	0.546300
H541	H54	0.037600	0.420400	0.465300
H551	H55	0.164700	0.487200	0.488700
H561	H56	0.138800	0.496000	0.562800
H571	H57	0.945000	0.283100	0.496200
H581	H58	0.877500	0.251600	0.437700
H591	H59	0.735000	0.378900	0.413200
H601	H60	0.802500	0.415400	0.470800
H611	H61	0.783800	0.458300	0.143700
H621	H62	0.722500	0.543500	0.163200
H631	H63	0.878600	0.601500	0.155800
H641	H64	0.274200	0.573800	0.098800
H651	H65	0.370500	0.498300	0.073400
H661	H66	0.246100	0.425100	0.080400
H671	H67	0.189000	0.596300	0.179900
H681	H68	0.238100	0.679600	0.186800
H691	H69	0.053100	0.719800	0.099000
H701	H70	0.995300	0.638400	0.089800
H711	H71	0.194500	0.469800	0.171400
H721	H72	0.206100	0.450500	0.245300
H731	H73	0.051600	0.396900	0.261900
H741	H74	0.741700	0.312900	0.171500
H751	H75	0.693400	0.322100	0.099500
H761	H76	0.828800	0.380000	0.069000
H771	H77	0.005100	0.302800	0.244200
H781	H78	0.938700	0.268100	0.302200
H791	H79	0.673800	0.344800	0.290200
H801	H80	0.733500	0.380800	0.231600
H811	H81	0.147600	0.346900	0.156000
H821	H82	0.251100	0.281200	0.119700
H831	H83	0.226500	0.296200	0.046300
H841	H84	0.962400	0.420400	0.965300
H851	H85	0.835300	0.487200	0.988700
H861	H86	0.861200	0.496000	0.062800
H871	H87	0.055000	0.283100	0.996200
H881	H88	0.122500	0.251600	0.937700
H891	H89	0.265000	0.378900	0.913200
H901	H90	0.197500	0.415400	0.970800
H911	H91	0.716200	0.958300	0.856300
H921	H92	0.777500	0.043500	0.836800
H931	H93	0.621400	0.101500	0.844200
H941	H94	0.225800	0.073800	0.901200
H951	H95	0.129500	0.998300	0.926600
H961	H96	0.253900	0.925100	0.919600
H971	H97	0.311000	0.096300	0.820100
H981	H98	0.261900	0.179600	0.813200
H991	H99	0.446900	0.219800	0.901000
H1001	H100	0.504700	0.138400	0.910200
H1011	H101	0.305500	0.969800	0.828600
H1021	H102	0.293900	0.950500	0.754700
H1031	H103	0.448400	0.896900	0.738100
H1041	H104	0.758300	0.812900	0.828500
H1051	H105	0.806600	0.822100	0.900500
H1061	H106	0.671200	0.880000	0.931000
H1071	H107	0.494900	0.802800	0.755800
H1081	H108	0.561300	0.768100	0.697800
H1091	H109	0.826200	0.844800	0.709800
H1101	H110	0.766500	0.880800	0.768400
H1111	H111	0.352400	0.846900	0.844000
H1121	H112	0.248900	0.781200	0.880300
H1131	H113	0.273500	0.796200	0.953700
H1141	H114	0.537600	0.920400	0.034700
H1151	H115	0.664700	0.987200	0.011300
H1161	H116	0.638800	0.996000	0.937200
H1171	H117	0.445000	0.783100	0.003800
H1181	H118	0.377500	0.751600	0.062300
H1191	H119	0.235000	0.878900	0.086800
H1201	H120	0.302500	0.915400	0.029200
C11	C1	0.326800	0.987530	0.356960
C21	C2	0.291800	0.034860	0.345680
C31	C3	0.377300	0.066700	0.349970
C41	C4	0.462800	0.037500	0.364700
C51	C5	0.564600	0.053990	0.374760
C61	C6	0.643900	0.024530	0.391100
C71	C7	0.747200	0.040660	0.402710
C81	C8	0.800000	0.999400	0.416410
C91	C9	0.729400	0.958630	0.412460
C101	C10	0.590500	0.107480	0.367860
C111	C11	0.661000	0.120880	0.337680
C121	C12	0.689600	0.170850	0.333790
C131	C13	0.582200	0.194260	0.384590
C141	C14	0.547800	0.145490	0.390600
C151	C15	0.645800	0.949480	0.314160
C161	C16	0.652900	0.939040	0.272690
C171	C17	0.568900	0.909510	0.263800
C181	C18	0.511000	0.900650	0.299640
C191	C19	0.420600	0.871690	0.304440
C201	C20	0.366500	0.864310	0.340320
C211	C21	0.277100	0.833230	0.347660
C221	C22	0.250900	0.837800	0.387030
C231	C23	0.326900	0.870590	0.403600
C241	C24	0.378200	0.846340	0.267940
C251	C25	0.436600	0.812320	0.246560
C261	C26	0.397000	0.791870	0.211890
C271	C27	0.242900	0.836700	0.219210
C281	C28	0.277600	0.858200	0.254060
C291	C29	0.649900	0.843170	0.372180
C301	C30	0.708900	0.806600	0.392250
C311	C31	0.694300	0.814300	0.432480
C321	C32	0.621600	0.854830	0.436240
C331	C33	0.581000	0.875330	0.471320
C341	C34	0.508000	0.914490	0.473750
C351	C35	0.453100	0.931800	0.508040
C361	C36	0.383400	0.968560	0.495220
C371	C37	0.398200	0.972820	0.453650
C381	C38	0.619800	0.852860	0.509350
C391	C39	0.598000	0.803640	0.520370
C401	C40	0.638800	0.785150	0.555170
C411	C41	0.721400	0.859330	0.569670
C421	C42	0.682100	0.881420	0.535130
C431	C43	0.173200	0.487530	0.643040
C441	C44	0.208200	0.534860	0.654320
C451	C45	0.122700	0.566700	0.650030
C461	C46	0.037200	0.537500	0.635300
C471	C47	0.935400	0.553990	0.625240
C481	C48	0.856100	0.524530	0.608900
C491	C49	0.752800	0.540660	0.597290
C501	C50	0.700000	0.499400	0.583590
C511	C51	0.770600	0.458630	0.587540
C521	C52	0.909500	0.607480	0.632140
C531	C53	0.839000	0.620880	0.662320
C541	C54	0.810400	0.670850	0.666210
C551	C55	0.917800	0.694260	0.615410
C561	C56	0.952200	0.645490	0.609400
C571	C57	0.854200	0.449480	0.685840
C581	C58	0.847100	0.439040	0.727310
C591	C59	0.931100	0.409510	0.736200
C601	C60	0.989000	0.400650	0.700360
C611	C61	0.079400	0.371690	0.695560
C621	C62	0.133500	0.364310	0.659680
C631	C63	0.222900	0.333230	0.652340
C641	C64	0.249100	0.337800	0.612970
C651	C65	0.173100	0.370590	0.596400
C661	C66	0.121800	0.346340	0.732060
C671	C67	0.063400	0.312320	0.753440
C681	C68	0.103000	0.291870	0.788110
C691	C69	0.257100	0.336700	0.780790
C701	C70	0.222400	0.358200	0.745940
C711	C71	0.850100	0.343170	0.627820
C721	C72	0.791100	0.306600	0.607750
C731	C73	0.805700	0.314300	0.567520
C741	C74	0.878400	0.354830	0.563760
C751	C75	0.919000	0.375330	0.528680
C761	C76	0.992000	0.414490	0.526250
C771	C77	0.046900	0.431800	0.491960
C781	C78	0.116600	0.468560	0.504780
C791	C79	0.101800	0.472820	0.546350
C801	C80	0.880200	0.352860	0.490650
C811	C81	0.902000	0.303640	0.479630
C821	C82	0.861200	0.285150	0.444830
C831	C83	0.778600	0.359330	0.430330
C841	C84	0.817900	0.381420	0.464870
C851	C85	0.826800	0.487530	0.143040
C861	C86	0.791800	0.534860	0.154320
C871	C87	0.877300	0.566700	0.150030
C881	C88	0.962800	0.537500	0.135300
C891	C89	0.064600	0.553990	0.125240
C901	C90	0.143900	0.524530	0.108900
C911	C91	0.247200	0.540660	0.097290
C921	C92	0.300000	0.499400	0.083590
C931	C93	0.229400	0.458630	0.087540
C941	C94	0.090500	0.607480	0.132140
C951	C95	0.161000	0.620880	0.162320
C961	C96	0.189600	0.670850	0.166210
C971	C97	0.082200	0.694260	0.115410
C981	C98	0.047800	0.645490	0.109400
C991	C99	0.145800	0.449480	0.185840
C1001	C100	0.152900	0.439040	0.227310
C1011	C101	0.068900	0.409510	0.236200
C1021	C102	0.011000	0.400650	0.200360
C1031	C103	0.920600	0.371690	0.195560
C1041	C104	0.866500	0.364310	0.159680
C1051	C105	0.777100	0.333230	0.152340
C1061	C106	0.750900	0.337800	0.112970
C1071	C107	0.826900	0.370590	0.096400
C1081	C108	0.878200	0.346340	0.232060
C1091	C109	0.936600	0.312320	0.253440
C1101	C110	0.897000	0.291870	0.288110
C1111	C111	0.742900	0.336700	0.280790
C1121	C112	0.777600	0.358200	0.245940
C1131	C113	0.149900	0.343170	0.127820
C1141	C114	0.208900	0.306600	0.107750
C1151	C115	0.194300	0.314300	0.067520
C1161	C116	0.121600	0.354830	0.063760
C1171	C117	0.081000	0.375330	0.028680
C1181	C118	0.008000	0.414490	0.026250
C1191	C119	0.953100	0.431800	0.991960
C1201	C120	0.883400	0.468560	0.004780
C1211	C121	0.898200	0.472820	0.046350
C1221	C122	0.119800	0.352860	0.990650
C1231	C123	0.098000	0.303640	0.979630
C1241	C124	0.138800	0.285150	0.944830
C1251	C125	0.221400	0.359330	0.930330
C1261	C126	0.182100	0.381420	0.964870
C1271	C127	0.673200	0.987530	0.856960
C1281	C128	0.708200	0.034860	0.845680
C1291	C129	0.622700	0.066700	0.849970
C1301	C130	0.537200	0.037500	0.864700
C1311	C131	0.435400	0.053990	0.874760
C1321	C132	0.356100	0.024530	0.891100
C1331	C133	0.252800	0.040660	0.902710
C1341	C134	0.200000	0.999400	0.916410
C1351	C135	0.270600	0.958630	0.912460
C1361	C136	0.409500	0.107480	0.867860
C1371	C137	0.339000	0.120880	0.837680
C1381	C138	0.310400	0.170850	0.833790
C1391	C139	0.417800	0.194260	0.884590
C1401	C140	0.452200	0.145490	0.890600
C1411	C141	0.354200	0.949480	0.814160
C1421	C142	0.347100	0.939040	0.772690
C1431	C143	0.431100	0.909510	0.763800
C1441	C144	0.489000	0.900650	0.799640
C1451	C145	0.579400	0.871690	0.804440
C1461	C146	0.633500	0.864310	0.840320
C1471	C147	0.722900	0.833230	0.847660
C1481	C148	0.749100	0.837800	0.887030
C1491	C149	0.673100	0.870590	0.903600
C1501	C150	0.621800	0.846340	0.767940
C1511	C151	0.563400	0.812320	0.746560
C1521	C152	0.603000	0.791870	0.711890
C1531	C153	0.757100	0.836700	0.719210
C1541	C154	0.722400	0.858200	0.754060
C1551	C155	0.350100	0.843170	0.872180
C1561	C156	0.291100	0.806600	0.892250
C1571	C157	0.305700	0.814300	0.932480
C1581	C158	0.378400	0.854830	0.936240
C1591	C159	0.419000	0.875330	0.971320
C1601	C160	0.492000	0.914490	0.973750
C1611	C161	0.546900	0.931800	0.008040
C1621	C162	0.616600	0.968560	0.995220
C1631	C163	0.601800	0.972820	0.953650
C1641	C164	0.380200	0.852860	0.009350
C1651	C165	0.402000	0.803640	0.020370
C1661	C166	0.361200	0.785150	0.055170
C1671	C167	0.278600	0.859330	0.069670
C1681	C168	0.317900	0.881420	0.035130
N11	N1	0.428700	0.988060	0.368840
N21	N2	0.635900	0.973180	0.397340
N31	N3	0.653000	0.207180	0.357320
N41	N4	0.560900	0.926690	0.330320
N51	N5	0.395100	0.886660	0.376460
N61	N6	0.302500	0.804390	0.197590
N71	N7	0.597000	0.872190	0.398060
N81	N8	0.470700	0.940320	0.440100
N91	N9	0.701200	0.812100	0.580020
N101	N10	0.071300	0.488060	0.631160
N111	N11	0.864100	0.473180	0.602660
N121	N12	0.847000	0.707180	0.642680
N131	N13	0.939100	0.426690	0.669680
N141	N14	0.104900	0.386660	0.623540
N151	N15	0.197500	0.304390	0.802410
N161	N16	0.903000	0.372190	0.601940
N171	N17	0.029300	0.440320	0.559900
N181	N18	0.798800	0.312100	0.419980
N191	N19	0.928700	0.488060	0.131160
N201	N20	0.135900	0.473180	0.102660
N211	N21	0.153000	0.707180	0.142680
N221	N22	0.060900	0.426690	0.169680
N231	N23	0.895100	0.386660	0.123540
N241	N24	0.802500	0.304390	0.302410
N251	N25	0.097000	0.372190	0.101940
N261	N26	0.970700	0.440320	0.059900
N271	N27	0.201200	0.312100	0.919980
N281	N28	0.571300	0.988060	0.868840
N291	N29	0.364100	0.973180	0.897340
N301	N30	0.347000	0.207180	0.857320
N311	N31	0.439100	0.926690	0.830320
N321	N32	0.604900	0.886660	0.876460
N331	N33	0.697500	0.804390	0.697590
N341	N34	0.403000	0.872190	0.898060
N351	N35	0.529300	0.940320	0.940100
N361	N36	0.298800	0.812100	0.080020
Co51	Co5	0.985380	0.568760	0.885320
Co61	Co6	0.514620	0.068760	0.114680
Co71	Co7	0.485380	0.068760	0.614680
Co81	Co8	0.014620	0.568760	0.385320
Ag51	Ag5	0.758890	0.219920	0.862320
Ag61	Ag6	0.741110	0.719920	0.137680
Ag71	Ag7	0.258890	0.719920	0.637680
Ag81	Ag8	0.241110	0.219920	0.362320
H1211	H121	0.216200	0.541700	0.856300
H1221	H122	0.277500	0.456500	0.836800
H1231	H123	0.121400	0.398500	0.844200
H1241	H124	0.725800	0.426200	0.901200
H1251	H125	0.629500	0.501700	0.926600
H1261	H126	0.753900	0.574900	0.919600
H1271	H127	0.811000	0.403700	0.820100
H1281	H128	0.761900	0.320400	0.813200
H1291	H129	0.946900	0.280200	0.901000
H1301	H130	0.004700	0.361600	0.910200
H1311	H131	0.805500	0.530200	0.828600
H1321	H132	0.793900	0.549500	0.754700
H1331	H133	0.948400	0.603100	0.738100
H1341	H134	0.258300	0.687100	0.828500
H1351	H135	0.306600	0.677900	0.900500
H1361	H136	0.171200	0.620000	0.931000
H1371	H137	0.994900	0.697200	0.755800
H1381	H138	0.061300	0.731900	0.697800
H1391	H139	0.326200	0.655200	0.709800
H1401	H140	0.266500	0.619200	0.768400
H1411	H141	0.852400	0.653100	0.844000
H1421	H142	0.748900	0.718800	0.880300
H1431	H143	0.773500	0.703800	0.953700
H1441	H144	0.037600	0.579600	0.034700
H1451	H145	0.164700	0.512800	0.011300
H1461	H146	0.138800	0.504000	0.937200
H1471	H147	0.945000	0.716900	0.003800
H1481	H148	0.877500	0.748400	0.062300
H1491	H149	0.735000	0.621100	0.086800
H1501	H150	0.802500	0.584600	0.029200
H1511	H151	0.283800	0.041700	0.143700
H1521	H152	0.222500	0.956500	0.163200
H1531	H153	0.378600	0.898500	0.155800
H1541	H154	0.774200	0.926200	0.098800
H1551	H155	0.870500	0.001700	0.073400
H1561	H156	0.746100	0.074900	0.080400
H1571	H157	0.689000	0.903700	0.179900
H1581	H158	0.738100	0.820400	0.186800
H1591	H159	0.553100	0.780200	0.099000
H1601	H160	0.495300	0.861600	0.089800
H1611	H161	0.694500	0.030200	0.171400
H1621	H162	0.706100	0.049500	0.245300
H1631	H163	0.551600	0.103100	0.261900
H1641	H164	0.241700	0.187100	0.171500
H1651	H165	0.193400	0.177900	0.099500
H1661	H166	0.328800	0.120000	0.069000
H1671	H167	0.505100	0.197200	0.244200
H1681	H168	0.438700	0.231900	0.302200
H1691	H169	0.173800	0.155200	0.290200
H1701	H170	0.233500	0.119200	0.231600
H1711	H171	0.647600	0.153100	0.156000
H1721	H172	0.751100	0.218800	0.119700
H1731	H173	0.726500	0.203800	0.046300
H1741	H174	0.462400	0.079600	0.965300
H1751	H175	0.335300	0.012800	0.988700
H1761	H176	0.361200	0.004000	0.062800
H1771	H177	0.555000	0.216900	0.996200
H1781	H178	0.622500	0.248400	0.937700
H1791	H179	0.765000	0.121100	0.913200
H1801	H180	0.697500	0.084600	0.970800
H1811	H181	0.716200	0.041700	0.643700
H1821	H182	0.777500	0.956500	0.663200
H1831	H183	0.621400	0.898500	0.655800
H1841	H184	0.225800	0.926200	0.598800
H1851	H185	0.129500	0.001700	0.573400
H1861	H186	0.253900	0.074900	0.580400
H1871	H187	0.311000	0.903700	0.679900
H1881	H188	0.261900	0.820400	0.686800
H1891	H189	0.446900	0.780200	0.599000
H1901	H190	0.504700	0.861600	0.589800
H1911	H191	0.305500	0.030200	0.671400
H1921	H192	0.293900	0.049500	0.745300
H1931	H193	0.448400	0.103100	0.761900
H1941	H194	0.758300	0.187100	0.671500
H1951	H195	0.806600	0.177900	0.599500
H1961	H196	0.671200	0.120000	0.569000
H1971	H197	0.494900	0.197200	0.744200
H1981	H198	0.561300	0.231900	0.802200
H1991	H199	0.826200	0.155200	0.790200
H2001	H200	0.766500	0.119200	0.731600
H2011	H201	0.352400	0.153100	0.656000
H2021	H202	0.248900	0.218800	0.619700
H2031	H203	0.273500	0.203800	0.546300
H2041	H204	0.537600	0.079600	0.465300
H2051	H205	0.664700	0.012800	0.488700
H2061	H206	0.638800	0.004000	0.562800
H2071	H207	0.445000	0.216900	0.496200
H2081	H208	0.377500	0.248400	0.437700
H2091	H209	0.235000	0.121100	0.413200
H2101	H210	0.302500	0.084600	0.470800
H2111	H211	0.783800	0.541700	0.356300
H2121	H212	0.722500	0.456500	0.336800
H2131	H213	0.878600	0.398500	0.344200
H2141	H214	0.274200	0.426200	0.401200
H2151	H215	0.370500	0.501700	0.426600
H2161	H216	0.246100	0.574900	0.419600
H2171	H217	0.189000	0.403700	0.320100
H2181	H218	0.238100	0.320400	0.313200
H2191	H219	0.053100	0.280200	0.401000
H2201	H220	0.995300	0.361600	0.410200
H2211	H221	0.194500	0.530200	0.328600
H2221	H222	0.206100	0.549500	0.254700
H2231	H223	0.051600	0.603100	0.238100
H2241	H224	0.741700	0.687100	0.328500
H2251	H225	0.693400	0.677900	0.400500
H2261	H226	0.828800	0.620000	0.431000
H2271	H227	0.005100	0.697200	0.255800
H2281	H228	0.938700	0.731900	0.197800
H2291	H229	0.673800	0.655200	0.209800
H2301	H230	0.733500	0.619200	0.268400
H2311	H231	0.147600	0.653100	0.344000
H2321	H232	0.251100	0.718800	0.380300
H2331	H233	0.226500	0.703800	0.453700
H2341	H234	0.962400	0.579600	0.534700
H2351	H235	0.835300	0.512800	0.511300
H2361	H236	0.861200	0.504000	0.437200
H2371	H237	0.055000	0.716900	0.503800
H2381	H238	0.122500	0.748400	0.562300
H2391	H239	0.265000	0.621100	0.586800
H2401	H240	0.197500	0.584600	0.529200
C1691	C169	0.173200	0.512470	0.856960
C1701	C170	0.208200	0.465140	0.845680
C1711	C171	0.122700	0.433300	0.849970
C1721	C172	0.037200	0.462500	0.864700
C1731	C173	0.935400	0.446010	0.874760
C1741	C174	0.856100	0.475470	0.891100
C1751	C175	0.752800	0.459340	0.902710
C1761	C176	0.700000	0.500600	0.916410
C1771	C177	0.770600	0.541370	0.912460
C1781	C178	0.909500	0.392520	0.867860
C1791	C179	0.839000	0.379120	0.837680
C1801	C180	0.810400	0.329150	0.833790
C1811	C181	0.917800	0.305740	0.884590
C1821	C182	0.952200	0.354510	0.890600
C1831	C183	0.854200	0.550520	0.814160
C1841	C184	0.847100	0.560960	0.772690
C1851	C185	0.931100	0.590490	0.763800
C1861	C186	0.989000	0.599350	0.799640
C1871	C187	0.079400	0.628310	0.804440
C1881	C188	0.133500	0.635690	0.840320
C1891	C189	0.222900	0.666770	0.847660
C1901	C190	0.249100	0.662200	0.887030
C1911	C191	0.173100	0.629410	0.903600
C1921	C192	0.121800	0.653660	0.767940
C1931	C193	0.063400	0.687680	0.746560
C1941	C194	0.103000	0.708130	0.711890
C1951	C195	0.257100	0.663300	0.719210
C1961	C196	0.222400	0.641800	0.754060
C1971	C197	0.850100	0.656830	0.872180
C1981	C198	0.791100	0.693400	0.892250
C1991	C199	0.805700	0.685700	0.932480
C2001	C200	0.878400	0.645170	0.936240
C2011	C201	0.919000	0.624670	0.971320
C2021	C202	0.992000	0.585510	0.973750
C2031	C203	0.046900	0.568200	0.008040
C2041	C204	0.116600	0.531440	0.995220
C2051	C205	0.101800	0.527180	0.953650
C2061	C206	0.880200	0.647140	0.009350
C2071	C207	0.902000	0.696360	0.020370
C2081	C208	0.861200	0.714850	0.055170
C2091	C209	0.778600	0.640670	0.069670
C2101	C210	0.817900	0.618580	0.035130
C2111	C211	0.326800	0.012470	0.143040
C2121	C212	0.291800	0.965140	0.154320
C2131	C213	0.377300	0.933300	0.150030
C2141	C214	0.462800	0.962500	0.135300
C2151	C215	0.564600	0.946010	0.125240
C2161	C216	0.643900	0.975470	0.108900
C2171	C217	0.747200	0.959340	0.097290
C2181	C218	0.800000	0.000600	0.083590
C2191	C219	0.729400	0.041370	0.087540
C2201	C220	0.590500	0.892520	0.132140
C2211	C221	0.661000	0.879120	0.162320
C2221	C222	0.689600	0.829150	0.166210
C2231	C223	0.582200	0.805740	0.115410
C2241	C224	0.547800	0.854510	0.109400
C2251	C225	0.645800	0.050520	0.185840
C2261	C226	0.652900	0.060960	0.227310
C2271	C227	0.568900	0.090490	0.236200
C2281	C228	0.511000	0.099350	0.200360
C2291	C229	0.420600	0.128310	0.195560
C2301	C230	0.366500	0.135690	0.159680
C2311	C231	0.277100	0.166770	0.152340
C2321	C232	0.250900	0.162200	0.112970
C2331	C233	0.326900	0.129410	0.096400
C2341	C234	0.378200	0.153660	0.232060
C2351	C235	0.436600	0.187680	0.253440
C2361	C236	0.397000	0.208130	0.288110
C2371	C237	0.242900	0.163300	0.280790
C2381	C238	0.277600	0.141800	0.245940
C2391	C239	0.649900	0.156830	0.127820
C2401	C240	0.708900	0.193400	0.107750
C2411	C241	0.694300	0.185700	0.067520
C2421	C242	0.621600	0.145170	0.063760
C2431	C243	0.581000	0.124670	0.028680
C2441	C244	0.508000	0.085510	0.026250
C2451	C245	0.453100	0.068200	0.991960
C2461	C246	0.383400	0.031440	0.004780
C2471	C247	0.398200	0.027180	0.046350
C2481	C248	0.619800	0.147140	0.990650
C2491	C249	0.598000	0.196360	0.979630
C2501	C250	0.638800	0.214850	0.944830
C2511	C251	0.721400	0.140670	0.930330
C2521	C252	0.682100	0.118580	0.964870
C2531	C253	0.673200	0.012470	0.643040
C2541	C254	0.708200	0.965140	0.654320
C2551	C255	0.622700	0.933300	0.650030
C2561	C256	0.537200	0.962500	0.635300
C2571	C257	0.435400	0.946010	0.625240
C2581	C258	0.356100	0.975470	0.608900
C2591	C259	0.252800	0.959340	0.597290
C2601	C260	0.200000	0.000600	0.583590
C2611	C261	0.270600	0.041370	0.587540
C2621	C262	0.409500	0.892520	0.632140
C2631	C263	0.339000	0.879120	0.662320
C2641	C264	0.310400	0.829150	0.666210
C2651	C265	0.417800	0.805740	0.615410
C2661	C266	0.452200	0.854510	0.609400
C2671	C267	0.354200	0.050520	0.685840
C2681	C268	0.347100	0.060960	0.727310
C2691	C269	0.431100	0.090490	0.736200
C2701	C270	0.489000	0.099350	0.700360
C2711	C271	0.579400	0.128310	0.695560
C2721	C272	0.633500	0.135690	0.659680
C2731	C273	0.722900	0.166770	0.652340
C2741	C274	0.749100	0.162200	0.612970
C2751	C275	0.673100	0.129410	0.596400
C2761	C276	0.621800	0.153660	0.732060
C2771	C277	0.563400	0.187680	0.753440
C2781	C278	0.603000	0.208130	0.788110
C2791	C279	0.757100	0.163300	0.780790
C2801	C280	0.722400	0.141800	0.745940
C2811	C281	0.350100	0.156830	0.627820
C2821	C282	0.291100	0.193400	0.607750
C2831	C283	0.305700	0.185700	0.567520
C2841	C284	0.378400	0.145170	0.563760
C2851	C285	0.419000	0.124670	0.528680
C2861	C286	0.492000	0.085510	0.526250
C2871	C287	0.546900	0.068200	0.491960
C2881	C288	0.616600	0.031440	0.504780
C2891	C289	0.601800	0.027180	0.546350
C2901	C290	0.380200	0.147140	0.490650
C2911	C291	0.402000	0.196360	0.479630
C2921	C292	0.361200	0.214850	0.444830
C2931	C293	0.278600	0.140670	0.430330
C2941	C294	0.317900	0.118580	0.464870
C2951	C295	0.826800	0.512470	0.356960
C2961	C296	0.791800	0.465140	0.345680
C2971	C297	0.877300	0.433300	0.349970
C2981	C298	0.962800	0.462500	0.364700
C2991	C299	0.064600	0.446010	0.374760
C3001	C300	0.143900	0.475470	0.391100
C3011	C301	0.247200	0.459340	0.402710
C3021	C302	0.300000	0.500600	0.416410
C3031	C303	0.229400	0.541370	0.412460
C3041	C304	0.090500	0.392520	0.367860
C3051	C305	0.161000	0.379120	0.337680
C3061	C306	0.189600	0.329150	0.333790
C3071	C307	0.082200	0.305740	0.384590
C3081	C308	0.047800	0.354510	0.390600
C3091	C309	0.145800	0.550520	0.314160
C3101	C310	0.152900	0.560960	0.272690
C3111	C311	0.068900	0.590490	0.263800
C3121	C312	0.011000	0.599350	0.299640
C3131	C313	0.920600	0.628310	0.304440
C3141	C314	0.866500	0.635690	0.340320
C3151	C315	0.777100	0.666770	0.347660
C3161	C316	0.750900	0.662200	0.387030
C3171	C317	0.826900	0.629410	0.403600
C3181	C318	0.878200	0.653660	0.267940
C3191	C319	0.936600	0.687680	0.246560
C3201	C320	0.897000	0.708130	0.211890
C3211	C321	0.742900	0.663300	0.219210
C3221	C322	0.777600	0.641800	0.254060
C3231	C323	0.149900	0.656830	0.372180
C3241	C324	0.208900	0.693400	0.392250
C3251	C325	0.194300	0.685700	0.432480
C3261	C326	0.121600	0.645170	0.436240
C3271	C327	0.081000	0.624670	0.471320
C3281	C328	0.008000	0.585510	0.473750
C3291	C329	0.953100	0.568200	0.508040
C3301	C330	0.883400	0.531440	0.495220
C3311	C331	0.898200	0.527180	0.453650
C3321	C332	0.119800	0.647140	0.509350
C3331	C333	0.098000	0.696360	0.520370
C3341	C334	0.138800	0.714850	0.555170
C3351	C335	0.221400	0.640670	0.569670
C3361	C336	0.182100	0.618580	0.535130
N371	N37	0.071300	0.511940	0.868840
N381	N38	0.864100	0.526820	0.897340
N391	N39	0.847000	0.292820	0.857320
N401	N40	0.939100	0.573310	0.830320
N411	N41	0.104900	0.613340	0.876460
N421	N42	0.197500	0.695610	0.697590
N431	N43	0.903000	0.627810	0.898060
N441	N44	0.029300	0.559680	0.940100
N451	N45	0.798800	0.687900	0.080020
N461	N46	0.428700	0.011940	0.131160
N471	N47	0.635900	0.026820	0.102660
N481	N48	0.653000	0.792820	0.142680
N491	N49	0.560900	0.073310	0.169680
N501	N50	0.395100	0.113340	0.123540
N511	N51	0.302500	0.195610	0.302410
N521	N52	0.597000	0.127810	0.101940
N531	N53	0.470700	0.059680	0.059900
N541	N54	0.701200	0.187900	0.919980
N551	N55	0.571300	0.011940	0.631160
N561	N56	0.364100	0.026820	0.602660
N571	N57	0.347000	0.792820	0.642680
N581	N58	0.439100	0.073310	0.669680
N591	N59	0.604900	0.113340	0.623540
N601	N60	0.697500	0.195610	0.802410
N611	N61	0.403000	0.127810	0.601940
N621	N62	0.529300	0.059680	0.559900
N631	N63	0.298800	0.187900	0.419980
N641	N64	0.928700	0.511940	0.368840
N651	N65	0.135900	0.526820	0.397340
N661	N66	0.153000	0.292820	0.357320
N671	N67	0.060900	0.573310	0.330320
N681	N68	0.895100	0.613340	0.376460
N691	N69	0.802500	0.695610	0.197590
N701	N70	0.097000	0.627810	0.398060
N711	N71	0.970700	0.559680	0.440100
N721	N72	0.201200	0.687900	0.580020
