data_FIFNUE01_clean_PM
_symmetry_space_group_name_H-M	'P1'
_cell_length_a	8.140500
_cell_length_b	10.524500
_cell_length_c	11.429500
_cell_angle_alpha	62.586400
_cell_angle_beta	84.393900
_cell_angle_gamma	77.750000
_symmetry_Int_Tables_number 1

loop_
_symmetry_equiv_pos_as_xyz
'x,y,z'

loop_
_atom_site_label
_atom_site_type_symbol
_atom_site_fract_x
_atom_site_fract_y
_atom_site_fract_z
Co11	Co1	0.627920	0.200320	0.507480
Co21	Co2	0.127920	0.707800	0.492520
H11	H1	0.541700	0.889800	0.633000
H21	H2	0.726600	0.084100	0.798600
H31	H3	0.559100	0.304300	0.214200
H41	H4	0.538400	0.688300	0.829400
H51	H5	0.678100	0.725800	0.185400
H61	H6	0.563200	0.496500	0.010000
H71	H7	0.674800	0.521200	0.384800
H81	H8	0.722200	0.887100	0.002200
H91	H9	0.856000	0.904000	0.540000
H101	H10	0.041700	0.522800	0.367000
H111	H11	0.226600	0.882700	0.201400
H121	H12	0.059100	0.518500	0.785800
H131	H13	0.038400	0.517700	0.170600
H141	H14	0.178100	0.911200	0.814600
H151	H15	0.063200	0.506500	0.990000
H161	H16	0.174800	0.906000	0.615200
H171	H17	0.222200	0.889300	0.997800
H181	H18	0.356000	0.444000	0.460000
C11	C1	0.579800	0.889500	0.709200
C21	C2	0.686300	0.002900	0.804800
C31	C3	0.627600	0.763300	0.941400
C41	C4	0.621000	0.635700	0.072200
C51	C5	0.585200	0.390900	0.208200
C61	C6	0.576300	0.769300	0.826200
C71	C7	0.654200	0.639900	0.188200
C81	C8	0.586100	0.505400	0.085600
C91	C9	0.651500	0.516800	0.307000
C101	C10	0.684400	0.885000	0.927200
C111	C11	0.865100	0.967700	0.455200
C121	C12	0.079800	0.598700	0.290800
C131	C13	0.186300	0.807700	0.195200
C141	C14	0.127600	0.704700	0.058600
C151	C15	0.121000	0.707900	0.927800
C161	C16	0.085200	0.599100	0.791800
C171	C17	0.076300	0.595500	0.173800
C181	C18	0.154200	0.828100	0.811800
C191	C19	0.086100	0.591000	0.914400
C201	C20	0.151500	0.823800	0.693000
C211	C21	0.184400	0.812200	0.072800
C221	C22	0.365100	0.422900	0.544800
N11	N1	0.634300	0.009300	0.693800
N21	N2	0.617900	0.391200	0.319800
N31	N3	0.134300	0.703100	0.306200
N41	N4	0.117900	0.711000	0.680200
O11	O1	0.777400	0.093600	0.405200
O21	O2	0.978900	0.918830	0.397140
O31	O3	0.277400	0.498800	0.594800
O41	O4	0.478900	0.315970	0.602860
