data_FIFPAM_clean_PM
_symmetry_space_group_name_H-M	'P1'
_cell_length_a	8.126600
_cell_length_b	10.481500
_cell_length_c	11.316700
_cell_angle_alpha	62.412700
_cell_angle_beta	84.187000
_cell_angle_gamma	77.367000
_symmetry_Int_Tables_number 1

loop_
_symmetry_equiv_pos_as_xyz
'x,y,z'

loop_
_atom_site_label
_atom_site_type_symbol
_atom_site_fract_x
_atom_site_fract_y
_atom_site_fract_z
Ni11	Ni1	0.489770	0.688150	0.507780
Ni21	Ni2	0.989770	0.195930	0.492220
H11	H1	0.600000	0.573100	0.789800
H21	H2	0.415000	0.381300	0.627400
H31	H3	0.606000	0.374400	0.999200
H41	H4	0.400800	0.178900	0.827400
H51	H5	0.528000	0.220800	0.190400
H61	H6	0.418000	0.986100	0.009800
H71	H7	0.555000	0.994500	0.395000
H81	H8	0.425000	0.776000	0.218000
H91	H9	0.709000	0.381300	0.559400
H101	H10	0.100000	0.362900	0.210200
H111	H11	0.915000	0.008700	0.372600
H121	H12	0.106000	0.373600	0.000800
H131	H13	0.900800	0.006300	0.172600
H141	H14	0.028000	0.411200	0.809600
H151	H15	0.918000	0.995900	0.990200
H161	H16	0.055000	0.389500	0.605000
H171	H17	0.925000	0.994000	0.782000
H181	H18	0.209000	0.940700	0.440600
C11	C1	0.547400	0.492850	0.803300
C21	C2	0.443300	0.381290	0.705420
C31	C3	0.543900	0.373880	0.928240
C41	C4	0.438200	0.258050	0.824500
C51	C5	0.489500	0.252580	0.940840
C61	C6	0.483700	0.123070	0.073060
C71	C7	0.517300	0.125270	0.190660
C81	C8	0.445600	0.993540	0.086520
C91	C9	0.517200	0.001390	0.310620
C101	C10	0.445500	0.875550	0.210500
C111	C11	0.727600	0.454600	0.457600
C121	C12	0.047400	0.296150	0.196700
C131	C13	0.943300	0.086710	0.294580
C141	C14	0.043900	0.302120	0.071760
C151	C15	0.938200	0.082550	0.175500
C161	C16	0.989500	0.193420	0.059160
C171	C17	0.983700	0.196130	0.926940
C181	C18	0.017300	0.315930	0.809340
C191	C19	0.945600	0.080060	0.913480
C201	C20	0.017200	0.312010	0.689380
C211	C21	0.945500	0.086050	0.789500
C221	C22	0.227600	0.912200	0.542400
N11	N1	0.495700	0.498770	0.692060
N21	N2	0.481900	0.875400	0.323000
N31	N3	0.995700	0.190830	0.307940
N41	N4	0.981900	0.198400	0.677000
O11	O1	0.638100	0.580530	0.407180
O21	O2	0.843200	0.406190	0.398640
O31	O3	0.138100	0.987710	0.592820
O41	O4	0.343200	0.804830	0.601360
