data_FIGFOR_clean_PM
_symmetry_space_group_name_H-M	'P1'
_cell_length_a	9.668500
_cell_length_b	9.668500
_cell_length_c	14.887900
_cell_angle_alpha	90.000000
_cell_angle_beta	90.000000
_cell_angle_gamma	120.000000
_symmetry_Int_Tables_number 1

loop_
_symmetry_equiv_pos_as_xyz
'x,y,z'

loop_
_atom_site_label
_atom_site_type_symbol
_atom_site_fract_x
_atom_site_fract_y
_atom_site_fract_z
P11	P1	0.761370	0.606600	0.926440
O11	O1	0.614200	0.479600	0.973100
O21	O2	0.779000	0.774900	0.939600
O31	O3	0.913900	0.621400	0.961600
O41	O4	0.744200	0.564800	0.824800
P21	P2	0.393400	0.154770	0.593110
O51	O5	0.520400	0.134600	0.639770
O61	O6	0.225100	0.004100	0.606270
O71	O7	0.378600	0.292500	0.628270
O81	O8	0.435200	0.179400	0.491470
P31	P3	0.845230	0.238630	0.259770
O91	O9	0.865400	0.385800	0.306430
O101	O10	0.995900	0.221000	0.272930
O111	O11	0.707500	0.086100	0.294930
O121	O12	0.820600	0.255800	0.158130
P41	P4	0.238630	0.393400	0.426440
O131	O13	0.385800	0.520400	0.473100
O141	O14	0.221000	0.225100	0.439600
O151	O15	0.086100	0.378600	0.461600
O161	O16	0.255800	0.435200	0.324800
P51	P5	0.606600	0.845230	0.093110
O171	O17	0.479600	0.865400	0.139770
O181	O18	0.774900	0.995900	0.106270
O191	O19	0.621400	0.707500	0.128270
O201	O20	0.564800	0.820600	0.991470
P61	P6	0.154770	0.761370	0.759770
O211	O21	0.134600	0.614200	0.806430
O221	O22	0.004100	0.779000	0.772930
O231	O23	0.292500	0.913900	0.794930
O241	O24	0.179400	0.744200	0.658130
P71	P7	0.606600	0.761370	0.740230
O251	O25	0.479600	0.614200	0.693570
O261	O26	0.774900	0.779000	0.727070
O271	O27	0.621400	0.913900	0.705070
O281	O28	0.564800	0.744200	0.841870
P81	P8	0.154770	0.393400	0.073560
O291	O29	0.134600	0.520400	0.026900
O301	O30	0.004100	0.225100	0.060400
O311	O31	0.292500	0.378600	0.038400
O321	O32	0.179400	0.435200	0.175200
P91	P9	0.238630	0.845230	0.406890
O331	O33	0.385800	0.865400	0.360230
O341	O34	0.221000	0.995900	0.393730
O351	O35	0.086100	0.707500	0.371730
O361	O36	0.255800	0.820600	0.508530
P101	P10	0.393400	0.238630	0.240230
O371	O37	0.520400	0.385800	0.193570
O381	O38	0.225100	0.221000	0.227070
O391	O39	0.378600	0.086100	0.205070
O401	O40	0.435200	0.255800	0.341870
P111	P11	0.845230	0.606600	0.573560
O411	O41	0.865400	0.479600	0.526900
O421	O42	0.995900	0.774900	0.560400
O431	O43	0.707500	0.621400	0.538400
O441	O44	0.820600	0.564800	0.675200
P121	P12	0.761370	0.154770	0.906890
O451	O45	0.614200	0.134600	0.860230
O461	O46	0.779000	0.004100	0.893730
O471	O47	0.913900	0.292500	0.871730
O481	O48	0.744200	0.179400	0.008530
Zn11	Zn1	0.510020	0.489980	0.083330
Zn21	Zn2	0.510020	0.020040	0.750000
Zn31	Zn3	0.979960	0.489980	0.416670
Zn41	Zn4	0.489980	0.510020	0.583330
Zn51	Zn5	0.489980	0.979960	0.250000
Zn61	Zn6	0.020040	0.510020	0.916670
B11	B1	0.670500	0.835250	0.916670
B21	B2	0.164750	0.835250	0.583330
B31	B3	0.164750	0.329500	0.250000
B41	B4	0.329500	0.164750	0.416670
B51	B5	0.835250	0.164750	0.083330
B61	B6	0.835250	0.670500	0.750000
