data_FIGQUJ_clean_PM
_symmetry_space_group_name_H-M	'P1'
_cell_length_a	8.531000
_cell_length_b	12.570000
_cell_length_c	13.252000
_cell_angle_alpha	105.078000
_cell_angle_beta	90.123000
_cell_angle_gamma	107.139000
_symmetry_Int_Tables_number 1

loop_
_symmetry_equiv_pos_as_xyz
'x,y,z'

loop_
_atom_site_label
_atom_site_type_symbol
_atom_site_fract_x
_atom_site_fract_y
_atom_site_fract_z
Cu11	Cu1	0.492210	0.595960	0.979480
Cu21	Cu2	0.990700	0.594890	0.567270
Cu31	Cu3	0.507790	0.404040	0.020520
Cu41	Cu4	0.009300	0.405110	0.432730
H11	H1	0.232000	0.025400	0.026200
H21	H2	0.449200	0.362300	0.448900
H31	H3	0.496000	0.262900	0.485500
H41	H4	0.483700	0.477100	0.629000
H51	H5	0.344100	0.355300	0.614300
H61	H6	0.681700	0.395600	0.689500
H71	H7	0.535200	0.279600	0.682400
H81	H8	0.052200	0.631500	0.018700
H91	H9	0.007800	0.733500	0.102300
H101	H10	0.014400	0.521300	0.144100
H111	H11	0.156100	0.642600	0.187500
H121	H12	0.821000	0.609400	0.240500
H131	H13	0.972200	0.722800	0.290700
H141	H14	0.400100	0.819400	0.079900
H151	H15	0.258500	0.934300	0.848200
H161	H16	0.333600	0.792600	0.728500
H171	H17	0.441200	0.670500	0.786800
H181	H18	0.127200	0.019600	0.325000
H191	H19	0.048100	0.169900	0.423100
H201	H20	0.111500	0.332900	0.206200
H211	H21	0.211200	0.180200	0.102500
H221	H22	0.768000	0.974600	0.973800
H231	H23	0.550800	0.637700	0.551100
H241	H24	0.504000	0.737100	0.514500
H251	H25	0.516300	0.522900	0.371000
H261	H26	0.655900	0.644700	0.385700
H271	H27	0.318300	0.604400	0.310500
H281	H28	0.464800	0.720400	0.317600
H291	H29	0.947800	0.368500	0.981300
H301	H30	0.992200	0.266500	0.897700
H311	H31	0.985600	0.478700	0.855900
H321	H32	0.843900	0.357400	0.812500
H331	H33	0.179000	0.390600	0.759500
H341	H34	0.027800	0.277200	0.709300
H351	H35	0.599900	0.180600	0.920100
H361	H36	0.741500	0.065700	0.151800
H371	H37	0.666400	0.207400	0.271500
H381	H38	0.558800	0.329500	0.213200
H391	H39	0.872800	0.980400	0.675000
H401	H40	0.951900	0.830100	0.576900
H411	H41	0.888500	0.667100	0.793800
H421	H42	0.788800	0.819800	0.897500
C11	C1	0.692900	0.405000	0.494700
C21	C2	0.516400	0.347500	0.501600
C31	C3	0.463400	0.392500	0.612600
C41	C4	0.562700	0.364700	0.697100
C51	C5	0.531400	0.413000	0.809000
C61	C6	0.807400	0.593100	0.041100
C71	C7	0.985100	0.648500	0.078200
C81	C8	0.036500	0.606200	0.167700
C91	C9	0.940100	0.637500	0.263400
C101	C10	0.969500	0.586200	0.352100
C111	C11	0.386600	0.815500	0.007800
C121	C12	0.320100	0.893600	0.980100
C131	C13	0.302300	0.882900	0.871800
C141	C14	0.346800	0.800300	0.801500
C151	C15	0.410500	0.728700	0.836700
C161	C16	0.130000	0.084100	0.299400
C171	C17	0.183000	0.092200	0.212000
C181	C18	0.078400	0.172600	0.354700
C191	C19	0.115000	0.269800	0.232100
C201	C20	0.176500	0.179000	0.170400
C211	C21	0.251000	0.989900	0.156100
C221	C22	0.307100	0.595000	0.505300
C231	C23	0.483600	0.652500	0.498400
C241	C24	0.536600	0.607500	0.387400
C251	C25	0.437300	0.635300	0.302900
C261	C26	0.468600	0.587000	0.191000
C271	C27	0.192600	0.406900	0.958900
C281	C28	0.014900	0.351500	0.921800
C291	C29	0.963500	0.393800	0.832300
C301	C30	0.059900	0.362500	0.736600
C311	C31	0.030500	0.413800	0.647900
C321	C32	0.613400	0.184500	0.992200
C331	C33	0.679900	0.106400	0.019900
C341	C34	0.697700	0.117100	0.128200
C351	C35	0.653200	0.199700	0.198500
C361	C36	0.589500	0.271300	0.163300
C371	C37	0.870000	0.915900	0.700600
C381	C38	0.817000	0.907800	0.788000
C391	C39	0.921600	0.827400	0.645300
C401	C40	0.885000	0.730200	0.767900
C411	C41	0.823500	0.821000	0.829600
C421	C42	0.749000	0.010100	0.843900
N11	N1	0.432000	0.735900	0.937800
N21	N2	0.263200	0.976600	0.052400
N31	N3	0.064500	0.262800	0.324500
N41	N4	0.568000	0.264100	0.062200
N51	N5	0.736800	0.023400	0.947600
N61	N6	0.935500	0.737200	0.675500
O11	O1	0.753200	0.506200	0.545000
O21	O2	0.982300	0.485600	0.328200
O31	O3	0.521600	0.514300	0.835000
O41	O4	0.769300	0.344100	0.437700
O51	O5	0.741700	0.490500	0.041500
O61	O6	0.732900	0.653900	0.010900
O71	O7	0.526000	0.349400	0.869200
O81	O8	0.969500	0.648300	0.443100
O91	O9	0.304300	0.926800	0.209300
O101	O10	0.246800	0.493800	0.455000
O111	O11	0.017700	0.514400	0.671800
O121	O12	0.478400	0.485700	0.165000
O131	O13	0.230700	0.655900	0.562300
O141	O14	0.258300	0.509500	0.958500
O151	O15	0.267100	0.346100	0.989100
O161	O16	0.474000	0.650600	0.130800
O171	O17	0.030500	0.351700	0.556900
O181	O18	0.695700	0.073200	0.790700
