data_FIGXEY_clean_PM
_symmetry_space_group_name_H-M	'P1'
_cell_length_a	6.592000
_cell_length_b	6.686200
_cell_length_c	6.686200
_cell_angle_alpha	115.365000
_cell_angle_beta	106.435000
_cell_angle_gamma	73.564600
_symmetry_Int_Tables_number 1

loop_
_symmetry_equiv_pos_as_xyz
'x,y,z'

loop_
_atom_site_label
_atom_site_type_symbol
_atom_site_fract_x
_atom_site_fract_y
_atom_site_fract_z
Dy11	Dy1	0.000000	0.000000	0.000000
H11	H1	0.886000	0.464000	0.846000
H21	H2	0.114000	0.846000	0.464000
H31	H3	0.500000	0.070000	0.070000
C11	C1	0.034900	0.467700	0.937700
C21	C2	0.965100	0.937700	0.467700
C31	C3	0.500000	0.929900	0.929900
O11	O1	0.120300	0.311200	0.003800
O21	O2	0.116800	0.629800	0.974800
O31	O3	0.663300	0.859300	0.844900
O41	O4	0.879700	0.003800	0.311200
O51	O5	0.883200	0.974800	0.629800
O61	O6	0.336700	0.844900	0.859300
