data_FIHFAF_clean_PM
_symmetry_space_group_name_H-M	'P1'
_cell_length_a	9.275000
_cell_length_b	12.922000
_cell_length_c	14.564000
_cell_angle_alpha	105.060000
_cell_angle_beta	97.194000
_cell_angle_gamma	96.254000
_symmetry_Int_Tables_number 1

loop_
_symmetry_equiv_pos_as_xyz
'x,y,z'

loop_
_atom_site_label
_atom_site_type_symbol
_atom_site_fract_x
_atom_site_fract_y
_atom_site_fract_z
Co11	Co1	0.445280	0.918850	0.717910
Co21	Co2	0.952940	0.702790	0.873170
Co31	Co3	0.554720	0.081150	0.282090
Co41	Co4	0.047060	0.297210	0.126830
Co51	Co5	0.000000	0.000000	0.000000
H11	H1	0.700700	0.356200	0.833700
H21	H2	0.566700	0.136100	0.580300
H31	H3	0.753000	0.433200	0.588900
H41	H4	0.044400	0.945000	0.210700
H51	H5	0.693800	0.018700	0.892400
H61	H6	0.193300	0.741300	0.738600
H71	H7	0.272900	0.122200	0.946300
H81	H8	0.367100	0.104700	0.869600
H91	H9	0.913800	0.565000	0.011300
H101	H10	0.925400	0.575900	0.116500
H111	H11	0.540600	0.685700	0.674000
H121	H12	0.660800	0.634200	0.713700
H131	H13	0.299300	0.643800	0.166300
H141	H14	0.433300	0.863900	0.419700
H151	H15	0.247000	0.566800	0.411100
H161	H16	0.955600	0.055000	0.789300
H171	H17	0.306200	0.981300	0.107600
H181	H18	0.806700	0.258700	0.261400
H191	H19	0.727100	0.877800	0.053700
H201	H20	0.632900	0.895300	0.130400
H211	H21	0.086200	0.435000	0.988700
H221	H22	0.074600	0.424100	0.883500
H231	H23	0.459400	0.314300	0.326000
H241	H24	0.339200	0.365800	0.286300
C11	C1	0.817600	0.521600	0.777300
C21	C2	0.741000	0.409300	0.719700
C31	C3	0.690800	0.336400	0.766800
C41	C4	0.624600	0.232000	0.713000
C51	C5	0.609600	0.205700	0.616000
C61	C6	0.657100	0.280700	0.568000
C71	C7	0.721900	0.382400	0.620000
C81	C8	0.634500	0.249100	0.460500
C91	C9	0.567400	0.150500	0.763700
C101	C10	0.965800	0.711100	0.088500
C111	C11	0.021700	0.880200	0.161900
C121	C12	0.672100	0.785600	0.781800
C131	C13	0.707100	0.947000	0.867700
C141	C14	0.238000	0.972200	0.864800
C151	C15	0.192100	0.806800	0.783700
C161	C16	0.182400	0.478400	0.222700
C171	C17	0.259000	0.590700	0.280300
C181	C18	0.309200	0.663600	0.233200
C191	C19	0.375400	0.768000	0.287000
C201	C20	0.390400	0.794300	0.384000
C211	C21	0.342900	0.719300	0.432000
C221	C22	0.278100	0.617600	0.380000
C231	C23	0.365500	0.750900	0.539500
C241	C24	0.432600	0.849500	0.236300
C251	C25	0.034200	0.288900	0.911500
C261	C26	0.978300	0.119800	0.838100
C271	C27	0.327900	0.214400	0.218200
C281	C28	0.292900	0.053000	0.132300
C291	C29	0.762000	0.027800	0.135200
C301	C30	0.807900	0.193200	0.216300
N11	N1	0.105800	0.819500	0.849200
N21	N2	0.135500	0.926800	0.902900
N31	N3	0.279200	0.899900	0.789300
N41	N4	0.300500	0.080000	0.897700
N51	N5	0.012400	0.873000	0.071100
N61	N6	0.977300	0.764300	0.021800
N71	N7	0.994100	0.781900	0.176600
N81	N8	0.930900	0.605000	0.069900
N91	N9	0.812400	0.906300	0.902900
N101	N10	0.793600	0.797600	0.848900
N111	N11	0.615900	0.877900	0.791300
N121	N12	0.617900	0.690200	0.715000
N131	N13	0.894200	0.180500	0.150800
N141	N14	0.864500	0.073200	0.097100
N151	N15	0.720800	0.100100	0.210700
N161	N16	0.699500	0.920000	0.102300
N171	N17	0.987600	0.127000	0.928900
N181	N18	0.022700	0.235700	0.978200
N191	N19	0.005900	0.218100	0.823400
N201	N20	0.069100	0.395000	0.930100
N211	N21	0.187600	0.093700	0.097100
N221	N22	0.206400	0.202400	0.151100
N231	N23	0.384100	0.122100	0.208700
N241	N24	0.382100	0.309800	0.285000
O11	O1	0.819700	0.552800	0.866700
O21	O2	0.878700	0.582600	0.734300
O31	O3	0.497600	0.062600	0.706400
O41	O4	0.589300	0.172200	0.851300
O51	O5	0.595500	0.148000	0.419300
O61	O6	0.653200	0.318400	0.417100
O71	O7	0.180300	0.447200	0.133300
O81	O8	0.121300	0.417400	0.265700
O91	O9	0.502400	0.937400	0.293600
O101	O10	0.410700	0.827800	0.148700
O111	O11	0.404500	0.852000	0.580700
O121	O12	0.346800	0.681600	0.582900
