data_FIHXUR_clean_PM
_symmetry_space_group_name_H-M	'P1'
_cell_length_a	5.213300
_cell_length_b	18.414000
_cell_length_c	28.517000
_cell_angle_alpha	90.000000
_cell_angle_beta	90.000000
_cell_angle_gamma	90.000000
_symmetry_Int_Tables_number 1

loop_
_symmetry_equiv_pos_as_xyz
'x,y,z'

loop_
_atom_site_label
_atom_site_type_symbol
_atom_site_fract_x
_atom_site_fract_y
_atom_site_fract_z
Cd11	Cd1	0.102120	0.670250	0.659910
Cd21	Cd2	0.602120	0.329750	0.340090
Cd31	Cd3	0.102120	0.170250	0.840090
Cd41	Cd4	0.602120	0.829750	0.159910
H11	H1	0.306900	0.329100	0.818100
H21	H2	0.563500	0.371500	0.826900
H31	H3	0.155400	0.309700	0.736500
H41	H4	0.145300	0.352700	0.660700
H51	H5	0.788400	0.463500	0.682900
H61	H6	0.807000	0.419800	0.758400
H71	H7	0.615000	0.457000	0.603700
H81	H8	0.376900	0.407000	0.594400
H91	H9	0.344500	0.542900	0.731900
H101	H10	0.715500	0.642900	0.756600
H111	H11	0.575400	0.568500	0.833600
H121	H12	0.761800	0.504800	0.846800
H131	H13	0.455700	0.736500	0.873500
H141	H14	0.646100	0.732800	0.831000
H151	H15	0.464800	0.667000	0.841800
H161	H16	0.692400	0.806500	0.902800
H171	H17	0.647700	0.790200	0.956100
H181	H18	0.913400	0.820000	0.939000
H191	H19	0.978300	0.462000	0.900300
H201	H20	0.224500	0.490500	0.874700
H211	H21	0.228300	0.478200	0.929100
H221	H22	0.483700	0.589800	0.973800
H231	H23	0.275200	0.592300	0.013400
H241	H24	0.296700	0.524000	0.980800
H251	H25	0.183500	0.775300	0.983800
H261	H26	0.304600	0.705100	0.005700
H271	H27	0.968400	0.831800	0.055500
H281	H28	0.589400	0.666500	0.101300
H291	H29	0.806900	0.670900	0.181900
H301	H30	0.063500	0.628500	0.173100
H311	H31	0.655400	0.690300	0.263500
H321	H32	0.645300	0.647300	0.339300
H331	H33	0.288400	0.536500	0.317100
H341	H34	0.307000	0.580200	0.241600
H351	H35	0.115000	0.543000	0.396300
H361	H36	0.876900	0.593000	0.405600
H371	H37	0.844500	0.457100	0.268100
H381	H38	0.215500	0.357100	0.243400
H391	H39	0.075400	0.431500	0.166400
H401	H40	0.261800	0.495200	0.153200
H411	H41	0.955700	0.263500	0.126500
H421	H42	0.146100	0.267200	0.169000
H431	H43	0.964800	0.333000	0.158200
H441	H44	0.192400	0.193500	0.097200
H451	H45	0.147700	0.209800	0.043900
H461	H46	0.413400	0.180000	0.061000
H471	H47	0.478300	0.538000	0.099700
H481	H48	0.724500	0.509500	0.125300
H491	H49	0.728300	0.521800	0.070900
H501	H50	0.983700	0.410200	0.026200
H511	H51	0.775200	0.407700	0.986600
H521	H52	0.796700	0.476000	0.019200
H531	H53	0.683500	0.224700	0.016200
H541	H54	0.804600	0.294900	0.994300
H551	H55	0.468400	0.168200	0.944500
H561	H56	0.089400	0.333500	0.898700
H571	H57	0.306900	0.829100	0.681900
H581	H58	0.563500	0.871500	0.673100
H591	H59	0.155400	0.809700	0.763500
H601	H60	0.145300	0.852700	0.839300
H611	H61	0.788400	0.963500	0.817100
H621	H62	0.807000	0.919800	0.741600
H631	H63	0.615000	0.957000	0.896300
H641	H64	0.376900	0.907000	0.905600
H651	H65	0.344500	0.042900	0.768100
H661	H66	0.715500	0.142900	0.743400
H671	H67	0.575400	0.068500	0.666400
H681	H68	0.761800	0.004800	0.653200
H691	H69	0.455700	0.236500	0.626500
H701	H70	0.646100	0.232800	0.669000
H711	H71	0.464800	0.167000	0.658200
H721	H72	0.692400	0.306500	0.597200
H731	H73	0.647700	0.290200	0.543900
H741	H74	0.913400	0.320000	0.561000
H751	H75	0.978300	0.962000	0.599700
H761	H76	0.224500	0.990500	0.625300
H771	H77	0.228300	0.978200	0.570900
H781	H78	0.483700	0.089800	0.526200
H791	H79	0.275200	0.092300	0.486600
H801	H80	0.296700	0.024000	0.519200
H811	H81	0.183500	0.275300	0.516200
H821	H82	0.304600	0.205100	0.494300
H831	H83	0.968400	0.331800	0.444500
H841	H84	0.589400	0.166500	0.398700
H851	H85	0.806900	0.170900	0.318100
H861	H86	0.063500	0.128500	0.326900
H871	H87	0.655400	0.190300	0.236500
H881	H88	0.645300	0.147300	0.160700
H891	H89	0.288400	0.036500	0.182900
H901	H90	0.307000	0.080200	0.258400
H911	H91	0.115000	0.043000	0.103700
H921	H92	0.876900	0.093000	0.094400
H931	H93	0.844500	0.957100	0.231900
H941	H94	0.215500	0.857100	0.256600
H951	H95	0.075400	0.931500	0.333600
H961	H96	0.261800	0.995200	0.346800
H971	H97	0.955700	0.763500	0.373500
H981	H98	0.146100	0.767200	0.331000
H991	H99	0.964800	0.833000	0.341800
H1001	H100	0.192400	0.693500	0.402800
H1011	H101	0.147700	0.709800	0.456100
H1021	H102	0.413400	0.680000	0.439000
H1031	H103	0.478300	0.038000	0.400300
H1041	H104	0.724500	0.009500	0.374700
H1051	H105	0.728300	0.021800	0.429100
H1061	H106	0.983700	0.910200	0.473800
H1071	H107	0.775200	0.907700	0.513400
H1081	H108	0.796700	0.976000	0.480800
H1091	H109	0.683500	0.724700	0.483800
H1101	H110	0.804600	0.794900	0.505700
H1111	H111	0.468400	0.668200	0.555500
H1121	H112	0.089400	0.833500	0.601300
C11	C1	0.624800	0.263700	0.811900
C21	C2	0.481900	0.335300	0.807200
C31	C3	0.478900	0.362100	0.756200
C41	C4	0.282900	0.341100	0.726000
C51	C5	0.277600	0.366900	0.680600
C61	C6	0.467300	0.414100	0.663700
C71	C7	0.659700	0.432600	0.693500
C81	C8	0.670500	0.406900	0.739200
C91	C9	0.445100	0.444300	0.614900
C101	C10	0.272900	0.511400	0.612200
C111	C11	0.195100	0.557900	0.746900
C121	C12	0.857200	0.612500	0.759300
C131	C13	0.753700	0.556100	0.839000
C141	C14	0.855600	0.600500	0.880100
C151	C15	0.770200	0.672500	0.887300
C161	C16	0.565000	0.705200	0.855400
C171	C17	0.864300	0.712900	0.923900
C181	C18	0.771000	0.789300	0.931100
C191	C19	0.042700	0.682100	0.954200
C201	C20	0.124300	0.610100	0.948100
C211	C21	0.037500	0.570000	0.910500
C221	C22	0.125000	0.493300	0.903000
C231	C23	0.312000	0.575900	0.982100
C241	C24	0.145800	0.726600	0.994700
C251	C25	0.903500	0.785200	0.059900
C261	C26	0.701100	0.695500	0.084100
C271	C27	0.124800	0.736300	0.188100
C281	C28	0.981900	0.664700	0.192800
C291	C29	0.978900	0.637900	0.243800
C301	C30	0.782900	0.658900	0.274000
C311	C31	0.777600	0.633100	0.319400
C321	C32	0.967300	0.585900	0.336300
C331	C33	0.159700	0.567400	0.306500
C341	C34	0.170500	0.593100	0.260800
C351	C35	0.945100	0.555700	0.385100
C361	C36	0.772900	0.488600	0.387800
C371	C37	0.695100	0.442100	0.253100
C381	C38	0.357200	0.387500	0.240700
C391	C39	0.253700	0.443900	0.161000
C401	C40	0.355600	0.399500	0.119900
C411	C41	0.270200	0.327500	0.112700
C421	C42	0.065000	0.294800	0.144600
C431	C43	0.364300	0.287100	0.076100
C441	C44	0.271000	0.210700	0.068900
C451	C45	0.542700	0.317900	0.045800
C461	C46	0.624300	0.389900	0.051900
C471	C47	0.537500	0.430000	0.089500
C481	C48	0.625000	0.506700	0.097000
C491	C49	0.812000	0.424100	0.017900
C501	C50	0.645800	0.273400	0.005300
C511	C51	0.403500	0.214800	0.940100
C521	C52	0.201100	0.304500	0.915900
C531	C53	0.624800	0.763700	0.688100
C541	C54	0.481900	0.835300	0.692800
C551	C55	0.478900	0.862100	0.743800
C561	C56	0.282900	0.841100	0.774000
C571	C57	0.277600	0.866900	0.819400
C581	C58	0.467300	0.914100	0.836300
C591	C59	0.659700	0.932600	0.806500
C601	C60	0.670500	0.906900	0.760800
C611	C61	0.445100	0.944300	0.885100
C621	C62	0.272900	0.011400	0.887800
C631	C63	0.195100	0.057900	0.753100
C641	C64	0.857200	0.112500	0.740700
C651	C65	0.753700	0.056100	0.661000
C661	C66	0.855600	0.100500	0.619900
C671	C67	0.770200	0.172500	0.612700
C681	C68	0.565000	0.205200	0.644600
C691	C69	0.864300	0.212900	0.576100
C701	C70	0.771000	0.289300	0.568900
C711	C71	0.042700	0.182100	0.545800
C721	C72	0.124300	0.110100	0.551900
C731	C73	0.037500	0.070000	0.589500
C741	C74	0.125000	0.993300	0.597000
C751	C75	0.312000	0.075900	0.517900
C761	C76	0.145800	0.226600	0.505300
C771	C77	0.903500	0.285200	0.440100
C781	C78	0.701100	0.195500	0.415900
C791	C79	0.124800	0.236300	0.311900
C801	C80	0.981900	0.164700	0.307200
C811	C81	0.978900	0.137900	0.256200
C821	C82	0.782900	0.158900	0.226000
C831	C83	0.777600	0.133100	0.180600
C841	C84	0.967300	0.085900	0.163700
C851	C85	0.159700	0.067400	0.193500
C861	C86	0.170500	0.093100	0.239200
C871	C87	0.945100	0.055700	0.114900
C881	C88	0.772900	0.988600	0.112200
C891	C89	0.695100	0.942100	0.246900
C901	C90	0.357200	0.887500	0.259300
C911	C91	0.253700	0.943900	0.339000
C921	C92	0.355600	0.899500	0.380100
C931	C93	0.270200	0.827500	0.387300
C941	C94	0.065000	0.794800	0.355400
C951	C95	0.364300	0.787100	0.423900
C961	C96	0.271000	0.710700	0.431100
C971	C97	0.542700	0.817900	0.454200
C981	C98	0.624300	0.889900	0.448100
C991	C99	0.537500	0.930000	0.410500
C1001	C100	0.625000	0.006700	0.403000
C1011	C101	0.812000	0.924100	0.482100
C1021	C102	0.645800	0.773400	0.494700
C1031	C103	0.403500	0.714800	0.559900
C1041	C104	0.201100	0.804500	0.584100
N11	N1	0.740300	0.767100	0.093780
N21	N2	0.960700	0.730200	0.033800
N31	N3	0.832700	0.671100	0.048900
N41	N4	0.902900	0.569500	0.795900
N51	N5	0.128200	0.532700	0.787940
N61	N6	0.036600	0.606600	0.727490
N71	N7	0.240300	0.232900	0.906220
N81	N8	0.460700	0.269800	0.966200
N91	N9	0.332700	0.328900	0.951100
N101	N10	0.402900	0.430500	0.204100
N111	N11	0.628200	0.467300	0.212060
N121	N12	0.536600	0.393400	0.272510
N131	N13	0.740300	0.267100	0.406220
N141	N14	0.960700	0.230200	0.466200
N151	N15	0.832700	0.171100	0.451100
N161	N16	0.902900	0.069500	0.704100
N171	N17	0.128200	0.032700	0.712060
N181	N18	0.036600	0.106600	0.772510
N191	N19	0.240300	0.732900	0.593780
N201	N20	0.460700	0.769800	0.533800
N211	N21	0.332700	0.828900	0.548900
N221	N22	0.402900	0.930500	0.295900
N231	N23	0.628200	0.967300	0.287940
N241	N24	0.536600	0.893400	0.227490
O11	O1	0.083800	0.508200	0.586200
O21	O2	0.328400	0.564300	0.637470
O31	O3	0.860900	0.267600	0.819000
O41	O4	0.500500	0.205000	0.808200
O51	O5	0.583800	0.491800	0.413800
O61	O6	0.828400	0.435700	0.362530
O71	O7	0.360900	0.732400	0.181000
O81	O8	0.000500	0.795000	0.191800
O91	O9	0.083800	0.008200	0.913800
O101	O10	0.328400	0.064300	0.862530
O111	O11	0.860900	0.767600	0.681000
O121	O12	0.500500	0.705000	0.691800
O131	O13	0.583800	0.991800	0.086200
O141	O14	0.828400	0.935700	0.137470
O151	O15	0.360900	0.232400	0.319000
O161	O16	0.000500	0.295000	0.308200
