data_FIJDOS_clean_PM
_symmetry_space_group_name_H-M	'P1'
_cell_length_a	6.836500
_cell_length_b	15.144400
_cell_length_c	15.144400
_cell_angle_alpha	62.222700
_cell_angle_beta	81.345600
_cell_angle_gamma	98.654400
_symmetry_Int_Tables_number 1

loop_
_symmetry_equiv_pos_as_xyz
'x,y,z'

loop_
_atom_site_label
_atom_site_type_symbol
_atom_site_fract_x
_atom_site_fract_y
_atom_site_fract_z
Zn11	Zn1	0.889260	0.684390	0.577920
Zn21	Zn2	0.467180	0.577920	0.737690
Zn31	Zn3	0.204870	0.737690	0.684390
Zn41	Zn4	0.110740	0.315610	0.422080
Zn51	Zn5	0.532820	0.422080	0.262310
Zn61	Zn6	0.795130	0.262310	0.315610
H11	H1	0.669500	0.018100	0.529700
H21	H2	0.199200	0.529700	0.452200
H31	H3	0.651400	0.452200	0.018100
H41	H4	0.330500	0.981900	0.470300
H51	H5	0.800800	0.470300	0.547800
H61	H6	0.348600	0.547800	0.981900
C11	C1	0.648340	0.823880	0.614060
C21	C2	0.835020	0.912180	0.553320
C31	C3	0.035880	0.899470	0.534730
C41	C4	0.805340	0.011250	0.517630
C51	C5	0.262400	0.614060	0.562060
C61	C6	0.388340	0.553320	0.534500
C71	C7	0.570610	0.534730	0.565800
C81	C8	0.322970	0.517630	0.471120
C91	C9	0.824460	0.562060	0.823880
C101	C10	0.922840	0.534500	0.912180
C111	C11	0.136410	0.565800	0.899470
C121	C12	0.794090	0.471120	0.011250
C131	C13	0.351660	0.176120	0.385940
C141	C14	0.164980	0.087820	0.446680
C151	C15	0.964120	0.100530	0.465270
C161	C16	0.194660	0.988750	0.482370
C171	C17	0.737600	0.385940	0.437940
C181	C18	0.611660	0.446680	0.465500
C191	C19	0.429390	0.465270	0.434200
C201	C20	0.677030	0.482370	0.528880
C211	C21	0.175540	0.437940	0.176120
C221	C22	0.077160	0.465500	0.087820
C231	C23	0.863590	0.434200	0.100530
C241	C24	0.205910	0.528880	0.988750
O11	O1	0.670540	0.733080	0.651660
O21	O2	0.477210	0.843950	0.625520
O31	O3	0.082430	0.808240	0.563050
O41	O4	0.322200	0.651660	0.615260
O51	O5	0.102730	0.625520	0.530530
O61	O6	0.645480	0.563050	0.628710
O71	O7	0.937460	0.615260	0.733080
O81	O8	0.633260	0.530530	0.843950
O91	O9	0.274190	0.628710	0.808240
O101	O10	0.329460	0.266920	0.348340
O111	O11	0.522790	0.156050	0.374480
O121	O12	0.917570	0.191760	0.436950
O131	O13	0.677800	0.348340	0.384740
O141	O14	0.897270	0.374480	0.469470
O151	O15	0.354520	0.436950	0.371290
O161	O16	0.062540	0.384740	0.266920
O171	O17	0.366740	0.469470	0.156050
O181	O18	0.725810	0.371290	0.191760
