data_FIJDIM12_clean_PM
_symmetry_space_group_name_H-M	'P1'
_cell_length_a	10.711500
_cell_length_b	13.509000
_cell_length_c	14.392000
_cell_angle_alpha	76.734500
_cell_angle_beta	68.152800
_cell_angle_gamma	66.643100
_symmetry_Int_Tables_number 1

loop_
_symmetry_equiv_pos_as_xyz
'x,y,z'

loop_
_atom_site_label
_atom_site_type_symbol
_atom_site_fract_x
_atom_site_fract_y
_atom_site_fract_z
Mn11	Mn1	0.994280	0.039120	0.609380
Mn21	Mn2	0.642780	0.460880	0.890620
Mn31	Mn3	0.005720	0.960880	0.390620
Mn41	Mn4	0.357220	0.539120	0.109380
Mn51	Mn5	0.717540	0.250000	0.750000
Mn61	Mn6	0.282460	0.750000	0.250000
H11	H1	0.798400	0.813000	0.751600
H21	H2	0.453200	0.042600	0.907600
H31	H3	0.702400	0.680200	0.846200
H41	H4	0.363900	0.909800	0.010600
H51	H5	0.161200	0.874300	0.884700
H61	H6	0.843700	0.161900	0.948500
H71	H7	0.363000	0.687000	0.748400
H81	H8	0.403400	0.457400	0.592400
H91	H9	0.228800	0.819800	0.653800
H101	H10	0.284300	0.590200	0.489400
H111	H11	0.920200	0.625700	0.615300
H121	H12	0.954100	0.338100	0.551500
H131	H13	0.201600	0.187000	0.248400
H141	H14	0.546800	0.957400	0.092400
H151	H15	0.297600	0.319800	0.153800
H161	H16	0.636100	0.090200	0.989400
H171	H17	0.838800	0.125700	0.115300
H181	H18	0.156300	0.838100	0.051500
H191	H19	0.637000	0.313000	0.251600
H201	H20	0.596600	0.542600	0.407600
H211	H21	0.771200	0.180200	0.346200
H221	H22	0.715700	0.409800	0.510600
H231	H23	0.079800	0.374300	0.384700
H241	H24	0.045900	0.661900	0.448500
C11	C1	0.701700	0.025100	0.759500
C21	C2	0.635600	0.940900	0.820100
C31	C3	0.708700	0.833000	0.803200
C41	C4	0.505500	0.968600	0.896600
C51	C5	0.652900	0.753600	0.860400
C61	C6	0.451200	0.889900	0.956900
C71	C7	0.524700	0.781500	0.938500
C81	C8	0.468500	0.694800	0.004000
C91	C9	0.000700	0.044300	0.793700
C101	C10	0.002000	0.022900	0.899700
C111	C11	0.095600	0.925600	0.931400
C121	C12	0.907700	0.095700	0.969300
C131	C13	0.486300	0.474900	0.740500
C141	C14	0.396600	0.559100	0.679900
C151	C15	0.344900	0.667000	0.696800
C161	C16	0.370700	0.531400	0.603400
C171	C17	0.266900	0.746400	0.639600
C181	C18	0.298000	0.610100	0.543100
C191	C19	0.244700	0.718500	0.561500
C201	C20	0.167300	0.805200	0.496000
C211	C21	0.838700	0.455700	0.706300
C221	C22	0.924600	0.477100	0.600300
C231	C23	0.952600	0.574400	0.568600
C241	C24	0.972700	0.404300	0.530700
C251	C25	0.298300	0.974900	0.240500
C261	C26	0.364400	0.059100	0.179900
C271	C27	0.291300	0.167000	0.196800
C281	C28	0.494500	0.031400	0.103400
C291	C29	0.347100	0.246400	0.139600
C301	C30	0.548800	0.110100	0.043100
C311	C31	0.475300	0.218500	0.061500
C321	C32	0.531500	0.305200	0.996000
C331	C33	0.999300	0.955700	0.206300
C341	C34	0.998000	0.977100	0.100300
C351	C35	0.904400	0.074400	0.068600
C361	C36	0.092300	0.904300	0.030700
C371	C37	0.513700	0.525100	0.259500
C381	C38	0.603400	0.440900	0.320100
C391	C39	0.655100	0.333000	0.303200
C401	C40	0.629300	0.468600	0.396600
C411	C41	0.733100	0.253600	0.360400
C421	C42	0.702000	0.389900	0.456900
C431	C43	0.755300	0.281500	0.438500
C441	C44	0.832700	0.194800	0.504000
C451	C45	0.161300	0.544300	0.293700
C461	C46	0.075400	0.522900	0.399700
C471	C47	0.047400	0.425600	0.431400
C481	C48	0.027300	0.595700	0.469300
O11	O1	0.817010	0.991880	0.691900
O21	O2	0.636690	0.121320	0.783300
O31	O3	0.518650	0.601570	0.975530
O41	O4	0.368750	0.716500	0.086000
O51	O5	0.081410	0.973080	0.734700
O61	O6	0.919480	0.133840	0.765800
O71	O7	0.500790	0.508120	0.808100
O81	O8	0.541310	0.378680	0.716700
O91	O9	0.095750	0.898430	0.524470
O101	O10	0.171250	0.783500	0.414000
O111	O11	0.789190	0.526920	0.765300
O121	O12	0.819120	0.366160	0.734200
O131	O13	0.182990	0.008120	0.308100
O141	O14	0.363310	0.878680	0.216700
O151	O15	0.481350	0.398430	0.024470
O161	O16	0.631250	0.283500	0.914000
O171	O17	0.918590	0.026920	0.265300
O181	O18	0.080520	0.866160	0.234200
O191	O19	0.499210	0.491880	0.191900
O201	O20	0.458690	0.621320	0.283300
O211	O21	0.904250	0.101570	0.475530
O221	O22	0.828750	0.216500	0.586000
O231	O23	0.210810	0.473080	0.234700
O241	O24	0.180880	0.633840	0.265800
