data_FIJDIM09_clean_PM
_symmetry_space_group_name_H-M	'P1'
_cell_length_a	10.854200
_cell_length_b	13.502100
_cell_length_c	14.451200
_cell_angle_alpha	76.376700
_cell_angle_beta	67.942000
_cell_angle_gamma	66.300300
_symmetry_Int_Tables_number 1

loop_
_symmetry_equiv_pos_as_xyz
'x,y,z'

loop_
_atom_site_label
_atom_site_type_symbol
_atom_site_fract_x
_atom_site_fract_y
_atom_site_fract_z
Mn11	Mn1	0.860980	0.037940	0.111380
Mn21	Mn2	0.510300	0.462060	0.388620
Mn31	Mn3	0.139020	0.962060	0.888620
Mn41	Mn4	0.489700	0.537940	0.611380
Mn51	Mn5	0.786210	0.250000	0.250000
Mn61	Mn6	0.213790	0.750000	0.750000
H11	H1	0.201400	0.180100	0.848300
H21	H2	0.295000	0.312200	0.753200
H31	H3	0.955900	0.540800	0.907400
H41	H4	0.868300	0.407800	0.008800
H51	H5	0.550700	0.159000	0.451600
H61	H6	0.578500	0.878200	0.383800
H71	H7	0.729800	0.319900	0.651700
H81	H8	0.860400	0.187800	0.746800
H91	H9	0.904100	0.959200	0.592600
H101	H10	0.784900	0.092200	0.491200
H111	H11	0.661300	0.341000	0.048400
H121	H12	0.340500	0.621800	0.116200
H131	H13	0.798600	0.819900	0.151700
H141	H14	0.705000	0.687800	0.246800
H151	H15	0.044100	0.459200	0.092600
H161	H16	0.131700	0.592200	0.991200
H171	H17	0.449300	0.841000	0.548400
H181	H18	0.421500	0.121800	0.616200
H191	H19	0.270200	0.680100	0.348300
H201	H20	0.139600	0.812200	0.253200
H211	H21	0.095900	0.040800	0.407400
H221	H22	0.215100	0.907800	0.508800
H231	H23	0.338700	0.659000	0.951600
H241	H24	0.659500	0.378200	0.883800
C11	C1	0.969360	0.194800	0.003960
C21	C2	0.026150	0.280710	0.939190
C31	C3	0.153160	0.252290	0.861590
C41	C4	0.208210	0.331810	0.803770
C51	C5	0.135350	0.439950	0.820550
C61	C6	0.006800	0.468120	0.896480
C71	C7	0.953340	0.388450	0.956670
C81	C8	0.198950	0.524670	0.759430
C91	C9	0.665970	0.044140	0.296320
C101	C10	0.578510	0.021610	0.401770
C111	C11	0.530680	0.095000	0.471040
C121	C12	0.547320	0.927090	0.430470
C131	C13	0.668120	0.305200	0.496040
C141	C14	0.746050	0.219290	0.560810
C151	C15	0.767040	0.247710	0.638410
C161	C16	0.843790	0.168190	0.696230
C171	C17	0.895850	0.060050	0.679450
C181	C18	0.871400	0.031880	0.603520
C191	C19	0.798460	0.111550	0.543330
C201	C20	0.983050	0.975330	0.740570
C211	C21	0.506430	0.455860	0.203680
C221	C22	0.501890	0.478390	0.098230
C231	C23	0.596720	0.405000	0.028960
C241	C24	0.404880	0.572910	0.069530
C251	C25	0.030640	0.805200	0.996040
C261	C26	0.973850	0.719290	0.060810
C271	C27	0.846840	0.747710	0.138410
C281	C28	0.791790	0.668190	0.196230
C291	C29	0.864650	0.560050	0.179450
C301	C30	0.993200	0.531880	0.103520
C311	C31	0.046660	0.611550	0.043330
C321	C32	0.801050	0.475330	0.240570
C331	C33	0.334030	0.955860	0.703680
C341	C34	0.421490	0.978390	0.598230
C351	C35	0.469320	0.905000	0.528960
C361	C36	0.452680	0.072910	0.569530
C371	C37	0.331880	0.694800	0.503960
C381	C38	0.253950	0.780710	0.439190
C391	C39	0.232960	0.752290	0.361590
C401	C40	0.156210	0.831810	0.303770
C411	C41	0.104150	0.939950	0.320550
C421	C42	0.128600	0.968120	0.396480
C431	C43	0.201540	0.888450	0.456670
C441	C44	0.016950	0.024670	0.259430
C451	C45	0.493570	0.544140	0.796320
C461	C46	0.498110	0.521610	0.901770
C471	C47	0.403280	0.595000	0.971040
C481	C48	0.595120	0.427090	0.930470
O11	O1	0.017530	0.101380	0.975420
O21	O2	0.871800	0.215680	0.086260
O31	O3	0.135900	0.620480	0.782480
O41	O4	0.313490	0.490990	0.691230
O51	O5	0.686260	0.133110	0.268910
O61	O6	0.717060	0.972270	0.237610
O71	O7	0.594330	0.398620	0.524580
O81	O8	0.673740	0.284320	0.413740
O91	O9	0.038860	0.879520	0.717520
O101	O10	0.995710	0.009010	0.808770
O111	O11	0.588280	0.366890	0.231090
O121	O12	0.426940	0.527730	0.262390
O131	O13	0.982470	0.898620	0.024580
O141	O14	0.128200	0.784320	0.913740
O151	O15	0.864100	0.379520	0.217520
O161	O16	0.686510	0.509010	0.308770
O171	O17	0.313740	0.866890	0.731090
O181	O18	0.282940	0.027730	0.762390
O191	O19	0.405670	0.601380	0.475420
O201	O20	0.326260	0.715680	0.586260
O211	O21	0.961140	0.120480	0.282480
O221	O22	0.004290	0.990990	0.191230
O231	O23	0.411720	0.633110	0.768910
O241	O24	0.573060	0.472270	0.737610
