data_FIJDIM10_clean_PM
_symmetry_space_group_name_H-M	'P1'
_cell_length_a	10.652700
_cell_length_b	13.533900
_cell_length_c	14.399400
_cell_angle_alpha	76.940400
_cell_angle_beta	68.290400
_cell_angle_gamma	66.824000
_symmetry_Int_Tables_number 1

loop_
_symmetry_equiv_pos_as_xyz
'x,y,z'

loop_
_atom_site_label
_atom_site_type_symbol
_atom_site_fract_x
_atom_site_fract_y
_atom_site_fract_z
Mn11	Mn1	0.003280	0.960310	0.891370
Mn21	Mn2	0.354960	0.539690	0.608630
Mn31	Mn3	0.996720	0.039690	0.108630
Mn41	Mn4	0.645040	0.460310	0.391370
Mn51	Mn5	0.279790	0.750000	0.750000
Mn61	Mn6	0.720210	0.250000	0.250000
H11	H1	0.224360	0.830020	0.155660
H21	H2	0.365800	0.689480	0.256560
H31	H3	0.405770	0.445730	0.090610
H41	H4	0.279210	0.587200	0.981720
H51	H5	0.161370	0.826130	0.556830
H61	H6	0.830540	0.134840	0.621700
H71	H7	0.710040	0.669980	0.344340
H81	H8	0.811840	0.810520	0.243440
H91	H9	0.442110	0.054270	0.409390
H101	H10	0.348130	0.912800	0.518280
H111	H11	0.044330	0.673870	0.943170
H121	H12	0.087080	0.365160	0.878300
H131	H13	0.775640	0.169980	0.844340
H141	H14	0.634200	0.310520	0.743440
H151	H15	0.594230	0.554270	0.909390
H161	H16	0.720790	0.412800	0.018280
H171	H17	0.838630	0.173870	0.443170
H181	H18	0.169460	0.865160	0.378300
H191	H19	0.289960	0.330020	0.655660
H201	H20	0.188160	0.189480	0.756560
H211	H21	0.557890	0.945730	0.590610
H221	H22	0.651870	0.087200	0.481720
H231	H23	0.955670	0.326130	0.056830
H241	H24	0.912920	0.634840	0.121700
C11	C1	0.167350	0.804490	0.995550
C21	C2	0.245070	0.718110	0.060650
C31	C3	0.267710	0.746440	0.139500
C41	C4	0.345910	0.666910	0.197070
C51	C5	0.397440	0.558200	0.179300
C61	C6	0.369660	0.529920	0.103080
C71	C7	0.296180	0.609660	0.042620
C81	C8	0.487980	0.474320	0.239440
C91	C9	0.994200	0.955820	0.707500
C101	C10	0.995860	0.978250	0.600310
C111	C11	0.091550	0.902360	0.531720
C121	C12	0.904110	0.075790	0.568750
C131	C13	0.467390	0.695510	0.504450
C141	C14	0.523830	0.781890	0.439350
C151	C15	0.653650	0.753560	0.360500
C161	C16	0.709890	0.833090	0.302930
C171	C17	0.634940	0.941800	0.320700
C181	C18	0.502660	0.970080	0.396920
C191	C19	0.448460	0.890340	0.457380
C201	C20	0.701740	0.025680	0.260560
C211	C21	0.157520	0.544180	0.792500
C221	C22	0.074420	0.521750	0.899690
C231	C23	0.025630	0.597640	0.968280
C241	C24	0.048650	0.424210	0.931250
C251	C25	0.832650	0.195510	0.004450
C261	C26	0.754930	0.281890	0.939350
C271	C27	0.732290	0.253560	0.860500
C281	C28	0.654090	0.333090	0.802930
C291	C29	0.602560	0.441800	0.820700
C301	C30	0.630340	0.470080	0.896920
C311	C31	0.703820	0.390340	0.957380
C321	C32	0.512020	0.525680	0.760560
C331	C33	0.005800	0.044180	0.292500
C341	C34	0.004140	0.021750	0.399690
C351	C35	0.908450	0.097640	0.468280
C361	C36	0.095890	0.924210	0.431250
C371	C37	0.532610	0.304490	0.495550
C381	C38	0.476170	0.218110	0.560650
C391	C39	0.346350	0.246440	0.639500
C401	C40	0.290110	0.166910	0.697070
C411	C41	0.365060	0.058200	0.679300
C421	C42	0.497340	0.029920	0.603080
C431	C43	0.551540	0.109660	0.542620
C441	C44	0.298260	0.974320	0.739440
C451	C45	0.842480	0.455820	0.207500
C461	C46	0.925580	0.478250	0.100310
C471	C47	0.974370	0.402360	0.031720
C481	C48	0.951350	0.575790	0.068750
O11	O1	0.096320	0.898620	0.024000
O21	O2	0.170020	0.783000	0.913500
O31	O3	0.543490	0.378270	0.215430
O41	O4	0.503750	0.508150	0.307510
O51	O5	0.075640	0.865900	0.736260
O61	O6	0.911370	0.027150	0.767290
O71	O7	0.518940	0.601380	0.476000
O81	O8	0.366520	0.717000	0.586500
O91	O9	0.637190	0.121730	0.284570
O101	O10	0.819410	0.991850	0.192490
O111	O11	0.177800	0.634100	0.763740
O121	O12	0.205810	0.472850	0.732710
O131	O13	0.903680	0.101380	0.976000
O141	O14	0.829980	0.217000	0.086500
O151	O15	0.456510	0.621730	0.784570
O161	O16	0.496250	0.491850	0.692490
O171	O17	0.924360	0.134100	0.263740
O181	O18	0.088630	0.972850	0.232710
O191	O19	0.481060	0.398620	0.524000
O201	O20	0.633480	0.283000	0.413500
O211	O21	0.362810	0.878270	0.715430
O221	O22	0.180590	0.008150	0.807510
O231	O23	0.822200	0.365900	0.236260
O241	O24	0.794190	0.527150	0.267290
