data_FIJDIM_clean_PM
_symmetry_space_group_name_H-M	'P1'
_cell_length_a	10.584200
_cell_length_b	13.473800
_cell_length_c	14.420000
_cell_angle_alpha	77.220300
_cell_angle_beta	68.469500
_cell_angle_gamma	66.873100
_symmetry_Int_Tables_number 1

loop_
_symmetry_equiv_pos_as_xyz
'x,y,z'

loop_
_atom_site_label
_atom_site_type_symbol
_atom_site_fract_x
_atom_site_fract_y
_atom_site_fract_z
Mn11	Mn1	0.358370	0.037050	0.611350
Mn21	Mn2	0.006770	0.462950	0.888650
Mn31	Mn3	0.641630	0.962950	0.388650
Mn41	Mn4	0.993230	0.537050	0.111350
Mn51	Mn5	0.281610	0.250000	0.750000
Mn61	Mn6	0.718390	0.750000	0.250000
H11	H1	0.361000	0.409500	0.511900
H21	H2	0.700800	0.180400	0.347000
H31	H3	0.450800	0.542400	0.409800
H41	H4	0.793700	0.313100	0.249900
H51	H5	0.038500	0.164800	0.946800
H61	H6	0.089900	0.869900	0.887100
H71	H7	0.282400	0.090500	0.988100
H81	H8	0.228200	0.319600	0.153000
H91	H9	0.403000	0.957600	0.090200
H101	H10	0.356700	0.186900	0.250100
H111	H11	0.150100	0.335200	0.553200
H121	H12	0.846900	0.630100	0.612900
H131	H13	0.639000	0.590500	0.488100
H141	H14	0.299200	0.819600	0.653000
H151	H15	0.549200	0.457600	0.590200
H161	H16	0.206300	0.686900	0.750100
H171	H17	0.961500	0.835200	0.053200
H181	H18	0.910100	0.130100	0.112900
H191	H19	0.717600	0.909500	0.011900
H201	H20	0.771800	0.680400	0.847000
H211	H21	0.597000	0.042400	0.909800
H221	H22	0.643300	0.813100	0.749900
H231	H23	0.849900	0.664800	0.446800
H241	H24	0.153100	0.369900	0.387100
C11	C1	0.467000	0.194800	0.505400
C21	C2	0.522000	0.281800	0.440400
C31	C3	0.448800	0.389500	0.458300
C41	C4	0.650700	0.253900	0.361100
C51	C5	0.503600	0.468500	0.398100
C61	C6	0.705400	0.333300	0.303100
C71	C7	0.634000	0.441600	0.321000
C81	C8	0.697500	0.526200	0.259600
C91	C9	0.163400	0.042100	0.794700
C101	C10	0.076600	0.021400	0.900600
C111	C11	0.022900	0.097500	0.968300
C121	C12	0.053400	0.923200	0.932800
C131	C13	0.167200	0.305200	0.994600
C141	C14	0.244200	0.218200	0.059600
C151	C15	0.296600	0.110500	0.041700
C161	C16	0.265700	0.246100	0.138900
C171	C17	0.370200	0.031500	0.101900
C181	C18	0.341800	0.166700	0.196900
C191	C19	0.396600	0.058400	0.179000
C201	C20	0.483300	0.973800	0.240400
C211	C21	0.000200	0.457900	0.705300
C221	C22	0.998600	0.478600	0.599400
C231	C23	0.088700	0.402500	0.531700
C241	C24	0.909400	0.576800	0.567200
C251	C25	0.533000	0.805200	0.494600
C261	C26	0.478000	0.718200	0.559600
C271	C27	0.551200	0.610500	0.541700
C281	C28	0.349300	0.746100	0.638900
C291	C29	0.496400	0.531500	0.601900
C301	C30	0.294600	0.666700	0.696900
C311	C31	0.366000	0.558400	0.679000
C321	C32	0.302500	0.473800	0.740400
C331	C33	0.836600	0.957900	0.205300
C341	C34	0.923400	0.978600	0.099400
C351	C35	0.977100	0.902500	0.031700
C361	C36	0.946600	0.076800	0.067200
C371	C37	0.832800	0.694800	0.005400
C381	C38	0.755800	0.781800	0.940400
C391	C39	0.703400	0.889500	0.958300
C401	C40	0.734300	0.753900	0.861100
C411	C41	0.629800	0.968500	0.898100
C421	C42	0.658200	0.833300	0.803100
C431	C43	0.603400	0.941600	0.821000
C441	C44	0.516700	0.026200	0.759600
C451	C45	0.999800	0.542100	0.294700
C461	C46	0.001400	0.521400	0.400600
C471	C47	0.911300	0.597500	0.468300
C481	C48	0.090600	0.423200	0.432800
O11	O1	0.367520	0.215350	0.587210
O21	O2	0.517290	0.101810	0.475410
O31	O3	0.811760	0.491780	0.190900
O41	O4	0.634660	0.622080	0.284200
O51	O5	0.216240	0.968920	0.737600
O61	O6	0.180470	0.132960	0.766100
O71	O7	0.170080	0.284650	0.912790
O81	O8	0.094510	0.398190	0.024590
O91	O9	0.494440	0.008220	0.309100
O101	O10	0.540940	0.877920	0.215800
O111	O11	0.922760	0.531080	0.762400
O121	O12	0.079530	0.367040	0.733900
O131	O13	0.632480	0.784650	0.412790
O141	O14	0.482710	0.898190	0.524590
O151	O15	0.188240	0.508220	0.809100
O161	O16	0.365340	0.377920	0.715800
O171	O17	0.783760	0.031080	0.262400
O181	O18	0.819530	0.867040	0.233900
O191	O19	0.829920	0.715350	0.087210
O201	O20	0.905490	0.601810	0.975410
O211	O21	0.505560	0.991780	0.690900
O221	O22	0.459060	0.122080	0.784200
O231	O23	0.077240	0.468920	0.237600
O241	O24	0.920470	0.632960	0.266100
