data_FIJDIM04_clean_PM
_symmetry_space_group_name_H-M	'P1'
_cell_length_a	10.728000
_cell_length_b	13.500100
_cell_length_c	14.399700
_cell_angle_alpha	76.704200
_cell_angle_beta	68.129700
_cell_angle_gamma	66.588700
_symmetry_Int_Tables_number 1

loop_
_symmetry_equiv_pos_as_xyz
'x,y,z'

loop_
_atom_site_label
_atom_site_type_symbol
_atom_site_fract_x
_atom_site_fract_y
_atom_site_fract_z
Mn11	Mn1	0.857680	0.038970	0.109750
Mn21	Mn2	0.506400	0.461030	0.390250
Mn31	Mn3	0.142320	0.961030	0.890250
Mn41	Mn4	0.493600	0.538970	0.609750
Mn51	Mn5	0.782710	0.250000	0.250000
Mn61	Mn6	0.217290	0.750000	0.750000
H11	H1	0.201200	0.181300	0.846900
H21	H2	0.297000	0.313100	0.752700
H31	H3	0.954500	0.541500	0.908100
H41	H4	0.865300	0.408500	0.009100
H51	H5	0.546500	0.161100	0.448700
H61	H6	0.579100	0.876100	0.384700
H71	H7	0.729400	0.318700	0.653100
H81	H8	0.862800	0.186900	0.747300
H91	H9	0.904100	0.958500	0.591900
H101	H10	0.782900	0.091500	0.490900
H111	H11	0.656300	0.338900	0.051300
H121	H12	0.339900	0.623900	0.115300
H131	H13	0.798800	0.818700	0.153100
H141	H14	0.703000	0.686900	0.247300
H151	H15	0.045500	0.458500	0.091900
H161	H16	0.134700	0.591500	0.990900
H171	H17	0.453500	0.838900	0.551300
H181	H18	0.420900	0.123900	0.615300
H191	H19	0.270600	0.681300	0.346900
H201	H20	0.137200	0.813100	0.252700
H211	H21	0.095900	0.041500	0.408100
H221	H22	0.217100	0.908500	0.509100
H231	H23	0.343700	0.661100	0.948700
H241	H24	0.660100	0.376100	0.884700
C11	C1	0.968330	0.195300	0.004040
C21	C2	0.025120	0.281280	0.939080
C31	C3	0.153030	0.253330	0.860810
C41	C4	0.209340	0.332620	0.803100
C51	C5	0.135150	0.440620	0.820480
C61	C6	0.005470	0.468990	0.896870
C71	C7	0.951210	0.389260	0.956920
C81	C8	0.200630	0.525350	0.760190
C91	C9	0.661100	0.044290	0.294110
C101	C10	0.576210	0.022090	0.400490
C111	C11	0.528100	0.096340	0.469260
C121	C12	0.547650	0.925740	0.430960
C131	C13	0.667670	0.304700	0.495960
C141	C14	0.745480	0.218720	0.560920
C151	C15	0.767170	0.246670	0.639190
C161	C16	0.845060	0.167380	0.696900
C171	C17	0.896250	0.059380	0.679520
C181	C18	0.871330	0.031010	0.603130
C191	C19	0.797390	0.110740	0.543080
C201	C20	0.986170	0.974650	0.739810
C211	C21	0.499500	0.455710	0.205890
C221	C22	0.498790	0.477910	0.099510
C231	C23	0.593700	0.403660	0.030740
C241	C24	0.404350	0.574260	0.069040
C251	C25	0.031670	0.804700	0.995960
C261	C26	0.974880	0.718720	0.060920
C271	C27	0.846970	0.746670	0.139190
C281	C28	0.790660	0.667380	0.196900
C291	C29	0.864850	0.559380	0.179520
C301	C30	0.994530	0.531010	0.103130
C311	C31	0.048790	0.610740	0.043080
C321	C32	0.799370	0.474650	0.239810
C331	C33	0.338900	0.955710	0.705890
C341	C34	0.423790	0.977910	0.599510
C351	C35	0.471900	0.903660	0.530740
C361	C36	0.452350	0.074260	0.569040
C371	C37	0.332330	0.695300	0.504040
C381	C38	0.254520	0.781280	0.439080
C391	C39	0.232830	0.753330	0.360810
C401	C40	0.154940	0.832620	0.303100
C411	C41	0.103750	0.940620	0.320480
C421	C42	0.128670	0.968990	0.396870
C431	C43	0.202610	0.889260	0.456920
C441	C44	0.013830	0.025350	0.260190
C451	C45	0.500500	0.544290	0.794110
C461	C46	0.501210	0.522090	0.900490
C471	C47	0.406300	0.596340	0.969260
C481	C48	0.595650	0.425740	0.930960
O11	O1	0.018250	0.101150	0.975950
O21	O2	0.868960	0.216410	0.086270
O31	O3	0.136830	0.621270	0.783470
O41	O4	0.316900	0.491520	0.691880
O51	O5	0.681500	0.133570	0.266030
O61	O6	0.710630	0.972840	0.234900
O71	O7	0.595350	0.398850	0.524050
O81	O8	0.671640	0.283590	0.413730
O91	O9	0.041570	0.878730	0.716530
O101	O10	0.000300	0.008480	0.808120
O111	O11	0.581100	0.366430	0.233970
O121	O12	0.418370	0.527160	0.265100
O131	O13	0.981750	0.898850	0.024050
O141	O14	0.131040	0.783590	0.913730
O151	O15	0.863170	0.378730	0.216530
O161	O16	0.683100	0.508480	0.308120
O171	O17	0.318500	0.866430	0.733970
O181	O18	0.289370	0.027160	0.765100
O191	O19	0.404650	0.601150	0.475950
O201	O20	0.328360	0.716410	0.586270
O211	O21	0.958430	0.121270	0.283470
O221	O22	0.999700	0.991520	0.191880
O231	O23	0.418900	0.633570	0.766030
O241	O24	0.581630	0.472840	0.734900
