data_FIJXUR_clean_PM
_symmetry_space_group_name_H-M	'P1'
_cell_length_a	21.697100
_cell_length_b	19.788600
_cell_length_c	17.507500
_cell_angle_alpha	90.000000
_cell_angle_beta	98.120000
_cell_angle_gamma	90.000000
_symmetry_Int_Tables_number 1

loop_
_symmetry_equiv_pos_as_xyz
'x,y,z'

loop_
_atom_site_label
_atom_site_type_symbol
_atom_site_fract_x
_atom_site_fract_y
_atom_site_fract_z
Cu11	Cu1	0.332700	0.001500	0.998600
Cu21	Cu2	0.341900	0.252000	0.990400
Cu31	Cu3	0.348000	0.369400	0.736100
Cu41	Cu4	0.322500	0.377600	0.234900
Cu51	Cu5	0.323400	0.752100	0.982600
Cu61	Cu6	0.444300	0.000200	0.111600
Cu71	Cu7	0.434800	0.368300	0.624600
N11	N1	0.425200	0.931500	0.192600
N21	N2	0.421900	0.065100	0.193500
N31	N3	0.462400	0.320000	0.529100
N41	N4	0.420600	0.444100	0.547200
C11	C1	0.326300	0.849200	0.992100
N51	N5	0.328900	0.908400	0.995500
C21	C2	0.336200	0.095100	0.998800
N61	N6	0.338700	0.153400	0.997100
C31	C3	0.335000	0.295900	0.087000
N71	N7	0.347200	0.294500	0.893100
C41	C4	0.349200	0.320200	0.833300
N81	N8	0.335700	0.681100	0.139500
C51	C5	0.340400	0.467400	0.742800
N91	N9	0.334100	0.524800	0.742800
N101	N10	0.328500	0.325300	0.142000
N111	N11	0.320900	0.672500	0.830800
C61	C6	0.320800	0.703100	0.887900
C71	C7	0.326900	0.710200	0.082800
C81	C8	0.485900	0.000200	0.025900
N121	N12	0.482400	0.361900	0.721700
C91	C9	0.417000	0.132800	0.188900
C101	C10	0.405400	0.172600	0.250500
C111	C11	0.398000	0.142600	0.319700
C121	C12	0.402600	0.072300	0.325300
C131	C13	0.414300	0.034500	0.260900
C141	C14	0.417400	0.959500	0.260500
C151	C15	0.410700	0.920100	0.325000
C161	C16	0.412200	0.850300	0.318600
C171	C17	0.419700	0.821300	0.247900
C181	C18	0.425700	0.863600	0.186400
C191	C19	0.484200	0.257100	0.524300
C201	C20	0.504900	0.230900	0.459100
C211	C21	0.503500	0.273100	0.396000
C221	C22	0.482000	0.340000	0.399400
C231	C23	0.461300	0.361400	0.467100
C241	C24	0.437900	0.430100	0.477200
C251	C25	0.434500	0.478500	0.418700
C261	C26	0.414500	0.542400	0.432800
C271	C27	0.397100	0.557800	0.504800
C281	C28	0.400400	0.507800	0.559800
H11	H1	0.421600	0.153800	0.142500
H21	H2	0.402500	0.219300	0.245100
H31	H3	0.390200	0.168600	0.361600
H41	H4	0.397800	0.050700	0.371300
H51	H5	0.405200	0.940400	0.371500
H61	H6	0.408300	0.823100	0.361000
H71	H7	0.420800	0.774600	0.242200
H81	H8	0.430100	0.844500	0.139000
H91	H9	0.485600	0.229300	0.567400
H101	H10	0.519100	0.186600	0.457800
H111	H11	0.516900	0.257200	0.351100
H121	H12	0.481600	0.369100	0.357700
H131	H13	0.445700	0.467500	0.370900
H141	H14	0.412500	0.575400	0.394700
H151	H15	0.383500	0.601000	0.515300
H161	H16	0.388500	0.517800	0.607500
Cu81	Cu8	0.667300	0.001500	0.501400
Cu91	Cu9	0.658100	0.252000	0.509600
Cu101	Cu10	0.652000	0.369400	0.763900
Cu111	Cu11	0.677500	0.377600	0.265100
Cu121	Cu12	0.676600	0.752100	0.517400
Cu131	Cu13	0.555700	0.000200	0.388400
Cu141	Cu14	0.565200	0.368300	0.875400
N131	N13	0.574800	0.931500	0.307400
N141	N14	0.578100	0.065100	0.306500
N151	N15	0.537600	0.320000	0.970900
N161	N16	0.579400	0.444100	0.952800
C291	C29	0.673700	0.849200	0.507900
N171	N17	0.671100	0.908400	0.504500
C301	C30	0.663800	0.095100	0.501200
N181	N18	0.661300	0.153400	0.502900
C311	C31	0.665000	0.295900	0.413000
N191	N19	0.652800	0.294500	0.606900
C321	C32	0.650800	0.320200	0.666700
N201	N20	0.664300	0.681100	0.360500
C331	C33	0.659600	0.467400	0.757200
N211	N21	0.665900	0.524800	0.757200
N221	N22	0.671500	0.325300	0.358000
N231	N23	0.679100	0.672500	0.669200
C341	C34	0.679200	0.703100	0.612100
C351	C35	0.673100	0.710200	0.417200
C361	C36	0.514100	0.000200	0.474100
N241	N24	0.517600	0.361900	0.778300
C371	C37	0.583000	0.132800	0.311100
C381	C38	0.594600	0.172600	0.249500
C391	C39	0.602000	0.142600	0.180300
C401	C40	0.597400	0.072300	0.174700
C411	C41	0.585700	0.034500	0.239100
C421	C42	0.582600	0.959500	0.239500
C431	C43	0.589300	0.920100	0.175000
C441	C44	0.587800	0.850300	0.181400
C451	C45	0.580300	0.821300	0.252100
C461	C46	0.574300	0.863600	0.313600
C471	C47	0.515800	0.257100	0.975700
C481	C48	0.495100	0.230900	0.040900
C491	C49	0.496500	0.273100	0.104000
C501	C50	0.518000	0.340000	0.100600
C511	C51	0.538700	0.361400	0.032900
C521	C52	0.562100	0.430100	0.022800
C531	C53	0.565500	0.478500	0.081300
C541	C54	0.585500	0.542400	0.067200
C551	C55	0.602900	0.557800	0.995200
C561	C56	0.599600	0.507800	0.940200
H171	H17	0.578400	0.153800	0.357500
H181	H18	0.597500	0.219300	0.254900
H191	H19	0.609800	0.168600	0.138400
H201	H20	0.602200	0.050700	0.128700
H211	H21	0.594800	0.940400	0.128500
H221	H22	0.591700	0.823100	0.139000
H231	H23	0.579200	0.774600	0.257800
H241	H24	0.569900	0.844500	0.361000
H251	H25	0.514400	0.229300	0.932600
H261	H26	0.480900	0.186600	0.042200
H271	H27	0.483100	0.257200	0.148900
H281	H28	0.518400	0.369100	0.142300
H291	H29	0.554300	0.467500	0.129100
H301	H30	0.587500	0.575400	0.105300
H311	H31	0.616500	0.601000	0.984700
H321	H32	0.611500	0.517800	0.892500
Cu151	Cu15	0.667300	0.998500	0.001400
Cu161	Cu16	0.658100	0.748000	0.009600
Cu171	Cu17	0.652000	0.630600	0.263900
Cu181	Cu18	0.677500	0.622400	0.765100
Cu191	Cu19	0.676600	0.247900	0.017400
Cu201	Cu20	0.555700	0.999800	0.888400
Cu211	Cu21	0.565200	0.631700	0.375400
N251	N25	0.574800	0.068500	0.807400
N261	N26	0.578100	0.934900	0.806500
N271	N27	0.537600	0.680000	0.470900
N281	N28	0.579400	0.555900	0.452800
C571	C57	0.673700	0.150800	0.007900
N291	N29	0.671100	0.091600	0.004500
C581	C58	0.663800	0.904900	0.001200
N301	N30	0.661300	0.846600	0.002900
C591	C59	0.665000	0.704100	0.913000
N311	N31	0.652800	0.705500	0.106900
C601	C60	0.650800	0.679800	0.166700
N321	N32	0.664300	0.318900	0.860500
C611	C61	0.659600	0.532600	0.257200
N331	N33	0.665900	0.475200	0.257200
N341	N34	0.671500	0.674700	0.858000
N351	N35	0.679100	0.327500	0.169200
C621	C62	0.679200	0.296900	0.112100
C631	C63	0.673100	0.289800	0.917200
C641	C64	0.514100	0.999800	0.974100
N361	N36	0.517600	0.638100	0.278300
C651	C65	0.583000	0.867200	0.811100
C661	C66	0.594600	0.827400	0.749500
C671	C67	0.602000	0.857400	0.680300
C681	C68	0.597400	0.927700	0.674700
C691	C69	0.585700	0.965500	0.739100
C701	C70	0.582600	0.040500	0.739500
C711	C71	0.589300	0.079900	0.675000
C721	C72	0.587800	0.149700	0.681400
C731	C73	0.580300	0.178700	0.752100
C741	C74	0.574300	0.136400	0.813600
C751	C75	0.515800	0.742900	0.475700
C761	C76	0.495100	0.769100	0.540900
C771	C77	0.496500	0.726900	0.604000
C781	C78	0.518000	0.660000	0.600600
C791	C79	0.538700	0.638600	0.532900
C801	C80	0.562100	0.569900	0.522800
C811	C81	0.565500	0.521500	0.581300
C821	C82	0.585500	0.457600	0.567200
C831	C83	0.602900	0.442200	0.495200
C841	C84	0.599600	0.492200	0.440200
H331	H33	0.578400	0.846200	0.857500
H341	H34	0.597500	0.780700	0.754900
H351	H35	0.609800	0.831400	0.638400
H361	H36	0.602200	0.949300	0.628700
H371	H37	0.594800	0.059600	0.628500
H381	H38	0.591700	0.176900	0.639000
H391	H39	0.579200	0.225400	0.757800
H401	H40	0.569900	0.155500	0.861000
H411	H41	0.514400	0.770700	0.432600
H421	H42	0.480900	0.813400	0.542200
H431	H43	0.483100	0.742800	0.648900
H441	H44	0.518400	0.630900	0.642300
H451	H45	0.554300	0.532500	0.629100
H461	H46	0.587500	0.424600	0.605300
H471	H47	0.616500	0.399000	0.484700
H481	H48	0.611500	0.482200	0.392500
Cu221	Cu22	0.332700	0.998500	0.498600
Cu231	Cu23	0.341900	0.748000	0.490400
Cu241	Cu24	0.348000	0.630600	0.236100
Cu251	Cu25	0.322500	0.622400	0.734900
Cu261	Cu26	0.323400	0.247900	0.482600
Cu271	Cu27	0.444300	0.999800	0.611600
Cu281	Cu28	0.434800	0.631700	0.124600
N371	N37	0.425200	0.068500	0.692600
N381	N38	0.421900	0.934900	0.693500
N391	N39	0.462400	0.680000	0.029100
N401	N40	0.420600	0.555900	0.047200
C851	C85	0.326300	0.150800	0.492100
N411	N41	0.328900	0.091600	0.495500
C861	C86	0.336200	0.904900	0.498800
N421	N42	0.338700	0.846600	0.497100
C871	C87	0.335000	0.704100	0.587000
N431	N43	0.347200	0.705500	0.393100
C881	C88	0.349200	0.679800	0.333300
N441	N44	0.335700	0.318900	0.639500
C891	C89	0.340400	0.532600	0.242800
N451	N45	0.334100	0.475200	0.242800
N461	N46	0.328500	0.674700	0.642000
N471	N47	0.320900	0.327500	0.330800
C901	C90	0.320800	0.296900	0.387900
C911	C91	0.326900	0.289800	0.582800
C921	C92	0.485900	0.999800	0.525900
N481	N48	0.482400	0.638100	0.221700
C931	C93	0.417000	0.867200	0.688900
C941	C94	0.405400	0.827400	0.750500
C951	C95	0.398000	0.857400	0.819700
C961	C96	0.402600	0.927700	0.825300
C971	C97	0.414300	0.965500	0.760900
C981	C98	0.417400	0.040500	0.760500
C991	C99	0.410700	0.079900	0.825000
C1001	C100	0.412200	0.149700	0.818600
C1011	C101	0.419700	0.178700	0.747900
C1021	C102	0.425700	0.136400	0.686400
C1031	C103	0.484200	0.742900	0.024300
C1041	C104	0.504900	0.769100	0.959100
C1051	C105	0.503500	0.726900	0.896000
C1061	C106	0.482000	0.660000	0.899400
C1071	C107	0.461300	0.638600	0.967100
C1081	C108	0.437900	0.569900	0.977200
C1091	C109	0.434500	0.521500	0.918700
C1101	C110	0.414500	0.457600	0.932800
C1111	C111	0.397100	0.442200	0.004800
C1121	C112	0.400400	0.492200	0.059800
H491	H49	0.421600	0.846200	0.642500
H501	H50	0.402500	0.780700	0.745100
H511	H51	0.390200	0.831400	0.861600
H521	H52	0.397800	0.949300	0.871300
H531	H53	0.405200	0.059600	0.871500
H541	H54	0.408300	0.176900	0.861000
H551	H55	0.420800	0.225400	0.742200
H561	H56	0.430100	0.155500	0.639000
H571	H57	0.485600	0.770700	0.067400
H581	H58	0.519100	0.813400	0.957800
H591	H59	0.516900	0.742800	0.851100
H601	H60	0.481600	0.630900	0.857700
H611	H61	0.445700	0.532500	0.870900
H621	H62	0.412500	0.424600	0.894700
H631	H63	0.383500	0.399000	0.015300
H641	H64	0.388500	0.482200	0.107500
Cu291	Cu29	0.008700	0.249900	0.004600
Cu301	Cu30	0.113500	0.014700	0.109900
Cu311	Cu31	0.220100	0.984300	0.884900
N491	N49	0.091400	0.944900	0.188900
N501	N50	0.092700	0.078500	0.193200
N511	N51	0.245000	0.052600	0.807100
N521	N52	0.237900	0.919500	0.800500
N531	N53	0.003400	0.327300	0.156400
C1131	C113	0.007400	0.297200	0.099700
N541	N54	0.006500	0.152200	0.004000
C1141	C114	0.003300	0.093300	0.002500
N551	N55	0.009000	0.291600	0.905700
C1151	C115	0.006900	0.319600	0.846400
C1161	C116	0.153200	0.004500	0.023300
N561	N56	0.180000	0.995300	0.971200
C1171	C117	0.090000	0.876600	0.181400
C1181	C118	0.078400	0.834300	0.240800
C1191	C119	0.069200	0.862600	0.310500
C1201	C120	0.070800	0.931900	0.319100
C1211	C121	0.081800	0.972300	0.257400
C1221	C122	0.082500	0.047600	0.259700
C1231	C123	0.070900	0.084500	0.324100
C1241	C124	0.069700	0.155000	0.320200
C1251	C125	0.080400	0.186500	0.252500
C1261	C126	0.091700	0.145900	0.191000
C1271	C127	0.249800	0.120600	0.815000
C1281	C128	0.262800	0.163100	0.756600
C1291	C129	0.270100	0.134600	0.686100
C1301	C130	0.265400	0.065300	0.675900
C1311	C131	0.249600	0.950100	0.735200
C1321	C132	0.252900	0.024700	0.738100
C1331	C133	0.258800	0.913300	0.669600
C1341	C134	0.256600	0.843000	0.672000
C1351	C135	0.245200	0.811100	0.739700
C1361	C136	0.236000	0.851700	0.802200
H651	H65	0.097000	0.857600	0.134800
H661	H66	0.076800	0.787700	0.234000
H671	H67	0.062000	0.835000	0.351300
H681	H68	0.064600	0.951400	0.365700
H691	H69	0.064100	0.062400	0.369100
H701	H70	0.061900	0.180500	0.362400
H711	H71	0.080100	0.233300	0.248300
H721	H72	0.098900	0.167100	0.145600
H731	H73	0.244000	0.139600	0.862100
H741	H74	0.266600	0.209500	0.764400
H751	H75	0.278200	0.162100	0.645600
H761	H76	0.270400	0.045800	0.628800
H771	H77	0.266300	0.935400	0.625000
H781	H78	0.262700	0.817600	0.629000
H791	H79	0.243700	0.764200	0.743000
H801	H80	0.228200	0.830800	0.847400
Cu321	Cu32	0.991300	0.249900	0.495400
Cu331	Cu33	0.886500	0.014700	0.390100
Cu341	Cu34	0.779900	0.984300	0.615100
N571	N57	0.908600	0.944900	0.311100
N581	N58	0.907300	0.078500	0.306800
N591	N59	0.755000	0.052600	0.692900
N601	N60	0.762100	0.919500	0.699500
N611	N61	0.996600	0.327300	0.343600
C1371	C137	0.992600	0.297200	0.400300
N621	N62	0.993500	0.152200	0.496000
C1381	C138	0.996700	0.093300	0.497500
N631	N63	0.991000	0.291600	0.594300
C1391	C139	0.993100	0.319600	0.653600
C1401	C140	0.846800	0.004500	0.476700
N641	N64	0.820000	0.995300	0.528800
C1411	C141	0.910000	0.876600	0.318600
C1421	C142	0.921600	0.834300	0.259200
C1431	C143	0.930800	0.862600	0.189500
C1441	C144	0.929200	0.931900	0.180900
C1451	C145	0.918200	0.972300	0.242600
C1461	C146	0.917500	0.047600	0.240300
C1471	C147	0.929100	0.084500	0.175900
C1481	C148	0.930300	0.155000	0.179800
C1491	C149	0.919600	0.186500	0.247500
C1501	C150	0.908300	0.145900	0.309000
C1511	C151	0.750200	0.120600	0.685000
C1521	C152	0.737200	0.163100	0.743400
C1531	C153	0.729900	0.134600	0.813900
C1541	C154	0.734600	0.065300	0.824100
C1551	C155	0.750400	0.950100	0.764800
C1561	C156	0.747100	0.024700	0.761900
C1571	C157	0.741200	0.913300	0.830400
C1581	C158	0.743400	0.843000	0.828000
C1591	C159	0.754800	0.811100	0.760300
C1601	C160	0.764000	0.851700	0.697800
H811	H81	0.903000	0.857600	0.365200
H821	H82	0.923200	0.787700	0.266000
H831	H83	0.938000	0.835000	0.148700
H841	H84	0.935400	0.951400	0.134300
H851	H85	0.935900	0.062400	0.130900
H861	H86	0.938100	0.180500	0.137600
H871	H87	0.919900	0.233300	0.251700
H881	H88	0.901100	0.167100	0.354400
H891	H89	0.756000	0.139600	0.637900
H901	H90	0.733400	0.209500	0.735600
H911	H91	0.721800	0.162100	0.854400
H921	H92	0.729600	0.045800	0.871200
H931	H93	0.733700	0.935400	0.875000
H941	H94	0.737300	0.817600	0.871000
H951	H95	0.756300	0.764200	0.757000
H961	H96	0.771800	0.830800	0.652600
Cu351	Cu35	0.991300	0.750100	0.995400
Cu361	Cu36	0.886500	0.985300	0.890100
Cu371	Cu37	0.779900	0.015700	0.115100
N651	N65	0.908600	0.055100	0.811100
N661	N66	0.907300	0.921500	0.806800
N671	N67	0.755000	0.947400	0.192900
N681	N68	0.762100	0.080500	0.199500
N691	N69	0.996600	0.672700	0.843600
C1611	C161	0.992600	0.702800	0.900300
N701	N70	0.993500	0.847800	0.996000
C1621	C162	0.996700	0.906700	0.997500
N711	N71	0.991000	0.708400	0.094300
C1631	C163	0.993100	0.680400	0.153600
C1641	C164	0.846800	0.995500	0.976700
N721	N72	0.820000	0.004700	0.028800
C1651	C165	0.910000	0.123400	0.818600
C1661	C166	0.921600	0.165700	0.759200
C1671	C167	0.930800	0.137400	0.689500
C1681	C168	0.929200	0.068100	0.680900
C1691	C169	0.918200	0.027700	0.742600
C1701	C170	0.917500	0.952400	0.740300
C1711	C171	0.929100	0.915500	0.675900
C1721	C172	0.930300	0.845000	0.679800
C1731	C173	0.919600	0.813500	0.747500
C1741	C174	0.908300	0.854100	0.809000
C1751	C175	0.750200	0.879400	0.185000
C1761	C176	0.737200	0.836900	0.243400
C1771	C177	0.729900	0.865400	0.313900
C1781	C178	0.734600	0.934700	0.324100
C1791	C179	0.750400	0.049900	0.264800
C1801	C180	0.747100	0.975300	0.261900
C1811	C181	0.741200	0.086700	0.330400
C1821	C182	0.743400	0.157000	0.328000
C1831	C183	0.754800	0.188900	0.260300
C1841	C184	0.764000	0.148300	0.197800
H971	H97	0.903000	0.142400	0.865200
H981	H98	0.923200	0.212300	0.766000
H991	H99	0.938000	0.165000	0.648700
H1001	H100	0.935400	0.048600	0.634300
H1011	H101	0.935900	0.937600	0.630900
H1021	H102	0.938100	0.819500	0.637600
H1031	H103	0.919900	0.766700	0.751700
H1041	H104	0.901100	0.832900	0.854400
H1051	H105	0.756000	0.860400	0.137900
H1061	H106	0.733400	0.790500	0.235600
H1071	H107	0.721800	0.837900	0.354400
H1081	H108	0.729600	0.954200	0.371200
H1091	H109	0.733700	0.064600	0.375000
H1101	H110	0.737300	0.182400	0.371000
H1111	H111	0.756300	0.235800	0.257000
H1121	H112	0.771800	0.169200	0.152600
Cu381	Cu38	0.008700	0.750100	0.504600
Cu391	Cu39	0.113500	0.985300	0.609900
Cu401	Cu40	0.220100	0.015700	0.384900
N731	N73	0.091400	0.055100	0.688900
N741	N74	0.092700	0.921500	0.693200
N751	N75	0.245000	0.947400	0.307100
N761	N76	0.237900	0.080500	0.300500
N771	N77	0.003400	0.672700	0.656400
C1851	C185	0.007400	0.702800	0.599700
N781	N78	0.006500	0.847800	0.504000
C1861	C186	0.003300	0.906700	0.502500
N791	N79	0.009000	0.708400	0.405700
C1871	C187	0.006900	0.680400	0.346400
C1881	C188	0.153200	0.995500	0.523300
N801	N80	0.180000	0.004700	0.471200
C1891	C189	0.090000	0.123400	0.681400
C1901	C190	0.078400	0.165700	0.740800
C1911	C191	0.069200	0.137400	0.810500
C1921	C192	0.070800	0.068100	0.819100
C1931	C193	0.081800	0.027700	0.757400
C1941	C194	0.082500	0.952400	0.759700
C1951	C195	0.070900	0.915500	0.824100
C1961	C196	0.069700	0.845000	0.820200
C1971	C197	0.080400	0.813500	0.752500
C1981	C198	0.091700	0.854100	0.691000
C1991	C199	0.249800	0.879400	0.315000
C2001	C200	0.262800	0.836900	0.256600
C2011	C201	0.270100	0.865400	0.186100
C2021	C202	0.265400	0.934700	0.175900
C2031	C203	0.249600	0.049900	0.235200
C2041	C204	0.252900	0.975300	0.238100
C2051	C205	0.258800	0.086700	0.169600
C2061	C206	0.256600	0.157000	0.172000
C2071	C207	0.245200	0.188900	0.239700
C2081	C208	0.236000	0.148300	0.302200
H1131	H113	0.097000	0.142400	0.634800
H1141	H114	0.076800	0.212300	0.734000
H1151	H115	0.062000	0.165000	0.851300
H1161	H116	0.064600	0.048600	0.865700
H1171	H117	0.064100	0.937600	0.869100
H1181	H118	0.061900	0.819500	0.862400
H1191	H119	0.080100	0.766700	0.748300
H1201	H120	0.098900	0.832900	0.645600
H1211	H121	0.244000	0.860400	0.362100
H1221	H122	0.266600	0.790500	0.264400
H1231	H123	0.278200	0.837900	0.145600
H1241	H124	0.270400	0.954200	0.128800
H1251	H125	0.266300	0.064600	0.125000
H1261	H126	0.262700	0.182400	0.129000
H1271	H127	0.243700	0.235800	0.243000
H1281	H128	0.228200	0.169200	0.347400
Cu411	Cu41	0.000000	0.379100	0.250000
Cu421	Cu42	0.000000	0.633000	0.250000
C2091	C209	0.000000	0.477100	0.250000
N811	N81	0.000000	0.534900	0.250000
Cu431	Cu43	0.000000	0.620900	0.750000
Cu441	Cu44	0.000000	0.367000	0.750000
C2101	C210	0.000000	0.522900	0.750000
N821	N82	0.000000	0.465100	0.750000
Cu451	Cu45	0.000000	0.000000	0.000000
Cu461	Cu46	0.000000	0.000000	0.500000
