data_FIMYUX_clean_PM
_symmetry_space_group_name_H-M	'P1'
_cell_length_a	24.427000
_cell_length_b	24.427000
_cell_length_c	24.427000
_cell_angle_alpha	90.000000
_cell_angle_beta	90.000000
_cell_angle_gamma	90.000000
_symmetry_Int_Tables_number 1

loop_
_symmetry_equiv_pos_as_xyz
'x,y,z'

loop_
_atom_site_label
_atom_site_type_symbol
_atom_site_fract_x
_atom_site_fract_y
_atom_site_fract_z
Cu11	Cu1	0.059120	0.215920	0.385430
Cu21	Cu2	0.148490	0.202570	0.486890
O11	O1	0.830180	0.056690	0.371020
O21	O2	0.079030	0.186290	0.454790
O31	O3	0.982360	0.194050	0.392900
O41	O4	0.710720	0.257550	0.480150
O51	O5	0.767420	0.325530	0.456560
O61	O6	0.961430	0.276400	0.426400
O71	O7	0.752500	0.073400	0.412200
N11	N1	0.138000	0.226400	0.371990
N21	N2	0.173110	0.223400	0.414360
C11	C1	0.167000	0.231600	0.325900
H11	H1	0.152300	0.234900	0.290900
C21	C2	0.224000	0.226600	0.394100
H21	H2	0.255900	0.225800	0.414900
C31	C3	0.889600	0.212100	0.417400
C41	C4	0.222100	0.231400	0.338100
H31	H3	0.251300	0.233900	0.313800
C51	C5	0.755100	0.276100	0.461500
C61	C6	0.798100	0.088000	0.398300
C71	C7	0.819000	0.143500	0.412600
C81	C8	0.797100	0.234600	0.443500
C91	C9	0.948500	0.229600	0.411700
C101	C10	0.872800	0.158500	0.405200
H41	H4	0.898100	0.133200	0.392100
C111	C11	0.850900	0.249800	0.436000
H51	H5	0.861600	0.285600	0.443400
C121	C12	0.780900	0.181200	0.432300
H61	H6	0.744800	0.170600	0.438100
Cu31	Cu3	0.440880	0.784080	0.885430
Cu41	Cu4	0.351510	0.797430	0.986890
O81	O8	0.669820	0.943310	0.871020
O91	O9	0.420970	0.813710	0.954790
O101	O10	0.517640	0.805950	0.892900
O111	O11	0.789280	0.742450	0.980150
O121	O12	0.732580	0.674470	0.956560
O131	O13	0.538570	0.723600	0.926400
O141	O14	0.747500	0.926600	0.912200
N31	N3	0.362000	0.773600	0.871990
N41	N4	0.326890	0.776600	0.914360
C131	C13	0.333000	0.768400	0.825900
H71	H7	0.347700	0.765100	0.790900
C141	C14	0.276000	0.773400	0.894100
H81	H8	0.244100	0.774200	0.914900
C151	C15	0.610400	0.787900	0.917400
C161	C16	0.277900	0.768600	0.838100
H91	H9	0.248700	0.766100	0.813800
C171	C17	0.744900	0.723900	0.961500
C181	C18	0.701900	0.912000	0.898300
C191	C19	0.681000	0.856500	0.912600
C201	C20	0.702900	0.765400	0.943500
C211	C21	0.551500	0.770400	0.911700
C221	C22	0.627200	0.841500	0.905200
H101	H10	0.601900	0.866800	0.892100
C231	C23	0.649100	0.750200	0.936000
H111	H11	0.638400	0.714400	0.943400
C241	C24	0.719100	0.818800	0.932300
H121	H12	0.755200	0.829400	0.938100
Cu51	Cu5	0.940880	0.715920	0.114570
Cu61	Cu6	0.851510	0.702570	0.013110
O151	O15	0.169820	0.556690	0.128980
O161	O16	0.920970	0.686290	0.045210
O171	O17	0.017640	0.694050	0.107100
O181	O18	0.289280	0.757550	0.019850
O191	O19	0.232580	0.825530	0.043440
O201	O20	0.038570	0.776400	0.073600
O211	O21	0.247500	0.573400	0.087800
N51	N5	0.862000	0.726400	0.128010
N61	N6	0.826890	0.723400	0.085640
C251	C25	0.833000	0.731600	0.174100
H131	H13	0.847700	0.734900	0.209100
C261	C26	0.776000	0.726600	0.105900
H141	H14	0.744100	0.725800	0.085100
C271	C27	0.110400	0.712100	0.082600
C281	C28	0.777900	0.731400	0.161900
H151	H15	0.748700	0.733900	0.186200
C291	C29	0.244900	0.776100	0.038500
C301	C30	0.201900	0.588000	0.101700
C311	C31	0.181000	0.643500	0.087400
C321	C32	0.202900	0.734600	0.056500
C331	C33	0.051500	0.729600	0.088300
C341	C34	0.127200	0.658500	0.094800
H161	H16	0.101900	0.633200	0.107900
C351	C35	0.149100	0.749800	0.064000
H171	H17	0.138400	0.785600	0.056600
C361	C36	0.219100	0.681200	0.067700
H181	H18	0.255200	0.670600	0.061900
Cu71	Cu7	0.559120	0.284080	0.614570
Cu81	Cu8	0.648490	0.297430	0.513110
O221	O22	0.330180	0.443310	0.628980
O231	O23	0.579030	0.313710	0.545210
O241	O24	0.482360	0.305950	0.607100
O251	O25	0.210720	0.242450	0.519850
O261	O26	0.267420	0.174470	0.543440
O271	O27	0.461430	0.223600	0.573600
O281	O28	0.252500	0.426600	0.587800
N71	N7	0.638000	0.273600	0.628010
N81	N8	0.673110	0.276600	0.585640
C371	C37	0.667000	0.268400	0.674100
H191	H19	0.652300	0.265100	0.709100
C381	C38	0.724000	0.273400	0.605900
H201	H20	0.755900	0.274200	0.585100
C391	C39	0.389600	0.287900	0.582600
C401	C40	0.722100	0.268600	0.661900
H211	H21	0.751300	0.266100	0.686200
C411	C41	0.255100	0.223900	0.538500
C421	C42	0.298100	0.412000	0.601700
C431	C43	0.319000	0.356500	0.587400
C441	C44	0.297100	0.265400	0.556500
C451	C45	0.448500	0.270400	0.588300
C461	C46	0.372800	0.341500	0.594800
H221	H22	0.398100	0.366800	0.607900
C471	C47	0.350900	0.250200	0.564000
H231	H23	0.361600	0.214400	0.556600
C481	C48	0.280900	0.318800	0.567700
H241	H24	0.244800	0.329400	0.561900
Cu91	Cu9	0.385430	0.059120	0.215920
Cu101	Cu10	0.486890	0.148490	0.202570
O291	O29	0.371020	0.830180	0.056690
O301	O30	0.454790	0.079030	0.186290
O311	O31	0.392900	0.982360	0.194050
O321	O32	0.480150	0.710720	0.257550
O331	O33	0.456560	0.767420	0.325530
O341	O34	0.426400	0.961430	0.276400
O351	O35	0.412200	0.752500	0.073400
N91	N9	0.371990	0.138000	0.226400
N101	N10	0.414360	0.173110	0.223400
C491	C49	0.325900	0.167000	0.231600
H251	H25	0.290900	0.152300	0.234900
C501	C50	0.394100	0.224000	0.226600
H261	H26	0.414900	0.255900	0.225800
C511	C51	0.417400	0.889600	0.212100
C521	C52	0.338100	0.222100	0.231400
H271	H27	0.313800	0.251300	0.233900
C531	C53	0.461500	0.755100	0.276100
C541	C54	0.398300	0.798100	0.088000
C551	C55	0.412600	0.819000	0.143500
C561	C56	0.443500	0.797100	0.234600
C571	C57	0.411700	0.948500	0.229600
C581	C58	0.405200	0.872800	0.158500
H281	H28	0.392100	0.898100	0.133200
C591	C59	0.436000	0.850900	0.249800
H291	H29	0.443400	0.861600	0.285600
C601	C60	0.432300	0.780900	0.181200
H301	H30	0.438100	0.744800	0.170600
Cu111	Cu11	0.885430	0.440880	0.784080
Cu121	Cu12	0.986890	0.351510	0.797430
O361	O36	0.871020	0.669820	0.943310
O371	O37	0.954790	0.420970	0.813710
O381	O38	0.892900	0.517640	0.805950
O391	O39	0.980150	0.789280	0.742450
O401	O40	0.956560	0.732580	0.674470
O411	O41	0.926400	0.538570	0.723600
O421	O42	0.912200	0.747500	0.926600
N111	N11	0.871990	0.362000	0.773600
N121	N12	0.914360	0.326890	0.776600
C611	C61	0.825900	0.333000	0.768400
H311	H31	0.790900	0.347700	0.765100
C621	C62	0.894100	0.276000	0.773400
H321	H32	0.914900	0.244100	0.774200
C631	C63	0.917400	0.610400	0.787900
C641	C64	0.838100	0.277900	0.768600
H331	H33	0.813800	0.248700	0.766100
C651	C65	0.961500	0.744900	0.723900
C661	C66	0.898300	0.701900	0.912000
C671	C67	0.912600	0.681000	0.856500
C681	C68	0.943500	0.702900	0.765400
C691	C69	0.911700	0.551500	0.770400
C701	C70	0.905200	0.627200	0.841500
H341	H34	0.892100	0.601900	0.866800
C711	C71	0.936000	0.649100	0.750200
H351	H35	0.943400	0.638400	0.714400
C721	C72	0.932300	0.719100	0.818800
H361	H36	0.938100	0.755200	0.829400
Cu131	Cu13	0.114570	0.940880	0.715920
Cu141	Cu14	0.013110	0.851510	0.702570
O431	O43	0.128980	0.169820	0.556690
O441	O44	0.045210	0.920970	0.686290
O451	O45	0.107100	0.017640	0.694050
O461	O46	0.019850	0.289280	0.757550
O471	O47	0.043440	0.232580	0.825530
O481	O48	0.073600	0.038570	0.776400
O491	O49	0.087800	0.247500	0.573400
N131	N13	0.128010	0.862000	0.726400
N141	N14	0.085640	0.826890	0.723400
C731	C73	0.174100	0.833000	0.731600
H371	H37	0.209100	0.847700	0.734900
C741	C74	0.105900	0.776000	0.726600
H381	H38	0.085100	0.744100	0.725800
C751	C75	0.082600	0.110400	0.712100
C761	C76	0.161900	0.777900	0.731400
H391	H39	0.186200	0.748700	0.733900
C771	C77	0.038500	0.244900	0.776100
C781	C78	0.101700	0.201900	0.588000
C791	C79	0.087400	0.181000	0.643500
C801	C80	0.056500	0.202900	0.734600
C811	C81	0.088300	0.051500	0.729600
C821	C82	0.094800	0.127200	0.658500
H401	H40	0.107900	0.101900	0.633200
C831	C83	0.064000	0.149100	0.749800
H411	H41	0.056600	0.138400	0.785600
C841	C84	0.067700	0.219100	0.681200
H421	H42	0.061900	0.255200	0.670600
Cu151	Cu15	0.614570	0.559120	0.284080
Cu161	Cu16	0.513110	0.648490	0.297430
O501	O50	0.628980	0.330180	0.443310
O511	O51	0.545210	0.579030	0.313710
O521	O52	0.607100	0.482360	0.305950
O531	O53	0.519850	0.210720	0.242450
O541	O54	0.543440	0.267420	0.174470
O551	O55	0.573600	0.461430	0.223600
O561	O56	0.587800	0.252500	0.426600
N151	N15	0.628010	0.638000	0.273600
N161	N16	0.585640	0.673110	0.276600
C851	C85	0.674100	0.667000	0.268400
H431	H43	0.709100	0.652300	0.265100
C861	C86	0.605900	0.724000	0.273400
H441	H44	0.585100	0.755900	0.274200
C871	C87	0.582600	0.389600	0.287900
C881	C88	0.661900	0.722100	0.268600
H451	H45	0.686200	0.751300	0.266100
C891	C89	0.538500	0.255100	0.223900
C901	C90	0.601700	0.298100	0.412000
C911	C91	0.587400	0.319000	0.356500
C921	C92	0.556500	0.297100	0.265400
C931	C93	0.588300	0.448500	0.270400
C941	C94	0.594800	0.372800	0.341500
H461	H46	0.607900	0.398100	0.366800
C951	C95	0.564000	0.350900	0.250200
H471	H47	0.556600	0.361600	0.214400
C961	C96	0.567700	0.280900	0.318800
H481	H48	0.561900	0.244800	0.329400
Cu171	Cu17	0.215920	0.385430	0.059120
Cu181	Cu18	0.202570	0.486890	0.148490
O571	O57	0.056690	0.371020	0.830180
O581	O58	0.186290	0.454790	0.079030
O591	O59	0.194050	0.392900	0.982360
O601	O60	0.257550	0.480150	0.710720
O611	O61	0.325530	0.456560	0.767420
O621	O62	0.276400	0.426400	0.961430
O631	O63	0.073400	0.412200	0.752500
N171	N17	0.226400	0.371990	0.138000
N181	N18	0.223400	0.414360	0.173110
C971	C97	0.231600	0.325900	0.167000
H491	H49	0.234900	0.290900	0.152300
C981	C98	0.226600	0.394100	0.224000
H501	H50	0.225800	0.414900	0.255900
C991	C99	0.212100	0.417400	0.889600
C1001	C100	0.231400	0.338100	0.222100
H511	H51	0.233900	0.313800	0.251300
C1011	C101	0.276100	0.461500	0.755100
C1021	C102	0.088000	0.398300	0.798100
C1031	C103	0.143500	0.412600	0.819000
C1041	C104	0.234600	0.443500	0.797100
C1051	C105	0.229600	0.411700	0.948500
C1061	C106	0.158500	0.405200	0.872800
H521	H52	0.133200	0.392100	0.898100
C1071	C107	0.249800	0.436000	0.850900
H531	H53	0.285600	0.443400	0.861600
C1081	C108	0.181200	0.432300	0.780900
H541	H54	0.170600	0.438100	0.744800
Cu191	Cu19	0.784080	0.885430	0.440880
Cu201	Cu20	0.797430	0.986890	0.351510
O641	O64	0.943310	0.871020	0.669820
O651	O65	0.813710	0.954790	0.420970
O661	O66	0.805950	0.892900	0.517640
O671	O67	0.742450	0.980150	0.789280
O681	O68	0.674470	0.956560	0.732580
O691	O69	0.723600	0.926400	0.538570
O701	O70	0.926600	0.912200	0.747500
N191	N19	0.773600	0.871990	0.362000
N201	N20	0.776600	0.914360	0.326890
C1091	C109	0.768400	0.825900	0.333000
H551	H55	0.765100	0.790900	0.347700
C1101	C110	0.773400	0.894100	0.276000
H561	H56	0.774200	0.914900	0.244100
C1111	C111	0.787900	0.917400	0.610400
C1121	C112	0.768600	0.838100	0.277900
H571	H57	0.766100	0.813800	0.248700
C1131	C113	0.723900	0.961500	0.744900
C1141	C114	0.912000	0.898300	0.701900
C1151	C115	0.856500	0.912600	0.681000
C1161	C116	0.765400	0.943500	0.702900
C1171	C117	0.770400	0.911700	0.551500
C1181	C118	0.841500	0.905200	0.627200
H581	H58	0.866800	0.892100	0.601900
C1191	C119	0.750200	0.936000	0.649100
H591	H59	0.714400	0.943400	0.638400
C1201	C120	0.818800	0.932300	0.719100
H601	H60	0.829400	0.938100	0.755200
Cu211	Cu21	0.715920	0.114570	0.940880
Cu221	Cu22	0.702570	0.013110	0.851510
O711	O71	0.556690	0.128980	0.169820
O721	O72	0.686290	0.045210	0.920970
O731	O73	0.694050	0.107100	0.017640
O741	O74	0.757550	0.019850	0.289280
O751	O75	0.825530	0.043440	0.232580
O761	O76	0.776400	0.073600	0.038570
O771	O77	0.573400	0.087800	0.247500
N211	N21	0.726400	0.128010	0.862000
N221	N22	0.723400	0.085640	0.826890
C1211	C121	0.731600	0.174100	0.833000
H611	H61	0.734900	0.209100	0.847700
C1221	C122	0.726600	0.105900	0.776000
H621	H62	0.725800	0.085100	0.744100
C1231	C123	0.712100	0.082600	0.110400
C1241	C124	0.731400	0.161900	0.777900
H631	H63	0.733900	0.186200	0.748700
C1251	C125	0.776100	0.038500	0.244900
C1261	C126	0.588000	0.101700	0.201900
C1271	C127	0.643500	0.087400	0.181000
C1281	C128	0.734600	0.056500	0.202900
C1291	C129	0.729600	0.088300	0.051500
C1301	C130	0.658500	0.094800	0.127200
H641	H64	0.633200	0.107900	0.101900
C1311	C131	0.749800	0.064000	0.149100
H651	H65	0.785600	0.056600	0.138400
C1321	C132	0.681200	0.067700	0.219100
H661	H66	0.670600	0.061900	0.255200
Cu231	Cu23	0.284080	0.614570	0.559120
Cu241	Cu24	0.297430	0.513110	0.648490
O781	O78	0.443310	0.628980	0.330180
O791	O79	0.313710	0.545210	0.579030
O801	O80	0.305950	0.607100	0.482360
O811	O81	0.242450	0.519850	0.210720
O821	O82	0.174470	0.543440	0.267420
O831	O83	0.223600	0.573600	0.461430
O841	O84	0.426600	0.587800	0.252500
N231	N23	0.273600	0.628010	0.638000
N241	N24	0.276600	0.585640	0.673110
C1331	C133	0.268400	0.674100	0.667000
H671	H67	0.265100	0.709100	0.652300
C1341	C134	0.273400	0.605900	0.724000
H681	H68	0.274200	0.585100	0.755900
C1351	C135	0.287900	0.582600	0.389600
C1361	C136	0.268600	0.661900	0.722100
H691	H69	0.266100	0.686200	0.751300
C1371	C137	0.223900	0.538500	0.255100
C1381	C138	0.412000	0.601700	0.298100
C1391	C139	0.356500	0.587400	0.319000
C1401	C140	0.265400	0.556500	0.297100
C1411	C141	0.270400	0.588300	0.448500
C1421	C142	0.341500	0.594800	0.372800
H701	H70	0.366800	0.607900	0.398100
C1431	C143	0.250200	0.564000	0.350900
H711	H71	0.214400	0.556600	0.361600
C1441	C144	0.318800	0.567700	0.280900
H721	H72	0.329400	0.561900	0.244800
Cu251	Cu25	0.940880	0.784080	0.614570
Cu261	Cu26	0.851510	0.797430	0.513110
O851	O85	0.169820	0.943310	0.628980
O861	O86	0.920970	0.813710	0.545210
O871	O87	0.017640	0.805950	0.607100
O881	O88	0.289280	0.742450	0.519850
O891	O89	0.232580	0.674470	0.543440
O901	O90	0.038570	0.723600	0.573600
O911	O91	0.247500	0.926600	0.587800
N251	N25	0.862000	0.773600	0.628010
N261	N26	0.826890	0.776600	0.585640
C1451	C145	0.833000	0.768400	0.674100
H731	H73	0.847700	0.765100	0.709100
C1461	C146	0.776000	0.773400	0.605900
H741	H74	0.744100	0.774200	0.585100
C1471	C147	0.110400	0.787900	0.582600
C1481	C148	0.777900	0.768600	0.661900
H751	H75	0.748700	0.766100	0.686200
C1491	C149	0.244900	0.723900	0.538500
C1501	C150	0.201900	0.912000	0.601700
C1511	C151	0.181000	0.856500	0.587400
C1521	C152	0.202900	0.765400	0.556500
C1531	C153	0.051500	0.770400	0.588300
C1541	C154	0.127200	0.841500	0.594800
H761	H76	0.101900	0.866800	0.607900
C1551	C155	0.149100	0.750200	0.564000
H771	H77	0.138400	0.714400	0.556600
C1561	C156	0.219100	0.818800	0.567700
H781	H78	0.255200	0.829400	0.561900
Cu271	Cu27	0.559120	0.215920	0.114570
Cu281	Cu28	0.648490	0.202570	0.013110
O921	O92	0.330180	0.056690	0.128980
O931	O93	0.579030	0.186290	0.045210
O941	O94	0.482360	0.194050	0.107100
O951	O95	0.210720	0.257550	0.019850
O961	O96	0.267420	0.325530	0.043440
O971	O97	0.461430	0.276400	0.073600
O981	O98	0.252500	0.073400	0.087800
N271	N27	0.638000	0.226400	0.128010
N281	N28	0.673110	0.223400	0.085640
C1571	C157	0.667000	0.231600	0.174100
H791	H79	0.652300	0.234900	0.209100
C1581	C158	0.724000	0.226600	0.105900
H801	H80	0.755900	0.225800	0.085100
C1591	C159	0.389600	0.212100	0.082600
C1601	C160	0.722100	0.231400	0.161900
H811	H81	0.751300	0.233900	0.186200
C1611	C161	0.255100	0.276100	0.038500
C1621	C162	0.298100	0.088000	0.101700
C1631	C163	0.319000	0.143500	0.087400
C1641	C164	0.297100	0.234600	0.056500
C1651	C165	0.448500	0.229600	0.088300
C1661	C166	0.372800	0.158500	0.094800
H821	H82	0.398100	0.133200	0.107900
C1671	C167	0.350900	0.249800	0.064000
H831	H83	0.361600	0.285600	0.056600
C1681	C168	0.280900	0.181200	0.067700
H841	H84	0.244800	0.170600	0.061900
Cu291	Cu29	0.059120	0.284080	0.885430
Cu301	Cu30	0.148490	0.297430	0.986890
O991	O99	0.830180	0.443310	0.871020
O1001	O100	0.079030	0.313710	0.954790
O1011	O101	0.982360	0.305950	0.892900
O1021	O102	0.710720	0.242450	0.980150
O1031	O103	0.767420	0.174470	0.956560
O1041	O104	0.961430	0.223600	0.926400
O1051	O105	0.752500	0.426600	0.912200
N291	N29	0.138000	0.273600	0.871990
N301	N30	0.173110	0.276600	0.914360
C1691	C169	0.167000	0.268400	0.825900
H851	H85	0.152300	0.265100	0.790900
C1701	C170	0.224000	0.273400	0.894100
H861	H86	0.255900	0.274200	0.914900
C1711	C171	0.889600	0.287900	0.917400
C1721	C172	0.222100	0.268600	0.838100
H871	H87	0.251300	0.266100	0.813800
C1731	C173	0.755100	0.223900	0.961500
C1741	C174	0.798100	0.412000	0.898300
C1751	C175	0.819000	0.356500	0.912600
C1761	C176	0.797100	0.265400	0.943500
C1771	C177	0.948500	0.270400	0.911700
C1781	C178	0.872800	0.341500	0.905200
H881	H88	0.898100	0.366800	0.892100
C1791	C179	0.850900	0.250200	0.936000
H891	H89	0.861600	0.214400	0.943400
C1801	C180	0.780900	0.318800	0.932300
H901	H90	0.744800	0.329400	0.938100
Cu311	Cu31	0.440880	0.715920	0.385430
Cu321	Cu32	0.351510	0.702570	0.486890
O1061	O106	0.669820	0.556690	0.371020
O1071	O107	0.420970	0.686290	0.454790
O1081	O108	0.517640	0.694050	0.392900
O1091	O109	0.789280	0.757550	0.480150
O1101	O110	0.732580	0.825530	0.456560
O1111	O111	0.538570	0.776400	0.426400
O1121	O112	0.747500	0.573400	0.412200
N311	N31	0.362000	0.726400	0.371990
N321	N32	0.326890	0.723400	0.414360
C1811	C181	0.333000	0.731600	0.325900
H911	H91	0.347700	0.734900	0.290900
C1821	C182	0.276000	0.726600	0.394100
H921	H92	0.244100	0.725800	0.414900
C1831	C183	0.610400	0.712100	0.417400
C1841	C184	0.277900	0.731400	0.338100
H931	H93	0.248700	0.733900	0.313800
C1851	C185	0.744900	0.776100	0.461500
C1861	C186	0.701900	0.588000	0.398300
C1871	C187	0.681000	0.643500	0.412600
C1881	C188	0.702900	0.734600	0.443500
C1891	C189	0.551500	0.729600	0.411700
C1901	C190	0.627200	0.658500	0.405200
H941	H94	0.601900	0.633200	0.392100
C1911	C191	0.649100	0.749800	0.436000
H951	H95	0.638400	0.785600	0.443400
C1921	C192	0.719100	0.681200	0.432300
H961	H96	0.755200	0.670600	0.438100
Cu331	Cu33	0.614570	0.940880	0.784080
Cu341	Cu34	0.513110	0.851510	0.797430
O1131	O113	0.628980	0.169820	0.943310
O1141	O114	0.545210	0.920970	0.813710
O1151	O115	0.607100	0.017640	0.805950
O1161	O116	0.519850	0.289280	0.742450
O1171	O117	0.543440	0.232580	0.674470
O1181	O118	0.573600	0.038570	0.723600
O1191	O119	0.587800	0.247500	0.926600
N331	N33	0.628010	0.862000	0.773600
N341	N34	0.585640	0.826890	0.776600
C1931	C193	0.674100	0.833000	0.768400
H971	H97	0.709100	0.847700	0.765100
C1941	C194	0.605900	0.776000	0.773400
H981	H98	0.585100	0.744100	0.774200
C1951	C195	0.582600	0.110400	0.787900
C1961	C196	0.661900	0.777900	0.768600
H991	H99	0.686200	0.748700	0.766100
C1971	C197	0.538500	0.244900	0.723900
C1981	C198	0.601700	0.201900	0.912000
C1991	C199	0.587400	0.181000	0.856500
C2001	C200	0.556500	0.202900	0.765400
C2011	C201	0.588300	0.051500	0.770400
C2021	C202	0.594800	0.127200	0.841500
H1001	H100	0.607900	0.101900	0.866800
C2031	C203	0.564000	0.149100	0.750200
H1011	H101	0.556600	0.138400	0.714400
C2041	C204	0.567700	0.219100	0.818800
H1021	H102	0.561900	0.255200	0.829400
Cu351	Cu35	0.114570	0.559120	0.215920
Cu361	Cu36	0.013110	0.648490	0.202570
O1201	O120	0.128980	0.330180	0.056690
O1211	O121	0.045210	0.579030	0.186290
O1221	O122	0.107100	0.482360	0.194050
O1231	O123	0.019850	0.210720	0.257550
O1241	O124	0.043440	0.267420	0.325530
O1251	O125	0.073600	0.461430	0.276400
O1261	O126	0.087800	0.252500	0.073400
N351	N35	0.128010	0.638000	0.226400
N361	N36	0.085640	0.673110	0.223400
C2051	C205	0.174100	0.667000	0.231600
H1031	H103	0.209100	0.652300	0.234900
C2061	C206	0.105900	0.724000	0.226600
H1041	H104	0.085100	0.755900	0.225800
C2071	C207	0.082600	0.389600	0.212100
C2081	C208	0.161900	0.722100	0.231400
H1051	H105	0.186200	0.751300	0.233900
C2091	C209	0.038500	0.255100	0.276100
C2101	C210	0.101700	0.298100	0.088000
C2111	C211	0.087400	0.319000	0.143500
C2121	C212	0.056500	0.297100	0.234600
C2131	C213	0.088300	0.448500	0.229600
C2141	C214	0.094800	0.372800	0.158500
H1061	H106	0.107900	0.398100	0.133200
C2151	C215	0.064000	0.350900	0.249800
H1071	H107	0.056600	0.361600	0.285600
C2161	C216	0.067700	0.280900	0.181200
H1081	H108	0.061900	0.244800	0.170600
Cu371	Cu37	0.885430	0.059120	0.284080
Cu381	Cu38	0.986890	0.148490	0.297430
O1271	O127	0.871020	0.830180	0.443310
O1281	O128	0.954790	0.079030	0.313710
O1291	O129	0.892900	0.982360	0.305950
O1301	O130	0.980150	0.710720	0.242450
O1311	O131	0.956560	0.767420	0.174470
O1321	O132	0.926400	0.961430	0.223600
O1331	O133	0.912200	0.752500	0.426600
N371	N37	0.871990	0.138000	0.273600
N381	N38	0.914360	0.173110	0.276600
C2171	C217	0.825900	0.167000	0.268400
H1091	H109	0.790900	0.152300	0.265100
C2181	C218	0.894100	0.224000	0.273400
H1101	H110	0.914900	0.255900	0.274200
C2191	C219	0.917400	0.889600	0.287900
C2201	C220	0.838100	0.222100	0.268600
H1111	H111	0.813800	0.251300	0.266100
C2211	C221	0.961500	0.755100	0.223900
C2221	C222	0.898300	0.798100	0.412000
C2231	C223	0.912600	0.819000	0.356500
C2241	C224	0.943500	0.797100	0.265400
C2251	C225	0.911700	0.948500	0.270400
C2261	C226	0.905200	0.872800	0.341500
H1121	H112	0.892100	0.898100	0.366800
C2271	C227	0.936000	0.850900	0.250200
H1131	H113	0.943400	0.861600	0.214400
C2281	C228	0.932300	0.780900	0.318800
H1141	H114	0.938100	0.744800	0.329400
Cu391	Cu39	0.385430	0.440880	0.715920
Cu401	Cu40	0.486890	0.351510	0.702570
O1341	O134	0.371020	0.669820	0.556690
O1351	O135	0.454790	0.420970	0.686290
O1361	O136	0.392900	0.517640	0.694050
O1371	O137	0.480150	0.789280	0.757550
O1381	O138	0.456560	0.732580	0.825530
O1391	O139	0.426400	0.538570	0.776400
O1401	O140	0.412200	0.747500	0.573400
N391	N39	0.371990	0.362000	0.726400
N401	N40	0.414360	0.326890	0.723400
C2291	C229	0.325900	0.333000	0.731600
H1151	H115	0.290900	0.347700	0.734900
C2301	C230	0.394100	0.276000	0.726600
H1161	H116	0.414900	0.244100	0.725800
C2311	C231	0.417400	0.610400	0.712100
C2321	C232	0.338100	0.277900	0.731400
H1171	H117	0.313800	0.248700	0.733900
C2331	C233	0.461500	0.744900	0.776100
C2341	C234	0.398300	0.701900	0.588000
C2351	C235	0.412600	0.681000	0.643500
C2361	C236	0.443500	0.702900	0.734600
C2371	C237	0.411700	0.551500	0.729600
C2381	C238	0.405200	0.627200	0.658500
H1181	H118	0.392100	0.601900	0.633200
C2391	C239	0.436000	0.649100	0.749800
H1191	H119	0.443400	0.638400	0.785600
C2401	C240	0.432300	0.719100	0.681200
H1201	H120	0.438100	0.755200	0.670600
Cu411	Cu41	0.784080	0.614570	0.940880
Cu421	Cu42	0.797430	0.513110	0.851510
O1411	O141	0.943310	0.628980	0.169820
O1421	O142	0.813710	0.545210	0.920970
O1431	O143	0.805950	0.607100	0.017640
O1441	O144	0.742450	0.519850	0.289280
O1451	O145	0.674470	0.543440	0.232580
O1461	O146	0.723600	0.573600	0.038570
O1471	O147	0.926600	0.587800	0.247500
N411	N41	0.773600	0.628010	0.862000
N421	N42	0.776600	0.585640	0.826890
C2411	C241	0.768400	0.674100	0.833000
H1211	H121	0.765100	0.709100	0.847700
C2421	C242	0.773400	0.605900	0.776000
H1221	H122	0.774200	0.585100	0.744100
C2431	C243	0.787900	0.582600	0.110400
C2441	C244	0.768600	0.661900	0.777900
H1231	H123	0.766100	0.686200	0.748700
C2451	C245	0.723900	0.538500	0.244900
C2461	C246	0.912000	0.601700	0.201900
C2471	C247	0.856500	0.587400	0.181000
C2481	C248	0.765400	0.556500	0.202900
C2491	C249	0.770400	0.588300	0.051500
C2501	C250	0.841500	0.594800	0.127200
H1241	H124	0.866800	0.607900	0.101900
C2511	C251	0.750200	0.564000	0.149100
H1251	H125	0.714400	0.556600	0.138400
C2521	C252	0.818800	0.567700	0.219100
H1261	H126	0.829400	0.561900	0.255200
Cu431	Cu43	0.215920	0.114570	0.559120
Cu441	Cu44	0.202570	0.013110	0.648490
O1481	O148	0.056690	0.128980	0.330180
O1491	O149	0.186290	0.045210	0.579030
O1501	O150	0.194050	0.107100	0.482360
O1511	O151	0.257550	0.019850	0.210720
O1521	O152	0.325530	0.043440	0.267420
O1531	O153	0.276400	0.073600	0.461430
O1541	O154	0.073400	0.087800	0.252500
N431	N43	0.226400	0.128010	0.638000
N441	N44	0.223400	0.085640	0.673110
C2531	C253	0.231600	0.174100	0.667000
H1271	H127	0.234900	0.209100	0.652300
C2541	C254	0.226600	0.105900	0.724000
H1281	H128	0.225800	0.085100	0.755900
C2551	C255	0.212100	0.082600	0.389600
C2561	C256	0.231400	0.161900	0.722100
H1291	H129	0.233900	0.186200	0.751300
C2571	C257	0.276100	0.038500	0.255100
C2581	C258	0.088000	0.101700	0.298100
C2591	C259	0.143500	0.087400	0.319000
C2601	C260	0.234600	0.056500	0.297100
C2611	C261	0.229600	0.088300	0.448500
C2621	C262	0.158500	0.094800	0.372800
H1301	H130	0.133200	0.107900	0.398100
C2631	C263	0.249800	0.064000	0.350900
H1311	H131	0.285600	0.056600	0.361600
C2641	C264	0.181200	0.067700	0.280900
H1321	H132	0.170600	0.061900	0.244800
Cu451	Cu45	0.284080	0.885430	0.059120
Cu461	Cu46	0.297430	0.986890	0.148490
O1551	O155	0.443310	0.871020	0.830180
O1561	O156	0.313710	0.954790	0.079030
O1571	O157	0.305950	0.892900	0.982360
O1581	O158	0.242450	0.980150	0.710720
O1591	O159	0.174470	0.956560	0.767420
O1601	O160	0.223600	0.926400	0.961430
O1611	O161	0.426600	0.912200	0.752500
N451	N45	0.273600	0.871990	0.138000
N461	N46	0.276600	0.914360	0.173110
C2651	C265	0.268400	0.825900	0.167000
H1331	H133	0.265100	0.790900	0.152300
C2661	C266	0.273400	0.894100	0.224000
H1341	H134	0.274200	0.914900	0.255900
C2671	C267	0.287900	0.917400	0.889600
C2681	C268	0.268600	0.838100	0.222100
H1351	H135	0.266100	0.813800	0.251300
C2691	C269	0.223900	0.961500	0.755100
C2701	C270	0.412000	0.898300	0.798100
C2711	C271	0.356500	0.912600	0.819000
C2721	C272	0.265400	0.943500	0.797100
C2731	C273	0.270400	0.911700	0.948500
C2741	C274	0.341500	0.905200	0.872800
H1361	H136	0.366800	0.892100	0.898100
C2751	C275	0.250200	0.936000	0.850900
H1371	H137	0.214400	0.943400	0.861600
C2761	C276	0.318800	0.932300	0.780900
H1381	H138	0.329400	0.938100	0.744800
Cu471	Cu47	0.715920	0.385430	0.440880
Cu481	Cu48	0.702570	0.486890	0.351510
O1621	O162	0.556690	0.371020	0.669820
O1631	O163	0.686290	0.454790	0.420970
O1641	O164	0.694050	0.392900	0.517640
O1651	O165	0.757550	0.480150	0.789280
O1661	O166	0.825530	0.456560	0.732580
O1671	O167	0.776400	0.426400	0.538570
O1681	O168	0.573400	0.412200	0.747500
N471	N47	0.726400	0.371990	0.362000
N481	N48	0.723400	0.414360	0.326890
C2771	C277	0.731600	0.325900	0.333000
H1391	H139	0.734900	0.290900	0.347700
C2781	C278	0.726600	0.394100	0.276000
H1401	H140	0.725800	0.414900	0.244100
C2791	C279	0.712100	0.417400	0.610400
C2801	C280	0.731400	0.338100	0.277900
H1411	H141	0.733900	0.313800	0.248700
C2811	C281	0.776100	0.461500	0.744900
C2821	C282	0.588000	0.398300	0.701900
C2831	C283	0.643500	0.412600	0.681000
C2841	C284	0.734600	0.443500	0.702900
C2851	C285	0.729600	0.411700	0.551500
C2861	C286	0.658500	0.405200	0.627200
H1421	H142	0.633200	0.392100	0.601900
C2871	C287	0.749800	0.436000	0.649100
H1431	H143	0.785600	0.443400	0.638400
C2881	C288	0.681200	0.432300	0.719100
H1441	H144	0.670600	0.438100	0.755200
