data_FIPJAR_clean_PM
_symmetry_space_group_name_H-M	'P1'
_cell_length_a	7.068800
_cell_length_b	11.464400
_cell_length_c	16.421000
_cell_angle_alpha	82.920000
_cell_angle_beta	77.570600
_cell_angle_gamma	72.043600
_symmetry_Int_Tables_number 1

loop_
_symmetry_equiv_pos_as_xyz
'x,y,z'

loop_
_atom_site_label
_atom_site_type_symbol
_atom_site_fract_x
_atom_site_fract_y
_atom_site_fract_z
Cd11	Cd1	0.271490	0.750690	0.778510
Cd21	Cd2	0.800690	0.749310	0.721490
Cd31	Cd3	0.199310	0.250690	0.278510
Cd41	Cd4	0.728510	0.249310	0.221490
H11	H1	0.568400	0.645400	0.235400
H21	H2	0.431600	0.354600	0.764600
H31	H3	0.001900	0.355700	0.756300
H41	H4	0.886100	0.855700	0.256300
H51	H5	0.524000	0.549400	0.628000
H61	H6	0.476000	0.450600	0.372000
H71	H7	0.449200	0.854600	0.264600
H81	H8	0.998100	0.644300	0.243700
H91	H9	0.190900	0.563900	0.456700
H101	H10	0.550800	0.145400	0.735400
H111	H11	0.298600	0.049400	0.128000
H121	H12	0.788500	0.063900	0.956700
H131	H13	0.211500	0.936100	0.043300
H141	H14	0.113900	0.144300	0.743700
H151	H15	0.701400	0.950600	0.872000
H161	H16	0.809100	0.436100	0.543300
C11	C1	0.514400	0.528800	0.576400
C21	C2	0.619600	0.971200	0.923600
C31	C3	0.685100	0.462200	0.525600
C41	C4	0.671000	0.434500	0.447500
C51	C5	0.610000	0.139500	0.108500
C61	C6	0.088900	0.687500	0.244700
C71	C7	0.359400	0.813000	0.258200
C81	C8	0.569400	0.313000	0.758200
C91	C9	0.082000	0.009800	0.278200
C101	C10	0.327100	0.962200	0.025600
C111	C11	0.157300	0.872700	0.264700
C121	C12	0.021100	0.812500	0.255300
C131	C13	0.858000	0.360500	0.391500
C141	C14	0.918000	0.990200	0.721800
C151	C15	0.705300	0.372700	0.764700
C161	C16	0.447000	0.934500	0.947500
C171	C17	0.370000	0.490200	0.221800
C181	C18	0.842700	0.127300	0.735300
C191	C19	0.640600	0.187000	0.741800
C201	C20	0.390000	0.860500	0.891500
C211	C21	0.553000	0.065500	0.052500
C221	C22	0.380400	0.028800	0.076400
C231	C23	0.485600	0.471200	0.423600
C241	C24	0.672900	0.037800	0.974400
C251	C25	0.978900	0.187500	0.744700
C261	C26	0.430600	0.687000	0.241800
C271	C27	0.314900	0.537800	0.474400
C281	C28	0.294700	0.627300	0.235300
C291	C29	0.142000	0.639500	0.608500
C301	C30	0.329000	0.565500	0.552500
C311	C31	0.911100	0.312500	0.755300
C321	C32	0.630000	0.509800	0.778200
O11	O1	0.759800	0.173200	0.087200
O21	O2	0.162100	0.661300	0.680500
O31	O3	0.760500	0.563300	0.765700
O41	O4	0.020200	0.326800	0.412800
O51	O5	0.910500	0.063300	0.265700
O61	O6	0.195700	0.056700	0.301900
O71	O7	0.445700	0.556700	0.801900
O81	O8	0.496100	0.161300	0.180500
O91	O9	0.804300	0.943300	0.698100
O101	O10	0.240200	0.826800	0.912800
O111	O11	0.503900	0.838700	0.819500
O121	O12	0.554300	0.443300	0.198100
O131	O13	0.979800	0.673200	0.587200
O141	O14	0.089500	0.936700	0.734300
O151	O15	0.239500	0.436700	0.234300
O161	O16	0.837900	0.338700	0.319500
