data_FIPKOG_clean_PM
_symmetry_space_group_name_H-M	'P1'
_cell_length_a	10.217000
_cell_length_b	10.362000
_cell_length_c	18.118000
_cell_angle_alpha	102.530000
_cell_angle_beta	99.350000
_cell_angle_gamma	93.790000
_symmetry_Int_Tables_number 1

loop_
_symmetry_equiv_pos_as_xyz
'x,y,z'

loop_
_atom_site_label
_atom_site_type_symbol
_atom_site_fract_x
_atom_site_fract_y
_atom_site_fract_z
C11	C1	0.215900	0.987600	0.751200
C21	C2	0.360200	0.018400	0.789200
C31	C3	0.461600	0.995400	0.746200
H11	H1	0.440100	0.961000	0.693300
C41	C4	0.594500	0.023900	0.782100
C51	C5	0.704300	0.993600	0.735800
C61	C6	0.625000	0.077600	0.860500
H21	H2	0.713900	0.097700	0.884600
C71	C7	0.525200	0.101900	0.903800
C81	C8	0.393400	0.070000	0.868300
H31	H3	0.326300	0.083000	0.897400
C91	C9	0.492100	0.233100	0.028100
C101	C10	0.542800	0.267900	0.113300
C111	C11	0.678100	0.284900	0.145200
H41	H4	0.741600	0.271500	0.113700
C121	C12	0.717000	0.322100	0.224500
H51	H5	0.807400	0.333900	0.245800
C131	C13	0.624400	0.342000	0.272300
C141	C14	0.665700	0.392000	0.357300
C151	C15	0.489400	0.323000	0.239900
H61	H6	0.426300	0.334900	0.271800
C161	C16	0.447900	0.286700	0.161400
H71	H7	0.357400	0.274800	0.140300
C171	C17	0.813200	0.363800	0.472600
C181	C18	0.835800	0.495600	0.513500
H81	H8	0.816200	0.563500	0.488600
C191	C19	0.888300	0.525500	0.592200
C201	C20	0.911500	0.670800	0.635200
C211	C21	0.920100	0.423800	0.627900
H91	H9	0.956100	0.443900	0.680100
C221	C22	0.899400	0.291800	0.587100
C231	C23	0.930600	0.180200	0.626900
C241	C24	0.845400	0.262900	0.508700
H101	H10	0.831100	0.175100	0.480700
Cd11	Cd1	0.951850	0.952980	0.684180
N11	N1	0.561900	0.152700	0.984900
H111	H11	0.634300	0.129900	0.007800
N21	N2	0.759100	0.330900	0.392400
H121	H12	0.789500	0.266000	0.364200
O11	O1	0.128100	0.018200	0.791400
O21	O2	0.186900	0.935200	0.680550
O31	O3	0.674400	0.961200	0.664700
O41	O4	0.821500	0.003200	0.772300
O51	O5	0.390800	0.277600	0.001400
O61	O6	0.610600	0.484000	0.391600
O71	O7	0.904300	0.063200	0.587100
O81	O8	0.978000	0.207100	0.695700
O91	O9	0.891900	0.757200	0.596300
O101	O10	0.952400	0.701100	0.705800
C251	C25	0.784100	0.012400	0.248800
C261	C26	0.639800	0.981600	0.210800
C271	C27	0.538400	0.004600	0.253800
H131	H13	0.559900	0.039000	0.306700
C281	C28	0.405500	0.976100	0.217900
C291	C29	0.295700	0.006400	0.264200
C301	C30	0.375000	0.922400	0.139500
H141	H14	0.286100	0.902300	0.115400
C311	C31	0.474800	0.898100	0.096200
C321	C32	0.606600	0.930000	0.131700
H151	H15	0.673700	0.917000	0.102600
C331	C33	0.507900	0.766900	0.971900
C341	C34	0.457200	0.732100	0.886700
C351	C35	0.321900	0.715100	0.854800
H161	H16	0.258400	0.728500	0.886300
C361	C36	0.283000	0.677900	0.775500
H171	H17	0.192600	0.666100	0.754200
C371	C37	0.375600	0.658000	0.727700
C381	C38	0.334300	0.608000	0.642700
C391	C39	0.510600	0.677000	0.760100
H181	H18	0.573700	0.665100	0.728200
C401	C40	0.552100	0.713300	0.838600
H191	H19	0.642600	0.725200	0.859700
C411	C41	0.186800	0.636200	0.527400
C421	C42	0.164200	0.504400	0.486500
H201	H20	0.183800	0.436500	0.511400
C431	C43	0.111700	0.474500	0.407800
C441	C44	0.088500	0.329200	0.364800
C451	C45	0.079900	0.576200	0.372100
H211	H21	0.043900	0.556100	0.319900
C461	C46	0.100600	0.708200	0.412900
C471	C47	0.069400	0.819800	0.373100
C481	C48	0.154600	0.737100	0.491300
H221	H22	0.168900	0.824900	0.519300
Cd21	Cd2	0.048150	0.047020	0.315820
N31	N3	0.438100	0.847300	0.015100
H231	H23	0.365700	0.870100	0.992200
N41	N4	0.240900	0.669100	0.607600
H241	H24	0.210500	0.734000	0.635800
O111	O11	0.871900	0.981800	0.208600
O121	O12	0.813100	0.064800	0.319450
O131	O13	0.325600	0.038800	0.335300
O141	O14	0.178500	0.996800	0.227700
O151	O15	0.609200	0.722400	0.998600
O161	O16	0.389400	0.516000	0.608400
O171	O17	0.095700	0.936800	0.412900
O181	O18	0.022000	0.792900	0.304300
O191	O19	0.108100	0.242800	0.403700
O201	O20	0.047600	0.298900	0.294200
