data_FIPKUM_clean_PM
_symmetry_space_group_name_H-M	'P1'
_cell_length_a	10.004000
_cell_length_b	10.293000
_cell_length_c	17.914000
_cell_angle_alpha	103.660000
_cell_angle_beta	99.580000
_cell_angle_gamma	93.450000
_symmetry_Int_Tables_number 1

loop_
_symmetry_equiv_pos_as_xyz
'x,y,z'

loop_
_atom_site_label
_atom_site_type_symbol
_atom_site_fract_x
_atom_site_fract_y
_atom_site_fract_z
C11	C1	0.682900	0.495500	0.716400
C21	C2	0.579600	0.524100	0.769270
C31	C3	0.441900	0.497700	0.736200
H11	H1	0.415200	0.465700	0.682300
C41	C4	0.344000	0.518900	0.782910
C51	C5	0.195400	0.490300	0.747100
C61	C6	0.383700	0.568800	0.863100
H21	H2	0.318100	0.582000	0.894600
C71	C7	0.520900	0.599100	0.896770
C81	C8	0.618600	0.576400	0.849100
H31	H3	0.710700	0.596600	0.871200
C91	C9	0.495800	0.734400	0.025100
C101	C10	0.547700	0.765800	0.111200
C111	C11	0.685900	0.782300	0.144100
H41	H4	0.750700	0.768600	0.112100
C121	C12	0.726400	0.819300	0.224700
H51	H5	0.818700	0.831100	0.246600
C131	C13	0.631200	0.838600	0.272700
C141	C14	0.494000	0.818500	0.240100
H61	H6	0.429400	0.829800	0.272300
C151	C15	0.452300	0.781600	0.159900
H71	H7	0.359800	0.767300	0.138400
C161	C16	0.671600	0.891000	0.359600
C171	C17	0.820500	0.867600	0.478200
C181	C18	0.853900	0.766700	0.515500
H81	H8	0.842400	0.677300	0.487300
C191	C19	0.904600	0.800600	0.595500
C201	C20	0.937600	0.693700	0.639200
C211	C21	0.921600	0.934300	0.637400
H91	H9	0.955500	0.956600	0.690900
C221	C22	0.888100	0.035500	0.599870
C231	C23	0.907100	0.180000	0.645900
C241	C24	0.840300	0.000900	0.520000
H101	H10	0.821200	0.068000	0.494100
N11	N1	0.768600	0.830500	0.396060
H111	H11	0.801700	0.765000	0.367900
N21	N2	0.563600	0.649500	0.978490
H121	H12	0.637700	0.624500	0.000100
O11	O1	0.806400	0.495600	0.748910
O21	O2	0.643000	0.475900	0.645370
O31	O3	0.161200	0.434100	0.675110
O41	O4	0.107700	0.522200	0.788630
O51	O5	0.394700	0.783700	0.999590
O61	O6	0.615900	0.984100	0.393050
O71	O7	0.912500	0.571200	0.601480
O81	O8	0.986500	0.729600	0.709410
O91	O9	0.942600	0.208100	0.717970
O101	O10	0.887100	0.270300	0.608170
Zn11	Zn1	0.943990	0.457800	0.679470
C251	C25	0.317100	0.504500	0.283600
C261	C26	0.420400	0.475900	0.230730
C271	C27	0.558100	0.502300	0.263800
H131	H13	0.584800	0.534300	0.317700
C281	C28	0.656000	0.481100	0.217090
C291	C29	0.804600	0.509700	0.252900
C301	C30	0.616300	0.431200	0.136900
H141	H14	0.681900	0.418000	0.105400
C311	C31	0.479100	0.400900	0.103230
C321	C32	0.381400	0.423600	0.150900
H151	H15	0.289300	0.403400	0.128800
C331	C33	0.504200	0.265600	0.974900
C341	C34	0.452300	0.234200	0.888800
C351	C35	0.314100	0.217700	0.855900
H161	H16	0.249300	0.231400	0.887900
C361	C36	0.273600	0.180700	0.775300
H171	H17	0.181300	0.168900	0.753400
C371	C37	0.368800	0.161400	0.727300
C381	C38	0.506000	0.181500	0.759900
H181	H18	0.570600	0.170200	0.727700
C391	C39	0.547700	0.218400	0.840100
H191	H19	0.640200	0.232700	0.861600
C401	C40	0.328400	0.109000	0.640400
C411	C41	0.179500	0.132400	0.521800
C421	C42	0.146100	0.233300	0.484500
H201	H20	0.157600	0.322700	0.512700
C431	C43	0.095400	0.199400	0.404500
C441	C44	0.062400	0.306300	0.360800
C451	C45	0.078400	0.065700	0.362600
H211	H21	0.044500	0.043400	0.309100
C461	C46	0.111900	0.964500	0.400130
C471	C47	0.092900	0.820000	0.354100
C481	C48	0.159700	0.999100	0.480000
H221	H22	0.178800	0.932000	0.505900
N31	N3	0.231400	0.169500	0.603940
H231	H23	0.198300	0.235000	0.632100
N41	N4	0.436400	0.350500	0.021510
H241	H24	0.362300	0.375500	0.999900
O111	O11	0.193600	0.504400	0.251090
O121	O12	0.357000	0.524100	0.354630
O131	O13	0.838800	0.565900	0.324890
O141	O14	0.892300	0.477800	0.211370
O151	O15	0.605300	0.216300	0.000410
O161	O16	0.384100	0.015900	0.606950
O171	O17	0.087500	0.428800	0.398520
O181	O18	0.013500	0.270400	0.290590
O191	O19	0.057400	0.791900	0.282030
O201	O20	0.112900	0.729700	0.391830
Zn21	Zn2	0.056010	0.542200	0.320530
