data_FIPWOS_clean_PM
_symmetry_space_group_name_H-M	'P1'
_cell_length_a	9.126900
_cell_length_b	9.342700
_cell_length_c	9.604000
_cell_angle_alpha	114.455000
_cell_angle_beta	90.000000
_cell_angle_gamma	90.000000
_symmetry_Int_Tables_number 1

loop_
_symmetry_equiv_pos_as_xyz
'x,y,z'

loop_
_atom_site_label
_atom_site_type_symbol
_atom_site_fract_x
_atom_site_fract_y
_atom_site_fract_z
Zn11	Zn1	0.564660	0.403590	0.284560
Zn21	Zn2	0.064660	0.596410	0.715440
H11	H1	0.276900	0.566400	0.454400
H21	H2	0.431200	0.357300	0.842800
H31	H3	0.262400	0.387700	0.845300
H41	H4	0.574400	0.620600	0.912400
H51	H5	0.559400	0.338300	0.592100
H61	H6	0.678800	0.078900	0.252200
H71	H7	0.767200	0.111800	0.128700
H81	H8	0.289700	0.651200	0.000000
H91	H9	0.661200	0.892400	0.933900
H101	H10	0.742300	0.841500	0.050000
H111	H11	0.550000	0.161000	0.046000
H121	H12	0.476000	0.133000	0.159000
H131	H13	0.776900	0.433600	0.545600
H141	H14	0.931200	0.642700	0.157200
H151	H15	0.762400	0.612300	0.154700
H161	H16	0.074400	0.379400	0.087600
H171	H17	0.059400	0.661700	0.407900
H181	H18	0.178800	0.921100	0.747800
H191	H19	0.267200	0.888200	0.871300
H201	H20	0.789700	0.348800	0.000000
H211	H21	0.161200	0.107600	0.066100
H221	H22	0.242300	0.158500	0.950000
H231	H23	0.050000	0.839000	0.954000
H241	H24	0.976000	0.867000	0.841000
C11	C1	0.323200	0.521500	0.512900
C21	C2	0.357800	0.432100	0.842200
C31	C3	0.478300	0.396500	0.587700
C41	C4	0.370600	0.451200	0.696400
C51	C5	0.675100	0.071900	0.148700
C61	C6	0.384600	0.538400	0.122900
C71	C7	0.376300	0.584900	0.987600
C81	C8	0.659200	0.900000	0.037700
C91	C9	0.519800	0.825500	0.060700
C101	C10	0.823200	0.478500	0.487100
C111	C11	0.857800	0.567900	0.157800
C121	C12	0.978300	0.603500	0.412300
C131	C13	0.870600	0.548800	0.303600
C141	C14	0.175100	0.928100	0.851300
C151	C15	0.884600	0.461600	0.877100
C161	C16	0.876300	0.415100	0.012400
C171	C17	0.159200	0.100000	0.962300
C181	C18	0.019800	0.174500	0.939300
N11	N1	0.552800	0.173500	0.137200
N21	N2	0.505900	0.670300	0.975300
N31	N3	0.447500	0.441000	0.470900
N41	N4	0.270500	0.532300	0.646700
N51	N5	0.052800	0.826500	0.862800
N61	N6	0.005900	0.329700	0.024700
N71	N7	0.947500	0.559000	0.529100
N81	N8	0.770500	0.467700	0.353300
O11	O1	0.513560	0.524400	0.167100
O21	O2	0.269100	0.509400	0.174400
O31	O3	0.422700	0.902900	0.150600
O41	O4	0.013560	0.475600	0.832900
O51	O5	0.769100	0.490600	0.825600
O61	O6	0.922700	0.097100	0.849400
