data_FIPXAF_clean_PM
_symmetry_space_group_name_H-M	'P1'
_cell_length_a	9.252200
_cell_length_b	9.255600
_cell_length_c	9.478100
_cell_angle_alpha	90.000000
_cell_angle_beta	118.419000
_cell_angle_gamma	90.000000
_symmetry_Int_Tables_number 1

loop_
_symmetry_equiv_pos_as_xyz
'x,y,z'

loop_
_atom_site_label
_atom_site_type_symbol
_atom_site_fract_x
_atom_site_fract_y
_atom_site_fract_z
Zn11	Zn1	0.278890	0.626790	0.863360
N11	N1	0.105300	0.626800	0.936200
H11	H1	0.097500	0.718200	0.970100
H21	H2	0.005300	0.604000	0.850400
O11	O1	0.167400	0.677700	0.636900
N21	N2	0.635100	0.928600	0.131900
C11	C1	0.117200	0.805300	0.587100
O21	O2	0.162800	0.914200	0.670100
C21	C2	0.982500	0.814400	0.412200
H31	H3	0.002300	0.901500	0.361300
C31	C3	0.506100	0.878100	0.998600
H41	H4	0.457300	0.926700	0.898200
C41	C4	0.673600	0.826200	0.248400
N31	N3	0.976900	0.688100	0.320400
H51	H5	0.922000	0.612500	0.325500
N41	N4	0.454500	0.749100	0.025300
C51	C5	0.564700	0.715300	0.185100
H61	H6	0.563700	0.629600	0.239900
C61	C6	0.141700	0.523700	0.067100
H71	H7	0.256400	0.538300	0.152200
H81	H8	0.132900	0.424200	0.025400
C71	C7	0.817100	0.832300	0.412800
H91	H9	0.806100	0.754900	0.479200
H101	H10	0.816500	0.926100	0.462600
C81	C8	0.047900	0.678800	0.230200
C91	C9	0.026700	0.538900	0.140600
H111	H11	0.911600	0.532000	0.054000
H121	H12	0.046500	0.457300	0.215200
O31	O3	0.126000	0.780100	0.211200
Zn21	Zn2	0.721110	0.126790	0.136640
N51	N5	0.894700	0.126800	0.063800
H131	H13	0.902500	0.218200	0.029900
H141	H14	0.994700	0.104000	0.149600
O41	O4	0.832600	0.177700	0.363100
N61	N6	0.364900	0.428600	0.868100
C101	C10	0.882800	0.305300	0.412900
O51	O5	0.837200	0.414200	0.329900
C111	C11	0.017500	0.314400	0.587800
H151	H15	0.997700	0.401500	0.638700
C121	C12	0.493900	0.378100	0.001400
H161	H16	0.542700	0.426700	0.101800
C131	C13	0.326400	0.326200	0.751600
N71	N7	0.023100	0.188100	0.679600
H171	H17	0.078000	0.112500	0.674500
N81	N8	0.545500	0.249100	0.974700
C141	C14	0.435300	0.215300	0.814900
H181	H18	0.436300	0.129600	0.760100
C151	C15	0.858300	0.023700	0.932900
H191	H19	0.743600	0.038300	0.847800
H201	H20	0.867100	0.924200	0.974600
C161	C16	0.182900	0.332300	0.587200
H211	H21	0.193900	0.254900	0.520800
H221	H22	0.183500	0.426100	0.537400
C171	C17	0.952100	0.178800	0.769800
C181	C18	0.973300	0.038900	0.859400
H231	H23	0.088400	0.032000	0.946000
H241	H24	0.953500	0.957300	0.784800
O61	O6	0.874000	0.280100	0.788800
