data_FIQZAH_clean_PM
_symmetry_space_group_name_H-M	'P1'
_cell_length_a	11.340700
_cell_length_b	9.785600
_cell_length_c	14.433400
_cell_angle_alpha	90.000000
_cell_angle_beta	91.449000
_cell_angle_gamma	90.000000
_symmetry_Int_Tables_number 1

loop_
_symmetry_equiv_pos_as_xyz
'x,y,z'

loop_
_atom_site_label
_atom_site_type_symbol
_atom_site_fract_x
_atom_site_fract_y
_atom_site_fract_z
Zn11	Zn1	0.243210	0.081350	0.368800
Zn21	Zn2	0.240080	0.394820	0.313940
O11	O1	0.315400	0.973500	0.477090
C11	C1	0.256800	0.894500	0.529600
H11	H1	0.299000	0.846000	0.570000
O21	O2	0.149700	0.887300	0.533430
O31	O3	0.101700	0.157300	0.440560
C21	C2	0.069400	0.280700	0.448900
H21	H2	0.000000	0.289000	0.487000
O41	O4	0.111200	0.380600	0.408870
O51	O5	0.189900	0.202700	0.254500
C31	C3	0.169000	0.175500	0.169700
H31	H3	0.136000	0.250000	0.129000
O61	O6	0.185200	0.064800	0.130540
O71	O7	0.346100	0.259300	0.391180
C41	C4	0.424100	0.289600	0.452100
H41	H4	0.431000	0.385000	0.455000
O81	O8	0.481600	0.210000	0.500730
O91	O9	0.149100	0.918900	0.304780
C51	C5	0.045100	0.874100	0.311300
H51	H5	0.024000	0.809000	0.267000
O101	O10	0.976300	0.899100	0.374300
O111	O11	0.370000	0.997300	0.280650
C61	C6	0.480300	0.987300	0.287800
H61	H6	0.517000	0.966000	0.231000
O121	O12	0.540600	0.999700	0.359560
Zn31	Zn3	0.256790	0.581350	0.131200
Zn41	Zn4	0.259920	0.894820	0.186060
O131	O13	0.184600	0.473500	0.022910
C71	C7	0.243200	0.394500	0.970400
H71	H7	0.201000	0.346000	0.930000
O141	O14	0.350300	0.387300	0.966570
O151	O15	0.398300	0.657300	0.059440
C81	C8	0.430600	0.780700	0.051100
H81	H8	0.500000	0.789000	0.013000
O161	O16	0.388800	0.880600	0.091130
O171	O17	0.310100	0.702700	0.245500
C91	C9	0.331000	0.675500	0.330300
H91	H9	0.364000	0.750000	0.371000
O181	O18	0.314800	0.564800	0.369460
O191	O19	0.153900	0.759300	0.108820
C101	C10	0.075900	0.789600	0.047900
H101	H10	0.069000	0.885000	0.045000
O201	O20	0.018400	0.710000	0.999270
O211	O21	0.350900	0.418900	0.195220
C111	C11	0.454900	0.374100	0.188700
H111	H11	0.476000	0.309000	0.233000
O221	O22	0.523700	0.399100	0.125700
O231	O23	0.130000	0.497300	0.219350
C121	C12	0.019700	0.487300	0.212200
H121	H12	0.983000	0.466000	0.269000
O241	O24	0.959400	0.499700	0.140440
Zn51	Zn5	0.756790	0.918650	0.631200
Zn61	Zn6	0.759920	0.605180	0.686060
O251	O25	0.684600	0.026500	0.522910
C131	C13	0.743200	0.105500	0.470400
H131	H13	0.701000	0.154000	0.430000
O261	O26	0.850300	0.112700	0.466570
O271	O27	0.898300	0.842700	0.559440
C141	C14	0.930600	0.719300	0.551100
H141	H14	0.000000	0.711000	0.513000
O281	O28	0.888800	0.619400	0.591130
O291	O29	0.810100	0.797300	0.745500
C151	C15	0.831000	0.824500	0.830300
H151	H15	0.864000	0.750000	0.871000
O301	O30	0.814800	0.935200	0.869460
O311	O31	0.653900	0.740700	0.608820
C161	C16	0.575900	0.710400	0.547900
H161	H16	0.569000	0.615000	0.545000
O321	O32	0.518400	0.790000	0.499270
O331	O33	0.850900	0.081100	0.695220
C171	C17	0.954900	0.125900	0.688700
H171	H17	0.976000	0.191000	0.733000
O341	O34	0.023700	0.100900	0.625700
O351	O35	0.630000	0.002700	0.719350
C181	C18	0.519700	0.012700	0.712200
H181	H18	0.483000	0.034000	0.769000
O361	O36	0.459400	0.000300	0.640440
Zn71	Zn7	0.743210	0.418650	0.868800
Zn81	Zn8	0.740080	0.105180	0.813940
O371	O37	0.815400	0.526500	0.977090
C191	C19	0.756800	0.605500	0.029600
H191	H19	0.799000	0.654000	0.070000
O381	O38	0.649700	0.612700	0.033430
O391	O39	0.601700	0.342700	0.940560
C201	C20	0.569400	0.219300	0.948900
H201	H20	0.500000	0.211000	0.987000
O401	O40	0.611200	0.119400	0.908870
O411	O41	0.689900	0.297300	0.754500
C211	C21	0.669000	0.324500	0.669700
H211	H21	0.636000	0.250000	0.629000
O421	O42	0.685200	0.435200	0.630540
O431	O43	0.846100	0.240700	0.891180
C221	C22	0.924100	0.210400	0.952100
H221	H22	0.931000	0.115000	0.955000
O441	O44	0.981600	0.290000	0.000730
O451	O45	0.649100	0.581100	0.804780
C231	C23	0.545100	0.625900	0.811300
H231	H23	0.524000	0.691000	0.767000
O461	O46	0.476300	0.600900	0.874300
O471	O47	0.870000	0.502700	0.780650
C241	C24	0.980300	0.512700	0.787800
H241	H24	0.017000	0.534000	0.731000
O481	O48	0.040600	0.500300	0.859560
Zn91	Zn9	0.500000	0.000000	0.500000
Zn101	Zn10	0.000000	0.500000	0.000000
Zn111	Zn11	0.000000	0.000000	0.500000
Zn121	Zn12	0.500000	0.500000	0.000000
