data_FIRMUQ_clean_PM
_symmetry_space_group_name_H-M	'P1'
_cell_length_a	15.173800
_cell_length_b	15.173800
_cell_length_c	18.859000
_cell_angle_alpha	90.000000
_cell_angle_beta	90.000000
_cell_angle_gamma	120.000000
_symmetry_Int_Tables_number 1

loop_
_symmetry_equiv_pos_as_xyz
'x,y,z'

loop_
_atom_site_label
_atom_site_type_symbol
_atom_site_fract_x
_atom_site_fract_y
_atom_site_fract_z
Ni11	Ni1	0.000000	0.835180	0.833330
Ni21	Ni2	0.164820	0.164820	0.166670
Ni31	Ni3	0.835180	0.000000	0.500000
H11	H1	0.440000	0.497000	0.264900
H21	H2	0.991700	0.914100	0.978630
H31	H3	0.503000	0.943000	0.598230
H41	H4	0.193600	0.849000	0.777930
H51	H5	0.947400	0.657200	0.737100
H61	H6	0.008300	0.922400	0.688030
H71	H7	0.052600	0.709800	0.929570
H81	H8	0.914100	0.991700	0.354700
H91	H9	0.922400	0.008300	0.645300
H101	H10	0.895000	0.870000	0.078830
H111	H11	0.709800	0.052600	0.403770
H121	H12	0.102500	0.399200	0.011370
H131	H13	0.130000	0.025000	0.412170
H141	H14	0.560000	0.057000	0.401770
H151	H15	0.151000	0.344600	0.111270
H161	H16	0.077600	0.085900	0.021370
H171	H17	0.085900	0.077600	0.311970
H181	H18	0.657200	0.947400	0.596230
H191	H19	0.975000	0.105000	0.745500
H201	H20	0.600800	0.703300	0.344700
H211	H21	0.849000	0.193600	0.555400
H221	H22	0.870000	0.895000	0.254500
H231	H23	0.057000	0.560000	0.931570
H241	H24	0.897500	0.296700	0.655300
H251	H25	0.806400	0.655400	0.888730
H261	H26	0.290200	0.342800	0.262900
H271	H27	0.497000	0.440000	0.068430
H281	H28	0.296700	0.897500	0.678030
H291	H29	0.703300	0.600800	0.988630
H301	H30	0.342800	0.290200	0.070430
H311	H31	0.344600	0.151000	0.222070
H321	H32	0.025000	0.130000	0.921170
H331	H33	0.943000	0.503000	0.735100
H341	H34	0.655400	0.806400	0.444600
H351	H35	0.105000	0.975000	0.587830
H361	H36	0.399200	0.102500	0.321970
C11	C1	0.175830	0.874330	0.738890
C21	C2	0.363250	0.331980	0.110290
C31	C3	0.875730	0.824730	0.041040
C41	C4	0.813430	0.788730	0.743450
C51	C5	0.210580	0.941300	0.621570
C61	C6	0.277990	0.987800	0.963270
C71	C7	0.582810	0.582810	0.166670
C81	C8	0.722010	0.709810	0.703390
C91	C9	0.175270	0.051000	0.374380
C101	C10	0.301500	0.125670	0.261110
C111	C11	0.028080	0.303270	0.889870
C121	C12	0.031270	0.668020	0.889710
C131	C13	0.971920	0.275190	0.776800
C141	C14	0.562100	0.552200	0.704000
C151	C15	0.990100	0.437900	0.370670
C161	C16	0.082160	0.149340	0.019480
C171	C17	0.824170	0.698500	0.927770
C181	C18	0.788730	0.813430	0.589880
C191	C19	0.975300	0.186570	0.410120
C201	C20	0.636750	0.968730	0.556370
C211	C21	0.331980	0.363250	0.223040
C221	C22	0.941300	0.210580	0.711760
C231	C23	0.124270	0.949000	0.625620
C241	C24	0.051000	0.175270	0.958960
C251	C25	0.761390	0.664710	0.987400
C261	C26	0.949000	0.124270	0.707710
C271	C27	0.000000	0.515280	0.833330
C281	C28	0.352900	0.976200	0.929160
C291	C29	0.698500	0.824170	0.405560
C301	C30	0.874330	0.175830	0.594440
C311	C31	0.917840	0.067180	0.647190
C321	C32	0.966620	0.544400	0.775060
C331	C33	0.976200	0.352900	0.404170
C341	C34	0.664710	0.761390	0.345930
C351	C35	0.577780	0.033380	0.441730
C361	C36	0.850660	0.932820	0.352810
C371	C37	0.789420	0.730720	0.045090
C381	C38	0.303270	0.028080	0.443470
C391	C39	0.903320	0.238610	0.654070
C401	C40	0.552200	0.562100	0.629330
C411	C41	0.484720	0.484720	0.166670
C421	C42	0.647100	0.623300	0.737500
C431	C43	0.067180	0.917840	0.686140
C441	C44	0.024700	0.211270	0.256550
C451	C45	0.417190	0.000000	0.500000
C461	C46	0.269280	0.058700	0.378430
C471	C47	0.724810	0.696730	0.110130
C481	C48	0.058700	0.269280	0.954910
C491	C49	0.023800	0.376700	0.262500
C501	C50	0.515280	0.000000	0.500000
C511	C51	0.968730	0.636750	0.776960
C521	C52	0.422220	0.455600	0.224940
C531	C53	0.696730	0.724810	0.223200
C541	C54	0.149340	0.082160	0.313860
C551	C55	0.012200	0.290190	0.296610
C561	C56	0.623300	0.647100	0.595830
C571	C57	0.238610	0.903320	0.679260
C581	C58	0.275190	0.971920	0.556530
C591	C59	0.987800	0.277990	0.370060
C601	C60	0.000000	0.417190	0.833330
C611	C61	0.709810	0.722010	0.629940
C621	C62	0.125670	0.301500	0.072230
C631	C63	0.447800	0.009900	0.037340
C641	C64	0.824730	0.875730	0.292290
C651	C65	0.932820	0.850660	0.980520
C661	C66	0.096680	0.335290	0.012600
C671	C67	0.186570	0.975300	0.923210
C681	C68	0.376700	0.023800	0.070840
C691	C69	0.544400	0.966620	0.558270
C701	C70	0.290190	0.012200	0.036730
C711	C71	0.033380	0.577780	0.891610
C721	C72	0.437900	0.990100	0.962660
C731	C73	0.211270	0.024700	0.076790
C741	C74	0.668020	0.031270	0.443630
C751	C75	0.730720	0.789420	0.288240
C761	C76	0.335290	0.096680	0.320740
C771	C77	0.455600	0.422220	0.108390
C781	C78	0.009900	0.447800	0.296000
N11	N1	0.908890	0.789950	0.923740
N21	N2	0.000000	0.697020	0.833330
N31	N3	0.000000	0.240890	0.833330
N41	N4	0.972900	0.363540	0.773540
N51	N5	0.759110	0.759110	0.166670
N61	N6	0.240890	0.000000	0.500000
N71	N7	0.363540	0.972900	0.559790
N81	N8	0.609360	0.636460	0.226460
N91	N9	0.210050	0.118940	0.257080
N101	N10	0.027100	0.390640	0.893130
N111	N11	0.091110	0.881060	0.742920
N121	N12	0.118940	0.210050	0.076260
N131	N13	0.302980	0.302980	0.166670
N141	N14	0.390640	0.027100	0.440210
N151	N15	0.881060	0.091110	0.590410
N161	N16	0.697020	0.000000	0.500000
N171	N17	0.789950	0.908890	0.409590
N181	N18	0.636460	0.609360	0.106870
O11	O1	0.130800	0.891200	0.895190
O21	O2	0.869200	0.760400	0.771470
O31	O3	0.174630	0.051330	0.921880
O41	O4	0.876700	0.825370	0.588550
O51	O5	0.760400	0.869200	0.561860
O61	O6	0.825370	0.876700	0.744780
O71	O7	0.239600	0.108800	0.104810
O81	O8	0.948670	0.123300	0.255220
O91	O9	0.891200	0.130800	0.438140
O101	O10	0.051330	0.174630	0.411450
O111	O11	0.108800	0.239600	0.228530
O121	O12	0.123300	0.948670	0.078120
F11	F1	0.388560	0.042610	0.140970
F21	F2	0.022800	0.531060	0.262840
F31	F3	0.491740	0.468940	0.737160
F41	F4	0.531060	0.022800	0.070500
F51	F5	0.345950	0.957390	0.859030
F61	F6	0.042610	0.388560	0.192370
F71	F7	0.654050	0.611440	0.807630
F81	F8	0.611440	0.654050	0.525700
F91	F9	0.957390	0.345950	0.474300
F101	F10	0.468940	0.491740	0.596170
F111	F11	0.977200	0.508260	0.403830
F121	F12	0.508260	0.977200	0.929500
