data_FIRNUR_clean_PM
_symmetry_space_group_name_H-M	'P1'
_cell_length_a	15.673000
_cell_length_b	15.673000
_cell_length_c	18.532000
_cell_angle_alpha	90.000000
_cell_angle_beta	90.000000
_cell_angle_gamma	120.000000
_symmetry_Int_Tables_number 1

loop_
_symmetry_equiv_pos_as_xyz
'x,y,z'

loop_
_atom_site_label
_atom_site_type_symbol
_atom_site_fract_x
_atom_site_fract_y
_atom_site_fract_z
Ni11	Ni1	0.000000	0.177630	0.166670
Ni21	Ni2	0.822370	0.822370	0.833330
Ni31	Ni3	0.177630	0.000000	0.500000
H11	H1	0.885200	0.887800	0.680030
H21	H2	0.560800	0.495600	0.734600
H31	H3	0.934800	0.439200	0.067930
H41	H4	0.395400	0.297100	0.652100
H51	H5	0.112200	0.997400	0.346700
H61	H6	0.957900	0.852100	0.081530
H71	H7	0.061000	0.527700	0.549300
H81	H8	0.345300	0.199500	0.551900
H91	H9	0.373800	0.312400	0.453200
H101	H10	0.854200	0.654700	0.885230
H111	H11	0.098300	0.702900	0.347900
H121	H12	0.042100	0.894200	0.251800
H131	H13	0.114800	0.002600	0.653300
H141	H14	0.887800	0.885200	0.986630
H151	H15	0.894200	0.042100	0.414870
H161	H16	0.474800	0.043900	0.053270
H171	H17	0.642200	0.708700	0.921870
H181	H18	0.147900	0.105800	0.748200
H191	H19	0.043900	0.474800	0.613400
H201	H20	0.002600	0.114800	0.013370
H211	H21	0.439200	0.934800	0.598730
H221	H22	0.291300	0.933500	0.588530
H231	H23	0.199500	0.345300	0.114770
H241	H24	0.702900	0.098300	0.318770
H251	H25	0.312400	0.373800	0.213470
H261	H26	0.297100	0.395400	0.014570
H271	H27	0.569100	0.525200	0.386600
H281	H28	0.525200	0.569100	0.280070
H291	H29	0.357800	0.066500	0.411470
H301	H30	0.066500	0.357800	0.255200
H311	H31	0.145800	0.800500	0.448100
H321	H32	0.708700	0.642200	0.744800
H331	H33	0.626200	0.938600	0.880130
H341	H34	0.472300	0.533300	0.215970
H351	H35	0.061400	0.687600	0.546800
H361	H36	0.105800	0.147900	0.918470
H371	H37	0.852100	0.957900	0.585130
H381	H38	0.933500	0.291300	0.078130
H391	H39	0.939000	0.466700	0.784030
H401	H40	0.065200	0.504400	0.265400
H411	H41	0.956100	0.430900	0.719930
H421	H42	0.604600	0.901700	0.681230
H431	H43	0.901700	0.604600	0.985430
H441	H44	0.504400	0.065200	0.401270
H451	H45	0.938600	0.626200	0.786530
H461	H46	0.654700	0.854200	0.781430
H471	H47	0.533300	0.472300	0.450700
H481	H48	0.997400	0.112200	0.319970
H491	H49	0.687600	0.061400	0.119870
H501	H50	0.527700	0.061000	0.117370
H511	H51	0.495600	0.560800	0.932070
H521	H52	0.466700	0.939000	0.882630
H531	H53	0.430900	0.956100	0.946730
H541	H54	0.800500	0.145800	0.218570
C11	C1	0.663700	0.626600	0.782200
C21	C2	0.672900	0.037000	0.073070
C31	C3	0.192300	0.124100	0.710100
C41	C4	0.211500	0.281000	0.953870
C51	C5	0.069500	0.788500	0.287200
C61	C6	0.807700	0.931800	0.623230
C71	C7	0.587100	0.017500	0.040870
C81	C8	0.170500	0.065000	0.651300
C91	C9	0.464300	0.039400	0.441770
C101	C10	0.020100	0.736100	0.631400
C111	C11	0.962800	0.787200	0.742430
C121	C12	0.000000	0.586200	0.166670
C131	C13	0.930500	0.719000	0.046130
C141	C14	0.901600	0.663800	0.986330
C151	C15	0.098400	0.762200	0.347000
C161	C16	0.178500	0.306600	0.073370
C171	C17	0.212800	0.175600	0.409100
C181	C18	0.017500	0.587100	0.625800
C191	C19	0.412900	0.430400	0.292470
C201	C20	0.894500	0.829500	0.984630
C211	C21	0.962900	0.336300	0.115530
C221	C22	0.693400	0.871900	0.740030
C231	C23	0.719000	0.930500	0.620530
C241	C24	0.663800	0.901600	0.680330
C251	C25	0.037100	0.373400	0.217800
C261	C26	0.175600	0.212800	0.257570
C271	C27	0.281000	0.211500	0.712800
C281	C28	0.284000	0.263900	0.368600
C291	C29	0.821500	0.128100	0.259970
C301	C30	0.037000	0.672900	0.593600
C311	C31	0.065000	0.170500	0.015370
C321	C32	0.263900	0.284000	0.298070
C331	C33	0.982500	0.569600	0.707530
C341	C34	0.336300	0.962900	0.551130
C351	C35	0.788500	0.069500	0.379470
C361	C36	0.364100	0.327100	0.406400
C371	C37	0.430400	0.412900	0.374200
C381	C38	0.979900	0.716000	0.701930
C391	C39	0.037200	0.824400	0.590900
C401	C40	0.762200	0.098400	0.319670
C411	C41	0.626600	0.663700	0.884470
C421	C42	0.575100	0.535700	0.775100
C431	C43	0.413800	0.413800	0.833330
C441	C44	0.586200	0.000000	0.500000
C451	C45	0.033800	0.722100	0.223600
C461	C46	0.963000	0.635900	0.739730
C471	C47	0.688300	0.966200	0.556930
C481	C48	0.068200	0.875900	0.289900
C491	C49	0.306600	0.178500	0.593300
C501	C50	0.875900	0.068200	0.376770
C511	C51	0.128100	0.821500	0.406700
C521	C52	0.960600	0.424900	0.108430
C531	C53	0.511000	0.511000	0.833330
C541	C54	0.871900	0.693400	0.926630
C551	C55	0.039400	0.464300	0.224900
C561	C56	0.277900	0.311700	0.890270
C571	C57	0.787200	0.962800	0.924230
C581	C58	0.535700	0.575100	0.891570
C591	C59	0.736100	0.020100	0.035270
C601	C60	0.722100	0.033800	0.443070
C611	C61	0.569600	0.982500	0.959130
C621	C62	0.373400	0.037100	0.448870
C631	C63	0.935000	0.105500	0.317970
C641	C64	0.124100	0.192300	0.956570
C651	C65	0.824400	0.037200	0.075770
C661	C66	0.336200	0.237800	0.653000
C671	C67	0.424900	0.960600	0.558230
C681	C68	0.931800	0.807700	0.043430
C691	C69	0.966200	0.688300	0.109730
C701	C70	0.829500	0.894500	0.682030
C711	C71	0.716000	0.979900	0.964730
C721	C72	0.327100	0.364100	0.260270
C731	C73	0.237800	0.336200	0.013670
C741	C74	0.105500	0.935000	0.348700
C751	C75	0.000000	0.489000	0.166670
C761	C76	0.489000	0.000000	0.500000
C771	C77	0.635900	0.963000	0.926930
C781	C78	0.311700	0.277900	0.776400
N11	N1	0.964900	0.603900	0.108230
N21	N2	0.910300	0.132100	0.259870
N31	N3	0.361000	0.396100	0.891770
N41	N4	0.778200	0.867900	0.740130
N51	N5	0.691100	0.691100	0.833330
N61	N6	0.000000	0.752400	0.166670
N71	N7	0.221800	0.089700	0.593200
N81	N8	0.519700	0.037000	0.072670
N91	N9	0.132100	0.910300	0.406800
N101	N10	0.482700	0.963000	0.927330
N111	N11	0.603900	0.964900	0.558430
N121	N12	0.037000	0.519700	0.594000
N131	N13	0.752400	0.000000	0.500000
N141	N14	0.517300	0.480300	0.406000
N151	N15	0.308900	0.000000	0.500000
N161	N16	0.867900	0.778200	0.926530
N171	N17	0.035100	0.639000	0.225100
N181	N18	0.396100	0.361000	0.774900
N191	N19	0.639000	0.035100	0.441570
N201	N20	0.247600	0.247600	0.833330
N211	N21	0.000000	0.308900	0.166670
N221	N22	0.089700	0.221800	0.073470
N231	N23	0.963000	0.482700	0.739330
N241	N24	0.480300	0.517300	0.260670
O11	O1	0.874500	0.119700	0.103470
O21	O2	0.155400	0.125200	0.250170
O31	O3	0.125500	0.245200	0.229870
O41	O4	0.969800	0.844600	0.583500
O51	O5	0.754800	0.880300	0.896530
O61	O6	0.125200	0.155400	0.416500
O71	O7	0.880300	0.754800	0.770130
O81	O8	0.245200	0.125500	0.436800
O91	O9	0.844600	0.969800	0.083170
O101	O10	0.119700	0.874500	0.563200
O111	O11	0.030200	0.874800	0.749830
O121	O12	0.874800	0.030200	0.916830
