data_FIRNOL_clean_PM
_symmetry_space_group_name_H-M	'P1'
_cell_length_a	15.638000
_cell_length_b	15.638000
_cell_length_c	18.499000
_cell_angle_alpha	90.000000
_cell_angle_beta	90.000000
_cell_angle_gamma	120.000000
_symmetry_Int_Tables_number 1

loop_
_symmetry_equiv_pos_as_xyz
'x,y,z'

loop_
_atom_site_label
_atom_site_type_symbol
_atom_site_fract_x
_atom_site_fract_y
_atom_site_fract_z
Ni11	Ni1	0.823810	0.000000	0.500000
Ni21	Ni2	0.000000	0.823810	0.166670
Ni31	Ni3	0.176190	0.176190	0.833330
H11	H1	0.989100	0.896900	0.017130
H21	H2	0.805500	0.654400	0.113730
H31	H3	0.602400	0.705300	0.652130
H41	H4	0.683300	0.621400	0.213430
H51	H5	0.938100	0.316700	0.546770
H61	H6	0.378600	0.061900	0.880100
H71	H7	0.092200	0.103100	0.982870
H81	H8	0.345600	0.151100	0.780400
H91	H9	0.061900	0.378600	0.786570
H101	H10	0.897100	0.294700	0.347870
H111	H11	0.956600	0.105300	0.249370
H121	H12	0.439900	0.499500	0.734730
H131	H13	0.295400	0.356100	0.739130
H141	H14	0.851300	0.894700	0.750630
H151	H15	0.848900	0.194500	0.447070
H161	H16	0.105300	0.956600	0.417300
H171	H17	0.896900	0.989100	0.649530
H181	H18	0.705300	0.602400	0.014530
H191	H19	0.939300	0.643900	0.260870
H201	H20	0.151100	0.345600	0.886270
H211	H21	0.907800	0.010900	0.350470
H221	H22	0.059600	0.560100	0.068070
H231	H23	0.621400	0.683300	0.453230
H241	H24	0.060700	0.704600	0.072470
H251	H25	0.294700	0.897100	0.318800
H261	H26	0.148700	0.043400	0.582700
H271	H27	0.940400	0.500500	0.265270
H281	H28	0.643900	0.939300	0.405800
H291	H29	0.102900	0.397600	0.985470
H301	H30	0.894700	0.851300	0.916030
H311	H31	0.010900	0.907800	0.316200
H321	H32	0.356100	0.295400	0.927530
H331	H33	0.316700	0.938100	0.119900
H341	H34	0.500500	0.940400	0.401400
H351	H35	0.397600	0.102900	0.681200
H361	H36	0.103100	0.092200	0.683800
H371	H37	0.704600	0.060700	0.594200
H381	H38	0.499500	0.439900	0.931930
H391	H39	0.194500	0.848900	0.219600
H401	H40	0.043400	0.148700	0.083970
H411	H41	0.560100	0.059600	0.598600
H421	H42	0.654400	0.805500	0.552930
C11	C1	0.263400	0.978700	0.034600
C21	C2	0.068700	0.904700	0.317000
C31	C3	0.511800	0.000000	0.500000
C41	C4	0.786700	0.721600	0.953930
C51	C5	0.715300	0.736600	0.367930
C61	C6	0.809700	0.874400	0.710630
C71	C7	0.000000	0.417100	0.166670
C81	C8	0.671200	0.631000	0.261130
C91	C9	0.631000	0.671200	0.405530
C101	C10	0.836000	0.931300	0.650330
C111	C11	0.173900	0.963100	0.076100
C121	C12	0.278400	0.065100	0.620600
C131	C13	0.338000	0.372900	0.778330
C141	C14	0.328800	0.959800	0.072200
C151	C15	0.826100	0.789200	0.257230
C161	C16	0.284700	0.021300	0.965400
C171	C17	0.582900	0.582900	0.833330
C181	C18	0.417100	0.000000	0.500000
C191	C19	0.213300	0.934900	0.379400
C201	C20	0.974700	0.413800	0.630770
C211	C21	0.025300	0.439100	0.702570
C221	C22	0.439100	0.025300	0.964100
C231	C23	0.000000	0.511800	0.166670
C241	C24	0.278000	0.967800	0.443100
C251	C25	0.064700	0.190300	0.043970
C261	C26	0.175800	0.870300	0.260400
C271	C27	0.964600	0.540600	0.224570
C281	C28	0.689800	0.722000	0.776430
C291	C29	0.210800	0.036900	0.923900
C301	C30	0.065100	0.278400	0.046070
C311	C31	0.164000	0.095300	0.683000
C321	C32	0.789200	0.826100	0.409430
C331	C33	0.763100	0.663400	0.013730
C341	C34	0.870300	0.175800	0.406270
C351	C35	0.978700	0.263400	0.632070
C361	C36	0.032200	0.310200	0.109770
C371	C37	0.459400	0.424000	0.891230
C381	C38	0.129700	0.305500	0.927070
C391	C39	0.236900	0.900300	0.319600
C401	C40	0.963100	0.173900	0.590570
C411	C41	0.021300	0.284700	0.701270
C421	C42	0.125600	0.935300	0.377300
C431	C43	0.540600	0.964600	0.442100
C441	C44	0.904700	0.068700	0.349670
C451	C45	0.935300	0.125600	0.289370
C461	C46	0.035400	0.576000	0.108770
C471	C47	0.965100	0.627100	0.221670
C481	C48	0.934900	0.213300	0.287270
C491	C49	0.036900	0.210800	0.742770
C501	C50	0.372900	0.338000	0.888330
C511	C51	0.305500	0.129700	0.739600
C521	C52	0.694500	0.824200	0.593730
C531	C53	0.967800	0.278000	0.223570
C541	C54	0.586200	0.560900	0.297430
C551	C55	0.560900	0.586200	0.369230
C561	C56	0.931300	0.836000	0.016330
C571	C57	0.424000	0.459400	0.775430
C581	C58	0.722000	0.689800	0.890230
C591	C59	0.576000	0.035400	0.557900
C601	C60	0.336600	0.099700	0.680400
C611	C61	0.413800	0.974700	0.035900
C621	C62	0.034900	0.662000	0.111670
C631	C63	0.736600	0.715300	0.298730
C641	C64	0.190300	0.064700	0.622700
C651	C65	0.310200	0.032200	0.556900
C661	C66	0.721600	0.786700	0.712730
C671	C67	0.627100	0.965100	0.445000
C681	C68	0.099700	0.336600	0.986270
C691	C69	0.959800	0.328800	0.594470
C701	C70	0.663400	0.763100	0.652930
C711	C71	0.040200	0.369000	0.738870
C721	C72	0.095300	0.164000	0.983670
C731	C73	0.488200	0.488200	0.833330
C741	C74	0.369000	0.040200	0.927800
C751	C75	0.662000	0.034900	0.555000
C761	C76	0.900300	0.236900	0.347070
C771	C77	0.874400	0.809700	0.956030
C781	C78	0.824200	0.694500	0.072930
N11	N1	0.908200	0.778600	0.074340
N21	N2	0.751600	0.751600	0.833330
N31	N3	0.062600	0.536600	0.737470
N41	N4	0.221400	0.129600	0.741010
N51	N5	0.248400	0.000000	0.500000
N61	N6	0.637300	0.604400	0.892130
N71	N7	0.604400	0.637300	0.774530
N81	N8	0.778600	0.908200	0.592320
N91	N9	0.536600	0.062600	0.929200
N101	N10	0.689600	0.000000	0.500000
N111	N11	0.526000	0.463400	0.262530
N121	N12	0.032900	0.395600	0.107870
N131	N13	0.129600	0.221400	0.925660
N141	N14	0.474000	0.937400	0.070800
N151	N15	0.000000	0.689600	0.166670
N161	N16	0.937400	0.474000	0.595870
N171	N17	0.091800	0.870400	0.258990
N181	N18	0.000000	0.248400	0.166670
N191	N19	0.362700	0.967100	0.441200
N201	N20	0.967100	0.362700	0.225470
N211	N21	0.870400	0.091800	0.407680
N221	N22	0.395600	0.032900	0.558800
N231	N23	0.310400	0.310400	0.833330
N241	N24	0.463400	0.526000	0.404130
O11	O1	0.881000	0.124800	0.564040
O21	O2	0.461000	0.403700	0.302330
O31	O3	0.119000	0.243800	0.769300
O41	O4	0.031700	0.157600	0.586170
O51	O5	0.926000	0.472000	0.530370
O61	O6	0.057300	0.596300	0.697670
O71	O7	0.528000	0.454000	0.197030
O81	O8	0.125900	0.968300	0.919500
O91	O9	0.472000	0.926000	0.136300
O101	O10	0.596300	0.057300	0.969000
O111	O11	0.756200	0.875200	0.435960
O121	O12	0.074000	0.546000	0.802970
O131	O13	0.539000	0.942700	0.031000
O141	O14	0.874100	0.842400	0.413830
O151	O15	0.968300	0.125900	0.747170
O161	O16	0.454000	0.528000	0.469630
O171	O17	0.842400	0.874100	0.252830
O181	O18	0.124800	0.881000	0.102630
O191	O19	0.243800	0.119000	0.897370
O201	O20	0.157600	0.031700	0.080500
O211	O21	0.942700	0.539000	0.635670
O221	O22	0.403700	0.461000	0.364330
O231	O23	0.546000	0.074000	0.863700
O241	O24	0.875200	0.756200	0.230700
