data_FIRNAX01_clean_PM
_symmetry_space_group_name_H-M	'P1'
_cell_length_a	15.698000
_cell_length_b	15.698000
_cell_length_c	18.557000
_cell_angle_alpha	90.000000
_cell_angle_beta	90.000000
_cell_angle_gamma	120.000000
_symmetry_Int_Tables_number 1

loop_
_symmetry_equiv_pos_as_xyz
'x,y,z'

loop_
_atom_site_label
_atom_site_type_symbol
_atom_site_fract_x
_atom_site_fract_y
_atom_site_fract_z
Ni11	Ni1	0.000000	0.822070	0.833330
Ni21	Ni2	0.822070	0.000000	0.500000
Ni31	Ni3	0.177930	0.177930	0.166670
H11	H1	0.495600	0.934100	0.596000
H21	H2	0.805000	0.654400	0.886270
H31	H3	0.602000	0.702300	0.349070
H41	H4	0.100300	0.398000	0.015730
H51	H5	0.499900	0.540600	0.609730
H61	H6	0.045700	0.150300	0.914530
H71	H7	0.297700	0.899700	0.682400
H81	H8	0.959300	0.459400	0.390270
H91	H9	0.934100	0.495600	0.737330
H101	H10	0.504400	0.438500	0.070670
H111	H11	0.702300	0.602000	0.984270
H121	H12	0.935100	0.640800	0.739830
H131	H13	0.040700	0.500100	0.276400
H141	H14	0.103700	0.108900	0.013730
H151	H15	0.150600	0.345600	0.113730
H161	H16	0.994800	0.891100	0.986270
H171	H17	0.359200	0.294300	0.073170
H181	H18	0.640800	0.935100	0.593500
H191	H19	0.065900	0.561500	0.929330
H201	H20	0.104600	0.954300	0.581200
H211	H21	0.895400	0.849700	0.085470
H221	H22	0.954300	0.104600	0.752130
H231	H23	0.195000	0.849400	0.780400
H241	H24	0.891100	0.994800	0.347070
H251	H25	0.459400	0.959300	0.943070
H261	H26	0.561500	0.065900	0.404000
H271	H27	0.294300	0.359200	0.260170
H281	H28	0.849400	0.195000	0.552930
H291	H29	0.150300	0.045700	0.418800
H301	H30	0.849700	0.895400	0.247870
H311	H31	0.005200	0.896300	0.680400
H321	H32	0.705700	0.064900	0.406500
H331	H33	0.500100	0.040700	0.056930
H341	H34	0.345600	0.150600	0.219600
H351	H35	0.896300	0.005200	0.652930
H361	H36	0.899700	0.297700	0.650930
H371	H37	0.064900	0.705700	0.926830
H381	H38	0.108900	0.103700	0.319600
H391	H39	0.438500	0.504400	0.262670
H401	H40	0.398000	0.100300	0.317600
H411	H41	0.540600	0.499900	0.723600
H421	H42	0.654400	0.805000	0.447070
C11	C1	0.962000	0.624500	0.778490
C21	C2	0.021800	0.440200	0.298700
C31	C3	0.333000	0.964600	0.932070
C41	C4	0.265100	0.981700	0.965200
C51	C5	0.210300	0.036400	0.077140
C61	C6	0.130500	0.306600	0.072550
C71	C7	0.102200	0.167400	0.014260
C81	C8	0.716600	0.734900	0.631860
C91	C9	0.018300	0.283400	0.298530
C101	C10	0.537500	0.961000	0.556700
C111	C11	0.238700	0.900100	0.680860
C121	C12	0.931600	0.123800	0.712580
C131	C13	0.033300	0.310700	0.888570
C141	C14	0.662500	0.038000	0.445160
C151	C15	0.823900	0.693400	0.927450
C161	C16	0.039000	0.576500	0.890030
C171	C17	0.934800	0.832600	0.985740
C181	C18	0.897800	0.065200	0.652400
C191	C19	0.511800	0.000000	0.500000
C201	C20	0.961000	0.537500	0.776630
C211	C21	0.038000	0.662500	0.888170
C221	C22	0.173900	0.963600	0.922860
C231	C23	0.667000	0.631600	0.734600
C241	C24	0.966700	0.277400	0.778090
C251	C25	0.000000	0.511800	0.833330
C261	C26	0.423500	0.462500	0.223370
C271	C27	0.065200	0.897800	0.680930
C281	C28	0.099900	0.338600	0.014190
C291	C29	0.576500	0.039000	0.443300
C301	C30	0.123800	0.931600	0.620750
C311	C31	0.310700	0.033300	0.444760
C321	C32	0.375500	0.337500	0.111830
C331	C33	0.068400	0.192200	0.954080
C341	C34	0.900100	0.238700	0.652470
C351	C35	0.418400	0.978200	0.965370
C361	C36	0.176100	0.869500	0.739220
C371	C37	0.789700	0.826100	0.589520
C381	C38	0.306600	0.130500	0.260780
C391	C39	0.981700	0.265100	0.368140
C401	C40	0.211400	0.931400	0.619940
C411	C41	0.876200	0.807800	0.045920
C421	C42	0.000000	0.416900	0.833330
C431	C43	0.277400	0.966700	0.555240
C441	C44	0.337500	0.375500	0.221510
C451	C45	0.689300	0.722600	0.221910
C461	C46	0.488200	0.488200	0.166670
C471	C47	0.368400	0.035400	0.067930
C481	C48	0.788600	0.720000	0.046730
C491	C49	0.631600	0.667000	0.598730
C501	C50	0.624500	0.962000	0.554840
C511	C51	0.978200	0.418400	0.367970
C521	C52	0.280000	0.068600	0.380060
C531	C53	0.661400	0.761300	0.347530
C541	C54	0.963600	0.173900	0.410480
C551	C55	0.807800	0.876200	0.287420
C561	C56	0.583100	0.583100	0.166670
C571	C57	0.931400	0.211400	0.713390
C581	C58	0.722600	0.689300	0.111430
C591	C59	0.283400	0.018300	0.034800
C601	C60	0.734900	0.716600	0.701470
C611	C61	0.832600	0.934800	0.347600
C621	C62	0.338600	0.099900	0.319140
C631	C63	0.462500	0.423500	0.109970
C641	C64	0.693400	0.823900	0.405890
C651	C65	0.192200	0.068400	0.379250
C661	C66	0.035400	0.368400	0.265400
C671	C67	0.826100	0.789700	0.743810
C681	C68	0.964600	0.333000	0.401270
C691	C69	0.416900	0.000000	0.500000
C701	C70	0.761300	0.661400	0.985810
C711	C71	0.720000	0.788600	0.286610
C721	C72	0.068600	0.280000	0.953270
C731	C73	0.167400	0.102200	0.319070
C741	C74	0.036400	0.210300	0.256190
C751	C75	0.559800	0.581600	0.632030
C761	C76	0.869500	0.176100	0.594110
C771	C77	0.440200	0.021800	0.034630
C781	C78	0.581600	0.559800	0.701300
N11	N1	0.000000	0.688100	0.833330
N21	N2	0.089940	0.866990	0.740180
N31	N3	0.777050	0.910060	0.406850
N41	N4	0.910060	0.777050	0.926490
N51	N5	0.311900	0.311900	0.166670
N61	N6	0.866990	0.089940	0.593150
N71	N7	0.395480	0.035040	0.441800
N81	N8	0.360440	0.964960	0.558200
N91	N9	0.688100	0.000000	0.500000
N101	N10	0.000000	0.247600	0.833330
N111	N11	0.964960	0.360440	0.775130
N121	N12	0.639560	0.604520	0.108470
N131	N13	0.222950	0.133010	0.259820
N141	N14	0.752400	0.752400	0.166670
N151	N15	0.604520	0.639560	0.224870
N161	N16	0.247600	0.000000	0.500000
N171	N17	0.035040	0.395480	0.891530
N181	N18	0.133010	0.222950	0.073510
O11	O1	0.120490	0.244030	0.230390
O21	O2	0.874400	0.844300	0.585130
O31	O3	0.125600	0.969900	0.081530
O41	O4	0.030100	0.155700	0.414870
O51	O5	0.879510	0.123540	0.436280
O61	O6	0.969900	0.125600	0.251800
O71	O7	0.155700	0.030100	0.918470
O81	O8	0.876460	0.755970	0.769610
O91	O9	0.755970	0.876460	0.563720
O101	O10	0.244030	0.120490	0.102940
O111	O11	0.844300	0.874400	0.748200
O121	O12	0.123540	0.879510	0.897060
F11	F1	0.392100	0.065800	0.134530
F21	F2	0.607900	0.673700	0.532130
F31	F3	0.673700	0.607900	0.801200
F41	F4	0.065800	0.392100	0.198800
F51	F5	0.326300	0.934200	0.865470
F61	F6	0.934200	0.326300	0.467870
