data_FIRNIF_clean_PM
_symmetry_space_group_name_H-M	'P1'
_cell_length_a	15.688000
_cell_length_b	15.688000
_cell_length_c	18.678000
_cell_angle_alpha	90.000000
_cell_angle_beta	90.000000
_cell_angle_gamma	120.000000
_symmetry_Int_Tables_number 1

loop_
_symmetry_equiv_pos_as_xyz
'x,y,z'

loop_
_atom_site_label
_atom_site_type_symbol
_atom_site_fract_x
_atom_site_fract_y
_atom_site_fract_z
Ni11	Ni1	0.823650	0.000000	0.500000
Ni21	Ni2	0.176350	0.176350	0.833330
Ni31	Ni3	0.000000	0.823650	0.166670
H11	H1	0.318200	0.933700	0.117900
H21	H2	0.681800	0.615500	0.215430
H31	H3	0.700900	0.604500	0.015330
H41	H4	0.938900	0.644400	0.259270
H51	H5	0.384500	0.066300	0.882100
H61	H6	0.096400	0.395500	0.984670
H71	H7	0.615500	0.681800	0.451230
H81	H8	0.195000	0.851400	0.219700
H91	H9	0.933700	0.318200	0.548770
H101	H10	0.149600	0.047000	0.581900
H111	H11	0.061100	0.705500	0.074070
H121	H12	0.897400	0.004100	0.348470
H131	H13	0.343600	0.148600	0.780300
H141	H14	0.953000	0.102600	0.248570
H151	H15	0.299100	0.903600	0.318000
H161	H16	0.604500	0.700900	0.651330
H171	H17	0.437900	0.504800	0.736830
H181	H18	0.995900	0.893300	0.015130
H191	H19	0.562100	0.066900	0.596500
H201	H20	0.047000	0.149600	0.084770
H211	H21	0.102600	0.953000	0.418100
H221	H22	0.851400	0.195000	0.446970
H231	H23	0.504800	0.437900	0.929830
H241	H24	0.004100	0.897400	0.318200
H251	H25	0.106700	0.102600	0.681800
H261	H26	0.656400	0.805000	0.553030
H271	H27	0.933100	0.495200	0.263170
H281	H28	0.897400	0.850400	0.915230
H291	H29	0.066300	0.384500	0.784570
H301	H30	0.705500	0.061100	0.592600
H311	H31	0.495200	0.933100	0.403500
H321	H32	0.644400	0.938900	0.407400
H331	H33	0.850400	0.897400	0.751430
H341	H34	0.294500	0.355600	0.740730
H351	H35	0.066900	0.562100	0.070170
H361	H36	0.893300	0.995900	0.651530
H371	H37	0.148600	0.343600	0.886370
H381	H38	0.102600	0.106700	0.984870
H391	H39	0.355600	0.294500	0.925930
H401	H40	0.805000	0.656400	0.113630
H411	H41	0.395500	0.096400	0.682000
H421	H42	0.903600	0.299100	0.348670
C11	C1	0.463300	0.424000	0.890630
C21	C2	0.576000	0.039300	0.557300
C31	C3	0.211200	0.035800	0.923000
C41	C4	0.175400	0.964200	0.077000
C51	C5	0.662800	0.035900	0.553800
C61	C6	0.016200	0.435900	0.704170
C71	C7	0.264100	0.978300	0.034700
C81	C8	0.935700	0.835000	0.015370
C91	C9	0.564100	0.580300	0.370830
C101	C10	0.934600	0.211800	0.287710
C111	C11	0.536700	0.960700	0.442700
C121	C12	0.190600	0.067700	0.621800
C131	C13	0.373100	0.337200	0.887130
C141	C14	0.064300	0.899300	0.317960
C151	C15	0.021700	0.285800	0.701370
C161	C16	0.100700	0.165000	0.984630
C171	C17	0.723700	0.691000	0.889580
C181	C18	0.964100	0.626900	0.220470
C191	C19	0.691000	0.723700	0.777080
C201	C20	0.788800	0.824600	0.410330
C211	C21	0.165000	0.100700	0.682040
C221	C22	0.663700	0.760200	0.652550
C231	C23	0.277200	0.065400	0.621040
C241	C24	0.510300	0.000000	0.500000
C251	C25	0.626900	0.964100	0.446200
C261	C26	0.000000	0.416100	0.166670
C271	C27	0.309000	0.032700	0.556250
C281	C28	0.285800	0.021700	0.965300
C291	C29	0.877100	0.809400	0.955130
C301	C30	0.176200	0.872000	0.260400
C311	C31	0.337200	0.373100	0.779530
C321	C32	0.336300	0.096500	0.680780
C331	C33	0.964200	0.175400	0.589670
C341	C34	0.983800	0.419700	0.629170
C351	C35	0.960700	0.536700	0.223970
C361	C36	0.735900	0.714200	0.298630
C371	C37	0.000000	0.510300	0.166670
C381	C38	0.823800	0.695800	0.072930
C391	C39	0.978300	0.264100	0.631970
C401	C40	0.035900	0.662800	0.112870
C411	C41	0.211800	0.934600	0.378960
C421	C42	0.331800	0.960300	0.072000
C431	C43	0.424000	0.463300	0.776030
C441	C44	0.824600	0.788800	0.256330
C451	C45	0.371500	0.039700	0.928000
C461	C46	0.932300	0.122900	0.288470
C471	C47	0.039300	0.576000	0.109370
C481	C48	0.239800	0.903500	0.319220
C491	C49	0.065400	0.277200	0.045630
C501	C50	0.809400	0.877100	0.711530
C511	C51	0.122900	0.932300	0.378200
C521	C52	0.835000	0.935700	0.651290
C531	C53	0.695800	0.823800	0.593730
C541	C54	0.580300	0.564100	0.295830
C551	C55	0.788200	0.722800	0.954370
C561	C56	0.276300	0.967300	0.443750
C571	C57	0.628500	0.668200	0.405330
C581	C58	0.304200	0.128000	0.739600
C591	C59	0.668200	0.628500	0.261330
C601	C60	0.903500	0.239800	0.347450
C611	C61	0.583900	0.583900	0.833330
C621	C62	0.039700	0.371500	0.738670
C631	C63	0.760200	0.663700	0.014110
C641	C64	0.035800	0.211200	0.743670
C651	C65	0.872000	0.176200	0.406270
C661	C66	0.067700	0.190600	0.044870
C671	C67	0.032700	0.309000	0.110420
C681	C68	0.899300	0.064300	0.348710
C691	C69	0.714200	0.735900	0.368030
C701	C70	0.722800	0.788200	0.712290
C711	C71	0.128000	0.304200	0.927070
C721	C72	0.419700	0.983800	0.037500
C731	C73	0.489700	0.489700	0.833330
C741	C74	0.967300	0.276300	0.222920
C751	C75	0.960300	0.331800	0.594670
C761	C76	0.096500	0.336300	0.985890
C771	C77	0.435900	0.016200	0.962500
C781	C78	0.416100	0.000000	0.500000
N11	N1	0.246300	0.000000	0.500000
N21	N2	0.966600	0.361200	0.225840
N31	N3	0.221200	0.130200	0.740590
N41	N4	0.869800	0.091000	0.407260
N51	N5	0.394600	0.033400	0.559170
N61	N6	0.361200	0.966600	0.440830
N71	N7	0.778800	0.909000	0.592740
N81	N8	0.310200	0.310200	0.833330
N91	N9	0.753700	0.753700	0.833330
N101	N10	0.000000	0.246300	0.166670
N111	N11	0.033400	0.394600	0.107500
N121	N12	0.689800	0.000000	0.500000
N131	N13	0.091000	0.869800	0.259410
N141	N14	0.909000	0.778800	0.073920
N151	N15	0.638800	0.605400	0.892500
N161	N16	0.605400	0.638800	0.774160
N171	N17	0.130200	0.221200	0.926080
N181	N18	0.000000	0.689800	0.166670
O11	O1	0.874620	0.755440	0.229800
O21	O2	0.244560	0.119180	0.896470
O31	O3	0.125380	0.880820	0.103530
O41	O4	0.032800	0.158800	0.584970
O51	O5	0.880820	0.125380	0.563140
O61	O6	0.158800	0.032800	0.081700
O71	O7	0.841200	0.874000	0.251630
O81	O8	0.874000	0.841200	0.415030
O91	O9	0.119180	0.244560	0.770200
O101	O10	0.755440	0.874620	0.436860
O111	O11	0.126000	0.967200	0.918300
O121	O12	0.967200	0.126000	0.748370
F11	F1	0.039200	0.522500	0.732170
F21	F2	0.483300	0.960800	0.065500
F31	F3	0.960800	0.483300	0.601170
F41	F4	0.522500	0.039200	0.934500
F51	F5	0.516700	0.477500	0.267830
F61	F6	0.477500	0.516700	0.398830
