data_FIRNAX_clean_PM
_symmetry_space_group_name_H-M	'P1'
_cell_length_a	15.540000
_cell_length_b	15.540000
_cell_length_c	18.679000
_cell_angle_alpha	90.000000
_cell_angle_beta	90.000000
_cell_angle_gamma	120.000000
_symmetry_Int_Tables_number 1

loop_
_symmetry_equiv_pos_as_xyz
'x,y,z'

loop_
_atom_site_label
_atom_site_type_symbol
_atom_site_fract_x
_atom_site_fract_y
_atom_site_fract_z
Ni11	Ni1	0.174680	0.174680	0.166670
Ni21	Ni2	0.000000	0.825320	0.833330
Ni31	Ni3	0.825320	0.000000	0.500000
H11	H1	0.494600	0.935500	0.594800
H21	H2	0.188700	0.840200	0.776000
H31	H3	0.495400	0.540900	0.613330
H41	H4	0.140100	0.031800	0.414000
H51	H5	0.348500	0.159800	0.224000
H61	H6	0.362200	0.289500	0.076770
H71	H7	0.707800	0.598600	0.989570
H81	H8	0.540900	0.495400	0.720000
H91	H9	0.108300	0.968200	0.586000
H101	H10	0.907300	0.006300	0.649730
H111	H11	0.072700	0.710500	0.923230
H121	H12	0.092700	0.099000	0.016930
H131	H13	0.006300	0.907300	0.683600
H141	H14	0.289500	0.362200	0.256570
H151	H15	0.109200	0.401400	0.010430
H161	H16	0.891700	0.859900	0.080670
H171	H17	0.927300	0.637800	0.743430
H181	H18	0.459100	0.954500	0.946670
H191	H19	0.968200	0.108300	0.747330
H201	H20	0.710500	0.072700	0.410100
H211	H21	0.045500	0.504600	0.280000
H221	H22	0.099000	0.092700	0.316400
H231	H23	0.811300	0.651500	0.890670
H241	H24	0.292200	0.890800	0.677100
H251	H25	0.159800	0.348500	0.109330
H261	H26	0.859900	0.891700	0.252670
H271	H27	0.505400	0.440900	0.071870
H281	H28	0.598600	0.707800	0.343770
H291	H29	0.993700	0.901000	0.983070
H301	H30	0.440900	0.505400	0.261470
H311	H31	0.901000	0.993700	0.350270
H321	H32	0.031800	0.140100	0.919330
H331	H33	0.559100	0.064500	0.405200
H341	H34	0.890800	0.292200	0.656230
H351	H35	0.637800	0.927300	0.589900
H361	H36	0.504600	0.045500	0.053330
H371	H37	0.651500	0.811300	0.442670
H381	H38	0.954500	0.459100	0.386670
H391	H39	0.064500	0.559100	0.928130
H401	H40	0.935500	0.494600	0.738530
H411	H41	0.401400	0.109200	0.322900
H421	H42	0.840200	0.188700	0.557330
C11	C1	0.575300	0.039000	0.444800
C21	C2	0.979100	0.419900	0.368470
C31	C3	0.820900	0.789900	0.743100
C41	C4	0.440800	0.020900	0.035130
C51	C5	0.159700	0.094500	0.316950
C61	C6	0.958900	0.624400	0.780530
C71	C7	0.415500	0.000000	0.500000
C81	C8	0.730700	0.715600	0.701500
C91	C9	0.905500	0.065200	0.650280
C101	C10	0.274100	0.967300	0.554600
C111	C11	0.032700	0.306800	0.887930
C121	C12	0.967300	0.274100	0.778730
C131	C13	0.041100	0.665500	0.886130
C141	C14	0.375600	0.334500	0.113870
C151	C15	0.125200	0.940700	0.623800
C161	C16	0.065200	0.905500	0.683050
C171	C17	0.209200	0.934600	0.620900
C181	C18	0.368000	0.026900	0.078930
C191	C19	0.665500	0.041100	0.447200
C201	C20	0.184500	0.059300	0.376200
C211	C21	0.559200	0.580100	0.631530
C221	C22	0.632000	0.658900	0.587730
C231	C23	0.341100	0.973100	0.921070
C241	C24	0.488900	0.488900	0.166670
C251	C25	0.334500	0.375600	0.219470
C261	C26	0.306800	0.032700	0.445400
C271	C27	0.020900	0.440800	0.298200
C281	C28	0.580100	0.559200	0.701800
C291	C29	0.973100	0.341100	0.412270
C301	C30	0.624400	0.958900	0.552800
C311	C31	0.000000	0.511100	0.833330
C321	C32	0.015100	0.284400	0.298500
C331	C33	0.339100	0.104000	0.322090
C341	C34	0.715600	0.730700	0.631830
C351	C35	0.094500	0.159700	0.016380
C361	C36	0.984900	0.269300	0.368170
C371	C37	0.536300	0.961000	0.555200
C381	C38	0.693200	0.725900	0.221270
C391	C39	0.940700	0.125200	0.709530
C401	C40	0.419900	0.979100	0.964870
C411	C41	0.764900	0.660900	0.988760
C421	C42	0.840300	0.934800	0.349720
C431	C43	0.179100	0.969000	0.923570
C441	C44	0.896000	0.235100	0.655420
C451	C45	0.828300	0.693500	0.930070
C461	C46	0.039000	0.575300	0.888530
C471	C47	0.693500	0.828300	0.403270
C481	C48	0.789900	0.820900	0.590230
C491	C49	0.790800	0.725400	0.045770
C501	C50	0.463700	0.424700	0.111470
C511	C51	0.284400	0.015100	0.034830
C521	C52	0.134800	0.306500	0.069930
C531	C53	0.725900	0.693200	0.112070
C541	C54	0.874800	0.815500	0.042870
C551	C55	0.961000	0.536300	0.778130
C561	C56	0.658900	0.632000	0.745600
C571	C57	0.274600	0.065400	0.379100
C581	C58	0.235100	0.896000	0.677910
C591	C59	0.934800	0.840300	0.983620
C601	C60	0.065400	0.274600	0.954230
C611	C61	0.210100	0.031000	0.076430
C621	C62	0.584500	0.584500	0.166670
C631	C63	0.511100	0.000000	0.500000
C641	C64	0.969000	0.179100	0.409770
C651	C65	0.660900	0.764900	0.344580
C661	C66	0.934600	0.209200	0.712430
C671	C67	0.865200	0.171700	0.596730
C681	C68	0.815500	0.874800	0.290470
C691	C69	0.031000	0.210100	0.256900
C701	C70	0.725400	0.790800	0.287570
C711	C71	0.424700	0.463700	0.221870
C721	C72	0.059300	0.184500	0.957130
C731	C73	0.104000	0.339100	0.011240
C741	C74	0.306500	0.134800	0.263400
C751	C75	0.026900	0.368000	0.254400
C761	C76	0.171700	0.865200	0.736600
C771	C77	0.000000	0.415500	0.833330
C781	C78	0.269300	0.984900	0.965170
N11	N1	0.000000	0.691300	0.833330
N21	N2	0.691300	0.000000	0.500000
N31	N3	0.869100	0.088200	0.593250
N41	N4	0.088200	0.869100	0.740080
N51	N5	0.756100	0.756100	0.166670
N61	N6	0.606100	0.640600	0.225300
N71	N7	0.359400	0.965500	0.558630
N81	N8	0.965500	0.359400	0.774700
N91	N9	0.034500	0.393900	0.891960
N101	N10	0.219100	0.130900	0.259920
N111	N11	0.130900	0.219100	0.073410
N121	N12	0.911800	0.780900	0.926590
N131	N13	0.308700	0.308700	0.166670
N141	N14	0.000000	0.243900	0.833330
N151	N15	0.780900	0.911800	0.406750
N161	N16	0.393900	0.034500	0.441370
N171	N17	0.640600	0.606100	0.108040
N181	N18	0.243900	0.000000	0.500000
O11	O1	0.884920	0.128510	0.438360
O21	O2	0.871490	0.756410	0.771690
O31	O3	0.160100	0.037900	0.920370
O41	O4	0.128510	0.884920	0.894980
O51	O5	0.962100	0.122200	0.253700
O61	O6	0.122200	0.962100	0.079630
O71	O7	0.756410	0.871490	0.561640
O81	O8	0.115080	0.243590	0.228310
O91	O9	0.877800	0.839900	0.587030
O101	O10	0.037900	0.160100	0.412970
O111	O11	0.243590	0.115080	0.105020
O121	O12	0.839900	0.877800	0.746300
F11	F1	0.660200	0.605500	0.815700
F21	F2	0.394500	0.054700	0.149030
F31	F3	0.605500	0.660200	0.517630
F41	F4	0.054700	0.394500	0.184300
F51	F5	0.339800	0.945300	0.850970
F61	F6	0.945300	0.339800	0.482370
