data_FITHIA_clean_PM
_symmetry_space_group_name_H-M	'P1'
_cell_length_a	23.995000
_cell_length_b	23.995000
_cell_length_c	3.949800
_cell_angle_alpha	90.000000
_cell_angle_beta	90.000000
_cell_angle_gamma	90.000000
_symmetry_Int_Tables_number 1

loop_
_symmetry_equiv_pos_as_xyz
'x,y,z'

loop_
_atom_site_label
_atom_site_type_symbol
_atom_site_fract_x
_atom_site_fract_y
_atom_site_fract_z
O11	O1	0.446640	0.428930	0.561400
N11	N1	0.447060	0.380550	0.722700
C11	C1	0.398120	0.354380	0.780100
H11	H1	0.364200	0.371500	0.713300
C21	C2	0.397140	0.303050	0.934700
H21	H2	0.362500	0.284700	0.968300
C31	C3	0.494960	0.357830	0.825900
H31	H3	0.529100	0.377100	0.790600
C41	C4	0.495050	0.306510	0.983700
H41	H4	0.529400	0.290600	0.053700
C51	C5	0.445810	0.277640	0.042100
O21	O2	0.946640	0.928930	0.061400
N21	N2	0.947060	0.880550	0.222700
C61	C6	0.898120	0.854380	0.280100
H51	H5	0.864200	0.871500	0.213300
C71	C7	0.897140	0.803050	0.434700
H61	H6	0.862500	0.784700	0.468300
C81	C8	0.994960	0.857830	0.325900
H71	H7	0.029100	0.877100	0.290600
C91	C9	0.995050	0.806510	0.483700
H81	H8	0.029400	0.790600	0.553700
C101	C10	0.945810	0.777640	0.542100
O31	O3	0.553360	0.571070	0.561400
N31	N3	0.552940	0.619450	0.722700
C111	C11	0.601880	0.645620	0.780100
H91	H9	0.635800	0.628500	0.713300
C121	C12	0.602860	0.696950	0.934700
H101	H10	0.637500	0.715300	0.968300
C131	C13	0.505040	0.642170	0.825900
H111	H11	0.470900	0.622900	0.790600
C141	C14	0.504950	0.693490	0.983700
H121	H12	0.470600	0.709400	0.053700
C151	C15	0.554190	0.722360	0.042100
O41	O4	0.053360	0.071070	0.061400
N41	N4	0.052940	0.119450	0.222700
C161	C16	0.101880	0.145620	0.280100
H131	H13	0.135800	0.128500	0.213300
C171	C17	0.102860	0.196950	0.434700
H141	H14	0.137500	0.215300	0.468300
C181	C18	0.005040	0.142170	0.325900
H151	H15	0.970900	0.122900	0.290600
C191	C19	0.004950	0.193490	0.483700
H161	H16	0.970600	0.209400	0.553700
C201	C20	0.054190	0.222360	0.542100
O51	O5	0.428930	0.553360	0.438600
N51	N5	0.380550	0.552940	0.277300
C211	C21	0.354380	0.601880	0.219900
H171	H17	0.371500	0.635800	0.286700
C221	C22	0.303050	0.602860	0.065300
H181	H18	0.284700	0.637500	0.031700
C231	C23	0.357830	0.505040	0.174100
H191	H19	0.377100	0.470900	0.209400
C241	C24	0.306510	0.504950	0.016300
H201	H20	0.290600	0.470600	0.946300
C251	C25	0.277640	0.554190	0.957900
O61	O6	0.928930	0.053360	0.938600
N61	N6	0.880550	0.052940	0.777300
C261	C26	0.854380	0.101880	0.719900
H211	H21	0.871500	0.135800	0.786700
C271	C27	0.803050	0.102860	0.565300
H221	H22	0.784700	0.137500	0.531700
C281	C28	0.857830	0.005040	0.674100
H231	H23	0.877100	0.970900	0.709400
C291	C29	0.806510	0.004950	0.516300
H241	H24	0.790600	0.970600	0.446300
C301	C30	0.777640	0.054190	0.457900
O71	O7	0.571070	0.446640	0.438600
N71	N7	0.619450	0.447060	0.277300
C311	C31	0.645620	0.398120	0.219900
H251	H25	0.628500	0.364200	0.286700
C321	C32	0.696950	0.397140	0.065300
H261	H26	0.715300	0.362500	0.031700
C331	C33	0.642170	0.494960	0.174100
H271	H27	0.622900	0.529100	0.209400
C341	C34	0.693490	0.495050	0.016300
H281	H28	0.709400	0.529400	0.946300
C351	C35	0.722360	0.445810	0.957900
O81	O8	0.071070	0.946640	0.938600
N81	N8	0.119450	0.947060	0.777300
C361	C36	0.145620	0.898120	0.719900
H291	H29	0.128500	0.864200	0.786700
C371	C37	0.196950	0.897140	0.565300
H301	H30	0.215300	0.862500	0.531700
C381	C38	0.142170	0.994960	0.674100
H311	H31	0.122900	0.029100	0.709400
C391	C39	0.193490	0.995050	0.516300
H321	H32	0.209400	0.029400	0.446300
C401	C40	0.222360	0.945810	0.457900
O91	O9	0.053360	0.428930	0.188600
N91	N9	0.052940	0.380550	0.027300
C411	C41	0.101880	0.354380	0.969900
H331	H33	0.135800	0.371500	0.036700
C421	C42	0.102860	0.303050	0.815300
H341	H34	0.137500	0.284700	0.781700
C431	C43	0.005040	0.357830	0.924100
H351	H35	0.970900	0.377100	0.959400
C441	C44	0.004950	0.306510	0.766300
H361	H36	0.970600	0.290600	0.696300
C451	C45	0.054190	0.277640	0.707900
O101	O10	0.553360	0.928930	0.688600
N101	N10	0.552940	0.880550	0.527300
C461	C46	0.601880	0.854380	0.469900
H371	H37	0.635800	0.871500	0.536700
C471	C47	0.602860	0.803050	0.315300
H381	H38	0.637500	0.784700	0.281700
C481	C48	0.505040	0.857830	0.424100
H391	H39	0.470900	0.877100	0.459400
C491	C49	0.504950	0.806510	0.266300
H401	H40	0.470600	0.790600	0.196300
C501	C50	0.554190	0.777640	0.207900
O111	O11	0.946640	0.571070	0.188600
N111	N11	0.947060	0.619450	0.027300
C511	C51	0.898120	0.645620	0.969900
H411	H41	0.864200	0.628500	0.036700
C521	C52	0.897140	0.696950	0.815300
H421	H42	0.862500	0.715300	0.781700
C531	C53	0.994960	0.642170	0.924100
H431	H43	0.029100	0.622900	0.959400
C541	C54	0.995050	0.693490	0.766300
H441	H44	0.029400	0.709400	0.696300
C551	C55	0.945810	0.722360	0.707900
O121	O12	0.446640	0.071070	0.688600
N121	N12	0.447060	0.119450	0.527300
C561	C56	0.398120	0.145620	0.469900
H451	H45	0.364200	0.128500	0.536700
C571	C57	0.397140	0.196950	0.315300
H461	H46	0.362500	0.215300	0.281700
C581	C58	0.494960	0.142170	0.424100
H471	H47	0.529100	0.122900	0.459400
C591	C59	0.495050	0.193490	0.266300
H481	H48	0.529400	0.209400	0.196300
C601	C60	0.445810	0.222360	0.207900
O131	O13	0.071070	0.553360	0.311400
N131	N13	0.119450	0.552940	0.472700
C611	C61	0.145620	0.601880	0.530100
H491	H49	0.128500	0.635800	0.463300
C621	C62	0.196950	0.602860	0.684700
H501	H50	0.215300	0.637500	0.718300
C631	C63	0.142170	0.505040	0.575900
H511	H51	0.122900	0.470900	0.540600
C641	C64	0.193490	0.504950	0.733700
H521	H52	0.209400	0.470600	0.803700
C651	C65	0.222360	0.554190	0.792100
O141	O14	0.571070	0.053360	0.811400
N141	N14	0.619450	0.052940	0.972700
C661	C66	0.645620	0.101880	0.030100
H531	H53	0.628500	0.135800	0.963300
C671	C67	0.696950	0.102860	0.184700
H541	H54	0.715300	0.137500	0.218300
C681	C68	0.642170	0.005040	0.075900
H551	H55	0.622900	0.970900	0.040600
C691	C69	0.693490	0.004950	0.233700
H561	H56	0.709400	0.970600	0.303700
C701	C70	0.722360	0.054190	0.292100
O151	O15	0.928930	0.446640	0.311400
N151	N15	0.880550	0.447060	0.472700
C711	C71	0.854380	0.398120	0.530100
H571	H57	0.871500	0.364200	0.463300
C721	C72	0.803050	0.397140	0.684700
H581	H58	0.784700	0.362500	0.718300
C731	C73	0.857830	0.494960	0.575900
H591	H59	0.877100	0.529100	0.540600
C741	C74	0.806510	0.495050	0.733700
H601	H60	0.790600	0.529400	0.803700
C751	C75	0.777640	0.445810	0.792100
O161	O16	0.428930	0.946640	0.811400
N161	N16	0.380550	0.947060	0.972700
C761	C76	0.354380	0.898120	0.030100
H611	H61	0.371500	0.864200	0.963300
C771	C77	0.303050	0.897140	0.184700
H621	H62	0.284700	0.862500	0.218300
C781	C78	0.357830	0.994960	0.075900
H631	H63	0.377100	0.029100	0.040600
C791	C79	0.306510	0.995050	0.233700
H641	H64	0.290600	0.029400	0.303700
C801	C80	0.277640	0.945810	0.292100
Sc11	Sc1	0.500000	0.500000	0.500000
Sc21	Sc2	0.000000	0.000000	0.000000
Sc31	Sc3	0.000000	0.500000	0.250000
Sc41	Sc4	0.500000	0.000000	0.750000
O171	O17	0.500000	0.500000	0.000000
O181	O18	0.000000	0.000000	0.500000
O191	O19	0.000000	0.500000	0.750000
O201	O20	0.500000	0.000000	0.250000
