data_FITJAU_clean_PM
_symmetry_space_group_name_H-M	'P1'
_cell_length_a	10.248100
_cell_length_b	15.069700
_cell_length_c	22.391000
_cell_angle_alpha	90.000000
_cell_angle_beta	90.000000
_cell_angle_gamma	108.020000
_symmetry_Int_Tables_number 1

loop_
_symmetry_equiv_pos_as_xyz
'x,y,z'

loop_
_atom_site_label
_atom_site_type_symbol
_atom_site_fract_x
_atom_site_fract_y
_atom_site_fract_z
Gd11	Gd1	0.033920	0.501130	0.141530
Gd21	Gd2	0.422250	0.250610	0.155030
Gd31	Gd3	0.242780	0.909980	0.013410
Gd41	Gd4	0.466080	0.998870	0.641530
Gd51	Gd5	0.077750	0.249390	0.655030
Gd61	Gd6	0.257220	0.590020	0.513410
Gd71	Gd7	0.966080	0.498870	0.858470
Gd81	Gd8	0.577750	0.749390	0.844970
Gd91	Gd9	0.757220	0.090020	0.986590
Gd101	Gd10	0.533920	0.001130	0.358470
Gd111	Gd11	0.922250	0.750610	0.344970
Gd121	Gd12	0.742780	0.409980	0.486590
P11	P1	0.454600	0.157920	0.006940
P21	P2	0.045400	0.342080	0.506940
P31	P3	0.545400	0.842080	0.993060
P41	P4	0.954600	0.657920	0.493060
H11	H1	0.358700	0.312900	0.009500
H21	H2	0.268100	0.176500	0.955800
H31	H3	0.399900	0.212500	0.916500
H41	H4	0.582800	0.339400	0.973500
H51	H5	0.533000	0.362700	0.911000
H61	H6	0.537200	0.428800	0.965500
H71	H7	0.187800	0.316400	0.947800
H81	H8	0.301800	0.413700	0.950900
H91	H9	0.296000	0.347500	0.896300
H101	H10	0.141300	0.187100	0.509500
H111	H11	0.231900	0.323500	0.455800
H121	H12	0.100100	0.287500	0.416500
H131	H13	0.917200	0.160600	0.473500
H141	H14	0.967000	0.137300	0.411000
H151	H15	0.962800	0.071200	0.465500
H161	H16	0.312200	0.183600	0.447800
H171	H17	0.198200	0.086300	0.450900
H181	H18	0.204000	0.152500	0.396300
H191	H19	0.641300	0.687100	0.990500
H201	H20	0.731900	0.823500	0.044200
H211	H21	0.600100	0.787500	0.083500
H221	H22	0.417200	0.660600	0.026500
H231	H23	0.467000	0.637300	0.089000
H241	H24	0.462800	0.571200	0.034500
H251	H25	0.812200	0.683600	0.052200
H261	H26	0.698200	0.586300	0.049100
H271	H27	0.704000	0.652500	0.103700
H281	H28	0.858700	0.812900	0.490500
H291	H29	0.768100	0.676500	0.544200
H301	H30	0.899900	0.712500	0.583500
H311	H31	0.082800	0.839400	0.526500
H321	H32	0.033000	0.862700	0.589000
H331	H33	0.037200	0.928800	0.534500
H341	H34	0.687800	0.816400	0.552200
H351	H35	0.801800	0.913700	0.549100
H361	H36	0.796000	0.847500	0.603700
C11	C1	0.225300	0.374400	0.180200
C21	C2	0.247800	0.386000	0.112300
C31	C3	0.981800	0.667600	0.220100
C41	C4	0.958400	0.584400	0.264300
C51	C5	0.751700	0.333500	0.162600
C61	C6	0.706900	0.421500	0.150600
C71	C7	0.957300	0.447400	0.000300
C81	C8	0.993300	0.001600	0.034700
C91	C9	0.363900	0.213900	0.956400
C101	C10	0.520000	0.365100	0.953300
C111	C11	0.282000	0.349900	0.938600
C121	C12	0.274700	0.125600	0.680200
C131	C13	0.252200	0.114000	0.612300
C141	C14	0.518200	0.832400	0.720100
C151	C15	0.541600	0.915600	0.764300
C161	C16	0.748300	0.166500	0.662600
C171	C17	0.793100	0.078500	0.650600
C181	C18	0.542700	0.052600	0.500300
C191	C19	0.506700	0.498400	0.534700
C201	C20	0.136100	0.286100	0.456400
C211	C21	0.980000	0.134900	0.453300
C221	C22	0.218000	0.150100	0.438600
C231	C23	0.774700	0.625600	0.819800
C241	C24	0.752200	0.614000	0.887700
C251	C25	0.018200	0.332400	0.779900
C261	C26	0.041600	0.415600	0.735700
C271	C27	0.248300	0.666500	0.837400
C281	C28	0.293100	0.578500	0.849400
C291	C29	0.042700	0.552600	0.999700
C301	C30	0.006700	0.998400	0.965300
C311	C31	0.636100	0.786100	0.043600
C321	C32	0.480000	0.634900	0.046700
C331	C33	0.718000	0.650100	0.061400
C341	C34	0.725300	0.874400	0.319800
C351	C35	0.747800	0.886000	0.387700
C361	C36	0.481800	0.167600	0.279900
C371	C37	0.458400	0.084400	0.235700
C381	C38	0.251700	0.833500	0.337400
C391	C39	0.206900	0.921500	0.349400
C401	C40	0.457300	0.947400	0.499700
C411	C41	0.493300	0.501600	0.465300
C421	C42	0.863900	0.713900	0.543600
C431	C43	0.020000	0.865100	0.546700
C441	C44	0.782000	0.849900	0.561400
N11	N1	0.370600	0.307900	0.969500
N21	N2	0.129400	0.192100	0.469500
N31	N3	0.629400	0.692100	0.030500
N41	N4	0.870600	0.807900	0.530500
O11	O1	0.283000	0.324900	0.207000
O21	O2	0.148900	0.416400	0.203000
O31	O3	0.192900	0.438600	0.086200
O41	O4	0.320500	0.341500	0.089400
O51	O5	0.957600	0.738700	0.238600
O61	O6	0.021300	0.655500	0.168700
O71	O7	0.922600	0.597900	0.316200
O81	O8	0.981300	0.513300	0.245800
O91	O9	0.576600	0.405500	0.152600
O101	O10	0.795400	0.495900	0.141500
O111	O11	0.660500	0.256000	0.166400
O121	O12	0.879800	0.347400	0.167700
O131	O13	0.923900	0.410400	0.049200
O141	O14	0.929400	0.408600	0.949500
O151	O15	0.072100	0.967600	0.064600
O161	O16	0.910200	0.038400	0.054800
O171	O17	0.357700	0.062800	0.015300
O181	O18	0.589700	0.160100	0.980400
O191	O19	0.471900	0.214700	0.063500
O201	O20	0.217000	0.175100	0.707000
O211	O21	0.351100	0.083600	0.703000
O221	O22	0.307100	0.061400	0.586200
O231	O23	0.179500	0.158500	0.589400
O241	O24	0.542400	0.761300	0.738600
O251	O25	0.478700	0.844500	0.668700
O261	O26	0.577400	0.902100	0.816200
O271	O27	0.518700	0.986700	0.745800
O281	O28	0.923400	0.094500	0.652600
O291	O29	0.704600	0.004100	0.641500
O301	O30	0.839500	0.244000	0.666400
O311	O31	0.620200	0.152600	0.667700
O321	O32	0.576100	0.089600	0.549200
O331	O33	0.570600	0.091400	0.449500
O341	O34	0.427900	0.532400	0.564600
O351	O35	0.589800	0.461600	0.554800
O361	O36	0.142300	0.437200	0.515300
O371	O37	0.910300	0.339900	0.480400
O381	O38	0.028100	0.285300	0.563500
O391	O39	0.717000	0.675100	0.793000
O401	O40	0.851100	0.583600	0.797000
O411	O41	0.807100	0.561400	0.913800
O421	O42	0.679500	0.658500	0.910600
O431	O43	0.042400	0.261300	0.761400
O441	O44	0.978700	0.344500	0.831300
O451	O45	0.077400	0.402100	0.683800
O461	O46	0.018700	0.486700	0.754200
O471	O47	0.423400	0.594500	0.847400
O481	O48	0.204600	0.504100	0.858500
O491	O49	0.339500	0.744000	0.833600
O501	O50	0.120200	0.652600	0.832300
O511	O51	0.076100	0.589600	0.950800
O521	O52	0.070600	0.591400	0.050500
O531	O53	0.927900	0.032400	0.935400
O541	O54	0.089800	0.961600	0.945200
O551	O55	0.642300	0.937200	0.984700
O561	O56	0.410300	0.839900	0.019600
O571	O57	0.528100	0.785300	0.936500
O581	O58	0.783000	0.824900	0.293000
O591	O59	0.648900	0.916400	0.297000
O601	O60	0.692900	0.938600	0.413800
O611	O61	0.820500	0.841500	0.410600
O621	O62	0.457600	0.238700	0.261400
O631	O63	0.521300	0.155500	0.331300
O641	O64	0.422600	0.097900	0.183800
O651	O65	0.481300	0.013300	0.254200
O661	O66	0.076600	0.905500	0.347400
O671	O67	0.295400	0.995900	0.358500
O681	O68	0.160500	0.756000	0.333600
O691	O69	0.379800	0.847400	0.332300
O701	O70	0.423900	0.910400	0.450800
O711	O71	0.429400	0.908600	0.550500
O721	O72	0.572100	0.467600	0.435400
O731	O73	0.410200	0.538400	0.445200
O741	O74	0.857700	0.562800	0.484700
O751	O75	0.089700	0.660100	0.519600
O761	O76	0.971900	0.714700	0.436500
