data_FIVYUF_clean_PM
_symmetry_space_group_name_H-M	'P1'
_cell_length_a	9.579200
_cell_length_b	14.133300
_cell_length_c	22.719100
_cell_angle_alpha	78.296500
_cell_angle_beta	77.829700
_cell_angle_gamma	70.190900
_symmetry_Int_Tables_number 1

loop_
_symmetry_equiv_pos_as_xyz
'x,y,z'

loop_
_atom_site_label
_atom_site_type_symbol
_atom_site_fract_x
_atom_site_fract_y
_atom_site_fract_z
Sn11	Sn1	0.615140	0.865010	0.234170
Sn21	Sn2	0.405010	0.247980	0.495180
Sn31	Sn3	0.684050	0.187220	0.034400
Sn41	Sn4	0.285680	0.365010	0.734170
Sn51	Sn5	0.851830	0.747980	0.995180
Sn61	Sn6	0.094330	0.687220	0.534400
H11	H1	0.569200	0.015800	0.345200
H21	H2	0.401600	0.311100	0.274100
H31	H3	0.447800	0.258400	0.178400
H41	H4	0.834000	0.946300	0.200700
H51	H5	0.816500	0.905000	0.143200
H61	H6	0.979700	0.783500	0.238100
H71	H7	0.955600	0.737800	0.183200
H81	H8	0.104400	0.892200	0.164200
H91	H9	0.085500	0.841600	0.110600
H101	H10	0.239300	0.680400	0.157800
H111	H11	0.327400	0.761100	0.128700
H121	H12	0.275000	0.743600	0.200600
H131	H13	0.417600	0.842600	0.329200
H141	H14	0.403400	0.783000	0.279600
H151	H15	0.264800	0.994800	0.281000
H161	H16	0.248200	0.933200	0.232400
H171	H17	0.142800	0.901500	0.359700
H181	H18	0.130700	0.835900	0.312500
H191	H19	0.974200	0.998200	0.263800
H201	H20	0.899700	0.946200	0.326200
H211	H21	0.960100	0.038900	0.326300
H221	H22	0.782800	0.522200	0.992400
H231	H23	0.533700	0.452000	0.153600
H241	H24	0.546700	0.594300	0.185900
H251	H25	0.515600	0.389400	0.434000
H261	H26	0.652300	0.291100	0.449700
H271	H27	0.485000	0.424500	0.537700
H281	H28	0.638200	0.333900	0.545500
H291	H29	0.621200	0.511300	0.454100
H301	H30	0.773900	0.422700	0.465900
H311	H31	0.727700	0.465500	0.568100
H321	H32	0.765200	0.551900	0.515700
H331	H33	0.595200	0.563600	0.547000
H341	H34	0.172900	0.195700	0.552500
H351	H35	0.302600	0.095400	0.534400
H361	H36	0.245800	0.132300	0.434500
H371	H37	0.124200	0.237800	0.448800
H381	H38	0.092400	0.047200	0.503000
H391	H39	0.968500	0.154900	0.511700
H401	H40	0.065400	0.068400	0.402000
H411	H41	0.901900	0.087700	0.441900
H421	H42	0.955600	0.182000	0.405600
H431	H43	0.870400	0.779700	0.421100
H441	H44	0.890100	0.546800	0.338400
H451	H45	0.051200	0.436500	0.401700
H461	H46	0.908800	0.070900	0.090700
H471	H47	0.775000	0.121500	0.140700
H481	H48	0.847400	0.275600	0.113600
H491	H49	0.988600	0.217500	0.068100
H501	H50	0.082100	0.095200	0.153200
H511	H51	0.942100	0.155000	0.198400
H521	H52	0.027300	0.297300	0.178500
H531	H53	0.168800	0.201200	0.193400
H541	H54	0.153500	0.251500	0.124300
H551	H55	0.499700	0.160900	0.973900
H561	H56	0.565700	0.247800	0.934400
H571	H57	0.391800	0.371500	0.986100
H581	H58	0.345000	0.289900	0.039500
H591	H59	0.282000	0.321300	0.919300
H601	H60	0.232700	0.241900	0.973500
H611	H61	0.119500	0.457500	0.972100
H621	H62	0.027400	0.390900	0.958300
H631	H63	0.067700	0.377000	0.025000
H641	H64	0.069800	0.515800	0.845200
H651	H65	0.013200	0.811100	0.774100
H661	H66	0.115400	0.758400	0.678400
H671	H67	0.019000	0.446300	0.700700
H681	H68	0.135300	0.405000	0.643200
H691	H69	0.998700	0.283500	0.738100
H701	H70	0.123400	0.237800	0.683200
H711	H71	0.839200	0.392200	0.664200
H721	H72	0.962300	0.341600	0.610600
H731	H73	0.922500	0.180400	0.657800
H741	H74	0.782800	0.261100	0.628700
H751	H75	0.780800	0.243600	0.700600
H761	H76	0.410600	0.342600	0.829200
H771	H77	0.534000	0.283000	0.779600
H781	H78	0.459400	0.494800	0.781000
H791	H79	0.586200	0.433200	0.732400
H801	H80	0.596000	0.401500	0.859700
H811	H81	0.720900	0.335900	0.812500
H821	H82	0.763800	0.498200	0.763800
H831	H83	0.827900	0.446200	0.826200
H841	H84	0.674700	0.538900	0.826300
H851	H85	0.702600	0.022200	0.492400
H861	H86	0.860700	0.952000	0.653600
H871	H87	0.673100	0.094300	0.685900
H881	H88	0.661000	0.889400	0.934000
H891	H89	0.606900	0.791100	0.949700
H901	H90	0.552800	0.924500	0.037700
H911	H91	0.482400	0.833900	0.045500
H921	H92	0.413400	0.011300	0.954100
H931	H93	0.337500	0.922700	0.965900
H941	H94	0.238700	0.965500	0.068100
H951	H95	0.167200	0.051900	0.015700
H961	H96	0.294200	0.063600	0.047000
H971	H97	0.078900	0.695700	0.052500
H981	H98	0.067600	0.595400	0.034400
H991	H99	0.187400	0.632300	0.934500
H1001	H100	0.189200	0.737800	0.948800
H1011	H101	0.357400	0.547200	0.003000
H1021	H102	0.364900	0.654900	0.011700
H1031	H103	0.464200	0.568400	0.902000
H1041	H104	0.568500	0.587700	0.941900
H1051	H105	0.456800	0.682000	0.905600
H1061	H106	0.928800	0.279700	0.921100
H1071	H107	0.224700	0.046800	0.838400
H1081	H108	0.110600	0.936500	0.901700
H1091	H109	0.929600	0.570900	0.590700
H1101	H110	0.962800	0.621500	0.640700
H1111	H111	0.763400	0.775600	0.613600
H1121	H112	0.725800	0.717500	0.568100
H1131	H113	0.669500	0.595200	0.653200
H1141	H114	0.704500	0.655000	0.698400
H1151	H115	0.496900	0.797300	0.678500
H1161	H116	0.436600	0.701200	0.693400
H1171	H117	0.470700	0.751500	0.624300
H1181	H118	0.365500	0.660900	0.473900
H1191	H119	0.252100	0.747800	0.434400
H1201	H120	0.250600	0.871500	0.486100
H1211	H121	0.325600	0.789900	0.539500
H1221	H122	0.477400	0.821300	0.419300
H1231	H123	0.551900	0.741900	0.473500
H1241	H124	0.450900	0.957500	0.472100
H1251	H125	0.623400	0.890900	0.458300
H1261	H126	0.530300	0.877000	0.525000
C11	C1	0.537200	0.065700	0.311700
C21	C2	0.487400	0.167400	0.318200
C31	C3	0.443200	0.241200	0.269400
C41	C4	0.461500	0.209800	0.214000
C51	C5	0.499800	0.107600	0.210200
C61	C6	0.504400	0.068600	0.154000
C71	C7	0.470300	0.198300	0.380300
C81	C8	0.823300	0.887100	0.187100
C91	C9	0.964400	0.799000	0.195000
C101	C10	0.100600	0.828600	0.153600
C111	C11	0.248600	0.746200	0.160800
C121	C12	0.409800	0.848600	0.285800
C131	C13	0.261900	0.928100	0.275100
C141	C14	0.129500	0.904400	0.317200
C151	C15	0.977600	0.978400	0.307600
C161	C16	0.735100	0.536000	0.032200
C171	C17	0.660100	0.471300	0.069100
C181	C18	0.587200	0.494100	0.127700
C191	C19	0.594900	0.577800	0.146600
C201	C20	0.673000	0.638200	0.108400
C211	C21	0.687100	0.730200	0.126600
C221	C22	0.652400	0.378500	0.048700
C231	C23	0.554200	0.335600	0.467200
C241	C24	0.582400	0.386800	0.515600
C251	C25	0.673800	0.460900	0.485700
C261	C26	0.692100	0.515300	0.533300
C271	C27	0.249700	0.166800	0.518800
C281	C28	0.169100	0.166400	0.466600
C291	C29	0.050800	0.117200	0.482600
C301	C30	0.988000	0.113500	0.428300
C311	C31	0.910900	0.710000	0.416000
C321	C32	0.868300	0.675900	0.371300
C331	C33	0.920800	0.572000	0.367600
C341	C34	0.013800	0.507100	0.404700
C351	C35	0.054400	0.546600	0.448400
C361	C36	0.162700	0.480000	0.489800
C371	C37	0.768700	0.747900	0.328100
C381	C38	0.833600	0.136200	0.100400
C391	C39	0.919700	0.208200	0.106400
C401	C40	0.010900	0.163100	0.159900
C411	C41	0.098200	0.234800	0.164400
C421	C42	0.522000	0.223500	0.975900
C431	C43	0.375100	0.304200	0.995000
C441	C44	0.250500	0.308800	0.963800
C451	C45	0.103100	0.390800	0.981400
C461	C46	0.085400	0.565700	0.811700
C471	C47	0.027000	0.667400	0.818200
C481	C48	0.046200	0.741200	0.769400
C491	C49	0.114700	0.709800	0.714000
C501	C50	0.182400	0.607600	0.710200
C511	C51	0.273000	0.568600	0.654000
C521	C52	0.951100	0.698300	0.880300
C531	C53	0.102500	0.387100	0.687100
C541	C54	0.041600	0.299000	0.695000
C551	C55	0.917200	0.328600	0.653600
C561	C56	0.844400	0.246200	0.660800
C571	C57	0.455800	0.348600	0.785800
C581	C58	0.534900	0.428100	0.775100
C591	C59	0.648900	0.404400	0.817200
C601	C60	0.736400	0.478400	0.807600
C611	C61	0.696700	0.036000	0.532200
C621	C62	0.799500	0.971300	0.569100
C631	C63	0.791000	0.994100	0.627700
C641	C64	0.680700	0.077800	0.646600
C651	C65	0.580400	0.138200	0.608400
C661	C66	0.456100	0.230200	0.626600
C671	C67	0.920400	0.878500	0.548700
C681	C68	0.643000	0.835600	0.967200
C691	C69	0.515200	0.886800	0.015600
C701	C70	0.379600	0.960900	0.985700
C711	C71	0.259300	0.015300	0.033300
C721	C72	0.064700	0.666800	0.018800
C731	C73	0.197900	0.666400	0.966600
C741	C74	0.349400	0.617200	0.982600
C751	C75	0.470200	0.613500	0.928300
C761	C76	0.963100	0.210000	0.916000
C771	C77	0.084500	0.175900	0.871300
C781	C78	0.139600	0.072000	0.867600
C791	C79	0.074400	0.007100	0.904700
C801	C80	0.950600	0.046600	0.948400
C811	C81	0.867500	0.980000	0.989800
C821	C82	0.155300	0.247900	0.828100
C831	C83	0.929800	0.636200	0.600400
C841	C84	0.765700	0.708200	0.606400
C851	C85	0.666100	0.663100	0.659900
C861	C86	0.502600	0.734800	0.664400
C871	C87	0.278600	0.723500	0.475900
C881	C88	0.325700	0.804200	0.495000
C891	C89	0.476900	0.808800	0.463800
C901	C90	0.524700	0.890800	0.481400
N11	N1	0.540800	0.036400	0.258400
N21	N2	0.741200	0.619100	0.052300
N31	N3	0.008100	0.646400	0.452000
N41	N4	0.164400	0.536400	0.758400
N51	N5	0.587400	0.119100	0.552300
N61	N6	0.893500	0.146400	0.952000
O11	O1	0.512400	0.976900	0.157900
O21	O2	0.502100	0.131900	0.104300
O31	O3	0.380500	0.282700	0.390900
O41	O4	0.541000	0.137400	0.421000
O51	O5	0.770400	0.776200	0.091600
O61	O6	0.617200	0.751100	0.179700
O71	O7	0.570100	0.331000	0.082400
O81	O8	0.736900	0.345900	0.001500
O91	O9	0.206800	0.521200	0.523600
O101	O10	0.202300	0.385700	0.487900
O111	O11	0.733900	0.711600	0.288800
O121	O12	0.721000	0.842500	0.330700
O131	O13	0.352800	0.476900	0.657900
O141	O14	0.261700	0.631900	0.604300
O151	O15	0.945900	0.782700	0.890900
O161	O16	0.900600	0.637400	0.921000
O171	O17	0.361800	0.276200	0.591600
O181	O18	0.452000	0.251100	0.679700
O191	O19	0.016500	0.831000	0.582400
O201	O20	0.915700	0.845900	0.501500
O211	O21	0.748400	0.021200	0.023600
O221	O22	0.924100	0.885700	0.987900
O231	O23	0.265700	0.211600	0.788800
O241	O24	0.105800	0.342500	0.830700
