data_FIYDOH_clean_PM
_symmetry_space_group_name_H-M	'P1'
_cell_length_a	11.354000
_cell_length_b	11.583600
_cell_length_c	16.247000
_cell_angle_alpha	105.469000
_cell_angle_beta	110.452000
_cell_angle_gamma	90.000000
_symmetry_Int_Tables_number 1

loop_
_symmetry_equiv_pos_as_xyz
'x,y,z'

loop_
_atom_site_label
_atom_site_type_symbol
_atom_site_fract_x
_atom_site_fract_y
_atom_site_fract_z
V11	V1	0.735120	0.939380	0.289620
V21	V2	0.518460	0.681400	0.215220
V31	V3	0.445500	0.560620	0.710380
V41	V4	0.303240	0.818600	0.784780
V51	V5	0.264880	0.060620	0.710380
V61	V6	0.481540	0.318600	0.784780
V71	V7	0.554500	0.439380	0.289620
V81	V8	0.696760	0.181400	0.215220
Co11	Co1	0.000000	0.000000	0.500000
Co21	Co2	0.500000	0.500000	0.500000
Co31	Co3	0.500000	0.000000	0.000000
Co41	Co4	0.500000	0.500000	0.000000
H11	H1	0.186500	0.864800	0.416200
H21	H2	0.280400	0.861300	0.311200
H31	H3	0.098600	0.145800	0.257200
H41	H4	0.006200	0.136700	0.360600
H51	H5	0.186200	0.806500	0.554200
H61	H6	0.187700	0.614800	0.568400
H71	H7	0.820600	0.555100	0.409800
H81	H8	0.829800	0.748000	0.399000
H91	H9	0.390500	0.180600	0.126600
H101	H10	0.287100	0.187700	0.226600
H111	H11	0.264500	0.826900	0.158800
H121	H12	0.374400	0.831600	0.065200
H131	H13	0.770300	0.635200	0.583800
H141	H14	0.969200	0.638700	0.688800
H151	H15	0.841400	0.354200	0.742800
H161	H16	0.645600	0.363300	0.639400
H171	H17	0.632000	0.693500	0.445800
H181	H18	0.619300	0.885200	0.431600
H191	H19	0.410800	0.944900	0.590200
H201	H20	0.430800	0.752000	0.601000
H211	H21	0.263900	0.319400	0.873400
H221	H22	0.060500	0.312300	0.773400
H231	H23	0.105700	0.673100	0.841200
H241	H24	0.309200	0.668400	0.934800
H251	H25	0.813500	0.135200	0.583800
H261	H26	0.719600	0.138700	0.688800
H271	H27	0.901400	0.854200	0.742800
H281	H28	0.993800	0.863300	0.639400
H291	H29	0.813800	0.193500	0.445800
H301	H30	0.812300	0.385200	0.431600
H311	H31	0.179400	0.444900	0.590200
H321	H32	0.170200	0.252000	0.601000
H331	H33	0.609500	0.819400	0.873400
H341	H34	0.712900	0.812300	0.773400
H351	H35	0.735500	0.173100	0.841200
H361	H36	0.625600	0.168400	0.934800
H371	H37	0.229700	0.364800	0.416200
H381	H38	0.030800	0.361300	0.311200
H391	H39	0.158600	0.645800	0.257200
H401	H40	0.354400	0.636700	0.360600
H411	H41	0.368000	0.306500	0.554200
H421	H42	0.380700	0.114800	0.568400
H431	H43	0.589200	0.055100	0.409800
H441	H44	0.569200	0.248000	0.399000
H451	H45	0.736100	0.680600	0.126600
H461	H46	0.939500	0.687700	0.226600
H471	H47	0.894300	0.326900	0.158800
H481	H48	0.690800	0.331600	0.065200
C11	C1	0.168520	0.921600	0.383640
C21	C2	0.226320	0.919400	0.320840
C31	C3	0.202580	0.005200	0.272160
C41	C4	0.118100	0.087500	0.288400
C51	C5	0.063320	0.081800	0.351440
C61	C6	0.111030	0.755900	0.525660
C71	C7	0.112870	0.640000	0.534940
C81	C8	0.001810	0.561600	0.493820
C91	C9	0.896090	0.604900	0.441180
C101	C10	0.902250	0.722000	0.434900
C111	C11	0.365540	0.108600	0.133880
C121	C12	0.303130	0.113900	0.194460
C131	C13	0.264900	0.007100	0.206200
C141	C14	0.290710	0.900500	0.154620
C151	C15	0.355260	0.903900	0.097120
C161	C16	0.784880	0.578400	0.616360
C171	C17	0.905480	0.580600	0.679160
C181	C18	0.930420	0.494800	0.727840
C191	C19	0.829700	0.412500	0.711600
C201	C20	0.711880	0.418200	0.648560
C211	C21	0.585370	0.744100	0.474340
C221	C22	0.577930	0.860000	0.465060
C231	C23	0.507990	0.938400	0.506180
C241	C24	0.454910	0.895100	0.558820
C251	C25	0.467350	0.778000	0.565100
C261	C26	0.231660	0.391400	0.866120
C271	C27	0.108670	0.386100	0.805540
C281	C28	0.058700	0.492900	0.793800
C291	C29	0.136090	0.599500	0.845380
C301	C30	0.258140	0.596100	0.902880
C311	C31	0.831480	0.078400	0.616360
C321	C32	0.773680	0.080600	0.679160
C331	C33	0.797420	0.994800	0.727840
C341	C34	0.881900	0.912500	0.711600
C351	C35	0.936680	0.918200	0.648560
C361	C36	0.888970	0.244100	0.474340
C371	C37	0.887130	0.360000	0.465060
C381	C38	0.998190	0.438400	0.506180
C391	C39	0.103910	0.395100	0.558820
C401	C40	0.097750	0.278000	0.565100
C411	C41	0.634460	0.891400	0.866120
C421	C42	0.696870	0.886100	0.805540
C431	C43	0.735100	0.992900	0.793800
C441	C44	0.709290	0.099500	0.845380
C451	C45	0.644740	0.096100	0.902880
C461	C46	0.215120	0.421600	0.383640
C471	C47	0.094520	0.419400	0.320840
C481	C48	0.069580	0.505200	0.272160
C491	C49	0.170300	0.587500	0.288400
C501	C50	0.288120	0.581800	0.351440
C511	C51	0.414630	0.255900	0.525660
C521	C52	0.422070	0.140000	0.534940
C531	C53	0.492010	0.061600	0.493820
C541	C54	0.545090	0.104900	0.441180
C551	C55	0.532650	0.222000	0.434900
C561	C56	0.768340	0.608600	0.133880
C571	C57	0.891330	0.613900	0.194460
C581	C58	0.941300	0.507100	0.206200
C591	C59	0.863910	0.400500	0.154620
C601	C60	0.741860	0.403900	0.097120
N11	N1	0.087760	0.002000	0.399920
N21	N2	0.007650	0.799400	0.478100
N31	N3	0.391730	0.005900	0.085260
N41	N4	0.687840	0.498000	0.600080
N51	N5	0.529550	0.700600	0.521900
N61	N6	0.306470	0.494100	0.914740
N71	N7	0.912240	0.998000	0.600080
N81	N8	0.992350	0.200600	0.521900
N91	N9	0.608270	0.994100	0.914740
N101	N10	0.312160	0.502000	0.399920
N111	N11	0.470450	0.299400	0.478100
N121	N12	0.693530	0.505900	0.085260
O11	O1	0.826910	0.972870	0.400620
O21	O2	0.614630	0.823500	0.266060
O31	O3	0.663970	0.071600	0.266740
O41	O4	0.621820	0.137100	0.101840
O51	O5	0.426290	0.527130	0.599380
O61	O6	0.348570	0.676500	0.733940
O71	O7	0.397230	0.428400	0.733260
O81	O8	0.519980	0.362900	0.898160
O91	O9	0.173090	0.027130	0.599380
O101	O10	0.385370	0.176500	0.733940
O111	O11	0.336030	0.928400	0.733260
O121	O12	0.378180	0.862900	0.898160
O131	O13	0.573710	0.472870	0.400620
O141	O14	0.651430	0.323500	0.266060
O151	O15	0.602770	0.571600	0.266740
O161	O16	0.480020	0.637100	0.101840
