data_FIZPOV_clean_PM
_symmetry_space_group_name_H-M	'P1'
_cell_length_a	11.078000
_cell_length_b	16.012000
_cell_length_c	23.804000
_cell_angle_alpha	90.000000
_cell_angle_beta	95.333000
_cell_angle_gamma	90.000000
_symmetry_Int_Tables_number 1

loop_
_symmetry_equiv_pos_as_xyz
'x,y,z'

loop_
_atom_site_label
_atom_site_type_symbol
_atom_site_fract_x
_atom_site_fract_y
_atom_site_fract_z
Zn11	Zn1	0.952700	0.482280	0.152960
Zn21	Zn2	0.153490	0.342110	0.240840
O11	O1	0.152600	0.168600	0.657380
O21	O2	0.075200	0.061600	0.604830
O31	O3	0.036400	0.846400	0.265290
O41	O4	0.150000	0.886000	0.341800
O51	O5	0.180100	0.467100	0.246930
O61	O6	0.038100	0.551900	0.208110
O71	O7	0.131400	0.052100	0.403420
O81	O8	0.199900	0.160400	0.362200
C11	C1	0.301000	0.493200	0.438100
H11	H1	0.231100	0.504900	0.414700
C21	C2	0.308000	0.421600	0.465700
H21	H2	0.244200	0.384000	0.460000
C31	C3	0.410300	0.399800	0.504100
C41	C4	0.497400	0.539300	0.484100
C51	C5	0.398600	0.554700	0.442890
C61	C6	0.395900	0.629400	0.412100
C71	C7	0.487400	0.686600	0.424900
H31	H3	0.485900	0.735900	0.404100
C81	C8	0.418000	0.324800	0.532900
C91	C9	0.329400	0.256200	0.523200
C101	C10	0.297500	0.223700	0.470200
H41	H4	0.328900	0.247200	0.438900
C111	C11	0.218000	0.155500	0.463000
C121	C12	0.166300	0.123700	0.509400
H51	H5	0.111600	0.079600	0.504800
C131	C13	0.195400	0.156800	0.561500
C141	C14	0.277000	0.223200	0.568300
H61	H6	0.296300	0.245600	0.604100
C151	C15	0.300000	0.647600	0.364800
C161	C16	0.252500	0.726800	0.358000
H71	H7	0.276200	0.768200	0.384100
C171	C17	0.167800	0.745600	0.311600
C181	C18	0.129400	0.684700	0.275500
H81	H8	0.069800	0.696400	0.246400
C191	C19	0.176500	0.605000	0.280700
C201	C20	0.266000	0.587200	0.324800
H91	H9	0.302600	0.534900	0.327100
C211	C21	0.128900	0.534900	0.242200
C221	C22	0.136100	0.127800	0.611800
C231	C23	0.114800	0.832000	0.305400
C241	C24	0.184400	0.120500	0.404400
Zn31	Zn3	0.047300	0.982280	0.347040
Zn41	Zn4	0.846510	0.842110	0.259160
O91	O9	0.847400	0.668600	0.842620
O101	O10	0.924800	0.561600	0.895170
O111	O11	0.963600	0.346400	0.234710
O121	O12	0.850000	0.386000	0.158200
O131	O13	0.819900	0.967100	0.253070
O141	O14	0.961900	0.051900	0.291890
O151	O15	0.868600	0.552100	0.096580
O161	O16	0.800100	0.660400	0.137800
C251	C25	0.699000	0.993200	0.061900
H101	H10	0.768900	0.004900	0.085300
C261	C26	0.692000	0.921600	0.034300
H111	H11	0.755800	0.884000	0.040000
C271	C27	0.589700	0.899800	0.995900
C281	C28	0.502600	0.039300	0.015900
C291	C29	0.601400	0.054700	0.057110
C301	C30	0.604100	0.129400	0.087900
C311	C31	0.512600	0.186600	0.075100
H121	H12	0.514100	0.235900	0.095900
C321	C32	0.582000	0.824800	0.967100
C331	C33	0.670600	0.756200	0.976800
C341	C34	0.702500	0.723700	0.029800
H131	H13	0.671100	0.747200	0.061100
C351	C35	0.782000	0.655500	0.037000
C361	C36	0.833700	0.623700	0.990600
H141	H14	0.888400	0.579600	0.995200
C371	C37	0.804600	0.656800	0.938500
C381	C38	0.723000	0.723200	0.931700
H151	H15	0.703700	0.745600	0.895900
C391	C39	0.700000	0.147600	0.135200
C401	C40	0.747500	0.226800	0.142000
H161	H16	0.723800	0.268200	0.115900
C411	C41	0.832200	0.245600	0.188400
C421	C42	0.870600	0.184700	0.224500
H171	H17	0.930200	0.196400	0.253600
C431	C43	0.823500	0.105000	0.219300
C441	C44	0.734000	0.087200	0.175200
H181	H18	0.697400	0.034900	0.172900
C451	C45	0.871100	0.034900	0.257800
C461	C46	0.863900	0.627800	0.888200
C471	C47	0.885200	0.332000	0.194600
C481	C48	0.815600	0.620500	0.095600
Zn51	Zn5	0.047300	0.517720	0.847040
Zn61	Zn6	0.846510	0.657890	0.759160
O171	O17	0.847400	0.831400	0.342620
O181	O18	0.924800	0.938400	0.395170
O191	O19	0.963600	0.153600	0.734710
O201	O20	0.850000	0.114000	0.658200
O211	O21	0.819900	0.532900	0.753070
O221	O22	0.961900	0.448100	0.791890
O231	O23	0.868600	0.947900	0.596580
O241	O24	0.800100	0.839600	0.637800
C491	C49	0.699000	0.506800	0.561900
H191	H19	0.768900	0.495100	0.585300
C501	C50	0.692000	0.578400	0.534300
H201	H20	0.755800	0.616000	0.540000
C511	C51	0.589700	0.600200	0.495900
C521	C52	0.502600	0.460700	0.515900
C531	C53	0.601400	0.445300	0.557110
C541	C54	0.604100	0.370600	0.587900
C551	C55	0.512600	0.313400	0.575100
H211	H21	0.514100	0.264100	0.595900
C561	C56	0.582000	0.675200	0.467100
C571	C57	0.670600	0.743800	0.476800
C581	C58	0.702500	0.776300	0.529800
H221	H22	0.671100	0.752800	0.561100
C591	C59	0.782000	0.844500	0.537000
C601	C60	0.833700	0.876300	0.490600
H231	H23	0.888400	0.920400	0.495200
C611	C61	0.804600	0.843200	0.438500
C621	C62	0.723000	0.776800	0.431700
H241	H24	0.703700	0.754400	0.395900
C631	C63	0.700000	0.352400	0.635200
C641	C64	0.747500	0.273200	0.642000
H251	H25	0.723800	0.231800	0.615900
C651	C65	0.832200	0.254400	0.688400
C661	C66	0.870600	0.315300	0.724500
H261	H26	0.930200	0.303600	0.753600
C671	C67	0.823500	0.395000	0.719300
C681	C68	0.734000	0.412800	0.675200
H271	H27	0.697400	0.465100	0.672900
C691	C69	0.871100	0.465100	0.757800
C701	C70	0.863900	0.872200	0.388200
C711	C71	0.885200	0.168000	0.694600
C721	C72	0.815600	0.879500	0.595600
Zn71	Zn7	0.952700	0.017720	0.652960
Zn81	Zn8	0.153490	0.157890	0.740840
O251	O25	0.152600	0.331400	0.157380
O261	O26	0.075200	0.438400	0.104830
O271	O27	0.036400	0.653600	0.765290
O281	O28	0.150000	0.614000	0.841800
O291	O29	0.180100	0.032900	0.746930
O301	O30	0.038100	0.948100	0.708110
O311	O31	0.131400	0.447900	0.903420
O321	O32	0.199900	0.339600	0.862200
C731	C73	0.301000	0.006800	0.938100
H281	H28	0.231100	0.995100	0.914700
C741	C74	0.308000	0.078400	0.965700
H291	H29	0.244200	0.116000	0.960000
C751	C75	0.410300	0.100200	0.004100
C761	C76	0.497400	0.960700	0.984100
C771	C77	0.398600	0.945300	0.942890
C781	C78	0.395900	0.870600	0.912100
C791	C79	0.487400	0.813400	0.924900
H301	H30	0.485900	0.764100	0.904100
C801	C80	0.418000	0.175200	0.032900
C811	C81	0.329400	0.243800	0.023200
C821	C82	0.297500	0.276300	0.970200
H311	H31	0.328900	0.252800	0.938900
C831	C83	0.218000	0.344500	0.963000
C841	C84	0.166300	0.376300	0.009400
H321	H32	0.111600	0.420400	0.004800
C851	C85	0.195400	0.343200	0.061500
C861	C86	0.277000	0.276800	0.068300
H331	H33	0.296300	0.254400	0.104100
C871	C87	0.300000	0.852400	0.864800
C881	C88	0.252500	0.773200	0.858000
H341	H34	0.276200	0.731800	0.884100
C891	C89	0.167800	0.754400	0.811600
C901	C90	0.129400	0.815300	0.775500
H351	H35	0.069800	0.803600	0.746400
C911	C91	0.176500	0.895000	0.780700
C921	C92	0.266000	0.912800	0.824800
H361	H36	0.302600	0.965100	0.827100
C931	C93	0.128900	0.965100	0.742200
C941	C94	0.136100	0.372200	0.111800
C951	C95	0.114800	0.668000	0.805400
C961	C96	0.184400	0.379500	0.904400
