data_FOCREW_clean_PM
_symmetry_space_group_name_H-M	'P1'
_cell_length_a	10.556100
_cell_length_b	10.537800
_cell_length_c	16.896200
_cell_angle_alpha	83.205000
_cell_angle_beta	76.425000
_cell_angle_gamma	69.971000
_symmetry_Int_Tables_number 1

loop_
_symmetry_equiv_pos_as_xyz
'x,y,z'

loop_
_atom_site_label
_atom_site_type_symbol
_atom_site_fract_x
_atom_site_fract_y
_atom_site_fract_z
Nd11	Nd1	0.372270	0.397600	0.481620
O11	O1	0.413700	0.606300	0.437690
O21	O2	0.523100	0.216300	0.557840
O31	O3	0.594900	0.337500	0.391260
O41	O4	0.294900	0.513700	0.609280
O51	O5	0.313700	0.411800	0.342960
O61	O6	0.222000	0.290800	0.579160
C11	C1	0.289500	0.393100	0.278700
C21	C2	0.393200	0.301200	0.216100
O71	O7	0.172600	0.453200	0.257200
C31	C3	0.352200	0.269800	0.150500
C41	C4	0.530100	0.245300	0.223600
H11	H1	0.118000	0.502000	0.290000
H21	H2	0.258700	0.307600	0.145400
C51	C5	0.447700	0.183200	0.092600
H31	H3	0.558100	0.264700	0.269100
C61	C6	0.626000	0.160900	0.164400
H41	H4	0.418600	0.161900	0.048200
C71	C7	0.586300	0.126700	0.098500
H51	H5	0.719900	0.125800	0.168700
C81	C8	0.686500	0.043100	0.031600
C91	C9	0.790900	0.919600	0.042900
C101	C10	0.677400	0.091700	0.952000
C111	C11	0.810300	0.855300	0.124500
C121	C12	0.880200	0.856500	0.973800
C131	C13	0.765800	0.027400	0.883100
H61	H6	0.606300	0.173900	0.944400
C141	C14	0.701100	0.840000	0.185400
C151	C15	0.941400	0.808400	0.141700
C161	C16	0.872600	0.906700	0.894000
H71	H7	0.950900	0.773900	0.981200
C171	C17	0.735300	0.088100	0.802400
H81	H8	0.610900	0.869200	0.174600
C181	C18	0.721800	0.782900	0.261300
C191	C19	0.963100	0.747800	0.216900
H91	H9	0.017400	0.818100	0.101200
C201	C20	0.980500	0.831500	0.825900
C211	C21	0.729400	0.010900	0.743100
C221	C22	0.696800	0.228200	0.788600
C231	C23	0.854200	0.735000	0.278100
H101	H10	0.645400	0.776200	0.302400
H111	H11	0.054100	0.714500	0.226700
C241	C24	0.050400	0.900500	0.764800
C251	C25	0.018500	0.691100	0.823400
C261	C26	0.682600	0.070800	0.673300
H121	H12	0.757900	0.915200	0.750500
H131	H13	0.700700	0.282700	0.828400
C271	C27	0.653200	0.289400	0.718000
C281	C28	0.876100	0.675800	0.361000
H141	H14	0.024200	0.996200	0.764400
C291	C29	0.156800	0.830000	0.705100
H151	H15	0.973500	0.642600	0.864800
C301	C30	0.121800	0.621900	0.760900
C311	C31	0.644200	0.211400	0.660200
H161	H16	0.676500	0.016400	0.634200
H171	H17	0.629500	0.384600	0.709300
O81	O8	0.994500	0.596000	0.366270
C321	C32	0.192000	0.690100	0.701900
H181	H18	0.206600	0.877200	0.665800
H191	H19	0.144400	0.526800	0.758800
C331	C33	0.582600	0.276800	0.588400
C341	C34	0.307200	0.615700	0.634700
Nd21	Nd2	0.627730	0.602400	0.518380
O91	O9	0.586300	0.393700	0.562310
O101	O10	0.476900	0.783700	0.442160
O111	O11	0.405100	0.662500	0.608740
O121	O12	0.705100	0.486300	0.390720
O131	O13	0.686300	0.588200	0.657040
O141	O14	0.778000	0.709200	0.420840
C351	C35	0.710500	0.606900	0.721300
C361	C36	0.606800	0.698800	0.783900
O151	O15	0.827400	0.546800	0.742800
C371	C37	0.647800	0.730200	0.849500
C381	C38	0.469900	0.754700	0.776400
H201	H20	0.882000	0.498000	0.710000
H211	H21	0.741300	0.692400	0.854600
C391	C39	0.552300	0.816800	0.907400
H221	H22	0.441900	0.735300	0.730900
C401	C40	0.374000	0.839100	0.835600
H231	H23	0.581400	0.838100	0.951800
C411	C41	0.413700	0.873300	0.901500
H241	H24	0.280100	0.874200	0.831300
C421	C42	0.313500	0.956900	0.968400
C431	C43	0.209100	0.080400	0.957100
C441	C44	0.322600	0.908300	0.048000
C451	C45	0.189700	0.144700	0.875500
C461	C46	0.119800	0.143500	0.026200
C471	C47	0.234200	0.972600	0.116900
H251	H25	0.393700	0.826100	0.055600
C481	C48	0.298900	0.160000	0.814600
C491	C49	0.058600	0.191600	0.858300
C501	C50	0.127400	0.093300	0.106000
H261	H26	0.049100	0.226100	0.018800
C511	C51	0.264700	0.911900	0.197600
H271	H27	0.389100	0.130800	0.825400
C521	C52	0.278200	0.217100	0.738700
C531	C53	0.036900	0.252200	0.783100
H281	H28	0.982600	0.181900	0.898800
C541	C54	0.019500	0.168500	0.174100
C551	C55	0.270600	0.989100	0.256900
C561	C56	0.303200	0.771800	0.211400
C571	C57	0.145800	0.265000	0.721900
H291	H29	0.354600	0.223800	0.697600
H301	H30	0.945900	0.285500	0.773300
C581	C58	0.949600	0.099500	0.235200
C591	C59	0.981500	0.308900	0.176600
C601	C60	0.317400	0.929200	0.326700
H311	H31	0.242100	0.084800	0.249500
H321	H32	0.299300	0.717300	0.171600
C611	C61	0.346800	0.710600	0.282000
C621	C62	0.123900	0.324200	0.639000
H331	H33	0.975800	0.003800	0.235600
C631	C63	0.843200	0.170000	0.294900
H341	H34	0.026500	0.357400	0.135200
C641	C64	0.878200	0.378100	0.239100
C651	C65	0.355800	0.788600	0.339800
H351	H35	0.323500	0.983600	0.365800
H361	H36	0.370500	0.615400	0.290700
O161	O16	0.005500	0.404000	0.633730
C661	C66	0.808000	0.309900	0.298100
H371	H37	0.793400	0.122800	0.334200
H381	H38	0.855600	0.473200	0.241200
C671	C67	0.417400	0.723200	0.411600
C681	C68	0.692800	0.384300	0.365300
