data_FOCZAA_clean_PM
_symmetry_space_group_name_H-M	'P1'
_cell_length_a	9.525600
_cell_length_b	12.127200
_cell_length_c	15.888600
_cell_angle_alpha	88.508000
_cell_angle_beta	74.677000
_cell_angle_gamma	70.379000
_symmetry_Int_Tables_number 1

loop_
_symmetry_equiv_pos_as_xyz
'x,y,z'

loop_
_atom_site_label
_atom_site_type_symbol
_atom_site_fract_x
_atom_site_fract_y
_atom_site_fract_z
Nd11	Nd1	0.295410	0.975800	0.018390
O11	O1	0.131100	0.882900	0.116470
O21	O2	0.012700	0.758800	0.097930
H11	H1	0.987400	0.804800	0.059800
O31	O3	0.236800	0.065400	0.164800
O41	O4	0.447100	0.095300	0.084810
O51	O5	0.535700	0.166600	0.911330
O61	O6	0.318100	0.127100	0.926020
O71	O7	0.208000	0.892200	0.913780
O81	O8	0.969000	0.881800	0.961420
C11	C1	0.224200	0.550900	0.440300
C21	C2	0.273100	0.427500	0.441300
C31	C3	0.302500	0.376500	0.516900
H21	H2	0.336900	0.293400	0.516700
C41	C4	0.284300	0.440900	0.593500
C51	C5	0.232800	0.564100	0.593000
C61	C6	0.207000	0.615200	0.516300
H31	H3	0.176100	0.698300	0.515700
C71	C7	0.186400	0.615000	0.363400
C81	C8	0.219500	0.718500	0.343300
H41	H4	0.264600	0.748400	0.380000
C91	C9	0.188000	0.778000	0.271300
H51	H5	0.212000	0.847600	0.258800
C101	C10	0.120500	0.735600	0.216900
C111	C11	0.085600	0.633500	0.236600
H61	H6	0.041100	0.603600	0.199600
C121	C12	0.115300	0.575500	0.309300
H71	H7	0.087100	0.507700	0.323000
C131	C13	0.090000	0.798500	0.139400
C141	C14	0.294400	0.345800	0.366800
C151	C15	0.404400	0.336800	0.287200
H81	H8	0.465900	0.385800	0.278700
C161	C16	0.425100	0.256600	0.219900
H91	H9	0.504500	0.248100	0.167100
C171	C17	0.329500	0.188900	0.229900
C181	C18	0.219400	0.198500	0.308700
H101	H10	0.153500	0.153100	0.315800
C191	C19	0.204000	0.273500	0.377300
H111	H11	0.131600	0.276000	0.432000
C201	C20	0.338800	0.111400	0.155800
C211	C21	0.320800	0.374500	0.669500
C221	C22	0.276500	0.275600	0.689400
H121	H12	0.225700	0.251100	0.653300
C231	C23	0.305600	0.213300	0.760500
H131	H13	0.272000	0.147800	0.773700
C241	C24	0.383900	0.245500	0.813200
C251	C25	0.433200	0.341400	0.792000
H141	H14	0.490100	0.362700	0.825700
C261	C26	0.399700	0.405300	0.722200
H151	H15	0.431100	0.471900	0.709900
C271	C27	0.415200	0.175400	0.889600
C281	C28	0.194200	0.643300	0.672400
C291	C29	0.096200	0.630300	0.751100
H161	H16	0.053700	0.569300	0.754500
C301	C30	0.058900	0.704500	0.824900
H171	H17	0.988200	0.696200	0.877400
C311	C31	0.125700	0.790700	0.821600
C321	C32	0.221800	0.806300	0.743300
H181	H18	0.266100	0.866200	0.740600
C331	C33	0.254100	0.734500	0.668400
H191	H19	0.316800	0.747700	0.614500
C341	C34	0.098700	0.861700	0.903800
Nd21	Nd2	0.704590	0.024200	0.981610
O91	O9	0.868900	0.117100	0.883530
O101	O10	0.987300	0.241200	0.902070
H201	H20	0.012600	0.195200	0.940200
O111	O11	0.763200	0.934600	0.835200
O121	O12	0.552900	0.904700	0.915190
O131	O13	0.464300	0.833400	0.088670
O141	O14	0.681900	0.872900	0.073980
O151	O15	0.792000	0.107800	0.086220
O161	O16	0.031000	0.118200	0.038580
C351	C35	0.775800	0.449100	0.559700
C361	C36	0.726900	0.572500	0.558700
C371	C37	0.697500	0.623500	0.483100
H211	H21	0.663100	0.706600	0.483300
C381	C38	0.715700	0.559100	0.406500
C391	C39	0.767200	0.435900	0.407000
C401	C40	0.793000	0.384800	0.483700
H221	H22	0.823900	0.301700	0.484300
C411	C41	0.813600	0.385000	0.636600
C421	C42	0.780500	0.281500	0.656700
H231	H23	0.735400	0.251600	0.620000
C431	C43	0.812000	0.222000	0.728700
H241	H24	0.788000	0.152400	0.741200
C441	C44	0.879500	0.264400	0.783100
C451	C45	0.914400	0.366500	0.763400
H251	H25	0.958900	0.396400	0.800400
C461	C46	0.884700	0.424500	0.690700
H261	H26	0.912900	0.492300	0.677000
C471	C47	0.910000	0.201500	0.860600
C481	C48	0.705600	0.654200	0.633200
C491	C49	0.595600	0.663200	0.712800
H271	H27	0.534100	0.614200	0.721300
C501	C50	0.574900	0.743400	0.780100
H281	H28	0.495500	0.751900	0.832900
C511	C51	0.670500	0.811100	0.770100
C521	C52	0.780600	0.801500	0.691300
H291	H29	0.846500	0.846900	0.684200
C531	C53	0.796000	0.726500	0.622700
H301	H30	0.868400	0.724000	0.568000
C541	C54	0.661200	0.888600	0.844200
C551	C55	0.679200	0.625500	0.330500
C561	C56	0.723500	0.724400	0.310600
H311	H31	0.774300	0.748900	0.346700
C571	C57	0.694400	0.786700	0.239500
H321	H32	0.728000	0.852200	0.226300
C581	C58	0.616100	0.754500	0.186800
C591	C59	0.566800	0.658600	0.208000
H331	H33	0.509900	0.637300	0.174300
C601	C60	0.600300	0.594700	0.277800
H341	H34	0.568900	0.528100	0.290100
C611	C61	0.584800	0.824600	0.110400
C621	C62	0.805800	0.356700	0.327600
C631	C63	0.903800	0.369700	0.248900
H351	H35	0.946300	0.430700	0.245500
C641	C64	0.941100	0.295500	0.175100
H361	H36	0.011800	0.303800	0.122600
C651	C65	0.874300	0.209300	0.178400
C661	C66	0.778200	0.193700	0.256700
H371	H37	0.733900	0.133800	0.259400
C671	C67	0.745900	0.265500	0.331600
H381	H38	0.683200	0.252300	0.385500
C681	C68	0.901300	0.138300	0.096200
