data_FOFHAK_clean_PM
_symmetry_space_group_name_H-M	'P1'
_cell_length_a	8.145200
_cell_length_b	8.902900
_cell_length_c	10.445200
_cell_angle_alpha	111.437000
_cell_angle_beta	103.734000
_cell_angle_gamma	102.096000
_symmetry_Int_Tables_number 1

loop_
_symmetry_equiv_pos_as_xyz
'x,y,z'

loop_
_atom_site_label
_atom_site_type_symbol
_atom_site_fract_x
_atom_site_fract_y
_atom_site_fract_z
Ga11	Ga1	0.231990	0.945930	0.947190
Ga21	Ga2	0.311960	0.490830	0.140810
P11	P1	0.163930	0.181260	0.217160
P21	P2	0.537040	0.257960	0.990190
O11	O1	0.233500	0.040300	0.133400
O21	O2	0.031400	0.907600	0.800900
O31	O3	0.153500	0.302800	0.146500
O41	O4	0.277200	0.264800	0.377400
O51	O5	0.481100	0.374600	0.105500
O61	O6	0.401700	0.076400	0.909700
O71	O7	0.283400	0.748800	0.925300
O81	O8	0.445900	0.684700	0.127000
O91	O9	0.144100	0.397400	0.932600
O101	O10	0.131700	0.613500	0.184400
F11	F1	0.433200	0.595200	0.343900
C11	C1	0.003800	0.437900	0.927100
Ga31	Ga3	0.768010	0.054070	0.052810
Ga41	Ga4	0.688040	0.509170	0.859190
P31	P3	0.836070	0.818740	0.782840
P41	P4	0.462960	0.742040	0.009810
O111	O11	0.766500	0.959700	0.866600
O121	O12	0.968600	0.092400	0.199100
O131	O13	0.846500	0.697200	0.853500
O141	O14	0.722800	0.735200	0.622600
O151	O15	0.518900	0.625400	0.894500
O161	O16	0.598300	0.923600	0.090300
O171	O17	0.716600	0.251200	0.074700
O181	O18	0.554100	0.315300	0.873000
O191	O19	0.855900	0.602600	0.067400
O201	O20	0.868300	0.386500	0.815600
F21	F2	0.566800	0.404800	0.656100
C21	C2	0.996200	0.562100	0.072900
Mn11	Mn1	0.500000	0.500000	0.500000
