data_FOFMOE_clean_PM
_symmetry_space_group_name_H-M	'P1'
_cell_length_a	9.142700
_cell_length_b	24.503000
_cell_length_c	24.588000
_cell_angle_alpha	90.000000
_cell_angle_beta	91.089000
_cell_angle_gamma	90.000000
_symmetry_Int_Tables_number 1

loop_
_symmetry_equiv_pos_as_xyz
'x,y,z'

loop_
_atom_site_label
_atom_site_type_symbol
_atom_site_fract_x
_atom_site_fract_y
_atom_site_fract_z
C11	C1	0.149500	0.848100	0.016400
C21	C2	0.193200	0.822900	0.102700
C31	C3	0.103500	0.761300	0.043600
C41	C4	0.145400	0.868800	0.916600
H11	H1	0.242700	0.861800	0.903300
H21	H2	0.089500	0.835300	0.913900
C51	C5	0.074800	0.911000	0.883300
H31	H3	0.973700	0.915800	0.894900
C61	C6	0.157700	0.965100	0.890600
H41	H4	0.255600	0.961500	0.876400
H51	H5	0.107500	0.993700	0.870400
C71	C7	0.166300	0.979800	0.949500
H61	H6	0.223200	0.013000	0.953600
H71	H7	0.068300	0.987400	0.962000
C81	C8	0.230700	0.938200	0.983800
H81	H8	0.223300	0.948700	0.021700
H91	H9	0.333600	0.934200	0.975600
C91	C9	0.074400	0.892500	0.823900
C101	C10	0.291800	0.893100	0.166400
H101	H10	0.388500	0.895700	0.183200
H111	H11	0.288300	0.916400	0.134600
C111	C11	0.178500	0.909700	0.205500
H121	H12	0.083600	0.906500	0.186600
C121	C12	0.173200	0.874200	0.254100
H131	H13	0.093000	0.885700	0.276700
H141	H14	0.263300	0.878300	0.275200
C131	C13	0.153100	0.815100	0.239000
H151	H15	0.054100	0.809500	0.225200
H161	H16	0.166900	0.792600	0.271100
C141	C14	0.261100	0.797700	0.195900
H171	H17	0.358900	0.796300	0.211900
H181	H18	0.236200	0.761500	0.182900
C151	C15	0.199100	0.970000	0.220000
C161	C16	0.012400	0.671500	0.077100
H191	H19	0.907800	0.667900	0.082100
H201	H20	0.057100	0.683300	0.111200
C171	C17	0.076800	0.617800	0.059600
H211	H21	0.056000	0.590300	0.086700
H221	H22	0.182200	0.621400	0.057600
C181	C18	0.016200	0.599000	0.004600
H231	H23	0.061500	0.564800	0.994600
H241	H24	0.911600	0.593200	0.006800
C191	C19	0.046800	0.641800	0.961900
H251	H25	0.153300	0.646200	0.961600
C201	C20	0.983100	0.698100	0.978400
H261	H26	0.010800	0.725700	0.952300
H271	H27	0.877200	0.696300	0.979100
C211	C21	0.000000	0.627100	0.904000
C221	C22	0.455500	0.155100	0.902900
C231	C23	0.391500	0.222000	0.957700
C241	C24	0.505700	0.149200	0.994800
C251	C25	0.544900	0.082500	0.843700
H281	H28	0.577200	0.066500	0.877900
H291	H29	0.630700	0.090500	0.822500
C261	C26	0.447200	0.042300	0.812800
H301	H30	0.358000	0.036000	0.833400
C271	C27	0.406400	0.069800	0.758100
H311	H31	0.343400	0.045700	0.736900
H321	H32	0.494400	0.076300	0.737700
C281	C28	0.326100	0.125100	0.767900
H331	H33	0.311800	0.144100	0.733600
H341	H34	0.230800	0.118300	0.783200
C291	C29	0.413900	0.158700	0.805300
H351	H35	0.498600	0.171800	0.786000
H361	H36	0.356300	0.190400	0.815000
C301	C30	0.526800	0.988500	0.805500
C311	C31	0.263600	0.301900	0.916100
H371	H37	0.290700	0.283100	0.883100
H381	H38	0.157800	0.302100	0.918000
C321	C32	0.318600	0.357700	0.915300
H391	H39	0.272400	0.377000	0.885000
H401	H40	0.423000	0.356900	0.908900
C331	C33	0.291300	0.389700	0.967900
H411	H41	0.187400	0.391800	0.974800
H421	H42	0.329800	0.426500	0.965200
C341	C34	0.371200	0.358100	0.014100
H431	H43	0.476100	0.356400	0.006900
C351	C35	0.306600	0.299900	0.015000
H441	H44	0.353500	0.279000	0.044000
H451	H45	0.202800	0.301800	0.022300
C361	C36	0.345600	0.390400	0.067500
C371	C37	0.518700	0.132200	0.089100
H461	H46	0.485700	0.169800	0.089700
H471	H47	0.606500	0.130100	0.111800
C381	C38	0.404100	0.097900	0.114900
H481	H48	0.308300	0.108900	0.100200
C391	C39	0.428900	0.036400	0.101000
H491	H49	0.502700	0.021700	0.125800
H501	H50	0.338700	0.016600	0.106800
C401	C40	0.475300	0.027500	0.045000
H511	H51	0.392100	0.033400	0.020600
H521	H52	0.505200	0.989700	0.041200
C411	C41	0.598800	0.063700	0.027800
H531	H53	0.685900	0.055700	0.049500
H541	H54	0.620500	0.057000	0.989900
C421	C42	0.399000	0.099800	0.176800
C431	C43	0.565000	0.811800	0.498100
C441	C44	0.637300	0.730900	0.463300
C451	C45	0.610200	0.804300	0.410100
C461	C46	0.504300	0.902900	0.533100
H551	H55	0.475300	0.911500	0.496000
H561	H56	0.429700	0.916700	0.557000
C471	C47	0.645200	0.929200	0.546400
H571	H57	0.637200	0.968400	0.541800
H581	H58	0.720300	0.915900	0.522400
C481	C48	0.686500	0.915000	0.607400
H591	H59	0.783600	0.929100	0.615700
H601	H60	0.618500	0.933400	0.631000
C491	C49	0.684100	0.853600	0.620000
H611	H61	0.768800	0.836100	0.603400
C501	C50	0.539000	0.826800	0.596200
H621	H62	0.546000	0.787300	0.598700
H631	H63	0.456200	0.838500	0.617300
C511	C51	0.699500	0.850500	0.678400
C521	C52	0.671100	0.649500	0.522900
H641	H64	0.764400	0.632800	0.532400
H651	H65	0.647200	0.675200	0.551400
C531	C53	0.559300	0.607700	0.519500
H661	H66	0.464300	0.625700	0.514700
C541	C54	0.581400	0.568600	0.470000
H671	H67	0.497700	0.544500	0.466100
H681	H68	0.667900	0.546400	0.476300
C551	C55	0.599100	0.603000	0.416700
H691	H69	0.624400	0.579200	0.386800
H701	H70	0.507600	0.621100	0.407400
C561	C56	0.719300	0.645400	0.425800
H711	H71	0.811700	0.627100	0.433300
H721	H72	0.729900	0.667300	0.393300
C571	C57	0.552700	0.571700	0.569900
C581	C58	0.651700	0.795600	0.313800
H731	H73	0.561200	0.786800	0.294600
H741	H74	0.698700	0.761700	0.324600
C591	C59	0.752000	0.827600	0.276200
H751	H75	0.846800	0.832500	0.293900
H761	H76	0.766300	0.806900	0.243100
C601	C60	0.687400	0.882600	0.262300
H771	H77	0.596400	0.877600	0.242000
H781	H78	0.754300	0.902500	0.239400
C611	C61	0.658200	0.916200	0.313700
H791	H79	0.751800	0.923600	0.332300
C621	C62	0.561600	0.881000	0.352000
H801	H80	0.554700	0.899000	0.386900
H811	H81	0.463600	0.878200	0.336400
C631	C63	0.584400	0.968800	0.301800
C641	C64	0.908300	0.104900	0.510400
C651	C65	0.922000	0.191500	0.536700
C661	C66	0.852600	0.126000	0.595700
C671	C67	0.926200	0.085400	0.412900
H821	H82	0.829800	0.081900	0.396000
H831	H83	0.955100	0.123400	0.411000
C681	C68	0.031300	0.051600	0.383300
H841	H84	0.128800	0.057000	0.399600
C691	C69	0.990700	0.989100	0.387000
H851	H85	0.896000	0.982500	0.369800
H861	H86	0.063300	0.967200	0.368800
C701	C70	0.986800	0.974900	0.446100
H871	H87	0.954200	0.937500	0.449900
H881	H88	0.085000	0.977400	0.461600
C711	C71	0.888700	0.011100	0.476700
H891	H89	0.788500	0.004400	0.464800
H901	H90	0.896200	0.002000	0.515100
C721	C72	0.037900	0.064500	0.322000
C731	C73	0.991500	0.262800	0.473100
H911	H91	0.985800	0.232400	0.448000
H921	H92	0.089700	0.277700	0.472300
C741	C74	0.882100	0.306000	0.456500
H931	H93	0.785500	0.288700	0.455200
C751	C75	0.874800	0.351000	0.495400
H941	H94	0.796200	0.375600	0.484900
H951	H95	0.965800	0.371300	0.495300
C761	C76	0.847400	0.328200	0.554100
H961	H96	0.856000	0.357800	0.580200
H971	H97	0.748800	0.313800	0.555700
C771	C77	0.953600	0.284500	0.568900
H981	H98	0.049900	0.300400	0.574400
H991	H99	0.924900	0.267600	0.602700
C781	C78	0.915100	0.326700	0.397000
C791	C79	0.788400	0.053900	0.661100
H1001	H100	0.790700	0.030400	0.629400
H1011	H101	0.696200	0.048000	0.679100
C801	C80	0.911900	0.039800	0.698900
H1021	H102	0.005200	0.045300	0.680700
C811	C81	0.902400	0.078000	0.748300
H1031	H103	0.811000	0.071700	0.766700
H1041	H104	0.981900	0.069900	0.773800
C821	C82	0.911000	0.136000	0.731300
H1051	H105	0.007300	0.143600	0.717300
H1061	H106	0.895900	0.159500	0.762500
C831	C83	0.794200	0.147900	0.687400
H1071	H107	0.698300	0.146000	0.703400
H1081	H108	0.807700	0.184700	0.673900
C841	C84	0.895600	0.981400	0.714200
Gd11	Gd1	0.080310	0.859960	0.709440
Gd21	Gd2	0.696500	0.889530	0.790390
Gd31	Gd3	0.408660	0.066150	0.287670
Gd41	Gd4	0.018720	0.092130	0.205190
N11	N1	0.192100	0.864300	0.065600
N21	N2	0.149900	0.773000	0.095100
N31	N3	0.107600	0.796400	0.001500
N41	N4	0.155500	0.886400	0.974700
N51	N5	0.259100	0.835200	0.150900
N61	N6	0.042600	0.711900	0.033100
N71	N7	0.392100	0.201900	0.908100
N81	N8	0.444900	0.198700	0.003600
N91	N9	0.507900	0.124600	0.946500
N101	N10	0.463600	0.133200	0.854000
N111	N11	0.327500	0.273000	0.964400
N121	N12	0.557900	0.119500	0.034900
N131	N13	0.596600	0.758600	0.507800
N141	N14	0.654400	0.750900	0.413500
N151	N15	0.569000	0.836100	0.448100
N161	N16	0.516800	0.842800	0.539400
N171	N17	0.683900	0.679300	0.470000
N181	N18	0.621200	0.826500	0.359900
N191	N19	0.931100	0.157000	0.496500
N201	N20	0.880600	0.179300	0.587900
N211	N21	0.869500	0.086700	0.558400
N221	N22	0.920600	0.068000	0.470100
N231	N23	0.959300	0.244500	0.527600
N241	N24	0.799900	0.111600	0.644100
O11	O1	0.946400	0.888900	0.800400
O21	O2	0.189200	0.883000	0.801100
O31	O3	0.102400	0.003100	0.203200
O41	O4	0.313000	0.984600	0.245200
O51	O5	0.990900	0.576300	0.892400
O61	O6	0.975300	0.661500	0.869600
O71	O7	0.628500	0.973700	0.837600
O81	O8	0.494500	0.956300	0.765700
O91	O9	0.404100	0.437100	0.066200
H1091	H109	0.388900	0.453200	0.094800
O101	O10	0.278500	0.373100	0.104900
O111	O11	0.275000	0.099800	0.198300
O121	O12	0.508900	0.096400	0.204200
O131	O13	0.588600	0.853300	0.708400
O141	O14	0.819100	0.851100	0.702100
O151	O15	0.609900	0.584700	0.610400
O161	O16	0.479500	0.528400	0.565300
H1101	H110	0.482200	0.511800	0.594300
O171	O17	0.611800	0.996900	0.263400
O181	O18	0.500100	0.989400	0.338200
O191	O19	0.156900	0.071200	0.299200
O201	O20	0.919600	0.068800	0.296400
O211	O21	0.941800	0.290900	0.363100
O221	O22	0.913000	0.375200	0.386500
O231	O23	0.786000	0.964500	0.739100
O241	O24	0.000600	0.949200	0.701600
C851	C85	0.850500	0.348100	0.983600
C861	C86	0.806800	0.322900	0.897300
C871	C87	0.896500	0.261300	0.956400
C881	C88	0.854600	0.368800	0.083400
H1111	H111	0.757300	0.361800	0.096700
H1121	H112	0.910500	0.335300	0.086100
C891	C89	0.925200	0.411000	0.116700
H1131	H113	0.026300	0.415800	0.105100
C901	C90	0.842300	0.465100	0.109400
H1141	H114	0.744400	0.461500	0.123600
H1151	H115	0.892500	0.493700	0.129600
C911	C91	0.833700	0.479800	0.050500
H1161	H116	0.776800	0.513000	0.046400
H1171	H117	0.931700	0.487400	0.038000
C921	C92	0.769300	0.438200	0.016200
H1181	H118	0.776700	0.448700	0.978300
H1191	H119	0.666400	0.434200	0.024400
C931	C93	0.925600	0.392500	0.176100
C941	C94	0.708200	0.393100	0.833600
H1201	H120	0.611500	0.395700	0.816800
H1211	H121	0.711700	0.416400	0.865400
C951	C95	0.821500	0.409700	0.794500
H1221	H122	0.916400	0.406500	0.813400
C961	C96	0.826800	0.374200	0.745900
H1231	H123	0.907000	0.385700	0.723300
H1241	H124	0.736700	0.378300	0.724800
C971	C97	0.846900	0.315100	0.761000
H1251	H125	0.945900	0.309500	0.774800
H1261	H126	0.833100	0.292600	0.728900
C981	C98	0.738900	0.297700	0.804100
H1271	H127	0.641100	0.296300	0.788100
H1281	H128	0.763800	0.261500	0.817100
C991	C99	0.800900	0.470000	0.780000
C1001	C100	0.987600	0.171500	0.922900
H1291	H129	0.092200	0.167900	0.917900
H1301	H130	0.942900	0.183300	0.888800
C1011	C101	0.923200	0.117800	0.940400
H1311	H131	0.944000	0.090300	0.913300
H1321	H132	0.817800	0.121400	0.942400
C1021	C102	0.983800	0.099000	0.995400
H1331	H133	0.938500	0.064800	0.005400
H1341	H134	0.088400	0.093200	0.993200
C1031	C103	0.953200	0.141800	0.038100
H1351	H135	0.846700	0.146200	0.038400
C1041	C104	0.016900	0.198100	0.021600
H1361	H136	0.989200	0.225700	0.047700
H1371	H137	0.122800	0.196300	0.020900
C1051	C105	0.000000	0.127100	0.096000
C1061	C106	0.544500	0.655100	0.097100
C1071	C107	0.608500	0.722000	0.042300
C1081	C108	0.494300	0.649200	0.005200
C1091	C109	0.455100	0.582500	0.156300
H1381	H138	0.422800	0.566500	0.122100
H1391	H139	0.369300	0.590500	0.177500
C1101	C110	0.552800	0.542300	0.187200
H1401	H140	0.642000	0.536000	0.166600
C1111	C111	0.593600	0.569800	0.241900
H1411	H141	0.656600	0.545700	0.263100
H1421	H142	0.505600	0.576300	0.262300
C1121	C112	0.673900	0.625100	0.232100
H1431	H143	0.688200	0.644100	0.266400
H1441	H144	0.769200	0.618300	0.216800
C1131	C113	0.586100	0.658700	0.194700
H1451	H145	0.501400	0.671800	0.214000
H1461	H146	0.643700	0.690400	0.185000
C1141	C114	0.473200	0.488500	0.194500
C1151	C115	0.736400	0.801900	0.083900
H1471	H147	0.709300	0.783100	0.116900
H1481	H148	0.842200	0.802100	0.082000
C1161	C116	0.681400	0.857700	0.084700
H1491	H149	0.727600	0.877000	0.115000
H1501	H150	0.577000	0.856900	0.091100
C1171	C117	0.708700	0.889700	0.032100
H1511	H151	0.812600	0.891800	0.025200
H1521	H152	0.670200	0.926500	0.034800
C1181	C118	0.628800	0.858100	0.985900
H1531	H153	0.523900	0.856400	0.993100
C1191	C119	0.693400	0.799900	0.985000
H1541	H154	0.646500	0.779000	0.956000
H1551	H155	0.797200	0.801800	0.977700
C1201	C120	0.654400	0.890400	0.932500
C1211	C121	0.481300	0.632200	0.910900
H1561	H156	0.514300	0.669800	0.910300
H1571	H157	0.393500	0.630100	0.888200
C1221	C122	0.595900	0.597900	0.885100
H1581	H158	0.691700	0.608900	0.899800
C1231	C123	0.571100	0.536400	0.899000
H1591	H159	0.497300	0.521700	0.874200
H1601	H160	0.661300	0.516600	0.893200
C1241	C124	0.524700	0.527500	0.955000
H1611	H161	0.607900	0.533400	0.979400
H1621	H162	0.494800	0.489700	0.958800
C1251	C125	0.401200	0.563700	0.972200
H1631	H163	0.314100	0.555700	0.950500
H1641	H164	0.379500	0.557000	0.010100
C1261	C126	0.601000	0.599800	0.823200
C1271	C127	0.435000	0.311800	0.501900
C1281	C128	0.362700	0.230900	0.536700
C1291	C129	0.389800	0.304300	0.589900
C1301	C130	0.495700	0.402900	0.466900
H1651	H165	0.524700	0.411500	0.504000
H1661	H166	0.570300	0.416700	0.443000
C1311	C131	0.354800	0.429200	0.453600
H1671	H167	0.362800	0.468400	0.458200
H1681	H168	0.279700	0.415900	0.477600
C1321	C132	0.313500	0.415000	0.392600
H1691	H169	0.216400	0.429100	0.384300
H1701	H170	0.381500	0.433400	0.369000
C1331	C133	0.315900	0.353600	0.380000
H1711	H171	0.231200	0.336100	0.396600
C1341	C134	0.461000	0.326800	0.403800
H1721	H172	0.454000	0.287300	0.401300
H1731	H173	0.543800	0.338500	0.382700
C1351	C135	0.300500	0.350500	0.321600
C1361	C136	0.328900	0.149500	0.477100
H1741	H174	0.235600	0.132800	0.467600
H1751	H175	0.352800	0.175200	0.448600
C1371	C137	0.440700	0.107700	0.480500
H1761	H176	0.535700	0.125700	0.485300
C1381	C138	0.418600	0.068600	0.530000
H1771	H177	0.502300	0.044500	0.533900
H1781	H178	0.332100	0.046400	0.523700
C1391	C139	0.400900	0.103000	0.583300
H1791	H179	0.375600	0.079200	0.613200
H1801	H180	0.492400	0.121100	0.592600
C1401	C140	0.280700	0.145400	0.574200
H1811	H181	0.188300	0.127100	0.566700
H1821	H182	0.270100	0.167300	0.606700
C1411	C141	0.447300	0.071700	0.430100
C1421	C142	0.348300	0.295600	0.686200
H1831	H183	0.438800	0.286800	0.705400
H1841	H184	0.301300	0.261700	0.675400
C1431	C143	0.248000	0.327600	0.723800
H1851	H185	0.153200	0.332500	0.706100
H1861	H186	0.233700	0.306900	0.756900
C1441	C144	0.312600	0.382600	0.737700
H1871	H187	0.403600	0.377600	0.758000
H1881	H188	0.245700	0.402500	0.760600
C1451	C145	0.341800	0.416200	0.686300
H1891	H189	0.248200	0.423600	0.667700
C1461	C146	0.438400	0.381000	0.648000
H1901	H190	0.445300	0.399000	0.613100
H1911	H191	0.536400	0.378200	0.663600
C1471	C147	0.415600	0.468800	0.698200
C1481	C148	0.091700	0.604900	0.489600
C1491	C149	0.078000	0.691500	0.463300
C1501	C150	0.147400	0.626000	0.404300
C1511	C151	0.073800	0.585400	0.587100
H1921	H192	0.170200	0.581900	0.604000
H1931	H193	0.044900	0.623400	0.589000
C1521	C152	0.968700	0.551600	0.616700
H1941	H194	0.871200	0.557000	0.600400
C1531	C153	0.009300	0.489100	0.613000
H1951	H195	0.104000	0.482500	0.630200
H1961	H196	0.936700	0.467200	0.631200
C1541	C154	0.013200	0.474900	0.553900
H1971	H197	0.045800	0.437500	0.550100
H1981	H198	0.915000	0.477400	0.538400
C1551	C155	0.111300	0.511100	0.523300
H1991	H199	0.211500	0.504400	0.535200
H2001	H200	0.103800	0.502000	0.484900
C1561	C156	0.962100	0.564500	0.678000
C1571	C157	0.008500	0.762800	0.526900
H2011	H201	0.014200	0.732400	0.552000
H2021	H202	0.910300	0.777700	0.527700
C1581	C158	0.117900	0.806000	0.543500
H2031	H203	0.214500	0.788700	0.544800
C1591	C159	0.125200	0.851000	0.504600
H2041	H204	0.203800	0.875600	0.515100
H2051	H205	0.034200	0.871300	0.504700
C1601	C160	0.152600	0.828200	0.445900
H2061	H206	0.144000	0.857800	0.419800
H2071	H207	0.251200	0.813800	0.444300
C1611	C161	0.046400	0.784500	0.431100
H2081	H208	0.950100	0.800400	0.425600
H2091	H209	0.075100	0.767600	0.397300
C1621	C162	0.084900	0.826700	0.603000
C1631	C163	0.211600	0.553900	0.338900
H2101	H210	0.209300	0.530400	0.370600
H2111	H211	0.303800	0.548000	0.320900
C1641	C164	0.088100	0.539800	0.301100
H2121	H212	0.994800	0.545300	0.319300
C1651	C165	0.097600	0.578000	0.251700
H2131	H213	0.189000	0.571700	0.233300
H2141	H214	0.018100	0.569900	0.226200
C1661	C166	0.089000	0.636000	0.268700
H2151	H215	0.992700	0.643600	0.282700
H2161	H216	0.104100	0.659500	0.237500
C1671	C167	0.205800	0.647900	0.312600
H2171	H217	0.301700	0.646000	0.296600
H2181	H218	0.192300	0.684700	0.326100
C1681	C168	0.104400	0.481400	0.285800
Gd51	Gd5	0.919690	0.359960	0.290560
Gd61	Gd6	0.303500	0.389530	0.209610
Gd71	Gd7	0.591340	0.566150	0.712330
Gd81	Gd8	0.981280	0.592130	0.794810
N251	N25	0.807900	0.364300	0.934400
N261	N26	0.850100	0.273000	0.904900
N271	N27	0.892400	0.296400	0.998500
N281	N28	0.844500	0.386400	0.025300
N291	N29	0.740900	0.335200	0.849100
N301	N30	0.957400	0.211900	0.966900
N311	N31	0.607900	0.701900	0.091900
N321	N32	0.555100	0.698700	0.996400
N331	N33	0.492100	0.624600	0.053500
N341	N34	0.536400	0.633200	0.146000
N351	N35	0.672500	0.773000	0.035600
N361	N36	0.442100	0.619500	0.965100
N371	N37	0.403400	0.258600	0.492200
N381	N38	0.345600	0.250900	0.586500
N391	N39	0.431000	0.336100	0.551900
N401	N40	0.483200	0.342800	0.460600
N411	N41	0.316100	0.179300	0.530000
N421	N42	0.378800	0.326500	0.640100
N431	N43	0.068900	0.657000	0.503500
N441	N44	0.119400	0.679300	0.412100
N451	N45	0.130500	0.586700	0.441600
N461	N46	0.079400	0.568000	0.529900
N471	N47	0.040700	0.744500	0.472400
N481	N48	0.200100	0.611600	0.355900
O251	O25	0.053600	0.388900	0.199600
O261	O26	0.810800	0.383000	0.198900
O271	O27	0.897600	0.503100	0.796800
O281	O28	0.687000	0.484600	0.754800
O291	O29	0.009100	0.076300	0.107600
O301	O30	0.024700	0.161500	0.130400
O311	O31	0.371500	0.473700	0.162400
O321	O32	0.505500	0.456300	0.234300
O331	O33	0.595900	0.937100	0.933800
H2191	H219	0.611100	0.953200	0.905200
O341	O34	0.721500	0.873100	0.895100
O351	O35	0.725000	0.599800	0.801700
O361	O36	0.491100	0.596400	0.795800
O371	O37	0.411400	0.353300	0.291600
O381	O38	0.180900	0.351100	0.297900
O391	O39	0.390100	0.084700	0.389600
O401	O40	0.520500	0.028400	0.434700
H2201	H220	0.517800	0.011800	0.405700
O411	O41	0.388200	0.496900	0.736600
O421	O42	0.499900	0.489400	0.661800
O431	O43	0.843100	0.571200	0.700800
O441	O44	0.080400	0.568800	0.703600
O451	O45	0.058200	0.790900	0.636900
O461	O46	0.087000	0.875200	0.613500
O471	O47	0.214000	0.464500	0.260900
O481	O48	0.999400	0.449200	0.298400
