data_FOHCAH_clean_PM
_symmetry_space_group_name_H-M	'P1'
_cell_length_a	7.333200
_cell_length_b	7.708800
_cell_length_c	12.070000
_cell_angle_alpha	90.000000
_cell_angle_beta	91.420000
_cell_angle_gamma	90.000000
_symmetry_Int_Tables_number 1

loop_
_symmetry_equiv_pos_as_xyz
'x,y,z'

loop_
_atom_site_label
_atom_site_type_symbol
_atom_site_fract_x
_atom_site_fract_y
_atom_site_fract_z
Mg11	Mg1	0.000000	0.500000	0.500000
Mg21	Mg2	0.500000	0.000000	0.500000
H11	H1	0.441000	0.607400	0.704900
H21	H2	0.539600	0.782900	0.735100
H31	H3	0.344400	0.684800	0.879300
H41	H4	0.779400	0.390700	0.952800
H51	H5	0.059000	0.107400	0.295100
H61	H6	0.960400	0.282900	0.264900
H71	H7	0.155600	0.184800	0.120700
H81	H8	0.720600	0.890700	0.047200
H91	H9	0.559000	0.392600	0.295100
H101	H10	0.460400	0.217100	0.264900
H111	H11	0.655600	0.315200	0.120700
H121	H12	0.220600	0.609300	0.047200
H131	H13	0.941000	0.892600	0.704900
H141	H14	0.039600	0.717100	0.735100
H151	H15	0.844400	0.815200	0.879300
H161	H16	0.279400	0.109300	0.952800
C11	C1	0.664400	0.652600	0.608100
C21	C2	0.559100	0.662600	0.715100
C31	C3	0.574300	0.542400	0.899000
C41	C4	0.407000	0.610200	0.927400
C51	C5	0.666200	0.434600	0.971600
C61	C6	0.835600	0.152600	0.391900
C71	C7	0.940900	0.162600	0.284900
C81	C8	0.925700	0.042400	0.101000
C91	C9	0.093000	0.110200	0.072600
C101	C10	0.833800	0.934600	0.028400
C111	C11	0.335600	0.347400	0.391900
C121	C12	0.440900	0.337400	0.284900
C131	C13	0.425700	0.457600	0.101000
C141	C14	0.593000	0.389800	0.072600
C151	C15	0.333800	0.565400	0.028400
C161	C16	0.164400	0.847400	0.608100
C171	C17	0.059100	0.837400	0.715100
C181	C18	0.074300	0.957600	0.899000
C191	C19	0.907000	0.889800	0.927400
C201	C20	0.166200	0.065400	0.971600
O11	O1	0.789300	0.543600	0.602800
O21	O2	0.616200	0.753700	0.530870
O31	O3	0.660400	0.577500	0.800320
O41	O4	0.710700	0.043600	0.397200
O51	O5	0.883800	0.253700	0.469130
O61	O6	0.839600	0.077500	0.199680
O71	O7	0.210700	0.456400	0.397200
O81	O8	0.383800	0.246300	0.469130
O91	O9	0.339600	0.422500	0.199680
O101	O10	0.289300	0.956400	0.602800
O111	O11	0.116200	0.746300	0.530870
O121	O12	0.160400	0.922500	0.800320
