data_FOHQUO_clean_PM
_symmetry_space_group_name_H-M	'P1'
_cell_length_a	6.880000
_cell_length_b	14.360000
_cell_length_c	15.800000
_cell_angle_alpha	90.000000
_cell_angle_beta	101.690000
_cell_angle_gamma	90.000000
_symmetry_Int_Tables_number 1

loop_
_symmetry_equiv_pos_as_xyz
'x,y,z'

loop_
_atom_site_label
_atom_site_type_symbol
_atom_site_fract_x
_atom_site_fract_y
_atom_site_fract_z
Sr11	Sr1	0.766290	0.915280	0.548580
Sr21	Sr2	0.233710	0.415280	0.951420
Sr31	Sr3	0.233710	0.084720	0.451420
Sr41	Sr4	0.766290	0.584720	0.048580
Co11	Co1	0.775070	0.737300	0.796960
Co21	Co2	0.224930	0.237300	0.703040
Co31	Co3	0.224930	0.262700	0.203040
Co41	Co4	0.775070	0.762700	0.296960
H11	H1	0.164500	0.936800	0.847400
H21	H2	0.292300	0.884100	0.792500
H31	H3	0.309800	0.541000	0.766600
H41	H4	0.510500	0.538000	0.735200
H51	H5	0.835500	0.436800	0.652600
H61	H6	0.707700	0.384100	0.707500
H71	H7	0.690200	0.041000	0.733400
H81	H8	0.489500	0.038000	0.764800
H91	H9	0.835500	0.063200	0.152600
H101	H10	0.707700	0.115900	0.207500
H111	H11	0.690200	0.459000	0.233400
H121	H12	0.489500	0.462000	0.264800
H131	H13	0.164500	0.563200	0.347400
H141	H14	0.292300	0.615900	0.292500
H151	H15	0.309800	0.959000	0.266600
H161	H16	0.510500	0.962000	0.235200
C11	C1	0.005600	0.891400	0.734600
C21	C2	0.169000	0.881100	0.813200
C31	C3	0.190900	0.801500	0.875200
C41	C4	0.374600	0.663900	0.715100
C51	C5	0.430900	0.575400	0.766300
C61	C6	0.543200	0.583500	0.859200
C71	C7	0.994400	0.391400	0.765400
C81	C8	0.831000	0.381100	0.686800
C91	C9	0.809100	0.301500	0.624800
C101	C10	0.625400	0.163900	0.784900
C111	C11	0.569100	0.075400	0.733700
C121	C12	0.456800	0.083500	0.640800
C131	C13	0.994400	0.108600	0.265400
C141	C14	0.831000	0.118900	0.186800
C151	C15	0.809100	0.198500	0.124800
C161	C16	0.625400	0.336100	0.284900
C171	C17	0.569100	0.424600	0.233700
C181	C18	0.456800	0.416500	0.140800
C191	C19	0.005600	0.608600	0.234600
C201	C20	0.169000	0.618900	0.313200
C211	C21	0.190900	0.698500	0.375200
C221	C22	0.374600	0.836100	0.215100
C231	C23	0.430900	0.924600	0.266300
C241	C24	0.543200	0.916500	0.359200
O11	O1	0.886200	0.084400	0.512300
O21	O2	0.863200	0.835900	0.717000
O31	O3	0.022200	0.959400	0.687200
O41	O4	0.051700	0.744200	0.874600
O51	O5	0.350700	0.798400	0.927900
O61	O6	0.495300	0.730700	0.721600
O71	O7	0.208900	0.666200	0.665900
O81	O8	0.685200	0.639300	0.879100
O91	O9	0.491100	0.530200	0.912700
O101	O10	0.113800	0.584400	0.987700
O111	O11	0.136800	0.335900	0.783000
O121	O12	0.977800	0.459400	0.812800
O131	O13	0.948300	0.244200	0.625400
O141	O14	0.649300	0.298400	0.572100
O151	O15	0.504700	0.230700	0.778400
O161	O16	0.791100	0.166200	0.834100
O171	O17	0.314800	0.139300	0.620900
O181	O18	0.508900	0.030200	0.587300
O191	O19	0.113800	0.915600	0.487700
O201	O20	0.136800	0.164100	0.283000
O211	O21	0.977800	0.040600	0.312800
O221	O22	0.948300	0.255800	0.125400
O231	O23	0.649300	0.201600	0.072100
O241	O24	0.504700	0.269300	0.278400
O251	O25	0.791100	0.333800	0.334100
O261	O26	0.314800	0.360700	0.120900
O271	O27	0.508900	0.469800	0.087300
O281	O28	0.886200	0.415600	0.012300
O291	O29	0.863200	0.664100	0.217000
O301	O30	0.022200	0.540600	0.187200
O311	O31	0.051700	0.755800	0.374600
O321	O32	0.350700	0.701600	0.427900
O331	O33	0.495300	0.769300	0.221600
O341	O34	0.208900	0.833800	0.165900
O351	O35	0.685200	0.860700	0.379100
O361	O36	0.491100	0.969800	0.412700
