data_FOHRUR_clean_PM
_symmetry_space_group_name_H-M	'P1'
_cell_length_a	10.125000
_cell_length_b	10.766400
_cell_length_c	13.292800
_cell_angle_alpha	86.521000
_cell_angle_beta	73.151000
_cell_angle_gamma	85.317000
_symmetry_Int_Tables_number 1

loop_
_symmetry_equiv_pos_as_xyz
'x,y,z'

loop_
_atom_site_label
_atom_site_type_symbol
_atom_site_fract_x
_atom_site_fract_y
_atom_site_fract_z
Mn11	Mn1	0.861590	0.591200	0.307860
C11	C1	0.120500	0.250100	0.072300
C21	C2	0.199900	0.226000	0.152200
C31	C3	0.253800	0.321900	0.190800
H11	H1	0.234900	0.404600	0.172200
C41	C4	0.335700	0.292200	0.256800
H21	H2	0.371800	0.356100	0.282400
C51	C5	0.365300	0.170500	0.285700
H31	H3	0.422800	0.152700	0.328800
C61	C6	0.308900	0.074500	0.250100
C71	C7	0.225400	0.104300	0.184300
H41	H4	0.185800	0.040700	0.161200
C81	C8	0.333900	0.940200	0.277700
C91	C9	0.462200	0.886900	0.282400
H51	H5	0.536000	0.936900	0.272600
C101	C10	0.480100	0.758200	0.302100
C111	C11	0.620500	0.699800	0.299700
C121	C12	0.370100	0.682900	0.319000
H61	H6	0.382400	0.597600	0.332500
C131	C13	0.241500	0.736000	0.315700
C141	C14	0.119900	0.657600	0.329900
C151	C15	0.225300	0.861900	0.294000
H71	H7	0.139500	0.896000	0.290000
C161	C16	0.827800	0.304700	0.268600
H81	H8	0.785600	0.326800	0.216000
C171	C17	0.851800	0.188500	0.302000
H91	H9	0.830800	0.115800	0.277200
C181	C18	0.926800	0.317900	0.389200
H101	H10	0.967400	0.349100	0.436000
C191	C19	0.574400	0.154900	0.033800
H111	H11	0.480900	0.145100	0.044200
C201	C20	0.672600	0.064400	0.038000
H121	H12	0.657100	0.980500	0.052800
C211	C21	0.774400	0.234600	0.001200
H131	H13	0.841800	0.292200	0.985200
C221	C22	0.571500	0.386000	0.003600
C231	C23	0.471200	0.398700	0.951100
H141	H14	0.451900	0.331000	0.918800
C241	C24	0.600900	0.485000	0.052700
H151	H15	0.668100	0.474800	0.088200
C251	C25	0.958700	0.096000	0.441100
C261	C26	0.893800	0.984900	0.456400
H161	H16	0.822700	0.975500	0.426800
C271	C27	0.064500	0.111520	0.484190
H171	H17	0.107400	0.186300	0.473300
N11	N1	0.874430	0.387200	0.323180
N21	N2	0.913990	0.197070	0.380360
N31	N3	0.799520	0.113850	0.017110
N41	N4	0.639300	0.264390	0.011110
O11	O1	0.095330	0.361480	0.045750
O21	O2	0.087500	0.157680	0.034820
O31	O3	0.721580	0.766000	0.282490
O41	O4	0.636600	0.584490	0.313500
O51	O5	0.115900	0.552690	0.374490
O61	O6	0.023400	0.707100	0.293010
Mn21	Mn2	0.138410	0.408800	0.692140
C281	C28	0.879500	0.749900	0.927700
C291	C29	0.800100	0.774000	0.847800
C301	C30	0.746200	0.678100	0.809200
H181	H18	0.765100	0.595400	0.827800
C311	C31	0.664300	0.707800	0.743200
H191	H19	0.628200	0.643900	0.717600
C321	C32	0.634700	0.829500	0.714300
H201	H20	0.577200	0.847300	0.671200
C331	C33	0.691100	0.925500	0.749900
C341	C34	0.774600	0.895700	0.815700
H211	H21	0.814200	0.959300	0.838800
C351	C35	0.666100	0.059800	0.722300
C361	C36	0.537800	0.113100	0.717600
H221	H22	0.464000	0.063100	0.727400
C371	C37	0.519900	0.241800	0.697900
C381	C38	0.379500	0.300200	0.700300
C391	C39	0.629900	0.317100	0.681000
H231	H23	0.617600	0.402400	0.667500
C401	C40	0.758500	0.264000	0.684300
C411	C41	0.880100	0.342400	0.670100
C421	C42	0.774700	0.138100	0.706000
H241	H24	0.860500	0.104000	0.710000
C431	C43	0.172200	0.695300	0.731400
H251	H25	0.214400	0.673200	0.784000
C441	C44	0.148200	0.811500	0.698000
H261	H26	0.169200	0.884200	0.722800
C451	C45	0.073200	0.682100	0.610800
H271	H27	0.032600	0.650900	0.564000
C461	C46	0.425600	0.845100	0.966200
H281	H28	0.519100	0.854900	0.955800
C471	C47	0.327400	0.935600	0.962000
H291	H29	0.342900	0.019500	0.947200
C481	C48	0.225600	0.765400	0.998800
H301	H30	0.158200	0.707800	0.014800
C491	C49	0.428500	0.614000	0.996400
C501	C50	0.528800	0.601300	0.048900
H311	H31	0.548100	0.669000	0.081200
C511	C51	0.399100	0.515000	0.947300
H321	H32	0.331900	0.525200	0.911800
C521	C52	0.041300	0.904000	0.558900
C531	C53	0.106200	0.015100	0.543600
H331	H33	0.177300	0.024500	0.573200
C541	C54	0.935500	0.888480	0.515810
H341	H34	0.892600	0.813700	0.526700
N51	N5	0.125570	0.612800	0.676820
N61	N6	0.086010	0.802930	0.619640
N71	N7	0.200480	0.886150	0.982890
N81	N8	0.360700	0.735610	0.988890
O71	O7	0.904670	0.638520	0.954250
O81	O8	0.912500	0.842320	0.965180
O91	O9	0.278420	0.234000	0.717510
O101	O10	0.363400	0.415510	0.686500
O111	O11	0.884100	0.447310	0.625510
O121	O12	0.976600	0.292900	0.706990
Mn31	Mn3	0.000000	0.000000	0.000000
