data_FOJVUX_clean_PM
_symmetry_space_group_name_H-M	'P1'
_cell_length_a	7.603300
_cell_length_b	9.352000
_cell_length_c	15.193000
_cell_angle_alpha	89.330000
_cell_angle_beta	80.570000
_cell_angle_gamma	85.897000
_symmetry_Int_Tables_number 1

loop_
_symmetry_equiv_pos_as_xyz
'x,y,z'

loop_
_atom_site_label
_atom_site_type_symbol
_atom_site_fract_x
_atom_site_fract_y
_atom_site_fract_z
Zn11	Zn1	0.105460	0.379830	0.236700
O11	O1	0.255500	0.137700	0.213600
O21	O2	0.256800	0.314500	0.118600
O31	O3	0.260600	0.454200	0.312600
O41	O4	0.143100	0.320000	0.422200
N11	N1	0.003000	0.561700	0.182700
N21	N2	0.847400	0.630600	0.228700
N31	N3	0.956200	0.763700	0.114800
N41	N4	0.877300	0.285900	0.282900
N51	N5	0.736500	0.284100	0.235600
N61	N6	0.675500	0.162700	0.360400
C11	C1	0.980000	0.883100	0.054800
C21	C2	0.058900	0.864900	0.968200
H11	H1	0.099000	0.773700	0.946600
C31	C3	0.920800	0.017400	0.087500
H21	H2	0.867300	0.029100	0.146800
C41	C4	0.063100	0.643500	0.116800
H31	H3	0.166800	0.621700	0.076200
C51	C5	0.824000	0.749200	0.185500
H41	H4	0.727900	0.816400	0.201100
C61	C6	0.583100	0.079700	0.433000
C71	C7	0.489200	0.968400	0.411700
H51	H5	0.482500	0.947900	0.352600
C81	C8	0.595900	0.112800	0.518400
H61	H6	0.660700	0.188900	0.530200
C91	C9	0.836100	0.213700	0.357200
H71	H7	0.907800	0.200200	0.401100
C101	C10	0.618400	0.207500	0.283900
H81	H8	0.510200	0.186600	0.267800
C111	C11	0.403500	0.090900	0.065600
C121	C12	0.460900	0.141700	0.981500
H91	H9	0.435200	0.237400	0.968100
C131	C13	0.556900	0.051500	0.916300
H101	H10	0.595000	0.087500	0.859500
C141	C14	0.297600	0.189000	0.137800
C151	C15	0.378700	0.457600	0.447900
C161	C16	0.342500	0.444200	0.539000
H111	H11	0.236500	0.407000	0.565800
C171	C17	0.463100	0.485700	0.591400
H121	H12	0.438000	0.475700	0.653000
C181	C18	0.248600	0.406200	0.392200
Zn21	Zn2	0.894540	0.620170	0.763300
O51	O5	0.744500	0.862300	0.786400
O61	O6	0.743200	0.685500	0.881400
O71	O7	0.739400	0.545800	0.687400
O81	O8	0.856900	0.680000	0.577800
N71	N7	0.997000	0.438300	0.817300
N81	N8	0.152600	0.369400	0.771300
N91	N9	0.043800	0.236300	0.885200
N101	N10	0.122700	0.714100	0.717100
N111	N11	0.263500	0.715900	0.764400
N121	N12	0.324500	0.837300	0.639600
C191	C19	0.020000	0.116900	0.945200
C201	C20	0.941100	0.135100	0.031800
H131	H13	0.901000	0.226300	0.053400
C211	C21	0.079200	0.982600	0.912500
H141	H14	0.132700	0.970900	0.853200
C221	C22	0.936900	0.356500	0.883200
H151	H15	0.833200	0.378300	0.923800
C231	C23	0.176000	0.250800	0.814500
H161	H16	0.272100	0.183600	0.798900
C241	C24	0.416900	0.920300	0.567000
C251	C25	0.510800	0.031600	0.588300
H171	H17	0.517500	0.052100	0.647400
C261	C26	0.404100	0.887200	0.481600
H181	H18	0.339300	0.811100	0.469800
C271	C27	0.163900	0.786300	0.642800
H191	H19	0.092200	0.799800	0.598900
C281	C28	0.381600	0.792500	0.716100
H201	H20	0.489800	0.813400	0.732200
C291	C29	0.596500	0.909100	0.934400
C301	C30	0.539100	0.858300	0.018500
H211	H21	0.564800	0.762600	0.031900
C311	C31	0.443100	0.948500	0.083700
H221	H22	0.405000	0.912500	0.140500
C321	C32	0.702400	0.811000	0.862200
C331	C33	0.621300	0.542400	0.552100
C341	C34	0.657500	0.555800	0.461000
H231	H23	0.763500	0.593000	0.434200
C351	C35	0.536900	0.514300	0.408600
H241	H24	0.562000	0.524300	0.347000
C361	C36	0.751400	0.593800	0.607800
