data_FOKGET_clean_PM
_symmetry_space_group_name_H-M	'P1'
_cell_length_a	11.488400
_cell_length_b	13.651300
_cell_length_c	12.799100
_cell_angle_alpha	90.000000
_cell_angle_beta	100.920000
_cell_angle_gamma	90.000000
_symmetry_Int_Tables_number 1

loop_
_symmetry_equiv_pos_as_xyz
'x,y,z'

loop_
_atom_site_label
_atom_site_type_symbol
_atom_site_fract_x
_atom_site_fract_y
_atom_site_fract_z
C11	C1	0.967400	0.994700	0.697500
C21	C2	0.160200	0.920800	0.661100
C31	C3	0.215600	0.095700	0.597200
C41	C4	0.026200	0.165100	0.639100
C51	C5	0.150100	0.965400	0.869000
C61	C6	0.322300	0.027200	0.782400
C71	C7	0.225500	0.197800	0.792500
C81	C8	0.031400	0.127600	0.838600
C91	C9	0.467100	0.952400	0.501500
Co11	Co1	0.698250	0.915620	0.622310
Co21	Co2	0.842650	0.215340	0.966390
N11	N1	0.873600	0.964900	0.678800
N21	N2	0.171100	0.850100	0.621000
N31	N3	0.254200	0.112200	0.526800
N41	N4	0.968500	0.217000	0.582400
N51	N5	0.156500	0.912500	0.942300
N61	N6	0.423500	0.008600	0.800300
N71	N7	0.266300	0.272700	0.822300
N81	N8	0.974000	0.160700	0.892100
O11	O1	0.365900	0.946100	0.444700
O21	O2	0.518300	0.884300	0.557600
W11	W1	0.139320	0.061660	0.735810
C101	C10	0.032600	0.494700	0.802500
C111	C11	0.839800	0.420800	0.838900
C121	C12	0.784400	0.595700	0.902800
C131	C13	0.973800	0.665100	0.860900
C141	C14	0.849900	0.465400	0.631000
C151	C15	0.677700	0.527200	0.717600
C161	C16	0.774500	0.697800	0.707500
C171	C17	0.968600	0.627600	0.661400
C181	C18	0.532900	0.452400	0.998500
Co31	Co3	0.301750	0.415620	0.877690
Co41	Co4	0.157350	0.715340	0.533610
N91	N9	0.126400	0.464900	0.821200
N101	N10	0.828900	0.350100	0.879000
N111	N11	0.745800	0.612200	0.973200
N121	N12	0.031500	0.717000	0.917600
N131	N13	0.843500	0.412500	0.557700
N141	N14	0.576500	0.508600	0.699700
N151	N15	0.733700	0.772700	0.677700
N161	N16	0.026000	0.660700	0.607900
O31	O3	0.634100	0.446100	0.055300
O41	O4	0.481700	0.384300	0.942400
W21	W2	0.860680	0.561660	0.764190
C191	C19	0.032600	0.005300	0.302500
C201	C20	0.839800	0.079200	0.338900
C211	C21	0.784400	0.904300	0.402800
C221	C22	0.973800	0.834900	0.360900
C231	C23	0.849900	0.034600	0.131000
C241	C24	0.677700	0.972800	0.217600
C251	C25	0.774500	0.802200	0.207500
C261	C26	0.968600	0.872400	0.161400
C271	C27	0.532900	0.047600	0.498500
Co51	Co5	0.301750	0.084380	0.377690
Co61	Co6	0.157350	0.784660	0.033610
N171	N17	0.126400	0.035100	0.321200
N181	N18	0.828900	0.149900	0.379000
N191	N19	0.745800	0.887800	0.473200
N201	N20	0.031500	0.783000	0.417600
N211	N21	0.843500	0.087500	0.057700
N221	N22	0.576500	0.991400	0.199700
N231	N23	0.733700	0.727300	0.177700
N241	N24	0.026000	0.839300	0.107900
O51	O5	0.634100	0.053900	0.555300
O61	O6	0.481700	0.115700	0.442400
W31	W3	0.860680	0.938340	0.264190
C281	C28	0.967400	0.505300	0.197500
C291	C29	0.160200	0.579200	0.161100
C301	C30	0.215600	0.404300	0.097200
C311	C31	0.026200	0.334900	0.139100
C321	C32	0.150100	0.534600	0.369000
C331	C33	0.322300	0.472800	0.282400
C341	C34	0.225500	0.302200	0.292500
C351	C35	0.031400	0.372400	0.338600
C361	C36	0.467100	0.547600	0.001500
Co71	Co7	0.698250	0.584380	0.122310
Co81	Co8	0.842650	0.284660	0.466390
N251	N25	0.873600	0.535100	0.178800
N261	N26	0.171100	0.649900	0.121000
N271	N27	0.254200	0.387800	0.026800
N281	N28	0.968500	0.283000	0.082400
N291	N29	0.156500	0.587500	0.442300
N301	N30	0.423500	0.491400	0.300300
N311	N31	0.266300	0.227300	0.322300
N321	N32	0.974000	0.339300	0.392100
O71	O7	0.365900	0.553900	0.944700
O81	O8	0.518300	0.615700	0.057600
W41	W4	0.139320	0.438340	0.235810
