data_FOKYUB_clean_PM
_symmetry_space_group_name_H-M	'P1'
_cell_length_a	14.833000
_cell_length_b	8.476600
_cell_length_c	17.326000
_cell_angle_alpha	90.000000
_cell_angle_beta	108.460000
_cell_angle_gamma	90.000000
_symmetry_Int_Tables_number 1

loop_
_symmetry_equiv_pos_as_xyz
'x,y,z'

loop_
_atom_site_label
_atom_site_type_symbol
_atom_site_fract_x
_atom_site_fract_y
_atom_site_fract_z
C11	C1	0.508600	0.148900	0.677700
C21	C2	0.490800	0.456500	0.689900
C31	C3	0.634900	0.429800	0.816200
C41	C4	0.635200	0.130400	0.811100
C51	C5	0.360300	0.267900	0.721100
C61	C6	0.450100	0.476500	0.828500
C71	C7	0.558400	0.271100	0.914400
C81	C8	0.459500	0.061500	0.816700
Mn11	Mn1	0.138010	0.291840	0.608820
Mo11	Mo1	0.511530	0.280880	0.783890
N11	N1	0.508000	0.074600	0.621500
N21	N2	0.480100	0.558600	0.642100
N31	N3	0.703300	0.505900	0.836900
N41	N4	0.699500	0.048900	0.821900
N51	N5	0.281600	0.261900	0.687400
N61	N6	0.416000	0.581400	0.850200
N71	N7	0.583400	0.266100	0.983900
N81	N8	0.434200	0.947700	0.835900
C91	C9	0.991400	0.648900	0.822300
C101	C10	0.009200	0.956500	0.810100
C111	C11	0.865100	0.929800	0.683800
C121	C12	0.864800	0.630400	0.688900
C131	C13	0.139700	0.767900	0.778900
C141	C14	0.049900	0.976500	0.671500
C151	C15	0.941600	0.771100	0.585600
C161	C16	0.040500	0.561500	0.683300
Mn21	Mn2	0.361990	0.791840	0.891180
Mo21	Mo2	0.988470	0.780880	0.716110
N91	N9	0.992000	0.574600	0.878500
N101	N10	0.019900	0.058600	0.857900
N111	N11	0.796700	0.005900	0.663100
N121	N12	0.800500	0.548900	0.678100
N131	N13	0.218400	0.761900	0.812600
N141	N14	0.084000	0.081400	0.649800
N151	N15	0.916600	0.766100	0.516100
N161	N16	0.065800	0.447700	0.664100
C171	C17	0.491400	0.851100	0.322300
C181	C18	0.509200	0.543500	0.310100
C191	C19	0.365100	0.570200	0.183800
C201	C20	0.364800	0.869600	0.188900
C211	C21	0.639700	0.732100	0.278900
C221	C22	0.549900	0.523500	0.171500
C231	C23	0.441600	0.728900	0.085600
C241	C24	0.540500	0.938500	0.183300
Mn31	Mn3	0.861990	0.708160	0.391180
Mo31	Mo3	0.488470	0.719120	0.216110
N171	N17	0.492000	0.925400	0.378500
N181	N18	0.519900	0.441400	0.357900
N191	N19	0.296700	0.494100	0.163100
N201	N20	0.300500	0.951100	0.178100
N211	N21	0.718400	0.738100	0.312600
N221	N22	0.584000	0.418600	0.149800
N231	N23	0.416600	0.733900	0.016100
N241	N24	0.565800	0.052300	0.164100
C251	C25	0.008600	0.351100	0.177700
C261	C26	0.990800	0.043500	0.189900
C271	C27	0.134900	0.070200	0.316200
C281	C28	0.135200	0.369600	0.311100
C291	C29	0.860300	0.232100	0.221100
C301	C30	0.950100	0.023500	0.328500
C311	C31	0.058400	0.228900	0.414400
C321	C32	0.959500	0.438500	0.316700
Mn41	Mn4	0.638010	0.208160	0.108820
Mo41	Mo4	0.011530	0.219120	0.283890
N251	N25	0.008000	0.425400	0.121500
N261	N26	0.980100	0.941400	0.142100
N271	N27	0.203300	0.994100	0.336900
N281	N28	0.199500	0.451100	0.321900
N291	N29	0.781600	0.238100	0.187400
N301	N30	0.916000	0.918600	0.350200
N311	N31	0.083400	0.233900	0.483900
N321	N32	0.934200	0.552300	0.335900
Mn51	Mn5	0.500000	0.000000	0.500000
Mn61	Mn6	0.000000	0.500000	0.000000
