data_FOKYIP_clean_PM
_symmetry_space_group_name_H-M	'P1'
_cell_length_a	24.871800
_cell_length_b	13.759100
_cell_length_c	13.683200
_cell_angle_alpha	90.000000
_cell_angle_beta	98.949000
_cell_angle_gamma	90.000000
_symmetry_Int_Tables_number 1

loop_
_symmetry_equiv_pos_as_xyz
'x,y,z'

loop_
_atom_site_label
_atom_site_type_symbol
_atom_site_fract_x
_atom_site_fract_y
_atom_site_fract_z
Nd11	Nd1	0.169930	0.215980	0.461140
C11	C1	0.074450	0.281710	0.537940
C21	C2	0.023390	0.313250	0.575450
C31	C3	0.984910	0.244100	0.592800
H11	H1	0.992100	0.178000	0.588000
C41	C4	0.935790	0.275600	0.617400
H21	H2	0.909900	0.229600	0.627900
C51	C5	0.923890	0.373430	0.626960
C61	C6	0.962970	0.441100	0.611230
H31	H3	0.956200	0.507200	0.616900
C71	C7	0.012100	0.409520	0.587020
H41	H4	0.038400	0.455400	0.578300
C81	C8	0.868720	0.400760	0.648940
C91	C9	0.846730	0.346460	0.719050
H51	H5	0.867800	0.299100	0.755300
C101	C10	0.793150	0.362620	0.735410
C111	C11	0.762120	0.432270	0.678910
H61	H6	0.725700	0.440200	0.685200
C121	C12	0.784930	0.490130	0.613140
C131	C13	0.838830	0.475310	0.599980
H71	H7	0.854600	0.515900	0.558100
C141	C14	0.771480	0.305860	0.815140
C151	C15	0.750450	0.567960	0.559190
O11	O1	0.106470	0.344690	0.515800
O21	O2	0.083200	0.191700	0.528010
O31	O3	0.772210	0.642880	0.529020
O41	O4	0.699430	0.557460	0.544560
O51	O5	0.722770	0.325740	0.827680
O61	O6	0.801510	0.246270	0.861590
Nd21	Nd2	0.669930	0.715980	0.461140
C161	C16	0.574450	0.781710	0.537940
C171	C17	0.523390	0.813250	0.575450
C181	C18	0.484910	0.744100	0.592800
H81	H8	0.492100	0.678000	0.588000
C191	C19	0.435790	0.775600	0.617400
H91	H9	0.409900	0.729600	0.627900
C201	C20	0.423890	0.873430	0.626960
C211	C21	0.462970	0.941100	0.611230
H101	H10	0.456200	0.007200	0.616900
C221	C22	0.512100	0.909520	0.587020
H111	H11	0.538400	0.955400	0.578300
C231	C23	0.368720	0.900760	0.648940
C241	C24	0.346730	0.846460	0.719050
H121	H12	0.367800	0.799100	0.755300
C251	C25	0.293150	0.862620	0.735410
C261	C26	0.262120	0.932270	0.678910
H131	H13	0.225700	0.940200	0.685200
C271	C27	0.284930	0.990130	0.613140
C281	C28	0.338830	0.975310	0.599980
H141	H14	0.354600	0.015900	0.558100
C291	C29	0.271480	0.805860	0.815140
C301	C30	0.250450	0.067960	0.559190
O71	O7	0.606470	0.844690	0.515800
O81	O8	0.583200	0.691700	0.528010
O91	O9	0.272210	0.142880	0.529020
O101	O10	0.199430	0.057460	0.544560
O111	O11	0.222770	0.825740	0.827680
O121	O12	0.301510	0.746270	0.861590
Nd31	Nd3	0.830070	0.215980	0.038860
C311	C31	0.925550	0.281710	0.962060
C321	C32	0.976610	0.313250	0.924550
C331	C33	0.015090	0.244100	0.907200
H151	H15	0.007900	0.178000	0.912000
C341	C34	0.064210	0.275600	0.882600
H161	H16	0.090100	0.229600	0.872100
C351	C35	0.076110	0.373430	0.873040
C361	C36	0.037030	0.441100	0.888770
H171	H17	0.043800	0.507200	0.883100
C371	C37	0.987900	0.409520	0.912980
H181	H18	0.961600	0.455400	0.921700
C381	C38	0.131280	0.400760	0.851060
C391	C39	0.153270	0.346460	0.780950
H191	H19	0.132200	0.299100	0.744700
C401	C40	0.206850	0.362620	0.764590
C411	C41	0.237880	0.432270	0.821090
H201	H20	0.274300	0.440200	0.814800
C421	C42	0.215070	0.490130	0.886860
C431	C43	0.161170	0.475310	0.900020
H211	H21	0.145400	0.515900	0.941900
C441	C44	0.228520	0.305860	0.684860
C451	C45	0.249550	0.567960	0.940810
O131	O13	0.893530	0.344690	0.984200
O141	O14	0.916800	0.191700	0.971990
O151	O15	0.227790	0.642880	0.970980
O161	O16	0.300570	0.557460	0.955440
O171	O17	0.277230	0.325740	0.672320
O181	O18	0.198490	0.246270	0.638410
Nd41	Nd4	0.330070	0.715980	0.038860
C461	C46	0.425550	0.781710	0.962060
C471	C47	0.476610	0.813250	0.924550
C481	C48	0.515090	0.744100	0.907200
H221	H22	0.507900	0.678000	0.912000
C491	C49	0.564210	0.775600	0.882600
H231	H23	0.590100	0.729600	0.872100
C501	C50	0.576110	0.873430	0.873040
C511	C51	0.537030	0.941100	0.888770
H241	H24	0.543800	0.007200	0.883100
C521	C52	0.487900	0.909520	0.912980
H251	H25	0.461600	0.955400	0.921700
C531	C53	0.631280	0.900760	0.851060
C541	C54	0.653270	0.846460	0.780950
H261	H26	0.632200	0.799100	0.744700
C551	C55	0.706850	0.862620	0.764590
C561	C56	0.737880	0.932270	0.821090
H271	H27	0.774300	0.940200	0.814800
C571	C57	0.715070	0.990130	0.886860
C581	C58	0.661170	0.975310	0.900020
H281	H28	0.645400	0.015900	0.941900
C591	C59	0.728520	0.805860	0.684860
C601	C60	0.749550	0.067960	0.940810
O191	O19	0.393530	0.844690	0.984200
O201	O20	0.416800	0.691700	0.971990
O211	O21	0.727790	0.142880	0.970980
O221	O22	0.800570	0.057460	0.955440
O231	O23	0.777230	0.825740	0.672320
O241	O24	0.698490	0.746270	0.638410
Nd51	Nd5	0.830070	0.784020	0.538860
C611	C61	0.925550	0.718290	0.462060
C621	C62	0.976610	0.686750	0.424550
C631	C63	0.015090	0.755900	0.407200
H291	H29	0.007900	0.822000	0.412000
C641	C64	0.064210	0.724400	0.382600
H301	H30	0.090100	0.770400	0.372100
C651	C65	0.076110	0.626570	0.373040
C661	C66	0.037030	0.558900	0.388770
H311	H31	0.043800	0.492800	0.383100
C671	C67	0.987900	0.590480	0.412980
H321	H32	0.961600	0.544600	0.421700
C681	C68	0.131280	0.599240	0.351060
C691	C69	0.153270	0.653540	0.280950
H331	H33	0.132200	0.700900	0.244700
C701	C70	0.206850	0.637380	0.264590
C711	C71	0.237880	0.567730	0.321090
H341	H34	0.274300	0.559800	0.314800
C721	C72	0.215070	0.509870	0.386860
C731	C73	0.161170	0.524690	0.400020
H351	H35	0.145400	0.484100	0.441900
C741	C74	0.228520	0.694140	0.184860
C751	C75	0.249550	0.432040	0.440810
O251	O25	0.893530	0.655310	0.484200
O261	O26	0.916800	0.808300	0.471990
O271	O27	0.227790	0.357120	0.470980
O281	O28	0.300570	0.442540	0.455440
O291	O29	0.277230	0.674260	0.172320
O301	O30	0.198490	0.753730	0.138410
Nd61	Nd6	0.330070	0.284020	0.538860
C761	C76	0.425550	0.218290	0.462060
C771	C77	0.476610	0.186750	0.424550
C781	C78	0.515090	0.255900	0.407200
H361	H36	0.507900	0.322000	0.412000
C791	C79	0.564210	0.224400	0.382600
H371	H37	0.590100	0.270400	0.372100
C801	C80	0.576110	0.126570	0.373040
C811	C81	0.537030	0.058900	0.388770
H381	H38	0.543800	0.992800	0.383100
C821	C82	0.487900	0.090480	0.412980
H391	H39	0.461600	0.044600	0.421700
C831	C83	0.631280	0.099240	0.351060
C841	C84	0.653270	0.153540	0.280950
H401	H40	0.632200	0.200900	0.244700
C851	C85	0.706850	0.137380	0.264590
C861	C86	0.737880	0.067730	0.321090
H411	H41	0.774300	0.059800	0.314800
C871	C87	0.715070	0.009870	0.386860
C881	C88	0.661170	0.024690	0.400020
H421	H42	0.645400	0.984100	0.441900
C891	C89	0.728520	0.194140	0.184860
C901	C90	0.749550	0.932040	0.440810
O311	O31	0.393530	0.155310	0.484200
O321	O32	0.416800	0.308300	0.471990
O331	O33	0.727790	0.857120	0.470980
O341	O34	0.800570	0.942540	0.455440
O351	O35	0.777230	0.174260	0.172320
O361	O36	0.698490	0.253730	0.138410
Nd71	Nd7	0.169930	0.784020	0.961140
C911	C91	0.074450	0.718290	0.037940
C921	C92	0.023390	0.686750	0.075450
C931	C93	0.984910	0.755900	0.092800
H431	H43	0.992100	0.822000	0.088000
C941	C94	0.935790	0.724400	0.117400
H441	H44	0.909900	0.770400	0.127900
C951	C95	0.923890	0.626570	0.126960
C961	C96	0.962970	0.558900	0.111230
H451	H45	0.956200	0.492800	0.116900
C971	C97	0.012100	0.590480	0.087020
H461	H46	0.038400	0.544600	0.078300
C981	C98	0.868720	0.599240	0.148940
C991	C99	0.846730	0.653540	0.219050
H471	H47	0.867800	0.700900	0.255300
C1001	C100	0.793150	0.637380	0.235410
C1011	C101	0.762120	0.567730	0.178910
H481	H48	0.725700	0.559800	0.185200
C1021	C102	0.784930	0.509870	0.113140
C1031	C103	0.838830	0.524690	0.099980
H491	H49	0.854600	0.484100	0.058100
C1041	C104	0.771480	0.694140	0.315140
C1051	C105	0.750450	0.432040	0.059190
O371	O37	0.106470	0.655310	0.015800
O381	O38	0.083200	0.808300	0.028010
O391	O39	0.772210	0.357120	0.029020
O401	O40	0.699430	0.442540	0.044560
O411	O41	0.722770	0.674260	0.327680
O421	O42	0.801510	0.753730	0.361590
Nd81	Nd8	0.669930	0.284020	0.961140
C1061	C106	0.574450	0.218290	0.037940
C1071	C107	0.523390	0.186750	0.075450
C1081	C108	0.484910	0.255900	0.092800
H501	H50	0.492100	0.322000	0.088000
C1091	C109	0.435790	0.224400	0.117400
H511	H51	0.409900	0.270400	0.127900
C1101	C110	0.423890	0.126570	0.126960
C1111	C111	0.462970	0.058900	0.111230
H521	H52	0.456200	0.992800	0.116900
C1121	C112	0.512100	0.090480	0.087020
H531	H53	0.538400	0.044600	0.078300
C1131	C113	0.368720	0.099240	0.148940
C1141	C114	0.346730	0.153540	0.219050
H541	H54	0.367800	0.200900	0.255300
C1151	C115	0.293150	0.137380	0.235410
C1161	C116	0.262120	0.067730	0.178910
H551	H55	0.225700	0.059800	0.185200
C1171	C117	0.284930	0.009870	0.113140
C1181	C118	0.338830	0.024690	0.099980
H561	H56	0.354600	0.984100	0.058100
C1191	C119	0.271480	0.194140	0.315140
C1201	C120	0.250450	0.932040	0.059190
O431	O43	0.606470	0.155310	0.015800
O441	O44	0.583200	0.308300	0.028010
O451	O45	0.272210	0.857120	0.029020
O461	O46	0.199430	0.942540	0.044560
O471	O47	0.222770	0.174260	0.327680
O481	O48	0.301510	0.253730	0.361590
