data_FOKZIQ_clean_PM
_symmetry_space_group_name_H-M	'P1'
_cell_length_a	7.892700
_cell_length_b	10.326000
_cell_length_c	12.799000
_cell_angle_alpha	111.008000
_cell_angle_beta	95.351000
_cell_angle_gamma	106.177000
_symmetry_Int_Tables_number 1

loop_
_symmetry_equiv_pos_as_xyz
'x,y,z'

loop_
_atom_site_label
_atom_site_type_symbol
_atom_site_fract_x
_atom_site_fract_y
_atom_site_fract_z
Cd11	Cd1	0.317590	0.577970	0.449170
Cd21	Cd2	0.612050	0.710780	0.026240
O11	O1	0.502700	0.555290	0.119400
O21	O2	0.173200	0.340550	0.380650
O31	O3	0.053300	0.622370	0.366840
O41	O4	0.295800	0.808000	0.477570
O51	O5	0.695700	0.967110	0.067760
N11	N1	0.639400	0.866340	0.237340
O61	O6	0.385600	0.531600	0.265700
C11	C1	0.825900	0.915100	0.294950
C21	C2	0.122000	0.103300	0.378360
C31	C3	0.942600	0.058600	0.323320
H11	H1	0.899400	0.124600	0.305000
C41	C4	0.239900	0.260600	0.412250
C51	C5	0.894100	0.817900	0.323060
H21	H2	0.819000	0.721900	0.303900
C61	C6	0.144600	0.759100	0.411300
O71	O7	0.393100	0.302100	0.472200
O81	O8	0.654200	0.177070	0.168790
C71	C7	0.073600	0.863300	0.379530
C81	C8	0.188900	0.006200	0.407060
H31	H3	0.308900	0.036200	0.444100
C91	C9	0.515600	0.772400	0.281180
C101	C10	0.575500	0.986300	0.234480
H41	H4	0.611800	0.065000	0.310500
H51	H5	0.444600	0.949900	0.213500
C111	C11	0.467600	0.607800	0.216660
C121	C12	0.649100	0.047700	0.150410
H61	H6	0.557000	0.795000	0.356000
H71	H7	0.398000	0.780000	0.271000
Cd31	Cd3	0.682410	0.422030	0.550830
Cd41	Cd4	0.387950	0.289220	0.973760
O91	O9	0.497300	0.444710	0.880600
O101	O10	0.826800	0.659450	0.619350
O111	O11	0.946700	0.377630	0.633160
O121	O12	0.704200	0.192000	0.522430
O131	O13	0.304300	0.032890	0.932240
N21	N2	0.360600	0.133660	0.762660
O141	O14	0.614400	0.468400	0.734300
C131	C13	0.174100	0.084900	0.705050
C141	C14	0.878000	0.896700	0.621640
C151	C15	0.057400	0.941400	0.676680
H81	H8	0.100600	0.875400	0.695000
C161	C16	0.760100	0.739400	0.587750
C171	C17	0.105900	0.182100	0.676940
H91	H9	0.181000	0.278100	0.696100
C181	C18	0.855400	0.240900	0.588700
O151	O15	0.606900	0.697900	0.527800
O161	O16	0.345800	0.822930	0.831210
C191	C19	0.926400	0.136700	0.620470
C201	C20	0.811100	0.993800	0.592940
H101	H10	0.691100	0.963800	0.555900
C211	C21	0.484400	0.227600	0.718820
C221	C22	0.424500	0.013700	0.765520
H111	H11	0.388200	0.935000	0.689500
H121	H12	0.555400	0.050100	0.786500
C231	C23	0.532400	0.392200	0.783340
C241	C24	0.350900	0.952300	0.849590
H131	H13	0.443000	0.205000	0.644000
H141	H14	0.602000	0.220000	0.729000
