data_FOMWOV_clean_PM
_symmetry_space_group_name_H-M	'P1'
_cell_length_a	38.596000
_cell_length_b	15.279000
_cell_length_c	23.600000
_cell_angle_alpha	90.000000
_cell_angle_beta	101.290000
_cell_angle_gamma	90.000000
_symmetry_Int_Tables_number 1

loop_
_symmetry_equiv_pos_as_xyz
'x,y,z'

loop_
_atom_site_label
_atom_site_type_symbol
_atom_site_fract_x
_atom_site_fract_y
_atom_site_fract_z
Zn11	Zn1	0.256030	0.879020	0.371740
Zn21	Zn2	0.186820	0.996160	0.304680
C11	C1	0.204550	0.768100	0.212200
C21	C2	0.225640	0.696700	0.208700
H11	H1	0.246300	0.689100	0.236000
C31	C3	0.216460	0.636200	0.165000
C41	C4	0.186060	0.648500	0.124600
H21	H2	0.179300	0.607800	0.095200
C51	C5	0.165900	0.720300	0.127700
C61	C6	0.174200	0.780000	0.170400
H31	H3	0.159800	0.828400	0.171700
C71	C7	0.213910	0.832800	0.260500
C81	C8	0.238340	0.556500	0.163000
C91	C9	0.137570	0.790900	0.038100
C101	C10	0.106140	0.810200	0.994400
C111	C11	0.108380	0.867600	0.951700
H41	H4	0.129700	0.894700	0.950100
C121	C12	0.077700	0.886000	0.909400
H51	H5	0.079100	0.925100	0.879700
C131	C13	0.046160	0.846300	0.911900
C141	C14	0.015180	0.861100	0.867000
C151	C15	0.980930	0.760900	0.915800
C161	C16	0.012060	0.745000	0.960700
C171	C17	0.010650	0.689100	0.005200
H61	H6	0.989600	0.661400	0.007800
C181	C18	0.041100	0.673600	0.047000
H71	H7	0.039800	0.636300	0.077600
C191	C19	0.072190	0.711200	0.044100
C201	C20	0.103510	0.689500	0.088400
C211	C21	0.074850	0.769400	0.000000
C221	C22	0.043970	0.787800	0.957300
C231	C23	0.956170	0.814500	0.819900
C241	C24	0.958280	0.755700	0.776600
H81	H8	0.977500	0.718100	0.779800
C251	C25	0.931620	0.753200	0.728700
C261	C26	0.903890	0.812300	0.725400
H91	H9	0.885500	0.811000	0.693400
C271	C27	0.903100	0.871800	0.767800
C281	C28	0.929830	0.874000	0.815900
H101	H10	0.929800	0.915200	0.844900
C291	C29	0.933200	0.691100	0.681500
C301	C30	0.873300	0.938500	0.760600
C311	C31	0.167670	0.869600	0.454000
C321	C32	0.134540	0.902500	0.455400
H111	H11	0.124100	0.943800	0.428400
C331	C33	0.117240	0.873000	0.497700
C341	C34	0.132390	0.814300	0.538400
H121	H12	0.120300	0.796000	0.566700
C351	C35	0.165720	0.781700	0.537800
C361	C36	0.183010	0.811300	0.495100
H131	H13	0.205600	0.790800	0.494600
C371	C37	0.186680	0.901400	0.408600
C381	C38	0.183160	0.719500	0.581800
C391	C39	0.054000	0.876300	0.459700
C401	C40	0.019980	0.916800	0.459300
C411	C41	0.991180	0.889700	0.420200
H141	H14	0.993300	0.846600	0.393300
C421	C42	0.042460	0.071000	0.578600
H151	H15	0.062200	0.087800	0.605800
C431	C43	0.045780	0.010600	0.539000
C441	C44	0.081360	0.973600	0.538600
C451	C45	0.016510	0.981200	0.499000
N11	N1	0.134210	0.735500	0.083300
N21	N2	0.984960	0.814300	0.870700
N31	N3	0.082420	0.909200	0.499800
O11	O1	0.241250	0.820700	0.297680
O21	O2	0.192570	0.894700	0.260490
O31	O3	0.223940	0.489900	0.138190
O41	O4	0.270440	0.564000	0.186300
O51	O5	0.959950	0.653800	0.677900
O61	O6	0.904550	0.686400	0.644200
H161	H16	0.906900	0.650900	0.619100
O71	O7	0.847870	0.922100	0.721400
O81	O8	0.875600	0.001800	0.790600
O91	O9	0.103880	0.639200	0.127000
O101	O10	0.165630	0.823100	0.036300
O111	O11	0.015440	0.911900	0.828200
O121	O12	0.952930	0.728300	0.917200
O131	O13	0.216460	0.870200	0.409310
O141	O14	0.172530	0.957300	0.373700
O151	O15	0.214110	0.698500	0.579490
O161	O16	0.167650	0.691300	0.618500
O171	O17	0.107630	0.000300	0.569200
O181	O18	0.057960	0.819900	0.426800
Zn31	Zn3	0.756030	0.379020	0.371740
Zn41	Zn4	0.686820	0.496160	0.304680
C461	C46	0.704550	0.268100	0.212200
C471	C47	0.725640	0.196700	0.208700
H171	H17	0.746300	0.189100	0.236000
C481	C48	0.716460	0.136200	0.165000
C491	C49	0.686060	0.148500	0.124600
H181	H18	0.679300	0.107800	0.095200
C501	C50	0.665900	0.220300	0.127700
C511	C51	0.674200	0.280000	0.170400
H191	H19	0.659800	0.328400	0.171700
C521	C52	0.713910	0.332800	0.260500
C531	C53	0.738340	0.056500	0.163000
C541	C54	0.637570	0.290900	0.038100
C551	C55	0.606140	0.310200	0.994400
C561	C56	0.608380	0.367600	0.951700
H201	H20	0.629700	0.394700	0.950100
C571	C57	0.577700	0.386000	0.909400
H211	H21	0.579100	0.425100	0.879700
C581	C58	0.546160	0.346300	0.911900
C591	C59	0.515180	0.361100	0.867000
C601	C60	0.480930	0.260900	0.915800
C611	C61	0.512060	0.245000	0.960700
C621	C62	0.510650	0.189100	0.005200
H221	H22	0.489600	0.161400	0.007800
C631	C63	0.541100	0.173600	0.047000
H231	H23	0.539800	0.136300	0.077600
C641	C64	0.572190	0.211200	0.044100
C651	C65	0.603510	0.189500	0.088400
C661	C66	0.574850	0.269400	0.000000
C671	C67	0.543970	0.287800	0.957300
C681	C68	0.456170	0.314500	0.819900
C691	C69	0.458280	0.255700	0.776600
H241	H24	0.477500	0.218100	0.779800
C701	C70	0.431620	0.253200	0.728700
C711	C71	0.403890	0.312300	0.725400
H251	H25	0.385500	0.311000	0.693400
C721	C72	0.403100	0.371800	0.767800
C731	C73	0.429830	0.374000	0.815900
H261	H26	0.429800	0.415200	0.844900
C741	C74	0.433200	0.191100	0.681500
C751	C75	0.373300	0.438500	0.760600
C761	C76	0.667670	0.369600	0.454000
C771	C77	0.634540	0.402500	0.455400
H271	H27	0.624100	0.443800	0.428400
C781	C78	0.617240	0.373000	0.497700
C791	C79	0.632390	0.314300	0.538400
H281	H28	0.620300	0.296000	0.566700
C801	C80	0.665720	0.281700	0.537800
C811	C81	0.683010	0.311300	0.495100
H291	H29	0.705600	0.290800	0.494600
C821	C82	0.686680	0.401400	0.408600
C831	C83	0.683160	0.219500	0.581800
C841	C84	0.554000	0.376300	0.459700
C851	C85	0.519980	0.416800	0.459300
C861	C86	0.491180	0.389700	0.420200
H301	H30	0.493300	0.346600	0.393300
C871	C87	0.542460	0.571000	0.578600
H311	H31	0.562200	0.587800	0.605800
C881	C88	0.545780	0.510600	0.539000
C891	C89	0.581360	0.473600	0.538600
C901	C90	0.516510	0.481200	0.499000
N41	N4	0.634210	0.235500	0.083300
N51	N5	0.484960	0.314300	0.870700
N61	N6	0.582420	0.409200	0.499800
O191	O19	0.741250	0.320700	0.297680
O201	O20	0.692570	0.394700	0.260490
O211	O21	0.723940	0.989900	0.138190
O221	O22	0.770440	0.064000	0.186300
O231	O23	0.459950	0.153800	0.677900
O241	O24	0.404550	0.186400	0.644200
H321	H32	0.406900	0.150900	0.619100
O251	O25	0.347870	0.422100	0.721400
O261	O26	0.375600	0.501800	0.790600
O271	O27	0.603880	0.139200	0.127000
O281	O28	0.665630	0.323100	0.036300
O291	O29	0.515440	0.411900	0.828200
O301	O30	0.452930	0.228300	0.917200
O311	O31	0.716460	0.370200	0.409310
O321	O32	0.672530	0.457300	0.373700
O331	O33	0.714110	0.198500	0.579490
O341	O34	0.667650	0.191300	0.618500
O351	O35	0.607630	0.500300	0.569200
O361	O36	0.557960	0.319900	0.426800
Zn51	Zn5	0.743970	0.879020	0.128260
Zn61	Zn6	0.813180	0.996160	0.195320
C911	C91	0.795450	0.768100	0.287800
C921	C92	0.774360	0.696700	0.291300
H331	H33	0.753700	0.689100	0.264000
C931	C93	0.783540	0.636200	0.335000
C941	C94	0.813940	0.648500	0.375400
H341	H34	0.820700	0.607800	0.404800
C951	C95	0.834100	0.720300	0.372300
C961	C96	0.825800	0.780000	0.329600
H351	H35	0.840200	0.828400	0.328300
C971	C97	0.786090	0.832800	0.239500
C981	C98	0.761660	0.556500	0.337000
C991	C99	0.862430	0.790900	0.461900
C1001	C100	0.893860	0.810200	0.505600
C1011	C101	0.891620	0.867600	0.548300
H361	H36	0.870300	0.894700	0.549900
C1021	C102	0.922300	0.886000	0.590600
H371	H37	0.920900	0.925100	0.620300
C1031	C103	0.953840	0.846300	0.588100
C1041	C104	0.984820	0.861100	0.633000
C1051	C105	0.019070	0.760900	0.584200
C1061	C106	0.987940	0.745000	0.539300
C1071	C107	0.989350	0.689100	0.494800
H381	H38	0.010400	0.661400	0.492200
C1081	C108	0.958900	0.673600	0.453000
H391	H39	0.960200	0.636300	0.422400
C1091	C109	0.927810	0.711200	0.455900
C1101	C110	0.896490	0.689500	0.411600
C1111	C111	0.925150	0.769400	0.500000
C1121	C112	0.956030	0.787800	0.542700
C1131	C113	0.043830	0.814500	0.680100
C1141	C114	0.041720	0.755700	0.723400
H401	H40	0.022500	0.718100	0.720200
C1151	C115	0.068380	0.753200	0.771300
C1161	C116	0.096110	0.812300	0.774600
H411	H41	0.114500	0.811000	0.806600
C1171	C117	0.096900	0.871800	0.732200
C1181	C118	0.070170	0.874000	0.684100
H421	H42	0.070200	0.915200	0.655100
C1191	C119	0.066800	0.691100	0.818500
C1201	C120	0.126700	0.938500	0.739400
C1211	C121	0.832330	0.869600	0.046000
C1221	C122	0.865460	0.902500	0.044600
H431	H43	0.875900	0.943800	0.071600
C1231	C123	0.882760	0.873000	0.002300
C1241	C124	0.867610	0.814300	0.961600
H441	H44	0.879700	0.796000	0.933300
C1251	C125	0.834280	0.781700	0.962200
C1261	C126	0.816990	0.811300	0.004900
H451	H45	0.794400	0.790800	0.005400
C1271	C127	0.813320	0.901400	0.091400
C1281	C128	0.816840	0.719500	0.918200
C1291	C129	0.946000	0.876300	0.040300
C1301	C130	0.980020	0.916800	0.040700
C1311	C131	0.008820	0.889700	0.079800
H461	H46	0.006700	0.846600	0.106700
C1321	C132	0.957540	0.071000	0.921400
H471	H47	0.937800	0.087800	0.894200
C1331	C133	0.954220	0.010600	0.961000
C1341	C134	0.918640	0.973600	0.961400
C1351	C135	0.983490	0.981200	0.001000
N71	N7	0.865790	0.735500	0.416700
N81	N8	0.015040	0.814300	0.629300
N91	N9	0.917580	0.909200	0.000200
O371	O37	0.758750	0.820700	0.202320
O381	O38	0.807430	0.894700	0.239510
O391	O39	0.776060	0.489900	0.361810
O401	O40	0.729560	0.564000	0.313700
O411	O41	0.040050	0.653800	0.822100
O421	O42	0.095450	0.686400	0.855800
H481	H48	0.093100	0.650900	0.880900
O431	O43	0.152130	0.922100	0.778600
O441	O44	0.124400	0.001800	0.709400
O451	O45	0.896120	0.639200	0.373000
O461	O46	0.834370	0.823100	0.463700
O471	O47	0.984560	0.911900	0.671800
O481	O48	0.047070	0.728300	0.582800
O491	O49	0.783540	0.870200	0.090690
O501	O50	0.827470	0.957300	0.126300
O511	O51	0.785890	0.698500	0.920510
O521	O52	0.832350	0.691300	0.881500
O531	O53	0.892370	0.000300	0.930800
O541	O54	0.942040	0.819900	0.073200
Zn71	Zn7	0.243970	0.379020	0.128260
Zn81	Zn8	0.313180	0.496160	0.195320
C1361	C136	0.295450	0.268100	0.287800
C1371	C137	0.274360	0.196700	0.291300
H491	H49	0.253700	0.189100	0.264000
C1381	C138	0.283540	0.136200	0.335000
C1391	C139	0.313940	0.148500	0.375400
H501	H50	0.320700	0.107800	0.404800
C1401	C140	0.334100	0.220300	0.372300
C1411	C141	0.325800	0.280000	0.329600
H511	H51	0.340200	0.328400	0.328300
C1421	C142	0.286090	0.332800	0.239500
C1431	C143	0.261660	0.056500	0.337000
C1441	C144	0.362430	0.290900	0.461900
C1451	C145	0.393860	0.310200	0.505600
C1461	C146	0.391620	0.367600	0.548300
H521	H52	0.370300	0.394700	0.549900
C1471	C147	0.422300	0.386000	0.590600
H531	H53	0.420900	0.425100	0.620300
C1481	C148	0.453840	0.346300	0.588100
C1491	C149	0.484820	0.361100	0.633000
C1501	C150	0.519070	0.260900	0.584200
C1511	C151	0.487940	0.245000	0.539300
C1521	C152	0.489350	0.189100	0.494800
H541	H54	0.510400	0.161400	0.492200
C1531	C153	0.458900	0.173600	0.453000
H551	H55	0.460200	0.136300	0.422400
C1541	C154	0.427810	0.211200	0.455900
C1551	C155	0.396490	0.189500	0.411600
C1561	C156	0.425150	0.269400	0.500000
C1571	C157	0.456030	0.287800	0.542700
C1581	C158	0.543830	0.314500	0.680100
C1591	C159	0.541720	0.255700	0.723400
H561	H56	0.522500	0.218100	0.720200
C1601	C160	0.568380	0.253200	0.771300
C1611	C161	0.596110	0.312300	0.774600
H571	H57	0.614500	0.311000	0.806600
C1621	C162	0.596900	0.371800	0.732200
C1631	C163	0.570170	0.374000	0.684100
H581	H58	0.570200	0.415200	0.655100
C1641	C164	0.566800	0.191100	0.818500
C1651	C165	0.626700	0.438500	0.739400
C1661	C166	0.332330	0.369600	0.046000
C1671	C167	0.365460	0.402500	0.044600
H591	H59	0.375900	0.443800	0.071600
C1681	C168	0.382760	0.373000	0.002300
C1691	C169	0.367610	0.314300	0.961600
H601	H60	0.379700	0.296000	0.933300
C1701	C170	0.334280	0.281700	0.962200
C1711	C171	0.316990	0.311300	0.004900
H611	H61	0.294400	0.290800	0.005400
C1721	C172	0.313320	0.401400	0.091400
C1731	C173	0.316840	0.219500	0.918200
C1741	C174	0.446000	0.376300	0.040300
C1751	C175	0.480020	0.416800	0.040700
C1761	C176	0.508820	0.389700	0.079800
H621	H62	0.506700	0.346600	0.106700
C1771	C177	0.457540	0.571000	0.921400
H631	H63	0.437800	0.587800	0.894200
C1781	C178	0.454220	0.510600	0.961000
C1791	C179	0.418640	0.473600	0.961400
C1801	C180	0.483490	0.481200	0.001000
N101	N10	0.365790	0.235500	0.416700
N111	N11	0.515040	0.314300	0.629300
N121	N12	0.417580	0.409200	0.000200
O551	O55	0.258750	0.320700	0.202320
O561	O56	0.307430	0.394700	0.239510
O571	O57	0.276060	0.989900	0.361810
O581	O58	0.229560	0.064000	0.313700
O591	O59	0.540050	0.153800	0.822100
O601	O60	0.595450	0.186400	0.855800
H641	H64	0.593100	0.150900	0.880900
O611	O61	0.652130	0.422100	0.778600
O621	O62	0.624400	0.501800	0.709400
O631	O63	0.396120	0.139200	0.373000
O641	O64	0.334370	0.323100	0.463700
O651	O65	0.484560	0.411900	0.671800
O661	O66	0.547070	0.228300	0.582800
O671	O67	0.283540	0.370200	0.090690
O681	O68	0.327470	0.457300	0.126300
O691	O69	0.285890	0.198500	0.920510
O701	O70	0.332350	0.191300	0.881500
O711	O71	0.392370	0.500300	0.930800
O721	O72	0.442040	0.319900	0.073200
Zn91	Zn9	0.743970	0.120980	0.628260
Zn101	Zn10	0.813180	0.003840	0.695320
C1811	C181	0.795450	0.231900	0.787800
C1821	C182	0.774360	0.303300	0.791300
H651	H65	0.753700	0.310900	0.764000
C1831	C183	0.783540	0.363800	0.835000
C1841	C184	0.813940	0.351500	0.875400
H661	H66	0.820700	0.392200	0.904800
C1851	C185	0.834100	0.279700	0.872300
C1861	C186	0.825800	0.220000	0.829600
H671	H67	0.840200	0.171600	0.828300
C1871	C187	0.786090	0.167200	0.739500
C1881	C188	0.761660	0.443500	0.837000
C1891	C189	0.862430	0.209100	0.961900
C1901	C190	0.893860	0.189800	0.005600
C1911	C191	0.891620	0.132400	0.048300
H681	H68	0.870300	0.105300	0.049900
C1921	C192	0.922300	0.114000	0.090600
H691	H69	0.920900	0.074900	0.120300
C1931	C193	0.953840	0.153700	0.088100
C1941	C194	0.984820	0.138900	0.133000
C1951	C195	0.019070	0.239100	0.084200
C1961	C196	0.987940	0.255000	0.039300
C1971	C197	0.989350	0.310900	0.994800
H701	H70	0.010400	0.338600	0.992200
C1981	C198	0.958900	0.326400	0.953000
H711	H71	0.960200	0.363700	0.922400
C1991	C199	0.927810	0.288800	0.955900
C2001	C200	0.896490	0.310500	0.911600
C2011	C201	0.925150	0.230600	0.000000
C2021	C202	0.956030	0.212200	0.042700
C2031	C203	0.043830	0.185500	0.180100
C2041	C204	0.041720	0.244300	0.223400
H721	H72	0.022500	0.281900	0.220200
C2051	C205	0.068380	0.246800	0.271300
C2061	C206	0.096110	0.187700	0.274600
H731	H73	0.114500	0.189000	0.306600
C2071	C207	0.096900	0.128200	0.232200
C2081	C208	0.070170	0.126000	0.184100
H741	H74	0.070200	0.084800	0.155100
C2091	C209	0.066800	0.308900	0.318500
C2101	C210	0.126700	0.061500	0.239400
C2111	C211	0.832330	0.130400	0.546000
C2121	C212	0.865460	0.097500	0.544600
H751	H75	0.875900	0.056200	0.571600
C2131	C213	0.882760	0.127000	0.502300
C2141	C214	0.867610	0.185700	0.461600
H761	H76	0.879700	0.204000	0.433300
C2151	C215	0.834280	0.218300	0.462200
C2161	C216	0.816990	0.188700	0.504900
H771	H77	0.794400	0.209200	0.505400
C2171	C217	0.813320	0.098600	0.591400
C2181	C218	0.816840	0.280500	0.418200
C2191	C219	0.946000	0.123700	0.540300
C2201	C220	0.980020	0.083200	0.540700
C2211	C221	0.008820	0.110300	0.579800
H781	H78	0.006700	0.153400	0.606700
C2221	C222	0.957540	0.929000	0.421400
H791	H79	0.937800	0.912200	0.394200
C2231	C223	0.954220	0.989400	0.461000
C2241	C224	0.918640	0.026400	0.461400
C2251	C225	0.983490	0.018800	0.501000
N131	N13	0.865790	0.264500	0.916700
N141	N14	0.015040	0.185700	0.129300
N151	N15	0.917580	0.090800	0.500200
O731	O73	0.758750	0.179300	0.702320
O741	O74	0.807430	0.105300	0.739510
O751	O75	0.776060	0.510100	0.861810
O761	O76	0.729560	0.436000	0.813700
O771	O77	0.040050	0.346200	0.322100
O781	O78	0.095450	0.313600	0.355800
H801	H80	0.093100	0.349100	0.380900
O791	O79	0.152130	0.077900	0.278600
O801	O80	0.124400	0.998200	0.209400
O811	O81	0.896120	0.360800	0.873000
O821	O82	0.834370	0.176900	0.963700
O831	O83	0.984560	0.088100	0.171800
O841	O84	0.047070	0.271700	0.082800
O851	O85	0.783540	0.129800	0.590690
O861	O86	0.827470	0.042700	0.626300
O871	O87	0.785890	0.301500	0.420510
O881	O88	0.832350	0.308700	0.381500
O891	O89	0.892370	0.999700	0.430800
O901	O90	0.942040	0.180100	0.573200
Zn111	Zn11	0.243970	0.620980	0.628260
Zn121	Zn12	0.313180	0.503840	0.695320
C2261	C226	0.295450	0.731900	0.787800
C2271	C227	0.274360	0.803300	0.791300
H811	H81	0.253700	0.810900	0.764000
C2281	C228	0.283540	0.863800	0.835000
C2291	C229	0.313940	0.851500	0.875400
H821	H82	0.320700	0.892200	0.904800
C2301	C230	0.334100	0.779700	0.872300
C2311	C231	0.325800	0.720000	0.829600
H831	H83	0.340200	0.671600	0.828300
C2321	C232	0.286090	0.667200	0.739500
C2331	C233	0.261660	0.943500	0.837000
C2341	C234	0.362430	0.709100	0.961900
C2351	C235	0.393860	0.689800	0.005600
C2361	C236	0.391620	0.632400	0.048300
H841	H84	0.370300	0.605300	0.049900
C2371	C237	0.422300	0.614000	0.090600
H851	H85	0.420900	0.574900	0.120300
C2381	C238	0.453840	0.653700	0.088100
C2391	C239	0.484820	0.638900	0.133000
C2401	C240	0.519070	0.739100	0.084200
C2411	C241	0.487940	0.755000	0.039300
C2421	C242	0.489350	0.810900	0.994800
H861	H86	0.510400	0.838600	0.992200
C2431	C243	0.458900	0.826400	0.953000
H871	H87	0.460200	0.863700	0.922400
C2441	C244	0.427810	0.788800	0.955900
C2451	C245	0.396490	0.810500	0.911600
C2461	C246	0.425150	0.730600	0.000000
C2471	C247	0.456030	0.712200	0.042700
C2481	C248	0.543830	0.685500	0.180100
C2491	C249	0.541720	0.744300	0.223400
H881	H88	0.522500	0.781900	0.220200
C2501	C250	0.568380	0.746800	0.271300
C2511	C251	0.596110	0.687700	0.274600
H891	H89	0.614500	0.689000	0.306600
C2521	C252	0.596900	0.628200	0.232200
C2531	C253	0.570170	0.626000	0.184100
H901	H90	0.570200	0.584800	0.155100
C2541	C254	0.566800	0.808900	0.318500
C2551	C255	0.626700	0.561500	0.239400
C2561	C256	0.332330	0.630400	0.546000
C2571	C257	0.365460	0.597500	0.544600
H911	H91	0.375900	0.556200	0.571600
C2581	C258	0.382760	0.627000	0.502300
C2591	C259	0.367610	0.685700	0.461600
H921	H92	0.379700	0.704000	0.433300
C2601	C260	0.334280	0.718300	0.462200
C2611	C261	0.316990	0.688700	0.504900
H931	H93	0.294400	0.709200	0.505400
C2621	C262	0.313320	0.598600	0.591400
C2631	C263	0.316840	0.780500	0.418200
C2641	C264	0.446000	0.623700	0.540300
C2651	C265	0.480020	0.583200	0.540700
C2661	C266	0.508820	0.610300	0.579800
H941	H94	0.506700	0.653400	0.606700
C2671	C267	0.457540	0.429000	0.421400
H951	H95	0.437800	0.412200	0.394200
C2681	C268	0.454220	0.489400	0.461000
C2691	C269	0.418640	0.526400	0.461400
C2701	C270	0.483490	0.518800	0.501000
N161	N16	0.365790	0.764500	0.916700
N171	N17	0.515040	0.685700	0.129300
N181	N18	0.417580	0.590800	0.500200
O911	O91	0.258750	0.679300	0.702320
O921	O92	0.307430	0.605300	0.739510
O931	O93	0.276060	0.010100	0.861810
O941	O94	0.229560	0.936000	0.813700
O951	O95	0.540050	0.846200	0.322100
O961	O96	0.595450	0.813600	0.355800
H961	H96	0.593100	0.849100	0.380900
O971	O97	0.652130	0.577900	0.278600
O981	O98	0.624400	0.498200	0.209400
O991	O99	0.396120	0.860800	0.873000
O1001	O100	0.334370	0.676900	0.963700
O1011	O101	0.484560	0.588100	0.171800
O1021	O102	0.547070	0.771700	0.082800
O1031	O103	0.283540	0.629800	0.590690
O1041	O104	0.327470	0.542700	0.626300
O1051	O105	0.285890	0.801500	0.420510
O1061	O106	0.332350	0.808700	0.381500
O1071	O107	0.392370	0.499700	0.430800
O1081	O108	0.442040	0.680100	0.573200
Zn131	Zn13	0.256030	0.120980	0.871740
Zn141	Zn14	0.186820	0.003840	0.804680
C2711	C271	0.204550	0.231900	0.712200
C2721	C272	0.225640	0.303300	0.708700
H971	H97	0.246300	0.310900	0.736000
C2731	C273	0.216460	0.363800	0.665000
C2741	C274	0.186060	0.351500	0.624600
H981	H98	0.179300	0.392200	0.595200
C2751	C275	0.165900	0.279700	0.627700
C2761	C276	0.174200	0.220000	0.670400
H991	H99	0.159800	0.171600	0.671700
C2771	C277	0.213910	0.167200	0.760500
C2781	C278	0.238340	0.443500	0.663000
C2791	C279	0.137570	0.209100	0.538100
C2801	C280	0.106140	0.189800	0.494400
C2811	C281	0.108380	0.132400	0.451700
H1001	H100	0.129700	0.105300	0.450100
C2821	C282	0.077700	0.114000	0.409400
H1011	H101	0.079100	0.074900	0.379700
C2831	C283	0.046160	0.153700	0.411900
C2841	C284	0.015180	0.138900	0.367000
C2851	C285	0.980930	0.239100	0.415800
C2861	C286	0.012060	0.255000	0.460700
C2871	C287	0.010650	0.310900	0.505200
H1021	H102	0.989600	0.338600	0.507800
C2881	C288	0.041100	0.326400	0.547000
H1031	H103	0.039800	0.363700	0.577600
C2891	C289	0.072190	0.288800	0.544100
C2901	C290	0.103510	0.310500	0.588400
C2911	C291	0.074850	0.230600	0.500000
C2921	C292	0.043970	0.212200	0.457300
C2931	C293	0.956170	0.185500	0.319900
C2941	C294	0.958280	0.244300	0.276600
H1041	H104	0.977500	0.281900	0.279800
C2951	C295	0.931620	0.246800	0.228700
C2961	C296	0.903890	0.187700	0.225400
H1051	H105	0.885500	0.189000	0.193400
C2971	C297	0.903100	0.128200	0.267800
C2981	C298	0.929830	0.126000	0.315900
H1061	H106	0.929800	0.084800	0.344900
C2991	C299	0.933200	0.308900	0.181500
C3001	C300	0.873300	0.061500	0.260600
C3011	C301	0.167670	0.130400	0.954000
C3021	C302	0.134540	0.097500	0.955400
H1071	H107	0.124100	0.056200	0.928400
C3031	C303	0.117240	0.127000	0.997700
C3041	C304	0.132390	0.185700	0.038400
H1081	H108	0.120300	0.204000	0.066700
C3051	C305	0.165720	0.218300	0.037800
C3061	C306	0.183010	0.188700	0.995100
H1091	H109	0.205600	0.209200	0.994600
C3071	C307	0.186680	0.098600	0.908600
C3081	C308	0.183160	0.280500	0.081800
C3091	C309	0.054000	0.123700	0.959700
C3101	C310	0.019980	0.083200	0.959300
C3111	C311	0.991180	0.110300	0.920200
H1101	H110	0.993300	0.153400	0.893300
C3121	C312	0.042460	0.929000	0.078600
H1111	H111	0.062200	0.912200	0.105800
C3131	C313	0.045780	0.989400	0.039000
C3141	C314	0.081360	0.026400	0.038600
C3151	C315	0.016510	0.018800	0.999000
N191	N19	0.134210	0.264500	0.583300
N201	N20	0.984960	0.185700	0.370700
N211	N21	0.082420	0.090800	0.999800
O1091	O109	0.241250	0.179300	0.797680
O1101	O110	0.192570	0.105300	0.760490
O1111	O111	0.223940	0.510100	0.638190
O1121	O112	0.270440	0.436000	0.686300
O1131	O113	0.959950	0.346200	0.177900
O1141	O114	0.904550	0.313600	0.144200
H1121	H112	0.906900	0.349100	0.119100
O1151	O115	0.847870	0.077900	0.221400
O1161	O116	0.875600	0.998200	0.290600
O1171	O117	0.103880	0.360800	0.627000
O1181	O118	0.165630	0.176900	0.536300
O1191	O119	0.015440	0.088100	0.328200
O1201	O120	0.952930	0.271700	0.417200
O1211	O121	0.216460	0.129800	0.909310
O1221	O122	0.172530	0.042700	0.873700
O1231	O123	0.214110	0.301500	0.079490
O1241	O124	0.167650	0.308700	0.118500
O1251	O125	0.107630	0.999700	0.069200
O1261	O126	0.057960	0.180100	0.926800
Zn151	Zn15	0.756030	0.620980	0.871740
Zn161	Zn16	0.686820	0.503840	0.804680
C3161	C316	0.704550	0.731900	0.712200
C3171	C317	0.725640	0.803300	0.708700
H1131	H113	0.746300	0.810900	0.736000
C3181	C318	0.716460	0.863800	0.665000
C3191	C319	0.686060	0.851500	0.624600
H1141	H114	0.679300	0.892200	0.595200
C3201	C320	0.665900	0.779700	0.627700
C3211	C321	0.674200	0.720000	0.670400
H1151	H115	0.659800	0.671600	0.671700
C3221	C322	0.713910	0.667200	0.760500
C3231	C323	0.738340	0.943500	0.663000
C3241	C324	0.637570	0.709100	0.538100
C3251	C325	0.606140	0.689800	0.494400
C3261	C326	0.608380	0.632400	0.451700
H1161	H116	0.629700	0.605300	0.450100
C3271	C327	0.577700	0.614000	0.409400
H1171	H117	0.579100	0.574900	0.379700
C3281	C328	0.546160	0.653700	0.411900
C3291	C329	0.515180	0.638900	0.367000
C3301	C330	0.480930	0.739100	0.415800
C3311	C331	0.512060	0.755000	0.460700
C3321	C332	0.510650	0.810900	0.505200
H1181	H118	0.489600	0.838600	0.507800
C3331	C333	0.541100	0.826400	0.547000
H1191	H119	0.539800	0.863700	0.577600
C3341	C334	0.572190	0.788800	0.544100
C3351	C335	0.603510	0.810500	0.588400
C3361	C336	0.574850	0.730600	0.500000
C3371	C337	0.543970	0.712200	0.457300
C3381	C338	0.456170	0.685500	0.319900
C3391	C339	0.458280	0.744300	0.276600
H1201	H120	0.477500	0.781900	0.279800
C3401	C340	0.431620	0.746800	0.228700
C3411	C341	0.403890	0.687700	0.225400
H1211	H121	0.385500	0.689000	0.193400
C3421	C342	0.403100	0.628200	0.267800
C3431	C343	0.429830	0.626000	0.315900
H1221	H122	0.429800	0.584800	0.344900
C3441	C344	0.433200	0.808900	0.181500
C3451	C345	0.373300	0.561500	0.260600
C3461	C346	0.667670	0.630400	0.954000
C3471	C347	0.634540	0.597500	0.955400
H1231	H123	0.624100	0.556200	0.928400
C3481	C348	0.617240	0.627000	0.997700
C3491	C349	0.632390	0.685700	0.038400
H1241	H124	0.620300	0.704000	0.066700
C3501	C350	0.665720	0.718300	0.037800
C3511	C351	0.683010	0.688700	0.995100
H1251	H125	0.705600	0.709200	0.994600
C3521	C352	0.686680	0.598600	0.908600
C3531	C353	0.683160	0.780500	0.081800
C3541	C354	0.554000	0.623700	0.959700
C3551	C355	0.519980	0.583200	0.959300
C3561	C356	0.491180	0.610300	0.920200
H1261	H126	0.493300	0.653400	0.893300
C3571	C357	0.542460	0.429000	0.078600
H1271	H127	0.562200	0.412200	0.105800
C3581	C358	0.545780	0.489400	0.039000
C3591	C359	0.581360	0.526400	0.038600
C3601	C360	0.516510	0.518800	0.999000
N221	N22	0.634210	0.764500	0.583300
N231	N23	0.484960	0.685700	0.370700
N241	N24	0.582420	0.590800	0.999800
O1271	O127	0.741250	0.679300	0.797680
O1281	O128	0.692570	0.605300	0.760490
O1291	O129	0.723940	0.010100	0.638190
O1301	O130	0.770440	0.936000	0.686300
O1311	O131	0.459950	0.846200	0.177900
O1321	O132	0.404550	0.813600	0.144200
H1281	H128	0.406900	0.849100	0.119100
O1331	O133	0.347870	0.577900	0.221400
O1341	O134	0.375600	0.498200	0.290600
O1351	O135	0.603880	0.860800	0.627000
O1361	O136	0.665630	0.676900	0.536300
O1371	O137	0.515440	0.588100	0.328200
O1381	O138	0.452930	0.771700	0.417200
O1391	O139	0.716460	0.629800	0.909310
O1401	O140	0.672530	0.542700	0.873700
O1411	O141	0.714110	0.801500	0.079490
O1421	O142	0.667650	0.808700	0.118500
O1431	O143	0.607630	0.499700	0.069200
O1441	O144	0.557960	0.680100	0.926800
