data_FONQIJ_clean_PM
_symmetry_space_group_name_H-M	'P1'
_cell_length_a	10.828100
_cell_length_b	10.828100
_cell_length_c	19.043000
_cell_angle_alpha	90.000000
_cell_angle_beta	90.000000
_cell_angle_gamma	90.000000
_symmetry_Int_Tables_number 1

loop_
_symmetry_equiv_pos_as_xyz
'x,y,z'

loop_
_atom_site_label
_atom_site_type_symbol
_atom_site_fract_x
_atom_site_fract_y
_atom_site_fract_z
Na11	Na1	0.481600	0.182700	0.056100
Na21	Na2	0.518400	0.817300	0.556100
Na31	Na3	0.817300	0.481600	0.306100
Na41	Na4	0.182700	0.518400	0.806100
Mn11	Mn1	0.397290	0.022900	0.894770
Mn21	Mn2	0.602710	0.977100	0.394770
Mn31	Mn3	0.977100	0.397290	0.144770
Mn41	Mn4	0.022900	0.602710	0.644770
H11	H1	0.143800	0.204900	0.733400
H21	H2	0.007200	0.084300	0.671200
H31	H3	0.991200	0.877000	0.693900
H41	H4	0.115100	0.784800	0.776900
H51	H5	0.563000	0.273400	0.833200
H61	H6	0.506200	0.406100	0.839200
H71	H7	0.587800	0.353500	0.900300
H81	H8	0.414900	0.385900	0.987800
H91	H9	0.339900	0.446300	0.926300
H101	H10	0.282500	0.337100	0.969400
H111	H11	0.570500	0.695200	0.953200
H121	H12	0.482500	0.622100	0.902700
H131	H13	0.547700	0.742800	0.876500
H141	H14	0.281600	0.779300	0.024100
H151	H15	0.307900	0.646200	0.995300
H161	H16	0.406700	0.713400	0.041800
H171	H17	0.856200	0.795100	0.233400
H181	H18	0.992800	0.915700	0.171200
H191	H19	0.008800	0.123000	0.193900
H201	H20	0.884900	0.215200	0.276900
H211	H21	0.437000	0.726600	0.333200
H221	H22	0.493800	0.593900	0.339200
H231	H23	0.412200	0.646500	0.400300
H241	H24	0.585100	0.614100	0.487800
H251	H25	0.660100	0.553700	0.426300
H261	H26	0.717500	0.662900	0.469400
H271	H27	0.429500	0.304800	0.453200
H281	H28	0.517500	0.377900	0.402700
H291	H29	0.452300	0.257200	0.376500
H301	H30	0.718400	0.220700	0.524100
H311	H31	0.692100	0.353800	0.495300
H321	H32	0.593300	0.286600	0.541800
H331	H33	0.795100	0.143800	0.983400
H341	H34	0.915700	0.007200	0.921200
H351	H35	0.123000	0.991200	0.943900
H361	H36	0.215200	0.115100	0.026900
H371	H37	0.726600	0.563000	0.083200
H381	H38	0.593900	0.506200	0.089200
H391	H39	0.646500	0.587800	0.150300
H401	H40	0.614100	0.414900	0.237800
H411	H41	0.553700	0.339900	0.176300
H421	H42	0.662900	0.282500	0.219400
H431	H43	0.304800	0.570500	0.203200
H441	H44	0.377900	0.482500	0.152700
H451	H45	0.257200	0.547700	0.126500
H461	H46	0.220700	0.281600	0.274100
H471	H47	0.353800	0.307900	0.245300
H481	H48	0.286600	0.406700	0.291800
H491	H49	0.204900	0.856200	0.483400
H501	H50	0.084300	0.992800	0.421200
H511	H51	0.877000	0.008800	0.443900
H521	H52	0.784800	0.884900	0.526900
H531	H53	0.273400	0.437000	0.583200
H541	H54	0.406100	0.493800	0.589200
H551	H55	0.353500	0.412200	0.650300
H561	H56	0.385900	0.585100	0.737800
H571	H57	0.446300	0.660100	0.676300
H581	H58	0.337100	0.717500	0.719400
H591	H59	0.695200	0.429500	0.703200
H601	H60	0.622100	0.517500	0.652700
H611	H61	0.742800	0.452300	0.626500
H621	H62	0.779300	0.718400	0.774100
H631	H63	0.646200	0.692100	0.745300
H641	H64	0.713400	0.593300	0.791800
C11	C1	0.208800	0.938000	0.803750
C21	C2	0.215900	0.065900	0.791580
C31	C3	0.139300	0.120400	0.741800
C41	C4	0.057200	0.048500	0.705200
C51	C5	0.048300	0.924300	0.718500
C61	C6	0.122800	0.868800	0.767900
C71	C7	0.319200	0.248000	0.843420
C81	C8	0.413300	0.278900	0.899400
C91	C9	0.528200	0.333000	0.864800
C101	C10	0.357600	0.370400	0.950400
C111	C11	0.304500	0.784000	0.883040
C121	C12	0.401200	0.779100	0.942050
C131	C13	0.510600	0.702700	0.916200
C141	C14	0.344200	0.724600	0.006600
C151	C15	0.791200	0.062000	0.303750
C161	C16	0.784100	0.934100	0.291580
C171	C17	0.860700	0.879600	0.241800
C181	C18	0.942800	0.951500	0.205200
C191	C19	0.951700	0.075700	0.218500
C201	C20	0.877200	0.131200	0.267900
C211	C21	0.680800	0.752000	0.343420
C221	C22	0.586700	0.721100	0.399400
C231	C23	0.471800	0.667000	0.364800
C241	C24	0.642400	0.629600	0.450400
C251	C25	0.695500	0.216000	0.383040
C261	C26	0.598800	0.220900	0.442050
C271	C27	0.489400	0.297300	0.416200
C281	C28	0.655800	0.275400	0.506600
C291	C29	0.062000	0.208800	0.053750
C301	C30	0.934100	0.215900	0.041580
C311	C31	0.879600	0.139300	0.991800
C321	C32	0.951500	0.057200	0.955200
C331	C33	0.075700	0.048300	0.968500
C341	C34	0.131200	0.122800	0.017900
C351	C35	0.752000	0.319200	0.093420
C361	C36	0.721100	0.413300	0.149400
C371	C37	0.667000	0.528200	0.114800
C381	C38	0.629600	0.357600	0.200400
C391	C39	0.216000	0.304500	0.133040
C401	C40	0.220900	0.401200	0.192050
C411	C41	0.297300	0.510600	0.166200
C421	C42	0.275400	0.344200	0.256600
C431	C43	0.938000	0.791200	0.553750
C441	C44	0.065900	0.784100	0.541580
C451	C45	0.120400	0.860700	0.491800
C461	C46	0.048500	0.942800	0.455200
C471	C47	0.924300	0.951700	0.468500
C481	C48	0.868800	0.877200	0.517900
C491	C49	0.248000	0.680800	0.593420
C501	C50	0.278900	0.586700	0.649400
C511	C51	0.333000	0.471800	0.614800
C521	C52	0.370400	0.642400	0.700400
C531	C53	0.784000	0.695500	0.633040
C541	C54	0.779100	0.598800	0.692050
C551	C55	0.702700	0.489400	0.666200
C561	C56	0.724600	0.655800	0.756600
N11	N1	0.302400	0.126900	0.834670
N21	N2	0.292300	0.897200	0.855570
N31	N3	0.697600	0.873100	0.334670
N41	N4	0.707700	0.102800	0.355570
N51	N5	0.873100	0.302400	0.084670
N61	N6	0.102800	0.292300	0.105570
N71	N7	0.126900	0.697600	0.584670
N81	N8	0.897200	0.707700	0.605570
O11	O1	0.446700	0.169850	0.937270
O21	O2	0.266600	0.331400	0.810070
O31	O3	0.443100	0.900230	0.957740
O41	O4	0.248000	0.689620	0.864880
O51	O5	0.553300	0.830150	0.437270
O61	O6	0.733400	0.668600	0.310070
O71	O7	0.556900	0.099770	0.457740
O81	O8	0.752000	0.310380	0.364880
O91	O9	0.830150	0.446700	0.187270
O101	O10	0.668600	0.266600	0.060070
O111	O11	0.099770	0.443100	0.207740
O121	O12	0.310380	0.248000	0.114880
O131	O13	0.169850	0.553300	0.687270
O141	O14	0.331400	0.733400	0.560070
O151	O15	0.900230	0.556900	0.707740
O161	O16	0.689620	0.752000	0.614880
