data_FOQTAH_clean_PM
_symmetry_space_group_name_H-M	'P1'
_cell_length_a	8.013500
_cell_length_b	17.658000
_cell_length_c	13.884100
_cell_angle_alpha	90.000000
_cell_angle_beta	90.000000
_cell_angle_gamma	90.000000
_symmetry_Int_Tables_number 1

loop_
_symmetry_equiv_pos_as_xyz
'x,y,z'

loop_
_atom_site_label
_atom_site_type_symbol
_atom_site_fract_x
_atom_site_fract_y
_atom_site_fract_z
H11	H1	0.064600	0.205200	0.854400
H21	H2	0.772400	0.204900	0.832200
C11	C1	0.916400	0.310400	0.658100
H31	H3	0.907600	0.361100	0.678100
N11	N1	0.962700	0.288900	0.571700
C21	C2	0.099800	0.395130	0.364000
H41	H4	0.211600	0.408700	0.375100
N21	N2	0.052000	0.334980	0.315780
N31	N3	0.878100	0.335640	0.315420
C31	C3	0.831600	0.396160	0.363600
H51	H5	0.720200	0.410500	0.374300
N41	N4	0.966200	0.434940	0.395490
C41	C4	0.967300	0.506690	0.449000
H61	H6	0.853900	0.527400	0.451900
H71	H7	0.038600	0.543500	0.415800
H81	H8	0.435400	0.794800	0.354400
H91	H9	0.727600	0.795100	0.332200
C51	C5	0.583600	0.689600	0.158100
H101	H10	0.592400	0.638900	0.178100
N51	N5	0.537300	0.711100	0.071700
C61	C6	0.400200	0.604870	0.864000
H111	H11	0.288400	0.591300	0.875100
N61	N6	0.448000	0.665020	0.815780
N71	N7	0.621900	0.664360	0.815420
C71	C7	0.668400	0.603840	0.863600
H121	H12	0.779800	0.589500	0.874300
N81	N8	0.533800	0.565060	0.895490
C81	C8	0.532700	0.493310	0.949000
H131	H13	0.646100	0.472600	0.951900
H141	H14	0.461400	0.456500	0.915800
H151	H15	0.935400	0.705200	0.145600
H161	H16	0.227600	0.704900	0.167800
C91	C9	0.083600	0.810400	0.341900
H171	H17	0.092400	0.861100	0.321900
N91	N9	0.037300	0.788900	0.428300
C101	C10	0.900200	0.895130	0.636000
H181	H18	0.788400	0.908700	0.624900
N101	N10	0.948000	0.834980	0.684220
N111	N11	0.121900	0.835640	0.684580
C111	C11	0.168400	0.896160	0.636400
H191	H19	0.279800	0.910500	0.625700
N121	N12	0.033800	0.934940	0.604510
C121	C12	0.032700	0.006690	0.551000
H201	H20	0.146100	0.027400	0.548100
H211	H21	0.961400	0.043500	0.584200
H221	H22	0.564600	0.294800	0.645600
H231	H23	0.272400	0.295100	0.667800
C131	C13	0.416400	0.189600	0.841900
H241	H24	0.407600	0.138900	0.821900
N131	N13	0.462700	0.211100	0.928300
C141	C14	0.599800	0.104870	0.136000
H251	H25	0.711600	0.091300	0.124900
N141	N14	0.552000	0.165020	0.184220
N151	N15	0.378100	0.164360	0.184580
C151	C15	0.331600	0.103840	0.136400
H261	H26	0.220200	0.089500	0.125700
N161	N16	0.466200	0.065060	0.104510
C161	C16	0.467300	0.993310	0.051000
H271	H27	0.353900	0.972600	0.048100
H281	H28	0.538600	0.956500	0.084200
H291	H29	0.935400	0.794800	0.145600
H301	H30	0.227600	0.795100	0.167800
C171	C17	0.083600	0.689600	0.341900
H311	H31	0.092400	0.638900	0.321900
N171	N17	0.037300	0.711100	0.428300
C181	C18	0.900200	0.604870	0.636000
H321	H32	0.788400	0.591300	0.624900
N181	N18	0.948000	0.665020	0.684220
N191	N19	0.121900	0.664360	0.684580
C191	C19	0.168400	0.603840	0.636400
H331	H33	0.279800	0.589500	0.625700
N201	N20	0.033800	0.565060	0.604510
C201	C20	0.032700	0.493310	0.551000
H341	H34	0.146100	0.472600	0.548100
H351	H35	0.961400	0.456500	0.584200
H361	H36	0.564600	0.205200	0.645600
H371	H37	0.272400	0.204900	0.667800
C211	C21	0.416400	0.310400	0.841900
H381	H38	0.407600	0.361100	0.821900
N211	N21	0.462700	0.288900	0.928300
C221	C22	0.599800	0.395130	0.136000
H391	H39	0.711600	0.408700	0.124900
N221	N22	0.552000	0.334980	0.184220
N231	N23	0.378100	0.335640	0.184580
C231	C23	0.331600	0.396160	0.136400
H401	H40	0.220200	0.410500	0.125700
N241	N24	0.466200	0.434940	0.104510
C241	C24	0.467300	0.506690	0.051000
H411	H41	0.353900	0.527400	0.048100
H421	H42	0.538600	0.543500	0.084200
H431	H43	0.064600	0.294800	0.854400
H441	H44	0.772400	0.295100	0.832200
C251	C25	0.916400	0.189600	0.658100
H451	H45	0.907600	0.138900	0.678100
N251	N25	0.962700	0.211100	0.571700
C261	C26	0.099800	0.104870	0.364000
H461	H46	0.211600	0.091300	0.375100
N261	N26	0.052000	0.165020	0.315780
N271	N27	0.878100	0.164360	0.315420
C271	C27	0.831600	0.103840	0.363600
H471	H47	0.720200	0.089500	0.374300
N281	N28	0.966200	0.065060	0.395490
C281	C28	0.967300	0.993310	0.449000
H481	H48	0.853900	0.972600	0.451900
H491	H49	0.038600	0.956500	0.415800
H501	H50	0.435400	0.705200	0.354400
H511	H51	0.727600	0.704900	0.332200
C291	C29	0.583600	0.810400	0.158100
H521	H52	0.592400	0.861100	0.178100
N291	N29	0.537300	0.788900	0.071700
C301	C30	0.400200	0.895130	0.864000
H531	H53	0.288400	0.908700	0.875100
N301	N30	0.448000	0.834980	0.815780
N311	N31	0.621900	0.835640	0.815420
C311	C31	0.668400	0.896160	0.863600
H541	H54	0.779800	0.910500	0.874300
N321	N32	0.533800	0.934940	0.895490
C321	C32	0.532700	0.006690	0.949000
H551	H55	0.646100	0.027400	0.951900
H561	H56	0.461400	0.043500	0.915800
Zn11	Zn1	0.214390	0.250000	0.252020
C331	C33	0.104700	0.250000	0.040500
H571	H57	0.217900	0.250000	0.022700
N331	N33	0.051500	0.250000	0.128100
N341	N34	0.876400	0.250000	0.123700
C341	C34	0.837200	0.250000	0.032700
H581	H58	0.727600	0.250000	0.008700
N351	N35	0.976400	0.250000	0.977800
C351	C35	0.999700	0.250000	0.872600
C361	C36	0.838400	0.250000	0.816600
N361	N36	0.883200	0.250000	0.714400
Zn21	Zn2	0.285610	0.750000	0.752020
C371	C37	0.395300	0.750000	0.540500
H591	H59	0.282100	0.750000	0.522700
N371	N37	0.448500	0.750000	0.628100
N381	N38	0.623600	0.750000	0.623700
C381	C38	0.662800	0.750000	0.532700
H601	H60	0.772400	0.750000	0.508700
N391	N39	0.523600	0.750000	0.477800
C391	C39	0.500300	0.750000	0.372600
C401	C40	0.661600	0.750000	0.316600
N401	N40	0.616800	0.750000	0.214400
Zn31	Zn3	0.785610	0.750000	0.747980
C411	C41	0.895300	0.750000	0.959500
H611	H61	0.782100	0.750000	0.977300
N411	N41	0.948500	0.750000	0.871900
N421	N42	0.123600	0.750000	0.876300
C421	C42	0.162800	0.750000	0.967300
H621	H62	0.272400	0.750000	0.991300
N431	N43	0.023600	0.750000	0.022200
C431	C43	0.000300	0.750000	0.127400
C441	C44	0.161600	0.750000	0.183400
N441	N44	0.116800	0.750000	0.285600
Zn41	Zn4	0.714390	0.250000	0.247980
C451	C45	0.604700	0.250000	0.459500
H631	H63	0.717900	0.250000	0.477300
N451	N45	0.551500	0.250000	0.371900
N461	N46	0.376400	0.250000	0.376300
C461	C46	0.337200	0.250000	0.467300
H641	H64	0.227600	0.250000	0.491300
N471	N47	0.476400	0.250000	0.522200
C471	C47	0.499700	0.250000	0.627400
C481	C48	0.338400	0.250000	0.683400
N481	N48	0.383200	0.250000	0.785600
