data_FORPIM_clean_PM
_symmetry_space_group_name_H-M	'P1'
_cell_length_a	30.863000
_cell_length_b	15.742500
_cell_length_c	22.192000
_cell_angle_alpha	90.000000
_cell_angle_beta	133.173000
_cell_angle_gamma	90.000000
_symmetry_Int_Tables_number 1

loop_
_symmetry_equiv_pos_as_xyz
'x,y,z'

loop_
_atom_site_label
_atom_site_type_symbol
_atom_site_fract_x
_atom_site_fract_y
_atom_site_fract_z
La11	La1	0.890080	0.862840	0.328310
La21	La2	0.830520	0.128950	0.485940
N11	N1	0.837900	0.004100	0.241900
N21	N2	0.133200	0.730800	0.535900
O11	O1	0.875700	0.885800	0.203300
O21	O2	0.840900	0.954900	0.091100
O31	O3	0.866300	0.973900	0.382800
O41	O4	0.825300	0.098400	0.372400
O51	O5	0.059600	0.852100	0.431600
O61	O6	0.980800	0.780800	0.389800
O71	O7	0.247100	0.764500	0.626700
O81	O8	0.276100	0.650400	0.705800
C11	C1	0.849800	0.947800	0.154800
C21	C2	0.825200	0.013200	0.171900
C31	C3	0.786500	0.075700	0.116700
H11	H1	0.778700	0.082800	0.068400
C41	C4	0.758800	0.128700	0.132600
H21	H2	0.730700	0.168800	0.094300
C51	C5	0.775000	0.118800	0.207400
H31	H3	0.759000	0.154200	0.221500
C61	C6	0.814800	0.056800	0.261100
C71	C7	0.837200	0.042500	0.345700
C81	C8	0.035000	0.788700	0.431000
C91	C9	0.076200	0.718400	0.489200
C101	C10	0.054000	0.645000	0.496900
H41	H4	0.013400	0.637700	0.464500
C111	C11	0.094400	0.584100	0.554100
H51	H5	0.081000	0.533500	0.558300
C121	C12	0.155600	0.599300	0.605900
H61	H6	0.183800	0.561100	0.647100
C131	C13	0.172300	0.674000	0.592800
C141	C14	0.236100	0.697200	0.645100
La31	La3	0.390080	0.362840	0.328310
La41	La4	0.330520	0.628950	0.485940
N31	N3	0.337900	0.504100	0.241900
N41	N4	0.633200	0.230800	0.535900
O91	O9	0.375700	0.385800	0.203300
O101	O10	0.340900	0.454900	0.091100
O111	O11	0.366300	0.473900	0.382800
O121	O12	0.325300	0.598400	0.372400
O131	O13	0.559600	0.352100	0.431600
O141	O14	0.480800	0.280800	0.389800
O151	O15	0.747100	0.264500	0.626700
O161	O16	0.776100	0.150400	0.705800
C151	C15	0.349800	0.447800	0.154800
C161	C16	0.325200	0.513200	0.171900
C171	C17	0.286500	0.575700	0.116700
H71	H7	0.278700	0.582800	0.068400
C181	C18	0.258800	0.628700	0.132600
H81	H8	0.230700	0.668800	0.094300
C191	C19	0.275000	0.618800	0.207400
H91	H9	0.259000	0.654200	0.221500
C201	C20	0.314800	0.556800	0.261100
C211	C21	0.337200	0.542500	0.345700
C221	C22	0.535000	0.288700	0.431000
C231	C23	0.576200	0.218400	0.489200
C241	C24	0.554000	0.145000	0.496900
H101	H10	0.513400	0.137700	0.464500
C251	C25	0.594400	0.084100	0.554100
H111	H11	0.581000	0.033500	0.558300
C261	C26	0.655600	0.099300	0.605900
H121	H12	0.683800	0.061100	0.647100
C271	C27	0.672300	0.174000	0.592800
C281	C28	0.736100	0.197200	0.645100
La51	La5	0.109920	0.862840	0.171690
La61	La6	0.169480	0.128950	0.014060
N51	N5	0.162100	0.004100	0.258100
N61	N6	0.866800	0.730800	0.964100
O171	O17	0.124300	0.885800	0.296700
O181	O18	0.159100	0.954900	0.408900
O191	O19	0.133700	0.973900	0.117200
O201	O20	0.174700	0.098400	0.127600
O211	O21	0.940400	0.852100	0.068400
O221	O22	0.019200	0.780800	0.110200
O231	O23	0.752900	0.764500	0.873300
O241	O24	0.723900	0.650400	0.794200
C291	C29	0.150200	0.947800	0.345200
C301	C30	0.174800	0.013200	0.328100
C311	C31	0.213500	0.075700	0.383300
H131	H13	0.221300	0.082800	0.431600
C321	C32	0.241200	0.128700	0.367400
H141	H14	0.269300	0.168800	0.405700
C331	C33	0.225000	0.118800	0.292600
H151	H15	0.241000	0.154200	0.278500
C341	C34	0.185200	0.056800	0.238900
C351	C35	0.162800	0.042500	0.154300
C361	C36	0.965000	0.788700	0.069000
C371	C37	0.923800	0.718400	0.010800
C381	C38	0.946000	0.645000	0.003100
H161	H16	0.986600	0.637700	0.035500
C391	C39	0.905600	0.584100	0.945900
H171	H17	0.919000	0.533500	0.941700
C401	C40	0.844400	0.599300	0.894100
H181	H18	0.816200	0.561100	0.852900
C411	C41	0.827700	0.674000	0.907200
C421	C42	0.763900	0.697200	0.854900
La71	La7	0.609920	0.362840	0.171690
La81	La8	0.669480	0.628950	0.014060
N71	N7	0.662100	0.504100	0.258100
N81	N8	0.366800	0.230800	0.964100
O251	O25	0.624300	0.385800	0.296700
O261	O26	0.659100	0.454900	0.408900
O271	O27	0.633700	0.473900	0.117200
O281	O28	0.674700	0.598400	0.127600
O291	O29	0.440400	0.352100	0.068400
O301	O30	0.519200	0.280800	0.110200
O311	O31	0.252900	0.264500	0.873300
O321	O32	0.223900	0.150400	0.794200
C431	C43	0.650200	0.447800	0.345200
C441	C44	0.674800	0.513200	0.328100
C451	C45	0.713500	0.575700	0.383300
H191	H19	0.721300	0.582800	0.431600
C461	C46	0.741200	0.628700	0.367400
H201	H20	0.769300	0.668800	0.405700
C471	C47	0.725000	0.618800	0.292600
H211	H21	0.741000	0.654200	0.278500
C481	C48	0.685200	0.556800	0.238900
C491	C49	0.662800	0.542500	0.154300
C501	C50	0.465000	0.288700	0.069000
C511	C51	0.423800	0.218400	0.010800
C521	C52	0.446000	0.145000	0.003100
H221	H22	0.486600	0.137700	0.035500
C531	C53	0.405600	0.084100	0.945900
H231	H23	0.419000	0.033500	0.941700
C541	C54	0.344400	0.099300	0.894100
H241	H24	0.316200	0.061100	0.852900
C551	C55	0.327700	0.174000	0.907200
C561	C56	0.263900	0.197200	0.854900
La91	La9	0.109920	0.137160	0.671690
La101	La10	0.169480	0.871050	0.514060
N91	N9	0.162100	0.995900	0.758100
N101	N10	0.866800	0.269200	0.464100
O331	O33	0.124300	0.114200	0.796700
O341	O34	0.159100	0.045100	0.908900
O351	O35	0.133700	0.026100	0.617200
O361	O36	0.174700	0.901600	0.627600
O371	O37	0.940400	0.147900	0.568400
O381	O38	0.019200	0.219200	0.610200
O391	O39	0.752900	0.235500	0.373300
O401	O40	0.723900	0.349600	0.294200
C571	C57	0.150200	0.052200	0.845200
C581	C58	0.174800	0.986800	0.828100
C591	C59	0.213500	0.924300	0.883300
H251	H25	0.221300	0.917200	0.931600
C601	C60	0.241200	0.871300	0.867400
H261	H26	0.269300	0.831200	0.905700
C611	C61	0.225000	0.881200	0.792600
H271	H27	0.241000	0.845800	0.778500
C621	C62	0.185200	0.943200	0.738900
C631	C63	0.162800	0.957500	0.654300
C641	C64	0.965000	0.211300	0.569000
C651	C65	0.923800	0.281600	0.510800
C661	C66	0.946000	0.355000	0.503100
H281	H28	0.986600	0.362300	0.535500
C671	C67	0.905600	0.415900	0.445900
H291	H29	0.919000	0.466500	0.441700
C681	C68	0.844400	0.400700	0.394100
H301	H30	0.816200	0.438900	0.352900
C691	C69	0.827700	0.326000	0.407200
C701	C70	0.763900	0.302800	0.354900
La111	La11	0.609920	0.637160	0.671690
La121	La12	0.669480	0.371050	0.514060
N111	N11	0.662100	0.495900	0.758100
N121	N12	0.366800	0.769200	0.464100
O411	O41	0.624300	0.614200	0.796700
O421	O42	0.659100	0.545100	0.908900
O431	O43	0.633700	0.526100	0.617200
O441	O44	0.674700	0.401600	0.627600
O451	O45	0.440400	0.647900	0.568400
O461	O46	0.519200	0.719200	0.610200
O471	O47	0.252900	0.735500	0.373300
O481	O48	0.223900	0.849600	0.294200
C711	C71	0.650200	0.552200	0.845200
C721	C72	0.674800	0.486800	0.828100
C731	C73	0.713500	0.424300	0.883300
H311	H31	0.721300	0.417200	0.931600
C741	C74	0.741200	0.371300	0.867400
H321	H32	0.769300	0.331200	0.905700
C751	C75	0.725000	0.381200	0.792600
H331	H33	0.741000	0.345800	0.778500
C761	C76	0.685200	0.443200	0.738900
C771	C77	0.662800	0.457500	0.654300
C781	C78	0.465000	0.711300	0.569000
C791	C79	0.423800	0.781600	0.510800
C801	C80	0.446000	0.855000	0.503100
H341	H34	0.486600	0.862300	0.535500
C811	C81	0.405600	0.915900	0.445900
H351	H35	0.419000	0.966500	0.441700
C821	C82	0.344400	0.900700	0.394100
H361	H36	0.316200	0.938900	0.352900
C831	C83	0.327700	0.826000	0.407200
C841	C84	0.263900	0.802800	0.354900
La131	La13	0.890080	0.137160	0.828310
La141	La14	0.830520	0.871050	0.985940
N131	N13	0.837900	0.995900	0.741900
N141	N14	0.133200	0.269200	0.035900
O491	O49	0.875700	0.114200	0.703300
O501	O50	0.840900	0.045100	0.591100
O511	O51	0.866300	0.026100	0.882800
O521	O52	0.825300	0.901600	0.872400
O531	O53	0.059600	0.147900	0.931600
O541	O54	0.980800	0.219200	0.889800
O551	O55	0.247100	0.235500	0.126700
O561	O56	0.276100	0.349600	0.205800
C851	C85	0.849800	0.052200	0.654800
C861	C86	0.825200	0.986800	0.671900
C871	C87	0.786500	0.924300	0.616700
H371	H37	0.778700	0.917200	0.568400
C881	C88	0.758800	0.871300	0.632600
H381	H38	0.730700	0.831200	0.594300
C891	C89	0.775000	0.881200	0.707400
H391	H39	0.759000	0.845800	0.721500
C901	C90	0.814800	0.943200	0.761100
C911	C91	0.837200	0.957500	0.845700
C921	C92	0.035000	0.211300	0.931000
C931	C93	0.076200	0.281600	0.989200
C941	C94	0.054000	0.355000	0.996900
H401	H40	0.013400	0.362300	0.964500
C951	C95	0.094400	0.415900	0.054100
H411	H41	0.081000	0.466500	0.058300
C961	C96	0.155600	0.400700	0.105900
H421	H42	0.183800	0.438900	0.147100
C971	C97	0.172300	0.326000	0.092800
C981	C98	0.236100	0.302800	0.145100
La151	La15	0.390080	0.637160	0.828310
La161	La16	0.330520	0.371050	0.985940
N151	N15	0.337900	0.495900	0.741900
N161	N16	0.633200	0.769200	0.035900
O571	O57	0.375700	0.614200	0.703300
O581	O58	0.340900	0.545100	0.591100
O591	O59	0.366300	0.526100	0.882800
O601	O60	0.325300	0.401600	0.872400
O611	O61	0.559600	0.647900	0.931600
O621	O62	0.480800	0.719200	0.889800
O631	O63	0.747100	0.735500	0.126700
O641	O64	0.776100	0.849600	0.205800
C991	C99	0.349800	0.552200	0.654800
C1001	C100	0.325200	0.486800	0.671900
C1011	C101	0.286500	0.424300	0.616700
H431	H43	0.278700	0.417200	0.568400
C1021	C102	0.258800	0.371300	0.632600
H441	H44	0.230700	0.331200	0.594300
C1031	C103	0.275000	0.381200	0.707400
H451	H45	0.259000	0.345800	0.721500
C1041	C104	0.314800	0.443200	0.761100
C1051	C105	0.337200	0.457500	0.845700
C1061	C106	0.535000	0.711300	0.931000
C1071	C107	0.576200	0.781600	0.989200
C1081	C108	0.554000	0.855000	0.996900
H461	H46	0.513400	0.862300	0.964500
C1091	C109	0.594400	0.915900	0.054100
H471	H47	0.581000	0.966500	0.058300
C1101	C110	0.655600	0.900700	0.105900
H481	H48	0.683800	0.938900	0.147100
C1111	C111	0.672300	0.826000	0.092800
C1121	C112	0.736100	0.802800	0.145100
