data_FOWTOC_clean_PM
_symmetry_space_group_name_H-M	'P1'
_cell_length_a	16.437400
_cell_length_b	18.104100
_cell_length_c	18.104100
_cell_angle_alpha	90.000000
_cell_angle_beta	90.000000
_cell_angle_gamma	90.000000
_symmetry_Int_Tables_number 1

loop_
_symmetry_equiv_pos_as_xyz
'x,y,z'

loop_
_atom_site_label
_atom_site_type_symbol
_atom_site_fract_x
_atom_site_fract_y
_atom_site_fract_z
Nd11	Nd1	0.000000	0.783360	0.783360
Nd21	Nd2	0.250000	0.716640	0.283360
Nd31	Nd3	0.500000	0.216640	0.216640
Nd41	Nd4	0.750000	0.283360	0.716640
H11	H1	0.170600	0.036600	0.513300
H21	H2	0.027400	0.821400	0.136900
H31	H3	0.615300	0.137700	0.642800
H41	H4	0.889700	0.663700	0.583900
H51	H5	0.003800	0.194300	0.948200
H61	H6	0.635900	0.348700	0.883800
H71	H7	0.639100	0.583800	0.135800
H81	H8	0.389100	0.635800	0.916200
H91	H9	0.365300	0.142800	0.362300
H101	H10	0.438600	0.599300	0.028700
H111	H11	0.472600	0.863100	0.178600
H121	H12	0.067500	0.708500	0.467300
H131	H13	0.819800	0.095500	0.954500
H141	H14	0.563500	0.982600	0.929200
H151	H15	0.884700	0.357200	0.862300
H161	H16	0.650700	0.388500	0.485900
H171	H17	0.527400	0.178600	0.863100
H181	H18	0.614100	0.151300	0.383800
H191	H19	0.408400	0.115000	0.886500
H201	H20	0.212800	0.388900	0.214700
H211	H21	0.048100	0.145100	0.007200
H221	H22	0.114100	0.848700	0.616200
H231	H23	0.777400	0.636900	0.678600
H241	H24	0.451900	0.992800	0.854900
H251	H25	0.828700	0.519600	0.909300
H261	H26	0.115300	0.862300	0.357200
H271	H27	0.860900	0.864200	0.416200
H281	H28	0.287200	0.785300	0.611100
H291	H29	0.658400	0.613500	0.615000
H301	H30	0.753800	0.448200	0.305700
H311	H31	0.920600	0.013300	0.463400
H321	H32	0.552600	0.955200	0.075500
H331	H33	0.319800	0.904500	0.045500
H341	H34	0.712800	0.611100	0.785300
H351	H35	0.216500	0.090000	0.284800
H361	H36	0.139700	0.916100	0.163700
H371	H37	0.579400	0.536600	0.986700
H381	H38	0.671300	0.090700	0.480400
H391	H39	0.246200	0.305700	0.448200
H401	H40	0.110300	0.583900	0.663700
H411	H41	0.722600	0.321400	0.363100
H421	H42	0.855800	0.100800	0.398100
H431	H43	0.160800	0.467800	0.653000
H441	H44	0.197400	0.455200	0.424500
H451	H45	0.091600	0.113500	0.885000
H461	H46	0.394200	0.399200	0.898100
H471	H47	0.811400	0.900700	0.528700
H481	H48	0.139100	0.416200	0.864200
H491	H49	0.079400	0.463400	0.013300
H501	H50	0.829400	0.513300	0.036600
H511	H51	0.410800	0.847000	0.967800
H521	H52	0.962800	0.714700	0.111100
H531	H53	0.061400	0.971300	0.400700
H541	H54	0.798100	0.507200	0.354900
H551	H55	0.716500	0.910000	0.715200
H561	H56	0.150700	0.611500	0.514100
H571	H57	0.849300	0.514100	0.611500
H581	H58	0.134700	0.637700	0.857200
H591	H59	0.610300	0.416100	0.336300
H601	H60	0.182500	0.791500	0.967300
H611	H61	0.951900	0.007200	0.145100
H621	H62	0.277400	0.363100	0.321400
H631	H63	0.591600	0.886500	0.115000
H641	H64	0.052600	0.044800	0.924500
H651	H65	0.839200	0.653000	0.467800
H661	H66	0.682500	0.208500	0.032700
H671	H67	0.339200	0.347000	0.532200
H681	H68	0.329400	0.486700	0.963400
H691	H69	0.680200	0.045500	0.904500
H701	H70	0.561400	0.028700	0.599300
H711	H71	0.253800	0.551800	0.694300
H721	H72	0.110900	0.083800	0.364200
H731	H73	0.537200	0.888900	0.285300
H741	H74	0.389700	0.336300	0.416100
H751	H75	0.686500	0.517400	0.429200
H761	H76	0.644200	0.601900	0.899200
H771	H77	0.298100	0.492800	0.645100
H781	H78	0.841600	0.385000	0.386500
H791	H79	0.972600	0.136900	0.821400
H801	H80	0.105800	0.101900	0.600800
H811	H81	0.089200	0.032200	0.153000
H821	H82	0.670600	0.963400	0.486700
H831	H83	0.069800	0.545500	0.595500
H841	H84	0.033500	0.410000	0.784800
H851	H85	0.936500	0.070800	0.017400
H861	H86	0.384700	0.642800	0.137700
H871	H87	0.860300	0.163700	0.916100
H881	H88	0.930200	0.595500	0.545500
H891	H89	0.496200	0.051800	0.805700
H901	H90	0.817500	0.967300	0.791500
H911	H91	0.503800	0.805700	0.051800
H921	H92	0.885900	0.616200	0.848700
H931	H93	0.385900	0.383800	0.151300
H941	H94	0.432500	0.532700	0.291500
H951	H95	0.569800	0.454500	0.404500
H961	H96	0.447400	0.075500	0.955200
H971	H97	0.688600	0.471300	0.099300
H981	H98	0.420600	0.986700	0.536600
H991	H99	0.360300	0.836300	0.083900
H1001	H100	0.589200	0.967800	0.847000
H1011	H101	0.605800	0.898100	0.399200
H1021	H102	0.634700	0.362300	0.142800
H1031	H103	0.900700	0.014100	0.888500
H1041	H104	0.639700	0.083900	0.836300
H1051	H105	0.283500	0.715200	0.910000
H1061	H106	0.462800	0.285300	0.888900
H1071	H107	0.360900	0.135800	0.583800
H1081	H108	0.078700	0.590700	0.019600
H1091	H109	0.313500	0.429200	0.517400
H1101	H110	0.932500	0.467300	0.708500
H1111	H111	0.317500	0.032700	0.208500
H1121	H112	0.889100	0.364200	0.083800
H1131	H113	0.349300	0.485900	0.388500
H1141	H114	0.436500	0.929200	0.982600
H1151	H115	0.783500	0.284800	0.090000
H1161	H116	0.144200	0.398100	0.100800
H1171	H117	0.813500	0.570800	0.482600
H1181	H118	0.430200	0.404500	0.454500
H1191	H119	0.660800	0.532200	0.347000
H1201	H120	0.599300	0.111500	0.985900
H1211	H121	0.222600	0.678600	0.636900
H1221	H122	0.533500	0.590000	0.215200
H1231	H123	0.548100	0.854900	0.992800
H1241	H124	0.966500	0.784800	0.410000
H1251	H125	0.188600	0.528700	0.900700
H1261	H126	0.610900	0.916200	0.635800
H1271	H127	0.302600	0.575500	0.544800
H1281	H128	0.894200	0.600800	0.101900
H1291	H129	0.947400	0.924500	0.044800
H1301	H130	0.421300	0.980400	0.409300
H1311	H131	0.341600	0.615000	0.613500
H1321	H132	0.864100	0.116200	0.651300
H1331	H133	0.567500	0.291500	0.532700
H1341	H134	0.578700	0.409300	0.980400
H1351	H135	0.328700	0.480400	0.090700
H1361	H136	0.355800	0.899200	0.601900
H1371	H137	0.697400	0.544800	0.575500
H1381	H138	0.787200	0.214700	0.388900
H1391	H139	0.063500	0.017400	0.070800
H1401	H140	0.910800	0.153000	0.032200
H1411	H141	0.466500	0.215200	0.590000
H1421	H142	0.921300	0.019600	0.590700
H1431	H143	0.908400	0.885000	0.113500
H1441	H144	0.400700	0.985900	0.111500
H1451	H145	0.311400	0.099300	0.471300
H1461	H146	0.746200	0.694300	0.551800
H1471	H147	0.865300	0.857200	0.637700
H1481	H148	0.099300	0.888500	0.014100
H1491	H149	0.186500	0.482600	0.570800
H1501	H150	0.171300	0.909300	0.519600
H1511	H151	0.802600	0.424500	0.455200
H1521	H152	0.158400	0.386500	0.385000
H1531	H153	0.201900	0.354900	0.507200
H1541	H154	0.996200	0.948200	0.194300
H1551	H155	0.701900	0.645100	0.492800
H1561	H156	0.364100	0.883800	0.348700
H1571	H157	0.037200	0.111100	0.714700
H1581	H158	0.135900	0.651300	0.116200
H1591	H159	0.938600	0.400700	0.971300
H1601	H160	0.180200	0.954500	0.095500
C11	C1	0.352400	0.434800	0.371000
C21	C2	0.853500	0.557000	0.936400
C31	C3	0.490800	0.033000	0.855700
C41	C4	0.870600	0.114400	0.934800
C51	C5	0.103500	0.563600	0.057000
C61	C6	0.147600	0.629000	0.565200
C71	C7	0.771600	0.587700	0.656600
C81	C8	0.538100	0.939500	0.276700
C91	C9	0.426800	0.326800	0.063800
C101	C10	0.926800	0.673200	0.936200
C111	C11	0.049500	0.720500	0.514500
C121	C12	0.990800	0.967000	0.144300
C131	C13	0.895100	0.367900	0.973000
C141	C14	0.354900	0.132100	0.473000
C151	C15	0.208700	0.406500	0.404700
C161	C16	0.638200	0.400000	0.884700
C171	C17	0.514100	0.479200	0.227500
C181	C18	0.711900	0.560500	0.776700
C191	C19	0.854400	0.552600	0.012600
C201	C20	0.073200	0.936200	0.673200
C211	C21	0.637600	0.092800	0.657600
C221	C22	0.108700	0.050800	0.604900
C231	C23	0.735900	0.020800	0.727500
C241	C24	0.858700	0.104900	0.449200
C251	C25	0.961900	0.723300	0.060500
C261	C26	0.634500	0.959300	0.653600
C271	C27	0.645100	0.473000	0.132100
C281	C28	0.947400	0.799800	0.456000
C291	C29	0.271600	0.412300	0.343400
C301	C30	0.865500	0.346400	0.040700
C311	C31	0.549500	0.279500	0.485500
C321	C32	0.461900	0.276700	0.939500
C331	C33	0.384500	0.153600	0.540700
C341	C34	0.228400	0.656600	0.587700
C351	C35	0.112400	0.592800	0.842400
C361	C36	0.569700	0.005300	0.881000
C371	C37	0.700500	0.220500	0.985500
C381	C38	0.791300	0.404700	0.406500
C391	C39	0.888200	0.615300	0.900000
C401	C40	0.854900	0.867900	0.527000
C411	C41	0.458700	0.095300	0.906500
C421	C42	0.240800	0.355700	0.467000
C431	C43	0.264100	0.727500	0.020800
C441	C44	0.069700	0.994700	0.119000
C451	C45	0.604400	0.512600	0.947400
C461	C46	0.052600	0.456000	0.799800
C471	C47	0.891300	0.604900	0.050800
C481	C48	0.823200	0.173200	0.563800
C491	C49	0.604900	0.027000	0.632100
C501	C50	0.041300	0.093500	0.904700
C511	C51	0.704600	0.091600	0.706100
C521	C52	0.354400	0.447400	0.987400
C531	C53	0.823500	0.166900	0.484100
C541	C54	0.641300	0.550800	0.895100
C551	C55	0.365500	0.653600	0.959300
C561	C56	0.200500	0.779500	0.014500
C571	C57	0.145600	0.012600	0.552600
C581	C58	0.879400	0.614400	0.565200
C591	C59	0.603500	0.436400	0.943000
C601	C60	0.545400	0.408400	0.206100
C611	C61	0.104400	0.487400	0.052600
C621	C62	0.985900	0.772500	0.520800
C631	C63	0.009200	0.144300	0.967000
C641	C64	0.391300	0.395100	0.949200
C651	C65	0.759200	0.467000	0.355700
C661	C66	0.647600	0.371000	0.434800
C671	C67	0.120600	0.565200	0.614400
C681	C68	0.764100	0.272500	0.979200
C691	C69	0.134500	0.040700	0.346400
C701	C70	0.180300	0.505300	0.619000
C711	C71	0.954600	0.793900	0.591600
C721	C72	0.454600	0.206100	0.408400
C731	C73	0.388200	0.384700	0.100000
C741	C74	0.802600	0.299800	0.044000
C751	C75	0.176800	0.563800	0.173200
C761	C76	0.852400	0.565200	0.629000
C771	C77	0.620600	0.434800	0.385600
C781	C78	0.788100	0.223300	0.439500
C791	C79	0.897600	0.065200	0.871000
C801	C80	0.426500	0.333100	0.984100
C811	C81	0.930300	0.119000	0.994700
C821	C82	0.958700	0.904700	0.093500
C831	C83	0.323500	0.833100	0.515900
C841	C84	0.646500	0.063600	0.443000
C851	C85	0.021600	0.843400	0.087700
C861	C86	0.708700	0.593500	0.595300
C871	C87	0.887600	0.842400	0.592800
C881	C88	0.573200	0.063800	0.326800
C891	C89	0.612400	0.407200	0.157600
C901	C90	0.862400	0.342400	0.907200
C911	C91	0.115500	0.459300	0.846400
C921	C92	0.014100	0.520800	0.772500
C931	C93	0.358700	0.895100	0.550800
C941	C94	0.235900	0.979200	0.272500
C951	C95	0.045400	0.591600	0.793900
C961	C96	0.430300	0.881000	0.005300
C971	C97	0.302600	0.700200	0.956000
C981	C98	0.795400	0.293900	0.908400
C991	C99	0.204600	0.908400	0.293900
C1001	C100	0.884500	0.846400	0.459300
C1011	C101	0.740800	0.644300	0.533000
C1021	C102	0.615500	0.540700	0.153600
C1031	C103	0.323200	0.826800	0.436200
C1041	C104	0.295400	0.706100	0.091600
C1051	C105	0.509200	0.855700	0.033000
C1061	C106	0.141300	0.449200	0.104900
C1071	C107	0.895600	0.052600	0.487400
C1081	C108	0.361800	0.884700	0.400000
C1091	C109	0.521600	0.156600	0.912300
C1101	C110	0.145100	0.527000	0.867900
C1111	C111	0.552600	0.544000	0.200200
C1121	C112	0.608700	0.949200	0.395100
C1131	C113	0.396500	0.943000	0.436400
C1141	C114	0.291300	0.595300	0.593500
C1151	C115	0.362400	0.657600	0.092800
C1161	C116	0.799500	0.014500	0.779500
C1171	C117	0.450500	0.485500	0.279500
C1181	C118	0.319700	0.381000	0.494700
C1191	C119	0.645600	0.987400	0.447400
C1201	C120	0.111800	0.900000	0.615300
C1211	C121	0.978400	0.087700	0.843400
C1221	C122	0.676500	0.515900	0.833100
C1231	C123	0.861800	0.115300	0.600000
C1241	C124	0.176500	0.484100	0.166900
C1251	C125	0.447400	0.200200	0.544000
C1261	C126	0.259200	0.533000	0.644300
C1271	C127	0.896500	0.057000	0.563600
C1281	C128	0.676800	0.436200	0.826800
C1291	C129	0.397600	0.934800	0.129000
C1301	C130	0.629400	0.065200	0.885600
C1311	C131	0.379400	0.385600	0.434800
C1321	C132	0.038100	0.060500	0.723300
C1331	C133	0.728400	0.343400	0.412300
C1341	C134	0.137600	0.907200	0.342400
C1351	C135	0.541300	0.906500	0.095300
C1361	C136	0.104900	0.973000	0.367900
C1371	C137	0.602400	0.129000	0.934800
C1381	C138	0.370600	0.885600	0.065200
C1391	C139	0.211900	0.439500	0.223300
C1401	C140	0.611800	0.100000	0.384700
C1411	C141	0.573500	0.984100	0.333100
C1421	C142	0.288100	0.776700	0.560500
C1431	C143	0.146500	0.936400	0.557000
C1441	C144	0.387600	0.157600	0.407200
C1451	C145	0.197400	0.044000	0.299800
C1461	C146	0.478400	0.912300	0.156600
C1471	C147	0.129400	0.934800	0.114400
C1481	C148	0.485900	0.227500	0.479200
C1491	C149	0.102400	0.871000	0.065200
C1501	C150	0.819700	0.619000	0.505300
C1511	C151	0.073500	0.015900	0.666900
C1521	C152	0.680300	0.494700	0.381000
C1531	C153	0.950500	0.514500	0.720500
C1541	C154	0.697400	0.956000	0.700200
C1551	C155	0.353500	0.443000	0.063600
C1561	C156	0.299500	0.985500	0.220500
C1571	C157	0.395100	0.632100	0.027000
C1581	C158	0.395600	0.947400	0.512600
C1591	C159	0.138200	0.600000	0.115300
C1601	C160	0.926500	0.666900	0.015900
N11	N1	0.757100	0.285500	0.461900
N21	N2	0.742900	0.538100	0.714500
N31	N3	0.834600	0.070100	0.811800
N41	N4	0.682300	0.235300	0.222200
N51	N5	0.007100	0.038100	0.785500
N61	N6	0.567700	0.264700	0.722200
N71	N7	0.165400	0.811800	0.070100
N81	N8	0.817700	0.777800	0.764700
N91	N9	0.084600	0.688200	0.570100
N101	N10	0.334600	0.929900	0.188200
N111	N11	0.415400	0.429900	0.311800
N121	N12	0.067700	0.735300	0.277800
N131	N13	0.317700	0.222200	0.235300
N141	N14	0.507100	0.961900	0.214500
N151	N15	0.992900	0.785500	0.038100
N161	N16	0.915400	0.570100	0.688200
N171	N17	0.932300	0.277800	0.735300
N181	N18	0.492900	0.214500	0.961900
N191	N19	0.257100	0.714500	0.538100
N201	N20	0.584600	0.311800	0.429900
N211	N21	0.665400	0.188200	0.929900
N221	N22	0.432300	0.722200	0.264700
N231	N23	0.182300	0.764700	0.777800
N241	N24	0.242900	0.461900	0.285500
Cl11	Cl1	0.500000	0.105810	0.105810
Cl21	Cl2	0.000000	0.894190	0.894190
Cl31	Cl3	0.250000	0.605810	0.394190
Cl41	Cl4	0.750000	0.394190	0.605810
O11	O1	0.641000	0.241000	0.278900
O21	O2	0.763700	0.267700	0.848490
O31	O3	0.743000	0.774800	0.735200
O41	O4	0.486300	0.232300	0.348490
O51	O5	0.459100	0.271200	0.096900
O61	O6	0.209100	0.596900	0.228800
O71	O7	0.243000	0.225200	0.264800
O81	O8	0.736300	0.151510	0.732300
O91	O9	0.359000	0.278900	0.241000
O101	O10	0.355200	0.162700	0.221400
O111	O11	0.257000	0.735200	0.774800
O121	O12	0.959100	0.728800	0.903100
O131	O13	0.859000	0.721100	0.759000
O141	O14	0.394800	0.662700	0.278600
O151	O15	0.894800	0.337300	0.721400
O161	O16	0.263700	0.732300	0.151510
O171	O17	0.040900	0.903100	0.728800
O181	O18	0.391000	0.778900	0.259000
O191	O19	0.141000	0.759000	0.721100
O201	O20	0.013700	0.651510	0.767700
O211	O21	0.855200	0.837300	0.778600
O221	O22	0.105200	0.721400	0.337300
O231	O23	0.513700	0.348490	0.232300
O241	O24	0.540900	0.096900	0.271200
O251	O25	0.986300	0.767700	0.651510
O261	O26	0.109000	0.741000	0.221100
O271	O27	0.493000	0.235200	0.725200
O281	O28	0.507000	0.725200	0.235200
O291	O29	0.007000	0.274800	0.764800
O301	O30	0.757000	0.264800	0.225200
O311	O31	0.144800	0.778600	0.837300
O321	O32	0.891000	0.221100	0.741000
O331	O33	0.609000	0.259000	0.778900
O341	O34	0.605200	0.278600	0.662700
O351	O35	0.236300	0.848490	0.267700
O361	O36	0.644800	0.221400	0.162700
O371	O37	0.290900	0.771200	0.403100
O381	O38	0.993000	0.764800	0.274800
O391	O39	0.790900	0.228800	0.596900
O401	O40	0.709100	0.403100	0.771200
