data_FUBDAI_clean_PM
_symmetry_space_group_name_H-M	'P1'
_cell_length_a	27.908000
_cell_length_b	13.845000
_cell_length_c	44.236000
_cell_angle_alpha	90.000000
_cell_angle_beta	90.000000
_cell_angle_gamma	90.000000
_symmetry_Int_Tables_number 1

loop_
_symmetry_equiv_pos_as_xyz
'x,y,z'

loop_
_atom_site_label
_atom_site_type_symbol
_atom_site_fract_x
_atom_site_fract_y
_atom_site_fract_z
Zn11	Zn1	0.453740	0.859230	0.087750
Zn21	Zn2	0.239990	0.182580	0.319680
Zn31	Zn3	0.476230	0.619540	0.913830
I11	I1	0.445720	0.676580	0.084090
I21	I2	0.517830	0.947260	0.117660
I31	I3	0.328780	0.187430	0.332490
I41	I4	0.194870	0.340910	0.311810
I51	I5	0.428070	0.706060	0.873750
I61	I6	0.493720	0.695370	0.965530
C11	C1	0.316900	0.853900	0.874280
H11	H1	0.316200	0.785400	0.875100
C21	C2	0.340500	0.903800	0.897300
H21	H2	0.355000	0.870000	0.913600
C31	C3	0.297600	0.994500	0.850320
H31	H3	0.282400	0.026800	0.833900
C41	C4	0.320500	0.049100	0.871900
H41	H4	0.321500	0.117500	0.870300
C51	C5	0.342140	0.002900	0.895880
C61	C6	0.368050	0.058200	0.919510
C71	C7	0.426570	0.434500	0.899680
H51	H5	0.423900	0.463500	0.880300
C81	C8	0.410800	0.341400	0.903330
H61	H6	0.397200	0.307200	0.886800
C91	C9	0.449470	0.444500	0.949550
H71	H7	0.463000	0.480400	0.965700
C101	C10	0.434500	0.351600	0.954980
H81	H8	0.437600	0.324200	0.974600
C111	C11	0.414880	0.298200	0.931400
C121	C12	0.401610	0.195900	0.936090
C131	C13	0.457160	0.012700	0.041170
H91	H9	0.471800	0.048100	0.057100
C141	C14	0.445120	0.060400	0.015020
H101	H10	0.451400	0.127600	0.013000
C151	C15	0.430800	0.867800	0.021940
H111	H11	0.426800	0.800000	0.024100
C161	C16	0.417300	0.910000	0.994770
H121	H12	0.404200	0.872300	0.978800
C171	C17	0.423670	0.009300	0.991590
C181	C18	0.407630	0.059900	0.963870
C191	C19	0.347320	0.892200	0.089890
H131	H13	0.348500	0.871700	0.069400
C201	C20	0.302870	0.908000	0.102860
H141	H14	0.274200	0.898800	0.091600
C211	C21	0.386730	0.936500	0.133450
H151	H15	0.415800	0.948800	0.143900
C221	C22	0.344110	0.951800	0.148000
H161	H16	0.343900	0.972100	0.168500
C231	C23	0.301510	0.937600	0.132890
C241	C24	0.255440	0.951600	0.148860
C251	C25	0.268300	0.065100	0.266680
H171	H17	0.298600	0.065100	0.276500
C261	C26	0.265080	0.026500	0.238020
H181	H18	0.292800	0.002300	0.228100
C271	C27	0.187300	0.098000	0.267690
H191	H19	0.160200	0.123100	0.278100
C281	C28	0.180900	0.057900	0.239310
H201	H20	0.149900	0.054100	0.230600
C291	C29	0.220740	0.023300	0.223790
C301	C30	0.217330	0.989100	0.192300
C311	C31	0.042800	0.931700	0.135850
H211	H21	0.013700	0.935100	0.146900
C321	C32	0.085400	0.946000	0.151110
H221	H22	0.085400	0.959200	0.172200
C331	C33	0.081890	0.910300	0.090910
H231	H23	0.080800	0.898500	0.069800
C341	C34	0.126200	0.923500	0.104670
H241	H24	0.154800	0.920600	0.093100
C351	C35	0.128220	0.940900	0.135070
C361	C36	0.174860	0.952400	0.150450
N11	N1	0.295650	0.898000	0.851390
N21	N2	0.445680	0.486600	0.922350
N31	N3	0.448980	0.917100	0.045120
N41	N4	0.375690	0.152600	0.914960
N51	N5	0.418550	0.153200	0.961180
N61	N6	0.382940	0.008500	0.943710
N71	N7	0.388720	0.904300	0.104680
N81	N8	0.230580	0.102700	0.281090
N91	N9	0.040790	0.913400	0.106340
N101	N10	0.258760	0.976000	0.178110
N111	N11	0.173970	0.978200	0.179900
N121	N12	0.214270	0.938500	0.133990
Zn41	Zn4	0.046260	0.140770	0.587750
Zn51	Zn5	0.260010	0.817420	0.819680
Zn61	Zn6	0.023770	0.380460	0.413830
I71	I7	0.054280	0.323420	0.584090
I81	I8	0.982170	0.052740	0.617660
I91	I9	0.171220	0.812570	0.832490
I101	I10	0.305130	0.659090	0.811810
I111	I11	0.071930	0.293940	0.373750
I121	I12	0.006280	0.304630	0.465530
C371	C37	0.183100	0.146100	0.374280
H251	H25	0.183800	0.214600	0.375100
C381	C38	0.159500	0.096200	0.397300
H261	H26	0.145000	0.130000	0.413600
C391	C39	0.202400	0.005500	0.350320
H271	H27	0.217600	0.973200	0.333900
C401	C40	0.179500	0.950900	0.371900
H281	H28	0.178500	0.882500	0.370300
C411	C41	0.157860	0.997100	0.395880
C421	C42	0.131950	0.941800	0.419510
C431	C43	0.073430	0.565500	0.399680
H291	H29	0.076100	0.536500	0.380300
C441	C44	0.089200	0.658600	0.403330
H301	H30	0.102800	0.692800	0.386800
C451	C45	0.050530	0.555500	0.449550
H311	H31	0.037000	0.519600	0.465700
C461	C46	0.065500	0.648400	0.454980
H321	H32	0.062400	0.675800	0.474600
C471	C47	0.085120	0.701800	0.431400
C481	C48	0.098390	0.804100	0.436090
C491	C49	0.042840	0.987300	0.541170
H331	H33	0.028200	0.951900	0.557100
C501	C50	0.054880	0.939600	0.515020
H341	H34	0.048600	0.872400	0.513000
C511	C51	0.069200	0.132200	0.521940
H351	H35	0.073200	0.200000	0.524100
C521	C52	0.082700	0.090000	0.494770
H361	H36	0.095800	0.127700	0.478800
C531	C53	0.076330	0.990700	0.491590
C541	C54	0.092370	0.940100	0.463870
C551	C55	0.152680	0.107800	0.589890
H371	H37	0.151500	0.128300	0.569400
C561	C56	0.197130	0.092000	0.602860
H381	H38	0.225800	0.101200	0.591600
C571	C57	0.113270	0.063500	0.633450
H391	H39	0.084200	0.051200	0.643900
C581	C58	0.155890	0.048200	0.648000
H401	H40	0.156100	0.027900	0.668500
C591	C59	0.198490	0.062400	0.632890
C601	C60	0.244560	0.048400	0.648860
C611	C61	0.231700	0.934900	0.766680
H411	H41	0.201400	0.934900	0.776500
C621	C62	0.234920	0.973500	0.738020
H421	H42	0.207200	0.997700	0.728100
C631	C63	0.312700	0.902000	0.767690
H431	H43	0.339800	0.876900	0.778100
C641	C64	0.319100	0.942100	0.739310
H441	H44	0.350100	0.945900	0.730600
C651	C65	0.279260	0.976700	0.723790
C661	C66	0.282670	0.010900	0.692300
C671	C67	0.457200	0.068300	0.635850
H451	H45	0.486300	0.064900	0.646900
C681	C68	0.414600	0.054000	0.651110
H461	H46	0.414600	0.040800	0.672200
C691	C69	0.418110	0.089700	0.590910
H471	H47	0.419200	0.101500	0.569800
C701	C70	0.373800	0.076500	0.604670
H481	H48	0.345200	0.079400	0.593100
C711	C71	0.371780	0.059100	0.635070
C721	C72	0.325140	0.047600	0.650450
N131	N13	0.204350	0.102000	0.351390
N141	N14	0.054320	0.513400	0.422350
N151	N15	0.051020	0.082900	0.545120
N161	N16	0.124310	0.847400	0.414960
N171	N17	0.081450	0.846800	0.461180
N181	N18	0.117060	0.991500	0.443710
N191	N19	0.111280	0.095700	0.604680
N201	N20	0.269420	0.897300	0.781090
N211	N21	0.459210	0.086600	0.606340
N221	N22	0.241240	0.024000	0.678110
N231	N23	0.326030	0.021800	0.679900
N241	N24	0.285730	0.061500	0.633990
Zn71	Zn7	0.546260	0.359230	0.412250
Zn81	Zn8	0.760010	0.682580	0.180320
Zn91	Zn9	0.523770	0.119540	0.586170
I131	I13	0.554280	0.176580	0.415910
I141	I14	0.482170	0.447260	0.382340
I151	I15	0.671220	0.687430	0.167510
I161	I16	0.805130	0.840910	0.188190
I171	I17	0.571930	0.206060	0.626250
I181	I18	0.506280	0.195370	0.534470
C731	C73	0.683100	0.353900	0.625720
H491	H49	0.683800	0.285400	0.624900
C741	C74	0.659500	0.403800	0.602700
H501	H50	0.645000	0.370000	0.586400
C751	C75	0.702400	0.494500	0.649680
H511	H51	0.717600	0.526800	0.666100
C761	C76	0.679500	0.549100	0.628100
H521	H52	0.678500	0.617500	0.629700
C771	C77	0.657860	0.502900	0.604120
C781	C78	0.631950	0.558200	0.580490
C791	C79	0.573430	0.934500	0.600320
H531	H53	0.576100	0.963500	0.619700
C801	C80	0.589200	0.841400	0.596670
H541	H54	0.602800	0.807200	0.613200
C811	C81	0.550530	0.944500	0.550450
H551	H55	0.537000	0.980400	0.534300
C821	C82	0.565500	0.851600	0.545020
H561	H56	0.562400	0.824200	0.525400
C831	C83	0.585120	0.798200	0.568600
C841	C84	0.598390	0.695900	0.563910
C851	C85	0.542840	0.512700	0.458830
H571	H57	0.528200	0.548100	0.442900
C861	C86	0.554880	0.560400	0.484980
H581	H58	0.548600	0.627600	0.487000
C871	C87	0.569200	0.367800	0.478060
H591	H59	0.573200	0.300000	0.475900
C881	C88	0.582700	0.410000	0.505230
H601	H60	0.595800	0.372300	0.521200
C891	C89	0.576330	0.509300	0.508410
C901	C90	0.592370	0.559900	0.536130
C911	C91	0.652680	0.392200	0.410110
H611	H61	0.651500	0.371700	0.430600
C921	C92	0.697130	0.408000	0.397140
H621	H62	0.725800	0.398800	0.408400
C931	C93	0.613270	0.436500	0.366550
H631	H63	0.584200	0.448800	0.356100
C941	C94	0.655890	0.451800	0.352000
H641	H64	0.656100	0.472100	0.331500
C951	C95	0.698490	0.437600	0.367110
C961	C96	0.744560	0.451600	0.351140
C971	C97	0.731700	0.565100	0.233320
H651	H65	0.701400	0.565100	0.223500
C981	C98	0.734920	0.526500	0.261980
H661	H66	0.707200	0.502300	0.271900
C991	C99	0.812700	0.598000	0.232310
H671	H67	0.839800	0.623100	0.221900
C1001	C100	0.819100	0.557900	0.260690
H681	H68	0.850100	0.554100	0.269400
C1011	C101	0.779260	0.523300	0.276210
C1021	C102	0.782670	0.489100	0.307700
C1031	C103	0.957200	0.431700	0.364150
H691	H69	0.986300	0.435100	0.353100
C1041	C104	0.914600	0.446000	0.348890
H701	H70	0.914600	0.459200	0.327800
C1051	C105	0.918110	0.410300	0.409090
H711	H71	0.919200	0.398500	0.430200
C1061	C106	0.873800	0.423500	0.395330
H721	H72	0.845200	0.420600	0.406900
C1071	C107	0.871780	0.440900	0.364930
C1081	C108	0.825140	0.452400	0.349550
N251	N25	0.704350	0.398000	0.648610
N261	N26	0.554320	0.986600	0.577650
N271	N27	0.551020	0.417100	0.454880
N281	N28	0.624310	0.652600	0.585040
N291	N29	0.581450	0.653200	0.538820
N301	N30	0.617060	0.508500	0.556290
N311	N31	0.611280	0.404300	0.395320
N321	N32	0.769420	0.602700	0.218910
N331	N33	0.959210	0.413400	0.393660
N341	N34	0.741240	0.476000	0.321890
N351	N35	0.826030	0.478200	0.320100
N361	N36	0.785730	0.438500	0.366010
Zn101	Zn10	0.953740	0.640770	0.912250
Zn111	Zn11	0.739990	0.317420	0.680320
Zn121	Zn12	0.976230	0.880460	0.086170
I191	I19	0.945720	0.823420	0.915910
I201	I20	0.017830	0.552740	0.882340
I211	I21	0.828780	0.312570	0.667510
I221	I22	0.694870	0.159090	0.688190
I231	I23	0.928070	0.793940	0.126250
I241	I24	0.993720	0.804630	0.034470
C1091	C109	0.816900	0.646100	0.125720
H731	H73	0.816200	0.714600	0.124900
C1101	C110	0.840500	0.596200	0.102700
H741	H74	0.855000	0.630000	0.086400
C1111	C111	0.797600	0.505500	0.149680
H751	H75	0.782400	0.473200	0.166100
C1121	C112	0.820500	0.450900	0.128100
H761	H76	0.821500	0.382500	0.129700
C1131	C113	0.842140	0.497100	0.104120
C1141	C114	0.868050	0.441800	0.080490
C1151	C115	0.926570	0.065500	0.100320
H771	H77	0.923900	0.036500	0.119700
C1161	C116	0.910800	0.158600	0.096670
H781	H78	0.897200	0.192800	0.113200
C1171	C117	0.949470	0.055500	0.050450
H791	H79	0.963000	0.019600	0.034300
C1181	C118	0.934500	0.148400	0.045020
H801	H80	0.937600	0.175800	0.025400
C1191	C119	0.914880	0.201800	0.068600
C1201	C120	0.901610	0.304100	0.063910
C1211	C121	0.957160	0.487300	0.958830
H811	H81	0.971800	0.451900	0.942900
C1221	C122	0.945120	0.439600	0.984980
H821	H82	0.951400	0.372400	0.987000
C1231	C123	0.930800	0.632200	0.978060
H831	H83	0.926800	0.700000	0.975900
C1241	C124	0.917300	0.590000	0.005230
H841	H84	0.904200	0.627700	0.021200
C1251	C125	0.923670	0.490700	0.008410
C1261	C126	0.907630	0.440100	0.036130
C1271	C127	0.847320	0.607800	0.910110
H851	H85	0.848500	0.628300	0.930600
C1281	C128	0.802870	0.592000	0.897140
H861	H86	0.774200	0.601200	0.908400
C1291	C129	0.886730	0.563500	0.866550
H871	H87	0.915800	0.551200	0.856100
C1301	C130	0.844110	0.548200	0.852000
H881	H88	0.843900	0.527900	0.831500
C1311	C131	0.801510	0.562400	0.867110
C1321	C132	0.755440	0.548400	0.851140
C1331	C133	0.768300	0.434900	0.733320
H891	H89	0.798600	0.434900	0.723500
C1341	C134	0.765080	0.473500	0.761980
H901	H90	0.792800	0.497700	0.771900
C1351	C135	0.687300	0.402000	0.732310
H911	H91	0.660200	0.376900	0.721900
C1361	C136	0.680900	0.442100	0.760690
H921	H92	0.649900	0.445900	0.769400
C1371	C137	0.720740	0.476700	0.776210
C1381	C138	0.717330	0.510900	0.807700
C1391	C139	0.542800	0.568300	0.864150
H931	H93	0.513700	0.564900	0.853100
C1401	C140	0.585400	0.554000	0.848890
H941	H94	0.585400	0.540800	0.827800
C1411	C141	0.581890	0.589700	0.909090
H951	H95	0.580800	0.601500	0.930200
C1421	C142	0.626200	0.576500	0.895330
H961	H96	0.654800	0.579400	0.906900
C1431	C143	0.628220	0.559100	0.864930
C1441	C144	0.674860	0.547600	0.849550
N371	N37	0.795650	0.602000	0.148610
N381	N38	0.945680	0.013400	0.077650
N391	N39	0.948980	0.582900	0.954880
N401	N40	0.875690	0.347400	0.085040
N411	N41	0.918550	0.346800	0.038820
N421	N42	0.882940	0.491500	0.056290
N431	N43	0.888720	0.595700	0.895320
N441	N44	0.730580	0.397300	0.718910
N451	N45	0.540790	0.586600	0.893660
N461	N46	0.758760	0.524000	0.821890
N471	N47	0.673970	0.521800	0.820100
N481	N48	0.714270	0.561500	0.866010
Zn131	Zn13	0.546260	0.140770	0.912250
Zn141	Zn14	0.760010	0.817420	0.680320
Zn151	Zn15	0.523770	0.380460	0.086170
I251	I25	0.554280	0.323420	0.915910
I261	I26	0.482170	0.052740	0.882340
I271	I27	0.671220	0.812570	0.667510
I281	I28	0.805130	0.659090	0.688190
I291	I29	0.571930	0.293940	0.126250
I301	I30	0.506280	0.304630	0.034470
C1451	C145	0.683100	0.146100	0.125720
H971	H97	0.683800	0.214600	0.124900
C1461	C146	0.659500	0.096200	0.102700
H981	H98	0.645000	0.130000	0.086400
C1471	C147	0.702400	0.005500	0.149680
H991	H99	0.717600	0.973200	0.166100
C1481	C148	0.679500	0.950900	0.128100
H1001	H100	0.678500	0.882500	0.129700
C1491	C149	0.657860	0.997100	0.104120
C1501	C150	0.631950	0.941800	0.080490
C1511	C151	0.573430	0.565500	0.100320
H1011	H101	0.576100	0.536500	0.119700
C1521	C152	0.589200	0.658600	0.096670
H1021	H102	0.602800	0.692800	0.113200
C1531	C153	0.550530	0.555500	0.050450
H1031	H103	0.537000	0.519600	0.034300
C1541	C154	0.565500	0.648400	0.045020
H1041	H104	0.562400	0.675800	0.025400
C1551	C155	0.585120	0.701800	0.068600
C1561	C156	0.598390	0.804100	0.063910
C1571	C157	0.542840	0.987300	0.958830
H1051	H105	0.528200	0.951900	0.942900
C1581	C158	0.554880	0.939600	0.984980
H1061	H106	0.548600	0.872400	0.987000
C1591	C159	0.569200	0.132200	0.978060
H1071	H107	0.573200	0.200000	0.975900
C1601	C160	0.582700	0.090000	0.005230
H1081	H108	0.595800	0.127700	0.021200
C1611	C161	0.576330	0.990700	0.008410
C1621	C162	0.592370	0.940100	0.036130
C1631	C163	0.652680	0.107800	0.910110
H1091	H109	0.651500	0.128300	0.930600
C1641	C164	0.697130	0.092000	0.897140
H1101	H110	0.725800	0.101200	0.908400
C1651	C165	0.613270	0.063500	0.866550
H1111	H111	0.584200	0.051200	0.856100
C1661	C166	0.655890	0.048200	0.852000
H1121	H112	0.656100	0.027900	0.831500
C1671	C167	0.698490	0.062400	0.867110
C1681	C168	0.744560	0.048400	0.851140
C1691	C169	0.731700	0.934900	0.733320
H1131	H113	0.701400	0.934900	0.723500
C1701	C170	0.734920	0.973500	0.761980
H1141	H114	0.707200	0.997700	0.771900
C1711	C171	0.812700	0.902000	0.732310
H1151	H115	0.839800	0.876900	0.721900
C1721	C172	0.819100	0.942100	0.760690
H1161	H116	0.850100	0.945900	0.769400
C1731	C173	0.779260	0.976700	0.776210
C1741	C174	0.782670	0.010900	0.807700
C1751	C175	0.957200	0.068300	0.864150
H1171	H117	0.986300	0.064900	0.853100
C1761	C176	0.914600	0.054000	0.848890
H1181	H118	0.914600	0.040800	0.827800
C1771	C177	0.918110	0.089700	0.909090
H1191	H119	0.919200	0.101500	0.930200
C1781	C178	0.873800	0.076500	0.895330
H1201	H120	0.845200	0.079400	0.906900
C1791	C179	0.871780	0.059100	0.864930
C1801	C180	0.825140	0.047600	0.849550
N491	N49	0.704350	0.102000	0.148610
N501	N50	0.554320	0.513400	0.077650
N511	N51	0.551020	0.082900	0.954880
N521	N52	0.624310	0.847400	0.085040
N531	N53	0.581450	0.846800	0.038820
N541	N54	0.617060	0.991500	0.056290
N551	N55	0.611280	0.095700	0.895320
N561	N56	0.769420	0.897300	0.718910
N571	N57	0.959210	0.086600	0.893660
N581	N58	0.741240	0.024000	0.821890
N591	N59	0.826030	0.021800	0.820100
N601	N60	0.785730	0.061500	0.866010
Zn161	Zn16	0.953740	0.859230	0.412250
Zn171	Zn17	0.739990	0.182580	0.180320
Zn181	Zn18	0.976230	0.619540	0.586170
I311	I31	0.945720	0.676580	0.415910
I321	I32	0.017830	0.947260	0.382340
I331	I33	0.828780	0.187430	0.167510
I341	I34	0.694870	0.340910	0.188190
I351	I35	0.928070	0.706060	0.626250
I361	I36	0.993720	0.695370	0.534470
C1811	C181	0.816900	0.853900	0.625720
H1211	H121	0.816200	0.785400	0.624900
C1821	C182	0.840500	0.903800	0.602700
H1221	H122	0.855000	0.870000	0.586400
C1831	C183	0.797600	0.994500	0.649680
H1231	H123	0.782400	0.026800	0.666100
C1841	C184	0.820500	0.049100	0.628100
H1241	H124	0.821500	0.117500	0.629700
C1851	C185	0.842140	0.002900	0.604120
C1861	C186	0.868050	0.058200	0.580490
C1871	C187	0.926570	0.434500	0.600320
H1251	H125	0.923900	0.463500	0.619700
C1881	C188	0.910800	0.341400	0.596670
H1261	H126	0.897200	0.307200	0.613200
C1891	C189	0.949470	0.444500	0.550450
H1271	H127	0.963000	0.480400	0.534300
C1901	C190	0.934500	0.351600	0.545020
H1281	H128	0.937600	0.324200	0.525400
C1911	C191	0.914880	0.298200	0.568600
C1921	C192	0.901610	0.195900	0.563910
C1931	C193	0.957160	0.012700	0.458830
H1291	H129	0.971800	0.048100	0.442900
C1941	C194	0.945120	0.060400	0.484980
H1301	H130	0.951400	0.127600	0.487000
C1951	C195	0.930800	0.867800	0.478060
H1311	H131	0.926800	0.800000	0.475900
C1961	C196	0.917300	0.910000	0.505230
H1321	H132	0.904200	0.872300	0.521200
C1971	C197	0.923670	0.009300	0.508410
C1981	C198	0.907630	0.059900	0.536130
C1991	C199	0.847320	0.892200	0.410110
H1331	H133	0.848500	0.871700	0.430600
C2001	C200	0.802870	0.908000	0.397140
H1341	H134	0.774200	0.898800	0.408400
C2011	C201	0.886730	0.936500	0.366550
H1351	H135	0.915800	0.948800	0.356100
C2021	C202	0.844110	0.951800	0.352000
H1361	H136	0.843900	0.972100	0.331500
C2031	C203	0.801510	0.937600	0.367110
C2041	C204	0.755440	0.951600	0.351140
C2051	C205	0.768300	0.065100	0.233320
H1371	H137	0.798600	0.065100	0.223500
C2061	C206	0.765080	0.026500	0.261980
H1381	H138	0.792800	0.002300	0.271900
C2071	C207	0.687300	0.098000	0.232310
H1391	H139	0.660200	0.123100	0.221900
C2081	C208	0.680900	0.057900	0.260690
H1401	H140	0.649900	0.054100	0.269400
C2091	C209	0.720740	0.023300	0.276210
C2101	C210	0.717330	0.989100	0.307700
C2111	C211	0.542800	0.931700	0.364150
H1411	H141	0.513700	0.935100	0.353100
C2121	C212	0.585400	0.946000	0.348890
H1421	H142	0.585400	0.959200	0.327800
C2131	C213	0.581890	0.910300	0.409090
H1431	H143	0.580800	0.898500	0.430200
C2141	C214	0.626200	0.923500	0.395330
H1441	H144	0.654800	0.920600	0.406900
C2151	C215	0.628220	0.940900	0.364930
C2161	C216	0.674860	0.952400	0.349550
N611	N61	0.795650	0.898000	0.648610
N621	N62	0.945680	0.486600	0.577650
N631	N63	0.948980	0.917100	0.454880
N641	N64	0.875690	0.152600	0.585040
N651	N65	0.918550	0.153200	0.538820
N661	N66	0.882940	0.008500	0.556290
N671	N67	0.888720	0.904300	0.395320
N681	N68	0.730580	0.102700	0.218910
N691	N69	0.540790	0.913400	0.393660
N701	N70	0.758760	0.976000	0.321890
N711	N71	0.673970	0.978200	0.320100
N721	N72	0.714270	0.938500	0.366010
Zn191	Zn19	0.453740	0.640770	0.587750
Zn201	Zn20	0.239990	0.317420	0.819680
Zn211	Zn21	0.476230	0.880460	0.413830
I371	I37	0.445720	0.823420	0.584090
I381	I38	0.517830	0.552740	0.617660
I391	I39	0.328780	0.312570	0.832490
I401	I40	0.194870	0.159090	0.811810
I411	I41	0.428070	0.793940	0.373750
I421	I42	0.493720	0.804630	0.465530
C2171	C217	0.316900	0.646100	0.374280
H1451	H145	0.316200	0.714600	0.375100
C2181	C218	0.340500	0.596200	0.397300
H1461	H146	0.355000	0.630000	0.413600
C2191	C219	0.297600	0.505500	0.350320
H1471	H147	0.282400	0.473200	0.333900
C2201	C220	0.320500	0.450900	0.371900
H1481	H148	0.321500	0.382500	0.370300
C2211	C221	0.342140	0.497100	0.395880
C2221	C222	0.368050	0.441800	0.419510
C2231	C223	0.426570	0.065500	0.399680
H1491	H149	0.423900	0.036500	0.380300
C2241	C224	0.410800	0.158600	0.403330
H1501	H150	0.397200	0.192800	0.386800
C2251	C225	0.449470	0.055500	0.449550
H1511	H151	0.463000	0.019600	0.465700
C2261	C226	0.434500	0.148400	0.454980
H1521	H152	0.437600	0.175800	0.474600
C2271	C227	0.414880	0.201800	0.431400
C2281	C228	0.401610	0.304100	0.436090
C2291	C229	0.457160	0.487300	0.541170
H1531	H153	0.471800	0.451900	0.557100
C2301	C230	0.445120	0.439600	0.515020
H1541	H154	0.451400	0.372400	0.513000
C2311	C231	0.430800	0.632200	0.521940
H1551	H155	0.426800	0.700000	0.524100
C2321	C232	0.417300	0.590000	0.494770
H1561	H156	0.404200	0.627700	0.478800
C2331	C233	0.423670	0.490700	0.491590
C2341	C234	0.407630	0.440100	0.463870
C2351	C235	0.347320	0.607800	0.589890
H1571	H157	0.348500	0.628300	0.569400
C2361	C236	0.302870	0.592000	0.602860
H1581	H158	0.274200	0.601200	0.591600
C2371	C237	0.386730	0.563500	0.633450
H1591	H159	0.415800	0.551200	0.643900
C2381	C238	0.344110	0.548200	0.648000
H1601	H160	0.343900	0.527900	0.668500
C2391	C239	0.301510	0.562400	0.632890
C2401	C240	0.255440	0.548400	0.648860
C2411	C241	0.268300	0.434900	0.766680
H1611	H161	0.298600	0.434900	0.776500
C2421	C242	0.265080	0.473500	0.738020
H1621	H162	0.292800	0.497700	0.728100
C2431	C243	0.187300	0.402000	0.767690
H1631	H163	0.160200	0.376900	0.778100
C2441	C244	0.180900	0.442100	0.739310
H1641	H164	0.149900	0.445900	0.730600
C2451	C245	0.220740	0.476700	0.723790
C2461	C246	0.217330	0.510900	0.692300
C2471	C247	0.042800	0.568300	0.635850
H1651	H165	0.013700	0.564900	0.646900
C2481	C248	0.085400	0.554000	0.651110
H1661	H166	0.085400	0.540800	0.672200
C2491	C249	0.081890	0.589700	0.590910
H1671	H167	0.080800	0.601500	0.569800
C2501	C250	0.126200	0.576500	0.604670
H1681	H168	0.154800	0.579400	0.593100
C2511	C251	0.128220	0.559100	0.635070
C2521	C252	0.174860	0.547600	0.650450
N731	N73	0.295650	0.602000	0.351390
N741	N74	0.445680	0.013400	0.422350
N751	N75	0.448980	0.582900	0.545120
N761	N76	0.375690	0.347400	0.414960
N771	N77	0.418550	0.346800	0.461180
N781	N78	0.382940	0.491500	0.443710
N791	N79	0.388720	0.595700	0.604680
N801	N80	0.230580	0.397300	0.781090
N811	N81	0.040790	0.586600	0.606340
N821	N82	0.258760	0.524000	0.678110
N831	N83	0.173970	0.521800	0.679900
N841	N84	0.214270	0.561500	0.633990
Zn221	Zn22	0.046260	0.359230	0.087750
Zn231	Zn23	0.260010	0.682580	0.319680
Zn241	Zn24	0.023770	0.119540	0.913830
I431	I43	0.054280	0.176580	0.084090
I441	I44	0.982170	0.447260	0.117660
I451	I45	0.171220	0.687430	0.332490
I461	I46	0.305130	0.840910	0.311810
I471	I47	0.071930	0.206060	0.873750
I481	I48	0.006280	0.195370	0.965530
C2531	C253	0.183100	0.353900	0.874280
H1691	H169	0.183800	0.285400	0.875100
C2541	C254	0.159500	0.403800	0.897300
H1701	H170	0.145000	0.370000	0.913600
C2551	C255	0.202400	0.494500	0.850320
H1711	H171	0.217600	0.526800	0.833900
C2561	C256	0.179500	0.549100	0.871900
H1721	H172	0.178500	0.617500	0.870300
C2571	C257	0.157860	0.502900	0.895880
C2581	C258	0.131950	0.558200	0.919510
C2591	C259	0.073430	0.934500	0.899680
H1731	H173	0.076100	0.963500	0.880300
C2601	C260	0.089200	0.841400	0.903330
H1741	H174	0.102800	0.807200	0.886800
C2611	C261	0.050530	0.944500	0.949550
H1751	H175	0.037000	0.980400	0.965700
C2621	C262	0.065500	0.851600	0.954980
H1761	H176	0.062400	0.824200	0.974600
C2631	C263	0.085120	0.798200	0.931400
C2641	C264	0.098390	0.695900	0.936090
C2651	C265	0.042840	0.512700	0.041170
H1771	H177	0.028200	0.548100	0.057100
C2661	C266	0.054880	0.560400	0.015020
H1781	H178	0.048600	0.627600	0.013000
C2671	C267	0.069200	0.367800	0.021940
H1791	H179	0.073200	0.300000	0.024100
C2681	C268	0.082700	0.410000	0.994770
H1801	H180	0.095800	0.372300	0.978800
C2691	C269	0.076330	0.509300	0.991590
C2701	C270	0.092370	0.559900	0.963870
C2711	C271	0.152680	0.392200	0.089890
H1811	H181	0.151500	0.371700	0.069400
C2721	C272	0.197130	0.408000	0.102860
H1821	H182	0.225800	0.398800	0.091600
C2731	C273	0.113270	0.436500	0.133450
H1831	H183	0.084200	0.448800	0.143900
C2741	C274	0.155890	0.451800	0.148000
H1841	H184	0.156100	0.472100	0.168500
C2751	C275	0.198490	0.437600	0.132890
C2761	C276	0.244560	0.451600	0.148860
C2771	C277	0.231700	0.565100	0.266680
H1851	H185	0.201400	0.565100	0.276500
C2781	C278	0.234920	0.526500	0.238020
H1861	H186	0.207200	0.502300	0.228100
C2791	C279	0.312700	0.598000	0.267690
H1871	H187	0.339800	0.623100	0.278100
C2801	C280	0.319100	0.557900	0.239310
H1881	H188	0.350100	0.554100	0.230600
C2811	C281	0.279260	0.523300	0.223790
C2821	C282	0.282670	0.489100	0.192300
C2831	C283	0.457200	0.431700	0.135850
H1891	H189	0.486300	0.435100	0.146900
C2841	C284	0.414600	0.446000	0.151110
H1901	H190	0.414600	0.459200	0.172200
C2851	C285	0.418110	0.410300	0.090910
H1911	H191	0.419200	0.398500	0.069800
C2861	C286	0.373800	0.423500	0.104670
H1921	H192	0.345200	0.420600	0.093100
C2871	C287	0.371780	0.440900	0.135070
C2881	C288	0.325140	0.452400	0.150450
N851	N85	0.204350	0.398000	0.851390
N861	N86	0.054320	0.986600	0.922350
N871	N87	0.051020	0.417100	0.045120
N881	N88	0.124310	0.652600	0.914960
N891	N89	0.081450	0.653200	0.961180
N901	N90	0.117060	0.508500	0.943710
N911	N91	0.111280	0.404300	0.104680
N921	N92	0.269420	0.602700	0.281090
N931	N93	0.459210	0.413400	0.106340
N941	N94	0.241240	0.476000	0.178110
N951	N95	0.326030	0.478200	0.179900
N961	N96	0.285730	0.438500	0.133990
