data_FUDGES_clean_PM
_symmetry_space_group_name_H-M	'P1'
_cell_length_a	10.289000
_cell_length_b	15.763000
_cell_length_c	24.796000
_cell_angle_alpha	90.000000
_cell_angle_beta	112.650000
_cell_angle_gamma	90.000000
_symmetry_Int_Tables_number 1

loop_
_symmetry_equiv_pos_as_xyz
'x,y,z'

loop_
_atom_site_label
_atom_site_type_symbol
_atom_site_fract_x
_atom_site_fract_y
_atom_site_fract_z
Zn11	Zn1	0.742150	0.853770	0.735070
Zn21	Zn2	0.708400	0.982060	0.855490
O11	O1	0.618400	0.823700	0.784110
O21	O2	0.597300	0.884600	0.860390
O31	O3	0.380000	0.550400	0.713950
O41	O4	0.279600	0.483200	0.766210
O51	O5	0.920600	0.845000	0.809290
O61	O6	0.897700	0.941000	0.870920
O71	O7	0.232500	0.952700	0.072950
O81	O8	0.430000	0.878800	0.099710
O91	O9	0.342400	0.672930	0.934510
C11	C1	0.382900	0.678000	0.887140
C21	C2	0.457800	0.746800	0.880430
H11	H1	0.480600	0.791300	0.907100
C31	C3	0.498700	0.748800	0.833270
C41	C4	0.466100	0.681800	0.794080
H21	H2	0.494700	0.683200	0.762800
C51	C5	0.391100	0.612800	0.801210
C61	C6	0.349500	0.610700	0.848630
H31	H3	0.299900	0.564400	0.854200
C71	C7	0.579000	0.824400	0.824950
C81	C8	0.347600	0.542300	0.758030
C91	C9	0.272400	0.744700	0.942180
C101	C10	0.157700	0.775900	0.896770
H41	H4	0.128000	0.750600	0.860100
C111	C11	0.086000	0.845900	0.906000
C121	C12	0.134000	0.883400	0.961350
H51	H5	0.086100	0.929700	0.968000
C131	C13	0.252900	0.852300	0.006690
C141	C14	0.322500	0.781600	0.997600
H61	H6	0.400700	0.759300	0.027700
C151	C15	0.957700	0.879100	0.857590
C161	C16	0.312400	0.896800	0.065310
Zn31	Zn3	0.257850	0.353770	0.764930
Zn41	Zn4	0.291600	0.482060	0.644510
O101	O10	0.381600	0.323700	0.715890
O111	O11	0.402700	0.384600	0.639610
O121	O12	0.620000	0.050400	0.786050
O131	O13	0.720400	0.983200	0.733790
O141	O14	0.079400	0.345000	0.690710
O151	O15	0.102300	0.441000	0.629080
O161	O16	0.767500	0.452700	0.427050
O171	O17	0.570000	0.378800	0.400290
O181	O18	0.657600	0.172930	0.565490
C171	C17	0.617100	0.178000	0.612860
C181	C18	0.542200	0.246800	0.619570
H71	H7	0.519400	0.291300	0.592900
C191	C19	0.501300	0.248800	0.666730
C201	C20	0.533900	0.181800	0.705920
H81	H8	0.505300	0.183200	0.737200
C211	C21	0.608900	0.112800	0.698790
C221	C22	0.650500	0.110700	0.651370
H91	H9	0.700100	0.064400	0.645800
C231	C23	0.421000	0.324400	0.675050
C241	C24	0.652400	0.042300	0.741970
C251	C25	0.727600	0.244700	0.557820
C261	C26	0.842300	0.275900	0.603230
H101	H10	0.872000	0.250600	0.639900
C271	C27	0.914000	0.345900	0.594000
C281	C28	0.866000	0.383400	0.538650
H111	H11	0.913900	0.429700	0.532000
C291	C29	0.747100	0.352300	0.493310
C301	C30	0.677500	0.281600	0.502400
H121	H12	0.599300	0.259300	0.472300
C311	C31	0.042300	0.379100	0.642410
C321	C32	0.687600	0.396800	0.434690
Zn51	Zn5	0.257850	0.146230	0.264930
Zn61	Zn6	0.291600	0.017940	0.144510
O191	O19	0.381600	0.176300	0.215890
O201	O20	0.402700	0.115400	0.139610
O211	O21	0.620000	0.449600	0.286050
O221	O22	0.720400	0.516800	0.233790
O231	O23	0.079400	0.155000	0.190710
O241	O24	0.102300	0.059000	0.129080
O251	O25	0.767500	0.047300	0.927050
O261	O26	0.570000	0.121200	0.900290
O271	O27	0.657600	0.327070	0.065490
C331	C33	0.617100	0.322000	0.112860
C341	C34	0.542200	0.253200	0.119570
H131	H13	0.519400	0.208700	0.092900
C351	C35	0.501300	0.251200	0.166730
C361	C36	0.533900	0.318200	0.205920
H141	H14	0.505300	0.316800	0.237200
C371	C37	0.608900	0.387200	0.198790
C381	C38	0.650500	0.389300	0.151370
H151	H15	0.700100	0.435600	0.145800
C391	C39	0.421000	0.175600	0.175050
C401	C40	0.652400	0.457700	0.241970
C411	C41	0.727600	0.255300	0.057820
C421	C42	0.842300	0.224100	0.103230
H161	H16	0.872000	0.249400	0.139900
C431	C43	0.914000	0.154100	0.094000
C441	C44	0.866000	0.116600	0.038650
H171	H17	0.913900	0.070300	0.032000
C451	C45	0.747100	0.147700	0.993310
C461	C46	0.677500	0.218400	0.002400
H181	H18	0.599300	0.240700	0.972300
C471	C47	0.042300	0.120900	0.142410
C481	C48	0.687600	0.103200	0.934690
Zn71	Zn7	0.742150	0.646230	0.235070
Zn81	Zn8	0.708400	0.517940	0.355490
O281	O28	0.618400	0.676300	0.284110
O291	O29	0.597300	0.615400	0.360390
O301	O30	0.380000	0.949600	0.213950
O311	O31	0.279600	0.016800	0.266210
O321	O32	0.920600	0.655000	0.309290
O331	O33	0.897700	0.559000	0.370920
O341	O34	0.232500	0.547300	0.572950
O351	O35	0.430000	0.621200	0.599710
O361	O36	0.342400	0.827070	0.434510
C491	C49	0.382900	0.822000	0.387140
C501	C50	0.457800	0.753200	0.380430
H191	H19	0.480600	0.708700	0.407100
C511	C51	0.498700	0.751200	0.333270
C521	C52	0.466100	0.818200	0.294080
H201	H20	0.494700	0.816800	0.262800
C531	C53	0.391100	0.887200	0.301210
C541	C54	0.349500	0.889300	0.348630
H211	H21	0.299900	0.935600	0.354200
C551	C55	0.579000	0.675600	0.324950
C561	C56	0.347600	0.957700	0.258030
C571	C57	0.272400	0.755300	0.442180
C581	C58	0.157700	0.724100	0.396770
H221	H22	0.128000	0.749400	0.360100
C591	C59	0.086000	0.654100	0.406000
C601	C60	0.134000	0.616600	0.461350
H231	H23	0.086100	0.570300	0.468000
C611	C61	0.252900	0.647700	0.506690
C621	C62	0.322500	0.718400	0.497600
H241	H24	0.400700	0.740700	0.527700
C631	C63	0.957700	0.620900	0.357590
C641	C64	0.312400	0.603200	0.565310
