data_FUDHET_clean_PM
_symmetry_space_group_name_H-M	'P1'
_cell_length_a	21.818000
_cell_length_b	14.704000
_cell_length_c	26.282000
_cell_angle_alpha	90.000000
_cell_angle_beta	126.840000
_cell_angle_gamma	90.000000
_symmetry_Int_Tables_number 1

loop_
_symmetry_equiv_pos_as_xyz
'x,y,z'

loop_
_atom_site_label
_atom_site_type_symbol
_atom_site_fract_x
_atom_site_fract_y
_atom_site_fract_z
Co11	Co1	0.352520	0.356840	0.857800
Co21	Co2	0.440700	0.342730	0.782650
Co31	Co3	0.926290	0.310970	0.659160
Co41	Co4	0.820370	0.325450	0.491780
O11	O1	0.387000	0.487700	0.855300
O21	O2	0.419100	0.473300	0.788700
O31	O3	0.521700	0.725300	0.742000
O41	O4	0.526900	0.860800	0.777600
O51	O5	0.550200	0.701300	0.133200
O61	O6	0.448600	0.665900	0.127400
O71	O7	0.185000	0.773900	0.935400
O81	O8	0.177200	0.811400	0.851000
O91	O9	0.442300	0.827200	0.914700
O101	O10	0.333000	0.301500	0.715600
O111	O11	0.275800	0.336600	0.760300
O121	O12	0.000600	0.275800	0.640200
O131	O13	0.929100	0.273200	0.534700
O141	O14	0.998200	0.168400	0.259300
O151	O15	0.959900	0.304900	0.222200
O161	O16	0.082100	0.558300	0.365200
O171	O17	0.135700	0.547600	0.468600
O181	O18	0.124200	0.202900	0.494900
C11	C1	0.446100	0.766300	0.877700
C21	C2	0.426400	0.673500	0.872500
H11	H1	0.408300	0.650500	0.894200
C31	C3	0.434400	0.617600	0.834700
C41	C4	0.463400	0.650400	0.803500
H21	H2	0.469600	0.611300	0.779100
C51	C5	0.482700	0.739200	0.808600
C61	C6	0.475200	0.797900	0.847000
H31	H3	0.490100	0.858400	0.851600
C71	C7	0.412600	0.517100	0.826000
C81	C8	0.512900	0.776500	0.774300
C91	C9	0.411400	0.796100	0.945700
C101	C10	0.459800	0.766100	0.007400
H41	H4	0.512500	0.765700	0.028600
C111	C11	0.429000	0.736700	0.037800
C121	C12	0.347700	0.744200	0.005300
H51	H5	0.326100	0.725200	0.025100
C131	C13	0.302200	0.779300	0.945200
C141	C14	0.333700	0.805400	0.914400
H61	H6	0.302800	0.828700	0.873300
C151	C15	0.476800	0.699600	0.101100
C161	C16	0.216100	0.788500	0.907900
C171	C17	0.126300	0.235700	0.545500
C181	C18	0.198000	0.257600	0.602500
H71	H7	0.242700	0.254600	0.605600
C191	C19	0.199200	0.284300	0.654500
C201	C20	0.134300	0.288300	0.650100
H81	H8	0.136800	0.306700	0.685200
C211	C21	0.064000	0.265200	0.594100
C221	C22	0.059400	0.242400	0.540800
H91	H9	0.012000	0.231600	0.502200
C231	C23	0.275400	0.311100	0.715300
C241	C24	0.991500	0.273900	0.590000
C251	C25	0.100100	0.263900	0.446500
C261	C26	0.062400	0.229800	0.385200
H101	H10	0.053900	0.167500	0.378100
C271	C27	0.037500	0.287600	0.334400
C281	C28	0.049300	0.379700	0.344300
H111	H11	0.031900	0.418300	0.310100
C291	C29	0.087200	0.415800	0.405200
C301	C30	0.112200	0.357500	0.457500
H121	H12	0.136100	0.381100	0.498100
C311	C31	0.995500	0.253000	0.267500
C321	C32	0.102800	0.517700	0.413800
Co51	Co5	0.647480	0.856840	0.642200
Co61	Co6	0.559300	0.842730	0.717350
Co71	Co7	0.073710	0.810970	0.840840
Co81	Co8	0.179630	0.825450	0.008220
O191	O19	0.613000	0.987700	0.644700
O201	O20	0.580900	0.973300	0.711300
O211	O21	0.478300	0.225300	0.758000
O221	O22	0.473100	0.360800	0.722400
O231	O23	0.449800	0.201300	0.366800
O241	O24	0.551400	0.165900	0.372600
O251	O25	0.815000	0.273900	0.564600
O261	O26	0.822800	0.311400	0.649000
O271	O27	0.557700	0.327200	0.585300
O281	O28	0.667000	0.801500	0.784400
O291	O29	0.724200	0.836600	0.739700
O301	O30	0.999400	0.775800	0.859800
O311	O31	0.070900	0.773200	0.965300
O321	O32	0.001800	0.668400	0.240700
O331	O33	0.040100	0.804900	0.277800
O341	O34	0.917900	0.058300	0.134800
O351	O35	0.864300	0.047600	0.031400
O361	O36	0.875800	0.702900	0.005100
C331	C33	0.553900	0.266300	0.622300
C341	C34	0.573600	0.173500	0.627500
H131	H13	0.591700	0.150500	0.605800
C351	C35	0.565600	0.117600	0.665300
C361	C36	0.536600	0.150400	0.696500
H141	H14	0.530400	0.111300	0.720900
C371	C37	0.517300	0.239200	0.691400
C381	C38	0.524800	0.297900	0.653000
H151	H15	0.509900	0.358400	0.648400
C391	C39	0.587400	0.017100	0.674000
C401	C40	0.487100	0.276500	0.725700
C411	C41	0.588600	0.296100	0.554300
C421	C42	0.540200	0.266100	0.492600
H161	H16	0.487500	0.265700	0.471400
C431	C43	0.571000	0.236700	0.462200
C441	C44	0.652300	0.244200	0.494700
H171	H17	0.673900	0.225200	0.474900
C451	C45	0.697800	0.279300	0.554800
C461	C46	0.666300	0.305400	0.585600
H181	H18	0.697200	0.328700	0.626700
C471	C47	0.523200	0.199600	0.398900
C481	C48	0.783900	0.288500	0.592100
C491	C49	0.873700	0.735700	0.954500
C501	C50	0.802000	0.757600	0.897500
H191	H19	0.757300	0.754600	0.894400
C511	C51	0.800800	0.784300	0.845500
C521	C52	0.865700	0.788300	0.849900
H201	H20	0.863200	0.806700	0.814800
C531	C53	0.936000	0.765200	0.905900
C541	C54	0.940600	0.742400	0.959200
H211	H21	0.988000	0.731600	0.997800
C551	C55	0.724600	0.811100	0.784700
C561	C56	0.008500	0.773900	0.910000
C571	C57	0.899900	0.763900	0.053500
C581	C58	0.937600	0.729800	0.114800
H221	H22	0.946100	0.667500	0.121900
C591	C59	0.962500	0.787600	0.165600
C601	C60	0.950700	0.879700	0.155700
H231	H23	0.968100	0.918300	0.189900
C611	C61	0.912800	0.915800	0.094800
C621	C62	0.887800	0.857500	0.042500
H241	H24	0.863900	0.881100	0.001900
C631	C63	0.004500	0.753000	0.232500
C641	C64	0.897200	0.017700	0.086200
Co91	Co9	0.647480	0.643160	0.142200
Co101	Co10	0.559300	0.657270	0.217350
Co111	Co11	0.073710	0.689030	0.340840
Co121	Co12	0.179630	0.674550	0.508220
O371	O37	0.613000	0.512300	0.144700
O381	O38	0.580900	0.526700	0.211300
O391	O39	0.478300	0.274700	0.258000
O401	O40	0.473100	0.139200	0.222400
O411	O41	0.449800	0.298700	0.866800
O421	O42	0.551400	0.334100	0.872600
O431	O43	0.815000	0.226100	0.064600
O441	O44	0.822800	0.188600	0.149000
O451	O45	0.557700	0.172800	0.085300
O461	O46	0.667000	0.698500	0.284400
O471	O47	0.724200	0.663400	0.239700
O481	O48	0.999400	0.724200	0.359800
O491	O49	0.070900	0.726800	0.465300
O501	O50	0.001800	0.831600	0.740700
O511	O51	0.040100	0.695100	0.777800
O521	O52	0.917900	0.441700	0.634800
O531	O53	0.864300	0.452400	0.531400
O541	O54	0.875800	0.797100	0.505100
C651	C65	0.553900	0.233700	0.122300
C661	C66	0.573600	0.326500	0.127500
H251	H25	0.591700	0.349500	0.105800
C671	C67	0.565600	0.382400	0.165300
C681	C68	0.536600	0.349600	0.196500
H261	H26	0.530400	0.388700	0.220900
C691	C69	0.517300	0.260800	0.191400
C701	C70	0.524800	0.202100	0.153000
H271	H27	0.509900	0.141600	0.148400
C711	C71	0.587400	0.482900	0.174000
C721	C72	0.487100	0.223500	0.225700
C731	C73	0.588600	0.203900	0.054300
C741	C74	0.540200	0.233900	0.992600
H281	H28	0.487500	0.234300	0.971400
C751	C75	0.571000	0.263300	0.962200
C761	C76	0.652300	0.255800	0.994700
H291	H29	0.673900	0.274800	0.974900
C771	C77	0.697800	0.220700	0.054800
C781	C78	0.666300	0.194600	0.085600
H301	H30	0.697200	0.171300	0.126700
C791	C79	0.523200	0.300400	0.898900
C801	C80	0.783900	0.211500	0.092100
C811	C81	0.873700	0.764300	0.454500
C821	C82	0.802000	0.742400	0.397500
H311	H31	0.757300	0.745400	0.394400
C831	C83	0.800800	0.715700	0.345500
C841	C84	0.865700	0.711700	0.349900
H321	H32	0.863200	0.693300	0.314800
C851	C85	0.936000	0.734800	0.405900
C861	C86	0.940600	0.757600	0.459200
H331	H33	0.988000	0.768400	0.497800
C871	C87	0.724600	0.688900	0.284700
C881	C88	0.008500	0.726100	0.410000
C891	C89	0.899900	0.736100	0.553500
C901	C90	0.937600	0.770200	0.614800
H341	H34	0.946100	0.832500	0.621900
C911	C91	0.962500	0.712400	0.665600
C921	C92	0.950700	0.620300	0.655700
H351	H35	0.968100	0.581700	0.689900
C931	C93	0.912800	0.584200	0.594800
C941	C94	0.887800	0.642500	0.542500
H361	H36	0.863900	0.618900	0.501900
C951	C95	0.004500	0.747000	0.732500
C961	C96	0.897200	0.482300	0.586200
Co131	Co13	0.352520	0.143160	0.357800
Co141	Co14	0.440700	0.157270	0.282650
Co151	Co15	0.926290	0.189030	0.159160
Co161	Co16	0.820370	0.174550	0.991780
O551	O55	0.387000	0.012300	0.355300
O561	O56	0.419100	0.026700	0.288700
O571	O57	0.521700	0.774700	0.242000
O581	O58	0.526900	0.639200	0.277600
O591	O59	0.550200	0.798700	0.633200
O601	O60	0.448600	0.834100	0.627400
O611	O61	0.185000	0.726100	0.435400
O621	O62	0.177200	0.688600	0.351000
O631	O63	0.442300	0.672800	0.414700
O641	O64	0.333000	0.198500	0.215600
O651	O65	0.275800	0.163400	0.260300
O661	O66	0.000600	0.224200	0.140200
O671	O67	0.929100	0.226800	0.034700
O681	O68	0.998200	0.331600	0.759300
O691	O69	0.959900	0.195100	0.722200
O701	O70	0.082100	0.941700	0.865200
O711	O71	0.135700	0.952400	0.968600
O721	O72	0.124200	0.297100	0.994900
C971	C97	0.446100	0.733700	0.377700
C981	C98	0.426400	0.826500	0.372500
H371	H37	0.408300	0.849500	0.394200
C991	C99	0.434400	0.882400	0.334700
C1001	C100	0.463400	0.849600	0.303500
H381	H38	0.469600	0.888700	0.279100
C1011	C101	0.482700	0.760800	0.308600
C1021	C102	0.475200	0.702100	0.347000
H391	H39	0.490100	0.641600	0.351600
C1031	C103	0.412600	0.982900	0.326000
C1041	C104	0.512900	0.723500	0.274300
C1051	C105	0.411400	0.703900	0.445700
C1061	C106	0.459800	0.733900	0.507400
H401	H40	0.512500	0.734300	0.528600
C1071	C107	0.429000	0.763300	0.537800
C1081	C108	0.347700	0.755800	0.505300
H411	H41	0.326100	0.774800	0.525100
C1091	C109	0.302200	0.720700	0.445200
C1101	C110	0.333700	0.694600	0.414400
H421	H42	0.302800	0.671300	0.373300
C1111	C111	0.476800	0.800400	0.601100
C1121	C112	0.216100	0.711500	0.407900
C1131	C113	0.126300	0.264300	0.045500
C1141	C114	0.198000	0.242400	0.102500
H431	H43	0.242700	0.245400	0.105600
C1151	C115	0.199200	0.215700	0.154500
C1161	C116	0.134300	0.211700	0.150100
H441	H44	0.136800	0.193300	0.185200
C1171	C117	0.064000	0.234800	0.094100
C1181	C118	0.059400	0.257600	0.040800
H451	H45	0.012000	0.268400	0.002200
C1191	C119	0.275400	0.188900	0.215300
C1201	C120	0.991500	0.226100	0.090000
C1211	C121	0.100100	0.236100	0.946500
C1221	C122	0.062400	0.270200	0.885200
H461	H46	0.053900	0.332500	0.878100
C1231	C123	0.037500	0.212400	0.834400
C1241	C124	0.049300	0.120300	0.844300
H471	H47	0.031900	0.081700	0.810100
C1251	C125	0.087200	0.084200	0.905200
C1261	C126	0.112200	0.142500	0.957500
H481	H48	0.136100	0.118900	0.998100
C1271	C127	0.995500	0.247000	0.767500
C1281	C128	0.102800	0.982300	0.913800
