data_FUDHAP_clean_PM
_symmetry_space_group_name_H-M	'P1'
_cell_length_a	10.117000
_cell_length_b	16.767000
_cell_length_c	22.415000
_cell_angle_alpha	90.000000
_cell_angle_beta	90.000000
_cell_angle_gamma	90.000000
_symmetry_Int_Tables_number 1

loop_
_symmetry_equiv_pos_as_xyz
'x,y,z'

loop_
_atom_site_label
_atom_site_type_symbol
_atom_site_fract_x
_atom_site_fract_y
_atom_site_fract_z
Co11	Co1	0.981500	0.884720	0.639370
Co21	Co2	0.767400	0.836120	0.756160
O11	O1	0.001300	0.977600	0.950800
O21	O2	0.950300	0.892500	0.736800
O31	O3	0.015500	0.994400	0.687300
O41	O4	0.156500	0.238700	0.786300
O51	O5	0.050000	0.269900	0.871100
O61	O6	0.389800	0.079000	0.069200
O71	O7	0.304700	0.133500	0.149100
O81	O8	0.691000	0.077400	0.104000
O91	O9	0.818000	0.118000	0.181100
C11	C1	0.015000	0.018800	0.898200
C21	C2	0.997000	0.976100	0.847100
H11	H1	0.972000	0.922900	0.850200
C31	C3	0.013500	0.007400	0.793200
C41	C4	0.051700	0.086500	0.788800
H21	H2	0.067800	0.108600	0.751500
C51	C5	0.066300	0.133200	0.840000
C61	C6	0.043000	0.098600	0.894600
H31	H3	0.046200	0.129400	0.929000
C71	C7	0.017000	0.019200	0.002800
C81	C8	0.907700	0.038800	0.037900
H41	H4	0.823700	0.027600	0.023300
C91	C9	0.918200	0.072800	0.091300
C101	C10	0.045000	0.094100	0.113000
H51	H5	0.054400	0.119200	0.149800
C111	C11	0.156600	0.076100	0.077700
C121	C12	0.143600	0.038300	0.025700
H61	H6	0.218700	0.024300	0.004100
C131	C13	0.990200	0.963800	0.735900
C141	C14	0.092600	0.220700	0.832300
C151	C15	0.801500	0.091600	0.131500
C161	C16	0.292900	0.097800	0.101700
Co31	Co3	0.518500	0.115280	0.139370
Co41	Co4	0.732600	0.163880	0.256160
O101	O10	0.498700	0.022400	0.450800
O111	O11	0.549700	0.107500	0.236800
O121	O12	0.484500	0.005600	0.187300
O131	O13	0.343500	0.761300	0.286300
O141	O14	0.450000	0.730100	0.371100
O151	O15	0.110200	0.921000	0.569200
O161	O16	0.195300	0.866500	0.649100
O171	O17	0.809000	0.922600	0.604000
O181	O18	0.682000	0.882000	0.681100
C171	C17	0.485000	0.981200	0.398200
C181	C18	0.503000	0.023900	0.347100
H71	H7	0.528000	0.077100	0.350200
C191	C19	0.486500	0.992600	0.293200
C201	C20	0.448300	0.913500	0.288800
H81	H8	0.432200	0.891400	0.251500
C211	C21	0.433700	0.866800	0.340000
C221	C22	0.457000	0.901400	0.394600
H91	H9	0.453800	0.870600	0.429000
C231	C23	0.483000	0.980800	0.502800
C241	C24	0.592300	0.961200	0.537900
H101	H10	0.676300	0.972400	0.523300
C251	C25	0.581800	0.927200	0.591300
C261	C26	0.455000	0.905900	0.613000
H111	H11	0.445600	0.880800	0.649800
C271	C27	0.343400	0.923900	0.577700
C281	C28	0.356400	0.961700	0.525700
H121	H12	0.281300	0.975700	0.504100
C291	C29	0.509800	0.036200	0.235900
C301	C30	0.407400	0.779300	0.332300
C311	C31	0.698500	0.908400	0.631500
C321	C32	0.207100	0.902200	0.601700
Co51	Co5	0.018500	0.384720	0.860630
Co61	Co6	0.232600	0.336120	0.743840
O191	O19	0.998700	0.477600	0.549200
O201	O20	0.049700	0.392500	0.763200
O211	O21	0.984500	0.494400	0.812700
O221	O22	0.843500	0.738700	0.713700
O231	O23	0.950000	0.769900	0.628900
O241	O24	0.610200	0.579000	0.430800
O251	O25	0.695300	0.633500	0.350900
O261	O26	0.309000	0.577400	0.396000
O271	O27	0.182000	0.618000	0.318900
C331	C33	0.985000	0.518800	0.601800
C341	C34	0.003000	0.476100	0.652900
H131	H13	0.028000	0.422900	0.649800
C351	C35	0.986500	0.507400	0.706800
C361	C36	0.948300	0.586500	0.711200
H141	H14	0.932200	0.608600	0.748500
C371	C37	0.933700	0.633200	0.660000
C381	C38	0.957000	0.598600	0.605400
H151	H15	0.953800	0.629400	0.571000
C391	C39	0.983000	0.519200	0.497200
C401	C40	0.092300	0.538800	0.462100
H161	H16	0.176300	0.527600	0.476700
C411	C41	0.081800	0.572800	0.408700
C421	C42	0.955000	0.594100	0.387000
H171	H17	0.945600	0.619200	0.350200
C431	C43	0.843400	0.576100	0.422300
C441	C44	0.856400	0.538300	0.474300
H181	H18	0.781300	0.524300	0.495900
C451	C45	0.009800	0.463800	0.764100
C461	C46	0.907400	0.720700	0.667700
C471	C47	0.198500	0.591600	0.368500
C481	C48	0.707100	0.597800	0.398300
Co71	Co7	0.481500	0.615280	0.360630
Co81	Co8	0.267400	0.663880	0.243840
O281	O28	0.501300	0.522400	0.049200
O291	O29	0.450300	0.607500	0.263200
O301	O30	0.515500	0.505600	0.312700
O311	O31	0.656500	0.261300	0.213700
O321	O32	0.550000	0.230100	0.128900
O331	O33	0.889800	0.421000	0.930800
O341	O34	0.804700	0.366500	0.850900
O351	O35	0.191000	0.422600	0.896000
O361	O36	0.318000	0.382000	0.818900
C491	C49	0.515000	0.481200	0.101800
C501	C50	0.497000	0.523900	0.152900
H191	H19	0.472000	0.577100	0.149800
C511	C51	0.513500	0.492600	0.206800
C521	C52	0.551700	0.413500	0.211200
H201	H20	0.567800	0.391400	0.248500
C531	C53	0.566300	0.366800	0.160000
C541	C54	0.543000	0.401400	0.105400
H211	H21	0.546200	0.370600	0.071000
C551	C55	0.517000	0.480800	0.997200
C561	C56	0.407700	0.461200	0.962100
H221	H22	0.323700	0.472400	0.976700
C571	C57	0.418200	0.427200	0.908700
C581	C58	0.545000	0.405900	0.887000
H231	H23	0.554400	0.380800	0.850200
C591	C59	0.656600	0.423900	0.922300
C601	C60	0.643600	0.461700	0.974300
H241	H24	0.718700	0.475700	0.995900
C611	C61	0.490200	0.536200	0.264100
C621	C62	0.592600	0.279300	0.167700
C631	C63	0.301500	0.408400	0.868500
C641	C64	0.792900	0.402200	0.898300
