data_FUFTUX_clean_PM
_symmetry_space_group_name_H-M	'P1'
_cell_length_a	14.370000
_cell_length_b	28.431000
_cell_length_c	17.883000
_cell_angle_alpha	90.000000
_cell_angle_beta	100.673000
_cell_angle_gamma	90.000000
_symmetry_Int_Tables_number 1

loop_
_symmetry_equiv_pos_as_xyz
'x,y,z'

loop_
_atom_site_label
_atom_site_type_symbol
_atom_site_fract_x
_atom_site_fract_y
_atom_site_fract_z
Co11	Co1	0.136560	0.134660	0.442670
Co21	Co2	0.511610	0.149200	0.533660
Na11	Na1	0.331790	0.166950	0.391100
C11	C1	0.262000	0.035820	0.925300
C21	C2	0.224700	0.991110	0.931300
C31	C3	0.265200	0.961180	0.990900
C41	C4	0.346200	0.974890	0.041800
C51	C5	0.386800	0.019240	0.033300
C61	C6	0.343300	0.050040	0.976400
C71	C7	0.211800	0.069680	0.866800
H11	H1	0.146400	0.060100	0.850400
H21	H2	0.212600	0.101000	0.888300
C81	C8	0.141100	0.974240	0.873900
H31	H3	0.140300	0.989400	0.825200
H41	H4	0.144700	0.940500	0.867100
C91	C9	0.215700	0.914620	0.998700
H51	H5	0.237300	0.901300	0.048900
H61	H6	0.147700	0.919100	0.991200
C101	C10	0.389900	0.942940	0.106300
H71	H7	0.450100	0.955600	0.132100
H81	H8	0.348300	0.940000	0.143000
C111	C11	0.475200	0.033930	0.087300
H91	H9	0.520500	0.008300	0.094000
H101	H10	0.503900	0.060600	0.066400
C121	C12	0.381500	0.099000	0.971400
H111	H11	0.449900	0.098300	0.976700
H121	H12	0.354800	0.113200	0.922900
C131	C13	0.227800	0.101800	0.747200
C141	C14	0.149300	0.129990	0.745600
H131	H13	0.113100	0.127600	0.783500
C151	C15	0.125400	0.161820	0.686800
H141	H14	0.072500	0.180800	0.685400
C161	C16	0.178300	0.166100	0.629900
H151	H15	0.161800	0.188200	0.591400
C171	C17	0.255900	0.137230	0.630800
C181	C18	0.280800	0.105020	0.690000
H161	H16	0.333200	0.085600	0.691100
C191	C19	0.312400	0.141170	0.568900
C201	C20	0.974400	0.966240	0.866400
C211	C21	0.899900	0.970460	0.904100
H171	H17	0.907300	0.986600	0.950100
C221	C22	0.813300	0.950300	0.872800
H181	H18	0.762900	0.952300	0.898700
C231	C23	0.801400	0.927560	0.804200
H191	H19	0.743200	0.914300	0.783600
C241	C24	0.875000	0.924370	0.766000
C251	C25	0.962000	0.943700	0.797500
H201	H20	0.012300	0.941400	0.771700
C261	C26	0.861800	0.901210	0.689200
C271	C27	0.194900	0.841420	0.931100
C281	C28	0.203900	0.817960	0.865200
H211	H21	0.236900	0.831600	0.830600
C291	C29	0.163800	0.774170	0.851100
H221	H22	0.168800	0.758500	0.806400
C301	C30	0.116400	0.753430	0.902600
H231	H23	0.089400	0.723800	0.892600
C311	C31	0.108800	0.776320	0.968700
C321	C32	0.145900	0.820960	0.983200
H241	H24	0.138400	0.837000	0.027000
C331	C33	0.424900	0.860130	0.123000
C341	C34	0.380000	0.818240	0.099500
H251	H25	0.331600	0.817700	0.057000
C351	C35	0.406800	0.777120	0.139000
C361	C36	0.475700	0.779140	0.203200
H261	H26	0.494500	0.751800	0.230400
C371	C37	0.517000	0.821300	0.227600
H271	H27	0.562600	0.822300	0.271900
C381	C38	0.492100	0.861960	0.188000
H281	H28	0.520500	0.890400	0.204900
C391	C39	0.355800	0.731530	0.113800
C401	C40	0.467500	0.199540	0.185600
C411	C41	0.406200	0.168280	0.142900
H291	H29	0.358100	0.154400	0.163600
C421	C42	0.415900	0.157420	0.069300
C431	C43	0.486500	0.178810	0.038400
H301	H30	0.492200	0.172400	0.988400
C441	C44	0.547900	0.209430	0.081100
H311	H31	0.595100	0.223800	0.059900
C451	C45	0.540500	0.219110	0.155000
H321	H32	0.584500	0.238800	0.184500
C461	C46	0.452200	0.210640	0.263200
C471	C47	0.567400	0.100700	0.335600
C481	C48	0.499300	0.081290	0.278800
H331	H33	0.436800	0.079100	0.285600
C491	C49	0.524000	0.065180	0.212100
C501	C50	0.617400	0.069120	0.201400
H341	H34	0.634600	0.058300	0.156900
C511	C51	0.683800	0.089360	0.258000
H351	H35	0.745900	0.092500	0.250600
C521	C52	0.660500	0.104810	0.324300
H361	H36	0.706500	0.118000	0.361900
C531	C53	0.542200	0.117240	0.408100
C541	C54	0.060900	0.752570	0.027000
C551	C55	0.635900	0.224930	0.632100
H371	H37	0.601500	0.247200	0.600200
C561	C56	0.707500	0.240330	0.690800
H381	H38	0.719500	0.272300	0.697700
C571	C57	0.758600	0.209100	0.737000
H391	H39	0.806200	0.219400	0.776000
C581	C58	0.740400	0.160430	0.726600
C591	C59	0.667600	0.147890	0.666600
C601	C60	0.644800	0.099200	0.652500
C611	C61	0.697000	0.064450	0.698100
C621	C62	0.771900	0.078800	0.757500
H401	H40	0.807100	0.056100	0.787700
C631	C63	0.792600	0.123800	0.770600
H411	H41	0.842400	0.131900	0.809500
C641	C64	0.670300	0.017460	0.680500
H421	H42	0.703000	0.993100	0.708600
C651	C65	0.597900	0.007580	0.623500
H431	H43	0.579900	0.976600	0.612400
C661	C66	0.549900	0.044320	0.581100
H441	H44	0.500100	0.037100	0.541600
C671	C67	0.233600	0.037410	0.492700
H451	H45	0.278900	0.045600	0.464000
C681	C68	0.242800	0.994200	0.531400
H461	H46	0.293500	0.974500	0.528300
C691	C69	0.177800	0.981500	0.573300
H471	H47	0.183400	0.952900	0.598900
C701	C70	0.103300	0.011070	0.578000
C711	C71	0.098600	0.053860	0.537800
C721	C72	0.024100	0.086630	0.541000
C731	C73	0.954500	0.075200	0.584100
C741	C74	0.960600	0.031700	0.623400
H481	H48	0.914800	0.024400	0.652200
C751	C75	0.028600	0.001500	0.620600
H491	H49	0.029200	0.973200	0.646600
C761	C76	0.954900	0.156900	0.504100
H501	H50	0.954200	0.184900	0.477300
C771	C77	0.883000	0.148600	0.544800
H511	H51	0.835300	0.170800	0.544900
C781	C78	0.883300	0.108000	0.584100
H521	H52	0.835300	0.102000	0.611300
O11	O1	0.057790	0.986090	0.902580
O21	O2	0.239700	0.884120	0.941110
O31	O3	0.403600	0.898080	0.073850
O41	O4	0.452170	0.046420	0.159280
O51	O5	0.354400	0.124760	0.032360
O61	O6	0.260100	0.069560	0.803400
O71	O7	0.932500	0.898970	0.656670
O81	O8	0.783700	0.886630	0.658050
O91	O9	0.460550	0.110730	0.423210
O101	O10	0.605090	0.137980	0.455810
O111	O11	0.391100	0.191420	0.290120
O121	O12	0.507200	0.243470	0.298000
H531	H53	0.494800	0.247800	0.340400
O131	O13	0.044500	0.777090	0.081840
O141	O14	0.041100	0.709890	0.019950
O151	O15	0.400830	0.134920	0.587630
O161	O16	0.271300	0.150670	0.502680
O171	O17	0.271200	0.728980	0.115100
O181	O18	0.405000	0.699760	0.091420
N11	N1	0.572400	0.089100	0.594730
N21	N2	0.615200	0.179660	0.620200
N31	N3	0.163800	0.066510	0.495300
N41	N4	0.023900	0.126860	0.501600
Co31	Co3	0.363440	0.634660	0.057330
Co41	Co4	0.988390	0.649200	0.966340
Na21	Na2	0.168210	0.666950	0.108900
C791	C79	0.238000	0.535820	0.574700
C801	C80	0.275300	0.491110	0.568700
C811	C81	0.234800	0.461180	0.509100
C821	C82	0.153800	0.474890	0.458200
C831	C83	0.113200	0.519240	0.466700
C841	C84	0.156700	0.550040	0.523600
C851	C85	0.288200	0.569680	0.633200
H541	H54	0.353600	0.560100	0.649600
H551	H55	0.287400	0.601000	0.611700
C861	C86	0.358900	0.474240	0.626100
H561	H56	0.359700	0.489400	0.674800
H571	H57	0.355300	0.440500	0.632900
C871	C87	0.284300	0.414620	0.501300
H581	H58	0.262700	0.401300	0.451100
H591	H59	0.352300	0.419100	0.508800
C881	C88	0.110100	0.442940	0.393700
H601	H60	0.049900	0.455600	0.367900
H611	H61	0.151700	0.440000	0.357000
C891	C89	0.024800	0.533930	0.412700
H621	H62	0.979500	0.508300	0.406000
H631	H63	0.996100	0.560600	0.433600
C901	C90	0.118500	0.599000	0.528600
H641	H64	0.050100	0.598300	0.523300
H651	H65	0.145200	0.613200	0.577100
C911	C91	0.272200	0.601800	0.752800
C921	C92	0.350700	0.629990	0.754400
H661	H66	0.386900	0.627600	0.716500
C931	C93	0.374600	0.661820	0.813200
H671	H67	0.427500	0.680800	0.814600
C941	C94	0.321700	0.666100	0.870100
H681	H68	0.338200	0.688200	0.908600
C951	C95	0.244100	0.637230	0.869200
C961	C96	0.219200	0.605020	0.810000
H691	H69	0.166800	0.585600	0.808900
C971	C97	0.187600	0.641170	0.931100
C981	C98	0.525600	0.466240	0.633600
C991	C99	0.600100	0.470460	0.595900
H701	H70	0.592700	0.486600	0.549900
C1001	C100	0.686700	0.450300	0.627200
H711	H71	0.737100	0.452300	0.601300
C1011	C101	0.698600	0.427560	0.695800
H721	H72	0.756800	0.414300	0.716400
C1021	C102	0.625000	0.424370	0.734000
C1031	C103	0.538000	0.443700	0.702500
H731	H73	0.487700	0.441400	0.728300
C1041	C104	0.638200	0.401210	0.810800
C1051	C105	0.305100	0.341420	0.568900
C1061	C106	0.296100	0.317960	0.634800
H741	H74	0.263100	0.331600	0.669400
C1071	C107	0.336200	0.274170	0.648900
H751	H75	0.331200	0.258500	0.693600
C1081	C108	0.383600	0.253430	0.597400
H761	H76	0.410600	0.223800	0.607400
C1091	C109	0.391200	0.276320	0.531300
C1101	C110	0.354100	0.320960	0.516800
H771	H77	0.361600	0.337000	0.473000
C1111	C111	0.075100	0.360130	0.377000
C1121	C112	0.120000	0.318240	0.400500
H781	H78	0.168400	0.317700	0.443000
C1131	C113	0.093200	0.277120	0.361000
C1141	C114	0.024300	0.279140	0.296800
H791	H79	0.005500	0.251800	0.269600
C1151	C115	0.983000	0.321300	0.272400
H801	H80	0.937400	0.322300	0.228100
C1161	C116	0.007900	0.361960	0.312000
H811	H81	0.979500	0.390400	0.295100
C1171	C117	0.144200	0.231530	0.386200
C1181	C118	0.032500	0.699540	0.314400
C1191	C119	0.093800	0.668280	0.357100
H821	H82	0.141900	0.654400	0.336400
C1201	C120	0.084100	0.657420	0.430700
C1211	C121	0.013500	0.678810	0.461600
H831	H83	0.007800	0.672400	0.511600
C1221	C122	0.952100	0.709430	0.418900
H841	H84	0.904900	0.723800	0.440100
C1231	C123	0.959500	0.719110	0.345000
H851	H85	0.915500	0.738800	0.315500
C1241	C124	0.047800	0.710640	0.236800
C1251	C125	0.932600	0.600700	0.164400
C1261	C126	0.000700	0.581290	0.221200
H861	H86	0.063200	0.579100	0.214400
C1271	C127	0.976000	0.565180	0.287900
C1281	C128	0.882600	0.569120	0.298600
H871	H87	0.865400	0.558300	0.343100
C1291	C129	0.816200	0.589360	0.242000
H881	H88	0.754100	0.592500	0.249400
C1301	C130	0.839500	0.604810	0.175700
H891	H89	0.793500	0.618000	0.138100
C1311	C131	0.957800	0.617240	0.091900
C1321	C132	0.439100	0.252570	0.473000
C1331	C133	0.864100	0.724930	0.867900
H901	H90	0.898500	0.747200	0.899800
C1341	C134	0.792500	0.740330	0.809200
H911	H91	0.780500	0.772300	0.802300
C1351	C135	0.741400	0.709100	0.763000
H921	H92	0.693800	0.719400	0.724000
C1361	C136	0.759600	0.660430	0.773400
C1371	C137	0.832400	0.647890	0.833400
C1381	C138	0.855200	0.599200	0.847500
C1391	C139	0.803000	0.564450	0.801900
C1401	C140	0.728100	0.578800	0.742500
H931	H93	0.692900	0.556100	0.712300
C1411	C141	0.707400	0.623800	0.729400
H941	H94	0.657600	0.631900	0.690500
C1421	C142	0.829700	0.517460	0.819500
H951	H95	0.797000	0.493100	0.791400
C1431	C143	0.902100	0.507580	0.876500
H961	H96	0.920100	0.476600	0.887600
C1441	C144	0.950100	0.544320	0.918900
H971	H97	0.999900	0.537100	0.958400
C1451	C145	0.266400	0.537410	0.007300
H981	H98	0.221100	0.545600	0.036000
C1461	C146	0.257200	0.494200	0.968600
H991	H99	0.206500	0.474500	0.971700
C1471	C147	0.322200	0.481500	0.926700
H1001	H100	0.316600	0.452900	0.901100
C1481	C148	0.396700	0.511070	0.922000
C1491	C149	0.401400	0.553860	0.962200
C1501	C150	0.475900	0.586630	0.959000
C1511	C151	0.545500	0.575200	0.915900
C1521	C152	0.539400	0.531700	0.876600
H1011	H101	0.585200	0.524400	0.847800
C1531	C153	0.471400	0.501500	0.879400
H1021	H102	0.470800	0.473200	0.853400
C1541	C154	0.545100	0.656900	0.995900
H1031	H103	0.545800	0.684900	0.022700
C1551	C155	0.617000	0.648600	0.955200
H1041	H104	0.664700	0.670800	0.955100
C1561	C156	0.616700	0.608000	0.915900
H1051	H105	0.664700	0.602000	0.888700
O191	O19	0.442210	0.486090	0.597420
O201	O20	0.260300	0.384120	0.558890
O211	O21	0.096400	0.398080	0.426150
O221	O22	0.047830	0.546420	0.340720
O231	O23	0.145600	0.624760	0.467640
O241	O24	0.239900	0.569560	0.696600
O251	O25	0.567500	0.398970	0.843330
O261	O26	0.716300	0.386630	0.841950
O271	O27	0.039450	0.610730	0.076790
O281	O28	0.894910	0.637980	0.044190
O291	O29	0.108900	0.691420	0.209880
O301	O30	0.992800	0.743470	0.202000
H1061	H106	0.005200	0.747800	0.159600
O311	O31	0.455500	0.277090	0.418160
O321	O32	0.458900	0.209890	0.480050
O331	O33	0.099170	0.634920	0.912370
O341	O34	0.228700	0.650670	0.997320
O351	O35	0.228800	0.228980	0.384900
O361	O36	0.095000	0.199760	0.408580
N51	N5	0.927600	0.589100	0.905270
N61	N6	0.884800	0.679660	0.879800
N71	N7	0.336200	0.566510	0.004700
N81	N8	0.476100	0.626860	0.998400
Co51	Co5	0.863440	0.865340	0.557330
Co61	Co6	0.488390	0.850800	0.466340
Na31	Na3	0.668210	0.833050	0.608900
C1571	C157	0.738000	0.964180	0.074700
C1581	C158	0.775300	0.008890	0.068700
C1591	C159	0.734800	0.038820	0.009100
C1601	C160	0.653800	0.025110	0.958200
C1611	C161	0.613200	0.980760	0.966700
C1621	C162	0.656700	0.949960	0.023600
C1631	C163	0.788200	0.930320	0.133200
H1071	H107	0.853600	0.939900	0.149600
H1081	H108	0.787400	0.899000	0.111700
C1641	C164	0.858900	0.025760	0.126100
H1091	H109	0.859700	0.010600	0.174800
H1101	H110	0.855300	0.059500	0.132900
C1651	C165	0.784300	0.085380	0.001300
H1111	H111	0.762700	0.098700	0.951100
H1121	H112	0.852300	0.080900	0.008800
C1661	C166	0.610100	0.057060	0.893700
H1131	H113	0.549900	0.044400	0.867900
H1141	H114	0.651700	0.060000	0.857000
C1671	C167	0.524800	0.966070	0.912700
H1151	H115	0.479500	0.991700	0.906000
H1161	H116	0.496100	0.939400	0.933600
C1681	C168	0.618500	0.901000	0.028600
H1171	H117	0.550100	0.901700	0.023300
H1181	H118	0.645200	0.886800	0.077100
C1691	C169	0.772200	0.898200	0.252800
C1701	C170	0.850700	0.870010	0.254400
H1191	H119	0.886900	0.872400	0.216500
C1711	C171	0.874600	0.838180	0.313200
H1201	H120	0.927500	0.819200	0.314600
C1721	C172	0.821700	0.833900	0.370100
H1211	H121	0.838200	0.811800	0.408600
C1731	C173	0.744100	0.862770	0.369200
C1741	C174	0.719200	0.894980	0.310000
H1221	H122	0.666800	0.914400	0.308900
C1751	C175	0.687600	0.858830	0.431100
C1761	C176	0.025600	0.033760	0.133600
C1771	C177	0.100100	0.029540	0.095900
H1231	H123	0.092700	0.013400	0.049900
C1781	C178	0.186700	0.049700	0.127200
H1241	H124	0.237100	0.047700	0.101300
C1791	C179	0.198600	0.072440	0.195800
H1251	H125	0.256800	0.085700	0.216400
C1801	C180	0.125000	0.075630	0.234000
C1811	C181	0.038000	0.056300	0.202500
H1261	H126	0.987700	0.058600	0.228300
C1821	C182	0.138200	0.098790	0.310800
C1831	C183	0.805100	0.158580	0.068900
C1841	C184	0.796100	0.182040	0.134800
H1271	H127	0.763100	0.168400	0.169400
C1851	C185	0.836200	0.225830	0.148900
H1281	H128	0.831200	0.241500	0.193600
C1861	C186	0.883600	0.246570	0.097400
H1291	H129	0.910600	0.276200	0.107400
C1871	C187	0.891200	0.223680	0.031300
C1881	C188	0.854100	0.179040	0.016800
H1301	H130	0.861600	0.163000	0.973000
C1891	C189	0.575100	0.139870	0.877000
C1901	C190	0.620000	0.181760	0.900500
H1311	H131	0.668400	0.182300	0.943000
C1911	C191	0.593200	0.222880	0.861000
C1921	C192	0.524300	0.220860	0.796800
H1321	H132	0.505500	0.248200	0.769600
C1931	C193	0.483000	0.178700	0.772400
H1331	H133	0.437400	0.177700	0.728100
C1941	C194	0.507900	0.138040	0.812000
H1341	H134	0.479500	0.109600	0.795100
C1951	C195	0.644200	0.268470	0.886200
C1961	C196	0.532500	0.800460	0.814400
C1971	C197	0.593800	0.831720	0.857100
H1351	H135	0.641900	0.845600	0.836400
C1981	C198	0.584100	0.842580	0.930700
C1991	C199	0.513500	0.821190	0.961600
H1361	H136	0.507800	0.827600	0.011600
C2001	C200	0.452100	0.790570	0.918900
H1371	H137	0.404900	0.776200	0.940100
C2011	C201	0.459500	0.780890	0.845000
H1381	H138	0.415500	0.761200	0.815500
C2021	C202	0.547800	0.789360	0.736800
C2031	C203	0.432600	0.899300	0.664400
C2041	C204	0.500700	0.918710	0.721200
H1391	H139	0.563200	0.920900	0.714400
C2051	C205	0.476000	0.934820	0.787900
C2061	C206	0.382600	0.930880	0.798600
H1401	H140	0.365400	0.941700	0.843100
C2071	C207	0.316200	0.910640	0.742000
H1411	H141	0.254100	0.907500	0.749400
C2081	C208	0.339500	0.895190	0.675700
H1421	H142	0.293500	0.882000	0.638100
C2091	C209	0.457800	0.882760	0.591900
C2101	C210	0.939100	0.247430	0.973000
C2111	C211	0.364100	0.775070	0.367900
H1431	H143	0.398500	0.752800	0.399800
C2121	C212	0.292500	0.759670	0.309200
H1441	H144	0.280500	0.727700	0.302300
C2131	C213	0.241400	0.790900	0.263000
H1451	H145	0.193800	0.780600	0.224000
C2141	C214	0.259600	0.839570	0.273400
C2151	C215	0.332400	0.852110	0.333400
C2161	C216	0.355200	0.900800	0.347500
C2171	C217	0.303000	0.935550	0.301900
C2181	C218	0.228100	0.921200	0.242500
H1461	H146	0.192900	0.943900	0.212300
C2191	C219	0.207400	0.876200	0.229400
H1471	H147	0.157600	0.868100	0.190500
C2201	C220	0.329700	0.982540	0.319500
H1481	H148	0.297000	0.006900	0.291400
C2211	C221	0.402100	0.992420	0.376500
H1491	H149	0.420100	0.023400	0.387600
C2221	C222	0.450100	0.955680	0.418900
H1501	H150	0.499900	0.962900	0.458400
C2231	C223	0.766400	0.962590	0.507300
H1511	H151	0.721100	0.954400	0.536000
C2241	C224	0.757200	0.005800	0.468600
H1521	H152	0.706500	0.025500	0.471700
C2251	C225	0.822200	0.018500	0.426700
H1531	H153	0.816600	0.047100	0.401100
C2261	C226	0.896700	0.988930	0.422000
C2271	C227	0.901400	0.946140	0.462200
C2281	C228	0.975900	0.913370	0.459000
C2291	C229	0.045500	0.924800	0.415900
C2301	C230	0.039400	0.968300	0.376600
H1541	H154	0.085200	0.975600	0.347800
C2311	C231	0.971400	0.998500	0.379400
H1551	H155	0.970800	0.026800	0.353400
C2321	C232	0.045100	0.843100	0.495900
H1561	H156	0.045800	0.815100	0.522700
C2331	C233	0.117000	0.851400	0.455200
H1571	H157	0.164700	0.829200	0.455100
C2341	C234	0.116700	0.892000	0.415900
H1581	H158	0.164700	0.898000	0.388700
O371	O37	0.942210	0.013910	0.097420
O381	O38	0.760300	0.115880	0.058890
O391	O39	0.596400	0.101920	0.926150
O401	O40	0.547830	0.953580	0.840720
O411	O41	0.645600	0.875240	0.967640
O421	O42	0.739900	0.930440	0.196600
O431	O43	0.067500	0.101030	0.343330
O441	O44	0.216300	0.113370	0.341950
O451	O45	0.539450	0.889270	0.576790
O461	O46	0.394910	0.862020	0.544190
O471	O47	0.608900	0.808580	0.709880
O481	O48	0.492800	0.756530	0.702000
H1591	H159	0.505200	0.752200	0.659600
O491	O49	0.955500	0.222910	0.918160
O501	O50	0.958900	0.290110	0.980050
O511	O51	0.599170	0.865080	0.412370
O521	O52	0.728700	0.849330	0.497320
O531	O53	0.728800	0.271020	0.884900
O541	O54	0.595000	0.300240	0.908580
N91	N9	0.427600	0.910900	0.405270
N101	N10	0.384800	0.820340	0.379800
N111	N11	0.836200	0.933490	0.504700
N121	N12	0.976100	0.873140	0.498400
Co71	Co7	0.636560	0.365340	0.942670
Co81	Co8	0.011610	0.350800	0.033660
Na41	Na4	0.831790	0.333050	0.891100
C2351	C235	0.762000	0.464180	0.425300
C2361	C236	0.724700	0.508890	0.431300
C2371	C237	0.765200	0.538820	0.490900
C2381	C238	0.846200	0.525110	0.541800
C2391	C239	0.886800	0.480760	0.533300
C2401	C240	0.843300	0.449960	0.476400
C2411	C241	0.711800	0.430320	0.366800
H1601	H160	0.646400	0.439900	0.350400
H1611	H161	0.712600	0.399000	0.388300
C2421	C242	0.641100	0.525760	0.373900
H1621	H162	0.640300	0.510600	0.325200
H1631	H163	0.644700	0.559500	0.367100
C2431	C243	0.715700	0.585380	0.498700
H1641	H164	0.737300	0.598700	0.548900
H1651	H165	0.647700	0.580900	0.491200
C2441	C244	0.889900	0.557060	0.606300
H1661	H166	0.950100	0.544400	0.632100
H1671	H167	0.848300	0.560000	0.643000
C2451	C245	0.975200	0.466070	0.587300
H1681	H168	0.020500	0.491700	0.594000
H1691	H169	0.003900	0.439400	0.566400
C2461	C246	0.881500	0.401000	0.471400
H1701	H170	0.949900	0.401700	0.476700
H1711	H171	0.854800	0.386800	0.422900
C2471	C247	0.727800	0.398200	0.247200
C2481	C248	0.649300	0.370010	0.245600
H1721	H172	0.613100	0.372400	0.283500
C2491	C249	0.625400	0.338180	0.186800
H1731	H173	0.572500	0.319200	0.185400
C2501	C250	0.678300	0.333900	0.129900
H1741	H174	0.661800	0.311800	0.091400
C2511	C251	0.755900	0.362770	0.130800
C2521	C252	0.780800	0.394980	0.190000
H1751	H175	0.833200	0.414400	0.191100
C2531	C253	0.812400	0.358830	0.068900
C2541	C254	0.474400	0.533760	0.366400
C2551	C255	0.399900	0.529540	0.404100
H1761	H176	0.407300	0.513400	0.450100
C2561	C256	0.313300	0.549700	0.372800
H1771	H177	0.262900	0.547700	0.398700
C2571	C257	0.301400	0.572440	0.304200
H1781	H178	0.243200	0.585700	0.283600
C2581	C258	0.375000	0.575630	0.266000
C2591	C259	0.462000	0.556300	0.297500
H1791	H179	0.512300	0.558600	0.271700
C2601	C260	0.361800	0.598790	0.189200
C2611	C261	0.694900	0.658580	0.431100
C2621	C262	0.703900	0.682040	0.365200
H1801	H180	0.736900	0.668400	0.330600
C2631	C263	0.663800	0.725830	0.351100
H1811	H181	0.668800	0.741500	0.306400
C2641	C264	0.616400	0.746570	0.402600
H1821	H182	0.589400	0.776200	0.392600
C2651	C265	0.608800	0.723680	0.468700
C2661	C266	0.645900	0.679040	0.483200
H1831	H183	0.638400	0.663000	0.527000
C2671	C267	0.924900	0.639870	0.623000
C2681	C268	0.880000	0.681760	0.599500
H1841	H184	0.831600	0.682300	0.557000
C2691	C269	0.906800	0.722880	0.639000
C2701	C270	0.975700	0.720860	0.703200
H1851	H185	0.994500	0.748200	0.730400
C2711	C271	0.017000	0.678700	0.727600
H1861	H186	0.062600	0.677700	0.771900
C2721	C272	0.992100	0.638040	0.688000
H1871	H187	0.020500	0.609600	0.704900
C2731	C273	0.855800	0.768470	0.613800
C2741	C274	0.967500	0.300460	0.685600
C2751	C275	0.906200	0.331720	0.642900
H1881	H188	0.858100	0.345600	0.663600
C2761	C276	0.915900	0.342580	0.569300
C2771	C277	0.986500	0.321190	0.538400
H1891	H189	0.992200	0.327600	0.488400
C2781	C278	0.047900	0.290570	0.581100
H1901	H190	0.095100	0.276200	0.559900
C2791	C279	0.040500	0.280890	0.655000
H1911	H191	0.084500	0.261200	0.684500
C2801	C280	0.952200	0.289360	0.763200
C2811	C281	0.067400	0.399300	0.835600
C2821	C282	0.999300	0.418710	0.778800
H1921	H192	0.936800	0.420900	0.785600
C2831	C283	0.024000	0.434820	0.712100
C2841	C284	0.117400	0.430880	0.701400
H1931	H193	0.134600	0.441700	0.656900
C2851	C285	0.183800	0.410640	0.758000
H1941	H194	0.245900	0.407500	0.750600
C2861	C286	0.160500	0.395190	0.824300
H1951	H195	0.206500	0.382000	0.861900
C2871	C287	0.042200	0.382760	0.908100
C2881	C288	0.560900	0.747430	0.527000
C2891	C289	0.135900	0.275070	0.132100
H1961	H196	0.101500	0.252800	0.100200
C2901	C290	0.207500	0.259670	0.190800
H1971	H197	0.219500	0.227700	0.197700
C2911	C291	0.258600	0.290900	0.237000
H1981	H198	0.306200	0.280600	0.276000
C2921	C292	0.240400	0.339570	0.226600
C2931	C293	0.167600	0.352110	0.166600
C2941	C294	0.144800	0.400800	0.152500
C2951	C295	0.197000	0.435550	0.198100
C2961	C296	0.271900	0.421200	0.257500
H1991	H199	0.307100	0.443900	0.287700
C2971	C297	0.292600	0.376200	0.270600
H2001	H200	0.342400	0.368100	0.309500
C2981	C298	0.170300	0.482540	0.180500
H2011	H201	0.203000	0.506900	0.208600
C2991	C299	0.097900	0.492420	0.123500
H2021	H202	0.079900	0.523400	0.112400
C3001	C300	0.049900	0.455680	0.081100
H2031	H203	0.000100	0.462900	0.041600
C3011	C301	0.733600	0.462590	0.992700
H2041	H204	0.778900	0.454400	0.964000
C3021	C302	0.742800	0.505800	0.031400
H2051	H205	0.793500	0.525500	0.028300
C3031	C303	0.677800	0.518500	0.073300
H2061	H206	0.683400	0.547100	0.098900
C3041	C304	0.603300	0.488930	0.078000
C3051	C305	0.598600	0.446140	0.037800
C3061	C306	0.524100	0.413370	0.041000
C3071	C307	0.454500	0.424800	0.084100
C3081	C308	0.460600	0.468300	0.123400
H2071	H207	0.414800	0.475600	0.152200
C3091	C309	0.528600	0.498500	0.120600
H2081	H208	0.529200	0.526800	0.146600
C3101	C310	0.454900	0.343100	0.004100
H2091	H209	0.454200	0.315100	0.977300
C3111	C311	0.383000	0.351400	0.044800
H2101	H210	0.335300	0.329200	0.044900
C3121	C312	0.383300	0.392000	0.084100
H2111	H211	0.335300	0.398000	0.111300
O551	O55	0.557790	0.513910	0.402580
O561	O56	0.739700	0.615880	0.441110
O571	O57	0.903600	0.601920	0.573850
O581	O58	0.952170	0.453580	0.659280
O591	O59	0.854400	0.375240	0.532360
O601	O60	0.760100	0.430440	0.303400
O611	O61	0.432500	0.601030	0.156670
O621	O62	0.283700	0.613370	0.158050
O631	O63	0.960550	0.389270	0.923210
O641	O64	0.105090	0.362020	0.955810
O651	O65	0.891100	0.308580	0.790120
O661	O66	0.007200	0.256530	0.798000
H2121	H212	0.994800	0.252200	0.840400
O671	O67	0.544500	0.722910	0.581840
O681	O68	0.541100	0.790110	0.519950
O691	O69	0.900830	0.365080	0.087630
O701	O70	0.771300	0.349330	0.002680
O711	O71	0.771200	0.771020	0.615100
O721	O72	0.905000	0.800240	0.591420
N131	N13	0.072400	0.410900	0.094730
N141	N14	0.115200	0.320340	0.120200
N151	N15	0.663800	0.433490	0.995300
N161	N16	0.523900	0.373140	0.001600
