data_FUHNIH_clean_PM
_symmetry_space_group_name_H-M	'P1'
_cell_length_a	15.115300
_cell_length_b	14.878600
_cell_length_c	21.861300
_cell_angle_alpha	90.000000
_cell_angle_beta	90.895000
_cell_angle_gamma	90.000000
_symmetry_Int_Tables_number 1

loop_
_symmetry_equiv_pos_as_xyz
'x,y,z'

loop_
_atom_site_label
_atom_site_type_symbol
_atom_site_fract_x
_atom_site_fract_y
_atom_site_fract_z
Zn11	Zn1	0.273930	0.314870	0.376130
Na11	Na1	0.252830	0.373080	0.517870
C11	C1	0.481100	0.265500	0.505090
C21	C2	0.474900	0.260000	0.568970
C31	C3	0.549500	0.275300	0.605010
H11	H1	0.545600	0.270900	0.647300
C41	C4	0.628800	0.297000	0.579400
H21	H2	0.677800	0.308400	0.604400
C51	C5	0.636200	0.302000	0.516900
H31	H3	0.689900	0.316600	0.499300
C61	C6	0.562600	0.284900	0.480570
C71	C7	0.404400	0.249800	0.461260
C81	C8	0.389800	0.235600	0.599980
C91	C9	0.610700	0.227500	0.384220
C101	C10	0.636200	0.145500	0.408480
H41	H4	0.625300	0.132100	0.449200
C111	C11	0.678500	0.082900	0.371340
C121	C12	0.694200	0.104000	0.310760
H51	H5	0.722600	0.062400	0.286000
C131	C13	0.668300	0.186200	0.286420
C141	C14	0.626900	0.248600	0.323790
H61	H6	0.610300	0.304400	0.308200
C151	C15	0.708000	0.993700	0.397270
C161	C16	0.688700	0.208400	0.220650
O11	O1	0.386100	0.172840	0.444850
O21	O2	0.365430	0.321830	0.443420
O31	O3	0.317690	0.241740	0.569810
O41	O4	0.392500	0.209500	0.653810
O51	O5	0.567040	0.293370	0.417140
O61	O6	0.747780	0.942660	0.360820
O71	O7	0.692500	0.976300	0.451030
O81	O8	0.712500	0.148400	0.185940
O91	O9	0.680000	0.290210	0.205030
Zn21	Zn2	0.773930	0.814870	0.376130
Na21	Na2	0.752830	0.873080	0.517870
C171	C17	0.981100	0.765500	0.505090
C181	C18	0.974900	0.760000	0.568970
C191	C19	0.049500	0.775300	0.605010
H71	H7	0.045600	0.770900	0.647300
C201	C20	0.128800	0.797000	0.579400
H81	H8	0.177800	0.808400	0.604400
C211	C21	0.136200	0.802000	0.516900
H91	H9	0.189900	0.816600	0.499300
C221	C22	0.062600	0.784900	0.480570
C231	C23	0.904400	0.749800	0.461260
C241	C24	0.889800	0.735600	0.599980
C251	C25	0.110700	0.727500	0.384220
C261	C26	0.136200	0.645500	0.408480
H101	H10	0.125300	0.632100	0.449200
C271	C27	0.178500	0.582900	0.371340
C281	C28	0.194200	0.604000	0.310760
H111	H11	0.222600	0.562400	0.286000
C291	C29	0.168300	0.686200	0.286420
C301	C30	0.126900	0.748600	0.323790
H121	H12	0.110300	0.804400	0.308200
C311	C31	0.208000	0.493700	0.397270
C321	C32	0.188700	0.708400	0.220650
O101	O10	0.886100	0.672840	0.444850
O111	O11	0.865430	0.821830	0.443420
O121	O12	0.817690	0.741740	0.569810
O131	O13	0.892500	0.709500	0.653810
O141	O14	0.067040	0.793370	0.417140
O151	O15	0.247780	0.442660	0.360820
O161	O16	0.192500	0.476300	0.451030
O171	O17	0.212500	0.648400	0.185940
O181	O18	0.180000	0.790210	0.205030
Zn31	Zn3	0.726070	0.314870	0.123870
Na31	Na3	0.747170	0.373080	0.982130
C331	C33	0.518900	0.265500	0.994910
C341	C34	0.525100	0.260000	0.931030
C351	C35	0.450500	0.275300	0.894990
H131	H13	0.454400	0.270900	0.852700
C361	C36	0.371200	0.297000	0.920600
H141	H14	0.322200	0.308400	0.895600
C371	C37	0.363800	0.302000	0.983100
H151	H15	0.310100	0.316600	0.000700
C381	C38	0.437400	0.284900	0.019430
C391	C39	0.595600	0.249800	0.038740
C401	C40	0.610200	0.235600	0.900020
C411	C41	0.389300	0.227500	0.115780
C421	C42	0.363800	0.145500	0.091520
H161	H16	0.374700	0.132100	0.050800
C431	C43	0.321500	0.082900	0.128660
C441	C44	0.305800	0.104000	0.189240
H171	H17	0.277400	0.062400	0.214000
C451	C45	0.331700	0.186200	0.213580
C461	C46	0.373100	0.248600	0.176210
H181	H18	0.389700	0.304400	0.191800
C471	C47	0.292000	0.993700	0.102730
C481	C48	0.311300	0.208400	0.279350
O191	O19	0.613900	0.172840	0.055150
O201	O20	0.634570	0.321830	0.056580
O211	O21	0.682310	0.241740	0.930190
O221	O22	0.607500	0.209500	0.846190
O231	O23	0.432960	0.293370	0.082860
O241	O24	0.252220	0.942660	0.139180
O251	O25	0.307500	0.976300	0.048970
O261	O26	0.287500	0.148400	0.314060
O271	O27	0.320000	0.290210	0.294970
Zn41	Zn4	0.226070	0.814870	0.123870
Na41	Na4	0.247170	0.873080	0.982130
C491	C49	0.018900	0.765500	0.994910
C501	C50	0.025100	0.760000	0.931030
C511	C51	0.950500	0.775300	0.894990
H191	H19	0.954400	0.770900	0.852700
C521	C52	0.871200	0.797000	0.920600
H201	H20	0.822200	0.808400	0.895600
C531	C53	0.863800	0.802000	0.983100
H211	H21	0.810100	0.816600	0.000700
C541	C54	0.937400	0.784900	0.019430
C551	C55	0.095600	0.749800	0.038740
C561	C56	0.110200	0.735600	0.900020
C571	C57	0.889300	0.727500	0.115780
C581	C58	0.863800	0.645500	0.091520
H221	H22	0.874700	0.632100	0.050800
C591	C59	0.821500	0.582900	0.128660
C601	C60	0.805800	0.604000	0.189240
H231	H23	0.777400	0.562400	0.214000
C611	C61	0.831700	0.686200	0.213580
C621	C62	0.873100	0.748600	0.176210
H241	H24	0.889700	0.804400	0.191800
C631	C63	0.792000	0.493700	0.102730
C641	C64	0.811300	0.708400	0.279350
O281	O28	0.113900	0.672840	0.055150
O291	O29	0.134570	0.821830	0.056580
O301	O30	0.182310	0.741740	0.930190
O311	O31	0.107500	0.709500	0.846190
O321	O32	0.932960	0.793370	0.082860
O331	O33	0.752220	0.442660	0.139180
O341	O34	0.807500	0.476300	0.048970
O351	O35	0.787500	0.648400	0.314060
O361	O36	0.820000	0.790210	0.294970
Zn51	Zn5	0.726070	0.685130	0.623870
Na51	Na5	0.747170	0.626920	0.482130
C651	C65	0.518900	0.734500	0.494910
C661	C66	0.525100	0.740000	0.431030
C671	C67	0.450500	0.724700	0.394990
H251	H25	0.454400	0.729100	0.352700
C681	C68	0.371200	0.703000	0.420600
H261	H26	0.322200	0.691600	0.395600
C691	C69	0.363800	0.698000	0.483100
H271	H27	0.310100	0.683400	0.500700
C701	C70	0.437400	0.715100	0.519430
C711	C71	0.595600	0.750200	0.538740
C721	C72	0.610200	0.764400	0.400020
C731	C73	0.389300	0.772500	0.615780
C741	C74	0.363800	0.854500	0.591520
H281	H28	0.374700	0.867900	0.550800
C751	C75	0.321500	0.917100	0.628660
C761	C76	0.305800	0.896000	0.689240
H291	H29	0.277400	0.937600	0.714000
C771	C77	0.331700	0.813800	0.713580
C781	C78	0.373100	0.751400	0.676210
H301	H30	0.389700	0.695600	0.691800
C791	C79	0.292000	0.006300	0.602730
C801	C80	0.311300	0.791600	0.779350
O371	O37	0.613900	0.827160	0.555150
O381	O38	0.634570	0.678170	0.556580
O391	O39	0.682310	0.758260	0.430190
O401	O40	0.607500	0.790500	0.346190
O411	O41	0.432960	0.706630	0.582860
O421	O42	0.252220	0.057340	0.639180
O431	O43	0.307500	0.023700	0.548970
O441	O44	0.287500	0.851600	0.814060
O451	O45	0.320000	0.709790	0.794970
Zn61	Zn6	0.226070	0.185130	0.623870
Na61	Na6	0.247170	0.126920	0.482130
C811	C81	0.018900	0.234500	0.494910
C821	C82	0.025100	0.240000	0.431030
C831	C83	0.950500	0.224700	0.394990
H311	H31	0.954400	0.229100	0.352700
C841	C84	0.871200	0.203000	0.420600
H321	H32	0.822200	0.191600	0.395600
C851	C85	0.863800	0.198000	0.483100
H331	H33	0.810100	0.183400	0.500700
C861	C86	0.937400	0.215100	0.519430
C871	C87	0.095600	0.250200	0.538740
C881	C88	0.110200	0.264400	0.400020
C891	C89	0.889300	0.272500	0.615780
C901	C90	0.863800	0.354500	0.591520
H341	H34	0.874700	0.367900	0.550800
C911	C91	0.821500	0.417100	0.628660
C921	C92	0.805800	0.396000	0.689240
H351	H35	0.777400	0.437600	0.714000
C931	C93	0.831700	0.313800	0.713580
C941	C94	0.873100	0.251400	0.676210
H361	H36	0.889700	0.195600	0.691800
C951	C95	0.792000	0.506300	0.602730
C961	C96	0.811300	0.291600	0.779350
O461	O46	0.113900	0.327160	0.555150
O471	O47	0.134570	0.178170	0.556580
O481	O48	0.182310	0.258260	0.430190
O491	O49	0.107500	0.290500	0.346190
O501	O50	0.932960	0.206630	0.582860
O511	O51	0.752220	0.557340	0.639180
O521	O52	0.807500	0.523700	0.548970
O531	O53	0.787500	0.351600	0.814060
O541	O54	0.820000	0.209790	0.794970
Zn71	Zn7	0.273930	0.685130	0.876130
Na71	Na7	0.252830	0.626920	0.017870
C971	C97	0.481100	0.734500	0.005090
C981	C98	0.474900	0.740000	0.068970
C991	C99	0.549500	0.724700	0.105010
H371	H37	0.545600	0.729100	0.147300
C1001	C100	0.628800	0.703000	0.079400
H381	H38	0.677800	0.691600	0.104400
C1011	C101	0.636200	0.698000	0.016900
H391	H39	0.689900	0.683400	0.999300
C1021	C102	0.562600	0.715100	0.980570
C1031	C103	0.404400	0.750200	0.961260
C1041	C104	0.389800	0.764400	0.099980
C1051	C105	0.610700	0.772500	0.884220
C1061	C106	0.636200	0.854500	0.908480
H401	H40	0.625300	0.867900	0.949200
C1071	C107	0.678500	0.917100	0.871340
C1081	C108	0.694200	0.896000	0.810760
H411	H41	0.722600	0.937600	0.786000
C1091	C109	0.668300	0.813800	0.786420
C1101	C110	0.626900	0.751400	0.823790
H421	H42	0.610300	0.695600	0.808200
C1111	C111	0.708000	0.006300	0.897270
C1121	C112	0.688700	0.791600	0.720650
O551	O55	0.386100	0.827160	0.944850
O561	O56	0.365430	0.678170	0.943420
O571	O57	0.317690	0.758260	0.069810
O581	O58	0.392500	0.790500	0.153810
O591	O59	0.567040	0.706630	0.917140
O601	O60	0.747780	0.057340	0.860820
O611	O61	0.692500	0.023700	0.951030
O621	O62	0.712500	0.851600	0.685940
O631	O63	0.680000	0.709790	0.705030
Zn81	Zn8	0.773930	0.185130	0.876130
Na81	Na8	0.752830	0.126920	0.017870
C1131	C113	0.981100	0.234500	0.005090
C1141	C114	0.974900	0.240000	0.068970
C1151	C115	0.049500	0.224700	0.105010
H431	H43	0.045600	0.229100	0.147300
C1161	C116	0.128800	0.203000	0.079400
H441	H44	0.177800	0.191600	0.104400
C1171	C117	0.136200	0.198000	0.016900
H451	H45	0.189900	0.183400	0.999300
C1181	C118	0.062600	0.215100	0.980570
C1191	C119	0.904400	0.250200	0.961260
C1201	C120	0.889800	0.264400	0.099980
C1211	C121	0.110700	0.272500	0.884220
C1221	C122	0.136200	0.354500	0.908480
H461	H46	0.125300	0.367900	0.949200
C1231	C123	0.178500	0.417100	0.871340
C1241	C124	0.194200	0.396000	0.810760
H471	H47	0.222600	0.437600	0.786000
C1251	C125	0.168300	0.313800	0.786420
C1261	C126	0.126900	0.251400	0.823790
H481	H48	0.110300	0.195600	0.808200
C1271	C127	0.208000	0.506300	0.897270
C1281	C128	0.188700	0.291600	0.720650
O641	O64	0.886100	0.327160	0.944850
O651	O65	0.865430	0.178170	0.943420
O661	O66	0.817690	0.258260	0.069810
O671	O67	0.892500	0.290500	0.153810
O681	O68	0.067040	0.206630	0.917140
O691	O69	0.247780	0.557340	0.860820
O701	O70	0.192500	0.523700	0.951030
O711	O71	0.212500	0.351600	0.685940
O721	O72	0.180000	0.209790	0.705030
