data_FUHNED_clean_PM
_symmetry_space_group_name_H-M	'P1'
_cell_length_a	12.821000
_cell_length_b	11.094400
_cell_length_c	19.204200
_cell_angle_alpha	90.000000
_cell_angle_beta	103.325000
_cell_angle_gamma	90.000000
_symmetry_Int_Tables_number 1

loop_
_symmetry_equiv_pos_as_xyz
'x,y,z'

loop_
_atom_site_label
_atom_site_type_symbol
_atom_site_fract_x
_atom_site_fract_y
_atom_site_fract_z
Zn11	Zn1	0.163220	0.820620	0.971690
Ba11	Ba1	0.870840	0.957360	0.887320
O11	O1	0.017970	0.862200	0.010300
O21	O2	0.076050	0.675300	0.016030
O31	O3	0.709750	0.849400	0.131340
O41	O4	0.651380	0.746600	0.375610
O51	O5	0.473190	0.740600	0.359480
O61	O6	0.245080	0.842300	0.117480
O71	O7	0.312780	0.783800	0.026470
O81	O8	0.933610	0.977900	0.127200
O91	O9	0.812390	0.994200	0.023950
C11	C1	0.008700	0.749900	0.025650
C21	C2	0.915300	0.713400	0.055480
C31	C3	0.896300	0.590400	0.062540
H11	H1	0.940100	0.533700	0.047800
C41	C4	0.812600	0.553100	0.091400
H21	H2	0.799800	0.471200	0.095600
C51	C5	0.747100	0.637400	0.114160
H31	H3	0.691000	0.612100	0.133900
C61	C6	0.766300	0.759600	0.107180
C71	C7	0.849600	0.798900	0.077040
C81	C8	0.621200	0.820200	0.158980
C91	C9	0.634300	0.804100	0.231380
H41	H4	0.702400	0.805300	0.261400
C101	C10	0.544600	0.786000	0.259400
C111	C11	0.442800	0.789900	0.213770
H51	H5	0.382400	0.783200	0.232600
C121	C12	0.430800	0.803700	0.140720
C131	C13	0.521300	0.816200	0.112960
H61	H6	0.514500	0.821900	0.063800
C141	C14	0.555900	0.756500	0.337390
C151	C15	0.321100	0.809900	0.091720
C161	C16	0.867700	0.934400	0.076300
Zn21	Zn2	0.336780	0.320620	0.528310
Ba21	Ba2	0.629160	0.457360	0.612680
O101	O10	0.482030	0.362200	0.489700
O111	O11	0.423950	0.175300	0.483970
O121	O12	0.790250	0.349400	0.368660
O131	O13	0.848620	0.246600	0.124390
O141	O14	0.026810	0.240600	0.140520
O151	O15	0.254920	0.342300	0.382520
O161	O16	0.187220	0.283800	0.473530
O171	O17	0.566390	0.477900	0.372800
O181	O18	0.687610	0.494200	0.476050
C171	C17	0.491300	0.249900	0.474350
C181	C18	0.584700	0.213400	0.444520
C191	C19	0.603700	0.090400	0.437460
H71	H7	0.559900	0.033700	0.452200
C201	C20	0.687400	0.053100	0.408600
H81	H8	0.700200	0.971200	0.404400
C211	C21	0.752900	0.137400	0.385840
H91	H9	0.809000	0.112100	0.366100
C221	C22	0.733700	0.259600	0.392820
C231	C23	0.650400	0.298900	0.422960
C241	C24	0.878800	0.320200	0.341020
C251	C25	0.865700	0.304100	0.268620
H101	H10	0.797600	0.305300	0.238600
C261	C26	0.955400	0.286000	0.240600
C271	C27	0.057200	0.289900	0.286230
H111	H11	0.117600	0.283200	0.267400
C281	C28	0.069200	0.303700	0.359280
C291	C29	0.978700	0.316200	0.387040
H121	H12	0.985500	0.321900	0.436200
C301	C30	0.944100	0.256500	0.162610
C311	C31	0.178900	0.309900	0.408280
C321	C32	0.632300	0.434400	0.423700
Zn31	Zn3	0.836780	0.179380	0.028310
Ba31	Ba3	0.129160	0.042640	0.112680
O191	O19	0.982030	0.137800	0.989700
O201	O20	0.923950	0.324700	0.983970
O211	O21	0.290250	0.150600	0.868660
O221	O22	0.348620	0.253400	0.624390
O231	O23	0.526810	0.259400	0.640520
O241	O24	0.754920	0.157700	0.882520
O251	O25	0.687220	0.216200	0.973530
O261	O26	0.066390	0.022100	0.872800
O271	O27	0.187610	0.005800	0.976050
C331	C33	0.991300	0.250100	0.974350
C341	C34	0.084700	0.286600	0.944520
C351	C35	0.103700	0.409600	0.937460
H131	H13	0.059900	0.466300	0.952200
C361	C36	0.187400	0.446900	0.908600
H141	H14	0.200200	0.528800	0.904400
C371	C37	0.252900	0.362600	0.885840
H151	H15	0.309000	0.387900	0.866100
C381	C38	0.233700	0.240400	0.892820
C391	C39	0.150400	0.201100	0.922960
C401	C40	0.378800	0.179800	0.841020
C411	C41	0.365700	0.195900	0.768620
H161	H16	0.297600	0.194700	0.738600
C421	C42	0.455400	0.214000	0.740600
C431	C43	0.557200	0.210100	0.786230
H171	H17	0.617600	0.216800	0.767400
C441	C44	0.569200	0.196300	0.859280
C451	C45	0.478700	0.183800	0.887040
H181	H18	0.485500	0.178100	0.936200
C461	C46	0.444100	0.243500	0.662610
C471	C47	0.678900	0.190100	0.908280
C481	C48	0.132300	0.065600	0.923700
Zn41	Zn4	0.663220	0.679380	0.471690
Ba41	Ba4	0.370840	0.542640	0.387320
O281	O28	0.517970	0.637800	0.510300
O291	O29	0.576050	0.824700	0.516030
O301	O30	0.209750	0.650600	0.631340
O311	O31	0.151380	0.753400	0.875610
O321	O32	0.973190	0.759400	0.859480
O331	O33	0.745080	0.657700	0.617480
O341	O34	0.812780	0.716200	0.526470
O351	O35	0.433610	0.522100	0.627200
O361	O36	0.312390	0.505800	0.523950
C491	C49	0.508700	0.750100	0.525650
C501	C50	0.415300	0.786600	0.555480
C511	C51	0.396300	0.909600	0.562540
H191	H19	0.440100	0.966300	0.547800
C521	C52	0.312600	0.946900	0.591400
H201	H20	0.299800	0.028800	0.595600
C531	C53	0.247100	0.862600	0.614160
H211	H21	0.191000	0.887900	0.633900
C541	C54	0.266300	0.740400	0.607180
C551	C55	0.349600	0.701100	0.577040
C561	C56	0.121200	0.679800	0.658980
C571	C57	0.134300	0.695900	0.731380
H221	H22	0.202400	0.694700	0.761400
C581	C58	0.044600	0.714000	0.759400
C591	C59	0.942800	0.710100	0.713770
H231	H23	0.882400	0.716800	0.732600
C601	C60	0.930800	0.696300	0.640720
C611	C61	0.021300	0.683800	0.612960
H241	H24	0.014500	0.678100	0.563800
C621	C62	0.055900	0.743500	0.837390
C631	C63	0.821100	0.690100	0.591720
C641	C64	0.367700	0.565600	0.576300
