data_FULQUZ_clean_PM
_symmetry_space_group_name_H-M	'P1'
_cell_length_a	11.227000
_cell_length_b	17.434000
_cell_length_c	17.980000
_cell_angle_alpha	90.000000
_cell_angle_beta	90.000000
_cell_angle_gamma	90.000000
_symmetry_Int_Tables_number 1

loop_
_symmetry_equiv_pos_as_xyz
'x,y,z'

loop_
_atom_site_label
_atom_site_type_symbol
_atom_site_fract_x
_atom_site_fract_y
_atom_site_fract_z
La11	La1	0.142600	0.184200	0.480340
La21	La2	0.318510	0.967190	0.479900
La31	La3	0.857400	0.815800	0.980340
La41	La4	0.681490	0.032810	0.979900
La51	La5	0.357400	0.684200	0.480340
La61	La6	0.181490	0.467190	0.479900
La71	La7	0.642600	0.315800	0.980340
La81	La8	0.818510	0.532810	0.979900
H11	H1	0.085600	0.882000	0.669100
H21	H2	0.986300	0.863700	0.789800
H31	H3	0.950100	0.208600	0.673000
H41	H4	0.862800	0.224300	0.798200
H51	H5	0.029800	0.466000	0.288600
H61	H6	0.929900	0.481000	0.168600
H71	H7	0.153000	0.821000	0.461000
H81	H8	0.914400	0.118000	0.169100
H91	H9	0.013700	0.136300	0.289800
H101	H10	0.049900	0.791400	0.173000
H111	H11	0.137200	0.775700	0.298200
H121	H12	0.970200	0.534000	0.788600
H131	H13	0.070100	0.519000	0.668600
H141	H14	0.847000	0.179000	0.961000
H151	H15	0.414400	0.382000	0.669100
H161	H16	0.513700	0.363700	0.789800
H171	H17	0.549900	0.708600	0.673000
H181	H18	0.637200	0.724300	0.798200
H191	H19	0.470200	0.966000	0.288600
H201	H20	0.570100	0.981000	0.168600
H211	H21	0.347000	0.321000	0.461000
H221	H22	0.585600	0.618000	0.169100
H231	H23	0.486300	0.636300	0.289800
H241	H24	0.450100	0.291400	0.173000
H251	H25	0.362800	0.275700	0.298200
H261	H26	0.529800	0.034000	0.788600
H271	H27	0.429900	0.019000	0.668600
H281	H28	0.653000	0.679000	0.961000
C11	C1	0.033700	0.995800	0.668100
C21	C2	0.044500	0.921000	0.694400
C31	C3	0.986500	0.910300	0.763500
C41	C4	0.930700	0.975700	0.788000
C51	C5	0.081400	0.025300	0.594700
C61	C6	0.862100	0.986900	0.856800
C71	C7	0.020700	0.316700	0.679500
C81	C8	0.958100	0.253300	0.701900
C91	C9	0.906800	0.262500	0.773500
C101	C10	0.929300	0.334300	0.802200
C111	C11	0.075400	0.331300	0.605200
C121	C12	0.885500	0.365200	0.873900
C131	C13	0.012800	0.350500	0.281600
C141	C14	0.001200	0.424600	0.260300
C151	C15	0.942600	0.433600	0.192300
C161	C16	0.906300	0.364300	0.164800
C171	C17	0.060700	0.324000	0.354500
C181	C18	0.835200	0.353400	0.097000
C191	C19	0.966300	0.004200	0.168100
C201	C20	0.955500	0.079000	0.194400
C211	C21	0.013500	0.089700	0.263500
C221	C22	0.069300	0.024300	0.288000
C231	C23	0.918600	0.974700	0.094700
C241	C24	0.137900	0.013100	0.356800
C251	C25	0.979300	0.683300	0.179500
C261	C26	0.041900	0.746700	0.201900
C271	C27	0.093200	0.737500	0.273500
C281	C28	0.070700	0.665700	0.302200
C291	C29	0.924600	0.668700	0.105200
C301	C30	0.114500	0.634800	0.373900
C311	C31	0.987200	0.649500	0.781600
C321	C32	0.998800	0.575400	0.760300
C331	C33	0.057400	0.566400	0.692300
C341	C34	0.093700	0.635700	0.664800
C351	C35	0.939300	0.676000	0.854500
C361	C36	0.164800	0.646600	0.597000
C371	C37	0.466300	0.495800	0.668100
C381	C38	0.455500	0.421000	0.694400
C391	C39	0.513500	0.410300	0.763500
C401	C40	0.569300	0.475700	0.788000
C411	C41	0.418600	0.525300	0.594700
C421	C42	0.637900	0.486900	0.856800
C431	C43	0.479300	0.816700	0.679500
C441	C44	0.541900	0.753300	0.701900
C451	C45	0.593200	0.762500	0.773500
C461	C46	0.570700	0.834300	0.802200
C471	C47	0.424600	0.831300	0.605200
C481	C48	0.614500	0.865200	0.873900
C491	C49	0.487200	0.850500	0.281600
C501	C50	0.498800	0.924600	0.260300
C511	C51	0.557400	0.933600	0.192300
C521	C52	0.593700	0.864300	0.164800
C531	C53	0.439300	0.824000	0.354500
C541	C54	0.664800	0.853400	0.097000
C551	C55	0.533700	0.504200	0.168100
C561	C56	0.544500	0.579000	0.194400
C571	C57	0.486500	0.589700	0.263500
C581	C58	0.430700	0.524300	0.288000
C591	C59	0.581400	0.474700	0.094700
C601	C60	0.362100	0.513100	0.356800
C611	C61	0.520700	0.183300	0.179500
C621	C62	0.458100	0.246700	0.201900
C631	C63	0.406800	0.237500	0.273500
C641	C64	0.429300	0.165700	0.302200
C651	C65	0.575400	0.168700	0.105200
C661	C66	0.385500	0.134800	0.373900
C671	C67	0.512800	0.149500	0.781600
C681	C68	0.501200	0.075400	0.760300
C691	C69	0.442600	0.066400	0.692300
C701	C70	0.406300	0.135700	0.664800
C711	C71	0.560700	0.176000	0.854500
C721	C72	0.335200	0.146600	0.597000
S11	S1	0.953700	0.051150	0.727780
S21	S2	0.016500	0.387920	0.745200
S31	S3	0.947200	0.289310	0.219720
S41	S4	0.046300	0.948850	0.227780
S51	S5	0.983500	0.612080	0.245200
S61	S6	0.052800	0.710690	0.719720
S71	S7	0.546300	0.551150	0.727780
S81	S8	0.483500	0.887920	0.745200
S91	S9	0.552800	0.789310	0.219720
S101	S10	0.453700	0.448850	0.227780
S111	S11	0.516500	0.112080	0.245200
S121	S12	0.447200	0.210690	0.719720
O11	O1	0.134400	0.977500	0.554500
O21	O2	0.062400	0.094400	0.581500
O31	O3	0.857700	0.936000	0.905300
O41	O4	0.810400	0.051400	0.865500
O51	O5	0.053000	0.281700	0.556200
O61	O6	0.130600	0.392600	0.597000
O71	O7	0.827400	0.319400	0.914200
O81	O8	0.906600	0.434800	0.888500
O91	O9	0.082300	0.253300	0.364300
O101	O10	0.075200	0.374600	0.403700
O111	O11	0.788400	0.287900	0.085900
O121	O12	0.817900	0.408700	0.053700
O131	O13	0.210800	0.830500	0.485300
O141	O14	0.865600	0.022500	0.054500
O151	O15	0.937600	0.905600	0.081500
O161	O16	0.142300	0.064000	0.405300
O171	O17	0.189600	0.948600	0.365500
O181	O18	0.947000	0.718300	0.056200
O191	O19	0.869400	0.607400	0.097000
O201	O20	0.172600	0.680600	0.414200
O211	O21	0.093400	0.565200	0.388500
O221	O22	0.917700	0.746700	0.864300
O231	O23	0.924800	0.625400	0.903700
O241	O24	0.211600	0.712100	0.585900
O251	O25	0.182100	0.591300	0.553700
O261	O26	0.789200	0.169500	0.985300
O271	O27	0.365600	0.477500	0.554500
O281	O28	0.437600	0.594400	0.581500
O291	O29	0.642300	0.436000	0.905300
O301	O30	0.689600	0.551400	0.865500
O311	O31	0.447000	0.781700	0.556200
O321	O32	0.369400	0.892600	0.597000
O331	O33	0.672600	0.819400	0.914200
O341	O34	0.593400	0.934800	0.888500
O351	O35	0.417700	0.753300	0.364300
O361	O36	0.424800	0.874600	0.403700
O371	O37	0.711600	0.787900	0.085900
O381	O38	0.682100	0.908700	0.053700
O391	O39	0.289200	0.330500	0.485300
O401	O40	0.634400	0.522500	0.054500
O411	O41	0.562400	0.405600	0.081500
O421	O42	0.357700	0.564000	0.405300
O431	O43	0.310400	0.448600	0.365500
O441	O44	0.553000	0.218300	0.056200
O451	O45	0.630600	0.107400	0.097000
O461	O46	0.327400	0.180600	0.414200
O471	O47	0.406600	0.065200	0.388500
O481	O48	0.582300	0.246700	0.864300
O491	O49	0.575200	0.125400	0.903700
O501	O50	0.288400	0.212100	0.585900
O511	O51	0.317900	0.091300	0.553700
O521	O52	0.710800	0.669500	0.985300
