data_FURFOP_clean_PM
_symmetry_space_group_name_H-M	'P1'
_cell_length_a	9.133700
_cell_length_b	14.463500
_cell_length_c	18.034300
_cell_angle_alpha	93.353000
_cell_angle_beta	102.988000
_cell_angle_gamma	91.068000
_symmetry_Int_Tables_number 1

loop_
_symmetry_equiv_pos_as_xyz
'x,y,z'

loop_
_atom_site_label
_atom_site_type_symbol
_atom_site_fract_x
_atom_site_fract_y
_atom_site_fract_z
Zn11	Zn1	0.160310	0.734390	0.599420
Zn21	Zn2	0.853780	0.274610	0.924660
C11	C1	0.716500	0.129600	0.829700
C21	C2	0.592300	0.060200	0.803800
C31	C3	0.479300	0.039400	0.837300
H11	H1	0.469000	0.067600	0.883400
C41	C4	0.380600	0.972200	0.796300
H21	H2	0.296900	0.950300	0.812200
C51	C5	0.416800	0.940700	0.730600
C61	C6	0.342000	0.869800	0.672200
C71	C7	0.761100	0.249700	0.072700
H31	H3	0.690900	0.202500	0.051500
C81	C8	0.795800	0.279900	0.146100
H41	H4	0.753600	0.259000	0.184700
C91	C9	0.929100	0.356600	0.085100
H51	H5	0.997900	0.399200	0.074500
C101	C10	0.985600	0.399400	0.223300
H61	H6	0.092300	0.388800	0.230600
H71	H7	0.952600	0.376700	0.266600
C111	C11	0.961100	0.501300	0.221000
H81	H8	0.855600	0.513200	0.217400
H91	H9	0.989500	0.524400	0.176600
C121	C12	0.056200	0.550400	0.293500
H101	H10	0.026200	0.527400	0.337400
H111	H11	0.161000	0.536400	0.297400
C131	C13	0.040200	0.650900	0.294300
H121	H12	0.934300	0.664800	0.283900
H131	H13	0.082500	0.675300	0.254400
C141	C14	0.225500	0.762200	0.381300
H141	H14	0.271200	0.787200	0.345400
C151	C15	0.255000	0.785200	0.455600
H151	H15	0.325800	0.830300	0.480500
C161	C16	0.084500	0.681000	0.434200
H161	H16	0.011700	0.638300	0.440600
C171	C17	0.131200	0.231700	0.866800
H171	H17	0.083100	0.187700	0.829100
C181	C18	0.276300	0.259900	0.879300
H181	H18	0.346100	0.238800	0.852400
C191	C19	0.174100	0.332700	0.960800
H191	H19	0.161600	0.371900	0.001400
C201	C20	0.442500	0.371500	0.975900
H201	H20	0.520300	0.352400	0.950000
H211	H21	0.471400	0.353600	0.028100
C211	C21	0.429900	0.475900	0.975900
H221	H22	0.414600	0.494700	0.924000
H231	H23	0.343600	0.494200	0.995600
C221	C22	0.860400	0.775000	0.635200
H241	H24	0.899600	0.827400	0.666100
C231	C23	0.716500	0.746400	0.619200
H251	H25	0.638800	0.774400	0.636700
C241	C24	0.844000	0.652500	0.562000
H261	H26	0.867800	0.602900	0.532200
C251	C25	0.563600	0.621400	0.530700
H271	H27	0.484300	0.637600	0.556500
H281	H28	0.536300	0.643100	0.479700
C261	C26	0.574800	0.522200	0.525600
H291	H29	0.591800	0.499000	0.576100
H301	H30	0.659000	0.505500	0.503500
C271	C27	0.709500	0.441200	0.849300
C281	C28	0.577500	0.448400	0.784700
C291	C29	0.498400	0.377000	0.740900
H311	H31	0.520600	0.315200	0.747500
C301	C30	0.380100	0.406200	0.684900
H321	H32	0.314900	0.365800	0.650200
C311	C31	0.370600	0.498600	0.686600
C321	C32	0.260600	0.555800	0.637100
O11	O1	0.728900	0.164200	0.896740
O21	O2	0.798000	0.149200	0.787400
O31	O3	0.213400	0.840100	0.676540
O41	O4	0.405000	0.842400	0.621590
O51	O5	0.745200	0.359300	0.860000
O61	O6	0.769100	0.510100	0.885100
O71	O7	0.163300	0.519500	0.584680
O81	O8	0.278800	0.641500	0.654980
N11	N1	0.844300	0.298500	0.033750
N21	N2	0.904700	0.347100	0.153600
N31	N3	0.116400	0.695800	0.368020
N41	N4	0.168100	0.733900	0.489860
N51	N5	0.066400	0.277800	0.918200
N61	N6	0.301800	0.324800	0.938400
N71	N7	0.941600	0.716300	0.599710
N81	N8	0.705800	0.668600	0.572300
S11	S1	0.576340	0.995780	0.719720
S21	S2	0.507390	0.551870	0.757690
Zn31	Zn3	0.839690	0.265610	0.400580
Zn41	Zn4	0.146220	0.725390	0.075340
C331	C33	0.283500	0.870400	0.170300
C341	C34	0.407700	0.939800	0.196200
C351	C35	0.520700	0.960600	0.162700
H331	H33	0.531000	0.932400	0.116600
C361	C36	0.619400	0.027800	0.203700
H341	H34	0.703100	0.049700	0.187800
C371	C37	0.583200	0.059300	0.269400
C381	C38	0.658000	0.130200	0.327800
C391	C39	0.238900	0.750300	0.927300
H351	H35	0.309100	0.797500	0.948500
C401	C40	0.204200	0.720100	0.853900
H361	H36	0.246400	0.741000	0.815300
C411	C41	0.070900	0.643400	0.914900
H371	H37	0.002100	0.600800	0.925500
C421	C42	0.014400	0.600600	0.776700
H381	H38	0.907700	0.611200	0.769400
H391	H39	0.047400	0.623300	0.733400
C431	C43	0.038900	0.498700	0.779000
H401	H40	0.144400	0.486800	0.782600
H411	H41	0.010500	0.475600	0.823400
C441	C44	0.943800	0.449600	0.706500
H421	H42	0.973800	0.472600	0.662600
H431	H43	0.839000	0.463600	0.702600
C451	C45	0.959800	0.349100	0.705700
H441	H44	0.065700	0.335200	0.716100
H451	H45	0.917500	0.324700	0.745600
C461	C46	0.774500	0.237800	0.618700
H461	H46	0.728800	0.212800	0.654600
C471	C47	0.745000	0.214800	0.544400
H471	H47	0.674200	0.169700	0.519500
C481	C48	0.915500	0.319000	0.565800
H481	H48	0.988300	0.361700	0.559400
C491	C49	0.868800	0.768300	0.133200
H491	H49	0.916900	0.812300	0.170900
C501	C50	0.723700	0.740100	0.120700
H501	H50	0.653900	0.761200	0.147600
C511	C51	0.825900	0.667300	0.039200
H511	H51	0.838400	0.628100	0.998600
C521	C52	0.557500	0.628500	0.024100
H521	H52	0.479700	0.647600	0.050000
H531	H53	0.528600	0.646400	0.971900
C531	C53	0.570100	0.524100	0.024100
H541	H54	0.585400	0.505300	0.076000
H551	H55	0.656400	0.505800	0.004400
C541	C54	0.139600	0.225000	0.364800
H561	H56	0.100400	0.172600	0.333900
C551	C55	0.283500	0.253600	0.380800
H571	H57	0.361200	0.225600	0.363300
C561	C56	0.156000	0.347500	0.438000
H581	H58	0.132200	0.397100	0.467800
C571	C57	0.436400	0.378600	0.469300
H591	H59	0.515700	0.362400	0.443500
H601	H60	0.463700	0.356900	0.520300
C581	C58	0.425200	0.477800	0.474400
H611	H61	0.408200	0.501000	0.423900
H621	H62	0.341000	0.494500	0.496500
C591	C59	0.290500	0.558800	0.150700
C601	C60	0.422500	0.551600	0.215300
C611	C61	0.501600	0.623000	0.259100
H631	H63	0.479400	0.684800	0.252500
C621	C62	0.619900	0.593800	0.315100
H641	H64	0.685100	0.634200	0.349800
C631	C63	0.629400	0.501400	0.313400
C641	C64	0.739400	0.444200	0.362900
O91	O9	0.271100	0.835800	0.103260
O101	O10	0.202000	0.850800	0.212600
O111	O11	0.786600	0.159900	0.323460
O121	O12	0.595000	0.157600	0.378410
O131	O13	0.254800	0.640700	0.140000
O141	O14	0.230900	0.489900	0.114900
O151	O15	0.836700	0.480500	0.415320
O161	O16	0.721200	0.358500	0.345020
N91	N9	0.155700	0.701500	0.966250
N101	N10	0.095300	0.652900	0.846400
N111	N11	0.883600	0.304200	0.631980
N121	N12	0.831900	0.266100	0.510140
N131	N13	0.933600	0.722200	0.081800
N141	N14	0.698200	0.675200	0.061600
N151	N15	0.058400	0.283700	0.400290
N161	N16	0.294200	0.331400	0.427700
S31	S3	0.423660	0.004220	0.280280
S41	S4	0.492610	0.448130	0.242310
