data_FURQOZ01_ion_b_PM
_symmetry_space_group_name_H-M	'P1'
_cell_length_a	34.538300
_cell_length_b	34.538300
_cell_length_c	8.516900
_cell_angle_alpha	90.000000
_cell_angle_beta	90.000000
_cell_angle_gamma	120.000000
_symmetry_Int_Tables_number 1

loop_
_symmetry_equiv_pos_as_xyz
'x,y,z'

loop_
_atom_site_label
_atom_site_type_symbol
_atom_site_fract_x
_atom_site_fract_y
_atom_site_fract_z
Ag11	Ag1	0.317470	0.146050	0.493920
O21	O2	0.994130	0.666870	0.576030
N31	N3	0.336890	0.205060	0.343900
N41	N4	0.196440	0.276110	0.396300
C51	C5	0.372030	0.218780	0.249200
H61	H6	0.386900	0.202500	0.247000
C71	C7	0.054010	0.589060	0.488130
H81	H8	0.745330	0.930870	0.756670
C91	C9	0.032580	0.613460	0.490530
H101	H10	0.042670	0.638930	0.428630
C111	C11	0.995590	0.599590	0.586630
C121	C12	0.315620	0.228500	0.345000
H131	H13	0.290900	0.219100	0.410000
C141	C14	0.972790	0.626670	0.594930
C151	C15	0.257210	0.270440	0.288800
C161	C16	0.894660	0.562540	0.559830
H171	H17	0.905170	0.546630	0.503030
C181	C18	0.182910	0.212060	0.250000
H191	H19	0.162400	0.184400	0.208000
C201	C20	0.168540	0.235950	0.335800
H211	H21	0.138000	0.223700	0.352800
C221	C22	0.239950	0.292750	0.372000
H231	H23	0.259800	0.320800	0.413000
C241	C24	0.407610	0.152070	0.531900
O251	O25	0.721280	0.821310	0.312970
O261	O26	0.394930	0.143930	0.396200
C271	C27	0.788170	0.827870	0.231970
F281	F28	0.472900	0.150480	0.450500
F291	F29	0.815160	0.869970	0.263970
F301	F30	0.787770	0.802250	0.353370
Ag311	Ag31	0.984140	0.479380	0.827250
O321	O32	0.660790	0.000210	0.909370
N331	N33	0.003560	0.538390	0.677230
N341	N34	0.863110	0.609440	0.729630
C351	C35	0.038700	0.552110	0.582530
H361	H36	0.053570	0.535830	0.580330
C371	C37	0.720670	0.922400	0.821470
H381	H38	0.412000	0.264200	0.090000
C391	C39	0.699240	0.946800	0.823870
H401	H40	0.709330	0.972270	0.761970
C411	C41	0.662250	0.932930	0.919970
C421	C42	0.982290	0.561830	0.678330
H431	H43	0.957570	0.552430	0.743330
C441	C44	0.639450	0.960010	0.928270
C451	C45	0.923880	0.603770	0.622130
C461	C46	0.561320	0.895880	0.893170
H471	H47	0.571830	0.879970	0.836370
C481	C48	0.849580	0.545390	0.583330
H491	H49	0.829070	0.517730	0.541330
C501	C50	0.835210	0.569280	0.669130
H511	H51	0.804670	0.557030	0.686130
C521	C52	0.906620	0.626080	0.705330
H531	H53	0.926470	0.654130	0.746330
C541	C54	0.074280	0.485400	0.865230
O551	O55	0.387950	0.154640	0.646300
O561	O56	0.061600	0.477260	0.729530
C571	C57	0.454840	0.161200	0.565300
F581	F58	0.139570	0.483810	0.783830
F591	F59	0.481830	0.203300	0.597300
F601	F60	0.454440	0.135580	0.686700
Ag611	Ag61	0.650810	0.812710	0.160580
O621	O62	0.327460	0.333540	0.242700
N631	N63	0.670220	0.871730	0.010570
N641	N64	0.529770	0.942780	0.062970
C651	C65	0.705360	0.885450	0.915870
H661	H66	0.720230	0.869170	0.913670
C671	C67	0.387340	0.255730	0.154800
H681	H68	0.078670	0.597530	0.423330
C691	C69	0.365910	0.280130	0.157200
H701	H70	0.376000	0.305600	0.095300
C711	C71	0.328920	0.266260	0.253300
C721	C72	0.648950	0.895170	0.011670
H731	H73	0.624230	0.885770	0.076670
C741	C74	0.306120	0.293340	0.261600
C751	C75	0.590540	0.937110	0.955470
C761	C76	0.227990	0.229210	0.226500
H771	H77	0.238500	0.213300	0.169700
C781	C78	0.516240	0.878730	0.916670
H791	H79	0.495730	0.851070	0.874670
C801	C80	0.501870	0.902620	0.002470
H811	H81	0.471330	0.890370	0.019470
C821	C82	0.573280	0.959420	0.038670
H831	H83	0.593130	0.987470	0.079670
C841	C84	0.740940	0.818740	0.198570
O851	O85	0.054620	0.487970	0.979630
O861	O86	0.728260	0.810600	0.062870
C871	C87	0.121510	0.494530	0.898630
F881	F88	0.806230	0.817150	0.117170
F891	F89	0.148500	0.536630	0.930630
F901	F90	0.121110	0.468910	0.020030
Ag911	Ag91	0.853950	0.171430	0.493920
O921	O92	0.333130	0.327250	0.576030
N931	N93	0.794940	0.131830	0.343900
N941	N94	0.723890	0.920330	0.396300
C951	C95	0.781220	0.153250	0.249200
H961	H96	0.797500	0.184400	0.247000
C971	C97	0.410940	0.464940	0.488130
H981	H98	0.069130	0.814470	0.756670
C991	C99	0.386540	0.419110	0.490530
H1001	H100	0.361070	0.403730	0.428630
C1011	C101	0.400410	0.395990	0.586630
C1021	C102	0.771500	0.087120	0.345000
H1031	H103	0.780900	0.071800	0.410000
C1041	C104	0.373330	0.346110	0.594930
C1051	C105	0.729560	0.986770	0.288800
C1061	C106	0.437460	0.332110	0.559830
H1071	H107	0.453370	0.358530	0.503030
C1081	C108	0.787940	0.970850	0.250000
H1091	H109	0.815600	0.978000	0.208000
C1101	C110	0.764050	0.932590	0.335800
H1111	H111	0.776300	0.914300	0.352800
C1121	C112	0.707250	0.947200	0.372000
H1131	H113	0.679200	0.939000	0.413000
C1141	C114	0.847930	0.255540	0.531900
O1151	O115	0.178690	0.899980	0.312970
O1161	O116	0.856070	0.251000	0.396200
C1171	C117	0.172130	0.960310	0.231970
F1181	F118	0.849520	0.322420	0.450500
F1191	F119	0.130030	0.945200	0.263970
F1201	F120	0.197750	0.985530	0.353370
Ag1211	Ag121	0.520620	0.504760	0.827250
O1221	O122	0.999790	0.660590	0.909370
N1231	N123	0.461610	0.465160	0.677230
N1241	N124	0.390560	0.253660	0.729630
C1251	C125	0.447890	0.486580	0.582530
H1261	H126	0.464170	0.517730	0.580330
C1271	C127	0.077600	0.798280	0.821470
H1281	H128	0.735800	0.147800	0.090000
C1291	C129	0.053200	0.752450	0.823870
H1301	H130	0.027730	0.737070	0.761970
C1311	C131	0.067070	0.729330	0.919970
C1321	C132	0.438170	0.420450	0.678330
H1331	H133	0.447570	0.405130	0.743330
C1341	C134	0.039990	0.679450	0.928270
C1351	C135	0.396230	0.320100	0.622130
C1361	C136	0.104120	0.665450	0.893170
H1371	H137	0.120030	0.691870	0.836370
C1381	C138	0.454610	0.304180	0.583330
H1391	H139	0.482270	0.311330	0.541330
C1401	C140	0.430720	0.265920	0.669130
H1411	H141	0.442970	0.247630	0.686130
C1421	C142	0.373920	0.280530	0.705330
H1431	H143	0.345870	0.272330	0.746330
C1441	C144	0.514600	0.588870	0.865230
O1451	O145	0.845360	0.233310	0.646300
O1461	O146	0.522740	0.584330	0.729530
C1471	C147	0.838800	0.293640	0.565300
F1481	F148	0.516190	0.655750	0.783830
F1491	F149	0.796700	0.278530	0.597300
F1501	F150	0.864420	0.318860	0.686700
Ag1511	Ag151	0.187290	0.838090	0.160580
O1521	O152	0.666460	0.993920	0.242700
N1531	N153	0.128270	0.798500	0.010570
N1541	N154	0.057220	0.587000	0.062970
C1551	C155	0.114550	0.819920	0.915870
H1561	H156	0.130830	0.851070	0.913670
C1571	C157	0.744270	0.131610	0.154800
H1581	H158	0.402470	0.481130	0.423330
C1591	C159	0.719870	0.085780	0.157200
H1601	H160	0.694400	0.070400	0.095300
C1611	C161	0.733740	0.062660	0.253300
C1621	C162	0.104830	0.753790	0.011670
H1631	H163	0.114230	0.738470	0.076670
C1641	C164	0.706660	0.012780	0.261600
C1651	C165	0.062890	0.653440	0.955470
C1661	C166	0.770790	0.998780	0.226500
H1671	H167	0.786700	0.025200	0.169700
C1681	C168	0.121270	0.637520	0.916670
H1691	H169	0.148930	0.644670	0.874670
C1701	C170	0.097380	0.599260	0.002470
H1711	H171	0.109630	0.580970	0.019470
C1721	C172	0.040580	0.613870	0.038670
H1731	H173	0.012530	0.605670	0.079670
C1741	C174	0.181260	0.922210	0.198570
O1751	O175	0.512030	0.566640	0.979630
O1761	O176	0.189400	0.917670	0.062870
C1771	C177	0.505470	0.626970	0.898630
F1781	F178	0.182850	0.989090	0.117170
F1791	F179	0.463370	0.611860	0.930630
F1801	F180	0.531090	0.652190	0.020030
Ag1811	Ag181	0.828570	0.682530	0.493920
O1821	O182	0.672750	0.005870	0.576030
N1831	N183	0.868170	0.663110	0.343900
N1841	N184	0.079670	0.803560	0.396300
C1851	C185	0.846750	0.627970	0.249200
H1861	H186	0.815600	0.613100	0.247000
C1871	C187	0.535060	0.945990	0.488130
H1881	H188	0.185530	0.254670	0.756670
C1891	C189	0.580890	0.967420	0.490530
H1901	H190	0.596270	0.957330	0.428630
C1911	C191	0.604010	0.004410	0.586630
C1921	C192	0.912880	0.684380	0.345000
H1931	H193	0.928200	0.709100	0.410000
C1941	C194	0.653890	0.027210	0.594930
C1951	C195	0.013230	0.742790	0.288800
C1961	C196	0.667890	0.105340	0.559830
H1971	H197	0.641470	0.094830	0.503030
C1981	C198	0.029150	0.817090	0.250000
H1991	H199	0.022000	0.837600	0.208000
C2001	C200	0.067410	0.831460	0.335800
H2011	H201	0.085700	0.862000	0.352800
C2021	C202	0.052800	0.760050	0.372000
H2031	H203	0.061000	0.740200	0.413000
C2041	C204	0.744460	0.592390	0.531900
O2051	O205	0.100020	0.278720	0.312970
O2061	O206	0.749000	0.605070	0.396200
C2071	C207	0.039690	0.211830	0.231970
F2081	F208	0.677580	0.527100	0.450500
F2091	F209	0.054800	0.184840	0.263970
F2101	F210	0.014470	0.212230	0.353370
Ag2111	Ag211	0.495240	0.015860	0.827250
O2121	O212	0.339410	0.339210	0.909370
N2131	N213	0.534840	0.996440	0.677230
N2141	N214	0.746340	0.136890	0.729630
C2151	C215	0.513420	0.961300	0.582530
H2161	H216	0.482270	0.946430	0.580330
C2171	C217	0.201720	0.279330	0.821470
H2181	H218	0.852200	0.588000	0.090000
C2191	C219	0.247550	0.300760	0.823870
H2201	H220	0.262930	0.290670	0.761970
C2211	C221	0.270670	0.337750	0.919970
C2221	C222	0.579550	0.017710	0.678330
H2231	H223	0.594870	0.042430	0.743330
C2241	C224	0.320550	0.360550	0.928270
C2251	C225	0.679900	0.076120	0.622130
C2261	C226	0.334550	0.438680	0.893170
H2271	H227	0.308130	0.428170	0.836370
C2281	C228	0.695820	0.150420	0.583330
H2291	H229	0.688670	0.170930	0.541330
C2301	C230	0.734080	0.164790	0.669130
H2311	H231	0.752370	0.195330	0.686130
C2321	C232	0.719470	0.093380	0.705330
H2331	H233	0.727670	0.073530	0.746330
C2341	C234	0.411130	0.925720	0.865230
O2351	O235	0.766690	0.612050	0.646300
O2361	O236	0.415670	0.938400	0.729530
C2371	C237	0.706360	0.545160	0.565300
F2381	F238	0.344250	0.860430	0.783830
F2391	F239	0.721470	0.518170	0.597300
F2401	F240	0.681140	0.545560	0.686700
Ag2411	Ag241	0.161910	0.349190	0.160580
O2421	O242	0.006080	0.672540	0.242700
N2431	N243	0.201500	0.329780	0.010570
N2441	N244	0.413000	0.470230	0.062970
C2451	C245	0.180080	0.294640	0.915870
H2461	H246	0.148930	0.279770	0.913670
C2471	C247	0.868390	0.612660	0.154800
H2481	H248	0.518870	0.921330	0.423330
C2491	C249	0.914220	0.634090	0.157200
H2501	H250	0.929600	0.624000	0.095300
C2511	C251	0.937340	0.671080	0.253300
C2521	C252	0.246210	0.351050	0.011670
H2531	H253	0.261530	0.375770	0.076670
C2541	C254	0.987220	0.693880	0.261600
C2551	C255	0.346560	0.409460	0.955470
C2561	C256	0.001220	0.772010	0.226500
H2571	H257	0.974800	0.761500	0.169700
C2581	C258	0.362480	0.483760	0.916670
H2591	H259	0.355330	0.504270	0.874670
C2601	C260	0.400740	0.498130	0.002470
H2611	H261	0.419030	0.528670	0.019470
C2621	C262	0.386130	0.426720	0.038670
H2631	H263	0.394330	0.406870	0.079670
C2641	C264	0.077790	0.259060	0.198570
O2651	O265	0.433360	0.945380	0.979630
O2661	O266	0.082330	0.271740	0.062870
C2671	C267	0.373030	0.878490	0.898630
F2681	F268	0.010910	0.193770	0.117170
F2691	F269	0.388140	0.851500	0.930630
F2701	F270	0.347810	0.878890	0.020030
Ag2711	Ag271	0.682530	0.853950	0.506080
O2721	O272	0.005870	0.333130	0.423970
N2731	N273	0.663110	0.794940	0.656100
N2741	N274	0.803560	0.723890	0.603700
C2751	C275	0.627970	0.781220	0.750800
H2761	H276	0.613100	0.797500	0.753000
C2771	C277	0.945990	0.410940	0.511870
H2781	H278	0.254670	0.069130	0.243330
C2791	C279	0.967420	0.386540	0.509470
H2801	H280	0.957330	0.361070	0.571370
C2811	C281	0.004410	0.400410	0.413370
C2821	C282	0.684380	0.771500	0.655000
H2831	H283	0.709100	0.780900	0.590000
C2841	C284	0.027210	0.373330	0.405070
C2851	C285	0.742790	0.729560	0.711200
C2861	C286	0.105340	0.437460	0.440170
H2871	H287	0.094830	0.453370	0.496970
C2881	C288	0.817090	0.787940	0.750000
H2891	H289	0.837600	0.815600	0.792000
C2901	C290	0.831460	0.764050	0.664200
H2911	H291	0.862000	0.776300	0.647200
C2921	C292	0.760050	0.707250	0.628000
H2931	H293	0.740200	0.679200	0.587000
C2941	C294	0.592390	0.847930	0.468100
O2951	O295	0.278720	0.178690	0.687030
O2961	O296	0.605070	0.856070	0.603800
C2971	C297	0.211830	0.172130	0.768030
F2981	F298	0.527100	0.849520	0.549500
F2991	F299	0.184840	0.130030	0.736030
F3001	F300	0.212230	0.197750	0.646630
Ag3011	Ag301	0.349190	0.187290	0.839420
O3021	O302	0.672540	0.666460	0.757300
N3031	N303	0.329780	0.128270	0.989430
N3041	N304	0.470230	0.057220	0.937030
C3051	C305	0.294640	0.114550	0.084130
H3061	H306	0.279770	0.130830	0.086330
C3071	C307	0.612660	0.744270	0.845200
H3081	H308	0.921330	0.402470	0.576670
C3091	C309	0.634090	0.719870	0.842800
H3101	H310	0.624000	0.694400	0.904700
C3111	C311	0.671080	0.733740	0.746700
C3121	C312	0.351050	0.104830	0.988330
H3131	H313	0.375770	0.114230	0.923330
C3141	C314	0.693880	0.706660	0.738400
C3151	C315	0.409460	0.062890	0.044530
C3161	C316	0.772010	0.770790	0.773500
H3171	H317	0.761500	0.786700	0.830300
C3181	C318	0.483760	0.121270	0.083330
H3191	H319	0.504270	0.148930	0.125330
C3201	C320	0.498130	0.097380	0.997530
H3211	H321	0.528670	0.109630	0.980530
C3221	C322	0.426720	0.040580	0.961330
H3231	H323	0.406870	0.012530	0.920330
C3241	C324	0.259060	0.181260	0.801430
O3251	O325	0.945380	0.512030	0.020370
O3261	O326	0.271740	0.189400	0.937130
C3271	C327	0.878490	0.505470	0.101370
F3281	F328	0.193770	0.182850	0.882830
F3291	F329	0.851500	0.463370	0.069370
F3301	F330	0.878890	0.531090	0.979970
Ag3311	Ag331	0.015860	0.520620	0.172750
O3321	O332	0.339210	0.999790	0.090630
N3331	N333	0.996440	0.461610	0.322770
N3341	N334	0.136890	0.390560	0.270370
C3351	C335	0.961300	0.447890	0.417470
H3361	H336	0.946430	0.464170	0.419670
C3371	C337	0.279330	0.077600	0.178530
H3381	H338	0.588000	0.735800	0.910000
C3391	C339	0.300760	0.053200	0.176130
H3401	H340	0.290670	0.027730	0.238030
C3411	C341	0.337750	0.067070	0.080030
C3421	C342	0.017710	0.438170	0.321670
H3431	H343	0.042430	0.447570	0.256670
C3441	C344	0.360550	0.039990	0.071730
C3451	C345	0.076120	0.396230	0.377870
C3461	C346	0.438680	0.104120	0.106830
H3471	H347	0.428170	0.120030	0.163630
C3481	C348	0.150420	0.454610	0.416670
H3491	H349	0.170930	0.482270	0.458670
C3501	C350	0.164790	0.430720	0.330870
H3511	H351	0.195330	0.442970	0.313870
C3521	C352	0.093380	0.373920	0.294670
H3531	H353	0.073530	0.345870	0.253670
C3541	C354	0.925720	0.514600	0.134770
O3551	O355	0.612050	0.845360	0.353700
O3561	O356	0.938400	0.522740	0.270470
C3571	C357	0.545160	0.838800	0.434700
F3581	F358	0.860430	0.516190	0.216170
F3591	F359	0.518170	0.796700	0.402700
F3601	F360	0.545560	0.864420	0.313300
Ag3611	Ag361	0.146050	0.828570	0.506080
O3621	O362	0.666870	0.672750	0.423970
N3631	N363	0.205060	0.868170	0.656100
N3641	N364	0.276110	0.079670	0.603700
C3651	C365	0.218780	0.846750	0.750800
H3661	H366	0.202500	0.815600	0.753000
C3671	C367	0.589060	0.535060	0.511870
H3681	H368	0.930870	0.185530	0.243330
C3691	C369	0.613460	0.580890	0.509470
H3701	H370	0.638930	0.596270	0.571370
C3711	C371	0.599590	0.604010	0.413370
C3721	C372	0.228500	0.912880	0.655000
H3731	H373	0.219100	0.928200	0.590000
C3741	C374	0.626670	0.653890	0.405070
C3751	C375	0.270440	0.013230	0.711200
C3761	C376	0.562540	0.667890	0.440170
H3771	H377	0.546630	0.641470	0.496970
C3781	C378	0.212060	0.029150	0.750000
H3791	H379	0.184400	0.022000	0.792000
C3801	C380	0.235950	0.067410	0.664200
H3811	H381	0.223700	0.085700	0.647200
C3821	C382	0.292750	0.052800	0.628000
H3831	H383	0.320800	0.061000	0.587000
C3841	C384	0.152070	0.744460	0.468100
O3851	O385	0.821310	0.100020	0.687030
O3861	O386	0.143930	0.749000	0.603800
C3871	C387	0.827870	0.039690	0.768030
F3881	F388	0.150480	0.677580	0.549500
F3891	F389	0.869970	0.054800	0.736030
F3901	F390	0.802250	0.014470	0.646630
Ag3911	Ag391	0.812710	0.161910	0.839420
O3921	O392	0.333540	0.006080	0.757300
N3931	N393	0.871730	0.201500	0.989430
N3941	N394	0.942780	0.413000	0.937030
C3951	C395	0.885450	0.180080	0.084130
H3961	H396	0.869170	0.148930	0.086330
C3971	C397	0.255730	0.868390	0.845200
H3981	H398	0.597530	0.518870	0.576670
C3991	C399	0.280130	0.914220	0.842800
H4001	H400	0.305600	0.929600	0.904700
C4011	C401	0.266260	0.937340	0.746700
C4021	C402	0.895170	0.246210	0.988330
H4031	H403	0.885770	0.261530	0.923330
C4041	C404	0.293340	0.987220	0.738400
C4051	C405	0.937110	0.346560	0.044530
C4061	C406	0.229210	0.001220	0.773500
H4071	H407	0.213300	0.974800	0.830300
C4081	C408	0.878730	0.362480	0.083330
H4091	H409	0.851070	0.355330	0.125330
C4101	C410	0.902620	0.400740	0.997530
H4111	H411	0.890370	0.419030	0.980530
C4121	C412	0.959420	0.386130	0.961330
H4131	H413	0.987470	0.394330	0.920330
C4141	C414	0.818740	0.077790	0.801430
O4151	O415	0.487970	0.433360	0.020370
O4161	O416	0.810600	0.082330	0.937130
C4171	C417	0.494530	0.373030	0.101370
F4181	F418	0.817150	0.010910	0.882830
F4191	F419	0.536630	0.388140	0.069370
F4201	F420	0.468910	0.347810	0.979970
Ag4211	Ag421	0.479380	0.495240	0.172750
O4221	O422	0.000210	0.339410	0.090630
N4231	N423	0.538390	0.534840	0.322770
N4241	N424	0.609440	0.746340	0.270370
C4251	C425	0.552110	0.513420	0.417470
H4261	H426	0.535830	0.482270	0.419670
C4271	C427	0.922400	0.201720	0.178530
H4281	H428	0.264200	0.852200	0.910000
C4291	C429	0.946800	0.247550	0.176130
H4301	H430	0.972270	0.262930	0.238030
C4311	C431	0.932930	0.270670	0.080030
C4321	C432	0.561830	0.579550	0.321670
H4331	H433	0.552430	0.594870	0.256670
C4341	C434	0.960010	0.320550	0.071730
C4351	C435	0.603770	0.679900	0.377870
C4361	C436	0.895880	0.334550	0.106830
H4371	H437	0.879970	0.308130	0.163630
C4381	C438	0.545390	0.695820	0.416670
H4391	H439	0.517730	0.688670	0.458670
C4401	C440	0.569280	0.734080	0.330870
H4411	H441	0.557030	0.752370	0.313870
C4421	C442	0.626080	0.719470	0.294670
H4431	H443	0.654130	0.727670	0.253670
C4441	C444	0.485400	0.411130	0.134770
O4451	O445	0.154640	0.766690	0.353700
O4461	O446	0.477260	0.415670	0.270470
C4471	C447	0.161200	0.706360	0.434700
F4481	F448	0.483810	0.344250	0.216170
F4491	F449	0.203300	0.721470	0.402700
F4501	F450	0.135580	0.681140	0.313300
Ag4511	Ag451	0.171430	0.317470	0.506080
O4521	O452	0.327250	0.994130	0.423970
N4531	N453	0.131830	0.336890	0.656100
N4541	N454	0.920330	0.196440	0.603700
C4551	C455	0.153250	0.372030	0.750800
H4561	H456	0.184400	0.386900	0.753000
C4571	C457	0.464940	0.054010	0.511870
H4581	H458	0.814470	0.745330	0.243330
C4591	C459	0.419110	0.032580	0.509470
H4601	H460	0.403730	0.042670	0.571370
C4611	C461	0.395990	0.995590	0.413370
C4621	C462	0.087120	0.315620	0.655000
H4631	H463	0.071800	0.290900	0.590000
C4641	C464	0.346110	0.972790	0.405070
C4651	C465	0.986770	0.257210	0.711200
C4661	C466	0.332110	0.894660	0.440170
H4671	H467	0.358530	0.905170	0.496970
C4681	C468	0.970850	0.182910	0.750000
H4691	H469	0.978000	0.162400	0.792000
C4701	C470	0.932590	0.168540	0.664200
H4711	H471	0.914300	0.138000	0.647200
C4721	C472	0.947200	0.239950	0.628000
H4731	H473	0.939000	0.259800	0.587000
C4741	C474	0.255540	0.407610	0.468100
O4751	O475	0.899980	0.721280	0.687030
O4761	O476	0.251000	0.394930	0.603800
C4771	C477	0.960310	0.788170	0.768030
F4781	F478	0.322420	0.472900	0.549500
F4791	F479	0.945200	0.815160	0.736030
F4801	F480	0.985530	0.787770	0.646630
Ag4811	Ag481	0.838090	0.650810	0.839420
O4821	O482	0.993920	0.327460	0.757300
N4831	N483	0.798500	0.670220	0.989430
N4841	N484	0.587000	0.529770	0.937030
C4851	C485	0.819920	0.705360	0.084130
H4861	H486	0.851070	0.720230	0.086330
C4871	C487	0.131610	0.387340	0.845200
H4881	H488	0.481130	0.078670	0.576670
C4891	C489	0.085780	0.365910	0.842800
H4901	H490	0.070400	0.376000	0.904700
C4911	C491	0.062660	0.328920	0.746700
C4921	C492	0.753790	0.648950	0.988330
H4931	H493	0.738470	0.624230	0.923330
C4941	C494	0.012780	0.306120	0.738400
C4951	C495	0.653440	0.590540	0.044530
C4961	C496	0.998780	0.227990	0.773500
H4971	H497	0.025200	0.238500	0.830300
C4981	C498	0.637520	0.516240	0.083330
H4991	H499	0.644670	0.495730	0.125330
C5001	C500	0.599260	0.501870	0.997530
H5011	H501	0.580970	0.471330	0.980530
C5021	C502	0.613870	0.573280	0.961330
H5031	H503	0.605670	0.593130	0.920330
C5041	C504	0.922210	0.740940	0.801430
O5051	O505	0.566640	0.054620	0.020370
O5061	O506	0.917670	0.728260	0.937130
C5071	C507	0.626970	0.121510	0.101370
F5081	F508	0.989090	0.806230	0.882830
F5091	F509	0.611860	0.148500	0.069370
F5101	F510	0.652190	0.121110	0.979970
Ag5111	Ag511	0.504760	0.984140	0.172750
O5121	O512	0.660590	0.660790	0.090630
N5131	N513	0.465160	0.003560	0.322770
N5141	N514	0.253660	0.863110	0.270370
C5151	C515	0.486580	0.038700	0.417470
H5161	H516	0.517730	0.053570	0.419670
C5171	C517	0.798280	0.720670	0.178530
H5181	H518	0.147800	0.412000	0.910000
C5191	C519	0.752450	0.699240	0.176130
H5201	H520	0.737070	0.709330	0.238030
C5211	C521	0.729330	0.662250	0.080030
C5221	C522	0.420450	0.982290	0.321670
H5231	H523	0.405130	0.957570	0.256670
C5241	C524	0.679450	0.639450	0.071730
C5251	C525	0.320100	0.923880	0.377870
C5261	C526	0.665450	0.561320	0.106830
H5271	H527	0.691870	0.571830	0.163630
C5281	C528	0.304180	0.849580	0.416670
H5291	H529	0.311330	0.829070	0.458670
C5301	C530	0.265920	0.835210	0.330870
H5311	H531	0.247630	0.804670	0.313870
C5321	C532	0.280530	0.906620	0.294670
H5331	H533	0.272330	0.926470	0.253670
C5341	C534	0.588870	0.074280	0.134770
O5351	O535	0.233310	0.387950	0.353700
O5361	O536	0.584330	0.061600	0.270470
C5371	C537	0.293640	0.454840	0.434700
F5381	F538	0.655750	0.139570	0.216170
F5391	F539	0.278530	0.481830	0.402700
F5401	F540	0.318860	0.454440	0.313300
