data_FURRAM_clean_PM
_symmetry_space_group_name_H-M	'P1'
_cell_length_a	33.786000
_cell_length_b	33.786000
_cell_length_c	8.417000
_cell_angle_alpha	90.000000
_cell_angle_beta	90.000000
_cell_angle_gamma	120.000000
_symmetry_Int_Tables_number 1

loop_
_symmetry_equiv_pos_as_xyz
'x,y,z'

loop_
_atom_site_label
_atom_site_type_symbol
_atom_site_fract_x
_atom_site_fract_y
_atom_site_fract_z
Ag11	Ag1	0.147450	0.321860	0.504600
O11	O1	0.335790	0.330340	0.785200
N11	N1	0.206420	0.341870	0.662100
N21	N2	0.279300	0.197530	0.616300
C11	C1	0.219270	0.377440	0.761000
H11	H1	0.202700	0.393300	0.759800
C21	C2	0.255760	0.391910	0.864800
H21	H2	0.263600	0.417000	0.934100
C31	C3	0.280630	0.369500	0.866400
H31	H3	0.306400	0.379400	0.934100
C41	C4	0.266810	0.332000	0.765900
C51	C5	0.230000	0.319530	0.666500
H41	H4	0.220900	0.294000	0.598200
C61	C6	0.294690	0.308590	0.761300
C71	C7	0.271610	0.258730	0.728000
C81	C8	0.228090	0.227970	0.783800
H51	H5	0.210600	0.238300	0.840600
C91	C9	0.210800	0.181610	0.754000
H61	H6	0.181300	0.159600	0.791400
C101	C10	0.236950	0.168200	0.669800
H71	H7	0.224500	0.136600	0.648300
C111	C11	0.296130	0.241950	0.646400
H81	H8	0.326100	0.263000	0.610800
Ag21	Ag2	0.814120	0.655190	0.837930
O21	O2	0.002460	0.663670	0.118530
N31	N3	0.873090	0.675200	0.995430
N41	N4	0.945970	0.530860	0.949630
C121	C12	0.885940	0.710770	0.094330
H91	H9	0.869370	0.726630	0.093130
C131	C13	0.922430	0.725240	0.198130
H101	H10	0.930270	0.750330	0.267430
C141	C14	0.947300	0.702830	0.199730
H111	H11	0.973070	0.712730	0.267430
C151	C15	0.933480	0.665330	0.099230
C161	C16	0.896670	0.652860	0.999830
H121	H12	0.887570	0.627330	0.931530
C171	C17	0.961360	0.641920	0.094630
C181	C18	0.938280	0.592060	0.061330
C191	C19	0.894760	0.561300	0.117130
H131	H13	0.877270	0.571630	0.173930
C201	C20	0.877470	0.514940	0.087330
H141	H14	0.847970	0.492930	0.124730
C211	C21	0.903620	0.501530	0.003130
H151	H15	0.891170	0.469930	0.981630
C221	C22	0.962800	0.575280	0.979730
H161	H16	0.992770	0.596330	0.944130
Ag31	Ag3	0.480790	0.988520	0.171270
O31	O3	0.669120	0.997010	0.451870
N51	N5	0.539750	0.008540	0.328770
N61	N6	0.612630	0.864200	0.282970
C231	C23	0.552600	0.044110	0.427670
H171	H17	0.536030	0.059970	0.426470
C241	C24	0.589090	0.058580	0.531470
H181	H18	0.596930	0.083670	0.600770
C251	C25	0.613960	0.036170	0.533070
H191	H19	0.639730	0.046070	0.600770
C261	C26	0.600140	0.998670	0.432570
C271	C27	0.563330	0.986200	0.333170
H201	H20	0.554230	0.960670	0.264870
C281	C28	0.628020	0.975260	0.427970
C291	C29	0.604940	0.925400	0.394670
C301	C30	0.561420	0.894640	0.450470
H211	H21	0.543930	0.904970	0.507270
C311	C31	0.544130	0.848280	0.420670
H221	H22	0.514630	0.826270	0.458070
C321	C32	0.570280	0.834870	0.336470
H231	H23	0.557830	0.803270	0.314970
C331	C33	0.629460	0.908620	0.313070
H241	H24	0.659430	0.929670	0.277470
Ag41	Ag4	0.678140	0.825600	0.504600
O41	O4	0.669660	0.005450	0.785200
N71	N7	0.658130	0.864550	0.662100
N81	N8	0.802470	0.081770	0.616300
C341	C34	0.622560	0.841830	0.761000
H251	H25	0.606700	0.809400	0.759800
C351	C35	0.608090	0.863850	0.864800
H261	H26	0.583000	0.846600	0.934100
C361	C36	0.630500	0.911130	0.866400
H271	H27	0.620600	0.927000	0.934100
C371	C37	0.668000	0.934810	0.765900
C381	C38	0.680470	0.910470	0.666500
H281	H28	0.706000	0.926900	0.598200
C391	C39	0.691410	0.986100	0.761300
C401	C40	0.741270	0.012880	0.728000
C411	C41	0.772030	0.000120	0.783800
H291	H29	0.761700	0.972300	0.840600
C421	C42	0.818390	0.029190	0.754000
H301	H30	0.840400	0.021700	0.791400
C431	C43	0.831800	0.068750	0.669800
H311	H31	0.863400	0.087900	0.648300
C441	C44	0.758050	0.054180	0.646400
H321	H32	0.737000	0.063100	0.610800
Ag51	Ag5	0.344810	0.158930	0.837930
O51	O5	0.336330	0.338780	0.118530
N91	N9	0.324800	0.197880	0.995430
N101	N10	0.469140	0.415100	0.949630
C451	C45	0.289230	0.175160	0.094330
H331	H33	0.273370	0.142730	0.093130
C461	C46	0.274760	0.197180	0.198130
H341	H34	0.249670	0.179930	0.267430
C471	C47	0.297170	0.244460	0.199730
H351	H35	0.287270	0.260330	0.267430
C481	C48	0.334670	0.268140	0.099230
C491	C49	0.347140	0.243800	0.999830
H361	H36	0.372670	0.260230	0.931530
C501	C50	0.358080	0.319430	0.094630
C511	C51	0.407940	0.346210	0.061330
C521	C52	0.438700	0.333450	0.117130
H371	H37	0.428370	0.305630	0.173930
C531	C53	0.485060	0.362520	0.087330
H381	H38	0.507070	0.355030	0.124730
C541	C54	0.498470	0.402080	0.003130
H391	H39	0.530070	0.421230	0.981630
C551	C55	0.424720	0.387510	0.979730
H401	H40	0.403670	0.396430	0.944130
Ag61	Ag6	0.011480	0.492260	0.171270
O61	O6	0.002990	0.672120	0.451870
N111	N11	0.991460	0.531220	0.328770
N121	N12	0.135800	0.748440	0.282970
C561	C56	0.955890	0.508500	0.427670
H411	H41	0.940030	0.476070	0.426470
C571	C57	0.941420	0.530520	0.531470
H421	H42	0.916330	0.513270	0.600770
C581	C58	0.963830	0.577800	0.533070
H431	H43	0.953930	0.593670	0.600770
C591	C59	0.001330	0.601480	0.432570
C601	C60	0.013800	0.577140	0.333170
H441	H44	0.039330	0.593570	0.264870
C611	C61	0.024740	0.652770	0.427970
C621	C62	0.074600	0.679550	0.394670
C631	C63	0.105360	0.666790	0.450470
H451	H45	0.095030	0.638970	0.507270
C641	C64	0.151720	0.695860	0.420670
H461	H46	0.173730	0.688370	0.458070
C651	C65	0.165130	0.735420	0.336470
H471	H47	0.196730	0.754570	0.314970
C661	C66	0.091380	0.720850	0.313070
H481	H48	0.070330	0.729770	0.277470
Ag71	Ag7	0.174400	0.852550	0.504600
O71	O7	0.994550	0.664210	0.785200
N131	N13	0.135450	0.793580	0.662100
N141	N14	0.918230	0.720700	0.616300
C671	C67	0.158170	0.780730	0.761000
H491	H49	0.190600	0.797300	0.759800
C681	C68	0.136150	0.744240	0.864800
H501	H50	0.153400	0.736400	0.934100
C691	C69	0.088870	0.719370	0.866400
H511	H51	0.073000	0.693600	0.934100
C701	C70	0.065190	0.733190	0.765900
C711	C71	0.089530	0.770000	0.666500
H521	H52	0.073100	0.779100	0.598200
C721	C72	0.013900	0.705310	0.761300
C731	C73	0.987120	0.728390	0.728000
C741	C74	0.999880	0.771910	0.783800
H531	H53	0.027700	0.789400	0.840600
C751	C75	0.970810	0.789200	0.754000
H541	H54	0.978300	0.818700	0.791400
C761	C76	0.931250	0.763050	0.669800
H551	H55	0.912100	0.775500	0.648300
C771	C77	0.945820	0.703870	0.646400
H561	H56	0.936900	0.673900	0.610800
Ag81	Ag8	0.841070	0.185880	0.837930
O81	O8	0.661220	0.997540	0.118530
N151	N15	0.802120	0.126910	0.995430
N161	N16	0.584900	0.054030	0.949630
C781	C78	0.824840	0.114060	0.094330
H571	H57	0.857270	0.130630	0.093130
C791	C79	0.802820	0.077570	0.198130
H581	H58	0.820070	0.069730	0.267430
C801	C80	0.755540	0.052700	0.199730
H591	H59	0.739670	0.026930	0.267430
C811	C81	0.731860	0.066520	0.099230
C821	C82	0.756200	0.103330	0.999830
H601	H60	0.739770	0.112430	0.931530
C831	C83	0.680570	0.038640	0.094630
C841	C84	0.653790	0.061720	0.061330
C851	C85	0.666550	0.105240	0.117130
H611	H61	0.694370	0.122730	0.173930
C861	C86	0.637480	0.122530	0.087330
H621	H62	0.644970	0.152030	0.124730
C871	C87	0.597920	0.096380	0.003130
H631	H63	0.578770	0.108830	0.981630
C881	C88	0.612490	0.037200	0.979730
H641	H64	0.603570	0.007230	0.944130
Ag91	Ag9	0.507740	0.519210	0.171270
O91	O9	0.327880	0.330880	0.451870
N171	N17	0.468780	0.460250	0.328770
N181	N18	0.251560	0.387370	0.282970
C891	C89	0.491500	0.447400	0.427670
H651	H65	0.523930	0.463970	0.426470
C901	C90	0.469480	0.410910	0.531470
H661	H66	0.486730	0.403070	0.600770
C911	C91	0.422200	0.386040	0.533070
H671	H67	0.406330	0.360270	0.600770
C921	C92	0.398520	0.399860	0.432570
C931	C93	0.422860	0.436670	0.333170
H681	H68	0.406430	0.445770	0.264870
C941	C94	0.347230	0.371980	0.427970
C951	C95	0.320450	0.395060	0.394670
C961	C96	0.333210	0.438580	0.450470
H691	H69	0.361030	0.456070	0.507270
C971	C97	0.304140	0.455870	0.420670
H701	H70	0.311630	0.485370	0.458070
C981	C98	0.264580	0.429720	0.336470
H711	H71	0.245430	0.442170	0.314970
C991	C99	0.279150	0.370540	0.313070
H721	H72	0.270230	0.340570	0.277470
Ag101	Ag10	0.852550	0.678140	0.495400
O101	O10	0.664210	0.669660	0.214800
N191	N19	0.793580	0.658130	0.337900
N201	N20	0.720700	0.802470	0.383700
C1001	C100	0.780730	0.622560	0.239000
H731	H73	0.797300	0.606700	0.240200
C1011	C101	0.744240	0.608090	0.135200
H741	H74	0.736400	0.583000	0.065900
C1021	C102	0.719370	0.630500	0.133600
H751	H75	0.693600	0.620600	0.065900
C1031	C103	0.733190	0.668000	0.234100
C1041	C104	0.770000	0.680470	0.333500
H761	H76	0.779100	0.706000	0.401800
C1051	C105	0.705310	0.691410	0.238700
C1061	C106	0.728390	0.741270	0.272000
C1071	C107	0.771910	0.772030	0.216200
H771	H77	0.789400	0.761700	0.159400
C1081	C108	0.789200	0.818390	0.246000
H781	H78	0.818700	0.840400	0.208600
C1091	C109	0.763050	0.831800	0.330200
H791	H79	0.775500	0.863400	0.351700
C1101	C110	0.703870	0.758050	0.353600
H801	H80	0.673900	0.737000	0.389200
Ag111	Ag11	0.519210	0.011480	0.828730
O111	O11	0.330880	0.002990	0.548130
N211	N21	0.460250	0.991460	0.671230
N221	N22	0.387370	0.135800	0.717030
C1111	C111	0.447400	0.955890	0.572330
H811	H81	0.463970	0.940030	0.573530
C1121	C112	0.410910	0.941420	0.468530
H821	H82	0.403070	0.916330	0.399230
C1131	C113	0.386040	0.963830	0.466930
H831	H83	0.360270	0.953930	0.399230
C1141	C114	0.399860	0.001330	0.567430
C1151	C115	0.436670	0.013800	0.666830
H841	H84	0.445770	0.039330	0.735130
C1161	C116	0.371980	0.024740	0.572030
C1171	C117	0.395060	0.074600	0.605330
C1181	C118	0.438580	0.105360	0.549530
H851	H85	0.456070	0.095030	0.492730
C1191	C119	0.455870	0.151720	0.579330
H861	H86	0.485370	0.173730	0.541930
C1201	C120	0.429720	0.165130	0.663530
H871	H87	0.442170	0.196730	0.685030
C1211	C121	0.370540	0.091380	0.686930
H881	H88	0.340570	0.070330	0.722530
Ag121	Ag12	0.185880	0.344810	0.162070
O121	O12	0.997540	0.336330	0.881470
N231	N23	0.126910	0.324800	0.004570
N241	N24	0.054030	0.469140	0.050370
C1221	C122	0.114060	0.289230	0.905670
H891	H89	0.130630	0.273370	0.906870
C1231	C123	0.077570	0.274760	0.801870
H901	H90	0.069730	0.249670	0.732570
C1241	C124	0.052700	0.297170	0.800270
H911	H91	0.026930	0.287270	0.732570
C1251	C125	0.066520	0.334670	0.900770
C1261	C126	0.103330	0.347140	0.000170
H921	H92	0.112430	0.372670	0.068470
C1271	C127	0.038640	0.358080	0.905370
C1281	C128	0.061720	0.407940	0.938670
C1291	C129	0.105240	0.438700	0.882870
H931	H93	0.122730	0.428370	0.826070
C1301	C130	0.122530	0.485060	0.912670
H941	H94	0.152030	0.507070	0.875270
C1311	C131	0.096380	0.498470	0.996870
H951	H95	0.108830	0.530070	0.018370
C1321	C132	0.037200	0.424720	0.020270
H961	H96	0.007230	0.403670	0.055870
Ag131	Ag13	0.321860	0.174400	0.495400
O131	O13	0.330340	0.994550	0.214800
N251	N25	0.341870	0.135450	0.337900
N261	N26	0.197530	0.918230	0.383700
C1331	C133	0.377440	0.158170	0.239000
H971	H97	0.393300	0.190600	0.240200
C1341	C134	0.391910	0.136150	0.135200
H981	H98	0.417000	0.153400	0.065900
C1351	C135	0.369500	0.088870	0.133600
H991	H99	0.379400	0.073000	0.065900
C1361	C136	0.332000	0.065190	0.234100
C1371	C137	0.319530	0.089530	0.333500
H1001	H100	0.294000	0.073100	0.401800
C1381	C138	0.308590	0.013900	0.238700
C1391	C139	0.258730	0.987120	0.272000
C1401	C140	0.227970	0.999880	0.216200
H1011	H101	0.238300	0.027700	0.159400
C1411	C141	0.181610	0.970810	0.246000
H1021	H102	0.159600	0.978300	0.208600
C1421	C142	0.168200	0.931250	0.330200
H1031	H103	0.136600	0.912100	0.351700
C1431	C143	0.241950	0.945820	0.353600
H1041	H104	0.263000	0.936900	0.389200
Ag141	Ag14	0.988520	0.507740	0.828730
O141	O14	0.997010	0.327880	0.548130
N271	N27	0.008540	0.468780	0.671230
N281	N28	0.864200	0.251560	0.717030
C1441	C144	0.044110	0.491500	0.572330
H1051	H105	0.059970	0.523930	0.573530
C1451	C145	0.058580	0.469480	0.468530
H1061	H106	0.083670	0.486730	0.399230
C1461	C146	0.036170	0.422200	0.466930
H1071	H107	0.046070	0.406330	0.399230
C1471	C147	0.998670	0.398520	0.567430
C1481	C148	0.986200	0.422860	0.666830
H1081	H108	0.960670	0.406430	0.735130
C1491	C149	0.975260	0.347230	0.572030
C1501	C150	0.925400	0.320450	0.605330
C1511	C151	0.894640	0.333210	0.549530
H1091	H109	0.904970	0.361030	0.492730
C1521	C152	0.848280	0.304140	0.579330
H1101	H110	0.826270	0.311630	0.541930
C1531	C153	0.834870	0.264580	0.663530
H1111	H111	0.803270	0.245430	0.685030
C1541	C154	0.908620	0.279150	0.686930
H1121	H112	0.929670	0.270230	0.722530
Ag151	Ag15	0.655190	0.841070	0.162070
O151	O15	0.663670	0.661220	0.881470
N291	N29	0.675200	0.802120	0.004570
N301	N30	0.530860	0.584900	0.050370
C1551	C155	0.710770	0.824840	0.905670
H1131	H113	0.726630	0.857270	0.906870
C1561	C156	0.725240	0.802820	0.801870
H1141	H114	0.750330	0.820070	0.732570
C1571	C157	0.702830	0.755540	0.800270
H1151	H115	0.712730	0.739670	0.732570
C1581	C158	0.665330	0.731860	0.900770
C1591	C159	0.652860	0.756200	0.000170
H1161	H116	0.627330	0.739770	0.068470
C1601	C160	0.641920	0.680570	0.905370
C1611	C161	0.592060	0.653790	0.938670
C1621	C162	0.561300	0.666550	0.882870
H1171	H117	0.571630	0.694370	0.826070
C1631	C163	0.514940	0.637480	0.912670
H1181	H118	0.492930	0.644970	0.875270
C1641	C164	0.501530	0.597920	0.996870
H1191	H119	0.469930	0.578770	0.018370
C1651	C165	0.575280	0.612490	0.020270
H1201	H120	0.596330	0.603570	0.055870
Ag161	Ag16	0.825600	0.147450	0.495400
O161	O16	0.005450	0.335790	0.214800
N311	N31	0.864550	0.206420	0.337900
N321	N32	0.081770	0.279300	0.383700
C1661	C166	0.841830	0.219270	0.239000
H1211	H121	0.809400	0.202700	0.240200
C1671	C167	0.863850	0.255760	0.135200
H1221	H122	0.846600	0.263600	0.065900
C1681	C168	0.911130	0.280630	0.133600
H1231	H123	0.927000	0.306400	0.065900
C1691	C169	0.934810	0.266810	0.234100
C1701	C170	0.910470	0.230000	0.333500
H1241	H124	0.926900	0.220900	0.401800
C1711	C171	0.986100	0.294690	0.238700
C1721	C172	0.012880	0.271610	0.272000
C1731	C173	0.000120	0.228090	0.216200
H1251	H125	0.972300	0.210600	0.159400
C1741	C174	0.029190	0.210800	0.246000
H1261	H126	0.021700	0.181300	0.208600
C1751	C175	0.068750	0.236950	0.330200
H1271	H127	0.087900	0.224500	0.351700
C1761	C176	0.054180	0.296130	0.353600
H1281	H128	0.063100	0.326100	0.389200
Ag171	Ag17	0.492260	0.480790	0.828730
O171	O17	0.672120	0.669120	0.548130
N331	N33	0.531220	0.539750	0.671230
N341	N34	0.748440	0.612630	0.717030
C1771	C177	0.508500	0.552600	0.572330
H1291	H129	0.476070	0.536030	0.573530
C1781	C178	0.530520	0.589090	0.468530
H1301	H130	0.513270	0.596930	0.399230
C1791	C179	0.577800	0.613960	0.466930
H1311	H131	0.593670	0.639730	0.399230
C1801	C180	0.601480	0.600140	0.567430
C1811	C181	0.577140	0.563330	0.666830
H1321	H132	0.593570	0.554230	0.735130
C1821	C182	0.652770	0.628020	0.572030
C1831	C183	0.679550	0.604940	0.605330
C1841	C184	0.666790	0.561420	0.549530
H1331	H133	0.638970	0.543930	0.492730
C1851	C185	0.695860	0.544130	0.579330
H1341	H134	0.688370	0.514630	0.541930
C1861	C186	0.735420	0.570280	0.663530
H1351	H135	0.754570	0.557830	0.685030
C1871	C187	0.720850	0.629460	0.686930
H1361	H136	0.729770	0.659430	0.722530
Ag181	Ag18	0.158930	0.814120	0.162070
O181	O18	0.338780	0.002460	0.881470
N351	N35	0.197880	0.873090	0.004570
N361	N36	0.415100	0.945970	0.050370
C1881	C188	0.175160	0.885940	0.905670
H1371	H137	0.142730	0.869370	0.906870
C1891	C189	0.197180	0.922430	0.801870
H1381	H138	0.179930	0.930270	0.732570
C1901	C190	0.244460	0.947300	0.800270
H1391	H139	0.260330	0.973070	0.732570
C1911	C191	0.268140	0.933480	0.900770
C1921	C192	0.243800	0.896670	0.000170
H1401	H140	0.260230	0.887570	0.068470
C1931	C193	0.319430	0.961360	0.905370
C1941	C194	0.346210	0.938280	0.938670
C1951	C195	0.333450	0.894760	0.882870
H1411	H141	0.305630	0.877270	0.826070
C1961	C196	0.362520	0.877470	0.912670
H1421	H142	0.355030	0.847970	0.875270
C1971	C197	0.402080	0.903620	0.996870
H1431	H143	0.421230	0.891170	0.018370
C1981	C198	0.387510	0.962800	0.020270
H1441	H144	0.396430	0.992770	0.055870
