data_FUTYUQ_clean_PM
_symmetry_space_group_name_H-M	'P1'
_cell_length_a	12.366000
_cell_length_b	13.439000
_cell_length_c	26.969000
_cell_angle_alpha	90.000000
_cell_angle_beta	95.463000
_cell_angle_gamma	90.000000
_symmetry_Int_Tables_number 1

loop_
_symmetry_equiv_pos_as_xyz
'x,y,z'

loop_
_atom_site_label
_atom_site_type_symbol
_atom_site_fract_x
_atom_site_fract_y
_atom_site_fract_z
Zn11	Zn1	0.079290	0.932740	0.030040
Zn21	Zn2	0.108740	0.036500	0.633850
Zn31	Zn3	0.972240	0.180170	0.716110
O11	O1	0.133500	0.963100	0.696800
O21	O2	0.007400	0.041300	0.735700
O31	O3	0.100100	0.905200	0.956700
O41	O4	0.174300	0.056800	0.028700
O51	O5	0.363300	0.709800	0.793800
O61	O6	0.310900	0.661900	0.866900
O71	O7	0.418300	0.273000	0.148100
O81	O8	0.453900	0.426600	0.121100
O91	O9	0.396300	0.476500	0.932300
O101	O10	0.232900	0.437100	0.899400
O111	O11	0.986800	0.006100	0.911900
O121	O12	0.057500	0.152900	0.980200
N11	N1	0.993000	0.253700	0.781100
N21	N2	0.067800	0.333300	0.845900
H11	H1	0.107800	0.375600	0.863100
C11	C1	0.220800	0.223100	0.014000
C21	C2	0.227700	0.290500	0.976000
H21	H2	0.183100	0.282800	0.946500
C31	C3	0.299000	0.368700	0.980900
C41	C4	0.360300	0.384300	0.026100
H31	H3	0.407400	0.438300	0.029700
C51	C5	0.351800	0.319900	0.065900
C61	C6	0.284100	0.235900	0.059400
H41	H4	0.281400	0.189600	0.084900
C71	C7	0.143300	0.137500	0.007400
C81	C8	0.060600	0.942100	0.916400
C91	C9	0.105800	0.907300	0.870000
C101	C10	0.180000	0.828800	0.870600
H51	H5	0.200300	0.795400	0.900200
C111	C11	0.223500	0.800400	0.827300
C121	C12	0.194800	0.849300	0.783400
H61	H6	0.226200	0.830800	0.754700
C131	C13	0.118900	0.926600	0.781200
C141	C14	0.074700	0.954700	0.824900
H71	H7	0.023800	0.005800	0.823900
C151	C15	0.084400	0.980900	0.734100
C161	C16	0.306300	0.718500	0.829300
C171	C17	0.412100	0.338800	0.114800
C181	C18	0.311400	0.433200	0.931600
C191	C19	0.061500	0.323100	0.796300
H81	H8	0.101000	0.360800	0.775400
C201	C20	0.000800	0.266100	0.864600
H91	H9	0.989600	0.256800	0.897900
C211	C21	0.953600	0.215400	0.824900
H101	H10	0.903600	0.163900	0.826200
Zn41	Zn4	0.420710	0.432740	0.469960
Zn51	Zn5	0.391260	0.536500	0.866150
Zn61	Zn6	0.527760	0.680170	0.783890
O131	O13	0.366500	0.463100	0.803200
O141	O14	0.492600	0.541300	0.764300
O151	O15	0.399900	0.405200	0.543300
O161	O16	0.325700	0.556800	0.471300
O171	O17	0.136700	0.209800	0.706200
O181	O18	0.189100	0.161900	0.633100
O191	O19	0.081700	0.773000	0.351900
O201	O20	0.046100	0.926600	0.378900
O211	O21	0.103700	0.976500	0.567700
O221	O22	0.267100	0.937100	0.600600
O231	O23	0.513200	0.506100	0.588100
O241	O24	0.442500	0.652900	0.519800
N31	N3	0.507000	0.753700	0.718900
N41	N4	0.432200	0.833300	0.654100
H111	H11	0.392200	0.875600	0.636900
C221	C22	0.279200	0.723100	0.486000
C231	C23	0.272300	0.790500	0.524000
H121	H12	0.316900	0.782800	0.553500
C241	C24	0.201000	0.868700	0.519100
C251	C25	0.139700	0.884300	0.473900
H131	H13	0.092600	0.938300	0.470300
C261	C26	0.148200	0.819900	0.434100
C271	C27	0.215900	0.735900	0.440600
H141	H14	0.218600	0.689600	0.415100
C281	C28	0.356700	0.637500	0.492600
C291	C29	0.439400	0.442100	0.583600
C301	C30	0.394200	0.407300	0.630000
C311	C31	0.320000	0.328800	0.629400
H151	H15	0.299700	0.295400	0.599800
C321	C32	0.276500	0.300400	0.672700
C331	C33	0.305200	0.349300	0.716600
H161	H16	0.273800	0.330800	0.745300
C341	C34	0.381100	0.426600	0.718800
C351	C35	0.425300	0.454700	0.675100
H171	H17	0.476200	0.505800	0.676100
C361	C36	0.415600	0.480900	0.765900
C371	C37	0.193700	0.218500	0.670700
C381	C38	0.087900	0.838800	0.385200
C391	C39	0.188600	0.933200	0.568400
C401	C40	0.438500	0.823100	0.703700
H181	H18	0.399000	0.860800	0.724600
C411	C41	0.499200	0.766100	0.635400
H191	H19	0.510400	0.756800	0.602100
C421	C42	0.546400	0.715400	0.675100
H201	H20	0.596400	0.663900	0.673800
Zn71	Zn7	0.920710	0.067260	0.969960
Zn81	Zn8	0.891260	0.963500	0.366150
Zn91	Zn9	0.027760	0.819830	0.283890
O251	O25	0.866500	0.036900	0.303200
O261	O26	0.992600	0.958700	0.264300
O271	O27	0.899900	0.094800	0.043300
O281	O28	0.825700	0.943200	0.971300
O291	O29	0.636700	0.290200	0.206200
O301	O30	0.689100	0.338100	0.133100
O311	O31	0.581700	0.727000	0.851900
O321	O32	0.546100	0.573400	0.878900
O331	O33	0.603700	0.523500	0.067700
O341	O34	0.767100	0.562900	0.100600
O351	O35	0.013200	0.993900	0.088100
O361	O36	0.942500	0.847100	0.019800
N51	N5	0.007000	0.746300	0.218900
N61	N6	0.932200	0.666700	0.154100
H211	H21	0.892200	0.624400	0.136900
C431	C43	0.779200	0.776900	0.986000
C441	C44	0.772300	0.709500	0.024000
H221	H22	0.816900	0.717200	0.053500
C451	C45	0.701000	0.631300	0.019100
C461	C46	0.639700	0.615700	0.973900
H231	H23	0.592600	0.561700	0.970300
C471	C47	0.648200	0.680100	0.934100
C481	C48	0.715900	0.764100	0.940600
H241	H24	0.718600	0.810400	0.915100
C491	C49	0.856700	0.862500	0.992600
C501	C50	0.939400	0.057900	0.083600
C511	C51	0.894200	0.092700	0.130000
C521	C52	0.820000	0.171200	0.129400
H251	H25	0.799700	0.204600	0.099800
C531	C53	0.776500	0.199600	0.172700
C541	C54	0.805200	0.150700	0.216600
H261	H26	0.773800	0.169200	0.245300
C551	C55	0.881100	0.073400	0.218800
C561	C56	0.925300	0.045300	0.175100
H271	H27	0.976200	0.994200	0.176100
C571	C57	0.915600	0.019100	0.265900
C581	C58	0.693700	0.281500	0.170700
C591	C59	0.587900	0.661200	0.885200
C601	C60	0.688600	0.566800	0.068400
C611	C61	0.938500	0.676900	0.203700
H281	H28	0.899000	0.639200	0.224600
C621	C62	0.999200	0.733900	0.135400
H291	H29	0.010400	0.743200	0.102100
C631	C63	0.046400	0.784600	0.175100
H301	H30	0.096400	0.836100	0.173800
Zn101	Zn10	0.579290	0.567260	0.530040
Zn111	Zn11	0.608740	0.463500	0.133850
Zn121	Zn12	0.472240	0.319830	0.216110
O371	O37	0.633500	0.536900	0.196800
O381	O38	0.507400	0.458700	0.235700
O391	O39	0.600100	0.594800	0.456700
O401	O40	0.674300	0.443200	0.528700
O411	O41	0.863300	0.790200	0.293800
O421	O42	0.810900	0.838100	0.366900
O431	O43	0.918300	0.227000	0.648100
O441	O44	0.953900	0.073400	0.621100
O451	O45	0.896300	0.023500	0.432300
O461	O46	0.732900	0.062900	0.399400
O471	O47	0.486800	0.493900	0.411900
O481	O48	0.557500	0.347100	0.480200
N71	N7	0.493000	0.246300	0.281100
N81	N8	0.567800	0.166700	0.345900
H311	H31	0.607800	0.124400	0.363100
C641	C64	0.720800	0.276900	0.514000
C651	C65	0.727700	0.209500	0.476000
H321	H32	0.683100	0.217200	0.446500
C661	C66	0.799000	0.131300	0.480900
C671	C67	0.860300	0.115700	0.526100
H331	H33	0.907400	0.061700	0.529700
C681	C68	0.851800	0.180100	0.565900
C691	C69	0.784100	0.264100	0.559400
H341	H34	0.781400	0.310400	0.584900
C701	C70	0.643300	0.362500	0.507400
C711	C71	0.560600	0.557900	0.416400
C721	C72	0.605800	0.592700	0.370000
C731	C73	0.680000	0.671200	0.370600
H351	H35	0.700300	0.704600	0.400200
C741	C74	0.723500	0.699600	0.327300
C751	C75	0.694800	0.650700	0.283400
H361	H36	0.726200	0.669200	0.254700
C761	C76	0.618900	0.573400	0.281200
C771	C77	0.574700	0.545300	0.324900
H371	H37	0.523800	0.494200	0.323900
C781	C78	0.584400	0.519100	0.234100
C791	C79	0.806300	0.781500	0.329300
C801	C80	0.912100	0.161200	0.614800
C811	C81	0.811400	0.066800	0.431600
C821	C82	0.561500	0.176900	0.296300
H381	H38	0.601000	0.139200	0.275400
C831	C83	0.500800	0.233900	0.364600
H391	H39	0.489600	0.243200	0.397900
C841	C84	0.453600	0.284600	0.324900
H401	H40	0.403600	0.336100	0.326200
