data_FUVBAB_clean_PM
_symmetry_space_group_name_H-M	'P1'
_cell_length_a	9.488000
_cell_length_b	12.562000
_cell_length_c	15.477000
_cell_angle_alpha	90.000000
_cell_angle_beta	106.099000
_cell_angle_gamma	90.000000
_symmetry_Int_Tables_number 1

loop_
_symmetry_equiv_pos_as_xyz
'x,y,z'

loop_
_atom_site_label
_atom_site_type_symbol
_atom_site_fract_x
_atom_site_fract_y
_atom_site_fract_z
Zn11	Zn1	0.683890	0.053010	0.085180
O11	O1	0.670000	0.948200	0.988600
O21	O2	0.741100	0.531300	0.693600
O31	O3	0.518800	0.557200	0.714000
O41	O4	0.474000	0.844700	0.929800
O51	O5	0.133600	0.885400	0.927700
C11	C1	0.608200	0.869500	0.945900
O61	O6	0.154500	0.760300	0.830800
C21	C2	0.638800	0.716800	0.846700
H11	H1	0.540700	0.699500	0.838800
C31	C3	0.701500	0.798200	0.904700
C41	C4	0.848600	0.823300	0.918500
H21	H2	0.891500	0.876400	0.959100
C51	C5	0.720500	0.660600	0.800200
C61	C6	0.651600	0.576400	0.731000
C71	C7	0.866700	0.688100	0.813400
H31	H3	0.922300	0.651300	0.782300
C81	C8	0.931800	0.769100	0.871600
C91	C9	0.085900	0.805700	0.877200
Zn21	Zn2	0.316110	0.553010	0.414820
O71	O7	0.330000	0.448200	0.511400
O81	O8	0.258900	0.031300	0.806400
O91	O9	0.481200	0.057200	0.786000
O101	O10	0.526000	0.344700	0.570200
O111	O11	0.866400	0.385400	0.572300
C101	C10	0.391800	0.369500	0.554100
O121	O12	0.845500	0.260300	0.669200
C111	C11	0.361200	0.216800	0.653300
H41	H4	0.459300	0.199500	0.661200
C121	C12	0.298500	0.298200	0.595300
C131	C13	0.151400	0.323300	0.581500
H51	H5	0.108500	0.376400	0.540900
C141	C14	0.279500	0.160600	0.699800
C151	C15	0.348400	0.076400	0.769000
C161	C16	0.133300	0.188100	0.686600
H61	H6	0.077700	0.151300	0.717700
C171	C17	0.068200	0.269100	0.628400
C181	C18	0.914100	0.305700	0.622800
Zn31	Zn3	0.316110	0.946990	0.914820
O131	O13	0.330000	0.051800	0.011400
O141	O14	0.258900	0.468700	0.306400
O151	O15	0.481200	0.442800	0.286000
O161	O16	0.526000	0.155300	0.070200
O171	O17	0.866400	0.114600	0.072300
C191	C19	0.391800	0.130500	0.054100
O181	O18	0.845500	0.239700	0.169200
C201	C20	0.361200	0.283200	0.153300
H71	H7	0.459300	0.300500	0.161200
C211	C21	0.298500	0.201800	0.095300
C221	C22	0.151400	0.176700	0.081500
H81	H8	0.108500	0.123600	0.040900
C231	C23	0.279500	0.339400	0.199800
C241	C24	0.348400	0.423600	0.269000
C251	C25	0.133300	0.311900	0.186600
H91	H9	0.077700	0.348700	0.217700
C261	C26	0.068200	0.230900	0.128400
C271	C27	0.914100	0.194300	0.122800
Zn41	Zn4	0.683890	0.446990	0.585180
O191	O19	0.670000	0.551800	0.488600
O201	O20	0.741100	0.968700	0.193600
O211	O21	0.518800	0.942800	0.214000
O221	O22	0.474000	0.655300	0.429800
O231	O23	0.133600	0.614600	0.427700
C281	C28	0.608200	0.630500	0.445900
O241	O24	0.154500	0.739700	0.330800
C291	C29	0.638800	0.783200	0.346700
H101	H10	0.540700	0.800500	0.338800
C301	C30	0.701500	0.701800	0.404700
C311	C31	0.848600	0.676700	0.418500
H111	H11	0.891500	0.623600	0.459100
C321	C32	0.720500	0.839400	0.300200
C331	C33	0.651600	0.923600	0.231000
C341	C34	0.866700	0.811900	0.313400
H121	H12	0.922300	0.848700	0.282300
C351	C35	0.931800	0.730900	0.371600
C361	C36	0.085900	0.694300	0.377200
