data_FUWFOU_clean_PM
_symmetry_space_group_name_H-M	'P1'
_cell_length_a	12.617700
_cell_length_b	12.586900
_cell_length_c	28.561000
_cell_angle_alpha	90.000000
_cell_angle_beta	96.843000
_cell_angle_gamma	90.000000
_symmetry_Int_Tables_number 1

loop_
_symmetry_equiv_pos_as_xyz
'x,y,z'

loop_
_atom_site_label
_atom_site_type_symbol
_atom_site_fract_x
_atom_site_fract_y
_atom_site_fract_z
Cd11	Cd1	0.565150	0.331100	0.611160
Cd21	Cd2	0.355940	0.540120	0.608740
O11	O1	0.442000	0.428100	0.563600
N11	N1	0.975800	0.066000	0.846400
N21	N2	0.527400	0.765800	0.533100
N31	N3	0.900000	0.991100	0.845200
N41	N4	0.945500	0.136800	0.812000
N51	N5	0.679400	0.243200	0.670000
N61	N6	0.322900	0.528800	0.460900
N71	N7	0.524800	0.159600	0.579000
N81	N8	0.080000	0.812500	0.841400
N91	N9	0.213000	0.870300	0.807600
N101	N10	0.390200	0.783500	0.574200
N111	N11	0.482000	0.668700	0.536200
N121	N12	0.201400	0.629200	0.423600
N131	N13	0.151800	0.887900	0.842000
N141	N14	0.402000	0.680500	0.561300
C11	C1	0.852700	0.101100	0.791900
N151	N15	0.821400	0.012400	0.812100
C21	C2	0.158000	0.543700	0.443200
C31	C3	0.174100	0.779400	0.787400
N161	N16	0.092300	0.742600	0.808700
C41	C4	0.830200	0.243400	0.729300
H11	H1	0.891400	0.277500	0.743200
N171	N17	0.280800	0.643500	0.664300
C51	C5	0.793000	0.150200	0.750300
C61	C6	0.693900	0.111000	0.731100
H21	H2	0.662500	0.054300	0.745100
N181	N18	0.230300	0.481200	0.466300
C71	C7	0.969900	0.608200	0.422500
H31	H3	0.996200	0.675100	0.416200
N191	N19	0.304700	0.615300	0.436300
C81	C8	0.040000	0.529000	0.437400
C91	C9	0.600300	0.099700	0.563300
H41	H4	0.664500	0.131600	0.558400
C101	C10	0.412100	0.010800	0.577100
H51	H5	0.346100	0.982600	0.581900
C111	C11	0.491600	0.944300	0.562200
C121	C12	0.776100	0.282900	0.688700
H61	H6	0.806100	0.338500	0.673400
N201	N20	0.820600	0.493100	0.422900
C131	C13	0.432000	0.116700	0.584500
H71	H7	0.378200	0.159700	0.593600
C141	C14	0.587500	0.992500	0.554000
H81	H8	0.641400	0.953300	0.542600
C151	C15	0.213900	0.732600	0.746700
C161	C16	0.470200	0.831700	0.556100
C171	C17	0.165000	0.642200	0.725000
H91	H9	0.108300	0.610300	0.737600
C181	C18	0.887400	0.415100	0.438300
H101	H10	0.859100	0.349100	0.444500
C191	C19	0.296100	0.777500	0.724600
H111	H11	0.329100	0.839500	0.736600
C201	C20	0.643800	0.157800	0.691000
H121	H12	0.580200	0.127700	0.677400
C211	C21	0.199500	0.600900	0.685500
H131	H13	0.165900	0.540400	0.672400
C221	C22	0.863200	0.591500	0.416800
H141	H14	0.817600	0.648300	0.408400
C231	C23	0.328900	0.730400	0.684900
H151	H15	0.386300	0.759800	0.671900
C241	C24	0.994900	0.427800	0.445100
H161	H16	0.038900	0.370600	0.454800
Cd31	Cd3	0.934850	0.831100	0.888840
Cd41	Cd4	0.144060	0.040120	0.891260
O21	O2	0.058000	0.928100	0.936400
N211	N21	0.524200	0.566000	0.653600
N221	N22	0.972600	0.265800	0.966900
N231	N23	0.600000	0.491100	0.654800
N241	N24	0.554500	0.636800	0.688000
N251	N25	0.820600	0.743200	0.830000
N261	N26	0.177100	0.028800	0.039100
N271	N27	0.975200	0.659600	0.921000
N281	N28	0.420000	0.312500	0.658600
N291	N29	0.287000	0.370300	0.692400
N301	N30	0.109800	0.283500	0.925800
N311	N31	0.018000	0.168700	0.963800
N321	N32	0.298600	0.129200	0.076400
N331	N33	0.348200	0.387900	0.658000
N341	N34	0.098000	0.180500	0.938700
C251	C25	0.647300	0.601100	0.708100
N351	N35	0.678600	0.512400	0.687900
C261	C26	0.342000	0.043700	0.056800
C271	C27	0.325900	0.279400	0.712600
N361	N36	0.407700	0.242600	0.691300
C281	C28	0.669800	0.743400	0.770700
H171	H17	0.608600	0.777500	0.756800
N371	N37	0.219200	0.143500	0.835700
C291	C29	0.707000	0.650200	0.749700
C301	C30	0.806100	0.611000	0.768900
H181	H18	0.837500	0.554300	0.754900
N381	N38	0.269700	0.981200	0.033700
C311	C31	0.530100	0.108200	0.077500
H191	H19	0.503800	0.175100	0.083800
N391	N39	0.195300	0.115300	0.063700
C321	C32	0.460000	0.029000	0.062600
C331	C33	0.899700	0.599700	0.936700
H201	H20	0.835500	0.631600	0.941600
C341	C34	0.087900	0.510800	0.922900
H211	H21	0.153900	0.482600	0.918100
C351	C35	0.008400	0.444300	0.937800
C361	C36	0.723900	0.782900	0.811300
H221	H22	0.693900	0.838500	0.826600
N401	N40	0.679400	0.993100	0.077100
C371	C37	0.068000	0.616700	0.915500
H231	H23	0.121800	0.659700	0.906400
C381	C38	0.912500	0.492500	0.946000
H241	H24	0.858600	0.453300	0.957400
C391	C39	0.286100	0.232600	0.753300
C401	C40	0.029800	0.331700	0.943900
C411	C41	0.335000	0.142200	0.775000
H251	H25	0.391700	0.110300	0.762400
C421	C42	0.612600	0.915100	0.061700
H261	H26	0.640900	0.849100	0.055500
C431	C43	0.203900	0.277500	0.775400
H271	H27	0.170900	0.339500	0.763400
C441	C44	0.856200	0.657800	0.809000
H281	H28	0.919800	0.627700	0.822600
C451	C45	0.300500	0.100900	0.814500
H291	H29	0.334100	0.040400	0.827600
C461	C46	0.636800	0.091500	0.083200
H301	H30	0.682400	0.148300	0.091600
C471	C47	0.171100	0.230400	0.815100
H311	H31	0.113700	0.259800	0.828100
C481	C48	0.505100	0.927800	0.054900
H321	H32	0.461100	0.870600	0.045200
Cd51	Cd5	0.434850	0.668900	0.388840
Cd61	Cd6	0.644060	0.459880	0.391260
O31	O3	0.558000	0.571900	0.436400
N411	N41	0.024200	0.934000	0.153600
N421	N42	0.472600	0.234200	0.466900
N431	N43	0.100000	0.008900	0.154800
N441	N44	0.054500	0.863200	0.188000
N451	N45	0.320600	0.756800	0.330000
N461	N46	0.677100	0.471200	0.539100
N471	N47	0.475200	0.840400	0.421000
N481	N48	0.920000	0.187500	0.158600
N491	N49	0.787000	0.129700	0.192400
N501	N50	0.609800	0.216500	0.425800
N511	N51	0.518000	0.331300	0.463800
N521	N52	0.798600	0.370800	0.576400
N531	N53	0.848200	0.112100	0.158000
N541	N54	0.598000	0.319500	0.438700
C491	C49	0.147300	0.898900	0.208100
N551	N55	0.178600	0.987600	0.187900
C501	C50	0.842000	0.456300	0.556800
C511	C51	0.825900	0.220600	0.212600
N561	N56	0.907700	0.257400	0.191300
C521	C52	0.169800	0.756600	0.270700
H331	H33	0.108600	0.722500	0.256800
N571	N57	0.719200	0.356500	0.335700
C531	C53	0.207000	0.849800	0.249700
C541	C54	0.306100	0.889000	0.268900
H341	H34	0.337500	0.945700	0.254900
N581	N58	0.769700	0.518800	0.533700
C551	C55	0.030100	0.391800	0.577500
H351	H35	0.003800	0.324900	0.583800
N591	N59	0.695300	0.384700	0.563700
C561	C56	0.960000	0.471000	0.562600
C571	C57	0.399700	0.900300	0.436700
H361	H36	0.335500	0.868400	0.441600
C581	C58	0.587900	0.989200	0.422900
H371	H37	0.653900	0.017400	0.418100
C591	C59	0.508400	0.055700	0.437800
C601	C60	0.223900	0.717100	0.311300
H381	H38	0.193900	0.661500	0.326600
N601	N60	0.179400	0.506900	0.577100
C611	C61	0.568000	0.883300	0.415500
H391	H39	0.621800	0.840300	0.406400
C621	C62	0.412500	0.007500	0.446000
H401	H40	0.358600	0.046700	0.457400
C631	C63	0.786100	0.267400	0.253300
C641	C64	0.529800	0.168300	0.443900
C651	C65	0.835000	0.357800	0.275000
H411	H41	0.891700	0.389700	0.262400
C661	C66	0.112600	0.584900	0.561700
H421	H42	0.140900	0.650900	0.555500
C671	C67	0.703900	0.222500	0.275400
H431	H43	0.670900	0.160500	0.263400
C681	C68	0.356200	0.842200	0.309000
H441	H44	0.419800	0.872300	0.322600
C691	C69	0.800500	0.399100	0.314500
H451	H45	0.834100	0.459600	0.327600
C701	C70	0.136800	0.408500	0.583200
H461	H46	0.182400	0.351700	0.591600
C711	C71	0.671100	0.269600	0.315100
H471	H47	0.613700	0.240200	0.328100
C721	C72	0.005100	0.572200	0.554900
H481	H48	0.961100	0.629400	0.545200
Cd71	Cd7	0.065150	0.168900	0.111160
Cd81	Cd8	0.855940	0.959880	0.108740
O41	O4	0.942000	0.071900	0.063600
N611	N61	0.475800	0.434000	0.346400
N621	N62	0.027400	0.734200	0.033100
N631	N63	0.400000	0.508900	0.345200
N641	N64	0.445500	0.363200	0.312000
N651	N65	0.179400	0.256800	0.170000
N661	N66	0.822900	0.971200	0.960900
N671	N67	0.024800	0.340400	0.079000
N681	N68	0.580000	0.687500	0.341400
N691	N69	0.713000	0.629700	0.307600
N701	N70	0.890200	0.716500	0.074200
N711	N71	0.982000	0.831300	0.036200
N721	N72	0.701400	0.870800	0.923600
N731	N73	0.651800	0.612100	0.342000
N741	N74	0.902000	0.819500	0.061300
C731	C73	0.352700	0.398900	0.291900
N751	N75	0.321400	0.487600	0.312100
C741	C74	0.658000	0.956300	0.943200
C751	C75	0.674100	0.720600	0.287400
N761	N76	0.592300	0.757400	0.308700
C761	C76	0.330200	0.256600	0.229300
H491	H49	0.391400	0.222500	0.243200
N771	N77	0.780800	0.856500	0.164300
C771	C77	0.293000	0.349800	0.250300
C781	C78	0.193900	0.389000	0.231100
H501	H50	0.162500	0.445700	0.245100
N781	N78	0.730300	0.018800	0.966300
C791	C79	0.469900	0.891800	0.922500
H511	H51	0.496200	0.824900	0.916200
N791	N79	0.804700	0.884700	0.936300
C801	C80	0.540000	0.971000	0.937400
C811	C81	0.100300	0.400300	0.063300
H521	H52	0.164500	0.368400	0.058400
C821	C82	0.912100	0.489200	0.077100
H531	H53	0.846100	0.517400	0.081900
C831	C83	0.991600	0.555700	0.062200
C841	C84	0.276100	0.217100	0.188700
H541	H54	0.306100	0.161500	0.173400
N801	N80	0.320600	0.006900	0.922900
C851	C85	0.932000	0.383300	0.084500
H551	H55	0.878200	0.340300	0.093600
C861	C86	0.087500	0.507500	0.054000
H561	H56	0.141400	0.546700	0.042600
C871	C87	0.713900	0.767400	0.246700
C881	C88	0.970200	0.668300	0.056100
C891	C89	0.665000	0.857800	0.225000
H571	H57	0.608300	0.889700	0.237600
C901	C90	0.387400	0.084900	0.938300
H581	H58	0.359100	0.150900	0.944500
C911	C91	0.796100	0.722500	0.224600
H591	H59	0.829100	0.660500	0.236600
C921	C92	0.143800	0.342200	0.191000
H601	H60	0.080200	0.372300	0.177400
C931	C93	0.699500	0.899100	0.185500
H611	H61	0.665900	0.959600	0.172400
C941	C94	0.363200	0.908500	0.916800
H621	H62	0.317600	0.851700	0.908400
C951	C95	0.828900	0.769600	0.184900
H631	H63	0.886300	0.740200	0.171900
C961	C96	0.494900	0.072200	0.945100
H641	H64	0.538900	0.129400	0.954800
Cd91	Cd9	0.500000	0.500000	0.500000
Cd101	Cd10	0.000000	0.000000	0.000000
