data_FUWFIO_clean_PM
_symmetry_space_group_name_H-M	'P1'
_cell_length_a	14.044000
_cell_length_b	20.297000
_cell_length_c	23.635000
_cell_angle_alpha	90.000000
_cell_angle_beta	90.000000
_cell_angle_gamma	90.000000
_symmetry_Int_Tables_number 1

loop_
_symmetry_equiv_pos_as_xyz
'x,y,z'

loop_
_atom_site_label
_atom_site_type_symbol
_atom_site_fract_x
_atom_site_fract_y
_atom_site_fract_z
N11	N1	0.479600	0.704000	0.083200
C11	C1	0.564600	0.683200	0.080500
H11	H1	0.592300	0.670800	0.114700
C21	C2	0.441000	0.720600	0.033300
H21	H2	0.379300	0.737200	0.032800
Cd11	Cd1	0.899990	0.730700	0.831360
N21	N2	0.887000	0.842700	0.856500
N31	N3	0.881400	0.863900	0.907100
N41	N4	0.874900	0.928700	0.904100
N51	N5	0.884600	0.891000	0.818100
N61	N6	0.855300	0.143300	0.788600
N71	N7	0.750400	0.702300	0.871900
N81	N8	0.667500	0.707200	0.843200
N91	N9	0.593800	0.703900	0.878200
N101	N10	0.729400	0.693800	0.926300
N111	N11	0.039200	0.752500	0.779300
N121	N12	0.127500	0.749400	0.797300
C31	C3	0.881100	0.944800	0.849900
C41	C4	0.874200	0.012900	0.828700
C51	C5	0.865400	0.065300	0.865800
H31	H3	0.865500	0.058100	0.904600
C61	C6	0.871200	0.028500	0.770000
H41	H4	0.873200	0.995400	0.742800
C71	C7	0.856400	0.129500	0.844300
H51	H5	0.850900	0.164200	0.869800
C81	C8	0.865400	0.091600	0.754700
H61	H6	0.868800	0.100400	0.716200
C91	C9	0.634000	0.696400	0.930500
C101	C10	0.580700	0.694700	0.982100
C111	C11	0.487900	0.714300	0.983500
H71	H7	0.456400	0.723400	0.949800
C121	C12	0.622100	0.676600	0.031900
H81	H8	0.684200	0.660900	0.033700
C131	C13	0.437000	0.764400	0.796900
H91	H9	0.470100	0.774700	0.829800
C141	C14	0.340600	0.764400	0.798000
H101	H10	0.310100	0.774300	0.831900
N131	N13	0.020400	0.296000	0.083200
C151	C15	0.935400	0.316800	0.080500
H111	H11	0.907700	0.329200	0.114700
C161	C16	0.059000	0.279400	0.033300
H121	H12	0.120700	0.262800	0.032800
Cd21	Cd2	0.600010	0.269300	0.831360
N141	N14	0.613000	0.157300	0.856500
N151	N15	0.618600	0.136100	0.907100
N161	N16	0.625100	0.071300	0.904100
N171	N17	0.615400	0.109000	0.818100
N181	N18	0.644700	0.856700	0.788600
N191	N19	0.749600	0.297700	0.871900
N201	N20	0.832500	0.292800	0.843200
N211	N21	0.906200	0.296100	0.878200
N221	N22	0.770600	0.306200	0.926300
N231	N23	0.460800	0.247500	0.779300
N241	N24	0.372500	0.250600	0.797300
C171	C17	0.618900	0.055200	0.849900
C181	C18	0.625800	0.987100	0.828700
C191	C19	0.634600	0.934700	0.865800
H131	H13	0.634500	0.941900	0.904600
C201	C20	0.628800	0.971500	0.770000
H141	H14	0.626800	0.004600	0.742800
C211	C21	0.643600	0.870500	0.844300
H151	H15	0.649100	0.835800	0.869800
C221	C22	0.634600	0.908400	0.754700
H161	H16	0.631200	0.899600	0.716200
C231	C23	0.866000	0.303600	0.930500
C241	C24	0.919300	0.305300	0.982100
C251	C25	0.012100	0.285700	0.983500
H171	H17	0.043600	0.276600	0.949800
C261	C26	0.877900	0.323400	0.031900
H181	H18	0.815800	0.339100	0.033700
C271	C27	0.063000	0.235600	0.796900
H191	H19	0.029900	0.225300	0.829800
C281	C28	0.159400	0.235600	0.798000
H201	H20	0.189900	0.225700	0.831900
N251	N25	0.020400	0.204000	0.416800
C291	C29	0.935400	0.183200	0.419500
H211	H21	0.907700	0.170800	0.385300
C301	C30	0.059000	0.220600	0.466700
H221	H22	0.120700	0.237200	0.467200
Cd31	Cd3	0.600010	0.230700	0.668640
N261	N26	0.613000	0.342700	0.643500
N271	N27	0.618600	0.363900	0.592900
N281	N28	0.625100	0.428700	0.595900
N291	N29	0.615400	0.391000	0.681900
N301	N30	0.644700	0.643300	0.711400
N311	N31	0.749600	0.202300	0.628100
N321	N32	0.832500	0.207200	0.656800
N331	N33	0.906200	0.203900	0.621800
N341	N34	0.770600	0.193800	0.573700
N351	N35	0.460800	0.252500	0.720700
N361	N36	0.372500	0.249400	0.702700
C311	C31	0.618900	0.444800	0.650100
C321	C32	0.625800	0.512900	0.671300
C331	C33	0.634600	0.565300	0.634200
H231	H23	0.634500	0.558100	0.595400
C341	C34	0.628800	0.528500	0.730000
H241	H24	0.626800	0.495400	0.757200
C351	C35	0.643600	0.629500	0.655700
H251	H25	0.649100	0.664200	0.630200
C361	C36	0.634600	0.591600	0.745300
H261	H26	0.631200	0.600400	0.783800
C371	C37	0.866000	0.196400	0.569500
C381	C38	0.919300	0.194700	0.517900
C391	C39	0.012100	0.214300	0.516500
H271	H27	0.043600	0.223400	0.550200
C401	C40	0.877900	0.176600	0.468100
H281	H28	0.815800	0.160900	0.466300
C411	C41	0.063000	0.264400	0.703100
H291	H29	0.029900	0.274700	0.670200
C421	C42	0.159400	0.264400	0.702000
H301	H30	0.189900	0.274300	0.668100
N371	N37	0.479600	0.796000	0.416800
C431	C43	0.564600	0.816800	0.419500
H311	H31	0.592300	0.829200	0.385300
C441	C44	0.441000	0.779400	0.466700
H321	H32	0.379300	0.762800	0.467200
Cd41	Cd4	0.899990	0.769300	0.668640
N381	N38	0.887000	0.657300	0.643500
N391	N39	0.881400	0.636100	0.592900
N401	N40	0.874900	0.571300	0.595900
N411	N41	0.884600	0.609000	0.681900
N421	N42	0.855300	0.356700	0.711400
N431	N43	0.750400	0.797700	0.628100
N441	N44	0.667500	0.792800	0.656800
N451	N45	0.593800	0.796100	0.621800
N461	N46	0.729400	0.806200	0.573700
N471	N47	0.039200	0.747500	0.720700
N481	N48	0.127500	0.750600	0.702700
C451	C45	0.881100	0.555200	0.650100
C461	C46	0.874200	0.487100	0.671300
C471	C47	0.865400	0.434700	0.634200
H331	H33	0.865500	0.441900	0.595400
C481	C48	0.871200	0.471500	0.730000
H341	H34	0.873200	0.504600	0.757200
C491	C49	0.856400	0.370500	0.655700
H351	H35	0.850900	0.335800	0.630200
C501	C50	0.865400	0.408400	0.745300
H361	H36	0.868800	0.399600	0.783800
C511	C51	0.634000	0.803600	0.569500
C521	C52	0.580700	0.805300	0.517900
C531	C53	0.487900	0.785700	0.516500
H371	H37	0.456400	0.776600	0.550200
C541	C54	0.622100	0.823400	0.468100
H381	H38	0.684200	0.839100	0.466300
C551	C55	0.437000	0.735600	0.703100
H391	H39	0.470100	0.725300	0.670200
C561	C56	0.340600	0.735600	0.702000
H401	H40	0.310100	0.725700	0.668100
N491	N49	0.520400	0.296000	0.916800
C571	C57	0.435400	0.316800	0.919500
H411	H41	0.407700	0.329200	0.885300
C581	C58	0.559000	0.279400	0.966700
H421	H42	0.620700	0.262800	0.967200
Cd51	Cd5	0.100010	0.269300	0.168640
N501	N50	0.113000	0.157300	0.143500
N511	N51	0.118600	0.136100	0.092900
N521	N52	0.125100	0.071300	0.095900
N531	N53	0.115400	0.109000	0.181900
N541	N54	0.144700	0.856700	0.211400
N551	N55	0.249600	0.297700	0.128100
N561	N56	0.332500	0.292800	0.156800
N571	N57	0.406200	0.296100	0.121800
N581	N58	0.270600	0.306200	0.073700
N591	N59	0.960800	0.247500	0.220700
N601	N60	0.872500	0.250600	0.202700
C591	C59	0.118900	0.055200	0.150100
C601	C60	0.125800	0.987100	0.171300
C611	C61	0.134600	0.934700	0.134200
H431	H43	0.134500	0.941900	0.095400
C621	C62	0.128800	0.971500	0.230000
H441	H44	0.126800	0.004600	0.257200
C631	C63	0.143600	0.870500	0.155700
H451	H45	0.149100	0.835800	0.130200
C641	C64	0.134600	0.908400	0.245300
H461	H46	0.131200	0.899600	0.283800
C651	C65	0.366000	0.303600	0.069500
C661	C66	0.419300	0.305300	0.017900
C671	C67	0.512100	0.285700	0.016500
H471	H47	0.543600	0.276600	0.050200
C681	C68	0.377900	0.323400	0.968100
H481	H48	0.315800	0.339100	0.966300
C691	C69	0.563000	0.235600	0.203100
H491	H49	0.529900	0.225300	0.170200
C701	C70	0.659400	0.235600	0.202000
H501	H50	0.689900	0.225700	0.168100
N611	N61	0.979600	0.704000	0.916800
C711	C71	0.064600	0.683200	0.919500
H511	H51	0.092300	0.670800	0.885300
C721	C72	0.941000	0.720600	0.966700
H521	H52	0.879300	0.737200	0.967200
Cd61	Cd6	0.399990	0.730700	0.168640
N621	N62	0.387000	0.842700	0.143500
N631	N63	0.381400	0.863900	0.092900
N641	N64	0.374900	0.928700	0.095900
N651	N65	0.384600	0.891000	0.181900
N661	N66	0.355300	0.143300	0.211400
N671	N67	0.250400	0.702300	0.128100
N681	N68	0.167500	0.707200	0.156800
N691	N69	0.093800	0.703900	0.121800
N701	N70	0.229400	0.693800	0.073700
N711	N71	0.539200	0.752500	0.220700
N721	N72	0.627500	0.749400	0.202700
C731	C73	0.381100	0.944800	0.150100
C741	C74	0.374200	0.012900	0.171300
C751	C75	0.365400	0.065300	0.134200
H531	H53	0.365500	0.058100	0.095400
C761	C76	0.371200	0.028500	0.230000
H541	H54	0.373200	0.995400	0.257200
C771	C77	0.356400	0.129500	0.155700
H551	H55	0.350900	0.164200	0.130200
C781	C78	0.365400	0.091600	0.245300
H561	H56	0.368800	0.100400	0.283800
C791	C79	0.134000	0.696400	0.069500
C801	C80	0.080700	0.694700	0.017900
C811	C81	0.987900	0.714300	0.016500
H571	H57	0.956400	0.723400	0.050200
C821	C82	0.122100	0.676600	0.968100
H581	H58	0.184200	0.660900	0.966300
C831	C83	0.937000	0.764400	0.203100
H591	H59	0.970100	0.774700	0.170200
C841	C84	0.840600	0.764400	0.202000
H601	H60	0.810100	0.774300	0.168100
N731	N73	0.979600	0.796000	0.583200
C851	C85	0.064600	0.816800	0.580500
H611	H61	0.092300	0.829200	0.614700
C861	C86	0.941000	0.779400	0.533300
H621	H62	0.879300	0.762800	0.532800
Cd71	Cd7	0.399990	0.769300	0.331360
N741	N74	0.387000	0.657300	0.356500
N751	N75	0.381400	0.636100	0.407100
N761	N76	0.374900	0.571300	0.404100
N771	N77	0.384600	0.609000	0.318100
N781	N78	0.355300	0.356700	0.288600
N791	N79	0.250400	0.797700	0.371900
N801	N80	0.167500	0.792800	0.343200
N811	N81	0.093800	0.796100	0.378200
N821	N82	0.229400	0.806200	0.426300
N831	N83	0.539200	0.747500	0.279300
N841	N84	0.627500	0.750600	0.297300
C871	C87	0.381100	0.555200	0.349900
C881	C88	0.374200	0.487100	0.328700
C891	C89	0.365400	0.434700	0.365800
H631	H63	0.365500	0.441900	0.404600
C901	C90	0.371200	0.471500	0.270000
H641	H64	0.373200	0.504600	0.242800
C911	C91	0.356400	0.370500	0.344300
H651	H65	0.350900	0.335800	0.369800
C921	C92	0.365400	0.408400	0.254700
H661	H66	0.368800	0.399600	0.216200
C931	C93	0.134000	0.803600	0.430500
C941	C94	0.080700	0.805300	0.482100
C951	C95	0.987900	0.785700	0.483500
H671	H67	0.956400	0.776600	0.449800
C961	C96	0.122100	0.823400	0.531900
H681	H68	0.184200	0.839100	0.533700
C971	C97	0.937000	0.735600	0.296900
H691	H69	0.970100	0.725300	0.329800
C981	C98	0.840600	0.735600	0.298000
H701	H70	0.810100	0.725700	0.331900
N851	N85	0.520400	0.204000	0.583200
C991	C99	0.435400	0.183200	0.580500
H711	H71	0.407700	0.170800	0.614700
C1001	C100	0.559000	0.220600	0.533300
H721	H72	0.620700	0.237200	0.532800
Cd81	Cd8	0.100010	0.230700	0.331360
N861	N86	0.113000	0.342700	0.356500
N871	N87	0.118600	0.363900	0.407100
N881	N88	0.125100	0.428700	0.404100
N891	N89	0.115400	0.391000	0.318100
N901	N90	0.144700	0.643300	0.288600
N911	N91	0.249600	0.202300	0.371900
N921	N92	0.332500	0.207200	0.343200
N931	N93	0.406200	0.203900	0.378200
N941	N94	0.270600	0.193800	0.426300
N951	N95	0.960800	0.252500	0.279300
N961	N96	0.872500	0.249400	0.297300
C1011	C101	0.118900	0.444800	0.349900
C1021	C102	0.125800	0.512900	0.328700
C1031	C103	0.134600	0.565300	0.365800
H731	H73	0.134500	0.558100	0.404600
C1041	C104	0.128800	0.528500	0.270000
H741	H74	0.126800	0.495400	0.242800
C1051	C105	0.143600	0.629500	0.344300
H751	H75	0.149100	0.664200	0.369800
C1061	C106	0.134600	0.591600	0.254700
H761	H76	0.131200	0.600400	0.216200
C1071	C107	0.366000	0.196400	0.430500
C1081	C108	0.419300	0.194700	0.482100
C1091	C109	0.512100	0.214300	0.483500
H771	H77	0.543600	0.223400	0.449800
C1101	C110	0.377900	0.176600	0.531900
H781	H78	0.315800	0.160900	0.533700
C1111	C111	0.563000	0.264400	0.296900
H791	H79	0.529900	0.274700	0.329800
C1121	C112	0.659400	0.264400	0.298000
H801	H80	0.689900	0.274300	0.331900
Cd91	Cd9	0.655670	0.750000	0.750000
O11	O1	0.815500	0.750000	0.750000
N971	N97	0.486100	0.750000	0.750000
C1131	C113	0.180400	0.750000	0.750000
C1141	C114	0.283900	0.750000	0.750000
Cd101	Cd10	0.844330	0.250000	0.750000
O21	O2	0.684500	0.250000	0.750000
N981	N98	0.013900	0.250000	0.750000
C1151	C115	0.319600	0.250000	0.750000
C1161	C116	0.216100	0.250000	0.750000
Cd111	Cd11	0.344330	0.250000	0.250000
O31	O3	0.184500	0.250000	0.250000
N991	N99	0.513900	0.250000	0.250000
C1171	C117	0.819600	0.250000	0.250000
C1181	C118	0.716100	0.250000	0.250000
Cd121	Cd12	0.155670	0.750000	0.250000
O41	O4	0.315500	0.750000	0.250000
N1001	N100	0.986100	0.750000	0.250000
C1191	C119	0.680400	0.750000	0.250000
C1201	C120	0.783900	0.750000	0.250000
