data_FUXXIH_clean_PM
_symmetry_space_group_name_H-M	'P1'
_cell_length_a	24.274000
_cell_length_b	25.634000
_cell_length_c	11.089800
_cell_angle_alpha	90.000000
_cell_angle_beta	114.924000
_cell_angle_gamma	90.000000
_symmetry_Int_Tables_number 1

loop_
_symmetry_equiv_pos_as_xyz
'x,y,z'

loop_
_atom_site_label
_atom_site_type_symbol
_atom_site_fract_x
_atom_site_fract_y
_atom_site_fract_z
Ni11	Ni1	0.743940	0.420560	0.020150
Ni21	Ni2	0.755790	0.461720	0.482340
Ni31	Ni3	0.749080	0.439080	0.749800
O11	O1	0.699200	0.377300	0.713700
C11	C1	0.527800	0.086900	0.658900
H11	H1	0.486900	0.093600	0.635300
C21	C2	0.976900	0.712300	0.948900
C31	C3	0.525100	0.174000	0.549800
C41	C4	0.554300	0.122500	0.617300
O21	O2	0.817600	0.496300	0.798300
C51	C5	0.943300	0.757300	0.874100
C61	C6	0.570900	0.257100	0.531600
H21	H2	0.551100	0.252900	0.439900
C71	C7	0.925600	0.622100	0.968400
H31	H3	0.942200	0.625700	0.060400
C81	C8	0.563100	0.222400	0.610500
C91	C9	0.978900	0.793300	0.835000
H41	H4	0.019500	0.789100	0.851600
O31	O3	0.688500	0.360600	0.910900
C101	C10	0.911400	0.654100	0.748200
H51	H5	0.914400	0.679700	0.691600
C111	C11	0.634600	0.305600	0.726800
C121	C12	0.885000	0.845800	0.731300
C131	C13	0.939600	0.661600	0.894400
C141	C14	0.864500	0.570400	0.778700
C151	C15	0.587300	0.231500	0.743900
H61	H6	0.577200	0.209300	0.797800
C161	C16	0.627300	0.273800	0.803600
H71	H7	0.647000	0.277600	0.895500
C171	C17	0.880800	0.608600	0.699100
H81	H8	0.869400	0.601200	0.609700
C181	C18	0.612000	0.029400	0.760700
C191	C19	0.891700	0.582100	0.917900
H91	H9	0.884500	0.559400	0.975200
O41	O4	0.809100	0.514800	0.597400
C201	C20	0.610800	0.302700	0.587400
H101	H10	0.619200	0.327100	0.535500
O51	O5	0.710000	0.470100	0.871200
H111	H11	0.723300	0.505500	0.898700
H121	H12	0.666000	0.468800	0.828400
C211	C21	0.939800	0.838100	0.764300
H131	H13	0.959700	0.864600	0.741000
C221	C22	0.548200	0.040600	0.731400
H141	H14	0.524100	0.019500	0.758100
C231	C23	0.673500	0.351500	0.784500
C241	C24	0.855500	0.808700	0.771000
H151	H15	0.814600	0.812700	0.752100
O61	O6	0.693500	0.470100	0.568400
H161	H16	0.683200	0.506300	0.574500
H171	H17	0.656800	0.449800	0.522700
O71	O7	0.802100	0.399100	0.930500
H181	H18	0.803700	0.361700	0.918900
H191	H19	0.842800	0.413200	0.976300
C251	C25	0.648300	0.064300	0.724000
H201	H20	0.688700	0.056000	0.746500
C261	C26	0.622400	0.114600	0.649200
H211	H21	0.645100	0.138200	0.625000
N11	N1	0.817400	0.428600	0.432200
O81	O8	0.827500	0.331400	0.671300
C271	C27	0.817400	0.366600	0.611100
O91	O9	0.784500	0.399800	0.638900
C281	C28	0.878400	0.454100	0.483100
H221	H22	0.877200	0.483300	0.426500
H231	H23	0.889400	0.467200	0.572400
C291	C29	0.885100	0.768100	0.835000
H241	H24	0.862500	0.743300	0.856200
C301	C30	0.924300	0.415100	0.484100
H251	H25	0.965300	0.425100	0.543900
H261	H26	0.922100	0.409000	0.395800
C311	C31	0.833600	0.376400	0.494300
H271	H27	0.811800	0.350500	0.425700
C321	C32	0.902100	0.368100	0.536000
H281	H28	0.923500	0.365900	0.632000
H291	H29	0.908900	0.336100	0.497700
C331	C33	0.824600	0.523900	0.723200
O101	O10	0.621400	0.960000	0.903700
C341	C34	0.646100	0.987000	0.840200
O111	O11	0.685300	0.970500	0.848400
O121	O12	0.895800	0.925500	0.623800
C351	C35	0.864300	0.900900	0.650200
O131	O13	0.794400	0.900700	0.635700
Ni41	Ni4	0.243940	0.920560	0.020150
Ni51	Ni5	0.255790	0.961720	0.482340
Ni61	Ni6	0.249080	0.939080	0.749800
O141	O14	0.199200	0.877300	0.713700
C361	C36	0.027800	0.586900	0.658900
H301	H30	0.986900	0.593600	0.635300
C371	C37	0.476900	0.212300	0.948900
C381	C38	0.025100	0.674000	0.549800
C391	C39	0.054300	0.622500	0.617300
O151	O15	0.317600	0.996300	0.798300
C401	C40	0.443300	0.257300	0.874100
C411	C41	0.070900	0.757100	0.531600
H311	H31	0.051100	0.752900	0.439900
C421	C42	0.425600	0.122100	0.968400
H321	H32	0.442200	0.125700	0.060400
C431	C43	0.063100	0.722400	0.610500
C441	C44	0.478900	0.293300	0.835000
H331	H33	0.519500	0.289100	0.851600
O161	O16	0.188500	0.860600	0.910900
C451	C45	0.411400	0.154100	0.748200
H341	H34	0.414400	0.179700	0.691600
C461	C46	0.134600	0.805600	0.726800
C471	C47	0.385000	0.345800	0.731300
C481	C48	0.439600	0.161600	0.894400
C491	C49	0.364500	0.070400	0.778700
C501	C50	0.087300	0.731500	0.743900
H351	H35	0.077200	0.709300	0.797800
C511	C51	0.127300	0.773800	0.803600
H361	H36	0.147000	0.777600	0.895500
C521	C52	0.380800	0.108600	0.699100
H371	H37	0.369400	0.101200	0.609700
C531	C53	0.112000	0.529400	0.760700
C541	C54	0.391700	0.082100	0.917900
H381	H38	0.384500	0.059400	0.975200
O171	O17	0.309100	0.014800	0.597400
C551	C55	0.110800	0.802700	0.587400
H391	H39	0.119200	0.827100	0.535500
O181	O18	0.210000	0.970100	0.871200
H401	H40	0.223300	0.005500	0.898700
H411	H41	0.166000	0.968800	0.828400
C561	C56	0.439800	0.338100	0.764300
H421	H42	0.459700	0.364600	0.741000
C571	C57	0.048200	0.540600	0.731400
H431	H43	0.024100	0.519500	0.758100
C581	C58	0.173500	0.851500	0.784500
C591	C59	0.355500	0.308700	0.771000
H441	H44	0.314600	0.312700	0.752100
O191	O19	0.193500	0.970100	0.568400
H451	H45	0.183200	0.006300	0.574500
H461	H46	0.156800	0.949800	0.522700
O201	O20	0.302100	0.899100	0.930500
H471	H47	0.303700	0.861700	0.918900
H481	H48	0.342800	0.913200	0.976300
C601	C60	0.148300	0.564300	0.724000
H491	H49	0.188700	0.556000	0.746500
C611	C61	0.122400	0.614600	0.649200
H501	H50	0.145100	0.638200	0.625000
N21	N2	0.317400	0.928600	0.432200
O211	O21	0.327500	0.831400	0.671300
C621	C62	0.317400	0.866600	0.611100
O221	O22	0.284500	0.899800	0.638900
C631	C63	0.378400	0.954100	0.483100
H511	H51	0.377200	0.983300	0.426500
H521	H52	0.389400	0.967200	0.572400
C641	C64	0.385100	0.268100	0.835000
H531	H53	0.362500	0.243300	0.856200
C651	C65	0.424300	0.915100	0.484100
H541	H54	0.465300	0.925100	0.543900
H551	H55	0.422100	0.909000	0.395800
C661	C66	0.333600	0.876400	0.494300
H561	H56	0.311800	0.850500	0.425700
C671	C67	0.402100	0.868100	0.536000
H571	H57	0.423500	0.865900	0.632000
H581	H58	0.408900	0.836100	0.497700
C681	C68	0.324600	0.023900	0.723200
O231	O23	0.121400	0.460000	0.903700
C691	C69	0.146100	0.487000	0.840200
O241	O24	0.185300	0.470500	0.848400
O251	O25	0.395800	0.425500	0.623800
C701	C70	0.364300	0.400900	0.650200
O261	O26	0.294400	0.400700	0.635700
Ni71	Ni7	0.256060	0.420560	0.979850
Ni81	Ni8	0.244210	0.461720	0.517660
Ni91	Ni9	0.250920	0.439080	0.250200
O271	O27	0.300800	0.377300	0.286300
C711	C71	0.472200	0.086900	0.341100
H591	H59	0.513100	0.093600	0.364700
C721	C72	0.023100	0.712300	0.051100
C731	C73	0.474900	0.174000	0.450200
C741	C74	0.445700	0.122500	0.382700
O281	O28	0.182400	0.496300	0.201700
C751	C75	0.056700	0.757300	0.125900
C761	C76	0.429100	0.257100	0.468400
H601	H60	0.448900	0.252900	0.560100
C771	C77	0.074400	0.622100	0.031600
H611	H61	0.057800	0.625700	0.939600
C781	C78	0.436900	0.222400	0.389500
C791	C79	0.021100	0.793300	0.165000
H621	H62	0.980500	0.789100	0.148400
O291	O29	0.311500	0.360600	0.089100
C801	C80	0.088600	0.654100	0.251800
H631	H63	0.085600	0.679700	0.308400
C811	C81	0.365400	0.305600	0.273200
C821	C82	0.115000	0.845800	0.268700
C831	C83	0.060400	0.661600	0.105600
C841	C84	0.135500	0.570400	0.221300
C851	C85	0.412700	0.231500	0.256100
H641	H64	0.422800	0.209300	0.202200
C861	C86	0.372700	0.273800	0.196400
H651	H65	0.353000	0.277600	0.104500
C871	C87	0.119200	0.608600	0.300900
H661	H66	0.130600	0.601200	0.390300
C881	C88	0.388000	0.029400	0.239300
C891	C89	0.108300	0.582100	0.082100
H671	H67	0.115500	0.559400	0.024800
O301	O30	0.190900	0.514800	0.402600
C901	C90	0.389200	0.302700	0.412600
H681	H68	0.380800	0.327100	0.464500
O311	O31	0.290000	0.470100	0.128800
H691	H69	0.276700	0.505500	0.101300
H701	H70	0.334000	0.468800	0.171600
C911	C91	0.060200	0.838100	0.235700
H711	H71	0.040300	0.864600	0.259000
C921	C92	0.451800	0.040600	0.268600
H721	H72	0.475900	0.019500	0.241900
C931	C93	0.326500	0.351500	0.215500
C941	C94	0.144500	0.808700	0.229000
H731	H73	0.185400	0.812700	0.247900
O321	O32	0.306500	0.470100	0.431600
H741	H74	0.316800	0.506300	0.425500
H751	H75	0.343200	0.449800	0.477300
O331	O33	0.197900	0.399100	0.069500
H761	H76	0.196300	0.361700	0.081100
H771	H77	0.157200	0.413200	0.023700
C951	C95	0.351700	0.064300	0.276000
H781	H78	0.311300	0.056000	0.253500
C961	C96	0.377600	0.114600	0.350800
H791	H79	0.354900	0.138200	0.375000
N31	N3	0.182600	0.428600	0.567800
O341	O34	0.172500	0.331400	0.328700
C971	C97	0.182600	0.366600	0.388900
O351	O35	0.215500	0.399800	0.361100
C981	C98	0.121600	0.454100	0.516900
H801	H80	0.122800	0.483300	0.573500
H811	H81	0.110600	0.467200	0.427600
C991	C99	0.114900	0.768100	0.165000
H821	H82	0.137500	0.743300	0.143800
C1001	C100	0.075700	0.415100	0.515900
H831	H83	0.034700	0.425100	0.456100
H841	H84	0.077900	0.409000	0.604200
C1011	C101	0.166400	0.376400	0.505700
H851	H85	0.188200	0.350500	0.574300
C1021	C102	0.097900	0.368100	0.464000
H861	H86	0.076500	0.365900	0.368000
H871	H87	0.091100	0.336100	0.502300
C1031	C103	0.175400	0.523900	0.276800
O361	O36	0.378600	0.960000	0.096300
C1041	C104	0.353900	0.987000	0.159800
O371	O37	0.314700	0.970500	0.151600
O381	O38	0.104200	0.925500	0.376200
C1051	C105	0.135700	0.900900	0.349800
O391	O39	0.205600	0.900700	0.364300
Ni101	Ni10	0.756060	0.920560	0.979850
Ni111	Ni11	0.744210	0.961720	0.517660
Ni121	Ni12	0.750920	0.939080	0.250200
O401	O40	0.800800	0.877300	0.286300
C1061	C106	0.972200	0.586900	0.341100
H881	H88	0.013100	0.593600	0.364700
C1071	C107	0.523100	0.212300	0.051100
C1081	C108	0.974900	0.674000	0.450200
C1091	C109	0.945700	0.622500	0.382700
O411	O41	0.682400	0.996300	0.201700
C1101	C110	0.556700	0.257300	0.125900
C1111	C111	0.929100	0.757100	0.468400
H891	H89	0.948900	0.752900	0.560100
C1121	C112	0.574400	0.122100	0.031600
H901	H90	0.557800	0.125700	0.939600
C1131	C113	0.936900	0.722400	0.389500
C1141	C114	0.521100	0.293300	0.165000
H911	H91	0.480500	0.289100	0.148400
O421	O42	0.811500	0.860600	0.089100
C1151	C115	0.588600	0.154100	0.251800
H921	H92	0.585600	0.179700	0.308400
C1161	C116	0.865400	0.805600	0.273200
C1171	C117	0.615000	0.345800	0.268700
C1181	C118	0.560400	0.161600	0.105600
C1191	C119	0.635500	0.070400	0.221300
C1201	C120	0.912700	0.731500	0.256100
H931	H93	0.922800	0.709300	0.202200
C1211	C121	0.872700	0.773800	0.196400
H941	H94	0.853000	0.777600	0.104500
C1221	C122	0.619200	0.108600	0.300900
H951	H95	0.630600	0.101200	0.390300
C1231	C123	0.888000	0.529400	0.239300
C1241	C124	0.608300	0.082100	0.082100
H961	H96	0.615500	0.059400	0.024800
O431	O43	0.690900	0.014800	0.402600
C1251	C125	0.889200	0.802700	0.412600
H971	H97	0.880800	0.827100	0.464500
O441	O44	0.790000	0.970100	0.128800
H981	H98	0.776700	0.005500	0.101300
H991	H99	0.834000	0.968800	0.171600
C1261	C126	0.560200	0.338100	0.235700
H1001	H100	0.540300	0.364600	0.259000
C1271	C127	0.951800	0.540600	0.268600
H1011	H101	0.975900	0.519500	0.241900
C1281	C128	0.826500	0.851500	0.215500
C1291	C129	0.644500	0.308700	0.229000
H1021	H102	0.685400	0.312700	0.247900
O451	O45	0.806500	0.970100	0.431600
H1031	H103	0.816800	0.006300	0.425500
H1041	H104	0.843200	0.949800	0.477300
O461	O46	0.697900	0.899100	0.069500
H1051	H105	0.696300	0.861700	0.081100
H1061	H106	0.657200	0.913200	0.023700
C1301	C130	0.851700	0.564300	0.276000
H1071	H107	0.811300	0.556000	0.253500
C1311	C131	0.877600	0.614600	0.350800
H1081	H108	0.854900	0.638200	0.375000
N41	N4	0.682600	0.928600	0.567800
O471	O47	0.672500	0.831400	0.328700
C1321	C132	0.682600	0.866600	0.388900
O481	O48	0.715500	0.899800	0.361100
C1331	C133	0.621600	0.954100	0.516900
H1091	H109	0.622800	0.983300	0.573500
H1101	H110	0.610600	0.967200	0.427600
C1341	C134	0.614900	0.268100	0.165000
H1111	H111	0.637500	0.243300	0.143800
C1351	C135	0.575700	0.915100	0.515900
H1121	H112	0.534700	0.925100	0.456100
H1131	H113	0.577900	0.909000	0.604200
C1361	C136	0.666400	0.876400	0.505700
H1141	H114	0.688200	0.850500	0.574300
C1371	C137	0.597900	0.868100	0.464000
H1151	H115	0.576500	0.865900	0.368000
H1161	H116	0.591100	0.836100	0.502300
C1381	C138	0.675400	0.023900	0.276800
O491	O49	0.878600	0.460000	0.096300
C1391	C139	0.853900	0.487000	0.159800
O501	O50	0.814700	0.470500	0.151600
O511	O51	0.604200	0.425500	0.376200
C1401	C140	0.635700	0.400900	0.349800
O521	O52	0.705600	0.400700	0.364300
