data_FUYCEJ_clean_PM
_symmetry_space_group_name_H-M	'P1'
_cell_length_a	17.996000
_cell_length_b	17.996000
_cell_length_c	17.996000
_cell_angle_alpha	90.000000
_cell_angle_beta	90.000000
_cell_angle_gamma	90.000000
_symmetry_Int_Tables_number 1

loop_
_symmetry_equiv_pos_as_xyz
'x,y,z'

loop_
_atom_site_label
_atom_site_type_symbol
_atom_site_fract_x
_atom_site_fract_y
_atom_site_fract_z
C11	C1	0.249190	0.557490	0.944590
C21	C2	0.189150	0.592280	0.907490
C31	C3	0.281680	0.589960	0.007710
C41	C4	0.195390	0.692720	0.998690
C51	C5	0.158180	0.658120	0.938600
C61	C6	0.258450	0.660060	0.031090
O11	O1	0.298910	0.695990	0.086870
O21	O2	0.337370	0.553820	0.048110
H11	H1	0.271860	0.502290	0.923320
H21	H2	0.174240	0.747920	0.021470
C71	C7	0.250810	0.442510	0.444590
C81	C8	0.310850	0.407720	0.407490
C91	C9	0.218320	0.410040	0.507710
C101	C10	0.304610	0.307280	0.498690
C111	C11	0.341820	0.341880	0.438600
C121	C12	0.241550	0.339940	0.531090
O31	O3	0.201090	0.304010	0.586870
O41	O4	0.162630	0.446180	0.548110
H31	H3	0.228140	0.497710	0.423320
H41	H4	0.325760	0.252080	0.521470
C131	C13	0.750810	0.057490	0.555410
C141	C14	0.810850	0.092280	0.592510
C151	C15	0.718320	0.089960	0.492290
C161	C16	0.804610	0.192720	0.501310
C171	C17	0.841820	0.158120	0.561400
C181	C18	0.741550	0.160060	0.468910
O51	O5	0.701090	0.195990	0.413130
O61	O6	0.662630	0.053820	0.451890
H51	H5	0.728140	0.002290	0.576680
H61	H6	0.825760	0.247920	0.478530
C191	C19	0.749190	0.942510	0.055410
C201	C20	0.689150	0.907720	0.092510
C211	C21	0.781680	0.910040	0.992290
C221	C22	0.695390	0.807280	0.001310
C231	C23	0.658180	0.841880	0.061400
C241	C24	0.758450	0.839940	0.968910
O71	O7	0.798910	0.804010	0.913130
O81	O8	0.837370	0.946180	0.951890
H71	H7	0.771860	0.997710	0.076680
H81	H8	0.674240	0.752080	0.978530
C251	C25	0.944590	0.249190	0.557490
C261	C26	0.907490	0.189150	0.592280
C271	C27	0.007710	0.281680	0.589960
C281	C28	0.998690	0.195390	0.692720
C291	C29	0.938600	0.158180	0.658120
C301	C30	0.031090	0.258450	0.660060
O91	O9	0.086870	0.298910	0.695990
O101	O10	0.048110	0.337370	0.553820
H91	H9	0.923320	0.271860	0.502290
H101	H10	0.021470	0.174240	0.747920
C311	C31	0.444590	0.250810	0.442510
C321	C32	0.407490	0.310850	0.407720
C331	C33	0.507710	0.218320	0.410040
C341	C34	0.498690	0.304610	0.307280
C351	C35	0.438600	0.341820	0.341880
C361	C36	0.531090	0.241550	0.339940
O111	O11	0.586870	0.201090	0.304010
O121	O12	0.548110	0.162630	0.446180
H111	H11	0.423320	0.228140	0.497710
H121	H12	0.521470	0.325760	0.252080
C371	C37	0.555410	0.750810	0.057490
C381	C38	0.592510	0.810850	0.092280
C391	C39	0.492290	0.718320	0.089960
C401	C40	0.501310	0.804610	0.192720
C411	C41	0.561400	0.841820	0.158120
C421	C42	0.468910	0.741550	0.160060
O131	O13	0.413130	0.701090	0.195990
O141	O14	0.451890	0.662630	0.053820
H131	H13	0.576680	0.728140	0.002290
H141	H14	0.478530	0.825760	0.247920
C431	C43	0.055410	0.749190	0.942510
C441	C44	0.092510	0.689150	0.907720
C451	C45	0.992290	0.781680	0.910040
C461	C46	0.001310	0.695390	0.807280
C471	C47	0.061400	0.658180	0.841880
C481	C48	0.968910	0.758450	0.839940
O151	O15	0.913130	0.798910	0.804010
O161	O16	0.951890	0.837370	0.946180
H151	H15	0.076680	0.771860	0.997710
H161	H16	0.978530	0.674240	0.752080
C491	C49	0.557490	0.944590	0.249190
C501	C50	0.592280	0.907490	0.189150
C511	C51	0.589960	0.007710	0.281680
C521	C52	0.692720	0.998690	0.195390
C531	C53	0.658120	0.938600	0.158180
C541	C54	0.660060	0.031090	0.258450
O171	O17	0.695990	0.086870	0.298910
O181	O18	0.553820	0.048110	0.337370
H171	H17	0.502290	0.923320	0.271860
H181	H18	0.747920	0.021470	0.174240
C551	C55	0.442510	0.444590	0.250810
C561	C56	0.407720	0.407490	0.310850
C571	C57	0.410040	0.507710	0.218320
C581	C58	0.307280	0.498690	0.304610
C591	C59	0.341880	0.438600	0.341820
C601	C60	0.339940	0.531090	0.241550
O191	O19	0.304010	0.586870	0.201090
O201	O20	0.446180	0.548110	0.162630
H191	H19	0.497710	0.423320	0.228140
H201	H20	0.252080	0.521470	0.325760
C611	C61	0.057490	0.555410	0.750810
C621	C62	0.092280	0.592510	0.810850
C631	C63	0.089960	0.492290	0.718320
C641	C64	0.192720	0.501310	0.804610
C651	C65	0.158120	0.561400	0.841820
C661	C66	0.160060	0.468910	0.741550
O211	O21	0.195990	0.413130	0.701090
O221	O22	0.053820	0.451890	0.662630
H211	H21	0.002290	0.576680	0.728140
H221	H22	0.247920	0.478530	0.825760
C671	C67	0.942510	0.055410	0.749190
C681	C68	0.907720	0.092510	0.689150
C691	C69	0.910040	0.992290	0.781680
C701	C70	0.807280	0.001310	0.695390
C711	C71	0.841880	0.061400	0.658180
C721	C72	0.839940	0.968910	0.758450
O231	O23	0.804010	0.913130	0.798910
O241	O24	0.946180	0.951890	0.837370
H231	H23	0.997710	0.076680	0.771860
H241	H24	0.752080	0.978530	0.674240
Ti11	Ti1	0.375250	0.624750	0.124750
Ti21	Ti2	0.124750	0.375250	0.624750
Ti31	Ti3	0.624750	0.124750	0.375250
Ti41	Ti4	0.875250	0.875250	0.875250
C731	C73	0.750840	0.442530	0.055370
C741	C74	0.810880	0.407750	0.092470
C751	C75	0.718350	0.410050	0.992250
C761	C76	0.804650	0.307290	0.001290
C771	C77	0.841850	0.341910	0.061360
C781	C78	0.741580	0.339940	0.968890
O251	O25	0.701120	0.304010	0.913110
O261	O26	0.662650	0.446180	0.951860
H251	H25	0.728160	0.497730	0.076640
H261	H26	0.825810	0.252100	0.978510
C791	C79	0.749160	0.557470	0.555370
C801	C80	0.689120	0.592250	0.592470
C811	C81	0.781650	0.589950	0.492250
C821	C82	0.695350	0.692710	0.501290
C831	C83	0.658150	0.658090	0.561360
C841	C84	0.758420	0.660060	0.468890
O271	O27	0.798880	0.695990	0.413110
O281	O28	0.837350	0.553820	0.451860
H271	H27	0.771840	0.502270	0.576640
H281	H28	0.674190	0.747900	0.478510
C851	C85	0.249160	0.942530	0.444630
C861	C86	0.189120	0.907750	0.407530
C871	C87	0.281650	0.910050	0.507750
C881	C88	0.195350	0.807290	0.498710
C891	C89	0.158150	0.841910	0.438640
C901	C90	0.258420	0.839940	0.531110
O291	O29	0.298880	0.804010	0.586890
O301	O30	0.337350	0.946180	0.548140
H291	H29	0.271840	0.997730	0.423360
H301	H30	0.174190	0.752100	0.521490
C911	C91	0.250840	0.057470	0.944630
C921	C92	0.310880	0.092250	0.907530
C931	C93	0.218350	0.089950	0.007750
C941	C94	0.304650	0.192710	0.998710
C951	C95	0.341850	0.158090	0.938640
C961	C96	0.241580	0.160060	0.031110
O311	O31	0.201120	0.195990	0.086890
O321	O32	0.162650	0.053820	0.048140
H311	H31	0.228160	0.002270	0.923360
H321	H32	0.325810	0.247900	0.021490
C971	C97	0.055370	0.750840	0.442530
C981	C98	0.092470	0.810880	0.407750
C991	C99	0.992250	0.718350	0.410050
C1001	C100	0.001290	0.804650	0.307290
C1011	C101	0.061360	0.841850	0.341910
C1021	C102	0.968890	0.741580	0.339940
O331	O33	0.913110	0.701120	0.304010
O341	O34	0.951860	0.662650	0.446180
H331	H33	0.076640	0.728160	0.497730
H341	H34	0.978510	0.825810	0.252100
C1031	C103	0.555370	0.749160	0.557470
C1041	C104	0.592470	0.689120	0.592250
C1051	C105	0.492250	0.781650	0.589950
C1061	C106	0.501290	0.695350	0.692710
C1071	C107	0.561360	0.658150	0.658090
C1081	C108	0.468890	0.758420	0.660060
O351	O35	0.413110	0.798880	0.695990
O361	O36	0.451860	0.837350	0.553820
H351	H35	0.576640	0.771840	0.502270
H361	H36	0.478510	0.674190	0.747900
C1091	C109	0.444630	0.249160	0.942530
C1101	C110	0.407530	0.189120	0.907750
C1111	C111	0.507750	0.281650	0.910050
C1121	C112	0.498710	0.195350	0.807290
C1131	C113	0.438640	0.158150	0.841910
C1141	C114	0.531110	0.258420	0.839940
O371	O37	0.586890	0.298880	0.804010
O381	O38	0.548140	0.337350	0.946180
H371	H37	0.423360	0.271840	0.997730
H381	H38	0.521490	0.174190	0.752100
C1151	C115	0.944630	0.250840	0.057470
C1161	C116	0.907530	0.310880	0.092250
C1171	C117	0.007750	0.218350	0.089950
C1181	C118	0.998710	0.304650	0.192710
C1191	C119	0.938640	0.341850	0.158090
C1201	C120	0.031110	0.241580	0.160060
O391	O39	0.086890	0.201120	0.195990
O401	O40	0.048140	0.162650	0.053820
H391	H39	0.923360	0.228160	0.002270
H401	H40	0.021490	0.325810	0.247900
C1211	C121	0.442530	0.055370	0.750840
C1221	C122	0.407750	0.092470	0.810880
C1231	C123	0.410050	0.992250	0.718350
C1241	C124	0.307290	0.001290	0.804650
C1251	C125	0.341910	0.061360	0.841850
C1261	C126	0.339940	0.968890	0.741580
O411	O41	0.304010	0.913110	0.701120
O421	O42	0.446180	0.951860	0.662650
H411	H41	0.497730	0.076640	0.728160
H421	H42	0.252100	0.978510	0.825810
C1271	C127	0.557470	0.555370	0.749160
C1281	C128	0.592250	0.592470	0.689120
C1291	C129	0.589950	0.492250	0.781650
C1301	C130	0.692710	0.501290	0.695350
C1311	C131	0.658090	0.561360	0.658150
C1321	C132	0.660060	0.468890	0.758420
O431	O43	0.695990	0.413110	0.798880
O441	O44	0.553820	0.451860	0.837350
H431	H43	0.502270	0.576640	0.771840
H441	H44	0.747900	0.478510	0.674190
C1331	C133	0.942530	0.444630	0.249160
C1341	C134	0.907750	0.407530	0.189120
C1351	C135	0.910050	0.507750	0.281650
C1361	C136	0.807290	0.498710	0.195350
C1371	C137	0.841910	0.438640	0.158150
C1381	C138	0.839940	0.531110	0.258420
O451	O45	0.804010	0.586890	0.298880
O461	O46	0.946180	0.548140	0.337350
H451	H45	0.997730	0.423360	0.271840
H461	H46	0.752100	0.521490	0.174190
C1391	C139	0.057470	0.944630	0.250840
C1401	C140	0.092250	0.907530	0.310880
C1411	C141	0.089950	0.007750	0.218350
C1421	C142	0.192710	0.998710	0.304650
C1431	C143	0.158090	0.938640	0.341850
C1441	C144	0.160060	0.031110	0.241580
O471	O47	0.195990	0.086890	0.201120
O481	O48	0.053820	0.048140	0.162650
H471	H47	0.002270	0.923360	0.228160
H481	H48	0.247900	0.021490	0.325810
Ti51	Ti5	0.624770	0.375230	0.875230
Ti61	Ti6	0.875230	0.624770	0.375230
Ti71	Ti7	0.375230	0.875230	0.624770
Ti81	Ti8	0.124770	0.124770	0.124770
