data_GACBOE_clean_PM
_symmetry_space_group_name_H-M	'P1'
_cell_length_a	31.840000
_cell_length_b	13.478000
_cell_length_c	19.854000
_cell_angle_alpha	90.000000
_cell_angle_beta	91.365000
_cell_angle_gamma	90.000000
_symmetry_Int_Tables_number 1

loop_
_symmetry_equiv_pos_as_xyz
'x,y,z'

loop_
_atom_site_label
_atom_site_type_symbol
_atom_site_fract_x
_atom_site_fract_y
_atom_site_fract_z
O11	O1	0.141110	0.471300	0.361600
Cd11	Cd1	0.174820	0.619900	0.359950
Cd21	Cd2	0.103600	0.664350	0.490030
C11	C1	0.098900	0.296100	0.393300
H11	H1	0.126300	0.292300	0.378300
C21	C2	0.138400	0.920600	0.393400
C31	C3	0.080600	0.389100	0.399100
C41	C4	0.098700	0.107900	0.404200
C51	C5	0.156400	0.820800	0.383700
C61	C6	0.078400	0.208900	0.408800
C71	C7	0.076200	0.022800	0.404500
H21	H2	0.047100	0.026500	0.406100
C81	C8	0.142700	0.100200	0.398300
H31	H3	0.158900	0.157500	0.399300
C91	C9	0.038000	0.217900	0.435000
H41	H4	0.024200	0.161300	0.449600
C101	C10	0.162100	0.009300	0.391100
C111	C11	0.040800	0.396000	0.423400
H51	H5	0.028800	0.458200	0.429300
C121	C12	0.017900	0.310200	0.439800
C131	C13	0.095400	0.928800	0.402400
H61	H6	0.079200	0.871900	0.407100
C141	C14	0.278900	0.984200	0.437600
C151	C15	0.296500	0.021800	0.378100
H71	H7	0.325600	0.026300	0.374900
C161	C16	0.270700	0.052400	0.323700
C171	C17	0.209100	0.009800	0.387800
C181	C18	0.235400	0.979100	0.439900
H81	H8	0.223300	0.953700	0.478500
C191	C19	0.227800	0.045800	0.329900
H91	H9	0.210600	0.066100	0.294000
C201	C20	0.306800	0.944400	0.491700
C211	C21	0.290500	0.082900	0.258900
C221	C22	0.974500	0.318100	0.465200
O21	O2	0.268430	0.081200	0.206400
O31	O3	0.952610	0.394500	0.451100
O41	O4	0.328650	0.109000	0.260400
O51	O5	0.289100	0.916900	0.545800
O61	O6	0.345560	0.944900	0.483500
O71	O7	0.960280	0.250400	0.500700
C231	C23	0.105400	0.480400	0.384500
O81	O8	0.088050	0.563400	0.396900
O91	O9	0.189200	0.806200	0.353700
O101	O10	0.135610	0.744100	0.405300
O111	O11	0.641110	0.971300	0.361600
Cd31	Cd3	0.674820	0.119900	0.359950
Cd41	Cd4	0.603600	0.164350	0.490030
C241	C24	0.598900	0.796100	0.393300
H101	H10	0.626300	0.792300	0.378300
C251	C25	0.638400	0.420600	0.393400
C261	C26	0.580600	0.889100	0.399100
C271	C27	0.598700	0.607900	0.404200
C281	C28	0.656400	0.320800	0.383700
C291	C29	0.578400	0.708900	0.408800
C301	C30	0.576200	0.522800	0.404500
H111	H11	0.547100	0.526500	0.406100
C311	C31	0.642700	0.600200	0.398300
H121	H12	0.658900	0.657500	0.399300
C321	C32	0.538000	0.717900	0.435000
H131	H13	0.524200	0.661300	0.449600
C331	C33	0.662100	0.509300	0.391100
C341	C34	0.540800	0.896000	0.423400
H141	H14	0.528800	0.958200	0.429300
C351	C35	0.517900	0.810200	0.439800
C361	C36	0.595400	0.428800	0.402400
H151	H15	0.579200	0.371900	0.407100
C371	C37	0.778900	0.484200	0.437600
C381	C38	0.796500	0.521800	0.378100
H161	H16	0.825600	0.526300	0.374900
C391	C39	0.770700	0.552400	0.323700
C401	C40	0.709100	0.509800	0.387800
C411	C41	0.735400	0.479100	0.439900
H171	H17	0.723300	0.453700	0.478500
C421	C42	0.727800	0.545800	0.329900
H181	H18	0.710600	0.566100	0.294000
C431	C43	0.806800	0.444400	0.491700
C441	C44	0.790500	0.582900	0.258900
C451	C45	0.474500	0.818100	0.465200
O121	O12	0.768430	0.581200	0.206400
O131	O13	0.452610	0.894500	0.451100
O141	O14	0.828650	0.609000	0.260400
O151	O15	0.789100	0.416900	0.545800
O161	O16	0.845560	0.444900	0.483500
O171	O17	0.460280	0.750400	0.500700
C461	C46	0.605400	0.980400	0.384500
O181	O18	0.588050	0.063400	0.396900
O191	O19	0.689200	0.306200	0.353700
O201	O20	0.635610	0.244100	0.405300
O211	O21	0.858890	0.471300	0.138400
Cd51	Cd5	0.825180	0.619900	0.140050
Cd61	Cd6	0.896400	0.664350	0.009970
C471	C47	0.901100	0.296100	0.106700
H191	H19	0.873700	0.292300	0.121700
C481	C48	0.861600	0.920600	0.106600
C491	C49	0.919400	0.389100	0.100900
C501	C50	0.901300	0.107900	0.095800
C511	C51	0.843600	0.820800	0.116300
C521	C52	0.921600	0.208900	0.091200
C531	C53	0.923800	0.022800	0.095500
H201	H20	0.952900	0.026500	0.093900
C541	C54	0.857300	0.100200	0.101700
H211	H21	0.841100	0.157500	0.100700
C551	C55	0.962000	0.217900	0.065000
H221	H22	0.975800	0.161300	0.050400
C561	C56	0.837900	0.009300	0.108900
C571	C57	0.959200	0.396000	0.076600
H231	H23	0.971200	0.458200	0.070700
C581	C58	0.982100	0.310200	0.060200
C591	C59	0.904600	0.928800	0.097600
H241	H24	0.920800	0.871900	0.092900
C601	C60	0.721100	0.984200	0.062400
C611	C61	0.703500	0.021800	0.121900
H251	H25	0.674400	0.026300	0.125100
C621	C62	0.729300	0.052400	0.176300
C631	C63	0.790900	0.009800	0.112200
C641	C64	0.764600	0.979100	0.060100
H261	H26	0.776700	0.953700	0.021500
C651	C65	0.772200	0.045800	0.170100
H271	H27	0.789400	0.066100	0.206000
C661	C66	0.693200	0.944400	0.008300
C671	C67	0.709500	0.082900	0.241100
C681	C68	0.025500	0.318100	0.034800
O221	O22	0.731570	0.081200	0.293600
O231	O23	0.047390	0.394500	0.048900
O241	O24	0.671350	0.109000	0.239600
O251	O25	0.710900	0.916900	0.954200
O261	O26	0.654440	0.944900	0.016500
O271	O27	0.039720	0.250400	0.999300
C691	C69	0.894600	0.480400	0.115500
O281	O28	0.911950	0.563400	0.103100
O291	O29	0.810800	0.806200	0.146300
O301	O30	0.864390	0.744100	0.094700
O311	O31	0.358890	0.971300	0.138400
Cd71	Cd7	0.325180	0.119900	0.140050
Cd81	Cd8	0.396400	0.164350	0.009970
C701	C70	0.401100	0.796100	0.106700
H281	H28	0.373700	0.792300	0.121700
C711	C71	0.361600	0.420600	0.106600
C721	C72	0.419400	0.889100	0.100900
C731	C73	0.401300	0.607900	0.095800
C741	C74	0.343600	0.320800	0.116300
C751	C75	0.421600	0.708900	0.091200
C761	C76	0.423800	0.522800	0.095500
H291	H29	0.452900	0.526500	0.093900
C771	C77	0.357300	0.600200	0.101700
H301	H30	0.341100	0.657500	0.100700
C781	C78	0.462000	0.717900	0.065000
H311	H31	0.475800	0.661300	0.050400
C791	C79	0.337900	0.509300	0.108900
C801	C80	0.459200	0.896000	0.076600
H321	H32	0.471200	0.958200	0.070700
C811	C81	0.482100	0.810200	0.060200
C821	C82	0.404600	0.428800	0.097600
H331	H33	0.420800	0.371900	0.092900
C831	C83	0.221100	0.484200	0.062400
C841	C84	0.203500	0.521800	0.121900
H341	H34	0.174400	0.526300	0.125100
C851	C85	0.229300	0.552400	0.176300
C861	C86	0.290900	0.509800	0.112200
C871	C87	0.264600	0.479100	0.060100
H351	H35	0.276700	0.453700	0.021500
C881	C88	0.272200	0.545800	0.170100
H361	H36	0.289400	0.566100	0.206000
C891	C89	0.193200	0.444400	0.008300
C901	C90	0.209500	0.582900	0.241100
C911	C91	0.525500	0.818100	0.034800
O321	O32	0.231570	0.581200	0.293600
O331	O33	0.547390	0.894500	0.048900
O341	O34	0.171350	0.609000	0.239600
O351	O35	0.210900	0.416900	0.954200
O361	O36	0.154440	0.444900	0.016500
O371	O37	0.539720	0.750400	0.999300
C921	C92	0.394600	0.980400	0.115500
O381	O38	0.411950	0.063400	0.103100
O391	O39	0.310800	0.306200	0.146300
O401	O40	0.364390	0.244100	0.094700
O411	O41	0.858890	0.528700	0.638400
Cd91	Cd9	0.825180	0.380100	0.640050
Cd101	Cd10	0.896400	0.335650	0.509970
C931	C93	0.901100	0.703900	0.606700
H371	H37	0.873700	0.707700	0.621700
C941	C94	0.861600	0.079400	0.606600
C951	C95	0.919400	0.610900	0.600900
C961	C96	0.901300	0.892100	0.595800
C971	C97	0.843600	0.179200	0.616300
C981	C98	0.921600	0.791100	0.591200
C991	C99	0.923800	0.977200	0.595500
H381	H38	0.952900	0.973500	0.593900
C1001	C100	0.857300	0.899800	0.601700
H391	H39	0.841100	0.842500	0.600700
C1011	C101	0.962000	0.782100	0.565000
H401	H40	0.975800	0.838700	0.550400
C1021	C102	0.837900	0.990700	0.608900
C1031	C103	0.959200	0.604000	0.576600
H411	H41	0.971200	0.541800	0.570700
C1041	C104	0.982100	0.689800	0.560200
C1051	C105	0.904600	0.071200	0.597600
H421	H42	0.920800	0.128100	0.592900
C1061	C106	0.721100	0.015800	0.562400
C1071	C107	0.703500	0.978200	0.621900
H431	H43	0.674400	0.973700	0.625100
C1081	C108	0.729300	0.947600	0.676300
C1091	C109	0.790900	0.990200	0.612200
C1101	C110	0.764600	0.020900	0.560100
H441	H44	0.776700	0.046300	0.521500
C1111	C111	0.772200	0.954200	0.670100
H451	H45	0.789400	0.933900	0.706000
C1121	C112	0.693200	0.055600	0.508300
C1131	C113	0.709500	0.917100	0.741100
C1141	C114	0.025500	0.681900	0.534800
O421	O42	0.731570	0.918800	0.793600
O431	O43	0.047390	0.605500	0.548900
O441	O44	0.671350	0.891000	0.739600
O451	O45	0.710900	0.083100	0.454200
O461	O46	0.654440	0.055100	0.516500
O471	O47	0.039720	0.749600	0.499300
C1151	C115	0.894600	0.519600	0.615500
O481	O48	0.911950	0.436600	0.603100
O491	O49	0.810800	0.193800	0.646300
O501	O50	0.864390	0.255900	0.594700
O511	O51	0.358890	0.028700	0.638400
Cd111	Cd11	0.325180	0.880100	0.640050
Cd121	Cd12	0.396400	0.835650	0.509970
C1161	C116	0.401100	0.203900	0.606700
H461	H46	0.373700	0.207700	0.621700
C1171	C117	0.361600	0.579400	0.606600
C1181	C118	0.419400	0.110900	0.600900
C1191	C119	0.401300	0.392100	0.595800
C1201	C120	0.343600	0.679200	0.616300
C1211	C121	0.421600	0.291100	0.591200
C1221	C122	0.423800	0.477200	0.595500
H471	H47	0.452900	0.473500	0.593900
C1231	C123	0.357300	0.399800	0.601700
H481	H48	0.341100	0.342500	0.600700
C1241	C124	0.462000	0.282100	0.565000
H491	H49	0.475800	0.338700	0.550400
C1251	C125	0.337900	0.490700	0.608900
C1261	C126	0.459200	0.104000	0.576600
H501	H50	0.471200	0.041800	0.570700
C1271	C127	0.482100	0.189800	0.560200
C1281	C128	0.404600	0.571200	0.597600
H511	H51	0.420800	0.628100	0.592900
C1291	C129	0.221100	0.515800	0.562400
C1301	C130	0.203500	0.478200	0.621900
H521	H52	0.174400	0.473700	0.625100
C1311	C131	0.229300	0.447600	0.676300
C1321	C132	0.290900	0.490200	0.612200
C1331	C133	0.264600	0.520900	0.560100
H531	H53	0.276700	0.546300	0.521500
C1341	C134	0.272200	0.454200	0.670100
H541	H54	0.289400	0.433900	0.706000
C1351	C135	0.193200	0.555600	0.508300
C1361	C136	0.209500	0.417100	0.741100
C1371	C137	0.525500	0.181900	0.534800
O521	O52	0.231570	0.418800	0.793600
O531	O53	0.547390	0.105500	0.548900
O541	O54	0.171350	0.391000	0.739600
O551	O55	0.210900	0.583100	0.454200
O561	O56	0.154440	0.555100	0.516500
O571	O57	0.539720	0.249600	0.499300
C1381	C138	0.394600	0.019600	0.615500
O581	O58	0.411950	0.936600	0.603100
O591	O59	0.310800	0.693800	0.646300
O601	O60	0.364390	0.755900	0.594700
O611	O61	0.141110	0.528700	0.861600
Cd131	Cd13	0.174820	0.380100	0.859950
Cd141	Cd14	0.103600	0.335650	0.990030
C1391	C139	0.098900	0.703900	0.893300
H551	H55	0.126300	0.707700	0.878300
C1401	C140	0.138400	0.079400	0.893400
C1411	C141	0.080600	0.610900	0.899100
C1421	C142	0.098700	0.892100	0.904200
C1431	C143	0.156400	0.179200	0.883700
C1441	C144	0.078400	0.791100	0.908800
C1451	C145	0.076200	0.977200	0.904500
H561	H56	0.047100	0.973500	0.906100
C1461	C146	0.142700	0.899800	0.898300
H571	H57	0.158900	0.842500	0.899300
C1471	C147	0.038000	0.782100	0.935000
H581	H58	0.024200	0.838700	0.949600
C1481	C148	0.162100	0.990700	0.891100
C1491	C149	0.040800	0.604000	0.923400
H591	H59	0.028800	0.541800	0.929300
C1501	C150	0.017900	0.689800	0.939800
C1511	C151	0.095400	0.071200	0.902400
H601	H60	0.079200	0.128100	0.907100
C1521	C152	0.278900	0.015800	0.937600
C1531	C153	0.296500	0.978200	0.878100
H611	H61	0.325600	0.973700	0.874900
C1541	C154	0.270700	0.947600	0.823700
C1551	C155	0.209100	0.990200	0.887800
C1561	C156	0.235400	0.020900	0.939900
H621	H62	0.223300	0.046300	0.978500
C1571	C157	0.227800	0.954200	0.829900
H631	H63	0.210600	0.933900	0.794000
C1581	C158	0.306800	0.055600	0.991700
C1591	C159	0.290500	0.917100	0.758900
C1601	C160	0.974500	0.681900	0.965200
O621	O62	0.268430	0.918800	0.706400
O631	O63	0.952610	0.605500	0.951100
O641	O64	0.328650	0.891000	0.760400
O651	O65	0.289100	0.083100	0.045800
O661	O66	0.345560	0.055100	0.983500
O671	O67	0.960280	0.749600	0.000700
C1611	C161	0.105400	0.519600	0.884500
O681	O68	0.088050	0.436600	0.896900
O691	O69	0.189200	0.193800	0.853700
O701	O70	0.135610	0.255900	0.905300
O711	O71	0.641110	0.028700	0.861600
Cd151	Cd15	0.674820	0.880100	0.859950
Cd161	Cd16	0.603600	0.835650	0.990030
C1621	C162	0.598900	0.203900	0.893300
H641	H64	0.626300	0.207700	0.878300
C1631	C163	0.638400	0.579400	0.893400
C1641	C164	0.580600	0.110900	0.899100
C1651	C165	0.598700	0.392100	0.904200
C1661	C166	0.656400	0.679200	0.883700
C1671	C167	0.578400	0.291100	0.908800
C1681	C168	0.576200	0.477200	0.904500
H651	H65	0.547100	0.473500	0.906100
C1691	C169	0.642700	0.399800	0.898300
H661	H66	0.658900	0.342500	0.899300
C1701	C170	0.538000	0.282100	0.935000
H671	H67	0.524200	0.338700	0.949600
C1711	C171	0.662100	0.490700	0.891100
C1721	C172	0.540800	0.104000	0.923400
H681	H68	0.528800	0.041800	0.929300
C1731	C173	0.517900	0.189800	0.939800
C1741	C174	0.595400	0.571200	0.902400
H691	H69	0.579200	0.628100	0.907100
C1751	C175	0.778900	0.515800	0.937600
C1761	C176	0.796500	0.478200	0.878100
H701	H70	0.825600	0.473700	0.874900
C1771	C177	0.770700	0.447600	0.823700
C1781	C178	0.709100	0.490200	0.887800
C1791	C179	0.735400	0.520900	0.939900
H711	H71	0.723300	0.546300	0.978500
C1801	C180	0.727800	0.454200	0.829900
H721	H72	0.710600	0.433900	0.794000
C1811	C181	0.806800	0.555600	0.991700
C1821	C182	0.790500	0.417100	0.758900
C1831	C183	0.474500	0.181900	0.965200
O721	O72	0.768430	0.418800	0.706400
O731	O73	0.452610	0.105500	0.951100
O741	O74	0.828650	0.391000	0.760400
O751	O75	0.789100	0.583100	0.045800
O761	O76	0.845560	0.555100	0.983500
O771	O77	0.460280	0.249600	0.000700
C1841	C184	0.605400	0.019600	0.884500
O781	O78	0.588050	0.936600	0.896900
O791	O79	0.689200	0.693800	0.853700
O801	O80	0.635610	0.755900	0.905300
