data_GACVIS_clean_PM
_symmetry_space_group_name_H-M	'P1'
_cell_length_a	9.787000
_cell_length_b	12.157000
_cell_length_c	15.182000
_cell_angle_alpha	90.000000
_cell_angle_beta	90.000000
_cell_angle_gamma	90.000000
_symmetry_Int_Tables_number 1

loop_
_symmetry_equiv_pos_as_xyz
'x,y,z'

loop_
_atom_site_label
_atom_site_type_symbol
_atom_site_fract_x
_atom_site_fract_y
_atom_site_fract_z
C11	C1	0.378500	0.820600	0.862300
C21	C2	0.378300	0.756800	0.787700
H11	H1	0.294500	0.737700	0.760100
C31	C3	0.248500	0.865500	0.902500
O11	O1	0.151100	0.881000	0.852900
O21	O2	0.255300	0.884400	0.982500
O31	O3	0.386500	0.618400	0.645500
C41	C4	0.878500	0.320600	0.362300
C51	C5	0.878300	0.256800	0.287700
H21	H2	0.794500	0.237700	0.260100
C61	C6	0.748500	0.365500	0.402500
O41	O4	0.651100	0.381000	0.352900
O51	O5	0.755300	0.384400	0.482500
O61	O6	0.886500	0.118400	0.145500
C71	C7	0.621500	0.179400	0.862300
C81	C8	0.621700	0.243200	0.787700
H31	H3	0.705500	0.262300	0.760100
C91	C9	0.751500	0.134500	0.902500
O71	O7	0.848900	0.119000	0.852900
O81	O8	0.744700	0.115600	0.982500
O91	O9	0.613500	0.381600	0.645500
C101	C10	0.121500	0.679400	0.362300
C111	C11	0.121700	0.743200	0.287700
H41	H4	0.205500	0.762300	0.260100
C121	C12	0.251500	0.634500	0.402500
O101	O10	0.348900	0.619000	0.352900
O111	O11	0.244700	0.615600	0.482500
O121	O12	0.113500	0.881600	0.145500
C131	C13	0.378500	0.179400	0.862300
C141	C14	0.378300	0.243200	0.787700
H51	H5	0.294500	0.262300	0.760100
C151	C15	0.248500	0.134500	0.902500
O131	O13	0.151100	0.119000	0.852900
O141	O14	0.255300	0.115600	0.982500
O151	O15	0.386500	0.381600	0.645500
C161	C16	0.878500	0.679400	0.362300
C171	C17	0.878300	0.743200	0.287700
H61	H6	0.794500	0.762300	0.260100
C181	C18	0.748500	0.634500	0.402500
O161	O16	0.651100	0.619000	0.352900
O171	O17	0.755300	0.615600	0.482500
O181	O18	0.886500	0.881600	0.145500
C191	C19	0.621500	0.820600	0.862300
C201	C20	0.621700	0.756800	0.787700
H71	H7	0.705500	0.737700	0.760100
C211	C21	0.751500	0.865500	0.902500
O191	O19	0.848900	0.881000	0.852900
O201	O20	0.744700	0.884400	0.982500
O211	O21	0.613500	0.618400	0.645500
C221	C22	0.121500	0.320600	0.362300
C231	C23	0.121700	0.256800	0.287700
H81	H8	0.205500	0.237700	0.260100
C241	C24	0.251500	0.365500	0.402500
O221	O22	0.348900	0.381000	0.352900
O231	O23	0.244700	0.384400	0.482500
O241	O24	0.113500	0.118400	0.145500
C251	C25	0.500000	0.853000	0.899500
H91	H9	0.500000	0.897800	0.950800
C261	C26	0.500000	0.721000	0.753300
C271	C27	0.500000	0.647800	0.673800
C281	C28	0.000000	0.353000	0.399500
H101	H10	0.000000	0.397800	0.450800
C291	C29	0.000000	0.221000	0.253300
C301	C30	0.000000	0.147800	0.173800
C311	C31	0.500000	0.147000	0.899500
H111	H11	0.500000	0.102200	0.950800
C321	C32	0.500000	0.279000	0.753300
C331	C33	0.500000	0.352200	0.673800
C341	C34	0.000000	0.647000	0.399500
H121	H12	0.000000	0.602200	0.450800
C351	C35	0.000000	0.779000	0.253300
C361	C36	0.000000	0.852200	0.173800
Ni11	Ni1	0.000000	0.000000	0.863220
O251	O25	0.000000	0.000000	0.990900
Ni21	Ni2	0.500000	0.500000	0.363220
O261	O26	0.500000	0.500000	0.490900
Ni31	Ni3	0.831380	0.000000	0.060200
Ni41	Ni4	0.331380	0.500000	0.560200
Ni51	Ni5	0.168620	0.000000	0.060200
Ni61	Ni6	0.668620	0.500000	0.560200
