data_GADDOH_clean_PM
_symmetry_space_group_name_H-M	'P1'
_cell_length_a	10.107100
_cell_length_b	13.089400
_cell_length_c	13.669600
_cell_angle_alpha	97.074000
_cell_angle_beta	109.843000
_cell_angle_gamma	95.596000
_symmetry_Int_Tables_number 1

loop_
_symmetry_equiv_pos_as_xyz
'x,y,z'

loop_
_atom_site_label
_atom_site_type_symbol
_atom_site_fract_x
_atom_site_fract_y
_atom_site_fract_z
C11	C1	0.999600	0.278700	0.937100
C21	C2	0.001000	0.393100	0.972400
C31	C3	0.126500	0.459800	0.020000
C41	C4	0.871300	0.433600	0.951700
C51	C5	0.221600	0.057500	0.386200
C61	C6	0.366200	0.028600	0.446300
C71	C7	0.474900	0.100400	0.523500
C81	C8	0.606500	0.072800	0.575800
C91	C9	0.733600	0.931600	0.942400
C101	C10	0.613000	0.966600	0.972900
C111	C11	0.568500	0.921400	0.045700
C121	C12	0.541000	0.043700	0.925500
Cl11	Cl1	0.283700	0.409520	0.044380
Cl21	Cl2	0.713490	0.351180	0.892430
Cl31	Cl3	0.438270	0.224330	0.553030
Cl41	Cl4	0.738500	0.163820	0.666880
Cl51	Cl5	0.647670	0.820250	0.097920
Cl61	Cl6	0.591360	0.094260	0.831190
La11	La1	0.036280	0.119630	0.139670
O11	O1	0.984000	0.216800	0.997400
O21	O2	0.015300	0.254300	0.851500
O31	O3	0.218200	0.107800	0.312900
O41	O4	0.121800	0.026000	0.412100
O51	O5	0.853100	0.991000	0.980600
O61	O6	0.712200	0.849200	0.879500
O71	O7	0.974100	0.951300	0.196400
H11	H1	0.977400	0.975300	0.255700
H21	H2	0.992100	0.892600	0.183100
C131	C13	0.000400	0.721300	0.062900
C141	C14	0.999000	0.606900	0.027600
C151	C15	0.873500	0.540200	0.980000
C161	C16	0.128700	0.566400	0.048300
C171	C17	0.778400	0.942500	0.613800
C181	C18	0.633800	0.971400	0.553700
C191	C19	0.525100	0.899600	0.476500
C201	C20	0.393500	0.927200	0.424200
C211	C21	0.266400	0.068400	0.057600
C221	C22	0.387000	0.033400	0.027100
C231	C23	0.431500	0.078600	0.954300
C241	C24	0.459000	0.956300	0.074500
Cl71	Cl7	0.716300	0.590480	0.955620
Cl81	Cl8	0.286510	0.648820	0.107570
Cl91	Cl9	0.561730	0.775670	0.446970
Cl101	Cl10	0.261500	0.836180	0.333120
Cl111	Cl11	0.352330	0.179750	0.902080
Cl121	Cl12	0.408640	0.905740	0.168810
La21	La2	0.963720	0.880370	0.860330
O81	O8	0.016000	0.783200	0.002600
O91	O9	0.984700	0.745700	0.148500
O101	O10	0.781800	0.892200	0.687100
O111	O11	0.878200	0.974000	0.587900
O121	O12	0.146900	0.009000	0.019400
O131	O13	0.287800	0.150800	0.120500
O141	O14	0.025900	0.048700	0.803600
H31	H3	0.022600	0.024700	0.744300
H41	H4	0.007900	0.107400	0.816900
