data_GADFAV_clean_PM
_symmetry_space_group_name_H-M	'P1'
_cell_length_a	8.887000
_cell_length_b	25.053000
_cell_length_c	10.039000
_cell_angle_alpha	90.000000
_cell_angle_beta	101.565000
_cell_angle_gamma	90.000000
_symmetry_Int_Tables_number 1

loop_
_symmetry_equiv_pos_as_xyz
'x,y,z'

loop_
_atom_site_label
_atom_site_type_symbol
_atom_site_fract_x
_atom_site_fract_y
_atom_site_fract_z
C11	C1	0.350500	0.266850	0.247800
C21	C2	0.302400	0.258170	0.379500
C31	C3	0.260100	0.301090	0.452700
C41	C4	0.294900	0.207540	0.432700
C51	C5	0.024100	0.026700	0.127900
Cl11	Cl1	0.269370	0.364930	0.384240
Cl21	Cl2	0.353640	0.153780	0.344060
Cl31	Cl3	0.045860	0.062920	0.272500
O11	O1	0.266800	0.255160	0.134100
O21	O2	0.488700	0.282250	0.248200
O31	O3	0.874900	0.141000	0.993900
C61	C6	0.850500	0.766850	0.247800
C71	C7	0.802400	0.758170	0.379500
C81	C8	0.760100	0.801090	0.452700
C91	C9	0.794900	0.707540	0.432700
C101	C10	0.524100	0.526700	0.127900
Cl41	Cl4	0.769370	0.864930	0.384240
Cl51	Cl5	0.853640	0.653780	0.344060
Cl61	Cl6	0.545860	0.562920	0.272500
O41	O4	0.766800	0.755160	0.134100
O51	O5	0.988700	0.782250	0.248200
O61	O6	0.374900	0.641000	0.993900
C111	C11	0.649500	0.266850	0.752200
C121	C12	0.697600	0.258170	0.620500
C131	C13	0.739900	0.301090	0.547300
C141	C14	0.705100	0.207540	0.567300
C151	C15	0.975900	0.026700	0.872100
Cl71	Cl7	0.730630	0.364930	0.615760
Cl81	Cl8	0.646360	0.153780	0.655940
Cl91	Cl9	0.954140	0.062920	0.727500
O71	O7	0.733200	0.255160	0.865900
O81	O8	0.511300	0.282250	0.751800
O91	O9	0.125100	0.141000	0.006100
C161	C16	0.149500	0.766850	0.752200
C171	C17	0.197600	0.758170	0.620500
C181	C18	0.239900	0.801090	0.547300
C191	C19	0.205100	0.707540	0.567300
C201	C20	0.475900	0.526700	0.872100
Cl101	Cl10	0.230630	0.864930	0.615760
Cl111	Cl11	0.146360	0.653780	0.655940
Cl121	Cl12	0.454140	0.562920	0.727500
O101	O10	0.233200	0.755160	0.865900
O111	O11	0.011300	0.782250	0.751800
O121	O12	0.625100	0.641000	0.006100
C211	C21	0.649500	0.733150	0.752200
C221	C22	0.697600	0.741830	0.620500
C231	C23	0.739900	0.698910	0.547300
C241	C24	0.705100	0.792460	0.567300
C251	C25	0.975900	0.973300	0.872100
Cl131	Cl13	0.730630	0.635070	0.615760
Cl141	Cl14	0.646360	0.846220	0.655940
Cl151	Cl15	0.954140	0.937080	0.727500
O131	O13	0.733200	0.744840	0.865900
O141	O14	0.511300	0.717750	0.751800
O151	O15	0.125100	0.859000	0.006100
C261	C26	0.149500	0.233150	0.752200
C271	C27	0.197600	0.241830	0.620500
C281	C28	0.239900	0.198910	0.547300
C291	C29	0.205100	0.292460	0.567300
C301	C30	0.475900	0.473300	0.872100
Cl161	Cl16	0.230630	0.135070	0.615760
Cl171	Cl17	0.146360	0.346220	0.655940
Cl181	Cl18	0.454140	0.437080	0.727500
O161	O16	0.233200	0.244840	0.865900
O171	O17	0.011300	0.217750	0.751800
O181	O18	0.625100	0.359000	0.006100
C311	C31	0.350500	0.733150	0.247800
C321	C32	0.302400	0.741830	0.379500
C331	C33	0.260100	0.698910	0.452700
C341	C34	0.294900	0.792460	0.432700
C351	C35	0.024100	0.973300	0.127900
Cl191	Cl19	0.269370	0.635070	0.384240
Cl201	Cl20	0.353640	0.846220	0.344060
Cl211	Cl21	0.045860	0.937080	0.272500
O191	O19	0.266800	0.744840	0.134100
O201	O20	0.488700	0.717750	0.248200
O211	O21	0.874900	0.859000	0.993900
C361	C36	0.850500	0.233150	0.247800
C371	C37	0.802400	0.241830	0.379500
C381	C38	0.760100	0.198910	0.452700
C391	C39	0.794900	0.292460	0.432700
C401	C40	0.524100	0.473300	0.127900
Cl221	Cl22	0.769370	0.135070	0.384240
Cl231	Cl23	0.853640	0.346220	0.344060
Cl241	Cl24	0.545860	0.437080	0.272500
O221	O22	0.766800	0.244840	0.134100
O231	O23	0.988700	0.217750	0.248200
O241	O24	0.374900	0.359000	0.993900
C411	C41	0.000000	0.115900	0.000000
C421	C42	0.000000	0.056500	0.000000
La11	La1	0.000000	0.234120	0.000000
C431	C43	0.500000	0.615900	0.000000
C441	C44	0.500000	0.556500	0.000000
La21	La2	0.500000	0.734120	0.000000
C451	C45	0.000000	0.884100	0.000000
C461	C46	0.000000	0.943500	0.000000
La31	La3	0.000000	0.765880	0.000000
C471	C47	0.500000	0.384100	0.000000
C481	C48	0.500000	0.443500	0.000000
La41	La4	0.500000	0.265880	0.000000
