data_GADMAA_clean_PM
_symmetry_space_group_name_H-M	'P1'
_cell_length_a	14.510400
_cell_length_b	14.510400
_cell_length_c	15.772500
_cell_angle_alpha	90.000000
_cell_angle_beta	90.000000
_cell_angle_gamma	120.000000
_symmetry_Int_Tables_number 1

loop_
_symmetry_equiv_pos_as_xyz
'x,y,z'

loop_
_atom_site_label
_atom_site_type_symbol
_atom_site_fract_x
_atom_site_fract_y
_atom_site_fract_z
Gd11	Gd1	0.333330	0.666660	0.750000
Gd21	Gd2	0.666670	0.333340	0.750000
Gd31	Gd3	0.666670	0.333340	0.250000
Gd41	Gd4	0.333330	0.666660	0.250000
Zn11	Zn1	0.000000	0.500000	0.500000
Zn21	Zn2	0.500000	0.000000	0.500000
Zn31	Zn3	0.500000	0.500000	0.500000
Zn41	Zn4	0.500000	0.500000	0.000000
Zn51	Zn5	0.500000	0.000000	0.000000
Zn61	Zn6	0.000000	0.500000	0.000000
H11	H1	0.167600	0.802600	0.660200
H21	H2	0.087200	0.723000	0.727400
H31	H3	0.635000	0.832400	0.660200
H41	H4	0.635800	0.912800	0.727400
H51	H5	0.197400	0.365000	0.660200
H61	H6	0.277000	0.364200	0.727400
H71	H7	0.832400	0.197400	0.660200
H81	H8	0.912800	0.277000	0.727400
H91	H9	0.365000	0.167600	0.660200
H101	H10	0.364200	0.087200	0.727400
H111	H11	0.802600	0.635000	0.660200
H121	H12	0.723000	0.635800	0.727400
H131	H13	0.365000	0.197400	0.839800
H141	H14	0.364200	0.277000	0.772600
H151	H15	0.802600	0.167600	0.839800
H161	H16	0.723000	0.087200	0.772600
H171	H17	0.832400	0.635000	0.839800
H181	H18	0.912800	0.635800	0.772600
H191	H19	0.635000	0.802600	0.839800
H201	H20	0.635800	0.723000	0.772600
H211	H21	0.197400	0.832400	0.839800
H221	H22	0.277000	0.912800	0.772600
H231	H23	0.167600	0.365000	0.839800
H241	H24	0.087200	0.364200	0.772600
H251	H25	0.832400	0.197400	0.339800
H261	H26	0.912800	0.277000	0.272600
H271	H27	0.365000	0.167600	0.339800
H281	H28	0.364200	0.087200	0.272600
H291	H29	0.802600	0.635000	0.339800
H301	H30	0.723000	0.635800	0.272600
H311	H31	0.167600	0.802600	0.339800
H321	H32	0.087200	0.723000	0.272600
H331	H33	0.635000	0.832400	0.339800
H341	H34	0.635800	0.912800	0.272600
H351	H35	0.197400	0.365000	0.339800
H361	H36	0.277000	0.364200	0.272600
H371	H37	0.635000	0.802600	0.160200
H381	H38	0.635800	0.723000	0.227400
H391	H39	0.197400	0.832400	0.160200
H401	H40	0.277000	0.912800	0.227400
H411	H41	0.167600	0.365000	0.160200
H421	H42	0.087200	0.364200	0.227400
H431	H43	0.365000	0.197400	0.160200
H441	H44	0.364200	0.277000	0.227400
H451	H45	0.802600	0.167600	0.160200
H461	H46	0.723000	0.087200	0.227400
H471	H47	0.832400	0.635000	0.160200
H481	H48	0.912800	0.635800	0.227400
C11	C1	0.131900	0.650000	0.640000
C21	C2	0.150900	0.741100	0.695100
C31	C3	0.518100	0.868100	0.640000
C41	C4	0.590200	0.849100	0.695100
C51	C5	0.350000	0.481900	0.640000
C61	C6	0.258900	0.409800	0.695100
C71	C7	0.868100	0.350000	0.640000
C81	C8	0.849100	0.258900	0.695100
C91	C9	0.481900	0.131900	0.640000
C101	C10	0.409800	0.150900	0.695100
C111	C11	0.650000	0.518100	0.640000
C121	C12	0.741100	0.590200	0.695100
C131	C13	0.481900	0.350000	0.860000
C141	C14	0.409800	0.258900	0.804900
C151	C15	0.650000	0.131900	0.860000
C161	C16	0.741100	0.150900	0.804900
C171	C17	0.868100	0.518100	0.860000
C181	C18	0.849100	0.590200	0.804900
C191	C19	0.518100	0.650000	0.860000
C201	C20	0.590200	0.741100	0.804900
C211	C21	0.350000	0.868100	0.860000
C221	C22	0.258900	0.849100	0.804900
C231	C23	0.131900	0.481900	0.860000
C241	C24	0.150900	0.409800	0.804900
C251	C25	0.868100	0.350000	0.360000
C261	C26	0.849100	0.258900	0.304900
C271	C27	0.481900	0.131900	0.360000
C281	C28	0.409800	0.150900	0.304900
C291	C29	0.650000	0.518100	0.360000
C301	C30	0.741100	0.590200	0.304900
C311	C31	0.131900	0.650000	0.360000
C321	C32	0.150900	0.741100	0.304900
C331	C33	0.518100	0.868100	0.360000
C341	C34	0.590200	0.849100	0.304900
C351	C35	0.350000	0.481900	0.360000
C361	C36	0.258900	0.409800	0.304900
C371	C37	0.518100	0.650000	0.140000
C381	C38	0.590200	0.741100	0.195100
C391	C39	0.350000	0.868100	0.140000
C401	C40	0.258900	0.849100	0.195100
C411	C41	0.131900	0.481900	0.140000
C421	C42	0.150900	0.409800	0.195100
C431	C43	0.481900	0.350000	0.140000
C441	C44	0.409800	0.258900	0.195100
C451	C45	0.650000	0.131900	0.140000
C461	C46	0.741100	0.150900	0.195100
C471	C47	0.868100	0.518100	0.140000
C481	C48	0.849100	0.590200	0.195100
O11	O1	0.195690	0.615230	0.645590
O21	O2	0.055000	0.617310	0.590430
O31	O3	0.419540	0.804310	0.645590
O41	O4	0.562310	0.945000	0.590430
O51	O5	0.384770	0.580460	0.645590
O61	O6	0.382690	0.437690	0.590430
O71	O7	0.804310	0.384770	0.645590
O81	O8	0.945000	0.382690	0.590430
O91	O9	0.580460	0.195690	0.645590
O101	O10	0.437690	0.055000	0.590430
O111	O11	0.615230	0.419540	0.645590
O121	O12	0.617310	0.562310	0.590430
O131	O13	0.580460	0.384770	0.854410
O141	O14	0.437690	0.382690	0.909570
O151	O15	0.615230	0.195690	0.854410
O161	O16	0.617310	0.055000	0.909570
O171	O17	0.804310	0.419540	0.854410
O181	O18	0.945000	0.562310	0.909570
O191	O19	0.419540	0.615230	0.854410
O201	O20	0.562310	0.617310	0.909570
O211	O21	0.384770	0.804310	0.854410
O221	O22	0.382690	0.945000	0.909570
O231	O23	0.195690	0.580460	0.854410
O241	O24	0.055000	0.437690	0.909570
O251	O25	0.804310	0.384770	0.354410
O261	O26	0.945000	0.382690	0.409570
O271	O27	0.580460	0.195690	0.354410
O281	O28	0.437690	0.055000	0.409570
O291	O29	0.615230	0.419540	0.354410
O301	O30	0.617310	0.562310	0.409570
O311	O31	0.195690	0.615230	0.354410
O321	O32	0.055000	0.617310	0.409570
O331	O33	0.419540	0.804310	0.354410
O341	O34	0.562310	0.945000	0.409570
O351	O35	0.384770	0.580460	0.354410
O361	O36	0.382690	0.437690	0.409570
O371	O37	0.419540	0.615230	0.145590
O381	O38	0.562310	0.617310	0.090430
O391	O39	0.384770	0.804310	0.145590
O401	O40	0.382690	0.945000	0.090430
O411	O41	0.195690	0.580460	0.145590
O421	O42	0.055000	0.437690	0.090430
O431	O43	0.580460	0.384770	0.145590
O441	O44	0.437690	0.382690	0.090430
O451	O45	0.615230	0.195690	0.145590
O461	O46	0.617310	0.055000	0.090430
O471	O47	0.804310	0.419540	0.145590
O481	O48	0.945000	0.562310	0.090430
O491	O49	0.234850	0.765150	0.750000
O501	O50	0.530300	0.765150	0.750000
O511	O51	0.234850	0.469700	0.750000
O521	O52	0.765150	0.234850	0.750000
O531	O53	0.469700	0.234850	0.750000
O541	O54	0.765150	0.530300	0.750000
O551	O55	0.765150	0.234850	0.250000
O561	O56	0.469700	0.234850	0.250000
O571	O57	0.765150	0.530300	0.250000
O581	O58	0.234850	0.765150	0.250000
O591	O59	0.530300	0.765150	0.250000
O601	O60	0.234850	0.469700	0.250000
