data_GADRAH_clean_PM
_symmetry_space_group_name_H-M	'P1'
_cell_length_a	18.124900
_cell_length_b	12.106400
_cell_length_c	17.733300
_cell_angle_alpha	90.000000
_cell_angle_beta	107.301000
_cell_angle_gamma	90.000000
_symmetry_Int_Tables_number 1

loop_
_symmetry_equiv_pos_as_xyz
'x,y,z'

loop_
_atom_site_label
_atom_site_type_symbol
_atom_site_fract_x
_atom_site_fract_y
_atom_site_fract_z
Co11	Co1	0.789980	0.157180	0.686430
Co21	Co2	0.667140	0.345780	0.661210
Co31	Co3	0.806260	0.313830	0.836210
Na11	Na1	0.599700	0.002400	0.994500
O11	O1	0.748300	0.133900	0.570200
O21	O2	0.645400	0.233600	0.568200
O31	O3	0.439600	0.294400	0.325500
O41	O4	0.406600	0.152600	0.242100
O51	O5	0.641900	0.920000	0.227800
O61	O6	0.713800	0.864900	0.347400
O71	O7	0.670700	0.475400	0.738200
O81	O8	0.743200	0.439600	0.862200
O91	O9	0.406900	0.643600	0.711500
O101	O10	0.389100	0.697600	0.823900
O111	O11	0.713700	0.703100	0.072900
O121	O12	0.619200	0.824100	0.041700
O131	O13	0.728400	0.235900	0.744800
O141	O14	0.476200	0.008200	0.902600
H11	H1	0.464800	0.952900	0.871900
H21	H2	0.466700	0.065800	0.876100
C11	C1	0.641500	0.134100	0.454700
C21	C2	0.570300	0.181500	0.415100
H31	H3	0.548900	0.236200	0.440900
C31	C3	0.530600	0.150000	0.339000
C41	C4	0.559900	0.068200	0.301900
H41	H4	0.531400	0.045100	0.250200
C51	C5	0.631600	0.018600	0.340000
C61	C6	0.671500	0.051000	0.417200
H51	H5	0.719100	0.016500	0.444300
C71	C7	0.682700	0.171200	0.537800
C81	C8	0.453500	0.202200	0.298100
C91	C9	0.665000	0.928000	0.301800
C101	C10	0.640700	0.567700	0.841000
C111	C11	0.564900	0.587600	0.797200
H61	H6	0.544700	0.554400	0.746700
C121	C12	0.517500	0.656200	0.826500
C131	C13	0.546400	0.706900	0.899700
H71	H7	0.513900	0.752500	0.919800
C141	C14	0.624300	0.690100	0.943900
C151	C15	0.670000	0.617800	0.915300
H81	H8	0.721400	0.602500	0.946500
C161	C16	0.688500	0.486300	0.810800
C171	C17	0.431600	0.667400	0.784600
C181	C18	0.655100	0.740500	0.024600
H91	H9	0.699000	0.204000	0.766000
Co41	Co4	0.289980	0.657180	0.686430
Co51	Co5	0.167140	0.845780	0.661210
Co61	Co6	0.306260	0.813830	0.836210
Na21	Na2	0.099700	0.502400	0.994500
O151	O15	0.248300	0.633900	0.570200
O161	O16	0.145400	0.733600	0.568200
O171	O17	0.939600	0.794400	0.325500
O181	O18	0.906600	0.652600	0.242100
O191	O19	0.141900	0.420000	0.227800
O201	O20	0.213800	0.364900	0.347400
O211	O21	0.170700	0.975400	0.738200
O221	O22	0.243200	0.939600	0.862200
O231	O23	0.906900	0.143600	0.711500
O241	O24	0.889100	0.197600	0.823900
O251	O25	0.213700	0.203100	0.072900
O261	O26	0.119200	0.324100	0.041700
O271	O27	0.228400	0.735900	0.744800
O281	O28	0.976200	0.508200	0.902600
H101	H10	0.964800	0.452900	0.871900
H111	H11	0.966700	0.565800	0.876100
C191	C19	0.141500	0.634100	0.454700
C201	C20	0.070300	0.681500	0.415100
H121	H12	0.048900	0.736200	0.440900
C211	C21	0.030600	0.650000	0.339000
C221	C22	0.059900	0.568200	0.301900
H131	H13	0.031400	0.545100	0.250200
C231	C23	0.131600	0.518600	0.340000
C241	C24	0.171500	0.551000	0.417200
H141	H14	0.219100	0.516500	0.444300
C251	C25	0.182700	0.671200	0.537800
C261	C26	0.953500	0.702200	0.298100
C271	C27	0.165000	0.428000	0.301800
C281	C28	0.140700	0.067700	0.841000
C291	C29	0.064900	0.087600	0.797200
H151	H15	0.044700	0.054400	0.746700
C301	C30	0.017500	0.156200	0.826500
C311	C31	0.046400	0.206900	0.899700
H161	H16	0.013900	0.252500	0.919800
C321	C32	0.124300	0.190100	0.943900
C331	C33	0.170000	0.117800	0.915300
H171	H17	0.221400	0.102500	0.946500
C341	C34	0.188500	0.986300	0.810800
C351	C35	0.931600	0.167400	0.784600
C361	C36	0.155100	0.240500	0.024600
H181	H18	0.199000	0.704000	0.766000
Co71	Co7	0.210020	0.157180	0.313570
Co81	Co8	0.332860	0.345780	0.338790
Co91	Co9	0.193740	0.313830	0.163790
Na31	Na3	0.400300	0.002400	0.005500
O291	O29	0.251700	0.133900	0.429800
O301	O30	0.354600	0.233600	0.431800
O311	O31	0.560400	0.294400	0.674500
O321	O32	0.593400	0.152600	0.757900
O331	O33	0.358100	0.920000	0.772200
O341	O34	0.286200	0.864900	0.652600
O351	O35	0.329300	0.475400	0.261800
O361	O36	0.256800	0.439600	0.137800
O371	O37	0.593100	0.643600	0.288500
O381	O38	0.610900	0.697600	0.176100
O391	O39	0.286300	0.703100	0.927100
O401	O40	0.380800	0.824100	0.958300
O411	O41	0.271600	0.235900	0.255200
O421	O42	0.523800	0.008200	0.097400
H191	H19	0.535200	0.952900	0.128100
H201	H20	0.533300	0.065800	0.123900
C371	C37	0.358500	0.134100	0.545300
C381	C38	0.429700	0.181500	0.584900
H211	H21	0.451100	0.236200	0.559100
C391	C39	0.469400	0.150000	0.661000
C401	C40	0.440100	0.068200	0.698100
H221	H22	0.468600	0.045100	0.749800
C411	C41	0.368400	0.018600	0.660000
C421	C42	0.328500	0.051000	0.582800
H231	H23	0.280900	0.016500	0.555700
C431	C43	0.317300	0.171200	0.462200
C441	C44	0.546500	0.202200	0.701900
C451	C45	0.335000	0.928000	0.698200
C461	C46	0.359300	0.567700	0.159000
C471	C47	0.435100	0.587600	0.202800
H241	H24	0.455300	0.554400	0.253300
C481	C48	0.482500	0.656200	0.173500
C491	C49	0.453600	0.706900	0.100300
H251	H25	0.486100	0.752500	0.080200
C501	C50	0.375700	0.690100	0.056100
C511	C51	0.330000	0.617800	0.084700
H261	H26	0.278600	0.602500	0.053500
C521	C52	0.311500	0.486300	0.189200
C531	C53	0.568400	0.667400	0.215400
C541	C54	0.344900	0.740500	0.975400
H271	H27	0.301000	0.204000	0.234000
Co101	Co10	0.710020	0.657180	0.313570
Co111	Co11	0.832860	0.845780	0.338790
Co121	Co12	0.693740	0.813830	0.163790
Na41	Na4	0.900300	0.502400	0.005500
O431	O43	0.751700	0.633900	0.429800
O441	O44	0.854600	0.733600	0.431800
O451	O45	0.060400	0.794400	0.674500
O461	O46	0.093400	0.652600	0.757900
O471	O47	0.858100	0.420000	0.772200
O481	O48	0.786200	0.364900	0.652600
O491	O49	0.829300	0.975400	0.261800
O501	O50	0.756800	0.939600	0.137800
O511	O51	0.093100	0.143600	0.288500
O521	O52	0.110900	0.197600	0.176100
O531	O53	0.786300	0.203100	0.927100
O541	O54	0.880800	0.324100	0.958300
O551	O55	0.771600	0.735900	0.255200
O561	O56	0.023800	0.508200	0.097400
H281	H28	0.035200	0.452900	0.128100
H291	H29	0.033300	0.565800	0.123900
C551	C55	0.858500	0.634100	0.545300
C561	C56	0.929700	0.681500	0.584900
H301	H30	0.951100	0.736200	0.559100
C571	C57	0.969400	0.650000	0.661000
C581	C58	0.940100	0.568200	0.698100
H311	H31	0.968600	0.545100	0.749800
C591	C59	0.868400	0.518600	0.660000
C601	C60	0.828500	0.551000	0.582800
H321	H32	0.780900	0.516500	0.555700
C611	C61	0.817300	0.671200	0.462200
C621	C62	0.046500	0.702200	0.701900
C631	C63	0.835000	0.428000	0.698200
C641	C64	0.859300	0.067700	0.159000
C651	C65	0.935100	0.087600	0.202800
H331	H33	0.955300	0.054400	0.253300
C661	C66	0.982500	0.156200	0.173500
C671	C67	0.953600	0.206900	0.100300
H341	H34	0.986100	0.252500	0.080200
C681	C68	0.875700	0.190100	0.056100
C691	C69	0.830000	0.117800	0.084700
H351	H35	0.778600	0.102500	0.053500
C701	C70	0.811500	0.986300	0.189200
C711	C71	0.068400	0.167400	0.215400
C721	C72	0.844900	0.240500	0.975400
H361	H36	0.801000	0.704000	0.234000
