data_GAGSUF_clean_PM
_symmetry_space_group_name_H-M	'P1'
_cell_length_a	18.444800
_cell_length_b	18.444800
_cell_length_c	9.808400
_cell_angle_alpha	90.000000
_cell_angle_beta	90.000000
_cell_angle_gamma	120.000000
_symmetry_Int_Tables_number 1

loop_
_symmetry_equiv_pos_as_xyz
'x,y,z'

loop_
_atom_site_label
_atom_site_type_symbol
_atom_site_fract_x
_atom_site_fract_y
_atom_site_fract_z
O11	O1	0.568600	0.062300	0.361000
O21	O2	0.461600	0.687800	0.504400
O31	O3	0.467100	0.793900	0.614100
C11	C1	0.470200	0.759400	0.504500
C21	C2	0.484800	0.805200	0.372900
C31	C3	0.508600	0.889100	0.373300
H11	H1	0.515000	0.916800	0.455500
O41	O4	0.937700	0.506300	0.361000
O51	O5	0.312200	0.773800	0.504400
O61	O6	0.206100	0.673200	0.614100
C41	C4	0.240600	0.710800	0.504500
C51	C5	0.194800	0.679600	0.372900
C61	C6	0.110900	0.619500	0.373300
H21	H2	0.083200	0.598200	0.455500
O71	O7	0.493700	0.431400	0.361000
O81	O8	0.226200	0.538400	0.504400
O91	O9	0.326800	0.532900	0.614100
C71	C7	0.289200	0.529800	0.504500
C81	C8	0.320400	0.515200	0.372900
C91	C9	0.380500	0.491400	0.373300
H31	H3	0.401800	0.485000	0.455500
O101	O10	0.431400	0.937700	0.861000
O111	O11	0.538400	0.312200	0.004400
O121	O12	0.532900	0.206100	0.114100
C101	C10	0.529800	0.240600	0.004500
C111	C11	0.515200	0.194800	0.872900
C121	C12	0.491400	0.110900	0.873300
H41	H4	0.485000	0.083200	0.955500
O131	O13	0.062300	0.493700	0.861000
O141	O14	0.687800	0.226200	0.004400
O151	O15	0.793900	0.326800	0.114100
C131	C13	0.759400	0.289200	0.004500
C141	C14	0.805200	0.320400	0.872900
C151	C15	0.889100	0.380500	0.873300
H51	H5	0.916800	0.401800	0.955500
O161	O16	0.506300	0.568600	0.861000
O171	O17	0.773800	0.461600	0.004400
O181	O18	0.673200	0.467100	0.114100
C161	C16	0.710800	0.470200	0.004500
C171	C17	0.679600	0.484800	0.872900
C181	C18	0.619500	0.508600	0.873300
H61	H6	0.598200	0.515000	0.955500
O191	O19	0.431400	0.937700	0.639000
O201	O20	0.538400	0.312200	0.495600
O211	O21	0.532900	0.206100	0.385900
C191	C19	0.529800	0.240600	0.495500
C201	C20	0.515200	0.194800	0.627100
C211	C21	0.491400	0.110900	0.626700
H71	H7	0.485000	0.083200	0.544500
O221	O22	0.062300	0.493700	0.639000
O231	O23	0.687800	0.226200	0.495600
O241	O24	0.793900	0.326800	0.385900
C221	C22	0.759400	0.289200	0.495500
C231	C23	0.805200	0.320400	0.627100
C241	C24	0.889100	0.380500	0.626700
H81	H8	0.916800	0.401800	0.544500
O251	O25	0.506300	0.568600	0.639000
O261	O26	0.773800	0.461600	0.495600
O271	O27	0.673200	0.467100	0.385900
C251	C25	0.710800	0.470200	0.495500
C261	C26	0.679600	0.484800	0.627100
C271	C27	0.619500	0.508600	0.626700
H91	H9	0.598200	0.515000	0.544500
O281	O28	0.568600	0.062300	0.139000
O291	O29	0.461600	0.687800	0.995600
O301	O30	0.467100	0.793900	0.885900
C281	C28	0.470200	0.759400	0.995500
C291	C29	0.484800	0.805200	0.127100
C301	C30	0.508600	0.889100	0.126700
H101	H10	0.515000	0.916800	0.044500
O311	O31	0.937700	0.506300	0.139000
O321	O32	0.312200	0.773800	0.995600
O331	O33	0.206100	0.673200	0.885900
C311	C31	0.240600	0.710800	0.995500
C321	C32	0.194800	0.679600	0.127100
C331	C33	0.110900	0.619500	0.126700
H111	H11	0.083200	0.598200	0.044500
O341	O34	0.493700	0.431400	0.139000
O351	O35	0.226200	0.538400	0.995600
O361	O36	0.326800	0.532900	0.885900
C341	C34	0.289200	0.529800	0.995500
C351	C35	0.320400	0.515200	0.127100
C361	C36	0.380500	0.491400	0.126700
H121	H12	0.401800	0.485000	0.044500
Th11	Th1	0.646170	0.202010	0.250000
C371	C37	0.523200	0.932400	0.250000
C381	C38	0.553800	0.022800	0.250000
C391	C39	0.473400	0.763300	0.250000
H131	H13	0.458100	0.707000	0.250000
Th21	Th2	0.797990	0.444160	0.250000
C401	C40	0.067600	0.590800	0.250000
C411	C41	0.977200	0.531000	0.250000
C421	C42	0.236700	0.710100	0.250000
H141	H14	0.293000	0.751100	0.250000
Th31	Th3	0.555840	0.353830	0.250000
C431	C43	0.409200	0.476800	0.250000
C441	C44	0.469000	0.446200	0.250000
C451	C45	0.289900	0.526600	0.250000
H151	H15	0.248900	0.541900	0.250000
Th41	Th4	0.353830	0.797990	0.750000
C461	C46	0.476800	0.067600	0.750000
C471	C47	0.446200	0.977200	0.750000
C481	C48	0.526600	0.236700	0.750000
H161	H16	0.541900	0.293000	0.750000
Th51	Th5	0.202010	0.555840	0.750000
C491	C49	0.932400	0.409200	0.750000
C501	C50	0.022800	0.469000	0.750000
C511	C51	0.763300	0.289900	0.750000
H171	H17	0.707000	0.248900	0.750000
Th61	Th6	0.444160	0.646170	0.750000
C521	C52	0.590800	0.523200	0.750000
C531	C53	0.531000	0.553800	0.750000
C541	C54	0.710100	0.473400	0.750000
H181	H18	0.751100	0.458100	0.750000
O371	O37	0.666670	0.333330	0.250000
O381	O38	0.333330	0.666670	0.750000
