data_GAGTEQ_clean_PM
_symmetry_space_group_name_H-M	'P1'
_cell_length_a	20.232700
_cell_length_b	10.071400
_cell_length_c	21.673000
_cell_angle_alpha	90.000000
_cell_angle_beta	97.856000
_cell_angle_gamma	90.000000
_symmetry_Int_Tables_number 1

loop_
_symmetry_equiv_pos_as_xyz
'x,y,z'

loop_
_atom_site_label
_atom_site_type_symbol
_atom_site_fract_x
_atom_site_fract_y
_atom_site_fract_z
Th11	Th1	0.148960	0.790570	0.413060
Th21	Th2	0.356480	0.785560	0.593040
O11	O1	0.161500	0.865100	0.518270
O21	O2	0.176100	0.752500	0.805230
O31	O3	0.344100	0.852200	0.487420
O41	O4	0.106700	0.895000	0.837820
O51	O5	0.327600	0.742200	0.200000
O61	O6	0.268200	0.771900	0.414900
O71	O7	0.383900	0.904500	0.167430
O81	O8	0.192500	0.601400	0.474000
O91	O9	0.540800	0.152400	0.330700
O101	O10	0.944300	0.122300	0.666910
O111	O11	0.192500	0.998900	0.398400
O121	O12	0.943100	0.043800	0.572300
C11	C1	0.156400	0.857600	0.684300
H11	H1	0.196900	0.815000	0.696300
C21	C2	0.137100	0.890800	0.621800
C31	C3	0.360700	0.886100	0.383500
C41	C4	0.075100	0.950200	0.603100
H21	H2	0.060700	0.965700	0.561100
C51	C5	0.321400	0.833900	0.431900
C61	C6	0.416400	0.964400	0.400100
H31	H3	0.430400	0.983900	0.441800
C71	C7	0.115000	0.888400	0.728300
C81	C8	0.133900	0.845500	0.794400
C91	C9	0.035500	0.985800	0.647600
C101	C10	0.362700	0.847600	0.210400
C111	C11	0.056100	0.957000	0.710200
H41	H4	0.030200	0.984100	0.740200
C121	C12	0.289100	0.199200	0.556000
C131	C13	0.378300	0.897100	0.276000
C141	C14	0.183200	0.863400	0.575200
C151	C15	0.248000	0.405200	0.506900
C161	C16	0.341400	0.852000	0.321300
H51	H5	0.304000	0.799100	0.310200
C171	C17	0.219800	0.335800	0.454700
H61	H6	0.197400	0.381300	0.420800
C181	C18	0.451700	0.013900	0.354200
C191	C19	0.225000	0.196600	0.452800
C201	C20	0.283200	0.338000	0.557400
H71	H7	0.302900	0.385300	0.592000
O131	O13	0.535400	0.109300	0.428600
O141	O14	0.242600	0.843100	0.596200
O151	O15	0.346400	0.012800	0.604200
O161	O16	0.283400	0.616300	0.544200
C211	C21	0.970400	0.053600	0.627700
C221	C22	0.241400	0.552100	0.508900
C231	C23	0.260500	0.130900	0.503700
H81	H8	0.264900	0.039100	0.502400
C241	C24	0.432300	0.981200	0.292100
H91	H9	0.455400	0.015500	0.261400
C251	C25	0.193300	0.124600	0.396100
C261	C26	0.512300	0.098300	0.372100
C271	C27	0.326600	0.130500	0.611400
O171	O17	0.167400	0.187700	0.351900
O181	O18	0.339500	0.190900	0.660100
Th31	Th3	0.851040	0.290570	0.086940
Th41	Th4	0.643520	0.285560	0.906960
O191	O19	0.838500	0.365100	0.981730
O201	O20	0.823900	0.252500	0.694770
O211	O21	0.655900	0.352200	0.012580
O221	O22	0.893300	0.395000	0.662180
O231	O23	0.672400	0.242200	0.300000
O241	O24	0.731800	0.271900	0.085100
O251	O25	0.616100	0.404500	0.332570
O261	O26	0.807500	0.101400	0.026000
O271	O27	0.459200	0.652400	0.169300
O281	O28	0.055700	0.622300	0.833090
O291	O29	0.807500	0.498900	0.101600
O301	O30	0.056900	0.543800	0.927700
C281	C28	0.843600	0.357600	0.815700
H101	H10	0.803100	0.315000	0.803700
C291	C29	0.862900	0.390800	0.878200
C301	C30	0.639300	0.386100	0.116500
C311	C31	0.924900	0.450200	0.896900
H111	H11	0.939300	0.465700	0.938900
C321	C32	0.678600	0.333900	0.068100
C331	C33	0.583600	0.464400	0.099900
H121	H12	0.569600	0.483900	0.058200
C341	C34	0.885000	0.388400	0.771700
C351	C35	0.866100	0.345500	0.705600
C361	C36	0.964500	0.485800	0.852400
C371	C37	0.637300	0.347600	0.289600
C381	C38	0.943900	0.457000	0.789800
H131	H13	0.969800	0.484100	0.759800
C391	C39	0.710900	0.699200	0.944000
C401	C40	0.621700	0.397100	0.224000
C411	C41	0.816800	0.363400	0.924800
C421	C42	0.752000	0.905200	0.993100
C431	C43	0.658600	0.352000	0.178700
H141	H14	0.696000	0.299100	0.189800
C441	C44	0.780200	0.835800	0.045300
H151	H15	0.802600	0.881300	0.079200
C451	C45	0.548300	0.513900	0.145800
C461	C46	0.775000	0.696600	0.047200
C471	C47	0.716800	0.838000	0.942600
H161	H16	0.697100	0.885300	0.908000
O311	O31	0.464600	0.609300	0.071400
O321	O32	0.757400	0.343100	0.903800
O331	O33	0.653600	0.512800	0.895800
O341	O34	0.716600	0.116300	0.955800
C481	C48	0.029600	0.553600	0.872300
C491	C49	0.758600	0.052100	0.991100
C501	C50	0.739500	0.630900	0.996300
H171	H17	0.735100	0.539100	0.997600
C511	C51	0.567700	0.481200	0.207900
H181	H18	0.544600	0.515500	0.238600
C521	C52	0.806700	0.624600	0.103900
C531	C53	0.487700	0.598300	0.127900
C541	C54	0.673400	0.630500	0.888600
O351	O35	0.832600	0.687700	0.148100
O361	O36	0.660500	0.690900	0.839900
Th51	Th5	0.851040	0.209430	0.586940
Th61	Th6	0.643520	0.214440	0.406960
O371	O37	0.838500	0.134900	0.481730
O381	O38	0.823900	0.247500	0.194770
O391	O39	0.655900	0.147800	0.512580
O401	O40	0.893300	0.105000	0.162180
O411	O41	0.672400	0.257800	0.800000
O421	O42	0.731800	0.228100	0.585100
O431	O43	0.616100	0.095500	0.832570
O441	O44	0.807500	0.398600	0.526000
O451	O45	0.459200	0.847600	0.669300
O461	O46	0.055700	0.877700	0.333090
O471	O47	0.807500	0.001100	0.601600
O481	O48	0.056900	0.956200	0.427700
C551	C55	0.843600	0.142400	0.315700
H191	H19	0.803100	0.185000	0.303700
C561	C56	0.862900	0.109200	0.378200
C571	C57	0.639300	0.113900	0.616500
C581	C58	0.924900	0.049800	0.396900
H201	H20	0.939300	0.034300	0.438900
C591	C59	0.678600	0.166100	0.568100
C601	C60	0.583600	0.035600	0.599900
H211	H21	0.569600	0.016100	0.558200
C611	C61	0.885000	0.111600	0.271700
C621	C62	0.866100	0.154500	0.205600
C631	C63	0.964500	0.014200	0.352400
C641	C64	0.637300	0.152400	0.789600
C651	C65	0.943900	0.043000	0.289800
H221	H22	0.969800	0.015900	0.259800
C661	C66	0.710900	0.800800	0.444000
C671	C67	0.621700	0.102900	0.724000
C681	C68	0.816800	0.136600	0.424800
C691	C69	0.752000	0.594800	0.493100
C701	C70	0.658600	0.148000	0.678700
H231	H23	0.696000	0.200900	0.689800
C711	C71	0.780200	0.664200	0.545300
H241	H24	0.802600	0.618700	0.579200
C721	C72	0.548300	0.986100	0.645800
C731	C73	0.775000	0.803400	0.547200
C741	C74	0.716800	0.662000	0.442600
H251	H25	0.697100	0.614700	0.408000
O491	O49	0.464600	0.890700	0.571400
O501	O50	0.757400	0.156900	0.403800
O511	O51	0.653600	0.987200	0.395800
O521	O52	0.716600	0.383700	0.455800
C751	C75	0.029600	0.946400	0.372300
C761	C76	0.758600	0.447900	0.491100
C771	C77	0.739500	0.869100	0.496300
H261	H26	0.735100	0.960900	0.497600
C781	C78	0.567700	0.018800	0.707900
H271	H27	0.544600	0.984500	0.738600
C791	C79	0.806700	0.875400	0.603900
C801	C80	0.487700	0.901700	0.627900
C811	C81	0.673400	0.869500	0.388600
O531	O53	0.832600	0.812300	0.648100
O541	O54	0.660500	0.809100	0.339900
Th71	Th7	0.148960	0.709430	0.913060
Th81	Th8	0.356480	0.714440	0.093040
O551	O55	0.161500	0.634900	0.018270
O561	O56	0.176100	0.747500	0.305230
O571	O57	0.344100	0.647800	0.987420
O581	O58	0.106700	0.605000	0.337820
O591	O59	0.327600	0.757800	0.700000
O601	O60	0.268200	0.728100	0.914900
O611	O61	0.383900	0.595500	0.667430
O621	O62	0.192500	0.898600	0.974000
O631	O63	0.540800	0.347600	0.830700
O641	O64	0.944300	0.377700	0.166910
O651	O65	0.192500	0.501100	0.898400
O661	O66	0.943100	0.456200	0.072300
C821	C82	0.156400	0.642400	0.184300
H281	H28	0.196900	0.685000	0.196300
C831	C83	0.137100	0.609200	0.121800
C841	C84	0.360700	0.613900	0.883500
C851	C85	0.075100	0.549800	0.103100
H291	H29	0.060700	0.534300	0.061100
C861	C86	0.321400	0.666100	0.931900
C871	C87	0.416400	0.535600	0.900100
H301	H30	0.430400	0.516100	0.941800
C881	C88	0.115000	0.611600	0.228300
C891	C89	0.133900	0.654500	0.294400
C901	C90	0.035500	0.514200	0.147600
C911	C91	0.362700	0.652400	0.710400
C921	C92	0.056100	0.543000	0.210200
H311	H31	0.030200	0.515900	0.240200
C931	C93	0.289100	0.300800	0.056000
C941	C94	0.378300	0.602900	0.776000
C951	C95	0.183200	0.636600	0.075200
C961	C96	0.248000	0.094800	0.006900
C971	C97	0.341400	0.648000	0.821300
H321	H32	0.304000	0.700900	0.810200
C981	C98	0.219800	0.164200	0.954700
H331	H33	0.197400	0.118700	0.920800
C991	C99	0.451700	0.486100	0.854200
C1001	C100	0.225000	0.303400	0.952800
C1011	C101	0.283200	0.162000	0.057400
H341	H34	0.302900	0.114700	0.092000
O671	O67	0.535400	0.390700	0.928600
O681	O68	0.242600	0.656900	0.096200
O691	O69	0.346400	0.487200	0.104200
O701	O70	0.283400	0.883700	0.044200
C1021	C102	0.970400	0.446400	0.127700
C1031	C103	0.241400	0.947900	0.008900
C1041	C104	0.260500	0.369100	0.003700
H351	H35	0.264900	0.460900	0.002400
C1051	C105	0.432300	0.518800	0.792100
H361	H36	0.455400	0.484500	0.761400
C1061	C106	0.193300	0.375400	0.896100
C1071	C107	0.512300	0.401700	0.872100
C1081	C108	0.326600	0.369500	0.111400
O711	O71	0.167400	0.312300	0.851900
O721	O72	0.339500	0.309100	0.160100
