data_GAJTOC_clean_PM
_symmetry_space_group_name_H-M	'P1'
_cell_length_a	12.834500
_cell_length_b	12.834500
_cell_length_c	34.874000
_cell_angle_alpha	82.500400
_cell_angle_beta	82.500400
_cell_angle_gamma	63.726000
_symmetry_Int_Tables_number 1

loop_
_symmetry_equiv_pos_as_xyz
'x,y,z'

loop_
_atom_site_label
_atom_site_type_symbol
_atom_site_fract_x
_atom_site_fract_y
_atom_site_fract_z
Gd11	Gd1	0.203770	0.360860	0.058600
Gd21	Gd2	0.130730	0.348270	0.184430
Gd31	Gd3	0.360860	0.203770	0.558600
Gd41	Gd4	0.348270	0.130730	0.684440
H11	H1	0.243600	0.435800	0.743500
H21	H2	0.442300	0.097100	0.191300
H31	H3	0.589700	0.108700	0.084200
H41	H4	0.004900	0.099100	0.174000
H51	H5	0.204500	0.663500	0.179800
H61	H6	0.328700	0.614500	0.069800
H71	H7	0.129100	0.043300	0.064100
H81	H8	0.061100	0.901500	0.067800
H91	H9	0.760100	0.604500	0.163800
H101	H10	0.860500	0.634900	0.052000
H111	H11	0.132700	0.613700	0.937500
H121	H12	0.579000	0.756600	0.151500
H131	H13	0.390900	0.757700	0.069300
H141	H14	0.548900	0.329300	0.787600
H151	H15	0.479200	0.506400	0.813700
H161	H16	0.488400	0.612200	0.905600
H171	H17	0.454000	0.523000	0.964500
H181	H18	0.618200	0.951200	0.209500
H191	H19	0.435800	0.243600	0.243500
H201	H20	0.097100	0.442300	0.691300
H211	H21	0.108700	0.589700	0.584200
H221	H22	0.099100	0.004900	0.674000
H231	H23	0.663500	0.204500	0.679800
H241	H24	0.614500	0.328700	0.569800
H251	H25	0.043300	0.129100	0.564100
H261	H26	0.901500	0.061100	0.567800
H271	H27	0.604500	0.760100	0.663800
H281	H28	0.634900	0.860500	0.552000
H291	H29	0.613700	0.132700	0.437500
H301	H30	0.756600	0.579000	0.651500
H311	H31	0.757700	0.390900	0.569300
H321	H32	0.329300	0.548900	0.287600
H331	H33	0.506400	0.479200	0.313700
H341	H34	0.612200	0.488400	0.405600
H351	H35	0.523000	0.454000	0.464500
H361	H36	0.951200	0.618200	0.709500
C11	C1	0.217700	0.531300	0.124940
C21	C2	0.258000	0.625200	0.124740
C31	C3	0.114600	0.179800	0.119350
C41	C4	0.072600	0.088000	0.119090
C51	C5	0.439800	0.245400	0.747680
C61	C6	0.402800	0.361400	0.763110
C71	C7	0.702900	0.947500	0.156400
C81	C8	0.618700	0.777700	0.094190
C91	C9	0.292000	0.449800	0.757650
C101	C10	0.831000	0.602800	0.108620
C111	C11	0.506500	0.070700	0.173260
C121	C12	0.497600	0.118800	0.135230
C131	C13	0.595400	0.076400	0.109800
C141	C14	0.995400	0.921200	0.123350
C151	C15	0.331100	0.793300	0.123610
C161	C16	0.016600	0.059000	0.152240
C171	C17	0.949200	0.507800	0.114830
C181	C18	0.331700	0.658500	0.888010
C191	C19	0.321500	0.573100	0.791950
C201	C20	0.385300	0.213300	0.122010
C211	C21	0.241000	0.683400	0.157200
C221	C22	0.315100	0.653700	0.091950
C231	C23	0.090500	0.027300	0.086940
C241	C24	0.050600	0.942800	0.089100
C251	C25	0.262300	0.496100	0.994390
C261	C26	0.288100	0.555700	0.957520
C271	C27	0.745300	0.639700	0.138760
C281	C28	0.803100	0.658500	0.072440
C291	C29	0.206400	0.611200	0.931030
C301	C30	0.637400	0.729600	0.131540
C311	C31	0.352100	0.738500	0.091430
C321	C32	0.473300	0.385300	0.783890
C331	C33	0.433000	0.490600	0.799050
C341	C34	0.416900	0.610100	0.912340
C351	C35	0.395800	0.557600	0.947410
C361	C36	0.610300	0.984300	0.184050
C371	C37	0.531300	0.217700	0.624940
C381	C38	0.625200	0.258000	0.624740
C391	C39	0.179800	0.114600	0.619350
C401	C40	0.088000	0.072600	0.619090
C411	C41	0.245400	0.439800	0.247680
C421	C42	0.361400	0.402800	0.263110
C431	C43	0.947500	0.702900	0.656400
C441	C44	0.777700	0.618700	0.594190
C451	C45	0.449800	0.292000	0.257650
C461	C46	0.602800	0.831000	0.608620
C471	C47	0.070700	0.506500	0.673260
C481	C48	0.118800	0.497600	0.635230
C491	C49	0.076400	0.595400	0.609800
C501	C50	0.921200	0.995400	0.623350
C511	C51	0.793300	0.331100	0.623610
C521	C52	0.059000	0.016600	0.652240
C531	C53	0.507800	0.949200	0.614830
C541	C54	0.658500	0.331700	0.388010
C551	C55	0.573100	0.321500	0.291950
C561	C56	0.213300	0.385300	0.622010
C571	C57	0.683400	0.241000	0.657200
C581	C58	0.653700	0.315100	0.591950
C591	C59	0.027300	0.090500	0.586940
C601	C60	0.942800	0.050600	0.589100
C611	C61	0.496100	0.262300	0.494390
C621	C62	0.555700	0.288100	0.457520
C631	C63	0.639700	0.745300	0.638760
C641	C64	0.658500	0.803100	0.572440
C651	C65	0.611200	0.206400	0.431030
C661	C66	0.729600	0.637400	0.631540
C671	C67	0.738500	0.352100	0.591430
C681	C68	0.385300	0.473300	0.283890
C691	C69	0.490600	0.433000	0.299050
C701	C70	0.610100	0.416900	0.412340
C711	C71	0.557600	0.395800	0.447410
C721	C72	0.984300	0.610300	0.684050
S11	S1	0.835230	0.834650	0.172770
S21	S2	0.372650	0.907970	0.126790
S31	S3	0.251600	0.716680	0.807480
S41	S4	0.363390	0.723810	0.841710
S51	S5	0.486300	0.894760	0.079670
S61	S6	0.949620	0.807320	0.125470
S71	S7	0.834650	0.835230	0.672770
S81	S8	0.907970	0.372650	0.626790
S91	S9	0.716680	0.251600	0.307480
S101	S10	0.723810	0.363390	0.341710
S111	S11	0.894760	0.486300	0.579670
S121	S12	0.807320	0.949620	0.625470
N11	N1	0.251260	0.554060	0.771660
N21	N2	0.225500	0.662900	0.895850
N31	N3	0.977700	0.975900	0.155160
N41	N4	0.698800	0.744400	0.064630
N51	N5	0.276200	0.769800	0.157060
N61	N6	0.698300	0.991900	0.119530
N71	N7	0.554060	0.251260	0.271660
N81	N8	0.662900	0.225500	0.395850
N91	N9	0.975900	0.977700	0.655160
N101	N10	0.744400	0.698800	0.564630
N111	N11	0.769800	0.276200	0.657060
N121	N12	0.991900	0.698300	0.619530
O11	O1	0.103290	0.218490	0.151390
O21	O2	0.363140	0.229540	0.733760
O31	O3	0.227300	0.490700	0.093540
O41	O4	0.157460	0.210860	0.088330
O51	O5	0.175920	0.502720	0.156820
O61	O6	0.344200	0.426600	0.014060
O71	O7	0.379840	0.239240	0.085870
O81	O8	0.304160	0.260560	0.146840
O91	O9	0.017810	0.471210	0.086060
O101	O10	0.970280	0.469880	0.149290
O111	O11	0.158860	0.512660	0.004860
O121	O12	0.543560	0.170160	0.750370
O131	O13	0.218490	0.103290	0.651390
O141	O14	0.229540	0.363140	0.233760
O151	O15	0.490700	0.227300	0.593540
O161	O16	0.210860	0.157460	0.588330
O171	O17	0.502720	0.175920	0.656820
O181	O18	0.426600	0.344200	0.514060
O191	O19	0.239240	0.379840	0.585870
O201	O20	0.260560	0.304160	0.646840
O211	O21	0.471210	0.017810	0.586060
O221	O22	0.469880	0.970280	0.649290
O231	O23	0.512660	0.158860	0.504860
O241	O24	0.170160	0.543560	0.250370
Gd51	Gd5	0.639140	0.796230	0.441400
Gd61	Gd6	0.651730	0.869270	0.315570
Gd71	Gd7	0.796230	0.639140	0.941400
Gd81	Gd8	0.869270	0.651730	0.815570
H371	H37	0.564200	0.756400	0.756500
H381	H38	0.902900	0.557700	0.308700
H391	H39	0.891300	0.410300	0.415800
H401	H40	0.900900	0.995100	0.326000
H411	H41	0.336500	0.795500	0.320200
H421	H42	0.385500	0.671300	0.430200
H431	H43	0.956700	0.870900	0.435900
H441	H44	0.098500	0.938900	0.432200
H451	H45	0.395500	0.239900	0.336200
H461	H46	0.365100	0.139500	0.448000
H471	H47	0.386300	0.867300	0.562500
H481	H48	0.243400	0.421000	0.348500
H491	H49	0.242300	0.609100	0.430700
H501	H50	0.670700	0.451100	0.712400
H511	H51	0.493600	0.520800	0.686300
H521	H52	0.387800	0.511600	0.594400
H531	H53	0.477000	0.546000	0.535500
H541	H54	0.048800	0.381800	0.290500
H551	H55	0.756400	0.564200	0.256500
H561	H56	0.557700	0.902900	0.808700
H571	H57	0.410300	0.891300	0.915800
H581	H58	0.995100	0.900900	0.826000
H591	H59	0.795500	0.336500	0.820200
H601	H60	0.671300	0.385500	0.930200
H611	H61	0.870900	0.956700	0.935900
H621	H62	0.938900	0.098500	0.932200
H631	H63	0.239900	0.395500	0.836200
H641	H64	0.139500	0.365100	0.948000
H651	H65	0.867300	0.386300	0.062500
H661	H66	0.421000	0.243400	0.848500
H671	H67	0.609100	0.242300	0.930700
H681	H68	0.451100	0.670700	0.212400
H691	H69	0.520800	0.493600	0.186300
H701	H70	0.511600	0.387800	0.094400
H711	H71	0.546000	0.477000	0.035500
H721	H72	0.381800	0.048800	0.790500
C731	C73	0.468700	0.782300	0.375060
C741	C74	0.374800	0.742000	0.375260
C751	C75	0.820200	0.885400	0.380650
C761	C76	0.912000	0.927400	0.380910
C771	C77	0.754600	0.560200	0.752320
C781	C78	0.638600	0.597200	0.736890
C791	C79	0.052500	0.297100	0.343600
C801	C80	0.222300	0.381300	0.405810
C811	C81	0.550200	0.708000	0.742350
C821	C82	0.397200	0.169000	0.391380
C831	C83	0.929300	0.493500	0.326740
C841	C84	0.881200	0.502400	0.364770
C851	C85	0.923600	0.404600	0.390200
C861	C86	0.078800	0.004600	0.376650
C871	C87	0.206700	0.668900	0.376390
C881	C88	0.941000	0.983400	0.347760
C891	C89	0.492200	0.050800	0.385170
C901	C90	0.341500	0.668300	0.611990
C911	C91	0.426900	0.678500	0.708050
C921	C92	0.786700	0.614700	0.377990
C931	C93	0.316600	0.759000	0.342800
C941	C94	0.346300	0.684900	0.408050
C951	C95	0.972700	0.909500	0.413060
C961	C96	0.057200	0.949400	0.410900
C971	C97	0.503900	0.737700	0.505610
C981	C98	0.444300	0.711900	0.542480
C991	C99	0.360300	0.254700	0.361240
C1001	C100	0.341500	0.196900	0.427560
C1011	C101	0.388800	0.793600	0.568970
C1021	C102	0.270400	0.362600	0.368460
C1031	C103	0.261500	0.647900	0.408570
C1041	C104	0.614700	0.526700	0.716110
C1051	C105	0.509400	0.567000	0.700950
C1061	C106	0.389900	0.583100	0.587660
C1071	C107	0.442400	0.604200	0.552590
C1081	C108	0.015700	0.389700	0.315950
C1091	C109	0.782300	0.468700	0.875060
C1101	C110	0.742000	0.374800	0.875260
C1111	C111	0.885400	0.820200	0.880650
C1121	C112	0.927400	0.912000	0.880910
C1131	C113	0.560200	0.754600	0.252320
C1141	C114	0.597200	0.638600	0.236890
C1151	C115	0.297100	0.052500	0.843600
C1161	C116	0.381300	0.222300	0.905810
C1171	C117	0.708000	0.550200	0.242350
C1181	C118	0.169000	0.397200	0.891380
C1191	C119	0.493500	0.929300	0.826740
C1201	C120	0.502400	0.881200	0.864770
C1211	C121	0.404600	0.923600	0.890200
C1221	C122	0.004600	0.078800	0.876650
C1231	C123	0.668900	0.206700	0.876390
C1241	C124	0.983400	0.941000	0.847760
C1251	C125	0.050800	0.492200	0.885170
C1261	C126	0.668300	0.341500	0.111990
C1271	C127	0.678500	0.426900	0.208050
C1281	C128	0.614700	0.786700	0.877990
C1291	C129	0.759000	0.316600	0.842800
C1301	C130	0.684900	0.346300	0.908050
C1311	C131	0.909500	0.972700	0.913060
C1321	C132	0.949400	0.057200	0.910900
C1331	C133	0.737700	0.503900	0.005610
C1341	C134	0.711900	0.444300	0.042480
C1351	C135	0.254700	0.360300	0.861240
C1361	C136	0.196900	0.341500	0.927560
C1371	C137	0.793600	0.388800	0.068970
C1381	C138	0.362600	0.270400	0.868460
C1391	C139	0.647900	0.261500	0.908570
C1401	C140	0.526700	0.614700	0.216110
C1411	C141	0.567000	0.509400	0.200950
C1421	C142	0.583100	0.389900	0.087660
C1431	C143	0.604200	0.442400	0.052590
C1441	C144	0.389700	0.015700	0.815950
S131	S13	0.165350	0.164770	0.327230
S141	S14	0.092030	0.627350	0.373210
S151	S15	0.283320	0.748400	0.692520
S161	S16	0.276190	0.636610	0.658290
S171	S17	0.105240	0.513700	0.420330
S181	S18	0.192680	0.050380	0.374530
S191	S19	0.164770	0.165350	0.827230
S201	S20	0.627350	0.092030	0.873210
S211	S21	0.748400	0.283320	0.192520
S221	S22	0.636610	0.276190	0.158290
S231	S23	0.513700	0.105240	0.920330
S241	S24	0.050380	0.192680	0.874530
N131	N13	0.445940	0.748740	0.728340
N141	N14	0.337100	0.774500	0.604150
N151	N15	0.024100	0.022300	0.344840
N161	N16	0.255600	0.301200	0.435370
N171	N17	0.230200	0.723800	0.342940
N181	N18	0.008100	0.301700	0.380470
N191	N19	0.748740	0.445940	0.228340
N201	N20	0.774500	0.337100	0.104150
N211	N21	0.022300	0.024100	0.844840
N221	N22	0.301200	0.255600	0.935370
N231	N23	0.723800	0.230200	0.842940
N241	N24	0.301700	0.008100	0.880470
O251	O25	0.781510	0.896710	0.348610
O261	O26	0.770460	0.636860	0.766240
O271	O27	0.509300	0.772700	0.406460
O281	O28	0.789140	0.842540	0.411670
O291	O29	0.497280	0.824080	0.343180
O301	O30	0.573400	0.655800	0.485940
O311	O31	0.760760	0.620160	0.414130
O321	O32	0.739440	0.695840	0.353160
O331	O33	0.528790	0.982190	0.413940
O341	O34	0.530120	0.029720	0.350710
O351	O35	0.487340	0.841140	0.495140
O361	O36	0.829840	0.456440	0.749630
O371	O37	0.896710	0.781510	0.848610
O381	O38	0.636860	0.770460	0.266240
O391	O39	0.772700	0.509300	0.906460
O401	O40	0.842540	0.789140	0.911670
O411	O41	0.824080	0.497280	0.843180
O421	O42	0.655800	0.573400	0.985940
O431	O43	0.620160	0.760760	0.914130
O441	O44	0.695840	0.739440	0.853160
O451	O45	0.982190	0.528790	0.913940
O461	O46	0.029720	0.530120	0.850710
O471	O47	0.841140	0.487340	0.995140
O481	O48	0.456440	0.829840	0.249630
