data_GAJZIC_clean_PM
_symmetry_space_group_name_H-M	'P1'
_cell_length_a	5.546200
_cell_length_b	13.343000
_cell_length_c	21.164000
_cell_angle_alpha	90.000000
_cell_angle_beta	96.516000
_cell_angle_gamma	90.000000
_symmetry_Int_Tables_number 1

loop_
_symmetry_equiv_pos_as_xyz
'x,y,z'

loop_
_atom_site_label
_atom_site_type_symbol
_atom_site_fract_x
_atom_site_fract_y
_atom_site_fract_z
Sm11	Sm1	0.626670	0.132560	0.972250
Sm21	Sm2	0.373330	0.632560	0.527750
Sm31	Sm3	0.373330	0.867440	0.027750
Sm41	Sm4	0.626670	0.367440	0.472250
P11	P1	0.915900	0.023300	0.087110
P21	P2	0.084100	0.523300	0.412890
P31	P3	0.084100	0.976700	0.912890
P41	P4	0.915900	0.476700	0.587110
H11	H1	0.771800	0.972100	0.180300
H21	H2	0.677700	0.080000	0.162600
H31	H3	0.764600	0.093000	0.280200
H41	H4	0.906500	0.991300	0.285500
H51	H5	0.028000	0.093200	0.369800
H61	H6	0.244700	0.068100	0.331100
H71	H7	0.988800	0.251200	0.325700
H81	H8	0.210000	0.307800	0.247900
H91	H9	0.371600	0.211100	0.252400
H101	H10	0.090300	0.194000	0.162600
H111	H11	0.874200	0.218900	0.201700
H121	H12	0.228200	0.472100	0.319700
H131	H13	0.322300	0.580000	0.337400
H141	H14	0.235400	0.593000	0.219800
H151	H15	0.093500	0.491300	0.214500
H161	H16	0.972000	0.593200	0.130200
H171	H17	0.755300	0.568100	0.168900
H181	H18	0.011200	0.751200	0.174300
H191	H19	0.790000	0.807800	0.252100
H201	H20	0.628400	0.711100	0.247600
H211	H21	0.909700	0.694000	0.337400
H221	H22	0.125800	0.718900	0.298300
H231	H23	0.228200	0.027900	0.819700
H241	H24	0.322300	0.920000	0.837400
H251	H25	0.235400	0.907000	0.719800
H261	H26	0.093500	0.008700	0.714500
H271	H27	0.972000	0.906800	0.630200
H281	H28	0.755300	0.931900	0.668900
H291	H29	0.011200	0.748800	0.674300
H301	H30	0.790000	0.692200	0.752100
H311	H31	0.628400	0.788900	0.747600
H321	H32	0.909700	0.806000	0.837400
H331	H33	0.125800	0.781100	0.798300
H341	H34	0.771800	0.527900	0.680300
H351	H35	0.677700	0.420000	0.662600
H361	H36	0.764600	0.407000	0.780200
H371	H37	0.906500	0.508700	0.785500
H381	H38	0.028000	0.406800	0.869800
H391	H39	0.244700	0.431900	0.831100
H401	H40	0.988800	0.248800	0.825700
H411	H41	0.210000	0.192200	0.747900
H421	H42	0.371600	0.288900	0.752400
H431	H43	0.090300	0.306000	0.662600
H441	H44	0.874200	0.281100	0.701700
C11	C1	0.820000	0.037400	0.166100
C21	C2	0.923000	0.062700	0.278500
C31	C3	0.092000	0.104300	0.329600
C41	C4	0.143000	0.216800	0.322800
C51	C5	0.209000	0.236100	0.255500
C61	C6	0.030000	0.185500	0.203600
C71	C7	0.323000	0.261800	0.373800
C81	C8	0.180000	0.537400	0.333900
C91	C9	0.077000	0.562700	0.221500
C101	C10	0.908000	0.604300	0.170400
C111	C11	0.857000	0.716800	0.177200
C121	C12	0.791000	0.736100	0.244500
C131	C13	0.970000	0.685500	0.296400
C141	C14	0.677000	0.761800	0.126200
C151	C15	0.180000	0.962600	0.833900
C161	C16	0.077000	0.937300	0.721500
C171	C17	0.908000	0.895700	0.670400
C181	C18	0.857000	0.783200	0.677200
C191	C19	0.791000	0.763900	0.744500
C201	C20	0.970000	0.814500	0.796400
C211	C21	0.677000	0.738200	0.626200
C221	C22	0.820000	0.462600	0.666100
C231	C23	0.923000	0.437300	0.778500
C241	C24	0.092000	0.395700	0.829600
C251	C25	0.143000	0.283200	0.822800
C261	C26	0.209000	0.263900	0.755500
C271	C27	0.030000	0.314500	0.703600
C281	C28	0.323000	0.238200	0.873800
N11	N1	0.996000	0.078600	0.214800
N21	N2	0.004000	0.578600	0.285200
N31	N3	0.004000	0.921400	0.785200
N41	N4	0.996000	0.421400	0.714800
O11	O1	0.686500	0.982900	0.044900
O21	O2	0.962600	0.123900	0.058100
O31	O3	0.128200	0.953900	0.089800
O41	O4	0.296000	0.243500	0.431000
O51	O5	0.498000	0.314500	0.360300
O61	O6	0.313500	0.482900	0.455100
O71	O7	0.037400	0.623900	0.441900
O81	O8	0.871800	0.453900	0.410200
O91	O9	0.704000	0.743500	0.069000
O101	O10	0.502000	0.814500	0.139700
O111	O11	0.313500	0.017100	0.955100
O121	O12	0.037400	0.876100	0.941900
O131	O13	0.871800	0.046100	0.910200
O141	O14	0.704000	0.756500	0.569000
O151	O15	0.502000	0.685500	0.639700
O161	O16	0.686500	0.517100	0.544900
O171	O17	0.962600	0.376100	0.558100
O181	O18	0.128200	0.546100	0.589800
O191	O19	0.296000	0.256500	0.931000
O201	O20	0.498000	0.185500	0.860300
