data_GAJZOI_clean_PM
_symmetry_space_group_name_H-M	'P1'
_cell_length_a	5.534000
_cell_length_b	13.436000
_cell_length_c	20.891000
_cell_angle_alpha	90.000000
_cell_angle_beta	96.159000
_cell_angle_gamma	90.000000
_symmetry_Int_Tables_number 1

loop_
_symmetry_equiv_pos_as_xyz
'x,y,z'

loop_
_atom_site_label
_atom_site_type_symbol
_atom_site_fract_x
_atom_site_fract_y
_atom_site_fract_z
Gd11	Gd1	0.626240	0.131650	0.972310
Gd21	Gd2	0.373760	0.631650	0.527690
Gd31	Gd3	0.373760	0.868350	0.027690
Gd41	Gd4	0.626240	0.368350	0.472310
P11	P1	0.913600	0.022300	0.086450
P21	P2	0.086400	0.522300	0.413550
P31	P3	0.086400	0.977700	0.913550
P41	P4	0.913600	0.477700	0.586450
H11	H1	0.770700	0.973800	0.181500
H21	H2	0.679100	0.081100	0.163300
H31	H3	0.766300	0.096600	0.281800
H41	H4	0.905900	0.994900	0.288200
H51	H5	0.036300	0.098100	0.373100
H61	H6	0.251500	0.073200	0.332700
H71	H7	0.986800	0.253500	0.324800
H81	H8	0.226900	0.304000	0.247400
H91	H9	0.368400	0.202700	0.252800
H101	H10	0.079000	0.198600	0.161800
H111	H11	0.869500	0.220700	0.205000
H121	H12	0.229300	0.473800	0.318500
H131	H13	0.320900	0.581100	0.336700
H141	H14	0.233700	0.596600	0.218200
H151	H15	0.094100	0.494900	0.211800
H161	H16	0.963700	0.598100	0.126900
H171	H17	0.748500	0.573200	0.167300
H181	H18	0.013200	0.753500	0.175200
H191	H19	0.773100	0.804000	0.252600
H201	H20	0.631600	0.702700	0.247200
H211	H21	0.921000	0.698600	0.338200
H221	H22	0.130500	0.720700	0.295000
H231	H23	0.229300	0.026200	0.818500
H241	H24	0.320900	0.918900	0.836700
H251	H25	0.233700	0.903400	0.718200
H261	H26	0.094100	0.005100	0.711800
H271	H27	0.963700	0.901900	0.626900
H281	H28	0.748500	0.926800	0.667300
H291	H29	0.013200	0.746500	0.675200
H301	H30	0.773100	0.696000	0.752600
H311	H31	0.631600	0.797300	0.747200
H321	H32	0.921000	0.801400	0.838200
H331	H33	0.130500	0.779300	0.795000
H341	H34	0.770700	0.526200	0.681500
H351	H35	0.679100	0.418900	0.663300
H361	H36	0.766300	0.403400	0.781800
H371	H37	0.905900	0.505100	0.788200
H381	H38	0.036300	0.401900	0.873100
H391	H39	0.251500	0.426800	0.832700
H401	H40	0.986800	0.246500	0.824800
H411	H41	0.226900	0.196000	0.747400
H421	H42	0.368400	0.297300	0.752800
H431	H43	0.079000	0.301400	0.661800
H441	H44	0.869500	0.279300	0.705000
C11	C1	0.821000	0.038200	0.166700
C21	C2	0.924000	0.065600	0.280400
C31	C3	0.098000	0.108300	0.331800
C41	C4	0.142000	0.219500	0.322700
C51	C5	0.211000	0.233400	0.255700
C61	C6	0.026000	0.188300	0.204100
C71	C7	0.322000	0.264000	0.374700
C81	C8	0.179000	0.538200	0.333300
C91	C9	0.076000	0.565600	0.219600
C101	C10	0.902000	0.608300	0.168200
C111	C11	0.858000	0.719500	0.177300
C121	C12	0.789000	0.733400	0.244300
C131	C13	0.974000	0.688300	0.295900
C141	C14	0.678000	0.764000	0.125300
C151	C15	0.179000	0.961800	0.833300
C161	C16	0.076000	0.934400	0.719600
C171	C17	0.902000	0.891700	0.668200
C181	C18	0.858000	0.780500	0.677300
C191	C19	0.789000	0.766600	0.744300
C201	C20	0.974000	0.811700	0.795900
C211	C21	0.678000	0.736000	0.625300
C221	C22	0.821000	0.461800	0.666700
C231	C23	0.924000	0.434400	0.780400
C241	C24	0.098000	0.391700	0.831800
C251	C25	0.142000	0.280500	0.822700
C261	C26	0.211000	0.266600	0.755700
C271	C27	0.026000	0.311700	0.704100
C281	C28	0.322000	0.236000	0.874700
N11	N1	0.002100	0.079900	0.216500
N21	N2	0.997900	0.579900	0.283500
N31	N3	0.997900	0.920100	0.783500
N41	N4	0.002100	0.420100	0.716500
O11	O1	0.682100	0.981300	0.045600
O21	O2	0.959200	0.122400	0.057300
O31	O3	0.127300	0.953600	0.090300
O41	O4	0.297600	0.247800	0.433100
O51	O5	0.498100	0.316900	0.359700
O61	O6	0.317900	0.481300	0.454400
O71	O7	0.040800	0.622400	0.442700
O81	O8	0.872700	0.453600	0.409700
O91	O9	0.702400	0.747800	0.066900
O101	O10	0.501900	0.816900	0.140300
O111	O11	0.317900	0.018700	0.954400
O121	O12	0.040800	0.877600	0.942700
O131	O13	0.872700	0.046400	0.909700
O141	O14	0.702400	0.752200	0.566900
O151	O15	0.501900	0.683100	0.640300
O161	O16	0.682100	0.518700	0.545600
O171	O17	0.959200	0.377600	0.557300
O181	O18	0.127300	0.546400	0.590300
O191	O19	0.297600	0.252200	0.933100
O201	O20	0.498100	0.183100	0.859700
