data_GALCAZ_clean_PM
_symmetry_space_group_name_H-M	'P1'
_cell_length_a	6.180200
_cell_length_b	23.312700
_cell_length_c	29.421800
_cell_angle_alpha	90.000000
_cell_angle_beta	90.000000
_cell_angle_gamma	95.663000
_symmetry_Int_Tables_number 1

loop_
_symmetry_equiv_pos_as_xyz
'x,y,z'

loop_
_atom_site_label
_atom_site_type_symbol
_atom_site_fract_x
_atom_site_fract_y
_atom_site_fract_z
Zn11	Zn1	0.524530	0.730770	0.923750
Zn21	Zn2	0.479720	0.752740	0.539100
Zn31	Zn3	0.475470	0.769230	0.423750
Zn41	Zn4	0.520280	0.747260	0.039100
Zn51	Zn5	0.475470	0.269230	0.076250
Zn61	Zn6	0.520280	0.247260	0.460900
Zn71	Zn7	0.524530	0.230770	0.576250
Zn81	Zn8	0.479720	0.252740	0.960900
H11	H1	0.470400	0.710100	0.753300
H21	H2	0.808000	0.782700	0.760000
H31	H3	0.996500	0.770200	0.827400
H41	H4	0.122200	0.714100	0.635300
H51	H5	0.918400	0.715000	0.569400
H61	H6	0.499400	0.807100	0.629200
H71	H7	0.680400	0.805900	0.697400
H81	H8	0.776700	0.371800	0.977100
H91	H9	0.214900	0.511200	0.901600
H101	H10	0.346000	0.422800	0.917100
H111	H11	0.559900	0.528600	0.964900
H121	H12	0.426900	0.616500	0.960300
H131	H13	0.928800	0.678400	0.888100
H141	H14	0.083100	0.592200	0.892800
H151	H15	0.983800	0.102200	0.939200
H161	H16	0.372100	0.945300	0.947500
H171	H17	0.547500	0.036600	0.958000
H181	H18	0.703900	0.938100	0.895100
H191	H19	0.518100	0.848000	0.890700
H201	H20	0.971200	0.779600	0.959300
H211	H21	0.169800	0.867500	0.966000
H221	H22	0.277000	0.716000	0.978000
H231	H23	0.529600	0.789900	0.253300
H241	H24	0.192000	0.717300	0.260000
H251	H25	0.003500	0.729800	0.327400
H261	H26	0.877800	0.785900	0.135300
H271	H27	0.081600	0.785000	0.069400
H281	H28	0.500600	0.692900	0.129200
H291	H29	0.319600	0.694100	0.197400
H301	H30	0.223300	0.128200	0.477100
H311	H31	0.785100	0.988800	0.401600
H321	H32	0.654000	0.077200	0.417100
H331	H33	0.440100	0.971400	0.464900
H341	H34	0.573100	0.883500	0.460300
H351	H35	0.071200	0.821600	0.388100
H361	H36	0.916900	0.907800	0.392800
H371	H37	0.016200	0.397800	0.439200
H381	H38	0.627900	0.554700	0.447500
H391	H39	0.452500	0.463400	0.458000
H401	H40	0.296100	0.561900	0.395100
H411	H41	0.481900	0.652000	0.390700
H421	H42	0.028800	0.720400	0.459300
H431	H43	0.830200	0.632500	0.466000
H441	H44	0.723000	0.784000	0.478000
H451	H45	0.529600	0.289900	0.246700
H461	H46	0.192000	0.217300	0.240000
H471	H47	0.003500	0.229800	0.172600
H481	H48	0.877800	0.285900	0.364700
H491	H49	0.081600	0.285000	0.430600
H501	H50	0.500600	0.192900	0.370800
H511	H51	0.319600	0.194100	0.302600
H521	H52	0.223300	0.628200	0.022900
H531	H53	0.785100	0.488800	0.098400
H541	H54	0.654000	0.577200	0.082900
H551	H55	0.440100	0.471400	0.035100
H561	H56	0.573100	0.383500	0.039700
H571	H57	0.071200	0.321600	0.111900
H581	H58	0.916900	0.407800	0.107200
H591	H59	0.016200	0.897800	0.060800
H601	H60	0.627900	0.054700	0.052500
H611	H61	0.452500	0.963400	0.042000
H621	H62	0.296100	0.061900	0.104900
H631	H63	0.481900	0.152000	0.109300
H641	H64	0.028800	0.220400	0.040700
H651	H65	0.830200	0.132500	0.034000
H661	H66	0.723000	0.284000	0.022000
H671	H67	0.470400	0.210100	0.746700
H681	H68	0.808000	0.282700	0.740000
H691	H69	0.996500	0.270200	0.672600
H701	H70	0.122200	0.214100	0.864700
H711	H71	0.918400	0.215000	0.930600
H721	H72	0.499400	0.307100	0.870800
H731	H73	0.680400	0.305900	0.802600
H741	H74	0.776700	0.871800	0.522900
H751	H75	0.214900	0.011200	0.598400
H761	H76	0.346000	0.922800	0.582900
H771	H77	0.559900	0.028600	0.535100
H781	H78	0.426900	0.116500	0.539700
H791	H79	0.928800	0.178400	0.611900
H801	H80	0.083100	0.092200	0.607200
H811	H81	0.983800	0.602200	0.560800
H821	H82	0.372100	0.445300	0.552500
H831	H83	0.547500	0.536600	0.542000
H841	H84	0.703900	0.438100	0.604900
H851	H85	0.518100	0.348000	0.609300
H861	H86	0.971200	0.279600	0.540700
H871	H87	0.169800	0.367500	0.534000
H881	H88	0.277000	0.216000	0.522000
C11	C1	0.393600	0.734600	0.838900
C21	C2	0.257400	0.740000	0.797600
C31	C3	0.332900	0.725000	0.754900
C41	C4	0.034100	0.752100	0.719300
C51	C5	0.945100	0.767500	0.759500
C61	C6	0.057300	0.760700	0.799100
C71	C7	0.920100	0.757200	0.675200
C81	C8	0.990800	0.732000	0.635200
C91	C9	0.869900	0.733300	0.595850
C101	C10	0.624500	0.786600	0.631000
C111	C11	0.732100	0.786500	0.671800
C121	C12	0.156300	0.331900	0.963500
C131	C13	0.076900	0.388700	0.950710
C141	C14	0.870500	0.401300	0.963000
C151	C15	0.926900	0.493000	0.934700
C161	C16	0.129500	0.482600	0.918500
C171	C17	0.205500	0.430300	0.927200
C181	C18	0.839000	0.550000	0.929900
C191	C19	0.641200	0.559200	0.949200
C201	C20	0.561400	0.611400	0.946000
C211	C21	0.853700	0.647400	0.904400
C221	C22	0.946700	0.595900	0.906800
C231	C23	0.399200	0.138600	0.957800
C241	C24	0.282000	0.079500	0.950700
C251	C25	0.065700	0.069900	0.941000
C261	C26	0.077200	0.971500	0.938000
C271	C27	0.292300	0.978000	0.946100
C281	C28	0.395400	0.032000	0.952400
C291	C29	0.959000	0.913300	0.932400
C301	C30	0.761700	0.906100	0.909000
C311	C31	0.653200	0.852200	0.906300
C321	C32	0.916000	0.812400	0.946200
C331	C33	0.034500	0.864700	0.950400
C341	C34	0.606400	0.765400	0.338900
C351	C35	0.742600	0.760000	0.297600
C361	C36	0.667100	0.775000	0.254900
C371	C37	0.965900	0.747900	0.219300
C381	C38	0.054900	0.732500	0.259500
C391	C39	0.942700	0.739300	0.299100
C401	C40	0.079900	0.742800	0.175200
C411	C41	0.009200	0.768000	0.135200
C421	C42	0.130100	0.766700	0.095850
C431	C43	0.375500	0.713400	0.131000
C441	C44	0.267900	0.713500	0.171800
C451	C45	0.843700	0.168100	0.463500
C461	C46	0.923100	0.111300	0.450710
C471	C47	0.129500	0.098700	0.463000
C481	C48	0.073100	0.007000	0.434700
C491	C49	0.870500	0.017400	0.418500
C501	C50	0.794500	0.069700	0.427200
C511	C51	0.161000	0.950000	0.429900
C521	C52	0.358800	0.940800	0.449200
C531	C53	0.438600	0.888600	0.446000
C541	C54	0.146300	0.852600	0.404400
C551	C55	0.053300	0.904100	0.406800
C561	C56	0.600800	0.361400	0.457800
C571	C57	0.718000	0.420500	0.450700
C581	C58	0.934300	0.430100	0.441000
C591	C59	0.922800	0.528500	0.438000
C601	C60	0.707700	0.522000	0.446100
C611	C61	0.604600	0.468000	0.452400
C621	C62	0.041000	0.586700	0.432400
C631	C63	0.238300	0.593900	0.409000
C641	C64	0.346800	0.647800	0.406300
C651	C65	0.084000	0.687600	0.446200
C661	C66	0.965500	0.635300	0.450400
C671	C67	0.606400	0.265400	0.161100
C681	C68	0.742600	0.260000	0.202400
C691	C69	0.667100	0.275000	0.245100
C701	C70	0.965900	0.247900	0.280700
C711	C71	0.054900	0.232500	0.240500
C721	C72	0.942700	0.239300	0.200900
C731	C73	0.079900	0.242800	0.324800
C741	C74	0.009200	0.268000	0.364800
C751	C75	0.130100	0.266700	0.404150
C761	C76	0.375500	0.213400	0.369000
C771	C77	0.267900	0.213500	0.328200
C781	C78	0.843700	0.668100	0.036500
C791	C79	0.923100	0.611300	0.049290
C801	C80	0.129500	0.598700	0.037000
C811	C81	0.073100	0.507000	0.065300
C821	C82	0.870500	0.517400	0.081500
C831	C83	0.794500	0.569700	0.072800
C841	C84	0.161000	0.450000	0.070100
C851	C85	0.358800	0.440800	0.050800
C861	C86	0.438600	0.388600	0.054000
C871	C87	0.146300	0.352600	0.095600
C881	C88	0.053300	0.404100	0.093200
C891	C89	0.600800	0.861400	0.042200
C901	C90	0.718000	0.920500	0.049300
C911	C91	0.934300	0.930100	0.059000
C921	C92	0.922800	0.028500	0.062000
C931	C93	0.707700	0.022000	0.053900
C941	C94	0.604600	0.968000	0.047600
C951	C95	0.041000	0.086700	0.067600
C961	C96	0.238300	0.093900	0.091000
C971	C97	0.346800	0.147800	0.093700
C981	C98	0.084000	0.187600	0.053800
C991	C99	0.965500	0.135300	0.049600
C1001	C100	0.393600	0.234600	0.661100
C1011	C101	0.257400	0.240000	0.702400
C1021	C102	0.332900	0.225000	0.745100
C1031	C103	0.034100	0.252100	0.780700
C1041	C104	0.945100	0.267500	0.740500
C1051	C105	0.057300	0.260700	0.700900
C1061	C106	0.920100	0.257200	0.824800
C1071	C107	0.990800	0.232000	0.864800
C1081	C108	0.869900	0.233300	0.904150
C1091	C109	0.624500	0.286600	0.869000
C1101	C110	0.732100	0.286500	0.828200
C1111	C111	0.156300	0.831900	0.536500
C1121	C112	0.076900	0.888700	0.549290
C1131	C113	0.870500	0.901300	0.537000
C1141	C114	0.926900	0.993000	0.565300
C1151	C115	0.129500	0.982600	0.581500
C1161	C116	0.205500	0.930300	0.572800
C1171	C117	0.839000	0.050000	0.570100
C1181	C118	0.641200	0.059200	0.550800
C1191	C119	0.561400	0.111400	0.554000
C1201	C120	0.853700	0.147400	0.595600
C1211	C121	0.946700	0.095900	0.593200
C1221	C122	0.399200	0.638600	0.542200
C1231	C123	0.282000	0.579500	0.549300
C1241	C124	0.065700	0.569900	0.559000
C1251	C125	0.077200	0.471500	0.562000
C1261	C126	0.292300	0.478000	0.553900
C1271	C127	0.395400	0.532000	0.547600
C1281	C128	0.959000	0.413300	0.567600
C1291	C129	0.761700	0.406100	0.591000
C1301	C130	0.653200	0.352200	0.593700
C1311	C131	0.916000	0.312400	0.553800
C1321	C132	0.034500	0.364700	0.549600
N11	N1	0.225400	0.730100	0.716900
N21	N2	0.685300	0.759600	0.593680
N31	N3	0.795500	0.452300	0.956060
N41	N4	0.664700	0.655800	0.923580
N51	N5	0.962500	0.017600	0.933900
N61	N6	0.725500	0.805200	0.924240
N71	N7	0.774600	0.769900	0.216900
N81	N8	0.314700	0.740400	0.093680
N91	N9	0.204500	0.047700	0.456060
N101	N10	0.335300	0.844200	0.423580
N111	N11	0.037500	0.482400	0.433900
N121	N12	0.274500	0.694800	0.424240
N131	N13	0.774600	0.269900	0.283100
N141	N14	0.314700	0.240400	0.406320
N151	N15	0.204500	0.547700	0.043940
N161	N16	0.335300	0.344200	0.076420
N171	N17	0.037500	0.982400	0.066100
N181	N18	0.274500	0.194800	0.075760
N191	N19	0.225400	0.230100	0.783100
N201	N20	0.685300	0.259600	0.906320
N211	N21	0.795500	0.952300	0.543940
N221	N22	0.664700	0.155800	0.576420
N231	N23	0.962500	0.517600	0.566100
N241	N24	0.725500	0.305200	0.575760
O11	O1	0.300600	0.739600	0.877200
O21	O2	0.587700	0.726000	0.834960
O31	O3	0.055000	0.301110	0.992120
O41	O4	0.328400	0.320130	0.943330
O51	O5	0.286400	0.181450	0.951880
O61	O6	0.592800	0.143100	0.968150
O71	O7	0.382900	0.728500	0.982000
O81	O8	0.699400	0.760400	0.377200
O91	O9	0.412300	0.774000	0.334960
O101	O10	0.945000	0.198890	0.492120
O111	O11	0.671600	0.179870	0.443330
O121	O12	0.713600	0.318550	0.451880
O131	O13	0.407200	0.356900	0.468150
O141	O14	0.617100	0.771500	0.482000
O151	O15	0.699400	0.260400	0.122800
O161	O16	0.412300	0.274000	0.165040
O171	O17	0.945000	0.698890	0.007880
O181	O18	0.671600	0.679870	0.056670
O191	O19	0.713600	0.818550	0.048120
O201	O20	0.407200	0.856900	0.031850
O211	O21	0.617100	0.271500	0.018000
O221	O22	0.300600	0.239600	0.622800
O231	O23	0.587700	0.226000	0.665040
O241	O24	0.055000	0.801110	0.507880
O251	O25	0.328400	0.820130	0.556670
O261	O26	0.286400	0.681450	0.548120
O271	O27	0.592800	0.643100	0.531850
O281	O28	0.382900	0.228500	0.518000
