data_GALJAG_clean_PM
_symmetry_space_group_name_H-M	'P1'
_cell_length_a	12.251000
_cell_length_b	18.631000
_cell_length_c	20.976000
_cell_angle_alpha	90.000000
_cell_angle_beta	90.000000
_cell_angle_gamma	90.000000
_symmetry_Int_Tables_number 1

loop_
_symmetry_equiv_pos_as_xyz
'x,y,z'

loop_
_atom_site_label
_atom_site_type_symbol
_atom_site_fract_x
_atom_site_fract_y
_atom_site_fract_z
O11	O1	0.887200	0.047050	0.432600
O21	O2	0.722500	0.081400	0.455900
O31	O3	0.106000	0.457800	0.814400
O41	O4	0.266500	0.420000	0.788800
C11	C1	0.823900	0.084500	0.465600
C21	C2	0.871100	0.132300	0.515100
C31	C3	0.977500	0.125500	0.540300
H11	H1	0.019700	0.087100	0.526500
C41	C4	0.022800	0.171600	0.583900
H21	H2	0.092500	0.163700	0.600000
C51	C5	0.965700	0.226500	0.602000
C61	C6	0.859300	0.233600	0.576400
H31	H3	0.818300	0.273100	0.589000
C71	C7	0.812100	0.186500	0.534400
H41	H4	0.740900	0.192900	0.520200
C81	C8	0.016100	0.276700	0.647600
C91	C9	0.129800	0.285700	0.647600
H51	H5	0.172600	0.261100	0.618200
C101	C10	0.177500	0.331000	0.691100
H61	H6	0.253200	0.335100	0.692600
C111	C11	0.114600	0.370300	0.732600
C121	C12	0.003400	0.363000	0.732500
H71	H7	0.961400	0.389500	0.760900
C131	C13	0.953000	0.316400	0.690200
H81	H8	0.877400	0.311600	0.690200
C141	C14	0.165200	0.419300	0.780800
O51	O5	0.612800	0.952950	0.432600
O61	O6	0.777500	0.918600	0.455900
O71	O7	0.394000	0.542200	0.814400
O81	O8	0.233500	0.580000	0.788800
C151	C15	0.676100	0.915500	0.465600
C161	C16	0.628900	0.867700	0.515100
C171	C17	0.522500	0.874500	0.540300
H91	H9	0.480300	0.912900	0.526500
C181	C18	0.477200	0.828400	0.583900
H101	H10	0.407500	0.836300	0.600000
C191	C19	0.534300	0.773500	0.602000
C201	C20	0.640700	0.766400	0.576400
H111	H11	0.681700	0.726900	0.589000
C211	C21	0.687900	0.813500	0.534400
H121	H12	0.759100	0.807100	0.520200
C221	C22	0.483900	0.723300	0.647600
C231	C23	0.370200	0.714300	0.647600
H131	H13	0.327400	0.738900	0.618200
C241	C24	0.322500	0.669000	0.691100
H141	H14	0.246800	0.664900	0.692600
C251	C25	0.385400	0.629700	0.732600
C261	C26	0.496600	0.637000	0.732500
H151	H15	0.538600	0.610500	0.760900
C271	C27	0.547000	0.683600	0.690200
H161	H16	0.622600	0.688400	0.690200
C281	C28	0.334800	0.580700	0.780800
O91	O9	0.387200	0.452950	0.932600
O101	O10	0.222500	0.418600	0.955900
O111	O11	0.606000	0.042200	0.314400
O121	O12	0.766500	0.080000	0.288800
C291	C29	0.323900	0.415500	0.965600
C301	C30	0.371100	0.367700	0.015100
C311	C31	0.477500	0.374500	0.040300
H171	H17	0.519700	0.412900	0.026500
C321	C32	0.522800	0.328400	0.083900
H181	H18	0.592500	0.336300	0.100000
C331	C33	0.465700	0.273500	0.102000
C341	C34	0.359300	0.266400	0.076400
H191	H19	0.318300	0.226900	0.089000
C351	C35	0.312100	0.313500	0.034400
H201	H20	0.240900	0.307100	0.020200
C361	C36	0.516100	0.223300	0.147600
C371	C37	0.629800	0.214300	0.147600
H211	H21	0.672600	0.238900	0.118200
C381	C38	0.677500	0.169000	0.191100
H221	H22	0.753200	0.164900	0.192600
C391	C39	0.614600	0.129700	0.232600
C401	C40	0.503400	0.137000	0.232500
H231	H23	0.461400	0.110500	0.260900
C411	C41	0.453000	0.183600	0.190200
H241	H24	0.377400	0.188400	0.190200
C421	C42	0.665200	0.080700	0.280800
O131	O13	0.112800	0.547050	0.932600
O141	O14	0.277500	0.581400	0.955900
O151	O15	0.894000	0.957800	0.314400
O161	O16	0.733500	0.920000	0.288800
C431	C43	0.176100	0.584500	0.965600
C441	C44	0.128900	0.632300	0.015100
C451	C45	0.022500	0.625500	0.040300
H251	H25	0.980300	0.587100	0.026500
C461	C46	0.977200	0.671600	0.083900
H261	H26	0.907500	0.663700	0.100000
C471	C47	0.034300	0.726500	0.102000
C481	C48	0.140700	0.733600	0.076400
H271	H27	0.181700	0.773100	0.089000
C491	C49	0.187900	0.686500	0.034400
H281	H28	0.259100	0.692900	0.020200
C501	C50	0.983900	0.776700	0.147600
C511	C51	0.870200	0.785700	0.147600
H291	H29	0.827400	0.761100	0.118200
C521	C52	0.822500	0.831000	0.191100
H301	H30	0.746800	0.835100	0.192600
C531	C53	0.885400	0.870300	0.232600
C541	C54	0.996600	0.863000	0.232500
H311	H31	0.038600	0.889500	0.260900
C551	C55	0.047000	0.816400	0.190200
H321	H32	0.122600	0.811600	0.190200
C561	C56	0.834800	0.919300	0.280800
In11	In1	0.750000	0.000000	0.373400
In21	In2	0.250000	0.500000	0.873400
O171	O17	0.612800	0.547050	0.067400
O181	O18	0.777500	0.581400	0.044100
O191	O19	0.394000	0.957800	0.685600
O201	O20	0.233500	0.920000	0.711200
C571	C57	0.676100	0.584500	0.034400
C581	C58	0.628900	0.632300	0.984900
C591	C59	0.522500	0.625500	0.959700
H331	H33	0.480300	0.587100	0.973500
C601	C60	0.477200	0.671600	0.916100
H341	H34	0.407500	0.663700	0.900000
C611	C61	0.534300	0.726500	0.898000
C621	C62	0.640700	0.733600	0.923600
H351	H35	0.681700	0.773100	0.911000
C631	C63	0.687900	0.686500	0.965600
H361	H36	0.759100	0.692900	0.979800
C641	C64	0.483900	0.776700	0.852400
C651	C65	0.370200	0.785700	0.852400
H371	H37	0.327400	0.761100	0.881800
C661	C66	0.322500	0.831000	0.808900
H381	H38	0.246800	0.835100	0.807400
C671	C67	0.385400	0.870300	0.767400
C681	C68	0.496600	0.863000	0.767500
H391	H39	0.538600	0.889500	0.739100
C691	C69	0.547000	0.816400	0.809800
H401	H40	0.622600	0.811600	0.809800
C701	C70	0.334800	0.919300	0.719200
O211	O21	0.887200	0.452950	0.067400
O221	O22	0.722500	0.418600	0.044100
O231	O23	0.106000	0.042200	0.685600
O241	O24	0.266500	0.080000	0.711200
C711	C71	0.823900	0.415500	0.034400
C721	C72	0.871100	0.367700	0.984900
C731	C73	0.977500	0.374500	0.959700
H411	H41	0.019700	0.412900	0.973500
C741	C74	0.022800	0.328400	0.916100
H421	H42	0.092500	0.336300	0.900000
C751	C75	0.965700	0.273500	0.898000
C761	C76	0.859300	0.266400	0.923600
H431	H43	0.818300	0.226900	0.911000
C771	C77	0.812100	0.313500	0.965600
H441	H44	0.740900	0.307100	0.979800
C781	C78	0.016100	0.223300	0.852400
C791	C79	0.129800	0.214300	0.852400
H451	H45	0.172600	0.238900	0.881800
C801	C80	0.177500	0.169000	0.808900
H461	H46	0.253200	0.164900	0.807400
C811	C81	0.114600	0.129700	0.767400
C821	C82	0.003400	0.137000	0.767500
H471	H47	0.961400	0.110500	0.739100
C831	C83	0.953000	0.183600	0.809800
H481	H48	0.877400	0.188400	0.809800
C841	C84	0.165200	0.080700	0.719200
O251	O25	0.112800	0.952950	0.567400
O261	O26	0.277500	0.918600	0.544100
O271	O27	0.894000	0.542200	0.185600
O281	O28	0.733500	0.580000	0.211200
C851	C85	0.176100	0.915500	0.534400
C861	C86	0.128900	0.867700	0.484900
C871	C87	0.022500	0.874500	0.459700
H491	H49	0.980300	0.912900	0.473500
C881	C88	0.977200	0.828400	0.416100
H501	H50	0.907500	0.836300	0.400000
C891	C89	0.034300	0.773500	0.398000
C901	C90	0.140700	0.766400	0.423600
H511	H51	0.181700	0.726900	0.411000
C911	C91	0.187900	0.813500	0.465600
H521	H52	0.259100	0.807100	0.479800
C921	C92	0.983900	0.723300	0.352400
C931	C93	0.870200	0.714300	0.352400
H531	H53	0.827400	0.738900	0.381800
C941	C94	0.822500	0.669000	0.308900
H541	H54	0.746800	0.664900	0.307400
C951	C95	0.885400	0.629700	0.267400
C961	C96	0.996600	0.637000	0.267500
H551	H55	0.038600	0.610500	0.239100
C971	C97	0.047000	0.683600	0.309800
H561	H56	0.122600	0.688400	0.309800
C981	C98	0.834800	0.580700	0.219200
O291	O29	0.387200	0.047050	0.567400
O301	O30	0.222500	0.081400	0.544100
O311	O31	0.606000	0.457800	0.185600
O321	O32	0.766500	0.420000	0.211200
C991	C99	0.323900	0.084500	0.534400
C1001	C100	0.371100	0.132300	0.484900
C1011	C101	0.477500	0.125500	0.459700
H571	H57	0.519700	0.087100	0.473500
C1021	C102	0.522800	0.171600	0.416100
H581	H58	0.592500	0.163700	0.400000
C1031	C103	0.465700	0.226500	0.398000
C1041	C104	0.359300	0.233600	0.423600
H591	H59	0.318300	0.273100	0.411000
C1051	C105	0.312100	0.186500	0.465600
H601	H60	0.240900	0.192900	0.479800
C1061	C106	0.516100	0.276700	0.352400
C1071	C107	0.629800	0.285700	0.352400
H611	H61	0.672600	0.261100	0.381800
C1081	C108	0.677500	0.331000	0.308900
H621	H62	0.753200	0.335100	0.307400
C1091	C109	0.614600	0.370300	0.267400
C1101	C110	0.503400	0.363000	0.267500
H631	H63	0.461400	0.389500	0.239100
C1111	C111	0.453000	0.316400	0.309800
H641	H64	0.377400	0.311600	0.309800
C1121	C112	0.665200	0.419300	0.219200
In31	In3	0.750000	0.500000	0.126600
In41	In4	0.250000	0.000000	0.626600
