data_GAMTUK_clean_PM
_symmetry_space_group_name_H-M	'P1'
_cell_length_a	11.812000
_cell_length_b	12.444000
_cell_length_c	12.522000
_cell_angle_alpha	118.949000
_cell_angle_beta	108.300000
_cell_angle_gamma	98.387000
_symmetry_Int_Tables_number 1

loop_
_symmetry_equiv_pos_as_xyz
'x,y,z'

loop_
_atom_site_label
_atom_site_type_symbol
_atom_site_fract_x
_atom_site_fract_y
_atom_site_fract_z
Ce11	Ce1	0.521690	0.822240	0.990150
Ce21	Ce2	0.802700	0.756670	0.236040
Ce31	Ce3	0.478310	0.177760	0.009850
Ce41	Ce4	0.197300	0.243330	0.763960
H11	H1	0.407200	0.555200	0.205000
H21	H2	0.151300	0.510200	0.344300
H31	H3	0.342100	0.873000	0.447600
H41	H4	0.508200	0.908400	0.395100
H51	H5	0.581400	0.808300	0.383200
H61	H6	0.310000	0.345000	0.222900
H71	H7	0.161100	0.321900	0.177100
H81	H8	0.153000	0.718100	0.538500
H91	H9	0.220800	0.858400	0.569700
H101	H10	0.434600	0.303500	0.482400
H111	H11	0.123400	0.991800	0.162500
H121	H12	0.087900	0.327400	0.419300
H131	H13	0.273600	0.521800	0.591800
H141	H14	0.412000	0.518100	0.606000
H151	H15	0.445200	0.079800	0.345400
H161	H16	0.323100	0.967500	0.205600
H171	H17	0.925400	0.032500	0.083500
H181	H18	0.912100	0.166400	0.182700
H191	H19	0.592800	0.444800	0.795000
H201	H20	0.848700	0.489800	0.655700
H211	H21	0.657900	0.127000	0.552400
H221	H22	0.491800	0.091600	0.604900
H231	H23	0.418600	0.191700	0.616800
H241	H24	0.690000	0.655000	0.777100
H251	H25	0.838900	0.678100	0.822900
H261	H26	0.847000	0.281900	0.461500
H271	H27	0.779200	0.141600	0.430300
H281	H28	0.565400	0.696500	0.517600
H291	H29	0.876600	0.008200	0.837500
H301	H30	0.912100	0.672600	0.580700
H311	H31	0.726400	0.478200	0.408200
H321	H32	0.588000	0.481900	0.394000
H331	H33	0.554800	0.920200	0.654600
H341	H34	0.676900	0.032500	0.794400
H351	H35	0.074600	0.967500	0.916500
H361	H36	0.087900	0.833600	0.817300
C11	C1	0.391800	0.727600	0.328800
C21	C2	0.362900	0.593000	0.256600
C31	C3	0.270600	0.512600	0.258400
C41	C4	0.210100	0.565000	0.338100
C51	C5	0.237300	0.703900	0.411500
C61	C6	0.326300	0.781300	0.402300
C71	C7	0.501600	0.816400	0.336500
C81	C8	0.496500	0.794000	0.205800
C91	C9	0.239000	0.364800	0.177700
C101	C10	0.217800	0.308900	0.033500
C111	C11	0.168300	0.764900	0.496200
C121	C12	0.042300	0.754100	0.403100
C131	C13	0.269800	0.334500	0.468700
C141	C14	0.344600	0.264300	0.428900
C151	C15	0.291600	0.136000	0.311100
C161	C16	0.161100	0.080900	0.238500
C171	C17	0.082200	0.149900	0.271700
C181	C18	0.139900	0.278800	0.391700
C191	C19	0.331100	0.472500	0.598600
C201	C20	0.358800	0.476000	0.726600
C211	C21	0.373800	0.062900	0.264900
C221	C22	0.428400	0.100000	0.187700
C231	C23	0.938600	0.092900	0.178100
C241	C24	0.848100	0.018700	0.204500
C251	C25	0.608200	0.272400	0.671200
C261	C26	0.637100	0.407000	0.743400
C271	C27	0.729400	0.487400	0.741600
C281	C28	0.789900	0.435000	0.661900
C291	C29	0.762700	0.296100	0.588500
C301	C30	0.673700	0.218700	0.597700
C311	C31	0.498400	0.183600	0.663500
C321	C32	0.503500	0.206000	0.794200
C331	C33	0.761000	0.635200	0.822300
C341	C34	0.782200	0.691100	0.966500
C351	C35	0.831700	0.235100	0.503800
C361	C36	0.957700	0.245900	0.596900
C371	C37	0.730200	0.665500	0.531300
C381	C38	0.655400	0.735700	0.571100
C391	C39	0.708400	0.864000	0.688900
C401	C40	0.838900	0.919100	0.761500
C411	C41	0.917800	0.850100	0.728300
C421	C42	0.860100	0.721200	0.608300
C431	C43	0.668900	0.527500	0.401400
C441	C44	0.641200	0.524000	0.273400
C451	C45	0.626200	0.937100	0.735100
C461	C46	0.571600	0.900000	0.812300
C471	C47	0.061400	0.907100	0.821900
C481	C48	0.151900	0.981300	0.795500
O11	O1	0.397000	0.767600	0.112300
O21	O2	0.603100	0.813700	0.198900
O31	O3	0.115100	0.293500	0.946200
O41	O4	0.304400	0.276900	0.998900
O51	O5	0.041900	0.835600	0.369100
O61	O6	0.937800	0.664800	0.356700
O71	O7	0.409200	0.585000	0.841600
O81	O8	0.331400	0.368700	0.719200
O91	O9	0.426400	0.203000	0.192700
O101	O10	0.472100	0.022800	0.113600
O111	O11	0.733100	0.002200	0.143500
O121	O12	0.889800	0.975200	0.274200
O131	O13	0.603000	0.232400	0.887700
O141	O14	0.396900	0.186300	0.801100
O151	O15	0.884900	0.706500	0.053800
O161	O16	0.695600	0.723100	0.001100
O171	O17	0.958100	0.164400	0.630900
O181	O18	0.062200	0.335200	0.643300
O191	O19	0.590800	0.415000	0.158400
O201	O20	0.668600	0.631300	0.280800
O211	O21	0.573600	0.797000	0.807300
O221	O22	0.527900	0.977200	0.886400
O231	O23	0.266900	0.997800	0.856500
O241	O24	0.110200	0.024800	0.725800
