data_GAMVAS_clean_PM
_symmetry_space_group_name_H-M	'P1'
_cell_length_a	11.781000
_cell_length_b	12.416000
_cell_length_c	12.503000
_cell_angle_alpha	118.870000
_cell_angle_beta	108.300000
_cell_angle_gamma	98.420000
_symmetry_Int_Tables_number 1

loop_
_symmetry_equiv_pos_as_xyz
'x,y,z'

loop_
_atom_site_label
_atom_site_type_symbol
_atom_site_fract_x
_atom_site_fract_y
_atom_site_fract_z
Pr11	Pr1	0.977820	0.677790	0.509600
Pr21	Pr2	0.697840	0.743420	0.264850
Pr31	Pr3	0.022180	0.322210	0.490400
Pr41	Pr4	0.302160	0.256580	0.735150
H11	H1	0.096800	0.945800	0.301000
H21	H2	0.350400	0.985800	0.156000
H31	H3	0.157400	0.626100	0.049500
H41	H4	0.993700	0.590100	0.105500
H51	H5	0.918800	0.688700	0.114100
H61	H6	0.343600	0.179900	0.326300
H71	H7	0.194700	0.158700	0.279900
H81	H8	0.281400	0.643500	0.930600
H91	H9	0.351300	0.785500	0.965900
H101	H10	0.938100	0.804900	0.978400
H111	H11	0.587600	0.828100	0.918500
H121	H12	0.622200	0.492700	0.657800
H131	H13	0.951400	0.584300	0.848000
H141	H14	0.829100	0.468300	0.710200
H151	H15	0.774300	0.023400	0.095700
H161	H16	0.913300	0.020500	0.109700
H171	H17	0.411700	0.668400	0.684800
H181	H18	0.426900	0.535900	0.585900
H191	H19	0.903200	0.054200	0.699000
H201	H20	0.649600	0.014200	0.844000
H211	H21	0.842600	0.373900	0.950500
H221	H22	0.006300	0.409900	0.894500
H231	H23	0.081200	0.311300	0.885900
H241	H24	0.656400	0.820100	0.673700
H251	H25	0.805300	0.841300	0.720100
H261	H26	0.718600	0.356500	0.069400
H271	H27	0.648700	0.214500	0.034100
H281	H28	0.061900	0.195100	0.021600
H291	H29	0.412400	0.171900	0.081500
H301	H30	0.377800	0.507300	0.342200
H311	H31	0.048600	0.415700	0.152000
H321	H32	0.170900	0.531700	0.289800
H331	H33	0.225700	0.976600	0.904300
H341	H34	0.086700	0.979500	0.890300
H351	H35	0.588300	0.331600	0.315200
H361	H36	0.573100	0.464100	0.414100
C11	C1	0.108100	0.770600	0.172000
C21	C2	0.139200	0.907700	0.246900
C31	C3	0.231000	0.988700	0.243500
C41	C4	0.290700	0.931800	0.162600
C51	C5	0.264300	0.796300	0.090700
C61	C6	0.174400	0.718200	0.097300
C71	C7	0.998900	0.681900	0.162700
C81	C8	0.002300	0.705800	0.294800
C91	C9	0.264700	0.137800	0.325200
C101	C10	0.284700	0.193200	0.468300
C111	C11	0.334400	0.736500	0.005800
C121	C12	0.459200	0.744900	0.098400
C131	C13	0.792100	0.637900	0.813200
C141	C14	0.847500	0.765600	0.928200
C151	C15	0.771500	0.837700	0.971600
C161	C16	0.639900	0.779300	0.891300
C171	C17	0.581600	0.653400	0.773700
C181	C18	0.659900	0.580800	0.736000
C191	C19	0.878100	0.564100	0.766800
C201	C20	0.928200	0.598000	0.686700
C211	C21	0.832100	0.973900	0.101600
C221	C22	0.859900	0.975100	0.229800
C231	C23	0.439000	0.595300	0.680200
C241	C24	0.348500	0.519700	0.703600
C251	C25	0.891900	0.229400	0.828000
C261	C26	0.860800	0.092300	0.753100
C271	C27	0.769000	0.011300	0.756500
C281	C28	0.709300	0.068200	0.837400
C291	C29	0.735700	0.203700	0.909300
C301	C30	0.825600	0.281800	0.902700
C311	C31	0.001100	0.318100	0.837300
C321	C32	0.997700	0.294200	0.705200
C331	C33	0.735300	0.862200	0.674800
C341	C34	0.715300	0.806800	0.531700
C351	C35	0.665600	0.263500	0.994200
C361	C36	0.540800	0.255100	0.901600
C371	C37	0.207900	0.362100	0.186800
C381	C38	0.152500	0.234400	0.071800
C391	C39	0.228500	0.162300	0.028400
C401	C40	0.360100	0.220700	0.108700
C411	C41	0.418400	0.346600	0.226300
C421	C42	0.340100	0.419200	0.264000
C431	C43	0.121900	0.435900	0.233200
C441	C44	0.071800	0.402000	0.313300
C451	C45	0.167900	0.026100	0.898400
C461	C46	0.140100	0.024900	0.770200
C471	C47	0.561000	0.404700	0.319800
C481	C48	0.651500	0.480300	0.296400
O11	O1	0.104900	0.733200	0.390700
O21	O2	0.897800	0.689100	0.304800
O31	O3	0.196200	0.223400	0.502900
O41	O4	0.386300	0.205200	0.554100
O51	O5	0.458800	0.662600	0.130600
O61	O6	0.561600	0.834800	0.144200
O71	O7	0.972100	0.520900	0.611400
O81	O8	0.924400	0.700600	0.691200
O91	O9	0.831700	0.868200	0.219600
O101	O10	0.910600	0.086500	0.344500
O111	O11	0.231000	0.501800	0.643900
O121	O12	0.389200	0.474100	0.773000
O131	O13	0.895100	0.266800	0.609300
O141	O14	0.102200	0.310900	0.695200
O151	O15	0.803800	0.776600	0.497100
O161	O16	0.613700	0.794800	0.445900
O171	O17	0.541200	0.337400	0.869400
O181	O18	0.438400	0.165200	0.855800
O191	O19	0.027900	0.479100	0.388600
O201	O20	0.075600	0.299400	0.308800
O211	O21	0.168300	0.131800	0.780400
O221	O22	0.089400	0.913500	0.655500
O231	O23	0.769000	0.498200	0.356100
O241	O24	0.610800	0.525900	0.227000
