data_GAMXAV_clean_PM
_symmetry_space_group_name_H-M	'P1'
_cell_length_a	18.615000
_cell_length_b	18.615000
_cell_length_c	22.429100
_cell_angle_alpha	114.518000
_cell_angle_beta	114.518000
_cell_angle_gamma	90.000000
_symmetry_Int_Tables_number 1

loop_
_symmetry_equiv_pos_as_xyz
'x,y,z'

loop_
_atom_site_label
_atom_site_type_symbol
_atom_site_fract_x
_atom_site_fract_y
_atom_site_fract_z
Cu11	Cu1	0.506230	0.939750	0.445200
Cu21	Cu2	0.938970	0.505450	0.445200
Cu31	Cu3	0.939750	0.938970	0.445200
Cu41	Cu4	0.505450	0.506230	0.445200
Cu51	Cu5	0.493770	0.060250	0.554800
Cu61	Cu6	0.061030	0.494550	0.554800
Cu71	Cu7	0.060250	0.061030	0.554800
Cu81	Cu8	0.494550	0.493770	0.554800
Cu91	Cu9	0.712400	0.001300	0.000000
Cu101	Cu10	0.287600	0.998700	0.000000
Cu111	Cu11	0.001300	0.287600	0.000000
Cu121	Cu12	0.998700	0.712400	0.000000
H11	H1	0.493100	0.761600	0.515400
H21	H2	0.566500	0.744400	0.711800
H31	H3	0.572300	0.967000	0.715800
H41	H4	0.456100	0.820200	0.757600
H51	H5	0.719700	0.933700	0.758200
H61	H6	0.420400	0.839700	0.859800
H71	H7	0.859300	0.021100	0.852800
H81	H8	0.022300	0.753800	0.515400
H91	H9	0.145300	0.967400	0.711800
H101	H10	0.143500	0.748800	0.715800
H111	H11	0.301500	0.937400	0.757600
H121	H12	0.038500	0.824500	0.758200
H131	H13	0.439400	0.020100	0.859800
H141	H14	0.993500	0.831700	0.852800
H151	H15	0.761600	0.022300	0.515400
H161	H16	0.744400	0.145300	0.711800
H171	H17	0.967000	0.143500	0.715800
H181	H18	0.820200	0.301500	0.757600
H191	H19	0.933700	0.038500	0.758200
H201	H20	0.839700	0.439400	0.859800
H211	H21	0.021100	0.993500	0.852800
H221	H22	0.753800	0.493100	0.515400
H231	H23	0.967400	0.566500	0.711800
H241	H24	0.748800	0.572300	0.715800
H251	H25	0.937400	0.456100	0.757600
H261	H26	0.824500	0.719700	0.758200
H271	H27	0.020100	0.420400	0.859800
H281	H28	0.831700	0.859300	0.852800
H291	H29	0.506900	0.238400	0.484600
H301	H30	0.433500	0.255600	0.288200
H311	H31	0.427700	0.033000	0.284200
H321	H32	0.543900	0.179800	0.242400
H331	H33	0.280300	0.066300	0.241800
H341	H34	0.579600	0.160300	0.140200
H351	H35	0.140700	0.978900	0.147200
H361	H36	0.977700	0.246200	0.484600
H371	H37	0.854700	0.032600	0.288200
H381	H38	0.856500	0.251200	0.284200
H391	H39	0.698500	0.062600	0.242400
H401	H40	0.961500	0.175500	0.241800
H411	H41	0.560600	0.979900	0.140200
H421	H42	0.006500	0.168300	0.147200
H431	H43	0.238400	0.977700	0.484600
H441	H44	0.255600	0.854700	0.288200
H451	H45	0.033000	0.856500	0.284200
H461	H46	0.179800	0.698500	0.242400
H471	H47	0.066300	0.961500	0.241800
H481	H48	0.160300	0.560600	0.140200
H491	H49	0.978900	0.006500	0.147200
H501	H50	0.246200	0.506900	0.484600
H511	H51	0.032600	0.433500	0.288200
H521	H52	0.251200	0.427700	0.284200
H531	H53	0.062600	0.543900	0.242400
H541	H54	0.175500	0.280300	0.241800
H551	H55	0.979900	0.579600	0.140200
H561	H56	0.168300	0.140700	0.147200
H571	H57	0.498700	0.907800	0.000000
H581	H58	0.943600	0.080200	0.000000
H591	H59	0.501300	0.092200	0.000000
H601	H60	0.056400	0.919800	0.000000
H611	H61	0.907800	0.501300	0.000000
H621	H62	0.080200	0.056400	0.000000
H631	H63	0.092200	0.498700	0.000000
H641	H64	0.919800	0.943600	0.000000
C11	C1	0.517200	0.922000	0.574400
C21	C2	0.512700	0.654600	0.575800
C31	C3	0.531200	0.868600	0.610400
C41	C4	0.513400	0.786600	0.567400
C51	C5	0.528400	0.743700	0.608600
C61	C6	0.558500	0.776900	0.687200
C71	C7	0.574700	0.861900	0.724000
C81	C8	0.561700	0.909700	0.689200
C91	C9	0.613200	0.902700	0.806800
C101	C10	0.691900	0.946600	0.844600
C111	C11	0.568900	0.894600	0.843000
C121	C12	0.489800	0.850700	0.809000
C131	C13	0.739100	0.956800	0.810000
C141	C14	0.821100	0.024700	0.932400
C151	C15	0.542000	0.909100	0.931600
C161	C16	0.470200	0.860500	0.864600
C171	C17	0.818200	0.005300	0.862200
C181	C18	0.057200	0.652400	0.574400
C191	C19	0.063100	0.921200	0.575800
C201	C20	0.079200	0.741800	0.610400
C211	C21	0.054000	0.780800	0.567400
C221	C22	0.080200	0.864900	0.608600
C231	C23	0.128700	0.910300	0.687200
C241	C24	0.149300	0.862100	0.724000
C251	C25	0.127500	0.779500	0.689200
C261	C26	0.193600	0.904100	0.806800
C271	C27	0.152700	0.898000	0.844600
C281	C28	0.274100	0.948400	0.843000
C291	C29	0.319200	0.958300	0.809000
C301	C30	0.070900	0.853200	0.810000
C311	C31	0.111300	0.907700	0.932400
C321	C32	0.389600	0.022500	0.931600
C331	C33	0.394400	0.004100	0.864600
C341	C34	0.044000	0.856900	0.862200
C351	C35	0.922000	0.057200	0.574400
C361	C36	0.654600	0.063100	0.575800
C371	C37	0.868600	0.079200	0.610400
C381	C38	0.786600	0.054000	0.567400
C391	C39	0.743700	0.080200	0.608600
C401	C40	0.776900	0.128700	0.687200
C411	C41	0.861900	0.149300	0.724000
C421	C42	0.909700	0.127500	0.689200
C431	C43	0.902700	0.193600	0.806800
C441	C44	0.946600	0.152700	0.844600
C451	C45	0.894600	0.274100	0.843000
C461	C46	0.850700	0.319200	0.809000
C471	C47	0.956800	0.070900	0.810000
C481	C48	0.024700	0.111300	0.932400
C491	C49	0.909100	0.389600	0.931600
C501	C50	0.860500	0.394400	0.864600
C511	C51	0.005300	0.044000	0.862200
C521	C52	0.652400	0.517200	0.574400
C531	C53	0.921200	0.512700	0.575800
C541	C54	0.741800	0.531200	0.610400
C551	C55	0.780800	0.513400	0.567400
C561	C56	0.864900	0.528400	0.608600
C571	C57	0.910300	0.558500	0.687200
C581	C58	0.862100	0.574700	0.724000
C591	C59	0.779500	0.561700	0.689200
C601	C60	0.904100	0.613200	0.806800
C611	C61	0.898000	0.691900	0.844600
C621	C62	0.948400	0.568900	0.843000
C631	C63	0.958300	0.489800	0.809000
C641	C64	0.853200	0.739100	0.810000
C651	C65	0.907700	0.821100	0.932400
C661	C66	0.022500	0.542000	0.931600
C671	C67	0.004100	0.470200	0.864600
C681	C68	0.856900	0.818200	0.862200
C691	C69	0.482800	0.078000	0.425600
C701	C70	0.487300	0.345400	0.424200
C711	C71	0.468800	0.131400	0.389600
C721	C72	0.486600	0.213400	0.432600
C731	C73	0.471600	0.256300	0.391400
C741	C74	0.441500	0.223100	0.312800
C751	C75	0.425300	0.138100	0.276000
C761	C76	0.438300	0.090300	0.310800
C771	C77	0.386800	0.097300	0.193200
C781	C78	0.308100	0.053400	0.155400
C791	C79	0.431100	0.105400	0.157000
C801	C80	0.510200	0.149300	0.191000
C811	C81	0.260900	0.043200	0.190000
C821	C82	0.178900	0.975300	0.067600
C831	C83	0.458000	0.090900	0.068400
C841	C84	0.529800	0.139500	0.135400
C851	C85	0.181800	0.994700	0.137800
C861	C86	0.942800	0.347600	0.425600
C871	C87	0.936900	0.078800	0.424200
C881	C88	0.920800	0.258200	0.389600
C891	C89	0.946000	0.219200	0.432600
C901	C90	0.919800	0.135100	0.391400
C911	C91	0.871300	0.089700	0.312800
C921	C92	0.850700	0.137900	0.276000
C931	C93	0.872500	0.220500	0.310800
C941	C94	0.806400	0.095900	0.193200
C951	C95	0.847300	0.102000	0.155400
C961	C96	0.725900	0.051600	0.157000
C971	C97	0.680800	0.041700	0.191000
C981	C98	0.929100	0.146800	0.190000
C991	C99	0.888700	0.092300	0.067600
C1001	C100	0.610400	0.977500	0.068400
C1011	C101	0.605600	0.995900	0.135400
C1021	C102	0.956000	0.143100	0.137800
C1031	C103	0.078000	0.942800	0.425600
C1041	C104	0.345400	0.936900	0.424200
C1051	C105	0.131400	0.920800	0.389600
C1061	C106	0.213400	0.946000	0.432600
C1071	C107	0.256300	0.919800	0.391400
C1081	C108	0.223100	0.871300	0.312800
C1091	C109	0.138100	0.850700	0.276000
C1101	C110	0.090300	0.872500	0.310800
C1111	C111	0.097300	0.806400	0.193200
C1121	C112	0.053400	0.847300	0.155400
C1131	C113	0.105400	0.725900	0.157000
C1141	C114	0.149300	0.680800	0.191000
C1151	C115	0.043200	0.929100	0.190000
C1161	C116	0.975300	0.888700	0.067600
C1171	C117	0.090900	0.610400	0.068400
C1181	C118	0.139500	0.605600	0.135400
C1191	C119	0.994700	0.956000	0.137800
C1201	C120	0.347600	0.482800	0.425600
C1211	C121	0.078800	0.487300	0.424200
C1221	C122	0.258200	0.468800	0.389600
C1231	C123	0.219200	0.486600	0.432600
C1241	C124	0.135100	0.471600	0.391400
C1251	C125	0.089700	0.441500	0.312800
C1261	C126	0.137900	0.425300	0.276000
C1271	C127	0.220500	0.438300	0.310800
C1281	C128	0.095900	0.386800	0.193200
C1291	C129	0.102000	0.308100	0.155400
C1301	C130	0.051600	0.431100	0.157000
C1311	C131	0.041700	0.510200	0.191000
C1321	C132	0.146800	0.260900	0.190000
C1331	C133	0.092300	0.178900	0.067600
C1341	C134	0.977500	0.458000	0.068400
C1351	C135	0.995900	0.529800	0.135400
C1361	C136	0.143100	0.181800	0.137800
C1371	C137	0.545100	0.929000	0.000000
C1381	C138	0.894000	0.068100	0.000000
C1391	C139	0.454900	0.071000	0.000000
C1401	C140	0.106000	0.931900	0.000000
C1411	C141	0.929000	0.454900	0.000000
C1421	C142	0.068100	0.106000	0.000000
C1431	C143	0.071000	0.545100	0.000000
C1441	C144	0.931900	0.894000	0.000000
N11	N1	0.600300	0.928400	0.920000
N21	N2	0.745600	0.990900	0.920600
N31	N3	0.319700	0.991600	0.920000
N41	N4	0.175000	0.929700	0.920600
N51	N5	0.928400	0.319700	0.920000
N61	N6	0.990900	0.175000	0.920600
N71	N7	0.991600	0.600300	0.920000
N81	N8	0.929700	0.745600	0.920600
N91	N9	0.399700	0.071600	0.080000
N101	N10	0.254400	0.009100	0.079400
N111	N11	0.680300	0.008400	0.080000
N121	N12	0.825000	0.070300	0.079400
N131	N13	0.071600	0.680300	0.080000
N141	N14	0.009100	0.825000	0.079400
N151	N15	0.008400	0.399700	0.080000
N161	N16	0.070300	0.254400	0.079400
O11	O1	0.511700	0.884300	0.507200
O21	O2	0.504600	0.990900	0.599600
O31	O3	0.510400	0.604800	0.598800
O41	O4	0.516800	0.619700	0.507200
O51	O5	0.995500	0.622900	0.507200
O61	O6	0.095000	0.608700	0.599600
O71	O7	0.088400	0.994000	0.598800
O81	O8	0.990400	0.887500	0.507200
O91	O9	0.884300	0.995500	0.507200
O101	O10	0.990900	0.095000	0.599600
O111	O11	0.604800	0.088400	0.598800
O121	O12	0.619700	0.990400	0.507200
O131	O13	0.622900	0.511700	0.507200
O141	O14	0.608700	0.504600	0.599600
O151	O15	0.994000	0.510400	0.598800
O161	O16	0.887500	0.516800	0.507200
O171	O17	0.488300	0.115700	0.492800
O181	O18	0.495400	0.009100	0.400400
O191	O19	0.489600	0.395200	0.401200
O201	O20	0.483200	0.380300	0.492800
O211	O21	0.004500	0.377100	0.492800
O221	O22	0.905000	0.391300	0.400400
O231	O23	0.911600	0.006000	0.401200
O241	O24	0.009600	0.112500	0.492800
O251	O25	0.115700	0.004500	0.492800
O261	O26	0.009100	0.905000	0.400400
O271	O27	0.395200	0.911600	0.401200
O281	O28	0.380300	0.009600	0.492800
O291	O29	0.377100	0.488300	0.492800
O301	O30	0.391300	0.495400	0.400400
O311	O31	0.006000	0.489600	0.401200
O321	O32	0.112500	0.483200	0.492800
