data_GAPNOD_clean_PM
_symmetry_space_group_name_H-M	'P1'
_cell_length_a	15.827400
_cell_length_b	9.622100
_cell_length_c	20.202200
_cell_angle_alpha	90.000000
_cell_angle_beta	96.855000
_cell_angle_gamma	90.000000
_symmetry_Int_Tables_number 1

loop_
_symmetry_equiv_pos_as_xyz
'x,y,z'

loop_
_atom_site_label
_atom_site_type_symbol
_atom_site_fract_x
_atom_site_fract_y
_atom_site_fract_z
U11	U1	0.284120	0.531750	0.492310
U21	U2	0.114390	0.783300	0.724360
O11	O1	0.348400	0.724100	0.561200
O21	O2	0.384100	0.515000	0.595400
O31	O3	0.247400	0.703200	0.674600
O41	O4	0.264200	0.845700	0.760000
O51	O5	0.809200	0.559800	0.593100
O61	O6	0.866000	0.440200	0.680700
O71	O7	0.983700	0.822600	0.780800
O81	O8	0.967100	0.705400	0.687200
C11	C1	0.569400	0.757900	0.728600
C21	C2	0.519100	0.699600	0.674500
H11	H1	0.546200	0.655600	0.640500
C31	C3	0.430100	0.703400	0.668200
C41	C4	0.390100	0.767200	0.718800
C51	C5	0.439400	0.825500	0.773500
H21	H2	0.412500	0.867300	0.808100
C61	C6	0.526700	0.822900	0.777700
H31	H3	0.559200	0.865900	0.814700
C71	C7	0.383900	0.645700	0.605600
C81	C8	0.294900	0.772000	0.717400
C91	C9	0.663600	0.753000	0.734100
C101	C10	0.703600	0.656900	0.696900
H41	H4	0.669700	0.593200	0.669300
C111	C11	0.792100	0.651200	0.699000
C121	C12	0.842100	0.745500	0.740400
C131	C13	0.803000	0.839700	0.778900
H51	H5	0.836900	0.901100	0.807800
C141	C14	0.716300	0.845300	0.775900
H61	H6	0.690900	0.911700	0.802100
C151	C15	0.826400	0.542300	0.656800
C161	C16	0.936500	0.756600	0.736500
U31	U3	0.715880	0.031750	0.007690
U41	U4	0.885610	0.283300	0.775640
O91	O9	0.651600	0.224100	0.938800
O101	O10	0.615900	0.015000	0.904600
O111	O11	0.752600	0.203200	0.825400
O121	O12	0.735800	0.345700	0.740000
O131	O13	0.190800	0.059800	0.906900
O141	O14	0.134000	0.940200	0.819300
O151	O15	0.016300	0.322600	0.719200
O161	O16	0.032900	0.205400	0.812800
C171	C17	0.430600	0.257900	0.771400
C181	C18	0.480900	0.199600	0.825500
H71	H7	0.453800	0.155600	0.859500
C191	C19	0.569900	0.203400	0.831800
C201	C20	0.609900	0.267200	0.781200
C211	C21	0.560600	0.325500	0.726500
H81	H8	0.587500	0.367300	0.691900
C221	C22	0.473300	0.322900	0.722300
H91	H9	0.440800	0.365900	0.685300
C231	C23	0.616100	0.145700	0.894400
C241	C24	0.705100	0.272000	0.782600
C251	C25	0.336400	0.253000	0.765900
C261	C26	0.296400	0.156900	0.803100
H101	H10	0.330300	0.093200	0.830700
C271	C27	0.207900	0.151200	0.801000
C281	C28	0.157900	0.245500	0.759600
C291	C29	0.197000	0.339700	0.721100
H111	H11	0.163100	0.401100	0.692200
C301	C30	0.283700	0.345300	0.724100
H121	H12	0.309100	0.411700	0.697900
C311	C31	0.173600	0.042300	0.843200
C321	C32	0.063500	0.256600	0.763500
U51	U5	0.715880	0.468250	0.507690
U61	U6	0.885610	0.216700	0.275640
O171	O17	0.651600	0.275900	0.438800
O181	O18	0.615900	0.485000	0.404600
O191	O19	0.752600	0.296800	0.325400
O201	O20	0.735800	0.154300	0.240000
O211	O21	0.190800	0.440200	0.406900
O221	O22	0.134000	0.559800	0.319300
O231	O23	0.016300	0.177400	0.219200
O241	O24	0.032900	0.294600	0.312800
C331	C33	0.430600	0.242100	0.271400
C341	C34	0.480900	0.300400	0.325500
H131	H13	0.453800	0.344400	0.359500
C351	C35	0.569900	0.296600	0.331800
C361	C36	0.609900	0.232800	0.281200
C371	C37	0.560600	0.174500	0.226500
H141	H14	0.587500	0.132700	0.191900
C381	C38	0.473300	0.177100	0.222300
H151	H15	0.440800	0.134100	0.185300
C391	C39	0.616100	0.354300	0.394400
C401	C40	0.705100	0.228000	0.282600
C411	C41	0.336400	0.247000	0.265900
C421	C42	0.296400	0.343100	0.303100
H161	H16	0.330300	0.406800	0.330700
C431	C43	0.207900	0.348800	0.301000
C441	C44	0.157900	0.254500	0.259600
C451	C45	0.197000	0.160300	0.221100
H171	H17	0.163100	0.098900	0.192200
C461	C46	0.283700	0.154700	0.224100
H181	H18	0.309100	0.088300	0.197900
C471	C47	0.173600	0.457700	0.343200
C481	C48	0.063500	0.243400	0.263500
U71	U7	0.284120	0.968250	0.992310
U81	U8	0.114390	0.716700	0.224360
O251	O25	0.348400	0.775900	0.061200
O261	O26	0.384100	0.985000	0.095400
O271	O27	0.247400	0.796800	0.174600
O281	O28	0.264200	0.654300	0.260000
O291	O29	0.809200	0.940200	0.093100
O301	O30	0.866000	0.059800	0.180700
O311	O31	0.983700	0.677400	0.280800
O321	O32	0.967100	0.794600	0.187200
C491	C49	0.569400	0.742100	0.228600
C501	C50	0.519100	0.800400	0.174500
H191	H19	0.546200	0.844400	0.140500
C511	C51	0.430100	0.796600	0.168200
C521	C52	0.390100	0.732800	0.218800
C531	C53	0.439400	0.674500	0.273500
H201	H20	0.412500	0.632700	0.308100
C541	C54	0.526700	0.677100	0.277700
H211	H21	0.559200	0.634100	0.314700
C551	C55	0.383900	0.854300	0.105600
C561	C56	0.294900	0.728000	0.217400
C571	C57	0.663600	0.747000	0.234100
C581	C58	0.703600	0.843100	0.196900
H221	H22	0.669700	0.906800	0.169300
C591	C59	0.792100	0.848800	0.199000
C601	C60	0.842100	0.754500	0.240400
C611	C61	0.803000	0.660300	0.278900
H231	H23	0.836900	0.598900	0.307800
C621	C62	0.716300	0.654700	0.275900
H241	H24	0.690900	0.588300	0.302100
C631	C63	0.826400	0.957700	0.156800
C641	C64	0.936500	0.743400	0.236500
