data_GAQKOB_clean_PM
_symmetry_space_group_name_H-M	'P1'
_cell_length_a	15.707200
_cell_length_b	10.713000
_cell_length_c	24.461800
_cell_angle_alpha	90.000000
_cell_angle_beta	94.280000
_cell_angle_gamma	90.000000
_symmetry_Int_Tables_number 1

loop_
_symmetry_equiv_pos_as_xyz
'x,y,z'

loop_
_atom_site_label
_atom_site_type_symbol
_atom_site_fract_x
_atom_site_fract_y
_atom_site_fract_z
Zn11	Zn1	0.141650	0.409200	0.068480
O11	O1	0.548700	0.000800	0.096600
O21	O2	0.220200	0.328400	0.121900
N11	N1	0.175700	0.465200	0.510800
N21	N2	0.248900	0.049300	0.296400
C11	C1	0.312200	0.014500	0.206900
O31	O3	0.307800	0.298700	0.058000
C21	C2	0.260200	0.395000	0.439800
H11	H1	0.309630	0.404790	0.420110
C31	C3	0.396900	0.113500	0.122000
H21	H2	0.426260	0.147890	0.092920
C41	C4	0.320100	0.166300	0.135400
C51	C5	0.219200	0.212700	0.381400
C61	C6	0.388000	0.963000	0.193100
H31	H3	0.411100	0.893300	0.213180
C71	C7	0.276900	0.116800	0.177700
H41	H4	0.224090	0.151600	0.186760
C81	C8	0.156200	0.126900	0.361000
H51	H5	0.102390	0.124000	0.376270
C91	C9	0.120200	0.369000	0.497900
H61	H6	0.071820	0.359130	0.518600
C101	C10	0.202700	0.299300	0.425400
C111	C11	0.263300	0.955800	0.252800
H71	H7	0.207580	0.923780	0.237150
H81	H8	0.296290	0.884490	0.269120
C121	C12	0.310000	0.130500	0.314200
H91	H9	0.362850	0.132450	0.297760
C131	C13	0.512400	0.951300	0.135000
C141	C14	0.280600	0.271700	0.102100
C151	C15	0.430800	0.011000	0.150700
C161	C16	0.173200	0.047500	0.319000
H101	H10	0.130570	0.990110	0.305500
C171	C17	0.132100	0.285900	0.456000
H111	H11	0.092400	0.220270	0.448090
C181	C18	0.296000	0.209300	0.355600
H121	H12	0.340340	0.265220	0.367920
O41	O4	0.536600	0.858000	0.157700
C191	C19	0.246500	0.474800	0.481800
H131	H13	0.287130	0.538520	0.491040
O51	O5	0.091400	0.275800	0.018200
H141	H14	0.072000	0.187000	0.034000
Zn21	Zn2	0.641650	0.909200	0.068480
O61	O6	0.048700	0.500800	0.096600
O71	O7	0.720200	0.828400	0.121900
N31	N3	0.675700	0.965200	0.510800
N41	N4	0.748900	0.549300	0.296400
C201	C20	0.812200	0.514500	0.206900
O81	O8	0.807800	0.798700	0.058000
C211	C21	0.760200	0.895000	0.439800
H151	H15	0.809630	0.904790	0.420110
C221	C22	0.896900	0.613500	0.122000
H161	H16	0.926260	0.647890	0.092920
C231	C23	0.820100	0.666300	0.135400
C241	C24	0.719200	0.712700	0.381400
C251	C25	0.888000	0.463000	0.193100
H171	H17	0.911100	0.393300	0.213180
C261	C26	0.776900	0.616800	0.177700
H181	H18	0.724090	0.651600	0.186760
C271	C27	0.656200	0.626900	0.361000
H191	H19	0.602390	0.624000	0.376270
C281	C28	0.620200	0.869000	0.497900
H201	H20	0.571820	0.859130	0.518600
C291	C29	0.702700	0.799300	0.425400
C301	C30	0.763300	0.455800	0.252800
H211	H21	0.707580	0.423780	0.237150
H221	H22	0.796290	0.384490	0.269120
C311	C31	0.810000	0.630500	0.314200
H231	H23	0.862850	0.632450	0.297760
C321	C32	0.012400	0.451300	0.135000
C331	C33	0.780600	0.771700	0.102100
C341	C34	0.930800	0.511000	0.150700
C351	C35	0.673200	0.547500	0.319000
H241	H24	0.630570	0.490110	0.305500
C361	C36	0.632100	0.785900	0.456000
H251	H25	0.592400	0.720270	0.448090
C371	C37	0.796000	0.709300	0.355600
H261	H26	0.840340	0.765220	0.367920
O91	O9	0.036600	0.358000	0.157700
C381	C38	0.746500	0.974800	0.481800
H271	H27	0.787130	0.038520	0.491040
O101	O10	0.591400	0.775800	0.018200
H281	H28	0.572000	0.687000	0.034000
Zn31	Zn3	0.141650	0.590800	0.568480
O111	O11	0.548700	0.999200	0.596600
O121	O12	0.220200	0.671600	0.621900
N51	N5	0.175700	0.534800	0.010800
N61	N6	0.248900	0.950700	0.796400
C391	C39	0.312200	0.985500	0.706900
O131	O13	0.307800	0.701300	0.558000
C401	C40	0.260200	0.605000	0.939800
H291	H29	0.309630	0.595210	0.920110
C411	C41	0.396900	0.886500	0.622000
H301	H30	0.426260	0.852110	0.592920
C421	C42	0.320100	0.833700	0.635400
C431	C43	0.219200	0.787300	0.881400
C441	C44	0.388000	0.037000	0.693100
H311	H31	0.411100	0.106700	0.713180
C451	C45	0.276900	0.883200	0.677700
H321	H32	0.224090	0.848400	0.686760
C461	C46	0.156200	0.873100	0.861000
H331	H33	0.102390	0.876000	0.876270
C471	C47	0.120200	0.631000	0.997900
H341	H34	0.071820	0.640870	0.018600
C481	C48	0.202700	0.700700	0.925400
C491	C49	0.263300	0.044200	0.752800
H351	H35	0.207580	0.076220	0.737150
H361	H36	0.296290	0.115510	0.769120
C501	C50	0.310000	0.869500	0.814200
H371	H37	0.362850	0.867550	0.797760
C511	C51	0.512400	0.048700	0.635000
C521	C52	0.280600	0.728300	0.602100
C531	C53	0.430800	0.989000	0.650700
C541	C54	0.173200	0.952500	0.819000
H381	H38	0.130570	0.009890	0.805500
C551	C55	0.132100	0.714100	0.956000
H391	H39	0.092400	0.779730	0.948090
C561	C56	0.296000	0.790700	0.855600
H401	H40	0.340340	0.734780	0.867920
O141	O14	0.536600	0.142000	0.657700
C571	C57	0.246500	0.525200	0.981800
H411	H41	0.287130	0.461480	0.991040
O151	O15	0.091400	0.724200	0.518200
H421	H42	0.072000	0.813000	0.534000
Zn41	Zn4	0.641650	0.090800	0.568480
O161	O16	0.048700	0.499200	0.596600
O171	O17	0.720200	0.171600	0.621900
N71	N7	0.675700	0.034800	0.010800
N81	N8	0.748900	0.450700	0.796400
C581	C58	0.812200	0.485500	0.706900
O181	O18	0.807800	0.201300	0.558000
C591	C59	0.760200	0.105000	0.939800
H431	H43	0.809630	0.095210	0.920110
C601	C60	0.896900	0.386500	0.622000
H441	H44	0.926260	0.352110	0.592920
C611	C61	0.820100	0.333700	0.635400
C621	C62	0.719200	0.287300	0.881400
C631	C63	0.888000	0.537000	0.693100
H451	H45	0.911100	0.606700	0.713180
C641	C64	0.776900	0.383200	0.677700
H461	H46	0.724090	0.348400	0.686760
C651	C65	0.656200	0.373100	0.861000
H471	H47	0.602390	0.376000	0.876270
C661	C66	0.620200	0.131000	0.997900
H481	H48	0.571820	0.140870	0.018600
C671	C67	0.702700	0.200700	0.925400
C681	C68	0.763300	0.544200	0.752800
H491	H49	0.707580	0.576220	0.737150
H501	H50	0.796290	0.615510	0.769120
C691	C69	0.810000	0.369500	0.814200
H511	H51	0.862850	0.367550	0.797760
C701	C70	0.012400	0.548700	0.635000
C711	C71	0.780600	0.228300	0.602100
C721	C72	0.930800	0.489000	0.650700
C731	C73	0.673200	0.452500	0.819000
H521	H52	0.630570	0.509890	0.805500
C741	C74	0.632100	0.214100	0.956000
H531	H53	0.592400	0.279730	0.948090
C751	C75	0.796000	0.290700	0.855600
H541	H54	0.840340	0.234780	0.867920
O191	O19	0.036600	0.642000	0.657700
C761	C76	0.746500	0.025200	0.981800
H551	H55	0.787130	0.961480	0.991040
O201	O20	0.591400	0.224200	0.518200
H561	H56	0.572000	0.313000	0.534000
Zn51	Zn5	0.858350	0.409200	0.431520
O211	O21	0.451300	0.000800	0.403400
O221	O22	0.779800	0.328400	0.378100
N91	N9	0.824300	0.465200	0.989200
N101	N10	0.751100	0.049300	0.203600
C771	C77	0.687800	0.014500	0.293100
O231	O23	0.692200	0.298700	0.442000
C781	C78	0.739800	0.395000	0.060200
H571	H57	0.690370	0.404790	0.079890
C791	C79	0.603100	0.113500	0.378000
H581	H58	0.573740	0.147890	0.407080
C801	C80	0.679900	0.166300	0.364600
C811	C81	0.780800	0.212700	0.118600
C821	C82	0.612000	0.963000	0.306900
H591	H59	0.588900	0.893300	0.286820
C831	C83	0.723100	0.116800	0.322300
H601	H60	0.775910	0.151600	0.313240
C841	C84	0.843800	0.126900	0.139000
H611	H61	0.897610	0.124000	0.123730
C851	C85	0.879800	0.369000	0.002100
H621	H62	0.928180	0.359130	0.981400
C861	C86	0.797300	0.299300	0.074600
C871	C87	0.736700	0.955800	0.247200
H631	H63	0.792420	0.923780	0.262850
H641	H64	0.703710	0.884490	0.230880
C881	C88	0.690000	0.130500	0.185800
H651	H65	0.637150	0.132450	0.202240
C891	C89	0.487600	0.951300	0.365000
C901	C90	0.719400	0.271700	0.397900
C911	C91	0.569200	0.011000	0.349300
C921	C92	0.826800	0.047500	0.181000
H661	H66	0.869430	0.990110	0.194500
C931	C93	0.867900	0.285900	0.044000
H671	H67	0.907600	0.220270	0.051910
C941	C94	0.704000	0.209300	0.144400
H681	H68	0.659660	0.265220	0.132080
O241	O24	0.463400	0.858000	0.342300
C951	C95	0.753500	0.474800	0.018200
H691	H69	0.712870	0.538520	0.008960
O251	O25	0.908600	0.275800	0.481800
H701	H70	0.928000	0.187000	0.466000
Zn61	Zn6	0.358350	0.909200	0.431520
O261	O26	0.951300	0.500800	0.403400
O271	O27	0.279800	0.828400	0.378100
N111	N11	0.324300	0.965200	0.989200
N121	N12	0.251100	0.549300	0.203600
C961	C96	0.187800	0.514500	0.293100
O281	O28	0.192200	0.798700	0.442000
C971	C97	0.239800	0.895000	0.060200
H711	H71	0.190370	0.904790	0.079890
C981	C98	0.103100	0.613500	0.378000
H721	H72	0.073740	0.647890	0.407080
C991	C99	0.179900	0.666300	0.364600
C1001	C100	0.280800	0.712700	0.118600
C1011	C101	0.112000	0.463000	0.306900
H731	H73	0.088900	0.393300	0.286820
C1021	C102	0.223100	0.616800	0.322300
H741	H74	0.275910	0.651600	0.313240
C1031	C103	0.343800	0.626900	0.139000
H751	H75	0.397610	0.624000	0.123730
C1041	C104	0.379800	0.869000	0.002100
H761	H76	0.428180	0.859130	0.981400
C1051	C105	0.297300	0.799300	0.074600
C1061	C106	0.236700	0.455800	0.247200
H771	H77	0.292420	0.423780	0.262850
H781	H78	0.203710	0.384490	0.230880
C1071	C107	0.190000	0.630500	0.185800
H791	H79	0.137150	0.632450	0.202240
C1081	C108	0.987600	0.451300	0.365000
C1091	C109	0.219400	0.771700	0.397900
C1101	C110	0.069200	0.511000	0.349300
C1111	C111	0.326800	0.547500	0.181000
H801	H80	0.369430	0.490110	0.194500
C1121	C112	0.367900	0.785900	0.044000
H811	H81	0.407600	0.720270	0.051910
C1131	C113	0.204000	0.709300	0.144400
H821	H82	0.159660	0.765220	0.132080
O291	O29	0.963400	0.358000	0.342300
C1141	C114	0.253500	0.974800	0.018200
H831	H83	0.212870	0.038520	0.008960
O301	O30	0.408600	0.775800	0.481800
H841	H84	0.428000	0.687000	0.466000
Zn71	Zn7	0.858350	0.590800	0.931520
O311	O31	0.451300	0.999200	0.903400
O321	O32	0.779800	0.671600	0.878100
N131	N13	0.824300	0.534800	0.489200
N141	N14	0.751100	0.950700	0.703600
C1151	C115	0.687800	0.985500	0.793100
O331	O33	0.692200	0.701300	0.942000
C1161	C116	0.739800	0.605000	0.560200
H851	H85	0.690370	0.595210	0.579890
C1171	C117	0.603100	0.886500	0.878000
H861	H86	0.573740	0.852110	0.907080
C1181	C118	0.679900	0.833700	0.864600
C1191	C119	0.780800	0.787300	0.618600
C1201	C120	0.612000	0.037000	0.806900
H871	H87	0.588900	0.106700	0.786820
C1211	C121	0.723100	0.883200	0.822300
H881	H88	0.775910	0.848400	0.813240
C1221	C122	0.843800	0.873100	0.639000
H891	H89	0.897610	0.876000	0.623730
C1231	C123	0.879800	0.631000	0.502100
H901	H90	0.928180	0.640870	0.481400
C1241	C124	0.797300	0.700700	0.574600
C1251	C125	0.736700	0.044200	0.747200
H911	H91	0.792420	0.076220	0.762850
H921	H92	0.703710	0.115510	0.730880
C1261	C126	0.690000	0.869500	0.685800
H931	H93	0.637150	0.867550	0.702240
C1271	C127	0.487600	0.048700	0.865000
C1281	C128	0.719400	0.728300	0.897900
C1291	C129	0.569200	0.989000	0.849300
C1301	C130	0.826800	0.952500	0.681000
H941	H94	0.869430	0.009890	0.694500
C1311	C131	0.867900	0.714100	0.544000
H951	H95	0.907600	0.779730	0.551910
C1321	C132	0.704000	0.790700	0.644400
H961	H96	0.659660	0.734780	0.632080
O341	O34	0.463400	0.142000	0.842300
C1331	C133	0.753500	0.525200	0.518200
H971	H97	0.712870	0.461480	0.508960
O351	O35	0.908600	0.724200	0.981800
H981	H98	0.928000	0.813000	0.966000
Zn81	Zn8	0.358350	0.090800	0.931520
O361	O36	0.951300	0.499200	0.903400
O371	O37	0.279800	0.171600	0.878100
N151	N15	0.324300	0.034800	0.489200
N161	N16	0.251100	0.450700	0.703600
C1341	C134	0.187800	0.485500	0.793100
O381	O38	0.192200	0.201300	0.942000
C1351	C135	0.239800	0.105000	0.560200
H991	H99	0.190370	0.095210	0.579890
C1361	C136	0.103100	0.386500	0.878000
H1001	H100	0.073740	0.352110	0.907080
C1371	C137	0.179900	0.333700	0.864600
C1381	C138	0.280800	0.287300	0.618600
C1391	C139	0.112000	0.537000	0.806900
H1011	H101	0.088900	0.606700	0.786820
C1401	C140	0.223100	0.383200	0.822300
H1021	H102	0.275910	0.348400	0.813240
C1411	C141	0.343800	0.373100	0.639000
H1031	H103	0.397610	0.376000	0.623730
C1421	C142	0.379800	0.131000	0.502100
H1041	H104	0.428180	0.140870	0.481400
C1431	C143	0.297300	0.200700	0.574600
C1441	C144	0.236700	0.544200	0.747200
H1051	H105	0.292420	0.576220	0.762850
H1061	H106	0.203710	0.615510	0.730880
C1451	C145	0.190000	0.369500	0.685800
H1071	H107	0.137150	0.367550	0.702240
C1461	C146	0.987600	0.548700	0.865000
C1471	C147	0.219400	0.228300	0.897900
C1481	C148	0.069200	0.489000	0.849300
C1491	C149	0.326800	0.452500	0.681000
H1081	H108	0.369430	0.509890	0.694500
C1501	C150	0.367900	0.214100	0.544000
H1091	H109	0.407600	0.279730	0.551910
C1511	C151	0.204000	0.290700	0.644400
H1101	H110	0.159660	0.234780	0.632080
O391	O39	0.963400	0.642000	0.842300
C1521	C152	0.253500	0.025200	0.518200
H1111	H111	0.212870	0.961480	0.508960
O401	O40	0.408600	0.224200	0.981800
H1121	H112	0.428000	0.313000	0.966000
