data_GARLIX_clean_PM
_symmetry_space_group_name_H-M	'P1'
_cell_length_a	15.838000
_cell_length_b	10.548000
_cell_length_c	21.074000
_cell_angle_alpha	90.000000
_cell_angle_beta	107.247000
_cell_angle_gamma	90.000000
_symmetry_Int_Tables_number 1

loop_
_symmetry_equiv_pos_as_xyz
'x,y,z'

loop_
_atom_site_label
_atom_site_type_symbol
_atom_site_fract_x
_atom_site_fract_y
_atom_site_fract_z
Nd11	Nd1	0.399200	0.080380	0.546670
O11	O1	0.504600	0.922000	0.593000
O21	O2	0.654300	0.087300	0.538600
O31	O3	0.609500	0.827900	0.560300
O41	O4	0.541700	0.171700	0.565000
O51	O5	0.607000	0.065100	0.836900
O61	O6	0.689500	0.929100	0.906400
C11	C1	0.577300	0.866100	0.604300
C21	C2	0.748600	0.727100	0.754200
C31	C3	0.630500	0.842800	0.675800
N11	N1	0.811900	0.631900	0.767200
O71	O7	0.239200	0.864200	0.989600
C41	C4	0.696800	0.751100	0.690600
H11	H1	0.706400	0.704400	0.656000
C51	C5	0.666500	0.890400	0.791500
C61	C6	0.614100	0.912700	0.726700
H21	H2	0.569300	0.973000	0.717700
O81	O8	0.194100	0.988700	0.900700
C71	C7	0.864800	0.599900	0.834200
H31	H3	0.880900	0.511100	0.835300
H41	H4	0.829100	0.611400	0.864000
C81	C8	0.706400	0.432200	0.691200
H51	H5	0.688500	0.475600	0.723300
C91	C9	0.783400	0.464600	0.679000
C101	C10	0.679900	0.268500	0.608300
C111	C11	0.621200	0.168400	0.568000
C121	C12	0.964200	0.784300	0.827300
H61	H6	0.922500	0.809700	0.788100
C131	C13	0.732200	0.798300	0.805000
H71	H7	0.765800	0.783900	0.848800
C141	C14	0.948300	0.678000	0.859400
C151	C15	0.103800	0.818200	0.909400
C161	C16	0.840700	0.575400	0.714200
H81	H8	0.901000	0.545900	0.732500
H91	H9	0.840600	0.640300	0.681600
C171	C17	0.040700	0.854800	0.851600
H101	H10	0.049700	0.926900	0.829000
C181	C18	0.810900	0.395600	0.633100
H111	H11	0.864800	0.415000	0.626100
C191	C19	0.653900	0.965700	0.848400
C201	C20	0.184400	0.892800	0.937200
C211	C21	0.654500	0.334100	0.655700
H121	H12	0.602000	0.312900	0.664300
C221	C22	0.760500	0.299100	0.597500
H131	H13	0.779800	0.254200	0.566500
C231	C23	0.013600	0.639600	0.916800
H141	H14	0.005100	0.566300	0.938700
C241	C24	0.089800	0.708100	0.941300
H151	H15	0.132500	0.680900	0.979500
Nd21	Nd2	0.600810	0.080380	0.953330
O91	O9	0.495400	0.922000	0.907000
O101	O10	0.345700	0.087300	0.961400
O111	O11	0.390500	0.827900	0.939700
O121	O12	0.458300	0.171700	0.935000
O131	O13	0.393000	0.065100	0.663100
O141	O14	0.310500	0.929100	0.593600
C251	C25	0.422700	0.866100	0.895700
C261	C26	0.251400	0.727100	0.745800
C271	C27	0.369500	0.842800	0.824200
N21	N2	0.188100	0.631900	0.732800
O151	O15	0.760800	0.864200	0.510400
C281	C28	0.303200	0.751100	0.809400
H161	H16	0.293600	0.704400	0.844000
C291	C29	0.333500	0.890400	0.708500
C301	C30	0.385900	0.912700	0.773300
H171	H17	0.430700	0.973000	0.782300
O161	O16	0.805900	0.988700	0.599300
C311	C31	0.135200	0.599900	0.665800
H181	H18	0.119100	0.511100	0.664700
H191	H19	0.170900	0.611400	0.636000
C321	C32	0.293600	0.432200	0.808800
H201	H20	0.311500	0.475600	0.776700
C331	C33	0.216600	0.464600	0.821000
C341	C34	0.320100	0.268500	0.891700
C351	C35	0.378800	0.168400	0.932000
C361	C36	0.035800	0.784300	0.672700
H211	H21	0.077500	0.809700	0.711900
C371	C37	0.267800	0.798300	0.695000
H221	H22	0.234200	0.783900	0.651200
C381	C38	0.051700	0.678000	0.640600
C391	C39	0.896200	0.818200	0.590600
C401	C40	0.159300	0.575400	0.785800
H231	H23	0.099000	0.545900	0.767500
H241	H24	0.159400	0.640300	0.818400
C411	C41	0.959300	0.854800	0.648400
H251	H25	0.950300	0.926900	0.671000
C421	C42	0.189100	0.395600	0.866900
H261	H26	0.135200	0.415000	0.873900
C431	C43	0.346100	0.965700	0.651600
C441	C44	0.815600	0.892800	0.562800
C451	C45	0.345500	0.334100	0.844300
H271	H27	0.398000	0.312900	0.835700
C461	C46	0.239500	0.299100	0.902500
H281	H28	0.220200	0.254200	0.933500
C471	C47	0.986400	0.639600	0.583200
H291	H29	0.994900	0.566300	0.561300
C481	C48	0.910200	0.708100	0.558700
H301	H30	0.867500	0.680900	0.520500
Nd31	Nd3	0.600810	0.919620	0.453330
O171	O17	0.495400	0.078000	0.407000
O181	O18	0.345700	0.912700	0.461400
O191	O19	0.390500	0.172100	0.439700
O201	O20	0.458300	0.828300	0.435000
O211	O21	0.393000	0.934900	0.163100
O221	O22	0.310500	0.070900	0.093600
C491	C49	0.422700	0.133900	0.395700
C501	C50	0.251400	0.272900	0.245800
C511	C51	0.369500	0.157200	0.324200
N31	N3	0.188100	0.368100	0.232800
O231	O23	0.760800	0.135800	0.010400
C521	C52	0.303200	0.248900	0.309400
H311	H31	0.293600	0.295600	0.344000
C531	C53	0.333500	0.109600	0.208500
C541	C54	0.385900	0.087300	0.273300
H321	H32	0.430700	0.027000	0.282300
O241	O24	0.805900	0.011300	0.099300
C551	C55	0.135200	0.400100	0.165800
H331	H33	0.119100	0.488900	0.164700
H341	H34	0.170900	0.388600	0.136000
C561	C56	0.293600	0.567800	0.308800
H351	H35	0.311500	0.524400	0.276700
C571	C57	0.216600	0.535400	0.321000
C581	C58	0.320100	0.731500	0.391700
C591	C59	0.378800	0.831600	0.432000
C601	C60	0.035800	0.215700	0.172700
H361	H36	0.077500	0.190300	0.211900
C611	C61	0.267800	0.201700	0.195000
H371	H37	0.234200	0.216100	0.151200
C621	C62	0.051700	0.322000	0.140600
C631	C63	0.896200	0.181800	0.090600
C641	C64	0.159300	0.424600	0.285800
H381	H38	0.099000	0.454100	0.267500
H391	H39	0.159400	0.359700	0.318400
C651	C65	0.959300	0.145200	0.148400
H401	H40	0.950300	0.073100	0.171000
C661	C66	0.189100	0.604400	0.366900
H411	H41	0.135200	0.585000	0.373900
C671	C67	0.346100	0.034300	0.151600
C681	C68	0.815600	0.107200	0.062800
C691	C69	0.345500	0.665900	0.344300
H421	H42	0.398000	0.687100	0.335700
C701	C70	0.239500	0.700900	0.402500
H431	H43	0.220200	0.745800	0.433500
C711	C71	0.986400	0.360400	0.083200
H441	H44	0.994900	0.433700	0.061300
C721	C72	0.910200	0.291900	0.058700
H451	H45	0.867500	0.319100	0.020500
Nd41	Nd4	0.399200	0.919620	0.046670
O251	O25	0.504600	0.078000	0.093000
O261	O26	0.654300	0.912700	0.038600
O271	O27	0.609500	0.172100	0.060300
O281	O28	0.541700	0.828300	0.065000
O291	O29	0.607000	0.934900	0.336900
O301	O30	0.689500	0.070900	0.406400
C731	C73	0.577300	0.133900	0.104300
C741	C74	0.748600	0.272900	0.254200
C751	C75	0.630500	0.157200	0.175800
N41	N4	0.811900	0.368100	0.267200
O311	O31	0.239200	0.135800	0.489600
C761	C76	0.696800	0.248900	0.190600
H461	H46	0.706400	0.295600	0.156000
C771	C77	0.666500	0.109600	0.291500
C781	C78	0.614100	0.087300	0.226700
H471	H47	0.569300	0.027000	0.217700
O321	O32	0.194100	0.011300	0.400700
C791	C79	0.864800	0.400100	0.334200
H481	H48	0.880900	0.488900	0.335300
H491	H49	0.829100	0.388600	0.364000
C801	C80	0.706400	0.567800	0.191200
H501	H50	0.688500	0.524400	0.223300
C811	C81	0.783400	0.535400	0.179000
C821	C82	0.679900	0.731500	0.108300
C831	C83	0.621200	0.831600	0.068000
C841	C84	0.964200	0.215700	0.327300
H511	H51	0.922500	0.190300	0.288100
C851	C85	0.732200	0.201700	0.305000
H521	H52	0.765800	0.216100	0.348800
C861	C86	0.948300	0.322000	0.359400
C871	C87	0.103800	0.181800	0.409400
C881	C88	0.840700	0.424600	0.214200
H531	H53	0.901000	0.454100	0.232500
H541	H54	0.840600	0.359700	0.181600
C891	C89	0.040700	0.145200	0.351600
H551	H55	0.049700	0.073100	0.329000
C901	C90	0.810900	0.604400	0.133100
H561	H56	0.864800	0.585000	0.126100
C911	C91	0.653900	0.034300	0.348400
C921	C92	0.184400	0.107200	0.437200
C931	C93	0.654500	0.665900	0.155700
H571	H57	0.602000	0.687100	0.164300
C941	C94	0.760500	0.700900	0.097500
H581	H58	0.779800	0.745800	0.066500
C951	C95	0.013600	0.360400	0.416800
H591	H59	0.005100	0.433700	0.438700
C961	C96	0.089800	0.291900	0.441300
H601	H60	0.132500	0.319100	0.479500
