data_GASSEB_clean_PM
_symmetry_space_group_name_H-M	'P1'
_cell_length_a	8.232600
_cell_length_b	13.554500
_cell_length_c	17.475900
_cell_angle_alpha	90.000000
_cell_angle_beta	90.000000
_cell_angle_gamma	90.000000
_symmetry_Int_Tables_number 1

loop_
_symmetry_equiv_pos_as_xyz
'x,y,z'

loop_
_atom_site_label
_atom_site_type_symbol
_atom_site_fract_x
_atom_site_fract_y
_atom_site_fract_z
C11	C1	0.655500	0.952600	0.914600
H11	H1	0.731000	0.914800	0.945600
H21	H2	0.712500	0.976800	0.869800
C21	C2	0.589000	0.034500	0.958500
C31	C3	0.582000	0.030200	0.035500
H31	H3	0.655300	0.980600	0.053800
H41	H4	0.473000	0.013900	0.051000
H51	H5	0.611100	0.093100	0.056600
C41	C4	0.481900	0.110600	0.910800
C51	C5	0.389700	0.181500	0.963700
C61	C6	0.531000	0.183600	0.781800
C71	C7	0.494300	0.090300	0.737200
C81	C8	0.612400	0.024800	0.714700
H61	H6	0.720100	0.036000	0.728300
C91	C9	0.571500	0.941300	0.671500
H71	H7	0.653600	0.898400	0.656400
C101	C10	0.304900	0.984900	0.672800
H81	H8	0.198200	0.972300	0.658400
C111	C11	0.335600	0.068400	0.715300
H91	H9	0.250700	0.109900	0.729400
N11	N1	0.418800	0.921400	0.651300
N21	N2	0.594100	0.165800	0.860000
O11	O1	0.270400	0.145200	0.998160
O21	O2	0.438900	0.268300	0.970280
Zn11	Zn1	0.153660	0.200170	0.086270
H101	H10	0.689000	0.128000	0.849000
H111	H11	0.400000	0.086000	0.877000
H121	H12	0.429000	0.194000	0.784000
C121	C12	0.844500	0.047400	0.414600
H131	H13	0.769000	0.085200	0.445600
H141	H14	0.787500	0.023200	0.369800
C131	C13	0.911000	0.965500	0.458500
C141	C14	0.918000	0.969800	0.535500
H151	H15	0.844700	0.019400	0.553800
H161	H16	0.027000	0.986100	0.551000
H171	H17	0.888900	0.906900	0.556600
C151	C15	0.018100	0.889400	0.410800
C161	C16	0.110300	0.818500	0.463700
C171	C17	0.969000	0.816400	0.281800
C181	C18	0.005700	0.909700	0.237200
C191	C19	0.887600	0.975200	0.214700
H181	H18	0.779900	0.964000	0.228300
C201	C20	0.928500	0.058700	0.171500
H191	H19	0.846400	0.101600	0.156400
C211	C21	0.195100	0.015100	0.172800
H201	H20	0.301800	0.027700	0.158400
C221	C22	0.164400	0.931600	0.215300
H211	H21	0.249300	0.890100	0.229400
N31	N3	0.081200	0.078600	0.151300
N41	N4	0.905900	0.834200	0.360000
O31	O3	0.229600	0.854800	0.498160
O41	O4	0.061100	0.731700	0.470280
Zn21	Zn2	0.346340	0.799830	0.586270
H221	H22	0.811000	0.872000	0.349000
H231	H23	0.100000	0.914000	0.377000
H241	H24	0.071000	0.806000	0.284000
C231	C23	0.344500	0.452600	0.585400
H251	H25	0.269000	0.414800	0.554400
H261	H26	0.287500	0.476800	0.630200
C241	C24	0.411000	0.534500	0.541500
C251	C25	0.418000	0.530200	0.464500
H271	H27	0.344700	0.480600	0.446200
H281	H28	0.527000	0.513900	0.449000
H291	H29	0.388900	0.593100	0.443400
C261	C26	0.518100	0.610600	0.589200
C271	C27	0.610300	0.681500	0.536300
C281	C28	0.469000	0.683600	0.718200
C291	C29	0.505700	0.590300	0.762800
C301	C30	0.387600	0.524800	0.785300
H301	H30	0.279900	0.536000	0.771700
C311	C31	0.428500	0.441300	0.828500
H311	H31	0.346400	0.398400	0.843600
C321	C32	0.695100	0.484900	0.827200
H321	H32	0.801800	0.472300	0.841600
C331	C33	0.664400	0.568400	0.784700
H331	H33	0.749300	0.609900	0.770600
N51	N5	0.581200	0.421400	0.848700
N61	N6	0.405900	0.665800	0.640000
O51	O5	0.729600	0.645200	0.501840
O61	O6	0.561100	0.768300	0.529720
Zn31	Zn3	0.846340	0.700170	0.413730
H341	H34	0.311000	0.628000	0.651000
H351	H35	0.600000	0.586000	0.623000
H361	H36	0.571000	0.694000	0.716000
C341	C34	0.155500	0.547400	0.085400
H371	H37	0.231000	0.585200	0.054400
H381	H38	0.212500	0.523200	0.130200
C351	C35	0.089000	0.465500	0.041500
C361	C36	0.082000	0.469800	0.964500
H391	H39	0.155300	0.519400	0.946200
H401	H40	0.973000	0.486100	0.949000
H411	H41	0.111100	0.406900	0.943400
C371	C37	0.981900	0.389400	0.089200
C381	C38	0.889700	0.318500	0.036300
C391	C39	0.031000	0.316400	0.218200
C401	C40	0.994300	0.409700	0.262800
C411	C41	0.112400	0.475200	0.285300
H421	H42	0.220100	0.464000	0.271700
C421	C42	0.071500	0.558700	0.328500
H431	H43	0.153600	0.601600	0.343600
C431	C43	0.804900	0.515100	0.327200
H441	H44	0.698200	0.527700	0.341600
C441	C44	0.835600	0.431600	0.284700
H451	H45	0.750700	0.390100	0.270600
N71	N7	0.918800	0.578600	0.348700
N81	N8	0.094100	0.334200	0.140000
O71	O7	0.770400	0.354800	0.001840
O81	O8	0.938900	0.231700	0.029720
Zn41	Zn4	0.653660	0.299830	0.913730
H461	H46	0.189000	0.372000	0.151000
H471	H47	0.900000	0.414000	0.123000
H481	H48	0.929000	0.306000	0.216000
