data_GASSUR_clean_PM
_symmetry_space_group_name_H-M	'P1'
_cell_length_a	15.701000
_cell_length_b	14.964000
_cell_length_c	17.339000
_cell_angle_alpha	90.000000
_cell_angle_beta	115.096000
_cell_angle_gamma	90.000000
_symmetry_Int_Tables_number 1

loop_
_symmetry_equiv_pos_as_xyz
'x,y,z'

loop_
_atom_site_label
_atom_site_type_symbol
_atom_site_fract_x
_atom_site_fract_y
_atom_site_fract_z
Zn11	Zn1	0.044400	0.949290	0.345160
O11	O1	0.043300	0.942000	0.681400
O21	O2	0.134500	0.971300	0.817400
O31	O3	0.429700	0.629400	0.814200
O41	O4	0.389300	0.657300	0.677100
N11	N1	0.100800	0.951900	0.471000
N21	N2	0.167900	0.912700	0.603900
C11	C1	0.125400	0.884700	0.523000
H11	H1	0.114900	0.825200	0.506400
C21	C2	0.130100	0.028200	0.521300
H21	H2	0.123800	0.086700	0.501500
C31	C3	0.168600	0.003300	0.602100
H31	H3	0.192000	0.041000	0.649200
C41	C4	0.208500	0.857100	0.676500
C51	C5	0.270800	0.793500	0.676100
H41	H4	0.282400	0.785900	0.628200
C61	C6	0.316000	0.741100	0.746600
C71	C7	0.301900	0.753500	0.819100
H51	H5	0.333700	0.718900	0.867500
C81	C8	0.238800	0.819200	0.817800
H61	H6	0.230200	0.829400	0.866900
C91	C9	0.188800	0.869400	0.746800
C101	C10	0.116400	0.933000	0.749300
C111	C11	0.384600	0.670200	0.745800
Zn21	Zn2	0.544400	0.449290	0.345160
O51	O5	0.543300	0.442000	0.681400
O61	O6	0.634500	0.471300	0.817400
O71	O7	0.929700	0.129400	0.814200
O81	O8	0.889300	0.157300	0.677100
N31	N3	0.600800	0.451900	0.471000
N41	N4	0.667900	0.412700	0.603900
C121	C12	0.625400	0.384700	0.523000
H71	H7	0.614900	0.325200	0.506400
C131	C13	0.630100	0.528200	0.521300
H81	H8	0.623800	0.586700	0.501500
C141	C14	0.668600	0.503300	0.602100
H91	H9	0.692000	0.541000	0.649200
C151	C15	0.708500	0.357100	0.676500
C161	C16	0.770800	0.293500	0.676100
H101	H10	0.782400	0.285900	0.628200
C171	C17	0.816000	0.241100	0.746600
C181	C18	0.801900	0.253500	0.819100
H111	H11	0.833700	0.218900	0.867500
C191	C19	0.738800	0.319200	0.817800
H121	H12	0.730200	0.329400	0.866900
C201	C20	0.688800	0.369400	0.746800
C211	C21	0.616400	0.433000	0.749300
C221	C22	0.884600	0.170200	0.745800
Zn31	Zn3	0.955600	0.949290	0.154840
O91	O9	0.956700	0.942000	0.818600
O101	O10	0.865500	0.971300	0.682600
O111	O11	0.570300	0.629400	0.685800
O121	O12	0.610700	0.657300	0.822900
N51	N5	0.899200	0.951900	0.029000
N61	N6	0.832100	0.912700	0.896100
C231	C23	0.874600	0.884700	0.977000
H131	H13	0.885100	0.825200	0.993600
C241	C24	0.869900	0.028200	0.978700
H141	H14	0.876200	0.086700	0.998500
C251	C25	0.831400	0.003300	0.897900
H151	H15	0.808000	0.041000	0.850800
C261	C26	0.791500	0.857100	0.823500
C271	C27	0.729200	0.793500	0.823900
H161	H16	0.717600	0.785900	0.871800
C281	C28	0.684000	0.741100	0.753400
C291	C29	0.698100	0.753500	0.680900
H171	H17	0.666300	0.718900	0.632500
C301	C30	0.761200	0.819200	0.682200
H181	H18	0.769800	0.829400	0.633100
C311	C31	0.811200	0.869400	0.753200
C321	C32	0.883600	0.933000	0.750700
C331	C33	0.615400	0.670200	0.754200
Zn41	Zn4	0.455600	0.449290	0.154840
O131	O13	0.456700	0.442000	0.818600
O141	O14	0.365500	0.471300	0.682600
O151	O15	0.070300	0.129400	0.685800
O161	O16	0.110700	0.157300	0.822900
N71	N7	0.399200	0.451900	0.029000
N81	N8	0.332100	0.412700	0.896100
C341	C34	0.374600	0.384700	0.977000
H191	H19	0.385100	0.325200	0.993600
C351	C35	0.369900	0.528200	0.978700
H201	H20	0.376200	0.586700	0.998500
C361	C36	0.331400	0.503300	0.897900
H211	H21	0.308000	0.541000	0.850800
C371	C37	0.291500	0.357100	0.823500
C381	C38	0.229200	0.293500	0.823900
H221	H22	0.217600	0.285900	0.871800
C391	C39	0.184000	0.241100	0.753400
C401	C40	0.198100	0.253500	0.680900
H231	H23	0.166300	0.218900	0.632500
C411	C41	0.261200	0.319200	0.682200
H241	H24	0.269800	0.329400	0.633100
C421	C42	0.311200	0.369400	0.753200
C431	C43	0.383600	0.433000	0.750700
C441	C44	0.115400	0.170200	0.754200
Zn51	Zn5	0.955600	0.050710	0.654840
O171	O17	0.956700	0.058000	0.318600
O181	O18	0.865500	0.028700	0.182600
O191	O19	0.570300	0.370600	0.185800
O201	O20	0.610700	0.342700	0.322900
N91	N9	0.899200	0.048100	0.529000
N101	N10	0.832100	0.087300	0.396100
C451	C45	0.874600	0.115300	0.477000
H251	H25	0.885100	0.174800	0.493600
C461	C46	0.869900	0.971800	0.478700
H261	H26	0.876200	0.913300	0.498500
C471	C47	0.831400	0.996700	0.397900
H271	H27	0.808000	0.959000	0.350800
C481	C48	0.791500	0.142900	0.323500
C491	C49	0.729200	0.206500	0.323900
H281	H28	0.717600	0.214100	0.371800
C501	C50	0.684000	0.258900	0.253400
C511	C51	0.698100	0.246500	0.180900
H291	H29	0.666300	0.281100	0.132500
C521	C52	0.761200	0.180800	0.182200
H301	H30	0.769800	0.170600	0.133100
C531	C53	0.811200	0.130600	0.253200
C541	C54	0.883600	0.067000	0.250700
C551	C55	0.615400	0.329800	0.254200
Zn61	Zn6	0.455600	0.550710	0.654840
O211	O21	0.456700	0.558000	0.318600
O221	O22	0.365500	0.528700	0.182600
O231	O23	0.070300	0.870600	0.185800
O241	O24	0.110700	0.842700	0.322900
N111	N11	0.399200	0.548100	0.529000
N121	N12	0.332100	0.587300	0.396100
C561	C56	0.374600	0.615300	0.477000
H311	H31	0.385100	0.674800	0.493600
C571	C57	0.369900	0.471800	0.478700
H321	H32	0.376200	0.413300	0.498500
C581	C58	0.331400	0.496700	0.397900
H331	H33	0.308000	0.459000	0.350800
C591	C59	0.291500	0.642900	0.323500
C601	C60	0.229200	0.706500	0.323900
H341	H34	0.217600	0.714100	0.371800
C611	C61	0.184000	0.758900	0.253400
C621	C62	0.198100	0.746500	0.180900
H351	H35	0.166300	0.781100	0.132500
C631	C63	0.261200	0.680800	0.182200
H361	H36	0.269800	0.670600	0.133100
C641	C64	0.311200	0.630600	0.253200
C651	C65	0.383600	0.567000	0.250700
C661	C66	0.115400	0.829800	0.254200
Zn71	Zn7	0.044400	0.050710	0.845160
O251	O25	0.043300	0.058000	0.181400
O261	O26	0.134500	0.028700	0.317400
O271	O27	0.429700	0.370600	0.314200
O281	O28	0.389300	0.342700	0.177100
N131	N13	0.100800	0.048100	0.971000
N141	N14	0.167900	0.087300	0.103900
C671	C67	0.125400	0.115300	0.023000
H371	H37	0.114900	0.174800	0.006400
C681	C68	0.130100	0.971800	0.021300
H381	H38	0.123800	0.913300	0.001500
C691	C69	0.168600	0.996700	0.102100
H391	H39	0.192000	0.959000	0.149200
C701	C70	0.208500	0.142900	0.176500
C711	C71	0.270800	0.206500	0.176100
H401	H40	0.282400	0.214100	0.128200
C721	C72	0.316000	0.258900	0.246600
C731	C73	0.301900	0.246500	0.319100
H411	H41	0.333700	0.281100	0.367500
C741	C74	0.238800	0.180800	0.317800
H421	H42	0.230200	0.170600	0.366900
C751	C75	0.188800	0.130600	0.246800
C761	C76	0.116400	0.067000	0.249300
C771	C77	0.384600	0.329800	0.245800
Zn81	Zn8	0.544400	0.550710	0.845160
O291	O29	0.543300	0.558000	0.181400
O301	O30	0.634500	0.528700	0.317400
O311	O31	0.929700	0.870600	0.314200
O321	O32	0.889300	0.842700	0.177100
N151	N15	0.600800	0.548100	0.971000
N161	N16	0.667900	0.587300	0.103900
C781	C78	0.625400	0.615300	0.023000
H431	H43	0.614900	0.674800	0.006400
C791	C79	0.630100	0.471800	0.021300
H441	H44	0.623800	0.413300	0.001500
C801	C80	0.668600	0.496700	0.102100
H451	H45	0.692000	0.459000	0.149200
C811	C81	0.708500	0.642900	0.176500
C821	C82	0.770800	0.706500	0.176100
H461	H46	0.782400	0.714100	0.128200
C831	C83	0.816000	0.758900	0.246600
C841	C84	0.801900	0.746500	0.319100
H471	H47	0.833700	0.781100	0.367500
C851	C85	0.738800	0.680800	0.317800
H481	H48	0.730200	0.670600	0.366900
C861	C86	0.688800	0.630600	0.246800
C871	C87	0.616400	0.567000	0.249300
C881	C88	0.884600	0.829800	0.245800
