data_GAWMOJ_clean_PM
_symmetry_space_group_name_H-M	'P1'
_cell_length_a	28.598000
_cell_length_b	28.598000
_cell_length_c	17.074000
_cell_angle_alpha	90.000000
_cell_angle_beta	90.000000
_cell_angle_gamma	90.000000
_symmetry_Int_Tables_number 1

loop_
_symmetry_equiv_pos_as_xyz
'x,y,z'

loop_
_atom_site_label
_atom_site_type_symbol
_atom_site_fract_x
_atom_site_fract_y
_atom_site_fract_z
Zn11	Zn1	0.177200	0.066710	0.367510
Zn21	Zn2	0.281210	0.123080	0.381320
O11	O1	0.176370	0.226530	0.968800
O21	O2	0.132080	0.213770	0.768600
O31	O3	0.053810	0.292250	0.923200
O41	O4	0.138980	0.347950	0.858800
C11	C1	0.128080	0.266530	0.878300
O51	O5	0.187960	0.101350	0.272600
O61	O6	0.274950	0.520120	0.885200
C21	C2	0.152700	0.195700	0.701500
C31	C3	0.076060	0.273600	0.854500
H11	H1	0.061900	0.244000	0.839500
H21	H2	0.073500	0.295200	0.811000
O71	O7	0.841500	0.348150	0.869400
O81	O8	0.245640	0.142140	0.471900
C41	C4	0.206930	0.474820	0.872500
C51	C5	0.186500	0.156700	0.564400
C61	C6	0.182840	0.201400	0.036700
O91	O9	0.249010	0.145930	0.287800
C71	C7	0.978100	0.297300	0.857300
H31	H3	0.988500	0.280900	0.813700
O101	O10	0.176410	0.108200	0.457500
C81	C8	0.932850	0.314200	0.861000
H41	H4	0.913300	0.309000	0.818400
C91	C9	0.150100	0.310900	0.908400
H51	H5	0.138700	0.317500	0.960800
H61	H6	0.183800	0.307200	0.911000
C101	C10	0.866000	0.353300	0.927600
O111	O11	0.207550	0.556190	0.864300
C111	C11	0.155300	0.252580	0.804100
H71	H7	0.156400	0.278700	0.767900
H81	H8	0.187100	0.244000	0.817800
C121	C12	0.204100	0.157100	0.177200
C131	C13	0.237100	0.186200	0.139000
H91	H9	0.266600	0.189900	0.160900
C141	C14	0.129300	0.229000	0.940000
H101	H10	0.108000	0.236600	0.982300
H111	H11	0.120100	0.199200	0.917700
C151	C15	0.231600	0.519830	0.874300
C161	C16	0.214300	0.133400	0.251000
C171	C17	0.212100	0.187700	0.605600
H121	H12	0.241500	0.195800	0.586900
C181	C18	0.163200	0.389100	0.866600
C191	C19	0.228900	0.435900	0.898200
H131	H13	0.259200	0.438300	0.917900
C201	C20	0.007100	0.305500	0.919400
C211	C21	0.204100	0.134600	0.492400
C221	C22	0.226700	0.208700	0.071600
H141	H14	0.248300	0.228700	0.048600
C231	C23	0.151200	0.173600	0.071000
H151	H15	0.122300	0.169000	0.047100
C241	C24	0.196200	0.208700	0.676500
H161	H16	0.214400	0.230100	0.704200
C251	C25	0.160600	0.151700	0.140700
H171	H17	0.137800	0.133100	0.164000
O121	O12	0.852000	0.373400	0.983800
C261	C26	0.124500	0.164700	0.659800
H181	H18	0.094700	0.157400	0.677700
C271	C27	0.163300	0.471200	0.841000
H191	H19	0.148600	0.497700	0.821200
C281	C28	0.141400	0.144900	0.591500
H201	H20	0.123000	0.123900	0.563400
C291	C29	0.207100	0.392500	0.895600
H211	H21	0.222600	0.365900	0.913700
C301	C30	0.916200	0.336900	0.920600
C311	C31	0.140800	0.428500	0.838100
H221	H22	0.110800	0.426200	0.817200
C321	C32	0.991200	0.328200	0.980800
H231	H23	0.011600	0.334500	0.021900
C331	C33	0.947200	0.342400	0.986200
H241	H24	0.936400	0.355900	0.032400
Zn31	Zn3	0.822800	0.933290	0.367510
Zn41	Zn4	0.718790	0.876920	0.381320
O131	O13	0.823630	0.773470	0.968800
O141	O14	0.867920	0.786230	0.768600
O151	O15	0.946190	0.707750	0.923200
O161	O16	0.861020	0.652050	0.858800
C341	C34	0.871920	0.733470	0.878300
O171	O17	0.812040	0.898650	0.272600
O181	O18	0.725050	0.479880	0.885200
C351	C35	0.847300	0.804300	0.701500
C361	C36	0.923940	0.726400	0.854500
H251	H25	0.938100	0.756000	0.839500
H261	H26	0.926500	0.704800	0.811000
O191	O19	0.158500	0.651850	0.869400
O201	O20	0.754360	0.857860	0.471900
C371	C37	0.793070	0.525180	0.872500
C381	C38	0.813500	0.843300	0.564400
C391	C39	0.817160	0.798600	0.036700
O211	O21	0.750990	0.854070	0.287800
C401	C40	0.021900	0.702700	0.857300
H271	H27	0.011500	0.719100	0.813700
O221	O22	0.823590	0.891800	0.457500
C411	C41	0.067150	0.685800	0.861000
H281	H28	0.086700	0.691000	0.818400
C421	C42	0.849900	0.689100	0.908400
H291	H29	0.861300	0.682500	0.960800
H301	H30	0.816200	0.692800	0.911000
C431	C43	0.134000	0.646700	0.927600
O231	O23	0.792450	0.443810	0.864300
C441	C44	0.844700	0.747420	0.804100
H311	H31	0.843600	0.721300	0.767900
H321	H32	0.812900	0.756000	0.817800
C451	C45	0.795900	0.842900	0.177200
C461	C46	0.762900	0.813800	0.139000
H331	H33	0.733400	0.810100	0.160900
C471	C47	0.870700	0.771000	0.940000
H341	H34	0.892000	0.763400	0.982300
H351	H35	0.879900	0.800800	0.917700
C481	C48	0.768400	0.480170	0.874300
C491	C49	0.785700	0.866600	0.251000
C501	C50	0.787900	0.812300	0.605600
H361	H36	0.758500	0.804200	0.586900
C511	C51	0.836800	0.610900	0.866600
C521	C52	0.771100	0.564100	0.898200
H371	H37	0.740800	0.561700	0.917900
C531	C53	0.992900	0.694500	0.919400
C541	C54	0.795900	0.865400	0.492400
C551	C55	0.773300	0.791300	0.071600
H381	H38	0.751700	0.771300	0.048600
C561	C56	0.848800	0.826400	0.071000
H391	H39	0.877700	0.831000	0.047100
C571	C57	0.803800	0.791300	0.676500
H401	H40	0.785600	0.769900	0.704200
C581	C58	0.839400	0.848300	0.140700
H411	H41	0.862200	0.866900	0.164000
O241	O24	0.148000	0.626600	0.983800
C591	C59	0.875500	0.835300	0.659800
H421	H42	0.905300	0.842600	0.677700
C601	C60	0.836700	0.528800	0.841000
H431	H43	0.851400	0.502300	0.821200
C611	C61	0.858600	0.855100	0.591500
H441	H44	0.877000	0.876100	0.563400
C621	C62	0.792900	0.607500	0.895600
H451	H45	0.777400	0.634100	0.913700
C631	C63	0.083800	0.663100	0.920600
C641	C64	0.859200	0.571500	0.838100
H461	H46	0.889200	0.573800	0.817200
C651	C65	0.008800	0.671800	0.980800
H471	H47	0.988400	0.665500	0.021900
C661	C66	0.052800	0.657600	0.986200
H481	H48	0.063600	0.644100	0.032400
Zn51	Zn5	0.677200	0.433290	0.867510
Zn61	Zn6	0.781210	0.376920	0.881320
O251	O25	0.676370	0.273470	0.468800
O261	O26	0.632080	0.286230	0.268600
O271	O27	0.553810	0.207750	0.423200
O281	O28	0.638980	0.152050	0.358800
C671	C67	0.628080	0.233470	0.378300
O291	O29	0.687960	0.398650	0.772600
O301	O30	0.774950	0.979880	0.385200
C681	C68	0.652700	0.304300	0.201500
C691	C69	0.576060	0.226400	0.354500
H491	H49	0.561900	0.256000	0.339500
H501	H50	0.573500	0.204800	0.311000
O311	O31	0.341500	0.151850	0.369400
O321	O32	0.745640	0.357860	0.971900
C701	C70	0.706930	0.025180	0.372500
C711	C71	0.686500	0.343300	0.064400
C721	C72	0.682840	0.298600	0.536700
O331	O33	0.749010	0.354070	0.787800
C731	C73	0.478100	0.202700	0.357300
H511	H51	0.488500	0.219100	0.313700
O341	O34	0.676410	0.391800	0.957500
C741	C74	0.432850	0.185800	0.361000
H521	H52	0.413300	0.191000	0.318400
C751	C75	0.650100	0.189100	0.408400
H531	H53	0.638700	0.182500	0.460800
H541	H54	0.683800	0.192800	0.411000
C761	C76	0.366000	0.146700	0.427600
O351	O35	0.707550	0.943810	0.364300
C771	C77	0.655300	0.247420	0.304100
H551	H55	0.656400	0.221300	0.267900
H561	H56	0.687100	0.256000	0.317800
C781	C78	0.704100	0.342900	0.677200
C791	C79	0.737100	0.313800	0.639000
H571	H57	0.766600	0.310100	0.660900
C801	C80	0.629300	0.271000	0.440000
H581	H58	0.608000	0.263400	0.482300
H591	H59	0.620100	0.300800	0.417700
C811	C81	0.731600	0.980170	0.374300
C821	C82	0.714300	0.366600	0.751000
C831	C83	0.712100	0.312300	0.105600
H601	H60	0.741500	0.304200	0.086900
C841	C84	0.663200	0.110900	0.366600
C851	C85	0.728900	0.064100	0.398200
H611	H61	0.759200	0.061700	0.417900
C861	C86	0.507100	0.194500	0.419400
C871	C87	0.704100	0.365400	0.992400
C881	C88	0.726700	0.291300	0.571600
H621	H62	0.748300	0.271300	0.548600
C891	C89	0.651200	0.326400	0.571000
H631	H63	0.622300	0.331000	0.547100
C901	C90	0.696200	0.291300	0.176500
H641	H64	0.714400	0.269900	0.204200
C911	C91	0.660600	0.348300	0.640700
H651	H65	0.637800	0.366900	0.664000
O361	O36	0.352000	0.126600	0.483800
C921	C92	0.624500	0.335300	0.159800
H661	H66	0.594700	0.342600	0.177700
C931	C93	0.663300	0.028800	0.341000
H671	H67	0.648600	0.002300	0.321200
C941	C94	0.641400	0.355100	0.091500
H681	H68	0.623000	0.376100	0.063400
C951	C95	0.707100	0.107500	0.395600
H691	H69	0.722600	0.134100	0.413700
C961	C96	0.416200	0.163100	0.420600
C971	C97	0.640800	0.071500	0.338100
H701	H70	0.610800	0.073800	0.317200
C981	C98	0.491200	0.171800	0.480800
H711	H71	0.511600	0.165500	0.521900
C991	C99	0.447200	0.157600	0.486200
H721	H72	0.436400	0.144100	0.532400
Zn71	Zn7	0.322800	0.566710	0.867510
Zn81	Zn8	0.218790	0.623080	0.881320
O371	O37	0.323630	0.726530	0.468800
O381	O38	0.367920	0.713770	0.268600
O391	O39	0.446190	0.792250	0.423200
O401	O40	0.361020	0.847950	0.358800
C1001	C100	0.371920	0.766530	0.378300
O411	O41	0.312040	0.601350	0.772600
O421	O42	0.225050	0.020120	0.385200
C1011	C101	0.347300	0.695700	0.201500
C1021	C102	0.423940	0.773600	0.354500
H731	H73	0.438100	0.744000	0.339500
H741	H74	0.426500	0.795200	0.311000
O431	O43	0.658500	0.848150	0.369400
O441	O44	0.254360	0.642140	0.971900
C1031	C103	0.293070	0.974820	0.372500
C1041	C104	0.313500	0.656700	0.064400
C1051	C105	0.317160	0.701400	0.536700
O451	O45	0.250990	0.645930	0.787800
C1061	C106	0.521900	0.797300	0.357300
H751	H75	0.511500	0.780900	0.313700
O461	O46	0.323590	0.608200	0.957500
C1071	C107	0.567150	0.814200	0.361000
H761	H76	0.586700	0.809000	0.318400
C1081	C108	0.349900	0.810900	0.408400
H771	H77	0.361300	0.817500	0.460800
H781	H78	0.316200	0.807200	0.411000
C1091	C109	0.634000	0.853300	0.427600
O471	O47	0.292450	0.056190	0.364300
C1101	C110	0.344700	0.752580	0.304100
H791	H79	0.343600	0.778700	0.267900
H801	H80	0.312900	0.744000	0.317800
C1111	C111	0.295900	0.657100	0.677200
C1121	C112	0.262900	0.686200	0.639000
H811	H81	0.233400	0.689900	0.660900
C1131	C113	0.370700	0.729000	0.440000
H821	H82	0.392000	0.736600	0.482300
H831	H83	0.379900	0.699200	0.417700
C1141	C114	0.268400	0.019830	0.374300
C1151	C115	0.285700	0.633400	0.751000
C1161	C116	0.287900	0.687700	0.105600
H841	H84	0.258500	0.695800	0.086900
C1171	C117	0.336800	0.889100	0.366600
C1181	C118	0.271100	0.935900	0.398200
H851	H85	0.240800	0.938300	0.417900
C1191	C119	0.492900	0.805500	0.419400
C1201	C120	0.295900	0.634600	0.992400
C1211	C121	0.273300	0.708700	0.571600
H861	H86	0.251700	0.728700	0.548600
C1221	C122	0.348800	0.673600	0.571000
H871	H87	0.377700	0.669000	0.547100
C1231	C123	0.303800	0.708700	0.176500
H881	H88	0.285600	0.730100	0.204200
C1241	C124	0.339400	0.651700	0.640700
H891	H89	0.362200	0.633100	0.664000
O481	O48	0.648000	0.873400	0.483800
C1251	C125	0.375500	0.664700	0.159800
H901	H90	0.405300	0.657400	0.177700
C1261	C126	0.336700	0.971200	0.341000
H911	H91	0.351400	0.997700	0.321200
C1271	C127	0.358600	0.644900	0.091500
H921	H92	0.377000	0.623900	0.063400
C1281	C128	0.292900	0.892500	0.395600
H931	H93	0.277400	0.865900	0.413700
C1291	C129	0.583800	0.836900	0.420600
C1301	C130	0.359200	0.928500	0.338100
H941	H94	0.389200	0.926200	0.317200
C1311	C131	0.508800	0.828200	0.480800
H951	H95	0.488400	0.834500	0.521900
C1321	C132	0.552800	0.842400	0.486200
H961	H96	0.563600	0.855900	0.532400
Zn91	Zn9	0.066710	0.822800	0.632490
Zn101	Zn10	0.123080	0.718790	0.618680
O491	O49	0.226530	0.823630	0.031200
O501	O50	0.213770	0.867920	0.231400
O511	O51	0.292250	0.946190	0.076800
O521	O52	0.347950	0.861020	0.141200
C1331	C133	0.266530	0.871920	0.121700
O531	O53	0.101350	0.812040	0.727400
O541	O54	0.520120	0.725050	0.114800
C1341	C134	0.195700	0.847300	0.298500
C1351	C135	0.273600	0.923940	0.145500
H971	H97	0.244000	0.938100	0.160500
H981	H98	0.295200	0.926500	0.189000
O551	O55	0.348150	0.158500	0.130600
O561	O56	0.142140	0.754360	0.528100
C1361	C136	0.474820	0.793070	0.127500
C1371	C137	0.156700	0.813500	0.435600
C1381	C138	0.201400	0.817160	0.963300
O571	O57	0.145930	0.750990	0.712200
C1391	C139	0.297300	0.021900	0.142700
H991	H99	0.280900	0.011500	0.186300
O581	O58	0.108200	0.823590	0.542500
C1401	C140	0.314200	0.067150	0.139000
H1001	H100	0.309000	0.086700	0.181600
C1411	C141	0.310900	0.849900	0.091600
H1011	H101	0.317500	0.861300	0.039200
H1021	H102	0.307200	0.816200	0.089000
C1421	C142	0.353300	0.134000	0.072400
O591	O59	0.556190	0.792450	0.135700
C1431	C143	0.252580	0.844700	0.195900
H1031	H103	0.278700	0.843600	0.232100
H1041	H104	0.244000	0.812900	0.182200
C1441	C144	0.157100	0.795900	0.822800
C1451	C145	0.186200	0.762900	0.861000
H1051	H105	0.189900	0.733400	0.839100
C1461	C146	0.229000	0.870700	0.060000
H1061	H106	0.236600	0.892000	0.017700
H1071	H107	0.199200	0.879900	0.082300
C1471	C147	0.519830	0.768400	0.125700
C1481	C148	0.133400	0.785700	0.749000
C1491	C149	0.187700	0.787900	0.394400
H1081	H108	0.195800	0.758500	0.413100
C1501	C150	0.389100	0.836800	0.133400
C1511	C151	0.435900	0.771100	0.101800
H1091	H109	0.438300	0.740800	0.082100
C1521	C152	0.305500	0.992900	0.080600
C1531	C153	0.134600	0.795900	0.507600
C1541	C154	0.208700	0.773300	0.928400
H1101	H110	0.228700	0.751700	0.951400
C1551	C155	0.173600	0.848800	0.929000
H1111	H111	0.169000	0.877700	0.952900
C1561	C156	0.208700	0.803800	0.323500
H1121	H112	0.230100	0.785600	0.295800
C1571	C157	0.151700	0.839400	0.859300
H1131	H113	0.133100	0.862200	0.836000
O601	O60	0.373400	0.148000	0.016200
C1581	C158	0.164700	0.875500	0.340200
H1141	H114	0.157400	0.905300	0.322300
C1591	C159	0.471200	0.836700	0.159000
H1151	H115	0.497700	0.851400	0.178800
C1601	C160	0.144900	0.858600	0.408500
H1161	H116	0.123900	0.877000	0.436600
C1611	C161	0.392500	0.792900	0.104400
H1171	H117	0.365900	0.777400	0.086300
C1621	C162	0.336900	0.083800	0.079400
C1631	C163	0.428500	0.859200	0.161900
H1181	H118	0.426200	0.889200	0.182800
C1641	C164	0.328200	0.008800	0.019200
H1191	H119	0.334500	0.988400	0.978100
C1651	C165	0.342400	0.052800	0.013800
H1201	H120	0.355900	0.063600	0.967600
Zn111	Zn11	0.933290	0.177200	0.632490
Zn121	Zn12	0.876920	0.281210	0.618680
O611	O61	0.773470	0.176370	0.031200
O621	O62	0.786230	0.132080	0.231400
O631	O63	0.707750	0.053810	0.076800
O641	O64	0.652050	0.138980	0.141200
C1661	C166	0.733470	0.128080	0.121700
O651	O65	0.898650	0.187960	0.727400
O661	O66	0.479880	0.274950	0.114800
C1671	C167	0.804300	0.152700	0.298500
C1681	C168	0.726400	0.076060	0.145500
H1211	H121	0.756000	0.061900	0.160500
H1221	H122	0.704800	0.073500	0.189000
O671	O67	0.651850	0.841500	0.130600
O681	O68	0.857860	0.245640	0.528100
C1691	C169	0.525180	0.206930	0.127500
C1701	C170	0.843300	0.186500	0.435600
C1711	C171	0.798600	0.182840	0.963300
O691	O69	0.854070	0.249010	0.712200
C1721	C172	0.702700	0.978100	0.142700
H1231	H123	0.719100	0.988500	0.186300
O701	O70	0.891800	0.176410	0.542500
C1731	C173	0.685800	0.932850	0.139000
H1241	H124	0.691000	0.913300	0.181600
C1741	C174	0.689100	0.150100	0.091600
H1251	H125	0.682500	0.138700	0.039200
H1261	H126	0.692800	0.183800	0.089000
C1751	C175	0.646700	0.866000	0.072400
O711	O71	0.443810	0.207550	0.135700
C1761	C176	0.747420	0.155300	0.195900
H1271	H127	0.721300	0.156400	0.232100
H1281	H128	0.756000	0.187100	0.182200
C1771	C177	0.842900	0.204100	0.822800
C1781	C178	0.813800	0.237100	0.861000
H1291	H129	0.810100	0.266600	0.839100
C1791	C179	0.771000	0.129300	0.060000
H1301	H130	0.763400	0.108000	0.017700
H1311	H131	0.800800	0.120100	0.082300
C1801	C180	0.480170	0.231600	0.125700
C1811	C181	0.866600	0.214300	0.749000
C1821	C182	0.812300	0.212100	0.394400
H1321	H132	0.804200	0.241500	0.413100
C1831	C183	0.610900	0.163200	0.133400
C1841	C184	0.564100	0.228900	0.101800
H1331	H133	0.561700	0.259200	0.082100
C1851	C185	0.694500	0.007100	0.080600
C1861	C186	0.865400	0.204100	0.507600
C1871	C187	0.791300	0.226700	0.928400
H1341	H134	0.771300	0.248300	0.951400
C1881	C188	0.826400	0.151200	0.929000
H1351	H135	0.831000	0.122300	0.952900
C1891	C189	0.791300	0.196200	0.323500
H1361	H136	0.769900	0.214400	0.295800
C1901	C190	0.848300	0.160600	0.859300
H1371	H137	0.866900	0.137800	0.836000
O721	O72	0.626600	0.852000	0.016200
C1911	C191	0.835300	0.124500	0.340200
H1381	H138	0.842600	0.094700	0.322300
C1921	C192	0.528800	0.163300	0.159000
H1391	H139	0.502300	0.148600	0.178800
C1931	C193	0.855100	0.141400	0.408500
H1401	H140	0.876100	0.123000	0.436600
C1941	C194	0.607500	0.207100	0.104400
H1411	H141	0.634100	0.222600	0.086300
C1951	C195	0.663100	0.916200	0.079400
C1961	C196	0.571500	0.140800	0.161900
H1421	H142	0.573800	0.110800	0.182800
C1971	C197	0.671800	0.991200	0.019200
H1431	H143	0.665500	0.011600	0.978100
C1981	C198	0.657600	0.947200	0.013800
H1441	H144	0.644100	0.936400	0.967600
Zn131	Zn13	0.566710	0.677200	0.132490
Zn141	Zn14	0.623080	0.781210	0.118680
O731	O73	0.726530	0.676370	0.531200
O741	O74	0.713770	0.632080	0.731400
O751	O75	0.792250	0.553810	0.576800
O761	O76	0.847950	0.638980	0.641200
C1991	C199	0.766530	0.628080	0.621700
O771	O77	0.601350	0.687960	0.227400
O781	O78	0.020120	0.774950	0.614800
C2001	C200	0.695700	0.652700	0.798500
C2011	C201	0.773600	0.576060	0.645500
H1451	H145	0.744000	0.561900	0.660500
H1461	H146	0.795200	0.573500	0.689000
O791	O79	0.848150	0.341500	0.630600
O801	O80	0.642140	0.745640	0.028100
C2021	C202	0.974820	0.706930	0.627500
C2031	C203	0.656700	0.686500	0.935600
C2041	C204	0.701400	0.682840	0.463300
O811	O81	0.645930	0.749010	0.212200
C2051	C205	0.797300	0.478100	0.642700
H1471	H147	0.780900	0.488500	0.686300
O821	O82	0.608200	0.676410	0.042500
C2061	C206	0.814200	0.432850	0.639000
H1481	H148	0.809000	0.413300	0.681600
C2071	C207	0.810900	0.650100	0.591600
H1491	H149	0.817500	0.638700	0.539200
H1501	H150	0.807200	0.683800	0.589000
C2081	C208	0.853300	0.366000	0.572400
O831	O83	0.056190	0.707550	0.635700
C2091	C209	0.752580	0.655300	0.695900
H1511	H151	0.778700	0.656400	0.732100
H1521	H152	0.744000	0.687100	0.682200
C2101	C210	0.657100	0.704100	0.322800
C2111	C211	0.686200	0.737100	0.361000
H1531	H153	0.689900	0.766600	0.339100
C2121	C212	0.729000	0.629300	0.560000
H1541	H154	0.736600	0.608000	0.517700
H1551	H155	0.699200	0.620100	0.582300
C2131	C213	0.019830	0.731600	0.625700
C2141	C214	0.633400	0.714300	0.249000
C2151	C215	0.687700	0.712100	0.894400
H1561	H156	0.695800	0.741500	0.913100
C2161	C216	0.889100	0.663200	0.633400
C2171	C217	0.935900	0.728900	0.601800
H1571	H157	0.938300	0.759200	0.582100
C2181	C218	0.805500	0.507100	0.580600
C2191	C219	0.634600	0.704100	0.007600
C2201	C220	0.708700	0.726700	0.428400
H1581	H158	0.728700	0.748300	0.451400
C2211	C221	0.673600	0.651200	0.429000
H1591	H159	0.669000	0.622300	0.452900
C2221	C222	0.708700	0.696200	0.823500
H1601	H160	0.730100	0.714400	0.795800
C2231	C223	0.651700	0.660600	0.359300
H1611	H161	0.633100	0.637800	0.336000
O841	O84	0.873400	0.352000	0.516200
C2241	C224	0.664700	0.624500	0.840200
H1621	H162	0.657400	0.594700	0.822300
C2251	C225	0.971200	0.663300	0.659000
H1631	H163	0.997700	0.648600	0.678800
C2261	C226	0.644900	0.641400	0.908500
H1641	H164	0.623900	0.623000	0.936600
C2271	C227	0.892500	0.707100	0.604400
H1651	H165	0.865900	0.722600	0.586300
C2281	C228	0.836900	0.416200	0.579400
C2291	C229	0.928500	0.640800	0.661900
H1661	H166	0.926200	0.610800	0.682800
C2301	C230	0.828200	0.491200	0.519200
H1671	H167	0.834500	0.511600	0.478100
C2311	C231	0.842400	0.447200	0.513800
H1681	H168	0.855900	0.436400	0.467600
Zn151	Zn15	0.433290	0.322800	0.132490
Zn161	Zn16	0.376920	0.218790	0.118680
O851	O85	0.273470	0.323630	0.531200
O861	O86	0.286230	0.367920	0.731400
O871	O87	0.207750	0.446190	0.576800
O881	O88	0.152050	0.361020	0.641200
C2321	C232	0.233470	0.371920	0.621700
O891	O89	0.398650	0.312040	0.227400
O901	O90	0.979880	0.225050	0.614800
C2331	C233	0.304300	0.347300	0.798500
C2341	C234	0.226400	0.423940	0.645500
H1691	H169	0.256000	0.438100	0.660500
H1701	H170	0.204800	0.426500	0.689000
O911	O91	0.151850	0.658500	0.630600
O921	O92	0.357860	0.254360	0.028100
C2351	C235	0.025180	0.293070	0.627500
C2361	C236	0.343300	0.313500	0.935600
C2371	C237	0.298600	0.317160	0.463300
O931	O93	0.354070	0.250990	0.212200
C2381	C238	0.202700	0.521900	0.642700
H1711	H171	0.219100	0.511500	0.686300
O941	O94	0.391800	0.323590	0.042500
C2391	C239	0.185800	0.567150	0.639000
H1721	H172	0.191000	0.586700	0.681600
C2401	C240	0.189100	0.349900	0.591600
H1731	H173	0.182500	0.361300	0.539200
H1741	H174	0.192800	0.316200	0.589000
C2411	C241	0.146700	0.634000	0.572400
O951	O95	0.943810	0.292450	0.635700
C2421	C242	0.247420	0.344700	0.695900
H1751	H175	0.221300	0.343600	0.732100
H1761	H176	0.256000	0.312900	0.682200
C2431	C243	0.342900	0.295900	0.322800
C2441	C244	0.313800	0.262900	0.361000
H1771	H177	0.310100	0.233400	0.339100
C2451	C245	0.271000	0.370700	0.560000
H1781	H178	0.263400	0.392000	0.517700
H1791	H179	0.300800	0.379900	0.582300
C2461	C246	0.980170	0.268400	0.625700
C2471	C247	0.366600	0.285700	0.249000
C2481	C248	0.312300	0.287900	0.894400
H1801	H180	0.304200	0.258500	0.913100
C2491	C249	0.110900	0.336800	0.633400
C2501	C250	0.064100	0.271100	0.601800
H1811	H181	0.061700	0.240800	0.582100
C2511	C251	0.194500	0.492900	0.580600
C2521	C252	0.365400	0.295900	0.007600
C2531	C253	0.291300	0.273300	0.428400
H1821	H182	0.271300	0.251700	0.451400
C2541	C254	0.326400	0.348800	0.429000
H1831	H183	0.331000	0.377700	0.452900
C2551	C255	0.291300	0.303800	0.823500
H1841	H184	0.269900	0.285600	0.795800
C2561	C256	0.348300	0.339400	0.359300
H1851	H185	0.366900	0.362200	0.336000
O961	O96	0.126600	0.648000	0.516200
C2571	C257	0.335300	0.375500	0.840200
H1861	H186	0.342600	0.405300	0.822300
C2581	C258	0.028800	0.336700	0.659000
H1871	H187	0.002300	0.351400	0.678800
C2591	C259	0.355100	0.358600	0.908500
H1881	H188	0.376100	0.377000	0.936600
C2601	C260	0.107500	0.292900	0.604400
H1891	H189	0.134100	0.277400	0.586300
C2611	C261	0.163100	0.583800	0.579400
C2621	C262	0.071500	0.359200	0.661900
H1901	H190	0.073800	0.389200	0.682800
C2631	C263	0.171800	0.508800	0.519200
H1911	H191	0.165500	0.488400	0.478100
C2641	C264	0.157600	0.552800	0.513800
H1921	H192	0.144100	0.563600	0.467600
