data_GAXWEJ_clean_PM
_symmetry_space_group_name_H-M	'P1'
_cell_length_a	12.179800
_cell_length_b	12.179800
_cell_length_c	12.663400
_cell_angle_alpha	103.939000
_cell_angle_beta	103.939000
_cell_angle_gamma	103.003000
_symmetry_Int_Tables_number 1

loop_
_symmetry_equiv_pos_as_xyz
'x,y,z'

loop_
_atom_site_label
_atom_site_type_symbol
_atom_site_fract_x
_atom_site_fract_y
_atom_site_fract_z
Ba11	Ba1	0.819720	0.180280	0.750000
Ba21	Ba2	0.180280	0.819720	0.250000
Zn11	Zn1	0.826820	0.414000	0.038270
Zn21	Zn2	0.586000	0.173180	0.461730
Zn31	Zn3	0.173180	0.586000	0.961730
Zn41	Zn4	0.414000	0.826820	0.538270
H11	H1	0.061300	0.108500	0.016300
H21	H2	0.204800	0.047200	0.120700
H31	H3	0.315300	0.358100	0.369000
H41	H4	0.168600	0.419200	0.267300
H51	H5	0.591700	0.172700	0.150900
H61	H6	0.526900	0.988100	0.823800
H71	H7	0.873300	0.479700	0.877200
H81	H8	0.759300	0.413900	0.833600
H91	H9	0.891500	0.938700	0.483700
H101	H10	0.952800	0.795200	0.379300
H111	H11	0.641900	0.684700	0.131000
H121	H12	0.580800	0.831400	0.232700
H131	H13	0.827300	0.408300	0.349100
H141	H14	0.011900	0.473100	0.676200
H151	H15	0.520300	0.126700	0.622800
H161	H16	0.586100	0.240700	0.666400
H171	H17	0.938700	0.891500	0.983700
H181	H18	0.795200	0.952800	0.879300
H191	H19	0.684700	0.641900	0.631000
H201	H20	0.831400	0.580800	0.732700
H211	H21	0.408300	0.827300	0.849100
H221	H22	0.473100	0.011900	0.176200
H231	H23	0.126700	0.520300	0.122800
H241	H24	0.240700	0.586100	0.166400
H251	H25	0.108500	0.061300	0.516300
H261	H26	0.047200	0.204800	0.620700
H271	H27	0.358100	0.315300	0.869000
H281	H28	0.419200	0.168600	0.767300
H291	H29	0.172700	0.591700	0.650900
H301	H30	0.988100	0.526900	0.323800
H311	H31	0.479700	0.873300	0.377200
H321	H32	0.413900	0.759300	0.333600
C11	C1	0.995080	0.299320	0.066600
C21	C2	0.097220	0.268980	0.132500
C31	C3	0.110800	0.158200	0.088200
C41	C4	0.197100	0.121700	0.150500
C51	C5	0.272540	0.195260	0.257200
C61	C6	0.262600	0.307000	0.299000
C71	C7	0.175090	0.344110	0.237700
C81	C8	0.360580	0.149620	0.326100
C91	C9	0.652770	0.199630	0.967100
C101	C10	0.572700	0.096100	0.984600
C111	C11	0.555000	0.102800	0.090100
C121	C12	0.516500	0.993100	0.895000
C131	C13	0.700680	0.004920	0.433400
C141	C14	0.731020	0.902780	0.367500
C151	C15	0.841800	0.889200	0.411800
C161	C16	0.878300	0.802900	0.349500
C171	C17	0.804740	0.727460	0.242800
C181	C18	0.693000	0.737400	0.201000
C191	C19	0.655890	0.824910	0.262300
C201	C20	0.850380	0.639420	0.173900
C211	C21	0.800370	0.347230	0.532900
C221	C22	0.903900	0.427300	0.515400
C231	C23	0.897200	0.445000	0.409900
C241	C24	0.006900	0.483500	0.605000
C251	C25	0.004920	0.700680	0.933400
C261	C26	0.902780	0.731020	0.867500
C271	C27	0.889200	0.841800	0.911800
C281	C28	0.802900	0.878300	0.849500
C291	C29	0.727460	0.804740	0.742800
C301	C30	0.737400	0.693000	0.701000
C311	C31	0.824910	0.655890	0.762300
C321	C32	0.639420	0.850380	0.673900
C331	C33	0.347230	0.800370	0.032900
C341	C34	0.427300	0.903900	0.015400
C351	C35	0.445000	0.897200	0.909900
C361	C36	0.483500	0.006900	0.105000
C371	C37	0.299320	0.995080	0.566600
C381	C38	0.268980	0.097220	0.632500
C391	C39	0.158200	0.110800	0.588200
C401	C40	0.121700	0.197100	0.650500
C411	C41	0.195260	0.272540	0.757200
C421	C42	0.307000	0.262600	0.799000
C431	C43	0.344110	0.175090	0.737700
C441	C44	0.149620	0.360580	0.826100
C451	C45	0.199630	0.652770	0.467100
C461	C46	0.096100	0.572700	0.484600
C471	C47	0.102800	0.555000	0.590100
C481	C48	0.993100	0.516500	0.395000
O11	O1	0.921530	0.224270	0.980100
O21	O2	0.986820	0.404040	0.106500
O31	O3	0.339470	0.043330	0.313200
O41	O4	0.454250	0.227590	0.394700
O51	O5	0.711450	0.287690	0.057000
O61	O6	0.659350	0.194030	0.870300
O71	O7	0.824830	0.419230	0.880400
O81	O8	0.775730	0.078470	0.519900
O91	O9	0.595960	0.013180	0.393500
O101	O10	0.956670	0.660530	0.186800
O111	O11	0.772410	0.545750	0.105300
O121	O12	0.712310	0.288550	0.443000
O131	O13	0.805970	0.340650	0.629700
O141	O14	0.580770	0.175170	0.619600
O151	O15	0.078470	0.775730	0.019900
O161	O16	0.013180	0.595960	0.893500
O171	O17	0.660530	0.956670	0.686800
O181	O18	0.545750	0.772410	0.605300
O191	O19	0.288550	0.712310	0.943000
O201	O20	0.340650	0.805970	0.129700
O211	O21	0.175170	0.580770	0.119600
O221	O22	0.224270	0.921530	0.480100
O231	O23	0.404040	0.986820	0.606500
O241	O24	0.043330	0.339470	0.813200
O251	O25	0.227590	0.454250	0.894700
O261	O26	0.287690	0.711450	0.557000
O271	O27	0.194030	0.659350	0.370300
O281	O28	0.419230	0.824830	0.380400
