data_GAYFUJ_clean_PM
_symmetry_space_group_name_H-M	'P1'
_cell_length_a	10.090300
_cell_length_b	10.090300
_cell_length_c	21.256800
_cell_angle_alpha	90.000000
_cell_angle_beta	90.000000
_cell_angle_gamma	120.000000
_symmetry_Int_Tables_number 1

loop_
_symmetry_equiv_pos_as_xyz
'x,y,z'

loop_
_atom_site_label
_atom_site_type_symbol
_atom_site_fract_x
_atom_site_fract_y
_atom_site_fract_z
Cd11	Cd1	0.911810	0.088180	0.750000
Cd21	Cd2	0.176370	0.088180	0.416670
Cd31	Cd3	0.911810	0.823620	0.083330
Cd41	Cd4	0.088180	0.911810	0.250000
Cd51	Cd5	0.823630	0.911820	0.916670
Cd61	Cd6	0.088180	0.176370	0.583330
H11	H1	0.210320	0.398910	0.806020
H21	H2	0.441730	0.510800	0.643260
H31	H3	0.188590	0.789680	0.472690
H41	H4	0.069070	0.558270	0.309930
H51	H5	0.601090	0.811410	0.139350
H61	H6	0.489200	0.930930	0.976590
H71	H7	0.789680	0.601090	0.306020
H81	H8	0.558270	0.489200	0.143260
H91	H9	0.811410	0.210320	0.972690
H101	H10	0.930930	0.441730	0.809930
H111	H11	0.398910	0.188590	0.639350
H121	H12	0.510800	0.069070	0.476590
H131	H13	0.811410	0.601090	0.860650
H141	H14	0.930930	0.489200	0.023410
H151	H15	0.398910	0.210320	0.193980
H161	H16	0.510800	0.441730	0.356740
H171	H17	0.789680	0.188590	0.527310
H181	H18	0.558270	0.069070	0.690070
H191	H19	0.188590	0.398910	0.360650
H201	H20	0.069070	0.510800	0.523410
H211	H21	0.601090	0.789680	0.693980
H221	H22	0.489200	0.558270	0.856740
H231	H23	0.210320	0.811410	0.027310
H241	H24	0.441730	0.930930	0.190070
C11	C1	0.369930	0.501000	0.735060
C21	C2	0.237010	0.397350	0.763280
C31	C3	0.364080	0.458790	0.673910
C41	C4	0.131070	0.630070	0.401730
C51	C5	0.160340	0.762990	0.429950
C61	C6	0.094710	0.635920	0.340580
C71	C7	0.499000	0.868930	0.068390
C81	C8	0.602650	0.839660	0.096610
C91	C9	0.541210	0.905290	0.007240
C101	C10	0.630070	0.499000	0.235060
C111	C11	0.762990	0.602650	0.263280
C121	C12	0.635920	0.541210	0.173910
C131	C13	0.868930	0.369930	0.901730
C141	C14	0.839660	0.237010	0.929950
C151	C15	0.905290	0.364080	0.840580
C161	C16	0.501000	0.131070	0.568390
C171	C17	0.397350	0.160340	0.596610
C181	C18	0.458790	0.094710	0.507240
C191	C19	0.868930	0.499000	0.931610
C201	C20	0.839660	0.602650	0.903390
C211	C21	0.905290	0.541210	0.992760
C221	C22	0.501000	0.369930	0.264940
C231	C23	0.397350	0.237010	0.236720
C241	C24	0.458790	0.364080	0.326090
C251	C25	0.630070	0.131070	0.598270
C261	C26	0.762990	0.160340	0.570050
C271	C27	0.635920	0.094710	0.659420
C281	C28	0.131070	0.501000	0.431610
C291	C29	0.160340	0.397350	0.403390
C301	C30	0.094710	0.458790	0.492760
C311	C31	0.499000	0.630070	0.764940
C321	C32	0.602650	0.762990	0.736720
C331	C33	0.541210	0.635920	0.826090
C341	C34	0.369930	0.868930	0.098270
C351	C35	0.237010	0.839660	0.070050
C361	C36	0.364080	0.905290	0.159420
N11	N1	0.149010	0.291100	0.719560
N21	N2	0.227540	0.329070	0.664330
N31	N3	0.142090	0.850990	0.386230
N41	N4	0.101530	0.772460	0.331000
N51	N5	0.708900	0.857910	0.052890
N61	N6	0.670930	0.898470	0.997660
N71	N7	0.850990	0.708900	0.219560
N81	N8	0.772460	0.670930	0.164330
N91	N9	0.857910	0.149010	0.886230
N101	N10	0.898470	0.227540	0.831000
N111	N11	0.291100	0.142090	0.552890
N121	N12	0.329070	0.101530	0.497660
N131	N13	0.857910	0.708900	0.947110
N141	N14	0.898470	0.670930	0.002340
N151	N15	0.291100	0.149010	0.280440
N161	N16	0.329070	0.227540	0.335670
N171	N17	0.850990	0.142090	0.613770
N181	N18	0.772460	0.101530	0.669000
N191	N19	0.142090	0.291100	0.447110
N201	N20	0.101530	0.329070	0.502340
N211	N21	0.708900	0.850990	0.780440
N221	N22	0.670930	0.772460	0.835670
N231	N23	0.149010	0.857910	0.113770
N241	N24	0.227540	0.898470	0.169000
