data_GAYGAQ_clean_h_PM
_symmetry_space_group_name_H-M	'P1'
_cell_length_a	7.132800
_cell_length_b	8.720700
_cell_length_c	9.698400
_cell_angle_alpha	116.718000
_cell_angle_beta	111.576000
_cell_angle_gamma	90.000000
_symmetry_Int_Tables_number 1

loop_
_symmetry_equiv_pos_as_xyz
'x,y,z'

loop_
_atom_site_label
_atom_site_type_symbol
_atom_site_fract_x
_atom_site_fract_y
_atom_site_fract_z
Cu11	Cu1	0.000000	0.000000	0.000000
Cu21	Cu2	0.500000	0.000000	0.000000
C11	C1	0.929880	0.672070	0.668280
C21	C2	0.570120	0.003790	0.331720
C31	C3	0.761600	0.327930	0.331720
C41	C4	0.738400	0.996210	0.668280
C51	C5	0.070120	0.327930	0.331720
C61	C6	0.429880	0.996210	0.668280
C71	C7	0.238400	0.672070	0.668280
C81	C8	0.261600	0.003790	0.331720
C91	C9	0.039110	0.585160	0.578220
C101	C10	0.460890	0.006940	0.421780
C111	C11	0.960890	0.414840	0.421780
C121	C12	0.539110	0.993060	0.578220
N11	N1	0.061680	0.812720	0.814020
N21	N2	0.438320	0.998700	0.185980
N31	N3	0.747660	0.187280	0.185980
N41	N4	0.752340	0.001300	0.814020
N51	N5	0.938320	0.187280	0.185980
N61	N6	0.561680	0.001300	0.814020
N71	N7	0.252340	0.812720	0.814020
N81	N8	0.247660	0.998700	0.185980
H11	H1	0.757750	0.621640	0.616030
H21	H2	0.742250	0.005610	0.383970
H31	H3	0.641720	0.378360	0.383970
H41	H4	0.858280	0.994390	0.616030
H51	H5	0.242250	0.378360	0.383970
H61	H6	0.257750	0.994390	0.616030
H71	H7	0.358280	0.621640	0.616030
H81	H8	0.141720	0.005610	0.383970
