data_GAZZIS03_charged_PM
_symmetry_space_group_name_H-M	'P1'
_cell_length_a	17.339100
_cell_length_b	17.339100
_cell_length_c	26.562000
_cell_angle_alpha	93.846400
_cell_angle_beta	93.846400
_cell_angle_gamma	110.679000
_symmetry_Int_Tables_number 1

loop_
_symmetry_equiv_pos_as_xyz
'x,y,z'

loop_
_atom_site_label
_atom_site_type_symbol
_atom_site_fract_x
_atom_site_fract_y
_atom_site_fract_z
In11	In1	0.370540	0.857780	0.884820
In21	In2	0.857780	0.370540	0.384820
H11	H1	0.212200	0.764200	0.023600
H21	H2	0.095600	0.684800	0.060000
H31	H3	0.969000	0.623000	0.921800
H41	H4	0.084600	0.705200	0.886200
H51	H5	0.802300	0.344500	0.211200
H61	H6	0.797500	0.376100	0.128300
H71	H7	0.986700	0.593100	0.167000
H81	H8	0.990900	0.562100	0.249700
H91	H9	0.389200	0.139800	0.869400
H101	H10	0.460900	0.281900	0.883200
H111	H11	0.600500	0.245100	0.000300
H121	H12	0.532400	0.104200	0.985100
H131	H13	0.600300	0.763700	0.903400
H141	H14	0.664800	0.667800	0.920800
H151	H15	0.440600	0.495600	0.935600
H161	H16	0.378700	0.587700	0.912600
H171	H17	0.760100	0.447900	0.071500
H181	H18	0.860100	0.585300	0.958800
H191	H19	0.006100	0.579300	0.082600
H201	H20	0.710300	0.596700	0.971700
H211	H21	0.691000	0.360400	0.986300
H221	H22	0.497500	0.407900	0.921400
H231	H23	0.764200	0.212200	0.523600
H241	H24	0.684800	0.095600	0.560000
H251	H25	0.623000	0.969000	0.421800
H261	H26	0.705200	0.084600	0.386200
H271	H27	0.344500	0.802300	0.711200
H281	H28	0.376100	0.797500	0.628300
H291	H29	0.593100	0.986700	0.667000
H301	H30	0.562100	0.990900	0.749700
H311	H31	0.139800	0.389200	0.369400
H321	H32	0.281900	0.460900	0.383200
H331	H33	0.245100	0.600500	0.500300
H341	H34	0.104200	0.532400	0.485100
H351	H35	0.763700	0.600300	0.403400
H361	H36	0.667800	0.664800	0.420800
H371	H37	0.495600	0.440600	0.435600
H381	H38	0.587700	0.378700	0.412600
H391	H39	0.447900	0.760100	0.571500
H401	H40	0.585300	0.860100	0.458800
H411	H41	0.579300	0.006100	0.582600
H421	H42	0.596700	0.710300	0.471700
H431	H43	0.360400	0.691000	0.486300
H441	H44	0.407900	0.497500	0.421400
C11	C1	0.160390	0.743490	0.951970
C21	C2	0.162110	0.735910	0.002580
C31	C3	0.092900	0.688020	0.024400
C41	C4	0.019480	0.644700	0.994200
C51	C5	0.018540	0.652220	0.943110
C61	C6	0.087270	0.700890	0.921650
C71	C7	0.896520	0.450600	0.239200
C81	C8	0.839670	0.395530	0.202310
C91	C9	0.837050	0.414450	0.153040
C101	C10	0.891010	0.488410	0.138440
C111	C11	0.948540	0.542500	0.175810
C121	C12	0.951110	0.524030	0.224920
C131	C13	0.455840	0.107640	0.924480
C141	C14	0.433750	0.161230	0.895420
C151	C15	0.475990	0.245950	0.903990
C161	C16	0.539760	0.278880	0.942380
C171	C17	0.558500	0.223740	0.972830
C181	C18	0.517970	0.140190	0.964050
C191	C19	0.480870	0.685110	0.908490
C201	C20	0.556840	0.572040	0.931490
C211	C21	0.567800	0.709000	0.909900
C221	C22	0.606500	0.652500	0.920700
C231	C23	0.474000	0.549800	0.928800
C241	C24	0.437500	0.605900	0.916100
C251	C25	0.884320	0.511100	0.085930
C261	C26	0.807070	0.484650	0.057920
C271	C27	0.798010	0.511150	0.010650
C281	C28	0.866810	0.565270	0.990580
C291	C29	0.945210	0.590090	0.016910
C301	C30	0.952830	0.562610	0.064360
C311	C31	0.597210	0.512270	0.945220
C321	C32	0.678240	0.539100	0.967290
C331	C33	0.713060	0.482840	0.983000
C341	C34	0.667200	0.398720	0.975290
C351	C35	0.587010	0.369570	0.951720
C361	C36	0.552590	0.426990	0.937170
C371	C37	0.236090	0.791710	0.928670
C381	C38	0.896890	0.433710	0.293890
C391	C39	0.416410	0.016410	0.912490
C401	C40	0.439070	0.745250	0.898270
C411	C41	0.743490	0.160390	0.451970
C421	C42	0.735910	0.162110	0.502580
C431	C43	0.688020	0.092900	0.524400
C441	C44	0.644700	0.019480	0.494200
C451	C45	0.652220	0.018540	0.443110
C461	C46	0.700890	0.087270	0.421650
C471	C47	0.450600	0.896520	0.739200
C481	C48	0.395530	0.839670	0.702310
C491	C49	0.414450	0.837050	0.653040
C501	C50	0.488410	0.891010	0.638440
C511	C51	0.542500	0.948540	0.675810
C521	C52	0.524030	0.951110	0.724920
C531	C53	0.107640	0.455840	0.424480
C541	C54	0.161230	0.433750	0.395420
C551	C55	0.245950	0.475990	0.403990
C561	C56	0.278880	0.539760	0.442380
C571	C57	0.223740	0.558500	0.472830
C581	C58	0.140190	0.517970	0.464050
C591	C59	0.685110	0.480870	0.408490
C601	C60	0.572040	0.556840	0.431490
C611	C61	0.709000	0.567800	0.409900
C621	C62	0.652500	0.606500	0.420700
C631	C63	0.549800	0.474000	0.428800
C641	C64	0.605900	0.437500	0.416100
C651	C65	0.511100	0.884320	0.585930
C661	C66	0.484650	0.807070	0.557920
C671	C67	0.511150	0.798010	0.510650
C681	C68	0.565270	0.866810	0.490580
C691	C69	0.590090	0.945210	0.516910
C701	C70	0.562610	0.952830	0.564360
C711	C71	0.512270	0.597210	0.445220
C721	C72	0.539100	0.678240	0.467290
C731	C73	0.482840	0.713060	0.483000
C741	C74	0.398720	0.667200	0.475290
C751	C75	0.369570	0.587010	0.451720
C761	C76	0.426990	0.552590	0.437170
C771	C77	0.791710	0.236090	0.428670
C781	C78	0.433710	0.896890	0.793890
C791	C79	0.016410	0.416410	0.412490
C801	C80	0.745250	0.439070	0.398270
O11	O1	0.233020	0.797660	0.881320
O21	O2	0.303980	0.825480	0.955590
O31	O3	0.844190	0.366730	0.304920
O41	O4	0.947140	0.485360	0.326750
O51	O5	0.352610	0.983970	0.882080
O61	O6	0.451880	0.971240	0.932160
O71	O7	0.480290	0.821830	0.903970
O81	O8	0.363310	0.720370	0.884940
O91	O9	0.797660	0.233020	0.381320
O101	O10	0.825480	0.303980	0.455590
O111	O11	0.366730	0.844190	0.804920
O121	O12	0.485360	0.947140	0.826750
O131	O13	0.983970	0.352610	0.382080
O141	O14	0.971240	0.451880	0.432160
O151	O15	0.821830	0.480290	0.403970
O161	O16	0.720370	0.363310	0.384940
In31	In3	0.142220	0.629460	0.615180
In41	In4	0.629460	0.142220	0.115180
H451	H45	0.235800	0.787800	0.476400
H461	H46	0.315200	0.904400	0.440000
H471	H47	0.377000	0.031000	0.578200
H481	H48	0.294800	0.915400	0.613800
H491	H49	0.655500	0.197700	0.288800
H501	H50	0.623900	0.202500	0.371700
H511	H51	0.406900	0.013300	0.333000
H521	H52	0.437900	0.009100	0.250300
H531	H53	0.860200	0.610800	0.630600
H541	H54	0.718100	0.539100	0.616800
H551	H55	0.754900	0.399500	0.499700
H561	H56	0.895800	0.467600	0.514900
H571	H57	0.236300	0.399700	0.596600
H581	H58	0.332200	0.335200	0.579200
H591	H59	0.504400	0.559400	0.564400
H601	H60	0.412300	0.621300	0.587400
H611	H61	0.552100	0.239900	0.428500
H621	H62	0.414700	0.139900	0.541200
H631	H63	0.420700	0.993900	0.417400
H641	H64	0.403300	0.289700	0.528300
H651	H65	0.639600	0.309000	0.513700
H661	H66	0.592100	0.502500	0.578600
H671	H67	0.787800	0.235800	0.976400
H681	H68	0.904400	0.315200	0.940000
H691	H69	0.031000	0.377000	0.078200
H701	H70	0.915400	0.294800	0.113800
H711	H71	0.197700	0.655500	0.788800
H721	H72	0.202500	0.623900	0.871700
H731	H73	0.013300	0.406900	0.833000
H741	H74	0.009100	0.437900	0.750300
H751	H75	0.610800	0.860200	0.130600
H761	H76	0.539100	0.718100	0.116800
H771	H77	0.399500	0.754900	0.999700
H781	H78	0.467600	0.895800	0.014900
H791	H79	0.399700	0.236300	0.096600
H801	H80	0.335200	0.332200	0.079200
H811	H81	0.559400	0.504400	0.064400
H821	H82	0.621300	0.412300	0.087400
H831	H83	0.239900	0.552100	0.928500
H841	H84	0.139900	0.414700	0.041200
H851	H85	0.993900	0.420700	0.917400
H861	H86	0.289700	0.403300	0.028300
H871	H87	0.309000	0.639600	0.013700
H881	H88	0.502500	0.592100	0.078600
C811	C81	0.256510	0.839610	0.548030
C821	C82	0.264090	0.837890	0.497420
C831	C83	0.311980	0.907100	0.475600
C841	C84	0.355300	0.980520	0.505800
C851	C85	0.347780	0.981460	0.556890
C861	C86	0.299110	0.912730	0.578350
C871	C87	0.549400	0.103480	0.260800
C881	C88	0.604470	0.160330	0.297690
C891	C89	0.585550	0.162950	0.346960
C901	C90	0.511590	0.108990	0.361560
C911	C91	0.457500	0.051460	0.324190
C921	C92	0.475970	0.048890	0.275080
C931	C93	0.892360	0.544160	0.575520
C941	C94	0.838770	0.566250	0.604580
C951	C95	0.754050	0.524010	0.596010
C961	C96	0.721120	0.460240	0.557620
C971	C97	0.776260	0.441500	0.527170
C981	C98	0.859810	0.482030	0.535950
C991	C99	0.314890	0.519130	0.591510
C1001	C100	0.427960	0.443160	0.568510
C1011	C101	0.291000	0.432200	0.590100
C1021	C102	0.347500	0.393500	0.579300
C1031	C103	0.450200	0.526000	0.571200
C1041	C104	0.394100	0.562500	0.583900
C1051	C105	0.488900	0.115680	0.414070
C1061	C106	0.515350	0.192930	0.442080
C1071	C107	0.488850	0.201990	0.489350
C1081	C108	0.434730	0.133190	0.509420
C1091	C109	0.409910	0.054790	0.483090
C1101	C110	0.437390	0.047170	0.435640
C1111	C111	0.487730	0.402790	0.554780
C1121	C112	0.460900	0.321760	0.532710
C1131	C113	0.517160	0.286940	0.517000
C1141	C114	0.601280	0.332800	0.524710
C1151	C115	0.630430	0.412990	0.548280
C1161	C116	0.573010	0.447410	0.562830
C1171	C117	0.208290	0.763910	0.571330
C1181	C118	0.566290	0.103110	0.206110
C1191	C119	0.983590	0.583590	0.587510
C1201	C120	0.254750	0.560930	0.601730
C1211	C121	0.839610	0.256510	0.048030
C1221	C122	0.837890	0.264090	0.997420
C1231	C123	0.907100	0.311980	0.975600
C1241	C124	0.980520	0.355300	0.005800
C1251	C125	0.981460	0.347780	0.056890
C1261	C126	0.912730	0.299110	0.078350
C1271	C127	0.103480	0.549400	0.760800
C1281	C128	0.160330	0.604470	0.797690
C1291	C129	0.162950	0.585550	0.846960
C1301	C130	0.108990	0.511590	0.861560
C1311	C131	0.051460	0.457500	0.824190
C1321	C132	0.048890	0.475970	0.775080
C1331	C133	0.544160	0.892360	0.075520
C1341	C134	0.566250	0.838770	0.104580
C1351	C135	0.524010	0.754050	0.096010
C1361	C136	0.460240	0.721120	0.057620
C1371	C137	0.441500	0.776260	0.027170
C1381	C138	0.482030	0.859810	0.035950
C1391	C139	0.519130	0.314890	0.091510
C1401	C140	0.443160	0.427960	0.068510
C1411	C141	0.432200	0.291000	0.090100
C1421	C142	0.393500	0.347500	0.079300
C1431	C143	0.526000	0.450200	0.071200
C1441	C144	0.562500	0.394100	0.083900
C1451	C145	0.115680	0.488900	0.914070
C1461	C146	0.192930	0.515350	0.942080
C1471	C147	0.201990	0.488850	0.989350
C1481	C148	0.133190	0.434730	0.009420
C1491	C149	0.054790	0.409910	0.983090
C1501	C150	0.047170	0.437390	0.935640
C1511	C151	0.402790	0.487730	0.054780
C1521	C152	0.321760	0.460900	0.032710
C1531	C153	0.286940	0.517160	0.017000
C1541	C154	0.332800	0.601280	0.024710
C1551	C155	0.412990	0.630430	0.048280
C1561	C156	0.447410	0.573010	0.062830
C1571	C157	0.763910	0.208290	0.071330
C1581	C158	0.103110	0.566290	0.706110
C1591	C159	0.583590	0.983590	0.087510
C1601	C160	0.560930	0.254750	0.101730
O171	O17	0.202340	0.766980	0.618680
O181	O18	0.174520	0.696020	0.544410
O191	O19	0.633270	0.155810	0.195080
O201	O20	0.514640	0.052860	0.173250
O211	O21	0.016030	0.647390	0.617920
O221	O22	0.028760	0.548120	0.567840
O231	O23	0.178170	0.519710	0.596030
O241	O24	0.279630	0.636690	0.615060
O251	O25	0.766980	0.202340	0.118680
O261	O26	0.696020	0.174520	0.044410
O271	O27	0.155810	0.633270	0.695080
O281	O28	0.052860	0.514640	0.673250
O291	O29	0.647390	0.016030	0.117920
O301	O30	0.548120	0.028760	0.067840
O311	O31	0.519710	0.178170	0.096030
O321	O32	0.636690	0.279630	0.115060
H891	H89	0.635100	0.951700	0.885800
H901	H90	0.564900	0.972100	0.904300
H911	H91	0.627300	0.928300	0.968400
H921	H92	0.712200	0.001800	0.961900
H931	H93	0.636000	0.022600	0.981800
H941	H94	0.633900	0.073100	0.855600
H951	H95	0.644800	0.112400	0.913100
H961	H96	0.717900	0.088900	0.890600
C1611	C161	0.651810	0.984990	0.959010
C1621	C162	0.657700	0.072900	0.890100
N11	N1	0.621710	0.988350	0.906900
H971	H97	0.048300	0.364900	0.614200
H981	H98	0.027900	0.435100	0.595700
H991	H99	0.071700	0.372700	0.531600
H1001	H100	0.998200	0.287800	0.538100
H1011	H101	0.977400	0.364000	0.518200
H1021	H102	0.926900	0.366100	0.644400
H1031	H103	0.887600	0.355200	0.586900
H1041	H104	0.911100	0.282100	0.609400
C1631	C163	0.015010	0.348190	0.540990
C1641	C164	0.927100	0.342300	0.609900
N21	N2	0.011650	0.378290	0.593100
H1051	H105	0.364900	0.048300	0.114200
H1061	H106	0.435100	0.027900	0.095700
H1071	H107	0.372700	0.071700	0.031600
H1081	H108	0.287800	0.998200	0.038100
H1091	H109	0.364000	0.977400	0.018200
H1101	H110	0.366100	0.926900	0.144400
H1111	H111	0.355200	0.887600	0.086900
H1121	H112	0.282100	0.911100	0.109400
C1651	C165	0.348190	0.015010	0.040990
C1661	C166	0.342300	0.927100	0.109900
N31	N3	0.378290	0.011650	0.093100
H1131	H113	0.951700	0.635100	0.385800
H1141	H114	0.972100	0.564900	0.404300
H1151	H115	0.928300	0.627300	0.468400
H1161	H116	0.001800	0.712200	0.461900
H1171	H117	0.022600	0.636000	0.481800
H1181	H118	0.073100	0.633900	0.355600
H1191	H119	0.112400	0.644800	0.413100
H1201	H120	0.088900	0.717900	0.390600
C1671	C167	0.984990	0.651810	0.459010
C1681	C168	0.072900	0.657700	0.390100
N41	N4	0.988350	0.621710	0.406900
