data_GAZZIS01_charged_PM
_symmetry_space_group_name_H-M	'P1'
_cell_length_a	17.317500
_cell_length_b	17.317500
_cell_length_c	26.330000
_cell_angle_alpha	94.488300
_cell_angle_beta	94.488300
_cell_angle_gamma	110.217000
_symmetry_Int_Tables_number 1

loop_
_symmetry_equiv_pos_as_xyz
'x,y,z'

loop_
_atom_site_label
_atom_site_type_symbol
_atom_site_fract_x
_atom_site_fract_y
_atom_site_fract_z
In11	In1	0.367360	0.861300	0.884170
In21	In2	0.861300	0.367360	0.384170
H11	H1	0.212900	0.766700	0.023400
H21	H2	0.097200	0.686000	0.059400
H31	H3	0.966400	0.630400	0.920200
H41	H4	0.079700	0.711900	0.885000
H51	H5	0.810600	0.344600	0.208500
H61	H6	0.801000	0.378200	0.125800
H71	H7	0.993100	0.592900	0.166400
H81	H8	0.999700	0.561700	0.249800
H91	H9	0.383000	0.141600	0.870600
H101	H10	0.454400	0.284800	0.884900
H111	H11	0.602900	0.250700	0.000600
H121	H12	0.534000	0.108000	0.985300
H131	H13	0.576000	0.771200	0.954200
H141	H14	0.636100	0.675500	0.974900
H151	H15	0.451700	0.492700	0.885300
H161	H16	0.389000	0.585400	0.865300
H171	H17	0.763000	0.450600	0.069900
H181	H18	0.858900	0.588500	0.956800
H191	H19	0.009000	0.580000	0.081100
H201	H20	0.710100	0.599500	0.968500
H211	H21	0.691400	0.364600	0.985600
H221	H22	0.494000	0.410800	0.922200
H231	H23	0.766700	0.212900	0.523400
H241	H24	0.686000	0.097200	0.559400
H251	H25	0.630400	0.966400	0.420200
H261	H26	0.711900	0.079700	0.385000
H271	H27	0.344600	0.810600	0.708500
H281	H28	0.378200	0.801000	0.625800
H291	H29	0.592900	0.993100	0.666400
H301	H30	0.561700	0.999700	0.749800
H311	H31	0.141600	0.383000	0.370600
H321	H32	0.284800	0.454400	0.384900
H331	H33	0.250700	0.602900	0.500600
H341	H34	0.108000	0.534000	0.485300
H351	H35	0.771200	0.576000	0.454200
H361	H36	0.675500	0.636100	0.474900
H371	H37	0.492700	0.451700	0.385300
H381	H38	0.585400	0.389000	0.365300
H391	H39	0.450600	0.763000	0.569900
H401	H40	0.588500	0.858900	0.456800
H411	H41	0.580000	0.009000	0.581100
H421	H42	0.599500	0.710100	0.468500
H431	H43	0.364600	0.691400	0.485600
H441	H44	0.410800	0.494000	0.422200
C11	C1	0.158810	0.746770	0.950590
C21	C2	0.162440	0.738680	0.002030
C31	C3	0.093580	0.690240	0.023650
C41	C4	0.018990	0.647770	0.992720
C51	C5	0.016720	0.657860	0.941810
C61	C6	0.084240	0.706200	0.920570
C71	C7	0.904200	0.451380	0.238540
C81	C8	0.846630	0.396190	0.200290
C91	C9	0.841690	0.415790	0.151040
C101	C10	0.895400	0.489880	0.137340
C111	C11	0.954690	0.542830	0.175100
C121	C12	0.958860	0.524240	0.224660
C131	C13	0.454090	0.111050	0.925540
C141	C14	0.428850	0.163770	0.896320
C151	C15	0.471120	0.249020	0.905010
C161	C16	0.537970	0.282130	0.943120
C171	C17	0.559340	0.228680	0.973400
C181	C18	0.518100	0.143700	0.964530
C191	C19	0.478500	0.688820	0.905640
C201	C20	0.555240	0.575040	0.929360
C211	C21	0.551700	0.715100	0.939500
C221	C22	0.587500	0.657900	0.951100
C231	C23	0.477900	0.549300	0.898200
C241	C24	0.440400	0.604000	0.886400
C251	C25	0.887250	0.513590	0.084390
C261	C26	0.809260	0.487440	0.056320
C271	C27	0.797730	0.514410	0.008420
C281	C28	0.866350	0.568390	0.988650
C291	C29	0.945720	0.593040	0.015310
C301	C30	0.955320	0.564440	0.063040
C311	C31	0.594990	0.515410	0.943350
C321	C32	0.677650	0.542150	0.964960
C331	C33	0.712980	0.486380	0.981210
C341	C34	0.667120	0.402640	0.974370
C351	C35	0.586220	0.373420	0.951440
C361	C36	0.550110	0.430390	0.936820
C371	C37	0.233520	0.794860	0.927550
C381	C38	0.905750	0.434650	0.293690
C391	C39	0.413490	0.019050	0.913760
C401	C40	0.436660	0.748300	0.895090
C411	C41	0.746770	0.158810	0.450590
C421	C42	0.738680	0.162440	0.502030
C431	C43	0.690240	0.093580	0.523650
C441	C44	0.647770	0.018990	0.492720
C451	C45	0.657860	0.016720	0.441810
C461	C46	0.706200	0.084240	0.420570
C471	C47	0.451380	0.904200	0.738540
C481	C48	0.396190	0.846630	0.700290
C491	C49	0.415790	0.841690	0.651040
C501	C50	0.489880	0.895400	0.637340
C511	C51	0.542830	0.954690	0.675100
C521	C52	0.524240	0.958860	0.724660
C531	C53	0.111050	0.454090	0.425540
C541	C54	0.163770	0.428850	0.396320
C551	C55	0.249020	0.471120	0.405010
C561	C56	0.282130	0.537970	0.443120
C571	C57	0.228680	0.559340	0.473400
C581	C58	0.143700	0.518100	0.464530
C591	C59	0.688820	0.478500	0.405640
C601	C60	0.575040	0.555240	0.429360
C611	C61	0.715100	0.551700	0.439500
C621	C62	0.657900	0.587500	0.451100
C631	C63	0.549300	0.477900	0.398200
C641	C64	0.604000	0.440400	0.386400
C651	C65	0.513590	0.887250	0.584390
C661	C66	0.487440	0.809260	0.556320
C671	C67	0.514410	0.797730	0.508420
C681	C68	0.568390	0.866350	0.488650
C691	C69	0.593040	0.945720	0.515310
C701	C70	0.564440	0.955320	0.563040
C711	C71	0.515410	0.594990	0.443350
C721	C72	0.542150	0.677650	0.464960
C731	C73	0.486380	0.712980	0.481210
C741	C74	0.402640	0.667120	0.474370
C751	C75	0.373420	0.586220	0.451440
C761	C76	0.430390	0.550110	0.436820
C771	C77	0.794860	0.233520	0.427550
C781	C78	0.434650	0.905750	0.793690
C791	C79	0.019050	0.413490	0.413760
C801	C80	0.748300	0.436660	0.395090
O11	O1	0.229990	0.801710	0.879610
O21	O2	0.303050	0.826930	0.955310
O31	O3	0.851270	0.366890	0.303750
O41	O4	0.957240	0.485100	0.326660
O51	O5	0.348430	0.986950	0.883080
O61	O6	0.449500	0.973960	0.933360
O71	O7	0.477880	0.825360	0.901540
O81	O8	0.360810	0.723830	0.880970
O91	O9	0.801710	0.229990	0.379610
O101	O10	0.826930	0.303050	0.455310
O111	O11	0.366890	0.851270	0.803750
O121	O12	0.485100	0.957240	0.826660
O131	O13	0.986950	0.348430	0.383080
O141	O14	0.973960	0.449500	0.433360
O151	O15	0.825360	0.477880	0.401540
O161	O16	0.723830	0.360810	0.380970
In31	In3	0.138700	0.632640	0.615830
In41	In4	0.632640	0.138700	0.115830
H451	H45	0.233300	0.787100	0.476600
H461	H46	0.314000	0.902800	0.440600
H471	H47	0.369600	0.033600	0.579800
H481	H48	0.288100	0.920300	0.615000
H491	H49	0.655400	0.189400	0.291500
H501	H50	0.621800	0.199000	0.374200
H511	H51	0.407100	0.006900	0.333600
H521	H52	0.438300	0.000300	0.250200
H531	H53	0.858400	0.617000	0.629400
H541	H54	0.715200	0.545600	0.615100
H551	H55	0.749300	0.397100	0.499400
H561	H56	0.892000	0.466000	0.514700
H571	H57	0.228800	0.424000	0.545800
H581	H58	0.324500	0.363900	0.525100
H591	H59	0.507300	0.548300	0.614700
H601	H60	0.414600	0.611000	0.634700
H611	H61	0.549400	0.237000	0.430100
H621	H62	0.411500	0.141100	0.543200
H631	H63	0.420000	0.991000	0.418900
H641	H64	0.400500	0.289900	0.531500
H651	H65	0.635400	0.308600	0.514400
H661	H66	0.589200	0.506000	0.577800
H671	H67	0.787100	0.233300	0.976600
H681	H68	0.902800	0.314000	0.940600
H691	H69	0.033600	0.369600	0.079800
H701	H70	0.920300	0.288100	0.115000
H711	H71	0.189400	0.655400	0.791500
H721	H72	0.199000	0.621800	0.874200
H731	H73	0.006900	0.407100	0.833600
H741	H74	0.000300	0.438300	0.750200
H751	H75	0.617000	0.858400	0.129400
H761	H76	0.545600	0.715200	0.115100
H771	H77	0.397100	0.749300	0.999400
H781	H78	0.466000	0.892000	0.014700
H791	H79	0.424000	0.228800	0.045800
H801	H80	0.363900	0.324500	0.025100
H811	H81	0.548300	0.507300	0.114700
H821	H82	0.611000	0.414600	0.134700
H831	H83	0.237000	0.549400	0.930100
H841	H84	0.141100	0.411500	0.043200
H851	H85	0.991000	0.420000	0.918900
H861	H86	0.289900	0.400500	0.031500
H871	H87	0.308600	0.635400	0.014400
H881	H88	0.506000	0.589200	0.077800
C811	C81	0.253230	0.841190	0.549410
C821	C82	0.261320	0.837560	0.497970
C831	C83	0.309760	0.906420	0.476350
C841	C84	0.352230	0.981010	0.507280
C851	C85	0.342140	0.983280	0.558190
C861	C86	0.293800	0.915760	0.579430
C871	C87	0.548620	0.095800	0.261460
C881	C88	0.603810	0.153370	0.299710
C891	C89	0.584210	0.158310	0.348960
C901	C90	0.510120	0.104600	0.362660
C911	C91	0.457170	0.045310	0.324900
C921	C92	0.475760	0.041140	0.275340
C931	C93	0.888950	0.545910	0.574460
C941	C94	0.836230	0.571150	0.603680
C951	C95	0.750980	0.528880	0.594990
C961	C96	0.717870	0.462030	0.556880
C971	C97	0.771320	0.440660	0.526600
C981	C98	0.856300	0.481900	0.535470
C991	C99	0.311180	0.521500	0.594360
C1001	C100	0.424960	0.444760	0.570640
C1011	C101	0.284900	0.448300	0.560500
C1021	C102	0.342100	0.412500	0.548900
C1031	C103	0.450700	0.522100	0.601800
C1041	C104	0.396000	0.559600	0.613600
C1051	C105	0.486410	0.112750	0.415610
C1061	C106	0.512560	0.190740	0.443680
C1071	C107	0.485590	0.202270	0.491580
C1081	C108	0.431610	0.133650	0.511350
C1091	C109	0.406960	0.054280	0.484690
C1101	C110	0.435560	0.044680	0.436960
C1111	C111	0.484590	0.405010	0.556650
C1121	C112	0.457850	0.322350	0.535040
C1131	C113	0.513620	0.287020	0.518790
C1141	C114	0.597360	0.332880	0.525630
C1151	C115	0.626580	0.413780	0.548560
C1161	C116	0.569610	0.449890	0.563180
C1171	C117	0.205140	0.766480	0.572450
C1181	C118	0.565350	0.094250	0.206310
C1191	C119	0.980950	0.586510	0.586240
C1201	C120	0.251700	0.563340	0.604910
C1211	C121	0.841190	0.253230	0.049410
C1221	C122	0.837560	0.261320	0.997970
C1231	C123	0.906420	0.309760	0.976350
C1241	C124	0.981010	0.352230	0.007280
C1251	C125	0.983280	0.342140	0.058190
C1261	C126	0.915760	0.293800	0.079430
C1271	C127	0.095800	0.548620	0.761460
C1281	C128	0.153370	0.603810	0.799710
C1291	C129	0.158310	0.584210	0.848960
C1301	C130	0.104600	0.510120	0.862660
C1311	C131	0.045310	0.457170	0.824900
C1321	C132	0.041140	0.475760	0.775340
C1331	C133	0.545910	0.888950	0.074460
C1341	C134	0.571150	0.836230	0.103680
C1351	C135	0.528880	0.750980	0.094990
C1361	C136	0.462030	0.717870	0.056880
C1371	C137	0.440660	0.771320	0.026600
C1381	C138	0.481900	0.856300	0.035470
C1391	C139	0.521500	0.311180	0.094360
C1401	C140	0.444760	0.424960	0.070640
C1411	C141	0.448300	0.284900	0.060500
C1421	C142	0.412500	0.342100	0.048900
C1431	C143	0.522100	0.450700	0.101800
C1441	C144	0.559600	0.396000	0.113600
C1451	C145	0.112750	0.486410	0.915610
C1461	C146	0.190740	0.512560	0.943680
C1471	C147	0.202270	0.485590	0.991580
C1481	C148	0.133650	0.431610	0.011350
C1491	C149	0.054280	0.406960	0.984690
C1501	C150	0.044680	0.435560	0.936960
C1511	C151	0.405010	0.484590	0.056650
C1521	C152	0.322350	0.457850	0.035040
C1531	C153	0.287020	0.513620	0.018790
C1541	C154	0.332880	0.597360	0.025630
C1551	C155	0.413780	0.626580	0.048560
C1561	C156	0.449890	0.569610	0.063180
C1571	C157	0.766480	0.205140	0.072450
C1581	C158	0.094250	0.565350	0.706310
C1591	C159	0.586510	0.980950	0.086240
C1601	C160	0.563340	0.251700	0.104910
O171	O17	0.198290	0.770010	0.620390
O181	O18	0.173070	0.696950	0.544690
O191	O19	0.633110	0.148730	0.196250
O201	O20	0.514900	0.042760	0.173340
O211	O21	0.013050	0.651570	0.616920
O221	O22	0.026040	0.550500	0.566640
O231	O23	0.174640	0.522120	0.598460
O241	O24	0.276170	0.639190	0.619030
O251	O25	0.770010	0.198290	0.120390
O261	O26	0.696950	0.173070	0.044690
O271	O27	0.148730	0.633110	0.696250
O281	O28	0.042760	0.514900	0.673340
O291	O29	0.651570	0.013050	0.116920
O301	O30	0.550500	0.026040	0.066640
O311	O31	0.522120	0.174640	0.098460
O321	O32	0.639190	0.276170	0.119030
H891	H89	0.631600	0.953800	0.883600
H901	H90	0.562000	0.974800	0.903200
H911	H91	0.625100	0.927300	0.967800
H921	H92	0.710500	0.999500	0.962100
H931	H93	0.635800	0.022000	0.983300
H941	H94	0.636900	0.083300	0.858500
H951	H95	0.645300	0.116900	0.917800
H961	H96	0.718700	0.093700	0.895300
C1611	C161	0.650250	0.984150	0.959360
C1621	C162	0.658500	0.078900	0.893300
N11	N1	0.618700	0.989560	0.906160
H971	H97	0.046200	0.368400	0.616400
H981	H98	0.025200	0.438000	0.596800
H991	H99	0.072700	0.374900	0.532200
H1001	H100	0.000500	0.289500	0.537900
H1011	H101	0.978000	0.364200	0.516700
H1021	H102	0.916700	0.363100	0.641500
H1031	H103	0.883100	0.354700	0.582200
H1041	H104	0.906300	0.281300	0.604700
C1631	C163	0.015850	0.349750	0.540640
C1641	C164	0.921100	0.341500	0.606700
N21	N2	0.010440	0.381300	0.593840
H1051	H105	0.368400	0.046200	0.116400
H1061	H106	0.438000	0.025200	0.096800
H1071	H107	0.374900	0.072700	0.032200
H1081	H108	0.289500	0.000500	0.037900
H1091	H109	0.364200	0.978000	0.016700
H1101	H110	0.363100	0.916700	0.141500
H1111	H111	0.354700	0.883100	0.082200
H1121	H112	0.281300	0.906300	0.104700
C1651	C165	0.349750	0.015850	0.040640
C1661	C166	0.341500	0.921100	0.106700
N31	N3	0.381300	0.010440	0.093840
H1131	H113	0.953800	0.631600	0.383600
H1141	H114	0.974800	0.562000	0.403200
H1151	H115	0.927300	0.625100	0.467800
H1161	H116	0.999500	0.710500	0.462100
H1171	H117	0.022000	0.635800	0.483300
H1181	H118	0.083300	0.636900	0.358500
H1191	H119	0.116900	0.645300	0.417800
H1201	H120	0.093700	0.718700	0.395300
C1671	C167	0.984150	0.650250	0.459360
C1681	C168	0.078900	0.658500	0.393300
N41	N4	0.989560	0.618700	0.406160
