data_GEDDEA_clean_PM
_symmetry_space_group_name_H-M	'P1'
_cell_length_a	18.246300
_cell_length_b	18.246300
_cell_length_c	18.246300
_cell_angle_alpha	95.008700
_cell_angle_beta	95.008700
_cell_angle_gamma	95.008700
_symmetry_Int_Tables_number 1

loop_
_symmetry_equiv_pos_as_xyz
'x,y,z'

loop_
_atom_site_label
_atom_site_type_symbol
_atom_site_fract_x
_atom_site_fract_y
_atom_site_fract_z
Ni11	Ni1	0.746400	0.416360	0.223080
Ni21	Ni2	0.580090	0.274400	0.795120
Ni31	Ni3	0.629780	0.537390	0.242430
Ni41	Ni4	0.825200	0.294180	0.295860
Ni51	Ni5	0.223080	0.746400	0.416360
Ni61	Ni6	0.795120	0.580090	0.274400
Ni71	Ni7	0.242430	0.629780	0.537390
Ni81	Ni8	0.295860	0.825200	0.294180
Ni91	Ni9	0.416360	0.223080	0.746400
Ni101	Ni10	0.274400	0.795120	0.580090
Ni111	Ni11	0.537390	0.242430	0.629780
Ni121	Ni12	0.294180	0.295860	0.825200
Ni131	Ni13	0.253600	0.583640	0.776920
Ni141	Ni14	0.419910	0.725600	0.204880
Ni151	Ni15	0.370220	0.462610	0.757570
Ni161	Ni16	0.174800	0.705820	0.704140
Ni171	Ni17	0.776920	0.253600	0.583640
Ni181	Ni18	0.204880	0.419910	0.725600
Ni191	Ni19	0.757570	0.370220	0.462610
Ni201	Ni20	0.704140	0.174800	0.705820
Ni211	Ni21	0.583640	0.776920	0.253600
Ni221	Ni22	0.725600	0.204880	0.419910
Ni231	Ni23	0.462610	0.757570	0.370220
Ni241	Ni24	0.705820	0.704140	0.174800
H11	H1	0.724600	0.296200	0.003900
H21	H2	0.803400	0.119300	0.895900
H31	H3	0.877700	0.099400	0.008000
H41	H4	0.885200	0.188800	0.108200
H51	H5	0.713600	0.486800	0.346900
H61	H6	0.572400	0.154800	0.720600
H71	H7	0.961400	0.471900	0.240900
H81	H8	0.003500	0.507800	0.177300
H91	H9	0.956800	0.557400	0.229000
H101	H10	0.838500	0.548900	0.042900
H111	H11	0.882600	0.604000	0.108400
H121	H12	0.926900	0.555000	0.053700
H131	H13	0.498000	0.395200	0.142000
H141	H14	0.520600	0.467500	0.102300
H151	H15	0.493400	0.391200	0.053700
H161	H16	0.680400	0.430800	0.012800
H171	H17	0.595300	0.416700	0.981200
H181	H18	0.624300	0.490200	0.033500
H191	H19	0.003900	0.724600	0.296200
H201	H20	0.895900	0.803400	0.119300
H211	H21	0.008000	0.877700	0.099400
H221	H22	0.108200	0.885200	0.188800
H231	H23	0.346900	0.713600	0.486800
H241	H24	0.720600	0.572400	0.154800
H251	H25	0.240900	0.961400	0.471900
H261	H26	0.177300	0.003500	0.507800
H271	H27	0.229000	0.956800	0.557400
H281	H28	0.042900	0.838500	0.548900
H291	H29	0.108400	0.882600	0.604000
H301	H30	0.053700	0.926900	0.555000
H311	H31	0.142000	0.498000	0.395200
H321	H32	0.102300	0.520600	0.467500
H331	H33	0.053700	0.493400	0.391200
H341	H34	0.012800	0.680400	0.430800
H351	H35	0.981200	0.595300	0.416700
H361	H36	0.033500	0.624300	0.490200
H371	H37	0.296200	0.003900	0.724600
H381	H38	0.119300	0.895900	0.803400
H391	H39	0.099400	0.008000	0.877700
H401	H40	0.188800	0.108200	0.885200
H411	H41	0.486800	0.346900	0.713600
H421	H42	0.154800	0.720600	0.572400
H431	H43	0.471900	0.240900	0.961400
H441	H44	0.507800	0.177300	0.003500
H451	H45	0.557400	0.229000	0.956800
H461	H46	0.548900	0.042900	0.838500
H471	H47	0.604000	0.108400	0.882600
H481	H48	0.555000	0.053700	0.926900
H491	H49	0.395200	0.142000	0.498000
H501	H50	0.467500	0.102300	0.520600
H511	H51	0.391200	0.053700	0.493400
H521	H52	0.430800	0.012800	0.680400
H531	H53	0.416700	0.981200	0.595300
H541	H54	0.490200	0.033500	0.624300
H551	H55	0.275400	0.703800	0.996100
H561	H56	0.196600	0.880700	0.104100
H571	H57	0.122300	0.900600	0.992000
H581	H58	0.114800	0.811200	0.891800
H591	H59	0.286400	0.513200	0.653100
H601	H60	0.427600	0.845200	0.279400
H611	H61	0.038600	0.528100	0.759100
H621	H62	0.996500	0.492200	0.822700
H631	H63	0.043200	0.442600	0.771000
H641	H64	0.161500	0.451100	0.957100
H651	H65	0.117400	0.396000	0.891600
H661	H66	0.073100	0.445000	0.946300
H671	H67	0.502000	0.604800	0.858000
H681	H68	0.479400	0.532500	0.897700
H691	H69	0.506600	0.608800	0.946300
H701	H70	0.319600	0.569200	0.987200
H711	H71	0.404700	0.583300	0.018800
H721	H72	0.375700	0.509800	0.966500
H731	H73	0.996100	0.275400	0.703800
H741	H74	0.104100	0.196600	0.880700
H751	H75	0.992000	0.122300	0.900600
H761	H76	0.891800	0.114800	0.811200
H771	H77	0.653100	0.286400	0.513200
H781	H78	0.279400	0.427600	0.845200
H791	H79	0.759100	0.038600	0.528100
H801	H80	0.822700	0.996500	0.492200
H811	H81	0.771000	0.043200	0.442600
H821	H82	0.957100	0.161500	0.451100
H831	H83	0.891600	0.117400	0.396000
H841	H84	0.946300	0.073100	0.445000
H851	H85	0.858000	0.502000	0.604800
H861	H86	0.897700	0.479400	0.532500
H871	H87	0.946300	0.506600	0.608800
H881	H88	0.987200	0.319600	0.569200
H891	H89	0.018800	0.404700	0.583300
H901	H90	0.966500	0.375700	0.509800
H911	H91	0.703800	0.996100	0.275400
H921	H92	0.880700	0.104100	0.196600
H931	H93	0.900600	0.992000	0.122300
H941	H94	0.811200	0.891800	0.114800
H951	H95	0.513200	0.653100	0.286400
H961	H96	0.845200	0.279400	0.427600
H971	H97	0.528100	0.759100	0.038600
H981	H98	0.492200	0.822700	0.996500
H991	H99	0.442600	0.771000	0.043200
H1001	H100	0.451100	0.957100	0.161500
H1011	H101	0.396000	0.891600	0.117400
H1021	H102	0.445000	0.946300	0.073100
H1031	H103	0.604800	0.858000	0.502000
H1041	H104	0.532500	0.897700	0.479400
H1051	H105	0.608800	0.946300	0.506600
H1061	H106	0.569200	0.987200	0.319600
H1071	H107	0.583300	0.018800	0.404700
H1081	H108	0.509800	0.966500	0.375700
C11	C1	0.804900	0.301200	0.131900
C21	C2	0.709400	0.219000	0.874300
C31	C3	0.808500	0.251900	0.068700
C41	C4	0.757000	0.258100	0.003300
C51	C5	0.755300	0.208300	0.940500
C61	C6	0.802300	0.151200	0.939800
C71	C7	0.849600	0.140800	0.006100
C81	C8	0.851800	0.193300	0.066300
C91	C9	0.959200	0.508000	0.204000
C101	C10	0.881900	0.556100	0.079300
C111	C11	0.521100	0.413700	0.099800
C121	C12	0.629600	0.437500	0.023600
C131	C13	0.131900	0.804900	0.301200
C141	C14	0.874300	0.709400	0.219000
C151	C15	0.068700	0.808500	0.251900
C161	C16	0.003300	0.757000	0.258100
C171	C17	0.940500	0.755300	0.208300
C181	C18	0.939800	0.802300	0.151200
C191	C19	0.006100	0.849600	0.140800
C201	C20	0.066300	0.851800	0.193300
C211	C21	0.204000	0.959200	0.508000
C221	C22	0.079300	0.881900	0.556100
C231	C23	0.099800	0.521100	0.413700
C241	C24	0.023600	0.629600	0.437500
C251	C25	0.301200	0.131900	0.804900
C261	C26	0.219000	0.874300	0.709400
C271	C27	0.251900	0.068700	0.808500
C281	C28	0.258100	0.003300	0.757000
C291	C29	0.208300	0.940500	0.755300
C301	C30	0.151200	0.939800	0.802300
C311	C31	0.140800	0.006100	0.849600
C321	C32	0.193300	0.066300	0.851800
C331	C33	0.508000	0.204000	0.959200
C341	C34	0.556100	0.079300	0.881900
C351	C35	0.413700	0.099800	0.521100
C361	C36	0.437500	0.023600	0.629600
C371	C37	0.195100	0.698800	0.868100
C381	C38	0.290600	0.781000	0.125700
C391	C39	0.191500	0.748100	0.931300
C401	C40	0.243000	0.741900	0.996700
C411	C41	0.244700	0.791700	0.059500
C421	C42	0.197700	0.848800	0.060200
C431	C43	0.150400	0.859200	0.993900
C441	C44	0.148200	0.806700	0.933700
C451	C45	0.040800	0.492000	0.796000
C461	C46	0.118100	0.443900	0.920700
C471	C47	0.478900	0.586300	0.900200
C481	C48	0.370400	0.562500	0.976400
C491	C49	0.868100	0.195100	0.698800
C501	C50	0.125700	0.290600	0.781000
C511	C51	0.931300	0.191500	0.748100
C521	C52	0.996700	0.243000	0.741900
C531	C53	0.059500	0.244700	0.791700
C541	C54	0.060200	0.197700	0.848800
C551	C55	0.993900	0.150400	0.859200
C561	C56	0.933700	0.148200	0.806700
C571	C57	0.796000	0.040800	0.492000
C581	C58	0.920700	0.118100	0.443900
C591	C59	0.900200	0.478900	0.586300
C601	C60	0.976400	0.370400	0.562500
C611	C61	0.698800	0.868100	0.195100
C621	C62	0.781000	0.125700	0.290600
C631	C63	0.748100	0.931300	0.191500
C641	C64	0.741900	0.996700	0.243000
C651	C65	0.791700	0.059500	0.244700
C661	C66	0.848800	0.060200	0.197700
C671	C67	0.859200	0.993900	0.150400
C681	C68	0.806700	0.933700	0.148200
C691	C69	0.492000	0.796000	0.040800
C701	C70	0.443900	0.920700	0.118100
C711	C71	0.586300	0.900200	0.478900
C721	C72	0.562500	0.976400	0.370400
S11	S1	0.651770	0.315120	0.320430
S21	S2	0.868050	0.460960	0.365920
S31	S3	0.878040	0.483580	0.139540
S41	S4	0.609670	0.391590	0.102220
S51	S5	0.320430	0.651770	0.315120
S61	S6	0.365920	0.868050	0.460960
S71	S7	0.139540	0.878040	0.483580
S81	S8	0.102220	0.609670	0.391590
S91	S9	0.315120	0.320430	0.651770
S101	S10	0.460960	0.365920	0.868050
S111	S11	0.483580	0.139540	0.878040
S121	S12	0.391590	0.102220	0.609670
S131	S13	0.348230	0.684880	0.679570
S141	S14	0.131950	0.539040	0.634080
S151	S15	0.121960	0.516420	0.860460
S161	S16	0.390330	0.608410	0.897780
S171	S17	0.679570	0.348230	0.684880
S181	S18	0.634080	0.131950	0.539040
S191	S19	0.860460	0.121960	0.516420
S201	S20	0.897780	0.390330	0.608410
S211	S21	0.684880	0.679570	0.348230
S221	S22	0.539040	0.634080	0.131950
S231	S23	0.516420	0.860460	0.121960
S241	S24	0.608410	0.897780	0.390330
O11	O1	0.853600	0.292500	0.188800
O21	O2	0.759800	0.349800	0.135900
O31	O3	0.652100	0.251700	0.876700
O41	O4	0.729800	0.189600	0.813700
O51	O5	0.716930	0.497630	0.294430
O61	O6	0.601000	0.202000	0.711700
O71	O7	0.646900	0.240600	0.348100
O81	O8	0.672000	0.375000	0.383600
O91	O9	0.710500	0.319900	0.268800
O101	O10	0.581200	0.328100	0.281300
O111	O11	0.842200	0.407100	0.300700
O121	O12	0.814800	0.457200	0.422000
O131	O13	0.941500	0.441000	0.397300
O141	O14	0.873200	0.535700	0.340600
O151	O15	0.813670	0.500870	0.185570
O161	O16	0.650500	0.445000	0.170100
O171	O17	0.188800	0.853600	0.292500
O181	O18	0.135900	0.759800	0.349800
O191	O19	0.876700	0.652100	0.251700
O201	O20	0.813700	0.729800	0.189600
O211	O21	0.294430	0.716930	0.497630
O221	O22	0.711700	0.601000	0.202000
O231	O23	0.348100	0.646900	0.240600
O241	O24	0.383600	0.672000	0.375000
O251	O25	0.268800	0.710500	0.319900
O261	O26	0.281300	0.581200	0.328100
O271	O27	0.300700	0.842200	0.407100
O281	O28	0.422000	0.814800	0.457200
O291	O29	0.397300	0.941500	0.441000
O301	O30	0.340600	0.873200	0.535700
O311	O31	0.185570	0.813670	0.500870
O321	O32	0.170100	0.650500	0.445000
O331	O33	0.292500	0.188800	0.853600
O341	O34	0.349800	0.135900	0.759800
O351	O35	0.251700	0.876700	0.652100
O361	O36	0.189600	0.813700	0.729800
O371	O37	0.497630	0.294430	0.716930
O381	O38	0.202000	0.711700	0.601000
O391	O39	0.240600	0.348100	0.646900
O401	O40	0.375000	0.383600	0.672000
O411	O41	0.319900	0.268800	0.710500
O421	O42	0.328100	0.281300	0.581200
O431	O43	0.407100	0.300700	0.842200
O441	O44	0.457200	0.422000	0.814800
O451	O45	0.441000	0.397300	0.941500
O461	O46	0.535700	0.340600	0.873200
O471	O47	0.500870	0.185570	0.813670
O481	O48	0.445000	0.170100	0.650500
O491	O49	0.146400	0.707500	0.811200
O501	O50	0.240200	0.650200	0.864100
O511	O51	0.347900	0.748300	0.123300
O521	O52	0.270200	0.810400	0.186300
O531	O53	0.283070	0.502370	0.705570
O541	O54	0.399000	0.798000	0.288300
O551	O55	0.353100	0.759400	0.651900
O561	O56	0.328000	0.625000	0.616400
O571	O57	0.289500	0.680100	0.731200
O581	O58	0.418800	0.671900	0.718700
O591	O59	0.157800	0.592900	0.699300
O601	O60	0.185200	0.542800	0.578000
O611	O61	0.058500	0.559000	0.602700
O621	O62	0.126800	0.464300	0.659400
O631	O63	0.186330	0.499130	0.814430
O641	O64	0.349500	0.555000	0.829900
O651	O65	0.811200	0.146400	0.707500
O661	O66	0.864100	0.240200	0.650200
O671	O67	0.123300	0.347900	0.748300
O681	O68	0.186300	0.270200	0.810400
O691	O69	0.705570	0.283070	0.502370
O701	O70	0.288300	0.399000	0.798000
O711	O71	0.651900	0.353100	0.759400
O721	O72	0.616400	0.328000	0.625000
O731	O73	0.731200	0.289500	0.680100
O741	O74	0.718700	0.418800	0.671900
O751	O75	0.699300	0.157800	0.592900
O761	O76	0.578000	0.185200	0.542800
O771	O77	0.602700	0.058500	0.559000
O781	O78	0.659400	0.126800	0.464300
O791	O79	0.814430	0.186330	0.499130
O801	O80	0.829900	0.349500	0.555000
O811	O81	0.707500	0.811200	0.146400
O821	O82	0.650200	0.864100	0.240200
O831	O83	0.748300	0.123300	0.347900
O841	O84	0.810400	0.186300	0.270200
O851	O85	0.502370	0.705570	0.283070
O861	O86	0.798000	0.288300	0.399000
O871	O87	0.759400	0.651900	0.353100
O881	O88	0.625000	0.616400	0.328000
O891	O89	0.680100	0.731200	0.289500
O901	O90	0.671900	0.718700	0.418800
O911	O91	0.592900	0.699300	0.157800
O921	O92	0.542800	0.578000	0.185200
O931	O93	0.559000	0.602700	0.058500
O941	O94	0.464300	0.659400	0.126800
O951	O95	0.499130	0.814430	0.186330
O961	O96	0.555000	0.829900	0.349500
