data_GEDQIR_clean_PM
_symmetry_space_group_name_H-M	'P1'
_cell_length_a	13.586800
_cell_length_b	15.158100
_cell_length_c	16.018400
_cell_angle_alpha	118.239000
_cell_angle_beta	98.812000
_cell_angle_gamma	90.000000
_symmetry_Int_Tables_number 1

loop_
_symmetry_equiv_pos_as_xyz
'x,y,z'

loop_
_atom_site_label
_atom_site_type_symbol
_atom_site_fract_x
_atom_site_fract_y
_atom_site_fract_z
Nd11	Nd1	0.461260	0.893730	0.361020
Nd21	Nd2	0.038740	0.532710	0.638980
Nd31	Nd3	0.538740	0.106270	0.638980
Nd41	Nd4	0.961260	0.467290	0.361020
H11	H1	0.603100	0.690100	0.053000
H21	H2	0.648100	0.661400	0.909400
H31	H3	0.601100	0.946300	0.972600
H41	H4	0.543200	0.970300	0.109200
H51	H5	0.591000	0.896000	0.677200
H61	H6	0.788500	0.716500	0.714600
H71	H7	0.726900	0.711800	0.458600
H81	H8	0.710000	0.729000	0.816000
H91	H9	0.896900	0.637100	0.947000
H101	H10	0.851900	0.752000	0.090600
H111	H11	0.898900	0.973700	0.027400
H121	H12	0.956800	0.861100	0.890800
H131	H13	0.909000	0.218800	0.322800
H141	H14	0.711500	0.001900	0.285400
H151	H15	0.773100	0.253200	0.541400
H161	H16	0.790000	0.913000	0.184000
H171	H17	0.396900	0.309900	0.947000
H181	H18	0.351900	0.338600	0.090600
H191	H19	0.398900	0.053700	0.027400
H201	H20	0.456800	0.029700	0.890800
H211	H21	0.409000	0.104000	0.322800
H221	H22	0.211500	0.283500	0.285400
H231	H23	0.273100	0.288200	0.541400
H241	H24	0.290000	0.271000	0.184000
H251	H25	0.103100	0.362900	0.053000
H261	H26	0.148100	0.248000	0.909400
H271	H27	0.101100	0.026300	0.972600
H281	H28	0.043200	0.138900	0.109200
H291	H29	0.091000	0.781200	0.677200
H301	H30	0.288500	0.998100	0.714600
H311	H31	0.226900	0.746800	0.458600
H321	H32	0.210000	0.087000	0.816000
C11	C1	0.527900	0.848700	0.183800
C21	C2	0.567700	0.833300	0.095400
C31	C3	0.600500	0.740500	0.035600
C41	C4	0.628900	0.724000	0.950600
C51	C5	0.629000	0.802600	0.926000
C61	C6	0.599200	0.893800	0.987000
C71	C7	0.566300	0.909100	0.070200
C81	C8	0.656500	0.777900	0.833000
C91	C9	0.594300	0.847200	0.495000
C101	C10	0.649800	0.809110	0.557620
C111	C11	0.634100	0.846010	0.652420
C121	C12	0.683000	0.807820	0.709040
C131	C13	0.752600	0.738400	0.674600
C141	C14	0.769200	0.701200	0.580200
C151	C15	0.716900	0.736620	0.521640
C161	C16	0.842800	0.624600	0.543800
C171	C17	0.972100	0.664900	0.816200
C181	C18	0.932300	0.737900	0.904600
C191	C19	0.899500	0.704900	0.964400
C201	C20	0.871100	0.773400	0.049400
C211	C21	0.871000	0.876600	0.074000
C221	C22	0.900800	0.906800	0.013000
C231	C23	0.933700	0.838900	0.929800
C241	C24	0.843500	0.944900	0.167000
C251	C25	0.905700	0.352200	0.505000
C261	C26	0.850200	0.251490	0.442380
C271	C27	0.865900	0.193590	0.347580
C281	C28	0.817000	0.098780	0.290960
C291	C29	0.747400	0.063800	0.325400
C301	C30	0.730800	0.121000	0.419800
C311	C31	0.783100	0.214980	0.478360
C321	C32	0.657200	0.080800	0.456200
C331	C33	0.472100	0.151300	0.816200
C341	C34	0.432300	0.166700	0.904600
C351	C35	0.399500	0.259500	0.964400
C361	C36	0.371100	0.276000	0.049400
C371	C37	0.371000	0.197400	0.074000
C381	C38	0.400800	0.106200	0.013000
C391	C39	0.433700	0.090900	0.929800
C401	C40	0.343500	0.222100	0.167000
C411	C41	0.405700	0.152800	0.505000
C421	C42	0.350200	0.190890	0.442380
C431	C43	0.365900	0.153990	0.347580
C441	C44	0.317000	0.192180	0.290960
C451	C45	0.247400	0.261600	0.325400
C461	C46	0.230800	0.298800	0.419800
C471	C47	0.283100	0.263380	0.478360
C481	C48	0.157200	0.375400	0.456200
C491	C49	0.027900	0.335100	0.183800
C501	C50	0.067700	0.262100	0.095400
C511	C51	0.100500	0.295100	0.035600
C521	C52	0.128900	0.226600	0.950600
C531	C53	0.129000	0.123400	0.926000
C541	C54	0.099200	0.093200	0.987000
C551	C55	0.066300	0.161100	0.070200
C561	C56	0.156500	0.055100	0.833000
C571	C57	0.094300	0.647800	0.495000
C581	C58	0.149800	0.748510	0.557620
C591	C59	0.134100	0.806410	0.652420
C601	C60	0.183000	0.901220	0.709040
C611	C61	0.252600	0.936200	0.674600
C621	C62	0.269200	0.879000	0.580200
C631	C63	0.216900	0.785020	0.521640
C641	C64	0.342800	0.919200	0.543800
N11	N1	0.658300	0.841960	0.803120
N21	N2	0.841700	0.038840	0.196880
N31	N3	0.341700	0.158040	0.196880
N41	N4	0.158300	0.961160	0.803120
O11	O1	0.555000	0.795460	0.221920
O21	O2	0.469100	0.916880	0.217960
O31	O3	0.579800	0.793190	0.405980
O41	O4	0.562000	0.933840	0.533280
O51	O5	0.887100	0.597960	0.603120
O61	O6	0.853400	0.589230	0.457060
O71	O7	0.945000	0.573540	0.778080
O81	O8	0.030900	0.698920	0.782040
O91	O9	0.920200	0.387210	0.594020
O101	O10	0.938000	0.400560	0.466720
O111	O11	0.612900	0.994840	0.396880
O121	O12	0.646600	0.132170	0.542940
O131	O13	0.445000	0.204540	0.778080
O141	O14	0.530900	0.083120	0.782040
O151	O15	0.420200	0.206810	0.594020
O161	O16	0.438000	0.066160	0.466720
O171	O17	0.112900	0.402040	0.396880
O181	O18	0.146600	0.410770	0.542940
O191	O19	0.055000	0.426460	0.221920
O201	O20	0.969100	0.301080	0.217960
O211	O21	0.079800	0.612790	0.405980
O221	O22	0.062000	0.599440	0.533280
O231	O23	0.387100	0.005160	0.603120
O241	O24	0.353400	0.867830	0.457060
