data_GEDREO_clean_PM
_symmetry_space_group_name_H-M	'P1'
_cell_length_a	12.584300
_cell_length_b	14.118000
_cell_length_c	16.195200
_cell_angle_alpha	95.183700
_cell_angle_beta	112.862000
_cell_angle_gamma	90.000000
_symmetry_Int_Tables_number 1

loop_
_symmetry_equiv_pos_as_xyz
'x,y,z'

loop_
_atom_site_label
_atom_site_type_symbol
_atom_site_fract_x
_atom_site_fract_y
_atom_site_fract_z
Nd11	Nd1	0.487120	0.461270	0.371590
Nd21	Nd2	0.115530	0.038730	0.628410
Nd31	Nd3	0.512880	0.538730	0.628410
Nd41	Nd4	0.884470	0.961270	0.371590
H11	H1	0.155500	0.592400	0.123200
H21	H2	0.054900	0.636700	0.981600
H31	H3	0.333900	0.601900	0.924200
H41	H4	0.437400	0.558400	0.066800
H51	H5	0.826000	0.559700	0.687600
H61	H6	0.055700	0.770700	0.714400
H71	H7	0.814600	0.685500	0.470800
H81	H8	0.746600	0.331900	0.421200
H91	H9	0.648600	0.197700	0.176600
H101	H10	0.519800	0.328700	0.174600
H111	H11	0.161000	0.645000	0.806000
H121	H12	0.032300	0.907600	0.876800
H131	H13	0.073300	0.863300	0.018400
H141	H14	0.409700	0.898100	0.075800
H151	H15	0.370600	0.941600	0.933200
H161	H16	0.138400	0.940300	0.312400
H171	H17	0.341300	0.729300	0.285600
H181	H18	0.343800	0.814500	0.529200
H191	H19	0.325400	0.168100	0.578800
H201	H20	0.472000	0.302300	0.823400
H211	H21	0.345200	0.171300	0.825400
H221	H22	0.355000	0.855000	0.194000
H231	H23	0.844500	0.407600	0.876800
H241	H24	0.945100	0.363300	0.018400
H251	H25	0.666100	0.398100	0.075800
H261	H26	0.562600	0.441600	0.933200
H271	H27	0.174000	0.440300	0.312400
H281	H28	0.944300	0.229300	0.285600
H291	H29	0.185400	0.314500	0.529200
H301	H30	0.253400	0.668100	0.578800
H311	H31	0.351400	0.802300	0.823400
H321	H32	0.480200	0.671300	0.825400
H331	H33	0.839000	0.355000	0.194000
H341	H34	0.967700	0.092400	0.123200
H351	H35	0.926700	0.136700	0.981600
H361	H36	0.590300	0.101900	0.924200
H371	H37	0.629400	0.058400	0.066800
H381	H38	0.861600	0.059700	0.687600
H391	H39	0.658700	0.270700	0.714400
H401	H40	0.656200	0.185500	0.470800
H411	H41	0.674600	0.831900	0.421200
H421	H42	0.528000	0.697700	0.176600
H431	H43	0.654800	0.828700	0.174600
H441	H44	0.645000	0.145000	0.806000
C11	C1	0.368840	0.537400	0.201480
C21	C2	0.305650	0.570100	0.109900
C31	C3	0.191900	0.593800	0.083200
C41	C4	0.131300	0.619700	0.998000
C51	C5	0.182500	0.620700	0.936000
C61	C6	0.297400	0.599100	0.964000
C71	C7	0.360250	0.573300	0.049700
C81	C8	0.118700	0.639500	0.842200
C91	C9	0.702830	0.551500	0.511260
C101	C10	0.805430	0.612900	0.570460
C111	C11	0.856800	0.603200	0.662200
C121	C12	0.955380	0.659600	0.716160
C131	C13	0.993780	0.730100	0.677960
C141	C14	0.941920	0.740600	0.587640
C151	C15	0.848190	0.680500	0.532380
C161	C16	0.980720	0.817500	0.545640
C171	C17	0.705700	0.315000	0.360000
C181	C18	0.653000	0.240100	0.225400
C191	C19	0.581930	0.312900	0.225060
C201	C20	0.167360	0.962600	0.798520
C211	C21	0.195750	0.929900	0.890100
C221	C22	0.108700	0.906200	0.916800
C231	C23	0.133300	0.880300	0.002000
C241	C24	0.246500	0.879300	0.064000
C251	C25	0.333400	0.900900	0.036000
C261	C26	0.310550	0.926700	0.950300
C271	C27	0.276500	0.860500	0.157800
C281	C28	0.191570	0.948500	0.488740
C291	C29	0.234970	0.887100	0.429540
C301	C30	0.194600	0.896800	0.337800
C311	C31	0.239220	0.840400	0.283840
C321	C32	0.315820	0.769900	0.322040
C331	C33	0.354280	0.759400	0.412360
C341	C34	0.315810	0.819500	0.467620
C351	C35	0.435080	0.682500	0.454360
C361	C36	0.345700	0.185000	0.640000
C371	C37	0.427600	0.259900	0.774600
C381	C38	0.356870	0.187100	0.774940
C391	C39	0.631160	0.462600	0.798520
C401	C40	0.694350	0.429900	0.890100
C411	C41	0.808100	0.406200	0.916800
C421	C42	0.868700	0.380300	0.002000
C431	C43	0.817500	0.379300	0.064000
C441	C44	0.702600	0.400900	0.036000
C451	C45	0.639750	0.426700	0.950300
C461	C46	0.881300	0.360500	0.157800
C471	C47	0.297170	0.448500	0.488740
C481	C48	0.194570	0.387100	0.429540
C491	C49	0.143200	0.396800	0.337800
C501	C50	0.044620	0.340400	0.283840
C511	C51	0.006220	0.269900	0.322040
C521	C52	0.058080	0.259400	0.412360
C531	C53	0.151810	0.319500	0.467620
C541	C54	0.019280	0.182500	0.454360
C551	C55	0.294300	0.685000	0.640000
C561	C56	0.347000	0.759900	0.774600
C571	C57	0.418070	0.687100	0.774940
C581	C58	0.832640	0.037400	0.201480
C591	C59	0.804250	0.070100	0.109900
C601	C60	0.891300	0.093800	0.083200
C611	C61	0.866700	0.119700	0.998000
C621	C62	0.753500	0.120700	0.936000
C631	C63	0.666600	0.099100	0.964000
C641	C64	0.689450	0.073300	0.049700
C651	C65	0.723500	0.139500	0.842200
C661	C66	0.808430	0.051500	0.511260
C671	C67	0.765030	0.112900	0.570460
C681	C68	0.805400	0.103200	0.662200
C691	C69	0.760780	0.159600	0.716160
C701	C70	0.684180	0.230100	0.677960
C711	C71	0.645720	0.240600	0.587640
C721	C72	0.684190	0.180500	0.532380
C731	C73	0.564920	0.317500	0.545640
C741	C74	0.654300	0.815000	0.360000
C751	C75	0.572400	0.740100	0.225400
C761	C76	0.643130	0.812900	0.225060
N11	N1	0.009300	0.643500	0.807800
N21	N2	0.614480	0.359000	0.308760
N31	N3	0.731750	0.242000	0.311900
N41	N4	0.201500	0.856500	0.192200
N51	N5	0.305720	0.141000	0.691240
N61	N6	0.419850	0.258000	0.688100
N71	N7	0.990700	0.356500	0.192200
N81	N8	0.385520	0.641000	0.691240
N91	N9	0.268250	0.758000	0.688100
N101	N10	0.798500	0.143500	0.807800
N111	N11	0.694280	0.859000	0.308760
N121	N12	0.580150	0.742000	0.311900
O11	O1	0.476600	0.529800	0.230600
O21	O2	0.311280	0.516500	0.247160
O31	O3	0.633800	0.519100	0.542800
O41	O4	0.686820	0.533200	0.429640
O51	O5	0.923100	0.829900	0.465800
O61	O6	0.072640	0.865300	0.596080
O71	O7	0.246000	0.970200	0.769400
O81	O8	0.064120	0.983500	0.752840
O91	O9	0.091000	0.980900	0.457200
O101	O10	0.257180	0.966800	0.570360
O111	O11	0.457300	0.670100	0.534200
O121	O12	0.476560	0.634700	0.403920
O131	O13	0.523400	0.470200	0.769400
O141	O14	0.688720	0.483500	0.752840
O151	O15	0.366200	0.480900	0.457200
O161	O16	0.313180	0.466800	0.570360
O171	O17	0.076900	0.170100	0.534200
O181	O18	0.927360	0.134700	0.403920
O191	O19	0.754000	0.029800	0.230600
O201	O20	0.935880	0.016500	0.247160
O211	O21	0.909000	0.019100	0.542800
O221	O22	0.742820	0.033200	0.429640
O231	O23	0.542700	0.329900	0.465800
O241	O24	0.523440	0.365300	0.596080
