data_GEDSOZ_clean_PM
_symmetry_space_group_name_H-M	'P1'
_cell_length_a	13.092600
_cell_length_b	14.448800
_cell_length_c	16.275100
_cell_angle_alpha	116.353000
_cell_angle_beta	97.832900
_cell_angle_gamma	90.000000
_symmetry_Int_Tables_number 1

loop_
_symmetry_equiv_pos_as_xyz
'x,y,z'

loop_
_atom_site_label
_atom_site_type_symbol
_atom_site_fract_x
_atom_site_fract_y
_atom_site_fract_z
Nd11	Nd1	0.455870	0.976570	0.367820
Nd21	Nd2	0.044130	0.608750	0.632180
Nd31	Nd3	0.544130	0.023430	0.632180
Nd41	Nd4	0.955870	0.391250	0.367820
H11	H1	0.535100	0.645400	0.113800
H21	H2	0.588800	0.534800	0.976600
H31	H3	0.639700	0.779400	0.927200
H41	H4	0.591500	0.888300	0.068400
H51	H5	0.570500	0.299500	0.685800
H61	H6	0.768600	0.530100	0.716000
H71	H7	0.693200	0.284800	0.468400
H81	H8	0.660000	0.612000	0.816000
H91	H9	0.964900	0.531600	0.886200
H101	H10	0.911200	0.558200	0.023400
H111	H11	0.860300	0.852200	0.072800
H121	H12	0.908500	0.819900	0.931600
H131	H13	0.929500	0.613700	0.314200
H141	H14	0.731400	0.814100	0.284000
H151	H15	0.806800	0.816400	0.531600
H161	H16	0.840000	0.796000	0.184000
H171	H17	0.464900	0.354600	0.886200
H181	H18	0.411200	0.465200	0.023400
H191	H19	0.360300	0.220600	0.072800
H201	H20	0.408500	0.111700	0.931600
H211	H21	0.429500	0.700500	0.314200
H221	H22	0.231400	0.469900	0.284000
H231	H23	0.306800	0.715200	0.531600
H241	H24	0.340000	0.388000	0.184000
H251	H25	0.035100	0.468400	0.113800
H261	H26	0.088800	0.441800	0.976600
H271	H27	0.139700	0.147800	0.927200
H281	H28	0.091500	0.180100	0.068400
H291	H29	0.070500	0.386300	0.685800
H301	H30	0.268600	0.185900	0.716000
H311	H31	0.193200	0.183600	0.468400
H321	H32	0.160000	0.204000	0.816000
C11	C1	0.522500	0.846500	0.193200
C21	C2	0.558300	0.777000	0.105400
C31	C3	0.557500	0.672400	0.076600
C41	C4	0.588700	0.605500	0.994000
C51	C5	0.620400	0.646200	0.936200
C61	C6	0.619900	0.751900	0.965000
C71	C7	0.590100	0.817300	0.049400
C81	C8	0.645300	0.577500	0.843800
C91	C9	0.567200	0.172400	0.506000
C101	C10	0.621600	0.279200	0.567400
C111	C11	0.610900	0.330200	0.660600
C121	C12	0.661300	0.428100	0.716400
C131	C13	0.730700	0.467500	0.678600
C141	C14	0.742500	0.413800	0.586400
C151	C15	0.686700	0.320100	0.530800
C161	C16	0.819100	0.454200	0.548000
C171	C17	0.977500	0.653300	0.806800
C181	C18	0.941700	0.671600	0.894600
C191	C19	0.942500	0.595800	0.923400
C201	C20	0.911300	0.611500	0.006000
C211	C21	0.879600	0.710000	0.063800
C221	C22	0.880100	0.786900	0.035000
C231	C23	0.909900	0.767900	0.950600
C241	C24	0.854700	0.733700	0.156200
C251	C25	0.932800	0.666400	0.494000
C261	C26	0.878400	0.711800	0.432600
C271	C27	0.889100	0.669600	0.339400
C281	C28	0.838700	0.711700	0.283600
C291	C29	0.769300	0.788900	0.321400
C301	C30	0.757500	0.827400	0.413600
C311	C31	0.813300	0.789300	0.469200
C321	C32	0.680900	0.906200	0.452000
C331	C33	0.477500	0.153500	0.806800
C341	C34	0.441700	0.223000	0.894600
C351	C35	0.442500	0.327600	0.923400
C361	C36	0.411300	0.394500	0.006000
C371	C37	0.379600	0.353800	0.063800
C381	C38	0.380100	0.248100	0.035000
C391	C39	0.409900	0.182700	0.950600
C401	C40	0.354700	0.422500	0.156200
C411	C41	0.432800	0.827600	0.494000
C421	C42	0.378400	0.720800	0.432600
C431	C43	0.389100	0.669800	0.339400
C441	C44	0.338700	0.571900	0.283600
C451	C45	0.269300	0.532500	0.321400
C461	C46	0.257500	0.586200	0.413600
C471	C47	0.313300	0.679900	0.469200
C481	C48	0.180900	0.545800	0.452000
C491	C49	0.022500	0.346700	0.193200
C501	C50	0.058300	0.328400	0.105400
C511	C51	0.057500	0.404200	0.076600
C521	C52	0.088700	0.388500	0.994000
C531	C53	0.120400	0.290000	0.936200
C541	C54	0.119900	0.213100	0.965000
C551	C55	0.090100	0.232100	0.049400
C561	C56	0.145300	0.266300	0.843800
C571	C57	0.067200	0.333600	0.506000
C581	C58	0.121600	0.288200	0.567400
C591	C59	0.110900	0.330400	0.660600
C601	C60	0.161300	0.288300	0.716400
C611	C61	0.230700	0.211100	0.678600
C621	C62	0.242500	0.172600	0.586400
C631	C63	0.186700	0.210700	0.530800
C641	C64	0.319100	0.093800	0.548000
N11	N1	0.642300	0.483040	0.808880
N21	N2	0.857700	0.674160	0.191120
N31	N3	0.357700	0.516960	0.191120
N41	N4	0.142300	0.325840	0.808880
O11	O1	0.473400	0.808440	0.233280
O21	O2	0.539600	0.944340	0.225880
O31	O3	0.542800	0.115580	0.541160
O41	O4	0.547300	0.145520	0.420840
O51	O5	0.829900	0.401320	0.464840
O61	O6	0.868400	0.539850	0.601500
O71	O7	0.026600	0.575160	0.766720
O81	O8	0.960400	0.718460	0.774120
O91	O9	0.957200	0.574420	0.458840
O101	O10	0.952700	0.724680	0.579160
O111	O11	0.670100	0.936480	0.535160
O121	O12	0.631600	0.938350	0.398500
O131	O13	0.526600	0.191560	0.766720
O141	O14	0.460400	0.055660	0.774120
O151	O15	0.457200	0.884420	0.458840
O161	O16	0.452700	0.854480	0.579160
O171	O17	0.170100	0.598680	0.535160
O181	O18	0.131600	0.460150	0.398500
O191	O19	0.973400	0.424840	0.233280
O201	O20	0.039600	0.281540	0.225880
O211	O21	0.042800	0.425580	0.541160
O221	O22	0.047300	0.275320	0.420840
O231	O23	0.329900	0.063520	0.464840
O241	O24	0.368400	0.061650	0.601500
