data_GEDSEP_clean_PM
_symmetry_space_group_name_H-M	'P1'
_cell_length_a	13.165400
_cell_length_b	13.828200
_cell_length_c	16.031300
_cell_angle_alpha	115.549000
_cell_angle_beta	101.117000
_cell_angle_gamma	90.000000
_symmetry_Int_Tables_number 1

loop_
_symmetry_equiv_pos_as_xyz
'x,y,z'

loop_
_atom_site_label
_atom_site_type_symbol
_atom_site_fract_x
_atom_site_fract_y
_atom_site_fract_z
Nd11	Nd1	0.940670	0.475010	0.363750
Nd21	Nd2	0.559330	0.111260	0.636250
Nd31	Nd3	0.059330	0.524990	0.636250
Nd41	Nd4	0.440670	0.888740	0.363750
H11	H1	0.036500	0.151100	0.110000
H21	H2	0.085600	0.046000	0.968600
H31	H3	0.130900	0.308700	0.931400
H41	H4	0.078300	0.411900	0.069200
H51	H5	0.069600	0.813800	0.688000
H61	H6	0.271200	0.052900	0.722000
H71	H7	0.192900	0.791300	0.470800
H81	H8	0.922800	0.635600	0.235200
H91	H9	0.162000	0.136000	0.814000
H101	H10	0.636000	0.705000	0.238000
H111	H11	0.463500	0.041100	0.890000
H121	H12	0.414400	0.077400	0.031400
H131	H13	0.369100	0.377300	0.068600
H141	H14	0.421700	0.342700	0.930800
H151	H15	0.430400	0.125800	0.312000
H161	H16	0.228800	0.330900	0.278000
H171	H17	0.307100	0.320500	0.529200
H181	H18	0.577200	0.400400	0.764800
H191	H19	0.338000	0.322000	0.186000
H201	H20	0.864000	0.467000	0.762000
H211	H21	0.963500	0.848900	0.890000
H221	H22	0.914400	0.954000	0.031400
H231	H23	0.869100	0.691300	0.068600
H241	H24	0.921700	0.588100	0.930800
H251	H25	0.930400	0.186200	0.312000
H261	H26	0.728800	0.947100	0.278000
H271	H27	0.807100	0.208700	0.529200
H281	H28	0.077200	0.364400	0.764800
H291	H29	0.838000	0.864000	0.186000
H301	H30	0.364000	0.295000	0.762000
H311	H31	0.536500	0.958900	0.110000
H321	H32	0.585600	0.922600	0.968600
H331	H33	0.630900	0.622700	0.931400
H341	H34	0.578300	0.657300	0.069200
H351	H35	0.569600	0.874200	0.688000
H361	H36	0.771200	0.669100	0.722000
H371	H37	0.692900	0.679500	0.470800
H381	H38	0.422800	0.599600	0.235200
H391	H39	0.662000	0.678000	0.814000
H401	H40	0.136000	0.533000	0.238000
C11	C1	0.006600	0.357000	0.188000
C21	C2	0.045500	0.292000	0.100800
C31	C3	0.052700	0.182500	0.072600
C41	C4	0.083900	0.119800	0.988800
C51	C5	0.112400	0.167000	0.935600
C61	C6	0.110400	0.276300	0.966400
C71	C7	0.078100	0.337900	0.048600
C81	C8	0.140900	0.102700	0.843600
C91	C9	0.059100	0.680790	0.504180
C101	C10	0.120200	0.786460	0.569120
C111	C11	0.111200	0.843700	0.662800
C121	C12	0.163700	0.944900	0.718600
C131	C13	0.233400	0.986400	0.683800
C141	C14	0.245500	0.927250	0.591700
C151	C15	0.187000	0.828720	0.533440
C161	C16	0.321100	0.968700	0.552000
C171	C17	0.720500	0.596300	0.279200
C181	C18	0.855300	0.636000	0.244800
C191	C19	0.493400	0.169000	0.812000
C201	C20	0.454500	0.191200	0.899200
C211	C21	0.447300	0.109900	0.927400
C221	C22	0.416100	0.131000	0.011200
C231	C23	0.387600	0.231400	0.064400
C241	C24	0.389600	0.309900	0.033600
C251	C25	0.421900	0.289300	0.951400
C261	C26	0.359100	0.259100	0.156400
C271	C27	0.440900	0.176610	0.495820
C281	C28	0.379800	0.217340	0.430880
C291	C29	0.388800	0.180900	0.337200
C301	C30	0.336300	0.226300	0.281400
C311	C31	0.266600	0.302600	0.316200
C321	C32	0.254500	0.335550	0.408300
C331	C33	0.313000	0.295280	0.466560
C341	C34	0.178900	0.416700	0.448000
C351	C35	0.779500	0.317100	0.720800
C361	C36	0.644700	0.391200	0.755200
C371	C37	0.993400	0.643000	0.812000
C381	C38	0.954500	0.708000	0.899200
C391	C39	0.947300	0.817500	0.927400
C401	C40	0.916100	0.880200	0.011200
C411	C41	0.887600	0.833000	0.064400
C421	C42	0.889600	0.723700	0.033600
C431	C43	0.921900	0.662100	0.951400
C441	C44	0.859100	0.897300	0.156400
C451	C45	0.940900	0.319210	0.495820
C461	C46	0.879800	0.213540	0.430880
C471	C47	0.888800	0.156300	0.337200
C481	C48	0.836300	0.055100	0.281400
C491	C49	0.766600	0.013600	0.316200
C501	C50	0.754500	0.072750	0.408300
C511	C51	0.813000	0.171280	0.466560
C521	C52	0.678900	0.031300	0.448000
C531	C53	0.279500	0.403700	0.720800
C541	C54	0.144700	0.364000	0.755200
C551	C55	0.506600	0.831000	0.188000
C561	C56	0.545500	0.808800	0.100800
C571	C57	0.552700	0.890100	0.072600
C581	C58	0.583900	0.869000	0.988800
C591	C59	0.612400	0.768600	0.935600
C601	C60	0.610400	0.690100	0.966400
C611	C61	0.578100	0.710700	0.048600
C621	C62	0.640900	0.740900	0.843600
C631	C63	0.559100	0.823390	0.504180
C641	C64	0.620200	0.782660	0.569120
C651	C65	0.611200	0.819100	0.662800
C661	C66	0.663700	0.773700	0.718600
C671	C67	0.733400	0.697400	0.683800
C681	C68	0.745500	0.664450	0.591700
C691	C69	0.687000	0.704720	0.533440
C701	C70	0.821100	0.583300	0.552000
C711	C71	0.220500	0.682900	0.279200
C721	C72	0.355300	0.608800	0.244800
N11	N1	0.144500	0.001530	0.811460
N21	N2	0.817500	0.568920	0.276640
N31	N3	0.790400	0.700800	0.228800
N41	N4	0.701700	0.673840	0.252080
N51	N5	0.642400	0.547600	0.298000
N61	N6	0.355500	0.190070	0.188540
N71	N7	0.682500	0.292280	0.723360
N81	N8	0.709600	0.472000	0.771200
N91	N9	0.798300	0.421760	0.747920
N101	N10	0.857600	0.249600	0.702000
N111	N11	0.855500	0.998470	0.188540
N121	N12	0.182500	0.431080	0.723360
N131	N13	0.209600	0.299200	0.771200
N141	N14	0.298300	0.326160	0.747920
N151	N15	0.357600	0.452400	0.702000
N161	N16	0.644500	0.809930	0.811460
N171	N17	0.317500	0.707720	0.276640
N181	N18	0.290400	0.528000	0.228800
N191	N19	0.201700	0.578240	0.252080
N201	N20	0.142400	0.750400	0.298000
O11	O1	0.963400	0.308500	0.225200
O21	O2	0.014300	0.457590	0.222380
O31	O3	0.034600	0.654460	0.416720
O41	O4	0.033800	0.619240	0.538680
O51	O5	0.319800	0.913780	0.464560
O61	O6	0.377100	0.053840	0.607280
O71	O7	0.536600	0.083300	0.774800
O81	O8	0.485700	0.235210	0.777620
O91	O9	0.465400	0.237740	0.583280
O101	O10	0.466200	0.080560	0.461320
O111	O11	0.180200	0.449220	0.535440
O121	O12	0.122900	0.446560	0.392720
O131	O13	0.036600	0.691500	0.774800
O141	O14	0.985700	0.542410	0.777620
O151	O15	0.965400	0.345540	0.583280
O161	O16	0.966200	0.380760	0.461320
O171	O17	0.680200	0.086220	0.535440
O181	O18	0.622900	0.946160	0.392720
O191	O19	0.463400	0.916700	0.225200
O201	O20	0.514300	0.764790	0.222380
O211	O21	0.534600	0.762260	0.416720
O221	O22	0.533800	0.919440	0.538680
O231	O23	0.819800	0.550780	0.464560
O241	O24	0.877100	0.553440	0.607280
