data_GEDTAM_clean_PM
_symmetry_space_group_name_H-M	'P1'
_cell_length_a	13.645000
_cell_length_b	14.273100
_cell_length_c	16.113500
_cell_angle_alpha	116.289000
_cell_angle_beta	99.005900
_cell_angle_gamma	90.000000
_symmetry_Int_Tables_number 1

loop_
_symmetry_equiv_pos_as_xyz
'x,y,z'

loop_
_atom_site_label
_atom_site_type_symbol
_atom_site_fract_x
_atom_site_fract_y
_atom_site_fract_z
Nd11	Nd1	0.043390	0.030410	0.635890
Nd21	Nd2	0.456610	0.394520	0.364110
Nd31	Nd3	0.956610	0.969590	0.364110
Nd41	Nd4	0.543390	0.605480	0.635890
H11	H1	0.917300	0.118200	0.935200
H21	H2	0.878100	0.222700	0.080200
H31	H3	0.901900	0.471000	0.033200
H41	H4	0.950300	0.366700	0.890000
H51	H5	0.887000	0.384000	0.198000
H61	H6	0.920700	0.698000	0.318400
H71	H7	0.724600	0.472400	0.287400
H81	H8	0.801600	0.720400	0.539400
H91	H9	0.582700	0.183000	0.064800
H101	H10	0.621900	0.142500	0.919800
H111	H11	0.598100	0.437800	0.966800
H121	H12	0.549700	0.476700	0.110000
H131	H13	0.613000	0.186000	0.802000
H141	H14	0.579300	0.379600	0.681600
H151	H15	0.775400	0.185000	0.712600
H161	H16	0.698400	0.181000	0.460600
H171	H17	0.082700	0.881800	0.064800
H181	H18	0.121900	0.777300	0.919800
H191	H19	0.098100	0.529000	0.966800
H201	H20	0.049700	0.633300	0.110000
H211	H21	0.113000	0.616000	0.802000
H221	H22	0.079300	0.302000	0.681600
H231	H23	0.275400	0.527600	0.712600
H241	H24	0.198400	0.279600	0.460600
H251	H25	0.417300	0.817000	0.935200
H261	H26	0.378100	0.857500	0.080200
H271	H27	0.401900	0.562200	0.033200
H281	H28	0.450300	0.523300	0.890000
H291	H29	0.387000	0.814000	0.198000
H301	H30	0.420700	0.620400	0.318400
H311	H31	0.224600	0.815000	0.287400
H321	H32	0.301600	0.819000	0.539400
C11	C1	0.979000	0.164900	0.809400
C21	C2	0.942400	0.232500	0.898600
C31	C3	0.916500	0.190100	0.955400
C41	C4	0.889400	0.252000	0.041000
C51	C5	0.879500	0.353200	0.067400
C61	C6	0.904900	0.399200	0.013000
C71	C7	0.935100	0.336600	0.927600
C81	C8	0.854800	0.420400	0.163000
C91	C9	0.929300	0.828300	0.500200
C101	C10	0.872900	0.724800	0.439800
C111	C11	0.881200	0.669100	0.344600
C121	C12	0.830800	0.571700	0.290200
C131	C13	0.763300	0.534600	0.326400
C141	C14	0.752200	0.589200	0.421000
C151	C15	0.807600	0.683500	0.476400
C161	C16	0.678800	0.547900	0.456800
C171	C17	0.521000	0.355500	0.190600
C181	C18	0.557600	0.333900	0.101400
C191	C19	0.583500	0.234700	0.044600
C201	C20	0.610600	0.211000	0.959000
C211	C21	0.620500	0.285800	0.932600
C221	C22	0.595100	0.386200	0.987000
C231	C23	0.564900	0.409000	0.072400
C241	C24	0.645200	0.257400	0.837000
C251	C25	0.570700	0.328100	0.499800
C261	C26	0.627100	0.285000	0.560200
C271	C27	0.618800	0.324500	0.655400
C281	C28	0.669200	0.281500	0.709800
C291	C29	0.736700	0.208200	0.673600
C301	C30	0.747800	0.168200	0.579000
C311	C31	0.692400	0.207100	0.523600
C321	C32	0.821200	0.091100	0.543200
C331	C33	0.021000	0.835100	0.190600
C341	C34	0.057600	0.767500	0.101400
C351	C35	0.083500	0.809900	0.044600
C361	C36	0.110600	0.748000	0.959000
C371	C37	0.120500	0.646800	0.932600
C381	C38	0.095100	0.600800	0.987000
C391	C39	0.064900	0.663400	0.072400
C401	C40	0.145200	0.579600	0.837000
C411	C41	0.070700	0.171700	0.499800
C421	C42	0.127100	0.275200	0.560200
C431	C43	0.118800	0.330900	0.655400
C441	C44	0.169200	0.428300	0.709800
C451	C45	0.236700	0.465400	0.673600
C461	C46	0.247800	0.410800	0.579000
C471	C47	0.192400	0.316500	0.523600
C481	C48	0.321200	0.452100	0.543200
C491	C49	0.479000	0.644500	0.809400
C501	C50	0.442400	0.666100	0.898600
C511	C51	0.416500	0.765300	0.955400
C521	C52	0.389400	0.789000	0.041000
C531	C53	0.379500	0.714200	0.067400
C541	C54	0.404900	0.613800	0.013000
C551	C55	0.435100	0.591000	0.927600
C561	C56	0.354800	0.742600	0.163000
C571	C57	0.429300	0.671900	0.500200
C581	C58	0.372900	0.715000	0.439800
C591	C59	0.381200	0.675500	0.344600
C601	C60	0.330800	0.718500	0.290200
C611	C61	0.263300	0.791800	0.326400
C621	C62	0.252200	0.831800	0.421000
C631	C63	0.307600	0.792900	0.476400
C641	C64	0.178800	0.908900	0.456800
N11	N1	0.850900	0.515600	0.197000
N21	N2	0.649100	0.318600	0.803000
N31	N3	0.149100	0.484400	0.803000
N41	N4	0.350900	0.681400	0.197000
O11	O1	0.982800	0.069600	0.784400
O21	O2	0.006300	0.208440	0.761680
O31	O3	0.948000	0.860280	0.588360
O41	O4	0.960800	0.882990	0.463580
O51	O5	0.669200	0.602890	0.542780
O61	O6	0.628600	0.461830	0.402260
O71	O7	0.517200	0.285200	0.215600
O81	O8	0.493700	0.446760	0.238320
O91	O9	0.552000	0.271920	0.411640
O101	O10	0.539200	0.419410	0.536420
O111	O11	0.830800	0.060110	0.457220
O121	O12	0.871400	0.059570	0.597740
O131	O13	0.017200	0.930400	0.215600
O141	O14	0.993700	0.791560	0.238320
O151	O15	0.052000	0.139720	0.411640
O161	O16	0.039200	0.117010	0.536420
O171	O17	0.330800	0.397110	0.457220
O181	O18	0.371400	0.538170	0.597740
O191	O19	0.482800	0.714800	0.784400
O201	O20	0.506300	0.553240	0.761680
O211	O21	0.448000	0.728080	0.588360
O221	O22	0.460800	0.580590	0.463580
O231	O23	0.169200	0.939890	0.542780
O241	O24	0.128600	0.940430	0.402260
