data_GEFZAU_clean_PM
_symmetry_space_group_name_H-M	'P1'
_cell_length_a	18.410000
_cell_length_b	18.410000
_cell_length_c	21.321000
_cell_angle_alpha	90.000000
_cell_angle_beta	90.000000
_cell_angle_gamma	120.000000
_symmetry_Int_Tables_number 1

loop_
_symmetry_equiv_pos_as_xyz
'x,y,z'

loop_
_atom_site_label
_atom_site_type_symbol
_atom_site_fract_x
_atom_site_fract_y
_atom_site_fract_z
Cu11	Cu1	0.507400	0.663500	0.658190
Cu21	Cu2	0.156100	0.492600	0.991520
Cu31	Cu3	0.336500	0.843900	0.324860
Cu41	Cu4	0.843900	0.336500	0.341810
Cu51	Cu5	0.663500	0.507400	0.008480
Cu61	Cu6	0.492600	0.156100	0.675140
P11	P1	0.380300	0.645600	0.693250
P21	P2	0.139000	0.470200	0.886510
P31	P3	0.265300	0.619700	0.026580
P41	P4	0.331200	0.861000	0.219840
P51	P5	0.354400	0.734700	0.359920
P61	P6	0.529800	0.668800	0.553180
P71	P7	0.734700	0.354400	0.306750
P81	P8	0.668800	0.529800	0.113490
P91	P9	0.645600	0.380300	0.973420
P101	P10	0.470200	0.139000	0.780160
P111	P11	0.619700	0.265300	0.640080
P121	P12	0.861000	0.331200	0.446820
H11	H1	0.647200	0.641500	0.935500
H21	H2	0.546600	0.650800	0.879100
H31	H3	0.372000	0.421900	0.934600
H41	H4	0.478700	0.418400	0.993500
H51	H5	0.462200	0.611900	0.790400
H61	H6	0.222700	0.558400	0.766100
H71	H7	0.287600	0.477000	0.921100
H81	H8	0.491500	0.815000	0.727300
H91	H9	0.478700	0.932400	0.750200
H101	H10	0.348300	0.924600	0.741000
H111	H11	0.230700	0.799400	0.709000
H121	H12	0.243500	0.682000	0.686100
H131	H13	0.304000	0.667500	0.579600
H141	H14	0.204800	0.572600	0.508900
H151	H15	0.142800	0.438800	0.523200
H161	H16	0.152900	0.378000	0.617800
H171	H17	0.265900	0.466800	0.686800
H181	H18	0.130500	0.381200	0.766800
H191	H19	0.061200	0.246700	0.734600
H201	H20	0.966200	0.137000	0.803600
H211	H21	0.955600	0.174100	0.907000
H221	H22	0.016600	0.307700	0.940600
H231	H23	0.013800	0.417800	0.782400
H241	H24	0.958800	0.489500	0.727400
H251	H25	0.999800	0.628100	0.753900
H261	H26	0.095700	0.695100	0.835300
H271	H27	0.150600	0.623300	0.890300
H281	H28	0.994300	0.352800	0.268830
H291	H29	0.104200	0.453400	0.212430
H301	H30	0.049900	0.628000	0.267930
H311	H31	0.939700	0.521300	0.326830
H321	H32	0.149700	0.537800	0.123730
H331	H33	0.335700	0.777300	0.099430
H341	H34	0.189400	0.712400	0.254430
H351	H35	0.323500	0.508500	0.060630
H361	H36	0.453700	0.521300	0.083530
H371	H37	0.576300	0.651700	0.074330
H381	H38	0.568700	0.769300	0.042330
H391	H39	0.438500	0.756500	0.019430
H401	H40	0.363500	0.696000	0.912930
H411	H41	0.367800	0.795200	0.842230
H421	H42	0.296000	0.857200	0.856530
H431	H43	0.225100	0.847100	0.951130
H441	H44	0.200900	0.734100	0.020130
H451	H45	0.250700	0.869500	0.100130
H461	H46	0.185500	0.938800	0.067930
H471	H47	0.170800	0.033800	0.136930
H481	H48	0.218500	0.044400	0.240330
H491	H49	0.291100	0.983400	0.273930
H501	H50	0.404000	0.986200	0.115730
H511	H51	0.530700	0.041200	0.060730
H521	H52	0.628300	0.000200	0.087230
H531	H53	0.599400	0.904300	0.168630
H541	H54	0.472700	0.849400	0.223630
H551	H55	0.358500	0.005700	0.602170
H561	H56	0.349200	0.895800	0.545770
H571	H57	0.578100	0.950100	0.601270
H581	H58	0.581600	0.060300	0.660170
H591	H59	0.388100	0.850300	0.457070
H601	H60	0.441600	0.664300	0.432770
H611	H61	0.523000	0.810600	0.587770
H621	H62	0.185000	0.676500	0.393970
H631	H63	0.067600	0.546300	0.416870
H641	H64	0.075400	0.423700	0.407670
H651	H65	0.200600	0.431300	0.375670
H661	H66	0.318000	0.561500	0.352770
H671	H67	0.332500	0.636500	0.246270
H681	H68	0.427400	0.632200	0.175570
H691	H69	0.561200	0.704000	0.189870
H701	H70	0.622000	0.774900	0.284470
H711	H71	0.533200	0.799100	0.353470
H721	H72	0.618800	0.749300	0.433470
H731	H73	0.753300	0.814500	0.401270
H741	H74	0.863000	0.829200	0.470270
H751	H75	0.825900	0.781500	0.573670
H761	H76	0.692300	0.708900	0.607270
H771	H77	0.582200	0.596000	0.449070
H781	H78	0.510500	0.469300	0.394070
H791	H79	0.371900	0.371700	0.420570
H801	H80	0.304900	0.400600	0.501970
H811	H81	0.376700	0.527300	0.556970
H821	H82	0.005700	0.358500	0.064500
H831	H83	0.895800	0.349200	0.120900
H841	H84	0.950100	0.578100	0.065400
H851	H85	0.060300	0.581600	0.006500
H861	H86	0.850300	0.388100	0.209600
H871	H87	0.664300	0.441600	0.233900
H881	H88	0.810600	0.523000	0.078900
H891	H89	0.676500	0.185000	0.272700
H901	H90	0.546300	0.067600	0.249800
H911	H91	0.423700	0.075400	0.259000
H921	H92	0.431300	0.200600	0.291000
H931	H93	0.561500	0.318000	0.313900
H941	H94	0.636500	0.332500	0.420400
H951	H95	0.632200	0.427400	0.491100
H961	H96	0.704000	0.561200	0.476800
H971	H97	0.774900	0.622000	0.382200
H981	H98	0.799100	0.533200	0.313200
H991	H99	0.749300	0.618800	0.233200
H1001	H100	0.814500	0.753300	0.265400
H1011	H101	0.829200	0.863000	0.196400
H1021	H102	0.781500	0.825900	0.093000
H1031	H103	0.708900	0.692300	0.059400
H1041	H104	0.596000	0.582200	0.217600
H1051	H105	0.469300	0.510500	0.272600
H1061	H106	0.371700	0.371900	0.246100
H1071	H107	0.400600	0.304900	0.164700
H1081	H108	0.527300	0.376700	0.109700
H1091	H109	0.641500	0.647200	0.731170
H1101	H110	0.650800	0.546600	0.787570
H1111	H111	0.421900	0.372000	0.732070
H1121	H112	0.418400	0.478700	0.673170
H1131	H113	0.611900	0.462200	0.876270
H1141	H114	0.558400	0.222700	0.900570
H1151	H115	0.477000	0.287600	0.745570
H1161	H116	0.815000	0.491500	0.939370
H1171	H117	0.932400	0.478700	0.916470
H1181	H118	0.924600	0.348300	0.925670
H1191	H119	0.799400	0.230700	0.957670
H1201	H120	0.682000	0.243500	0.980570
H1211	H121	0.667500	0.304000	0.087070
H1221	H122	0.572600	0.204800	0.157770
H1231	H123	0.438800	0.142800	0.143470
H1241	H124	0.378000	0.152900	0.048870
H1251	H125	0.466800	0.265900	0.979870
H1261	H126	0.381200	0.130500	0.899870
H1271	H127	0.246700	0.061200	0.932070
H1281	H128	0.137000	0.966200	0.863070
H1291	H129	0.174100	0.955600	0.759670
H1301	H130	0.307700	0.016600	0.726070
H1311	H131	0.417800	0.013800	0.884270
H1321	H132	0.489500	0.958800	0.939270
H1331	H133	0.628100	0.999800	0.912770
H1341	H134	0.695100	0.095700	0.831370
H1351	H135	0.623300	0.150600	0.776370
H1361	H136	0.352800	0.994300	0.397830
H1371	H137	0.453400	0.104200	0.454230
H1381	H138	0.628000	0.049900	0.398730
H1391	H139	0.521300	0.939700	0.339830
H1401	H140	0.537800	0.149700	0.542930
H1411	H141	0.777300	0.335700	0.567230
H1421	H142	0.712400	0.189400	0.412230
H1431	H143	0.508500	0.323500	0.606030
H1441	H144	0.521300	0.453700	0.583130
H1451	H145	0.651700	0.576300	0.592330
H1461	H146	0.769300	0.568700	0.624330
H1471	H147	0.756500	0.438500	0.647230
H1481	H148	0.696000	0.363500	0.753730
H1491	H149	0.795200	0.367800	0.824430
H1501	H150	0.857200	0.296000	0.810130
H1511	H151	0.847100	0.225100	0.715530
H1521	H152	0.734100	0.200900	0.646530
H1531	H153	0.869500	0.250700	0.566530
H1541	H154	0.938800	0.185500	0.598730
H1551	H155	0.033800	0.170800	0.529730
H1561	H156	0.044400	0.218500	0.426330
H1571	H157	0.983400	0.291100	0.392730
H1581	H158	0.986200	0.404000	0.550930
H1591	H159	0.041200	0.530700	0.605930
H1601	H160	0.000200	0.628300	0.579430
H1611	H161	0.904300	0.599400	0.498030
H1621	H162	0.849400	0.472700	0.443030
C11	C1	0.592000	0.594500	0.935100
C21	C2	0.530300	0.600200	0.901300
C31	C3	0.450400	0.540300	0.897600
C41	C4	0.428000	0.467500	0.933400
C51	C5	0.494100	0.466000	0.967700
C61	C6	0.384700	0.544100	0.862300
C71	C7	0.406100	0.587300	0.805200
C81	C8	0.347900	0.595100	0.769800
C91	C9	0.264100	0.557000	0.791900
C101	C10	0.240800	0.518200	0.849200
C111	C11	0.303100	0.508500	0.883300
C121	C12	0.368700	0.737400	0.704600
C131	C13	0.438500	0.811700	0.723600
C141	C14	0.430900	0.881500	0.737200
C151	C15	0.353500	0.876900	0.731800
C161	C16	0.283700	0.802600	0.712700
C171	C17	0.291200	0.732800	0.699100
C181	C18	0.294200	0.573700	0.642400
C191	C19	0.276400	0.608800	0.587000
C201	C20	0.217300	0.552000	0.545700
C211	C21	0.179500	0.474200	0.555000
C221	C22	0.188000	0.436100	0.609600
C231	C23	0.252400	0.489900	0.651900
C241	C24	0.088400	0.362500	0.860600
C251	C25	0.095200	0.338600	0.795600
C261	C26	0.053600	0.259800	0.776400
C271	C27	0.997200	0.193700	0.817300
C281	C28	0.990300	0.217400	0.878500
C291	C29	0.028600	0.295800	0.899800
C301	C30	0.087400	0.513800	0.841500
C311	C31	0.030400	0.474100	0.793200
C321	C32	0.997700	0.516600	0.760500
C331	C33	0.022100	0.599000	0.776200
C341	C34	0.079000	0.638700	0.824600
C351	C35	0.111700	0.596200	0.857200
C361	C36	0.002500	0.408000	0.268430
C371	C37	0.069900	0.469700	0.234630
C381	C38	0.089900	0.549600	0.230930
C391	C39	0.039500	0.572000	0.266730
C401	C40	0.971900	0.505900	0.301030
C411	C41	0.159400	0.615300	0.195630
C421	C42	0.181200	0.593900	0.138530
C431	C43	0.247200	0.652100	0.103130
C441	C44	0.292900	0.735900	0.125230
C451	C45	0.277400	0.759200	0.182530
C461	C46	0.205400	0.696900	0.216630
C471	C47	0.368700	0.631300	0.037930
C481	C48	0.373200	0.561500	0.056930
C491	C49	0.450600	0.569100	0.070530
C501	C50	0.523400	0.646500	0.065130
C511	C51	0.518900	0.716300	0.046030
C521	C52	0.441600	0.708800	0.032430
C531	C53	0.279500	0.705800	0.975730
C541	C54	0.332400	0.723600	0.920330
C551	C55	0.334700	0.782700	0.879030
C561	C56	0.294700	0.820500	0.888330
C571	C57	0.248100	0.812000	0.942930
C581	C58	0.237500	0.747600	0.985230
C591	C59	0.274100	0.911600	0.193930
C601	C60	0.243400	0.904800	0.128930
C611	C61	0.206200	0.946400	0.109730
C621	C62	0.196500	0.002800	0.150630
C631	C63	0.227100	0.009700	0.211830
C641	C64	0.267200	0.971400	0.233130
C651	C65	0.426400	0.912600	0.174830
C661	C66	0.443700	0.969600	0.126530
C671	C67	0.518900	0.002300	0.093830
C681	C68	0.576900	0.977900	0.109530
C691	C69	0.559700	0.921000	0.157930
C701	C70	0.484500	0.888300	0.190530
C711	C71	0.405500	0.997500	0.601770
C721	C72	0.399800	0.930100	0.567970
C731	C73	0.459700	0.910100	0.564270
C741	C74	0.532500	0.960500	0.600070
C751	C75	0.534000	0.028100	0.634370
C761	C76	0.455900	0.840600	0.528970
C771	C77	0.412700	0.818800	0.471870
C781	C78	0.404900	0.752800	0.436470
C791	C79	0.443000	0.707100	0.458570
C801	C80	0.481800	0.722600	0.515870
C811	C81	0.491500	0.794600	0.549970
C821	C82	0.262600	0.631300	0.371270
C831	C83	0.188300	0.626800	0.390270
C841	C84	0.118500	0.549400	0.403870
C851	C85	0.123100	0.476600	0.398470
C861	C86	0.197400	0.481100	0.379370
C871	C87	0.267200	0.558400	0.365770
C881	C88	0.426300	0.720500	0.309070
C891	C89	0.391200	0.667600	0.253670
C901	C90	0.448000	0.665300	0.212370
C911	C91	0.525800	0.705300	0.221670
C921	C92	0.563900	0.751900	0.276270
C931	C93	0.510100	0.762500	0.318570
C941	C94	0.637500	0.725900	0.527270
C951	C95	0.661400	0.756600	0.462270
C961	C96	0.740200	0.793800	0.443070
C971	C97	0.806300	0.803500	0.483970
C981	C98	0.782600	0.772900	0.545170
C991	C99	0.704200	0.732800	0.566470
C1001	C100	0.486200	0.573600	0.508170
C1011	C101	0.525900	0.556300	0.459870
C1021	C102	0.483400	0.481100	0.427170
C1031	C103	0.401000	0.423100	0.442870
C1041	C104	0.361300	0.440300	0.491270
C1051	C105	0.403800	0.515500	0.523870
C1061	C106	0.997500	0.405500	0.064900
C1071	C107	0.930100	0.399800	0.098700
C1081	C108	0.910100	0.459700	0.102400
C1091	C109	0.960500	0.532500	0.066600
C1101	C110	0.028100	0.534000	0.032300
C1111	C111	0.840600	0.455900	0.137700
C1121	C112	0.818800	0.412700	0.194800
C1131	C113	0.752800	0.404900	0.230200
C1141	C114	0.707100	0.443000	0.208100
C1151	C115	0.722600	0.481800	0.150800
C1161	C116	0.794600	0.491500	0.116700
C1171	C117	0.631300	0.262600	0.295400
C1181	C118	0.626800	0.188300	0.276400
C1191	C119	0.549400	0.118500	0.262800
C1201	C120	0.476600	0.123100	0.268200
C1211	C121	0.481100	0.197400	0.287300
C1221	C122	0.558400	0.267200	0.300900
C1231	C123	0.720500	0.426300	0.357600
C1241	C124	0.667600	0.391200	0.413000
C1251	C125	0.665300	0.448000	0.454300
C1261	C126	0.705300	0.525800	0.445000
C1271	C127	0.751900	0.563900	0.390400
C1281	C128	0.762500	0.510100	0.348100
C1291	C129	0.725900	0.637500	0.139400
C1301	C130	0.756600	0.661400	0.204400
C1311	C131	0.793800	0.740200	0.223600
C1321	C132	0.803500	0.806300	0.182700
C1331	C133	0.772900	0.782600	0.121500
C1341	C134	0.732800	0.704200	0.100200
C1351	C135	0.573600	0.486200	0.158500
C1361	C136	0.556300	0.525900	0.206800
C1371	C137	0.481100	0.483400	0.239500
C1381	C138	0.423100	0.401000	0.223800
C1391	C139	0.440300	0.361300	0.175400
C1401	C140	0.515500	0.403800	0.142800
C1411	C141	0.594500	0.592000	0.731570
C1421	C142	0.600200	0.530300	0.765370
C1431	C143	0.540300	0.450400	0.769070
C1441	C144	0.467500	0.428000	0.733270
C1451	C145	0.466000	0.494100	0.698970
C1461	C146	0.544100	0.384700	0.804370
C1471	C147	0.587300	0.406100	0.861470
C1481	C148	0.595100	0.347900	0.896870
C1491	C149	0.557000	0.264100	0.874770
C1501	C150	0.518200	0.240800	0.817470
C1511	C151	0.508500	0.303100	0.783370
C1521	C152	0.737400	0.368700	0.962070
C1531	C153	0.811700	0.438500	0.943070
C1541	C154	0.881500	0.430900	0.929470
C1551	C155	0.876900	0.353500	0.934870
C1561	C156	0.802600	0.283700	0.953970
C1571	C157	0.732800	0.291200	0.967570
C1581	C158	0.573700	0.294200	0.024270
C1591	C159	0.608800	0.276400	0.079670
C1601	C160	0.552000	0.217300	0.120970
C1611	C161	0.474200	0.179500	0.111670
C1621	C162	0.436100	0.188000	0.057070
C1631	C163	0.489900	0.252400	0.014770
C1641	C164	0.362500	0.088400	0.806070
C1651	C165	0.338600	0.095200	0.871070
C1661	C166	0.259800	0.053600	0.890270
C1671	C167	0.193700	0.997200	0.849370
C1681	C168	0.217400	0.990300	0.788170
C1691	C169	0.295800	0.028600	0.766870
C1701	C170	0.513800	0.087400	0.825170
C1711	C171	0.474100	0.030400	0.873470
C1721	C172	0.516600	0.997700	0.906170
C1731	C173	0.599000	0.022100	0.890470
C1741	C174	0.638700	0.079000	0.842070
C1751	C175	0.596200	0.111700	0.809470
C1761	C176	0.408000	0.002500	0.398230
C1771	C177	0.469700	0.069900	0.432030
C1781	C178	0.549600	0.089900	0.435730
C1791	C179	0.572000	0.039500	0.399930
C1801	C180	0.505900	0.971900	0.365630
C1811	C181	0.615300	0.159400	0.471030
C1821	C182	0.593900	0.181200	0.528130
C1831	C183	0.652100	0.247200	0.563530
C1841	C184	0.735900	0.292900	0.541430
C1851	C185	0.759200	0.277400	0.484130
C1861	C186	0.696900	0.205400	0.450030
C1871	C187	0.631300	0.368700	0.628730
C1881	C188	0.561500	0.373200	0.609730
C1891	C189	0.569100	0.450600	0.596130
C1901	C190	0.646500	0.523400	0.601530
C1911	C191	0.716300	0.518900	0.620630
C1921	C192	0.708800	0.441600	0.634230
C1931	C193	0.705800	0.279500	0.690930
C1941	C194	0.723600	0.332400	0.746330
C1951	C195	0.782700	0.334700	0.787630
C1961	C196	0.820500	0.294700	0.778330
C1971	C197	0.812000	0.248100	0.723730
C1981	C198	0.747600	0.237500	0.681430
C1991	C199	0.911600	0.274100	0.472730
C2001	C200	0.904800	0.243400	0.537730
C2011	C201	0.946400	0.206200	0.556930
C2021	C202	0.002800	0.196500	0.516030
C2031	C203	0.009700	0.227100	0.454830
C2041	C204	0.971400	0.267200	0.433530
C2051	C205	0.912600	0.426400	0.491830
C2061	C206	0.969600	0.443700	0.540130
C2071	C207	0.002300	0.518900	0.572830
C2081	C208	0.977900	0.576900	0.557130
C2091	C209	0.921000	0.559700	0.508730
C2101	C210	0.888300	0.484500	0.476130
N11	N1	0.577100	0.526000	0.967100
N21	N2	0.948900	0.422900	0.300430
N31	N3	0.474000	0.051100	0.633770
N41	N4	0.051100	0.474000	0.032900
N51	N5	0.526000	0.577100	0.699570
N61	N6	0.422900	0.948900	0.366230
Cl11	Cl1	0.621300	0.783400	0.705900
Cl21	Cl2	0.162100	0.378700	0.039230
Cl31	Cl3	0.216600	0.837900	0.372570
Cl41	Cl4	0.837900	0.216600	0.294100
Cl51	Cl5	0.783400	0.621300	0.960770
Cl61	Cl6	0.378700	0.162100	0.627430
