data_GEGDED_clean_PM
_symmetry_space_group_name_H-M	'P1'
_cell_length_a	12.247300
_cell_length_b	25.914000
_cell_length_c	25.914100
_cell_angle_alpha	90.000000
_cell_angle_beta	90.000000
_cell_angle_gamma	90.000000
_symmetry_Int_Tables_number 1

loop_
_symmetry_equiv_pos_as_xyz
'x,y,z'

loop_
_atom_site_label
_atom_site_type_symbol
_atom_site_fract_x
_atom_site_fract_y
_atom_site_fract_z
Cu11	Cu1	0.925890	0.506010	0.963260
Cu21	Cu2	0.074110	0.493990	0.463260
Cu31	Cu3	0.074110	0.006010	0.536740
Cu41	Cu4	0.925890	0.993990	0.036740
Cu51	Cu5	0.074110	0.493990	0.036740
Cu61	Cu6	0.925890	0.506010	0.536740
Cu71	Cu7	0.925890	0.993990	0.463260
Cu81	Cu8	0.074110	0.006010	0.963260
Cu91	Cu9	0.004640	0.297050	0.250000
Cu101	Cu10	0.854250	0.223770	0.250000
Cu111	Cu11	0.995360	0.702950	0.750000
Cu121	Cu12	0.145750	0.776230	0.750000
Cu131	Cu13	0.995360	0.797050	0.250000
Cu141	Cu14	0.145750	0.723770	0.250000
Cu151	Cu15	0.004640	0.202950	0.750000
Cu161	Cu16	0.854250	0.276230	0.750000
H11	H1	0.902300	0.385600	0.129000
H21	H2	0.661900	0.280300	0.119100
H31	H3	0.697700	0.387800	0.008200
H41	H4	0.485800	0.275000	0.076000
H51	H5	0.584700	0.240900	0.053700
H61	H6	0.335900	0.305300	0.011700
H71	H7	0.431500	0.325400	0.974200
H81	H8	0.211200	0.255400	0.864900
H91	H9	0.998200	0.375600	0.868900
H101	H10	0.247500	0.367200	0.972800
H111	H11	0.097700	0.614400	0.629000
H121	H12	0.338100	0.719700	0.619100
H131	H13	0.302300	0.612200	0.508200
H141	H14	0.514200	0.725000	0.576000
H151	H15	0.415300	0.759100	0.553700
H161	H16	0.664100	0.694700	0.511700
H171	H17	0.568500	0.674600	0.474200
H181	H18	0.788800	0.744600	0.364900
H191	H19	0.001800	0.624400	0.368900
H201	H20	0.752500	0.632800	0.472800
H211	H21	0.097700	0.885600	0.371000
H221	H22	0.338100	0.780300	0.380900
H231	H23	0.302300	0.887800	0.491800
H241	H24	0.514200	0.775000	0.424000
H251	H25	0.415300	0.740900	0.446300
H261	H26	0.664100	0.805300	0.488300
H271	H27	0.568500	0.825400	0.525800
H281	H28	0.788800	0.755400	0.635100
H291	H29	0.001800	0.875600	0.631100
H301	H30	0.752500	0.867200	0.527200
H311	H31	0.902300	0.114400	0.871000
H321	H32	0.661900	0.219700	0.880900
H331	H33	0.697700	0.112200	0.991800
H341	H34	0.485800	0.225000	0.924000
H351	H35	0.584700	0.259100	0.946300
H361	H36	0.335900	0.194700	0.988300
H371	H37	0.431500	0.174600	0.025800
H381	H38	0.211200	0.244600	0.135100
H391	H39	0.998200	0.124400	0.131100
H401	H40	0.247500	0.132800	0.027200
H411	H41	0.097700	0.614400	0.871000
H421	H42	0.338100	0.719700	0.880900
H431	H43	0.302300	0.612200	0.991800
H441	H44	0.514200	0.725000	0.924000
H451	H45	0.415300	0.759100	0.946300
H461	H46	0.664100	0.694700	0.988300
H471	H47	0.568500	0.674600	0.025800
H481	H48	0.788800	0.744600	0.135100
H491	H49	0.001800	0.624400	0.131100
H501	H50	0.752500	0.632800	0.027200
H511	H51	0.902300	0.385600	0.371000
H521	H52	0.661900	0.280300	0.380900
H531	H53	0.697700	0.387800	0.491800
H541	H54	0.485800	0.275000	0.424000
H551	H55	0.584700	0.240900	0.446300
H561	H56	0.335900	0.305300	0.488300
H571	H57	0.431500	0.325400	0.525800
H581	H58	0.211200	0.255400	0.635100
H591	H59	0.998200	0.375600	0.631100
H601	H60	0.247500	0.367200	0.527200
H611	H61	0.902300	0.114400	0.629000
H621	H62	0.661900	0.219700	0.619100
H631	H63	0.697700	0.112200	0.508200
H641	H64	0.485800	0.225000	0.576000
H651	H65	0.584700	0.259100	0.553700
H661	H66	0.335900	0.194700	0.511700
H671	H67	0.431500	0.174600	0.474200
H681	H68	0.211200	0.244600	0.364900
H691	H69	0.998200	0.124400	0.368900
H701	H70	0.247500	0.132800	0.472800
H711	H71	0.097700	0.885600	0.129000
H721	H72	0.338100	0.780300	0.119100
H731	H73	0.302300	0.887800	0.008200
H741	H74	0.514200	0.775000	0.076000
H751	H75	0.415300	0.740900	0.053700
H761	H76	0.664100	0.805300	0.011700
H771	H77	0.568500	0.825400	0.974200
H781	H78	0.788800	0.755400	0.864900
H791	H79	0.001800	0.875600	0.868900
H801	H80	0.752500	0.867200	0.972800
C11	C1	0.872500	0.436780	0.040640
C21	C2	0.808600	0.393600	0.064340
C31	C3	0.841600	0.371600	0.111010
C41	C4	0.787500	0.330230	0.130890
C51	C5	0.699400	0.309300	0.105320
C61	C6	0.666200	0.331460	0.058760
C71	C7	0.721200	0.372900	0.039740
C81	C8	0.832100	0.304200	0.179740
C91	C9	0.530900	0.268000	0.045030
C101	C10	0.386000	0.295270	0.983470
C111	C11	0.242100	0.306400	0.922590
C121	C12	0.186600	0.286400	0.880590
C131	C13	0.094800	0.311600	0.861250
C141	C14	0.060000	0.358100	0.882450
C151	C15	0.118500	0.378610	0.924570
C161	C16	0.208600	0.353000	0.944420
C171	C17	0.034300	0.286000	0.819020
C181	C18	0.078000	0.426770	0.949750
C191	C19	0.127500	0.563220	0.540640
C201	C20	0.191400	0.606400	0.564340
C211	C21	0.158400	0.628400	0.611010
C221	C22	0.212500	0.669770	0.630890
C231	C23	0.300600	0.690700	0.605320
C241	C24	0.333800	0.668540	0.558760
C251	C25	0.278800	0.627100	0.539740
C261	C26	0.167900	0.695800	0.679740
C271	C27	0.469100	0.732000	0.545030
C281	C28	0.614000	0.704730	0.483470
C291	C29	0.757900	0.693600	0.422590
C301	C30	0.813400	0.713600	0.380590
C311	C31	0.905200	0.688400	0.361250
C321	C32	0.940000	0.641900	0.382450
C331	C33	0.881500	0.621390	0.424570
C341	C34	0.791400	0.647000	0.444420
C351	C35	0.965700	0.714000	0.319020
C361	C36	0.922000	0.573230	0.449750
C371	C37	0.127500	0.936780	0.459360
C381	C38	0.191400	0.893600	0.435660
C391	C39	0.158400	0.871600	0.388990
C401	C40	0.212500	0.830230	0.369110
C411	C41	0.300600	0.809300	0.394680
C421	C42	0.333800	0.831460	0.441240
C431	C43	0.278800	0.872900	0.460260
C441	C44	0.167900	0.804200	0.320260
C451	C45	0.469100	0.768000	0.454970
C461	C46	0.614000	0.795270	0.516530
C471	C47	0.757900	0.806400	0.577410
C481	C48	0.813400	0.786400	0.619410
C491	C49	0.905200	0.811600	0.638750
C501	C50	0.940000	0.858100	0.617550
C511	C51	0.881500	0.878610	0.575430
C521	C52	0.791400	0.853000	0.555580
C531	C53	0.965700	0.786000	0.680980
C541	C54	0.922000	0.926770	0.550250
C551	C55	0.872500	0.063220	0.959360
C561	C56	0.808600	0.106400	0.935660
C571	C57	0.841600	0.128400	0.888990
C581	C58	0.787500	0.169770	0.869110
C591	C59	0.699400	0.190700	0.894680
C601	C60	0.666200	0.168540	0.941240
C611	C61	0.721200	0.127100	0.960260
C621	C62	0.832100	0.195800	0.820260
C631	C63	0.530900	0.232000	0.954970
C641	C64	0.386000	0.204730	0.016530
C651	C65	0.242100	0.193600	0.077410
C661	C66	0.186600	0.213600	0.119410
C671	C67	0.094800	0.188400	0.138750
C681	C68	0.060000	0.141900	0.117550
C691	C69	0.118500	0.121390	0.075430
C701	C70	0.208600	0.147000	0.055580
C711	C71	0.034300	0.214000	0.180980
C721	C72	0.078000	0.073230	0.050250
C731	C73	0.127500	0.563220	0.959360
C741	C74	0.191400	0.606400	0.935660
C751	C75	0.158400	0.628400	0.888990
C761	C76	0.212500	0.669770	0.869110
C771	C77	0.300600	0.690700	0.894680
C781	C78	0.333800	0.668540	0.941240
C791	C79	0.278800	0.627100	0.960260
C801	C80	0.167900	0.695800	0.820260
C811	C81	0.469100	0.732000	0.954970
C821	C82	0.614000	0.704730	0.016530
C831	C83	0.757900	0.693600	0.077410
C841	C84	0.813400	0.713600	0.119410
C851	C85	0.905200	0.688400	0.138750
C861	C86	0.940000	0.641900	0.117550
C871	C87	0.881500	0.621390	0.075430
C881	C88	0.791400	0.647000	0.055580
C891	C89	0.965700	0.714000	0.180980
C901	C90	0.922000	0.573230	0.050250
C911	C91	0.872500	0.436780	0.459360
C921	C92	0.808600	0.393600	0.435660
C931	C93	0.841600	0.371600	0.388990
C941	C94	0.787500	0.330230	0.369110
C951	C95	0.699400	0.309300	0.394680
C961	C96	0.666200	0.331460	0.441240
C971	C97	0.721200	0.372900	0.460260
C981	C98	0.832100	0.304200	0.320260
C991	C99	0.530900	0.268000	0.454970
C1001	C100	0.386000	0.295270	0.516530
C1011	C101	0.242100	0.306400	0.577410
C1021	C102	0.186600	0.286400	0.619410
C1031	C103	0.094800	0.311600	0.638750
C1041	C104	0.060000	0.358100	0.617550
C1051	C105	0.118500	0.378610	0.575430
C1061	C106	0.208600	0.353000	0.555580
C1071	C107	0.034300	0.286000	0.680980
C1081	C108	0.078000	0.426770	0.550250
C1091	C109	0.872500	0.063220	0.540640
C1101	C110	0.808600	0.106400	0.564340
C1111	C111	0.841600	0.128400	0.611010
C1121	C112	0.787500	0.169770	0.630890
C1131	C113	0.699400	0.190700	0.605320
C1141	C114	0.666200	0.168540	0.558760
C1151	C115	0.721200	0.127100	0.539740
C1161	C116	0.832100	0.195800	0.679740
C1171	C117	0.530900	0.232000	0.545030
C1181	C118	0.386000	0.204730	0.483470
C1191	C119	0.242100	0.193600	0.422590
C1201	C120	0.186600	0.213600	0.380590
C1211	C121	0.094800	0.188400	0.361250
C1221	C122	0.060000	0.141900	0.382450
C1231	C123	0.118500	0.121390	0.424570
C1241	C124	0.208600	0.147000	0.444420
C1251	C125	0.034300	0.214000	0.319020
C1261	C126	0.078000	0.073230	0.449750
C1271	C127	0.127500	0.936780	0.040640
C1281	C128	0.191400	0.893600	0.064340
C1291	C129	0.158400	0.871600	0.111010
C1301	C130	0.212500	0.830230	0.130890
C1311	C131	0.300600	0.809300	0.105320
C1321	C132	0.333800	0.831460	0.058760
C1331	C133	0.278800	0.872900	0.039740
C1341	C134	0.167900	0.804200	0.179740
C1351	C135	0.469100	0.768000	0.045030
C1361	C136	0.614000	0.795270	0.983470
C1371	C137	0.757900	0.806400	0.922590
C1381	C138	0.813400	0.786400	0.880590
C1391	C139	0.905200	0.811600	0.861250
C1401	C140	0.940000	0.858100	0.882450
C1411	C141	0.881500	0.878610	0.924570
C1421	C142	0.791400	0.853000	0.944420
C1431	C143	0.965700	0.786000	0.819020
C1441	C144	0.922000	0.926770	0.949750
C1451	C145	0.457700	0.250000	0.000000
C1461	C146	0.542300	0.750000	0.500000
C1471	C147	0.542300	0.750000	0.000000
C1481	C148	0.457700	0.250000	0.500000
O11	O1	0.837000	0.456290	0.999930
O21	O2	0.962900	0.447820	0.062700
O31	O3	0.917000	0.326800	0.197780
O41	O4	0.783300	0.265460	0.195960
O51	O5	0.584900	0.313280	0.029300
O61	O6	0.325600	0.277630	0.939690
O71	O7	0.124600	0.439120	0.991010
O81	O8	0.998100	0.448410	0.929300
O91	O9	0.947100	0.307360	0.803070
O101	O10	0.072100	0.244870	0.801910
O111	O11	0.163000	0.543710	0.499930
O121	O12	0.037100	0.552180	0.562700
O131	O13	0.083000	0.673200	0.697780
O141	O14	0.216700	0.734540	0.695960
O151	O15	0.415100	0.686720	0.529300
O161	O16	0.674400	0.722370	0.439690
O171	O17	0.875400	0.560880	0.491010
O181	O18	0.001900	0.551590	0.429300
O191	O19	0.052900	0.692640	0.303070
O201	O20	0.927900	0.755130	0.301910
O211	O21	0.163000	0.956290	0.500070
O221	O22	0.037100	0.947820	0.437300
O231	O23	0.083000	0.826800	0.302220
O241	O24	0.216700	0.765460	0.304040
O251	O25	0.415100	0.813280	0.470700
O261	O26	0.674400	0.777630	0.560310
O271	O27	0.875400	0.939120	0.508990
O281	O28	0.001900	0.948410	0.570700
O291	O29	0.052900	0.807360	0.696930
O301	O30	0.927900	0.744870	0.698090
O311	O31	0.837000	0.043710	0.000070
O321	O32	0.962900	0.052180	0.937300
O331	O33	0.917000	0.173200	0.802220
O341	O34	0.783300	0.234540	0.804040
O351	O35	0.584900	0.186720	0.970700
O361	O36	0.325600	0.222370	0.060310
O371	O37	0.124600	0.060880	0.008990
O381	O38	0.998100	0.051590	0.070700
O391	O39	0.947100	0.192640	0.196930
O401	O40	0.072100	0.255130	0.198090
O411	O41	0.163000	0.543710	0.000070
O421	O42	0.037100	0.552180	0.937300
O431	O43	0.083000	0.673200	0.802220
O441	O44	0.216700	0.734540	0.804040
O451	O45	0.415100	0.686720	0.970700
O461	O46	0.674400	0.722370	0.060310
O471	O47	0.875400	0.560880	0.008990
O481	O48	0.001900	0.551590	0.070700
O491	O49	0.052900	0.692640	0.196930
O501	O50	0.927900	0.755130	0.198090
O511	O51	0.837000	0.456290	0.500070
O521	O52	0.962900	0.447820	0.437300
O531	O53	0.917000	0.326800	0.302220
O541	O54	0.783300	0.265460	0.304040
O551	O55	0.584900	0.313280	0.470700
O561	O56	0.325600	0.277630	0.560310
O571	O57	0.124600	0.439120	0.508990
O581	O58	0.998100	0.448410	0.570700
O591	O59	0.947100	0.307360	0.696930
O601	O60	0.072100	0.244870	0.698090
O611	O61	0.837000	0.043710	0.499930
O621	O62	0.962900	0.052180	0.562700
O631	O63	0.917000	0.173200	0.697780
O641	O64	0.783300	0.234540	0.695960
O651	O65	0.584900	0.186720	0.529300
O661	O66	0.325600	0.222370	0.439690
O671	O67	0.124600	0.060880	0.491010
O681	O68	0.998100	0.051590	0.429300
O691	O69	0.947100	0.192640	0.303070
O701	O70	0.072100	0.255130	0.301910
O711	O71	0.163000	0.956290	0.999930
O721	O72	0.037100	0.947820	0.062700
O731	O73	0.083000	0.826800	0.197780
O741	O74	0.216700	0.765460	0.195960
O751	O75	0.415100	0.813280	0.029300
O761	O76	0.674400	0.777630	0.939690
O771	O77	0.875400	0.939120	0.991010
O781	O78	0.001900	0.948410	0.929300
O791	O79	0.052900	0.807360	0.803070
O801	O80	0.927900	0.744870	0.801910
