data_GEGGIK01_clean_PM
_symmetry_space_group_name_H-M	'P1'
_cell_length_a	13.514600
_cell_length_b	10.769200
_cell_length_c	14.627800
_cell_angle_alpha	90.000000
_cell_angle_beta	110.631000
_cell_angle_gamma	90.000000
_symmetry_Int_Tables_number 1

loop_
_symmetry_equiv_pos_as_xyz
'x,y,z'

loop_
_atom_site_label
_atom_site_type_symbol
_atom_site_fract_x
_atom_site_fract_y
_atom_site_fract_z
Co11	Co1	0.410430	0.904180	0.461720
Co21	Co2	0.503840	0.010500	0.292210
O11	O1	0.304630	0.031000	0.373770
O21	O2	0.389910	0.135000	0.290590
O31	O3	0.386200	0.404200	0.238470
O41	O4	0.312600	0.284500	0.107760
O51	O5	0.620100	0.145800	0.340310
O61	O6	0.713850	0.151900	0.501270
O71	O7	0.633540	0.277000	0.152900
O81	O8	0.628160	0.395600	0.277680
O91	O9	0.538070	0.959500	0.431520
C11	C1	0.313000	0.117200	0.319100
C21	C2	0.224800	0.208600	0.285300
C31	C3	0.139800	0.194800	0.317800
H11	H1	0.139900	0.128700	0.358700
C41	C4	0.054900	0.277400	0.290600
C51	C5	0.057700	0.375400	0.229500
H21	H2	0.002600	0.432600	0.210800
C61	C6	0.141200	0.389400	0.196300
H31	H3	0.140500	0.454900	0.154600
C71	C7	0.225700	0.307500	0.224000
C81	C8	0.316300	0.332000	0.187000
C91	C9	0.965800	0.258000	0.325700
C101	C10	0.982300	0.203100	0.416700
H41	H4	0.050600	0.183000	0.457100
C111	C11	0.898200	0.178500	0.447300
H51	H5	0.910600	0.141300	0.507700
C121	C12	0.796300	0.208500	0.389000
C131	C13	0.778500	0.270500	0.300300
C141	C14	0.862600	0.293200	0.269200
H61	H6	0.850200	0.332600	0.209700
C151	C15	0.670800	0.316500	0.239300
C161	C16	0.702000	0.165500	0.412500
Co31	Co3	0.589570	0.404180	0.038280
Co41	Co4	0.496160	0.510500	0.207790
O101	O10	0.695370	0.531000	0.126230
O111	O11	0.610090	0.635000	0.209410
O121	O12	0.613800	0.904200	0.261530
O131	O13	0.687400	0.784500	0.392240
O141	O14	0.379900	0.645800	0.159690
O151	O15	0.286150	0.651900	0.998730
O161	O16	0.366460	0.777000	0.347100
O171	O17	0.371840	0.895600	0.222320
O181	O18	0.461930	0.459500	0.068480
C171	C17	0.687000	0.617200	0.180900
C181	C18	0.775200	0.708600	0.214700
C191	C19	0.860200	0.694800	0.182200
H71	H7	0.860100	0.628700	0.141300
C201	C20	0.945100	0.777400	0.209400
C211	C21	0.942300	0.875400	0.270500
H81	H8	0.997400	0.932600	0.289200
C221	C22	0.858800	0.889400	0.303700
H91	H9	0.859500	0.954900	0.345400
C231	C23	0.774300	0.807500	0.276000
C241	C24	0.683700	0.832000	0.313000
C251	C25	0.034200	0.758000	0.174300
C261	C26	0.017700	0.703100	0.083300
H101	H10	0.949400	0.683000	0.042900
C271	C27	0.101800	0.678500	0.052700
H111	H11	0.089400	0.641300	0.992300
C281	C28	0.203700	0.708500	0.111000
C291	C29	0.221500	0.770500	0.199700
C301	C30	0.137400	0.793200	0.230800
H121	H12	0.149800	0.832600	0.290300
C311	C31	0.329200	0.816500	0.260700
C321	C32	0.298000	0.665500	0.087500
Co51	Co5	0.589570	0.095820	0.538280
Co61	Co6	0.496160	0.989500	0.707790
O191	O19	0.695370	0.969000	0.626230
O201	O20	0.610090	0.865000	0.709410
O211	O21	0.613800	0.595800	0.761530
O221	O22	0.687400	0.715500	0.892240
O231	O23	0.379900	0.854200	0.659690
O241	O24	0.286150	0.848100	0.498730
O251	O25	0.366460	0.723000	0.847100
O261	O26	0.371840	0.604400	0.722320
O271	O27	0.461930	0.040500	0.568480
C331	C33	0.687000	0.882800	0.680900
C341	C34	0.775200	0.791400	0.714700
C351	C35	0.860200	0.805200	0.682200
H131	H13	0.860100	0.871300	0.641300
C361	C36	0.945100	0.722600	0.709400
C371	C37	0.942300	0.624600	0.770500
H141	H14	0.997400	0.567400	0.789200
C381	C38	0.858800	0.610600	0.803700
H151	H15	0.859500	0.545100	0.845400
C391	C39	0.774300	0.692500	0.776000
C401	C40	0.683700	0.668000	0.813000
C411	C41	0.034200	0.742000	0.674300
C421	C42	0.017700	0.796900	0.583300
H161	H16	0.949400	0.817000	0.542900
C431	C43	0.101800	0.821500	0.552700
H171	H17	0.089400	0.858700	0.492300
C441	C44	0.203700	0.791500	0.611000
C451	C45	0.221500	0.729500	0.699700
C461	C46	0.137400	0.706800	0.730800
H181	H18	0.149800	0.667400	0.790300
C471	C47	0.329200	0.683500	0.760700
C481	C48	0.298000	0.834500	0.587500
Co71	Co7	0.410430	0.595820	0.961720
Co81	Co8	0.503840	0.489500	0.792210
O281	O28	0.304630	0.469000	0.873770
O291	O29	0.389910	0.365000	0.790590
O301	O30	0.386200	0.095800	0.738470
O311	O31	0.312600	0.215500	0.607760
O321	O32	0.620100	0.354200	0.840310
O331	O33	0.713850	0.348100	0.001270
O341	O34	0.633540	0.223000	0.652900
O351	O35	0.628160	0.104400	0.777680
O361	O36	0.538070	0.540500	0.931520
C491	C49	0.313000	0.382800	0.819100
C501	C50	0.224800	0.291400	0.785300
C511	C51	0.139800	0.305200	0.817800
H191	H19	0.139900	0.371300	0.858700
C521	C52	0.054900	0.222600	0.790600
C531	C53	0.057700	0.124600	0.729500
H201	H20	0.002600	0.067400	0.710800
C541	C54	0.141200	0.110600	0.696300
H211	H21	0.140500	0.045100	0.654600
C551	C55	0.225700	0.192500	0.724000
C561	C56	0.316300	0.168000	0.687000
C571	C57	0.965800	0.242000	0.825700
C581	C58	0.982300	0.296900	0.916700
H221	H22	0.050600	0.317000	0.957100
C591	C59	0.898200	0.321500	0.947300
H231	H23	0.910600	0.358700	0.007700
C601	C60	0.796300	0.291500	0.889000
C611	C61	0.778500	0.229500	0.800300
C621	C62	0.862600	0.206800	0.769200
H241	H24	0.850200	0.167400	0.709700
C631	C63	0.670800	0.183500	0.739300
C641	C64	0.702000	0.334500	0.912500
