data_GEGGEG01_clean_PM
_symmetry_space_group_name_H-M	'P1'
_cell_length_a	13.582000
_cell_length_b	10.817300
_cell_length_c	14.703700
_cell_angle_alpha	90.000000
_cell_angle_beta	110.628000
_cell_angle_gamma	90.000000
_symmetry_Int_Tables_number 1

loop_
_symmetry_equiv_pos_as_xyz
'x,y,z'

loop_
_atom_site_label
_atom_site_type_symbol
_atom_site_fract_x
_atom_site_fract_y
_atom_site_fract_z
Co11	Co1	0.409410	0.902540	0.461140
Co21	Co2	0.504100	0.010460	0.292350
O11	O1	0.301720	0.030830	0.371600
O21	O2	0.388770	0.136300	0.292350
O31	O3	0.384470	0.404180	0.239280
O41	O4	0.311420	0.284080	0.109440
O51	O5	0.633640	0.277250	0.154960
O61	O6	0.629820	0.396020	0.278820
O71	O7	0.621420	0.147160	0.342240
O81	O8	0.715530	0.153170	0.501420
O91	O9	0.538860	0.958160	0.432380
C11	C1	0.311130	0.117260	0.319210
C21	C2	0.223010	0.209600	0.285100
C31	C3	0.138650	0.195900	0.317310
H11	H1	0.138800	0.130100	0.358000
C41	C4	0.054190	0.277700	0.290540
C51	C5	0.056480	0.375700	0.229640
H21	H2	0.001200	0.431900	0.210600
C61	C6	0.140140	0.390600	0.197010
H31	H3	0.139900	0.456700	0.156500
C71	C7	0.224440	0.308200	0.224020
C81	C8	0.314800	0.331700	0.187890
C91	C9	0.965450	0.258800	0.326280
C101	C10	0.862820	0.293800	0.269680
H41	H4	0.850300	0.332800	0.210300
C111	C11	0.779520	0.270670	0.301370
C121	C12	0.796890	0.209170	0.389150
C131	C13	0.898960	0.178700	0.447200
H51	H5	0.911500	0.141600	0.507300
C141	C14	0.982280	0.203000	0.416370
H61	H6	0.050300	0.182000	0.456000
C151	C15	0.671440	0.316930	0.240670
C161	C16	0.703450	0.166760	0.413140
Co31	Co3	0.590590	0.402540	0.038860
Co41	Co4	0.495900	0.510460	0.207650
O101	O10	0.698280	0.530830	0.128400
O111	O11	0.611230	0.636300	0.207650
O121	O12	0.615530	0.904180	0.260720
O131	O13	0.688580	0.784080	0.390560
O141	O14	0.366360	0.777250	0.345040
O151	O15	0.370180	0.896020	0.221180
O161	O16	0.378580	0.647160	0.157760
O171	O17	0.284470	0.653170	0.998580
O181	O18	0.461140	0.458160	0.067620
C171	C17	0.688870	0.617260	0.180790
C181	C18	0.776990	0.709600	0.214900
C191	C19	0.861350	0.695900	0.182690
H71	H7	0.861200	0.630100	0.142000
C201	C20	0.945810	0.777700	0.209460
C211	C21	0.943520	0.875700	0.270360
H81	H8	0.998800	0.931900	0.289400
C221	C22	0.859860	0.890600	0.302990
H91	H9	0.860100	0.956700	0.343500
C231	C23	0.775560	0.808200	0.275980
C241	C24	0.685200	0.831700	0.312110
C251	C25	0.034550	0.758800	0.173720
C261	C26	0.137180	0.793800	0.230320
H101	H10	0.149700	0.832800	0.289700
C271	C27	0.220480	0.770670	0.198630
C281	C28	0.203110	0.709170	0.110850
C291	C29	0.101040	0.678700	0.052800
H111	H11	0.088500	0.641600	0.992700
C301	C30	0.017720	0.703000	0.083630
H121	H12	0.949700	0.682000	0.044000
C311	C31	0.328560	0.816930	0.259330
C321	C32	0.296550	0.666760	0.086860
Co51	Co5	0.590590	0.097460	0.538860
Co61	Co6	0.495900	0.989540	0.707650
O191	O19	0.698280	0.969170	0.628400
O201	O20	0.611230	0.863700	0.707650
O211	O21	0.615530	0.595820	0.760720
O221	O22	0.688580	0.715920	0.890560
O231	O23	0.366360	0.722750	0.845040
O241	O24	0.370180	0.603980	0.721180
O251	O25	0.378580	0.852840	0.657760
O261	O26	0.284470	0.846830	0.498580
O271	O27	0.461140	0.041840	0.567620
C331	C33	0.688870	0.882740	0.680790
C341	C34	0.776990	0.790400	0.714900
C351	C35	0.861350	0.804100	0.682690
H131	H13	0.861200	0.869900	0.642000
C361	C36	0.945810	0.722300	0.709460
C371	C37	0.943520	0.624300	0.770360
H141	H14	0.998800	0.568100	0.789400
C381	C38	0.859860	0.609400	0.802990
H151	H15	0.860100	0.543300	0.843500
C391	C39	0.775560	0.691800	0.775980
C401	C40	0.685200	0.668300	0.812110
C411	C41	0.034550	0.741200	0.673720
C421	C42	0.137180	0.706200	0.730320
H161	H16	0.149700	0.667200	0.789700
C431	C43	0.220480	0.729330	0.698630
C441	C44	0.203110	0.790830	0.610850
C451	C45	0.101040	0.821300	0.552800
H171	H17	0.088500	0.858400	0.492700
C461	C46	0.017720	0.797000	0.583630
H181	H18	0.949700	0.818000	0.544000
C471	C47	0.328560	0.683070	0.759330
C481	C48	0.296550	0.833240	0.586860
Co71	Co7	0.409410	0.597460	0.961140
Co81	Co8	0.504100	0.489540	0.792350
O281	O28	0.301720	0.469170	0.871600
O291	O29	0.388770	0.363700	0.792350
O301	O30	0.384470	0.095820	0.739280
O311	O31	0.311420	0.215920	0.609440
O321	O32	0.633640	0.222750	0.654960
O331	O33	0.629820	0.103980	0.778820
O341	O34	0.621420	0.352840	0.842240
O351	O35	0.715530	0.346830	0.001420
O361	O36	0.538860	0.541840	0.932380
C491	C49	0.311130	0.382740	0.819210
C501	C50	0.223010	0.290400	0.785100
C511	C51	0.138650	0.304100	0.817310
H191	H19	0.138800	0.369900	0.858000
C521	C52	0.054190	0.222300	0.790540
C531	C53	0.056480	0.124300	0.729640
H201	H20	0.001200	0.068100	0.710600
C541	C54	0.140140	0.109400	0.697010
H211	H21	0.139900	0.043300	0.656500
C551	C55	0.224440	0.191800	0.724020
C561	C56	0.314800	0.168300	0.687890
C571	C57	0.965450	0.241200	0.826280
C581	C58	0.862820	0.206200	0.769680
H221	H22	0.850300	0.167200	0.710300
C591	C59	0.779520	0.229330	0.801370
C601	C60	0.796890	0.290830	0.889150
C611	C61	0.898960	0.321300	0.947200
H231	H23	0.911500	0.358400	0.007300
C621	C62	0.982280	0.297000	0.916370
H241	H24	0.050300	0.318000	0.956000
C631	C63	0.671440	0.183070	0.740670
C641	C64	0.703450	0.333240	0.913140
