data_GEGSIW_clean_PM
_symmetry_space_group_name_H-M	'P1'
_cell_length_a	14.254300
_cell_length_b	15.444800
_cell_length_c	15.444800
_cell_angle_alpha	77.554800
_cell_angle_beta	90.000000
_cell_angle_gamma	90.000000
_symmetry_Int_Tables_number 1

loop_
_symmetry_equiv_pos_as_xyz
'x,y,z'

loop_
_atom_site_label
_atom_site_type_symbol
_atom_site_fract_x
_atom_site_fract_y
_atom_site_fract_z
Ca11	Ca1	0.110820	0.961180	0.440420
Ca21	Ca2	0.610820	0.538820	0.059580
Ca31	Ca3	0.389180	0.940420	0.461180
Ca41	Ca4	0.889180	0.559580	0.038820
Ca51	Ca5	0.889180	0.038820	0.559580
Ca61	Ca6	0.389180	0.461180	0.940420
Ca71	Ca7	0.610820	0.059580	0.538820
Ca81	Ca8	0.110820	0.440420	0.961180
H11	H1	0.890600	0.788100	0.301300
H21	H2	0.886600	0.703900	0.202100
H31	H3	0.326200	0.899800	0.692600
H41	H4	0.390600	0.711900	0.198700
H51	H5	0.386600	0.796100	0.297900
H61	H6	0.826200	0.600200	0.807400
H71	H7	0.609400	0.801300	0.288100
H81	H8	0.613400	0.702100	0.203900
H91	H9	0.173800	0.192600	0.399800
H101	H10	0.109400	0.698700	0.211900
H111	H11	0.113400	0.797900	0.296100
H121	H12	0.673800	0.307400	0.100200
H131	H13	0.109400	0.211900	0.698700
H141	H14	0.113400	0.296100	0.797900
H151	H15	0.673800	0.100200	0.307400
H161	H16	0.609400	0.288100	0.801300
H171	H17	0.613400	0.203900	0.702100
H181	H18	0.173800	0.399800	0.192600
H191	H19	0.390600	0.198700	0.711900
H201	H20	0.386600	0.297900	0.796100
H211	H21	0.826200	0.807400	0.600200
H221	H22	0.890600	0.301300	0.788100
H231	H23	0.886600	0.202100	0.703900
H241	H24	0.326200	0.692600	0.899800
H251	H25	0.750000	0.939300	0.439300
H261	H26	0.250000	0.560700	0.060700
H271	H27	0.250000	0.060700	0.560700
H281	H28	0.750000	0.439300	0.939300
H291	H29	0.130200	0.710500	0.710500
H301	H30	0.630200	0.789500	0.789500
H311	H31	0.369800	0.210500	0.210500
H321	H32	0.869800	0.289500	0.289500
C11	C1	0.926900	0.897390	0.407430
C21	C2	0.834420	0.810390	0.317950
C31	C3	0.834520	0.868650	0.375330
C41	C4	0.188370	0.856060	0.597600
C51	C5	0.824400	0.692060	0.190580
C61	C6	0.225400	0.810970	0.686710
C71	C7	0.299600	0.846980	0.722900
C81	C8	0.446100	0.816700	0.923700
C91	C9	0.426900	0.602610	0.092570
C101	C10	0.334420	0.689610	0.182050
C111	C11	0.334520	0.631350	0.124670
C121	C12	0.688370	0.643940	0.902400
C131	C13	0.324400	0.807940	0.309420
C141	C14	0.725400	0.689030	0.813290
C151	C15	0.799600	0.653020	0.777100
C161	C16	0.946100	0.683300	0.576300
C171	C17	0.573100	0.907430	0.397390
C181	C18	0.665580	0.817950	0.310390
C191	C19	0.665480	0.875330	0.368650
C201	C20	0.311630	0.097600	0.356060
C211	C21	0.675600	0.690580	0.192060
C221	C22	0.274600	0.186710	0.310970
C231	C23	0.200400	0.222900	0.346980
C241	C24	0.053900	0.423700	0.316700
C251	C25	0.073100	0.592570	0.102610
C261	C26	0.165580	0.682050	0.189610
C271	C27	0.165480	0.624670	0.131350
C281	C28	0.811630	0.402400	0.143940
C291	C29	0.175600	0.809420	0.307940
C301	C30	0.774600	0.313290	0.189030
C311	C31	0.700400	0.277100	0.153020
C321	C32	0.553900	0.076300	0.183300
C331	C33	0.073100	0.102610	0.592570
C341	C34	0.165580	0.189610	0.682050
C351	C35	0.165480	0.131350	0.624670
C361	C36	0.811630	0.143940	0.402400
C371	C37	0.175600	0.307940	0.809420
C381	C38	0.774600	0.189030	0.313290
C391	C39	0.700400	0.153020	0.277100
C401	C40	0.553900	0.183300	0.076300
C411	C41	0.573100	0.397390	0.907430
C421	C42	0.665580	0.310390	0.817950
C431	C43	0.665480	0.368650	0.875330
C441	C44	0.311630	0.356060	0.097600
C451	C45	0.675600	0.192060	0.690580
C461	C46	0.274600	0.310970	0.186710
C471	C47	0.200400	0.346980	0.222900
C481	C48	0.053900	0.316700	0.423700
C491	C49	0.426900	0.092570	0.602610
C501	C50	0.334420	0.182050	0.689610
C511	C51	0.334520	0.124670	0.631350
C521	C52	0.688370	0.902400	0.643940
C531	C53	0.324400	0.309420	0.807940
C541	C54	0.725400	0.813290	0.689030
C551	C55	0.799600	0.777100	0.653020
C561	C56	0.946100	0.576300	0.683300
C571	C57	0.926900	0.407430	0.897390
C581	C58	0.834420	0.317950	0.810390
C591	C59	0.834520	0.375330	0.868650
C601	C60	0.188370	0.597600	0.856060
C611	C61	0.824400	0.190580	0.692060
C621	C62	0.225400	0.686710	0.810970
C631	C63	0.299600	0.722900	0.846980
C641	C64	0.446100	0.923700	0.816700
C651	C65	0.750000	0.900650	0.400650
C661	C66	0.750000	0.785950	0.285950
C671	C67	0.250000	0.599350	0.099350
C681	C68	0.250000	0.714050	0.214050
C691	C69	0.250000	0.099350	0.599350
C701	C70	0.250000	0.214050	0.714050
C711	C71	0.750000	0.400650	0.900650
C721	C72	0.750000	0.285950	0.785950
C731	C73	0.184200	0.732240	0.732240
C741	C74	0.335000	0.804690	0.804690
C751	C75	0.684200	0.767760	0.767760
C761	C76	0.835000	0.695310	0.695310
C771	C77	0.315800	0.232240	0.232240
C781	C78	0.165000	0.304690	0.304690
C791	C79	0.815800	0.267760	0.267760
C801	C80	0.665000	0.195310	0.195310
N11	N1	0.798240	0.641040	0.138500
N21	N2	0.503700	0.876800	0.944000
N31	N3	0.298240	0.858960	0.361500
N41	N4	0.003700	0.623200	0.556000
N51	N5	0.701760	0.638500	0.141040
N61	N6	0.996300	0.444000	0.376800
N71	N7	0.201760	0.861500	0.358960
N81	N8	0.496300	0.056000	0.123200
N91	N9	0.201760	0.358960	0.861500
N101	N10	0.496300	0.123200	0.056000
N111	N11	0.701760	0.141040	0.638500
N121	N12	0.996300	0.376800	0.444000
N131	N13	0.298240	0.361500	0.858960
N141	N14	0.003700	0.556000	0.623200
N151	N15	0.798240	0.138500	0.641040
N161	N16	0.503700	0.944000	0.876800
N171	N17	0.750000	0.725950	0.225950
N181	N18	0.250000	0.774050	0.274050
N191	N19	0.250000	0.274050	0.774050
N201	N20	0.750000	0.225950	0.725950
N211	N21	0.406900	0.845820	0.845820
N221	N22	0.906900	0.654180	0.654180
N231	N23	0.093100	0.345820	0.345820
N241	N24	0.593100	0.154180	0.154180
O11	O1	0.245430	0.899980	0.542800
O21	O2	0.102470	0.849240	0.580300
O31	O3	0.000210	0.873500	0.376460
O41	O4	0.926340	0.944050	0.465070
O51	O5	0.745430	0.600020	0.957200
O61	O6	0.602470	0.650760	0.919700
O71	O7	0.500210	0.626500	0.123540
O81	O8	0.426340	0.555950	0.034930
O91	O9	0.254570	0.042800	0.399980
O101	O10	0.397530	0.080300	0.349240
O111	O11	0.499790	0.876460	0.373500
O121	O12	0.573660	0.965070	0.444050
O131	O13	0.754570	0.457200	0.100020
O141	O14	0.897530	0.419700	0.150760
O151	O15	0.999790	0.623540	0.126500
O161	O16	0.073660	0.534930	0.055950
O171	O17	0.754570	0.100020	0.457200
O181	O18	0.897530	0.150760	0.419700
O191	O19	0.999790	0.126500	0.623540
O201	O20	0.073660	0.055950	0.534930
O211	O21	0.254570	0.399980	0.042800
O221	O22	0.397530	0.349240	0.080300
O231	O23	0.499790	0.373500	0.876460
O241	O24	0.573660	0.444050	0.965070
O251	O25	0.745430	0.957200	0.600020
O261	O26	0.602470	0.919700	0.650760
O271	O27	0.500210	0.123540	0.626500
O281	O28	0.426340	0.034930	0.555950
O291	O29	0.245430	0.542800	0.899980
O301	O30	0.102470	0.580300	0.849240
O311	O31	0.000210	0.376460	0.873500
O321	O32	0.926340	0.465070	0.944050
