data_GEHSAN_clean_PM
_symmetry_space_group_name_H-M	'P1'
_cell_length_a	8.814700
_cell_length_b	8.814700
_cell_length_c	13.735000
_cell_angle_alpha	94.589500
_cell_angle_beta	94.589500
_cell_angle_gamma	100.254000
_symmetry_Int_Tables_number 1

loop_
_symmetry_equiv_pos_as_xyz
'x,y,z'

loop_
_atom_site_label
_atom_site_type_symbol
_atom_site_fract_x
_atom_site_fract_y
_atom_site_fract_z
Ca11	Ca1	0.875900	0.574300	0.604000
Ca21	Ca2	0.425700	0.124100	0.896000
Ca31	Ca3	0.124100	0.425700	0.396000
Ca41	Ca4	0.574300	0.875900	0.104000
Fe11	Fe1	0.500000	0.000000	0.500000
Fe21	Fe2	0.000000	0.500000	0.000000
H11	H1	0.481900	0.459100	0.553800
H21	H2	0.448600	0.627400	0.620600
H31	H3	0.580300	0.728100	0.707800
H41	H4	0.743900	0.740500	0.792800
H51	H5	0.251600	0.637600	0.787800
H61	H6	0.699600	0.413800	0.808100
H71	H7	0.962800	0.689000	0.407900
H81	H8	0.836100	0.533100	0.392100
H91	H9	0.540900	0.518100	0.946200
H101	H10	0.372600	0.551400	0.879400
H111	H11	0.271900	0.419700	0.792200
H121	H12	0.259500	0.256100	0.707200
H131	H13	0.362400	0.748400	0.712200
H141	H14	0.586200	0.300400	0.691900
H151	H15	0.311000	0.037200	0.092100
H161	H16	0.466900	0.163900	0.107900
H171	H17	0.518100	0.540900	0.446200
H181	H18	0.551400	0.372600	0.379400
H191	H19	0.419700	0.271900	0.292200
H201	H20	0.256100	0.259500	0.207200
H211	H21	0.748400	0.362400	0.212200
H221	H22	0.300400	0.586200	0.191900
H231	H23	0.037200	0.311000	0.592100
H241	H24	0.163900	0.466900	0.607900
H251	H25	0.459100	0.481900	0.053800
H261	H26	0.627400	0.448600	0.120600
H271	H27	0.728100	0.580300	0.207800
H281	H28	0.740500	0.743900	0.292800
H291	H29	0.637600	0.251600	0.287800
H301	H30	0.413800	0.699600	0.308100
H311	H31	0.689000	0.962800	0.907900
H321	H32	0.533100	0.836100	0.892100
C11	C1	0.648700	0.190100	0.521500
C21	C2	0.466400	0.017400	0.638200
C31	C3	0.653800	0.874000	0.529600
C41	C4	0.480900	0.515700	0.626400
C51	C5	0.634100	0.670100	0.763700
C61	C6	0.809900	0.351300	0.978500
C71	C7	0.982600	0.533600	0.861800
C81	C8	0.126000	0.346200	0.970400
C91	C9	0.484300	0.519100	0.873600
C101	C10	0.329900	0.365900	0.736300
C111	C11	0.351300	0.809900	0.478500
C121	C12	0.533600	0.982600	0.361800
C131	C13	0.346200	0.126000	0.470400
C141	C14	0.519100	0.484300	0.373600
C151	C15	0.365900	0.329900	0.236300
C161	C16	0.190100	0.648700	0.021500
C171	C17	0.017400	0.466400	0.138200
C181	C18	0.874000	0.653800	0.029600
C191	C19	0.515700	0.480900	0.126400
C201	C20	0.670100	0.634100	0.263700
C211	C21	0.357100	0.642900	0.750000
C221	C22	0.607400	0.392600	0.750000
C231	C23	0.642900	0.357100	0.250000
C241	C24	0.392600	0.607400	0.250000
N11	N1	0.733800	0.309400	0.533900
N21	N2	0.447200	0.030400	0.720900
N31	N3	0.738700	0.791300	0.549500
N41	N4	0.623700	0.531300	0.693600
N51	N5	0.340500	0.503100	0.680200
N61	N6	0.690600	0.266200	0.966100
N71	N7	0.969600	0.552800	0.779100
N81	N8	0.208700	0.261300	0.950500
N91	N9	0.468700	0.376300	0.806400
N101	N10	0.496900	0.659500	0.819800
N111	N11	0.266200	0.690600	0.466100
N121	N12	0.552800	0.969600	0.279100
N131	N13	0.261300	0.208700	0.450500
N141	N14	0.376300	0.468700	0.306400
N151	N15	0.659500	0.496900	0.319800
N161	N16	0.309400	0.733800	0.033900
N171	N17	0.030400	0.447200	0.220900
N181	N18	0.791300	0.738700	0.049500
N191	N19	0.531300	0.623700	0.193600
N201	N20	0.503100	0.340500	0.180200
O11	O1	0.928100	0.582900	0.430000
O21	O2	0.417100	0.071900	0.070000
O31	O3	0.071900	0.417100	0.570000
O41	O4	0.582900	0.928100	0.930000
