data_GEJJEL01_clean_PM
_symmetry_space_group_name_H-M	'P1'
_cell_length_a	7.835400
_cell_length_b	12.049600
_cell_length_c	12.252400
_cell_angle_alpha	112.015000
_cell_angle_beta	89.967000
_cell_angle_gamma	99.921000
_symmetry_Int_Tables_number 1

loop_
_symmetry_equiv_pos_as_xyz
'x,y,z'

loop_
_atom_site_label
_atom_site_type_symbol
_atom_site_fract_x
_atom_site_fract_y
_atom_site_fract_z
C11	C1	0.647000	0.429000	0.149000
C21	C2	0.722000	0.310000	0.085700
H11	H1	0.744100	0.276000	0.143200
H21	H2	0.635600	0.251100	0.026200
C31	C3	0.894000	0.333000	0.025700
H31	H3	0.972900	0.402100	0.081700
H41	H4	0.948500	0.262400	0.005100
C41	C4	0.863000	0.359000	0.913600
C51	C5	0.144000	0.426000	0.297100
C61	C6	0.224000	0.308800	0.271800
C71	C7	0.388000	0.333000	0.351200
C81	C8	0.365000	0.363000	0.476000
C91	C9	0.323000	0.861000	0.315100
C101	C10	0.248000	0.969000	0.365000
H51	H5	0.286300	0.021600	0.323300
H61	H6	0.122600	0.944400	0.350700
C111	C11	0.286000	0.037000	0.488000
H71	H7	0.409300	0.072300	0.501200
H81	H8	0.264700	0.981700	0.529200
C121	C12	0.179000	0.144000	0.545000
Nd11	Nd1	0.991310	0.645700	0.354210
Nd21	Nd2	0.490930	0.645130	0.252750
O11	O1	0.736300	0.518400	0.220700
O21	O2	0.488000	0.428400	0.118000
O31	O3	0.231700	0.517900	0.289900
O41	O4	0.990900	0.428500	0.326800
O51	O5	0.271600	0.777100	0.359100
O61	O6	0.450000	0.855000	0.258900
O71	O7	0.721400	0.391000	0.901300
O81	O8	0.984400	0.346100	0.849000
O91	O9	0.231100	0.223100	0.653400
O101	O10	0.047200	0.149500	0.495100
O111	O11	0.486200	0.350000	0.535500
O121	O12	0.226900	0.396900	0.516800
C131	C13	0.353000	0.571000	0.851000
C141	C14	0.278000	0.690000	0.914300
H91	H9	0.255900	0.724000	0.856800
H101	H10	0.364400	0.748900	0.973800
C151	C15	0.106000	0.667000	0.974300
H111	H11	0.027100	0.597900	0.918300
H121	H12	0.051500	0.737600	0.994900
C161	C16	0.137000	0.641000	0.086400
C171	C17	0.856000	0.574000	0.702900
C181	C18	0.776000	0.691200	0.728200
C191	C19	0.612000	0.667000	0.648800
C201	C20	0.635000	0.637000	0.524000
C211	C21	0.677000	0.139000	0.684900
C221	C22	0.752000	0.031000	0.635000
H131	H13	0.713700	0.978400	0.676700
H141	H14	0.877400	0.055600	0.649300
C231	C23	0.714000	0.963000	0.512000
H151	H15	0.590700	0.927700	0.498800
H161	H16	0.735300	0.018300	0.470800
C241	C24	0.821000	0.856000	0.455000
Nd31	Nd3	0.008690	0.354300	0.645790
Nd41	Nd4	0.509070	0.354870	0.747250
O131	O13	0.263700	0.481600	0.779300
O141	O14	0.512000	0.571600	0.882000
O151	O15	0.768300	0.482100	0.710100
O161	O16	0.009100	0.571500	0.673200
O171	O17	0.728400	0.222900	0.640900
O181	O18	0.550000	0.145000	0.741100
O191	O19	0.278600	0.609000	0.098700
O201	O20	0.015600	0.653900	0.151000
O211	O21	0.768900	0.776900	0.346600
O221	O22	0.952800	0.850500	0.504900
O231	O23	0.513800	0.650000	0.464500
O241	O24	0.773100	0.603100	0.483200
