data_GELJAJ_clean_PM
_symmetry_space_group_name_H-M	'P1'
_cell_length_a	9.523200
_cell_length_b	15.846000
_cell_length_c	22.369000
_cell_angle_alpha	90.000000
_cell_angle_beta	90.000000
_cell_angle_gamma	90.000000
_symmetry_Int_Tables_number 1

loop_
_symmetry_equiv_pos_as_xyz
'x,y,z'

loop_
_atom_site_label
_atom_site_type_symbol
_atom_site_fract_x
_atom_site_fract_y
_atom_site_fract_z
Zn11	Zn1	0.809530	0.311740	0.513660
Zn21	Zn2	0.690470	0.688260	0.013660
Zn31	Zn3	0.190470	0.811740	0.986340
Zn41	Zn4	0.309530	0.188260	0.486340
H11	H1	0.800000	0.492000	0.490800
H21	H2	0.667000	0.590000	0.440000
H31	H3	0.412000	0.414000	0.395400
H41	H4	0.557000	0.321000	0.445000
H51	H5	0.444000	0.633000	0.389800
H61	H6	0.358000	0.552000	0.366700
H71	H7	0.589000	0.604000	0.313000
H81	H8	0.515000	0.514000	0.290000
H91	H9	0.386000	0.674000	0.286000
H101	H10	0.309000	0.603000	0.265500
H111	H11	0.410000	0.530000	0.166700
H121	H12	0.523000	0.551000	0.075200
H131	H13	0.672000	0.768000	0.126600
H141	H14	0.552000	0.762000	0.223200
H151	H15	0.700000	0.508000	0.990800
H161	H16	0.833000	0.410000	0.940000
H171	H17	0.088000	0.586000	0.895400
H181	H18	0.943000	0.679000	0.945000
H191	H19	0.056000	0.367000	0.889800
H201	H20	0.142000	0.448000	0.866700
H211	H21	0.911000	0.396000	0.813000
H221	H22	0.985000	0.486000	0.790000
H231	H23	0.114000	0.326000	0.786000
H241	H24	0.191000	0.397000	0.765500
H251	H25	0.090000	0.470000	0.666700
H261	H26	0.977000	0.449000	0.575200
H271	H27	0.828000	0.232000	0.626600
H281	H28	0.948000	0.238000	0.723200
H291	H29	0.200000	0.992000	0.009200
H301	H30	0.333000	0.090000	0.060000
H311	H31	0.588000	0.914000	0.104600
H321	H32	0.443000	0.821000	0.055000
H331	H33	0.556000	0.133000	0.110200
H341	H34	0.642000	0.052000	0.133300
H351	H35	0.411000	0.104000	0.187000
H361	H36	0.485000	0.014000	0.210000
H371	H37	0.614000	0.174000	0.214000
H381	H38	0.691000	0.103000	0.234500
H391	H39	0.590000	0.030000	0.333300
H401	H40	0.477000	0.051000	0.424800
H411	H41	0.328000	0.268000	0.373400
H421	H42	0.448000	0.262000	0.276800
H431	H43	0.300000	0.008000	0.509200
H441	H44	0.167000	0.910000	0.560000
H451	H45	0.912000	0.086000	0.604600
H461	H46	0.057000	0.179000	0.555000
H471	H47	0.944000	0.867000	0.610200
H481	H48	0.858000	0.948000	0.633300
H491	H49	0.089000	0.896000	0.687000
H501	H50	0.015000	0.986000	0.710000
H511	H51	0.886000	0.826000	0.714000
H521	H52	0.809000	0.897000	0.734500
H531	H53	0.910000	0.970000	0.833300
H541	H54	0.023000	0.949000	0.924800
H551	H55	0.172000	0.732000	0.873400
H561	H56	0.052000	0.738000	0.776800
C11	C1	0.723800	0.480900	0.471200
C21	C2	0.645900	0.538800	0.439080
C31	C3	0.528100	0.514000	0.408740
C41	C4	0.493000	0.430100	0.413100
C51	C5	0.573900	0.375800	0.445750
C61	C6	0.445100	0.573700	0.370880
C71	C7	0.504400	0.578200	0.307390
C81	C8	0.408100	0.628100	0.265680
C91	C9	0.475900	0.639800	0.204900
C101	C10	0.469200	0.578400	0.161120
C111	C11	0.533700	0.591500	0.106690
C121	C12	0.614400	0.720000	0.137390
C131	C13	0.550300	0.712000	0.192030
C141	C14	0.776200	0.519100	0.971200
C151	C15	0.854100	0.461200	0.939080
C161	C16	0.971900	0.486000	0.908740
C171	C17	0.007000	0.569900	0.913100
C181	C18	0.926100	0.624200	0.945750
C191	C19	0.054900	0.426300	0.870880
C201	C20	0.995600	0.421800	0.807390
C211	C21	0.091900	0.371900	0.765680
C221	C22	0.024100	0.360200	0.704900
C231	C23	0.030800	0.421600	0.661120
C241	C24	0.966300	0.408500	0.606690
C251	C25	0.885600	0.280000	0.637390
C261	C26	0.949700	0.288000	0.692030
C271	C27	0.276200	0.980900	0.028800
C281	C28	0.354100	0.038800	0.060920
C291	C29	0.471900	0.014000	0.091260
C301	C30	0.507000	0.930100	0.086900
C311	C31	0.426100	0.875800	0.054250
C321	C32	0.554900	0.073700	0.129120
C331	C33	0.495600	0.078200	0.192610
C341	C34	0.591900	0.128100	0.234320
C351	C35	0.524100	0.139800	0.295100
C361	C36	0.530800	0.078400	0.338880
C371	C37	0.466300	0.091500	0.393310
C381	C38	0.385600	0.220000	0.362610
C391	C39	0.449700	0.212000	0.307970
C401	C40	0.223800	0.019100	0.528800
C411	C41	0.145900	0.961200	0.560920
C421	C42	0.028100	0.986000	0.591260
C431	C43	0.993000	0.069900	0.586900
C441	C44	0.073900	0.124200	0.554250
C451	C45	0.945100	0.926300	0.629120
C461	C46	0.004400	0.921800	0.692610
C471	C47	0.908100	0.871900	0.734320
C481	C48	0.975900	0.860200	0.795100
C491	C49	0.969200	0.921600	0.838880
C501	C50	0.033700	0.908500	0.893310
C511	C51	0.114400	0.780000	0.862610
C521	C52	0.050300	0.788000	0.807970
S11	S1	0.068510	0.320470	0.443920
S21	S2	0.431490	0.679530	0.943920
S31	S3	0.931490	0.820470	0.056080
S41	S4	0.568510	0.179530	0.556080
N11	N1	0.690200	0.399460	0.473900
N21	N2	0.605900	0.661650	0.094090
N31	N3	0.809800	0.600540	0.973900
N41	N4	0.894100	0.338350	0.594090
N51	N5	0.309800	0.899460	0.026100
N61	N6	0.394100	0.161650	0.405910
N71	N7	0.190200	0.100540	0.526100
N81	N8	0.105900	0.838350	0.905910
O11	O1	0.950200	0.262540	0.459730
O21	O2	0.196100	0.290180	0.476140
O31	O3	0.092800	0.316100	0.380450
O41	O4	0.032900	0.403860	0.465080
O51	O5	0.549800	0.737460	0.959730
O61	O6	0.303900	0.709820	0.976140
O71	O7	0.407200	0.683900	0.880450
O81	O8	0.467100	0.596140	0.965080
O91	O9	0.049800	0.762540	0.040270
O101	O10	0.803900	0.790180	0.023860
O111	O11	0.907200	0.816100	0.119550
O121	O12	0.967100	0.903860	0.034920
O131	O13	0.450200	0.237460	0.540270
O141	O14	0.696100	0.209820	0.523860
O151	O15	0.592800	0.183900	0.619550
O161	O16	0.532900	0.096140	0.534920
Zn51	Zn5	0.190470	0.688260	0.486340
Zn61	Zn6	0.309530	0.311740	0.986340
Zn71	Zn7	0.809530	0.188260	0.013660
Zn81	Zn8	0.690470	0.811740	0.513660
H571	H57	0.200000	0.508000	0.509200
H581	H58	0.333000	0.410000	0.560000
H591	H59	0.588000	0.586000	0.604600
H601	H60	0.443000	0.679000	0.555000
H611	H61	0.556000	0.367000	0.610200
H621	H62	0.642000	0.448000	0.633300
H631	H63	0.411000	0.396000	0.687000
H641	H64	0.485000	0.486000	0.710000
H651	H65	0.614000	0.326000	0.714000
H661	H66	0.691000	0.397000	0.734500
H671	H67	0.590000	0.470000	0.833300
H681	H68	0.477000	0.449000	0.924800
H691	H69	0.328000	0.232000	0.873400
H701	H70	0.448000	0.238000	0.776800
H711	H71	0.300000	0.492000	0.009200
H721	H72	0.167000	0.590000	0.060000
H731	H73	0.912000	0.414000	0.104600
H741	H74	0.057000	0.321000	0.055000
H751	H75	0.944000	0.633000	0.110200
H761	H76	0.858000	0.552000	0.133300
H771	H77	0.089000	0.604000	0.187000
H781	H78	0.015000	0.514000	0.210000
H791	H79	0.886000	0.674000	0.214000
H801	H80	0.809000	0.603000	0.234500
H811	H81	0.910000	0.530000	0.333300
H821	H82	0.023000	0.551000	0.424800
H831	H83	0.172000	0.768000	0.373400
H841	H84	0.052000	0.762000	0.276800
H851	H85	0.800000	0.008000	0.990800
H861	H86	0.667000	0.910000	0.940000
H871	H87	0.412000	0.086000	0.895400
H881	H88	0.557000	0.179000	0.945000
H891	H89	0.444000	0.867000	0.889800
H901	H90	0.358000	0.948000	0.866700
H911	H91	0.589000	0.896000	0.813000
H921	H92	0.515000	0.986000	0.790000
H931	H93	0.386000	0.826000	0.786000
H941	H94	0.309000	0.897000	0.765500
H951	H95	0.410000	0.970000	0.666700
H961	H96	0.523000	0.949000	0.575200
H971	H97	0.672000	0.732000	0.626600
H981	H98	0.552000	0.738000	0.723200
H991	H99	0.700000	0.992000	0.490800
H1001	H100	0.833000	0.090000	0.440000
H1011	H101	0.088000	0.914000	0.395400
H1021	H102	0.943000	0.821000	0.445000
H1031	H103	0.056000	0.133000	0.389800
H1041	H104	0.142000	0.052000	0.366700
H1051	H105	0.911000	0.104000	0.313000
H1061	H106	0.985000	0.014000	0.290000
H1071	H107	0.114000	0.174000	0.286000
H1081	H108	0.191000	0.103000	0.265500
H1091	H109	0.090000	0.030000	0.166700
H1101	H110	0.977000	0.051000	0.075200
H1111	H111	0.828000	0.268000	0.126600
H1121	H112	0.948000	0.262000	0.223200
C531	C53	0.276200	0.519100	0.528800
C541	C54	0.354100	0.461200	0.560920
C551	C55	0.471900	0.486000	0.591260
C561	C56	0.507000	0.569900	0.586900
C571	C57	0.426100	0.624200	0.554250
C581	C58	0.554900	0.426300	0.629120
C591	C59	0.495600	0.421800	0.692610
C601	C60	0.591900	0.371900	0.734320
C611	C61	0.524100	0.360200	0.795100
C621	C62	0.530800	0.421600	0.838880
C631	C63	0.466300	0.408500	0.893310
C641	C64	0.385600	0.280000	0.862610
C651	C65	0.449700	0.288000	0.807970
C661	C66	0.223800	0.480900	0.028800
C671	C67	0.145900	0.538800	0.060920
C681	C68	0.028100	0.514000	0.091260
C691	C69	0.993000	0.430100	0.086900
C701	C70	0.073900	0.375800	0.054250
C711	C71	0.945100	0.573700	0.129120
C721	C72	0.004400	0.578200	0.192610
C731	C73	0.908100	0.628100	0.234320
C741	C74	0.975900	0.639800	0.295100
C751	C75	0.969200	0.578400	0.338880
C761	C76	0.033700	0.591500	0.393310
C771	C77	0.114400	0.720000	0.362610
C781	C78	0.050300	0.712000	0.307970
C791	C79	0.723800	0.019100	0.971200
C801	C80	0.645900	0.961200	0.939080
C811	C81	0.528100	0.986000	0.908740
C821	C82	0.493000	0.069900	0.913100
C831	C83	0.573900	0.124200	0.945750
C841	C84	0.445100	0.926300	0.870880
C851	C85	0.504400	0.921800	0.807390
C861	C86	0.408100	0.871900	0.765680
C871	C87	0.475900	0.860200	0.704900
C881	C88	0.469200	0.921600	0.661120
C891	C89	0.533700	0.908500	0.606690
C901	C90	0.614400	0.780000	0.637390
C911	C91	0.550300	0.788000	0.692030
C921	C92	0.776200	0.980900	0.471200
C931	C93	0.854100	0.038800	0.439080
C941	C94	0.971900	0.014000	0.408740
C951	C95	0.007000	0.930100	0.413100
C961	C96	0.926100	0.875800	0.445750
C971	C97	0.054900	0.073700	0.370880
C981	C98	0.995600	0.078200	0.307390
C991	C99	0.091900	0.128100	0.265680
C1001	C100	0.024100	0.139800	0.204900
C1011	C101	0.030800	0.078400	0.161120
C1021	C102	0.966300	0.091500	0.106690
C1031	C103	0.885600	0.220000	0.137390
C1041	C104	0.949700	0.212000	0.192030
S51	S5	0.931490	0.679530	0.556080
S61	S6	0.568510	0.320470	0.056080
S71	S7	0.068510	0.179530	0.943920
S81	S8	0.431490	0.820470	0.443920
N91	N9	0.309800	0.600540	0.526100
N101	N10	0.394100	0.338350	0.905910
N111	N11	0.190200	0.399460	0.026100
N121	N12	0.105900	0.661650	0.405910
N131	N13	0.690200	0.100540	0.973900
N141	N14	0.605900	0.838350	0.594090
N151	N15	0.809800	0.899460	0.473900
N161	N16	0.894100	0.161650	0.094090
O171	O17	0.049800	0.737460	0.540270
O181	O18	0.803900	0.709820	0.523860
O191	O19	0.907200	0.683900	0.619550
O201	O20	0.967100	0.596140	0.534920
O211	O21	0.450200	0.262540	0.040270
O221	O22	0.696100	0.290180	0.023860
O231	O23	0.592800	0.316100	0.119550
O241	O24	0.532900	0.403860	0.034920
O251	O25	0.950200	0.237460	0.959730
O261	O26	0.196100	0.209820	0.976140
O271	O27	0.092800	0.183900	0.880450
O281	O28	0.032900	0.096140	0.965080
O291	O29	0.549800	0.762540	0.459730
O301	O30	0.303900	0.790180	0.476140
O311	O31	0.407200	0.816100	0.380450
O321	O32	0.467100	0.903860	0.465080
