data_GERPUP_clean_PM
_symmetry_space_group_name_H-M	'P1'
_cell_length_a	14.865000
_cell_length_b	14.983000
_cell_length_c	14.983000
_cell_angle_alpha	120.000000
_cell_angle_beta	90.000000
_cell_angle_gamma	90.000000
_symmetry_Int_Tables_number 1

loop_
_symmetry_equiv_pos_as_xyz
'x,y,z'

loop_
_atom_site_label
_atom_site_type_symbol
_atom_site_fract_x
_atom_site_fract_y
_atom_site_fract_z
Sm11	Sm1	0.750000	0.333330	0.666660
Sm21	Sm2	0.750000	0.666670	0.333340
Sm31	Sm3	0.250000	0.666670	0.333340
Sm41	Sm4	0.250000	0.333330	0.666660
Cu11	Cu1	0.000000	0.500000	0.500000
Cu21	Cu2	0.000000	0.000000	0.500000
Cu31	Cu3	0.000000	0.500000	0.000000
Cu41	Cu4	0.500000	0.000000	0.500000
Cu51	Cu5	0.500000	0.500000	0.500000
Cu61	Cu6	0.500000	0.500000	0.000000
H11	H1	0.839100	0.632600	0.790500
H21	H2	0.762700	0.624200	0.714100
H31	H3	0.839100	0.157900	0.367400
H41	H4	0.762700	0.089900	0.375800
H51	H5	0.839100	0.209500	0.842100
H61	H6	0.762700	0.285900	0.910100
H71	H7	0.839100	0.367400	0.209500
H81	H8	0.762700	0.375800	0.285900
H91	H9	0.839100	0.842100	0.632600
H101	H10	0.762700	0.910100	0.624200
H111	H11	0.839100	0.790500	0.157900
H121	H12	0.762700	0.714100	0.089900
H131	H13	0.660900	0.842100	0.209500
H141	H14	0.737300	0.910100	0.285900
H151	H15	0.660900	0.790500	0.632600
H161	H16	0.737300	0.714100	0.624200
H171	H17	0.660900	0.367400	0.157900
H181	H18	0.737300	0.375800	0.089900
H191	H19	0.660900	0.157900	0.790500
H201	H20	0.737300	0.089900	0.714100
H211	H21	0.660900	0.209500	0.367400
H221	H22	0.737300	0.285900	0.375800
H231	H23	0.660900	0.632600	0.842100
H241	H24	0.737300	0.624200	0.910100
H251	H25	0.160900	0.367400	0.209500
H261	H26	0.237300	0.375800	0.285900
H271	H27	0.160900	0.842100	0.632600
H281	H28	0.237300	0.910100	0.624200
H291	H29	0.160900	0.790500	0.157900
H301	H30	0.237300	0.714100	0.089900
H311	H31	0.160900	0.632600	0.790500
H321	H32	0.237300	0.624200	0.714100
H331	H33	0.160900	0.157900	0.367400
H341	H34	0.237300	0.089900	0.375800
H351	H35	0.160900	0.209500	0.842100
H361	H36	0.237300	0.285900	0.910100
H371	H37	0.339100	0.157900	0.790500
H381	H38	0.262700	0.089900	0.714100
H391	H39	0.339100	0.209500	0.367400
H401	H40	0.262700	0.285900	0.375800
H411	H41	0.339100	0.632600	0.842100
H421	H42	0.262700	0.624200	0.910100
H431	H43	0.339100	0.842100	0.209500
H441	H44	0.262700	0.910100	0.285900
H451	H45	0.339100	0.790500	0.632600
H461	H46	0.262700	0.714100	0.624200
H471	H47	0.339100	0.367400	0.157900
H481	H48	0.262700	0.375800	0.089900
C11	C1	0.860000	0.514000	0.643500
C21	C2	0.801700	0.584700	0.733500
C31	C3	0.860000	0.129500	0.486000
C41	C4	0.801700	0.148800	0.415300
C51	C5	0.860000	0.356500	0.870500
C61	C6	0.801700	0.266500	0.851200
C71	C7	0.860000	0.486000	0.356500
C81	C8	0.801700	0.415300	0.266500
C91	C9	0.860000	0.870500	0.514000
C101	C10	0.801700	0.851200	0.584700
C111	C11	0.860000	0.643500	0.129500
C121	C12	0.801700	0.733500	0.148800
C131	C13	0.640000	0.870500	0.356500
C141	C14	0.698300	0.851200	0.266500
C151	C15	0.640000	0.643500	0.514000
C161	C16	0.698300	0.733500	0.584700
C171	C17	0.640000	0.486000	0.129500
C181	C18	0.698300	0.415300	0.148800
C191	C19	0.640000	0.129500	0.643500
C201	C20	0.698300	0.148800	0.733500
C211	C21	0.640000	0.356500	0.486000
C221	C22	0.698300	0.266500	0.415300
C231	C23	0.640000	0.514000	0.870500
C241	C24	0.698300	0.584700	0.851200
C251	C25	0.140000	0.486000	0.356500
C261	C26	0.198300	0.415300	0.266500
C271	C27	0.140000	0.870500	0.514000
C281	C28	0.198300	0.851200	0.584700
C291	C29	0.140000	0.643500	0.129500
C301	C30	0.198300	0.733500	0.148800
C311	C31	0.140000	0.514000	0.643500
C321	C32	0.198300	0.584700	0.733500
C331	C33	0.140000	0.129500	0.486000
C341	C34	0.198300	0.148800	0.415300
C351	C35	0.140000	0.356500	0.870500
C361	C36	0.198300	0.266500	0.851200
C371	C37	0.360000	0.129500	0.643500
C381	C38	0.301700	0.148800	0.733500
C391	C39	0.360000	0.356500	0.486000
C401	C40	0.301700	0.266500	0.415300
C411	C41	0.360000	0.514000	0.870500
C421	C42	0.301700	0.584700	0.851200
C431	C43	0.360000	0.870500	0.356500
C441	C44	0.301700	0.851200	0.266500
C451	C45	0.360000	0.643500	0.514000
C461	C46	0.301700	0.733500	0.584700
C471	C47	0.360000	0.486000	0.129500
C481	C48	0.301700	0.415300	0.148800
O11	O1	0.907600	0.556800	0.607400
O21	O2	0.857300	0.419600	0.613200
O31	O3	0.907600	0.050600	0.443200
O41	O4	0.857300	0.193600	0.580400
O51	O5	0.907600	0.392600	0.949400
O61	O6	0.857300	0.386800	0.806400
O71	O7	0.907600	0.443200	0.392600
O81	O8	0.857300	0.580400	0.386800
O91	O9	0.907600	0.949400	0.556800
O101	O10	0.857300	0.806400	0.419600
O111	O11	0.907600	0.607400	0.050600
O121	O12	0.857300	0.613200	0.193600
O131	O13	0.592400	0.949400	0.392600
O141	O14	0.642700	0.806400	0.386800
O151	O15	0.592400	0.607400	0.556800
O161	O16	0.642700	0.613200	0.419600
O171	O17	0.592400	0.443200	0.050600
O181	O18	0.642700	0.580400	0.193600
O191	O19	0.592400	0.050600	0.607400
O201	O20	0.642700	0.193600	0.613200
O211	O21	0.592400	0.392600	0.443200
O221	O22	0.642700	0.386800	0.580400
O231	O23	0.592400	0.556800	0.949400
O241	O24	0.642700	0.419600	0.806400
O251	O25	0.092400	0.443200	0.392600
O261	O26	0.142700	0.580400	0.386800
O271	O27	0.092400	0.949400	0.556800
O281	O28	0.142700	0.806400	0.419600
O291	O29	0.092400	0.607400	0.050600
O301	O30	0.142700	0.613200	0.193600
O311	O31	0.092400	0.556800	0.607400
O321	O32	0.142700	0.419600	0.613200
O331	O33	0.092400	0.050600	0.443200
O341	O34	0.142700	0.193600	0.580400
O351	O35	0.092400	0.392600	0.949400
O361	O36	0.142700	0.386800	0.806400
O371	O37	0.407600	0.050600	0.607400
O381	O38	0.357300	0.193600	0.613200
O391	O39	0.407600	0.392600	0.443200
O401	O40	0.357300	0.386800	0.580400
O411	O41	0.407600	0.556800	0.949400
O421	O42	0.357300	0.419600	0.806400
O431	O43	0.407600	0.949400	0.392600
O441	O44	0.357300	0.806400	0.386800
O451	O45	0.407600	0.607400	0.556800
O461	O46	0.357300	0.613200	0.419600
O471	O47	0.407600	0.443200	0.050600
O481	O48	0.357300	0.580400	0.193600
O491	O49	0.750000	0.527100	0.763550
O501	O50	0.750000	0.236450	0.472900
O511	O51	0.750000	0.236450	0.763550
O521	O52	0.750000	0.472900	0.236450
O531	O53	0.750000	0.763550	0.527100
O541	O54	0.750000	0.763550	0.236450
O551	O55	0.250000	0.472900	0.236450
O561	O56	0.250000	0.763550	0.527100
O571	O57	0.250000	0.763550	0.236450
O581	O58	0.250000	0.527100	0.763550
O591	O59	0.250000	0.236450	0.472900
O601	O60	0.250000	0.236450	0.763550
