data_GESFAN_clean_PM
_symmetry_space_group_name_H-M	'P1'
_cell_length_a	7.948000
_cell_length_b	13.410000
_cell_length_c	19.500000
_cell_angle_alpha	110.111000
_cell_angle_beta	99.345200
_cell_angle_gamma	90.000000
_symmetry_Int_Tables_number 1

loop_
_symmetry_equiv_pos_as_xyz
'x,y,z'

loop_
_atom_site_label
_atom_site_type_symbol
_atom_site_fract_x
_atom_site_fract_y
_atom_site_fract_z
Ni11	Ni1	0.000000	0.000000	0.000000
Ni21	Ni2	0.500000	0.000000	0.000000
H11	H1	0.048500	0.109800	0.754400
H21	H2	0.898600	0.093200	0.639200
H31	H3	0.510000	0.941800	0.677000
H41	H4	0.660400	0.958000	0.792400
H51	H5	0.644400	0.210500	0.657200
H61	H6	0.655600	0.813600	0.572800
H71	H7	0.757200	0.656800	0.569600
H81	H8	0.577500	0.659700	0.593400
H91	H9	0.655300	0.550300	0.557600
H101	H10	0.356100	0.613800	0.258200
H111	H11	0.255700	0.517800	0.264800
H121	H12	0.196800	0.633600	0.298200
H131	H13	0.451500	0.355400	0.245600
H141	H14	0.601400	0.454000	0.360800
H151	H15	0.990000	0.264800	0.323000
H161	H16	0.839600	0.165600	0.207600
H171	H17	0.855600	0.553300	0.342800
H181	H18	0.844400	0.240800	0.427200
H191	H19	0.742800	0.087200	0.430400
H201	H20	0.922500	0.066300	0.406600
H211	H21	0.844700	0.992700	0.442400
H221	H22	0.143900	0.355600	0.741800
H231	H23	0.244300	0.253000	0.735200
H241	H24	0.303200	0.335400	0.701800
H251	H25	0.951500	0.890200	0.245600
H261	H26	0.101400	0.906800	0.360800
H271	H27	0.490000	0.058200	0.323000
H281	H28	0.339600	0.042000	0.207600
H291	H29	0.355600	0.789500	0.342800
H301	H30	0.344400	0.186400	0.427200
H311	H31	0.242800	0.343200	0.430400
H321	H32	0.422500	0.340300	0.406600
H331	H33	0.344700	0.449700	0.442400
H341	H34	0.643900	0.386200	0.741800
H351	H35	0.744300	0.482200	0.735200
H361	H36	0.803200	0.366400	0.701800
H371	H37	0.548500	0.644600	0.754400
H381	H38	0.398600	0.546000	0.639200
H391	H39	0.010000	0.735200	0.677000
H401	H40	0.160400	0.834400	0.792400
H411	H41	0.144400	0.446700	0.657200
H421	H42	0.155600	0.759200	0.572800
H431	H43	0.257200	0.912800	0.569600
H441	H44	0.077500	0.933700	0.593400
H451	H45	0.155300	0.007300	0.557600
H461	H46	0.856100	0.644400	0.258200
H471	H47	0.755700	0.747000	0.264800
H481	H48	0.696800	0.664600	0.298200
C11	C1	0.969200	0.049390	0.860980
C21	C2	0.870100	0.036890	0.785980
C31	C3	0.939600	0.076170	0.739140
C41	C4	0.849400	0.066180	0.669760
C51	C5	0.686700	0.016350	0.645500
C61	C6	0.618500	0.976100	0.692400
C71	C7	0.708600	0.985790	0.761980
C81	C8	0.589100	0.204480	0.609960
C91	C9	0.544200	0.100980	0.555960
C101	C10	0.590600	0.007850	0.570700
C111	C11	0.547000	0.907300	0.515400
C121	C12	0.589800	0.809950	0.527900
C131	C13	0.645500	0.621630	0.557460
C141	C14	0.537800	0.713540	0.476680
C151	C15	0.445900	0.706400	0.405000
C161	C16	0.293800	0.591390	0.289180
C171	C17	0.530800	0.188410	0.139020
C181	C18	0.629900	0.250910	0.214020
C191	C19	0.560400	0.337030	0.260860
C201	C20	0.650600	0.396420	0.330240
C211	C21	0.813300	0.370850	0.354500
C221	C22	0.881500	0.283700	0.307600
C231	C23	0.791400	0.223810	0.238020
C241	C24	0.910900	0.594520	0.390040
C251	C25	0.955800	0.545020	0.444040
C261	C26	0.909400	0.437150	0.429300
C271	C27	0.953000	0.391900	0.484600
C281	C28	0.910200	0.282050	0.472100
C291	C29	0.854500	0.064170	0.442540
C301	C30	0.962200	0.236860	0.523320
C311	C31	0.054100	0.301400	0.595000
C321	C32	0.206200	0.302210	0.710820
C331	C33	0.030800	0.950610	0.139020
C341	C34	0.129900	0.963110	0.214020
C351	C35	0.060400	0.923830	0.260860
C361	C36	0.150600	0.933820	0.330240
C371	C37	0.313300	0.983650	0.354500
C381	C38	0.381500	0.023900	0.307600
C391	C39	0.291400	0.014210	0.238020
C401	C40	0.410900	0.795520	0.390040
C411	C41	0.455800	0.899020	0.444040
C421	C42	0.409400	0.992150	0.429300
C431	C43	0.453000	0.092700	0.484600
C441	C44	0.410200	0.190050	0.472100
C451	C45	0.354500	0.378370	0.442540
C461	C46	0.462200	0.286460	0.523320
C471	C47	0.554100	0.293600	0.595000
C481	C48	0.706200	0.408610	0.710820
C491	C49	0.469200	0.811590	0.860980
C501	C50	0.370100	0.749090	0.785980
C511	C51	0.439600	0.662970	0.739140
C521	C52	0.349400	0.603580	0.669760
C531	C53	0.186700	0.629150	0.645500
C541	C54	0.118500	0.716300	0.692400
C551	C55	0.208600	0.776190	0.761980
C561	C56	0.089100	0.405480	0.609960
C571	C57	0.044200	0.454980	0.555960
C581	C58	0.090600	0.562850	0.570700
C591	C59	0.047000	0.608100	0.515400
C601	C60	0.089800	0.717950	0.527900
C611	C61	0.145500	0.935830	0.557460
C621	C62	0.037800	0.763140	0.476680
C631	C63	0.945900	0.698600	0.405000
C641	C64	0.793800	0.697790	0.289180
O11	O1	0.566000	0.618540	0.485660
O21	O2	0.401800	0.604480	0.357780
O31	O3	0.892900	0.021250	0.904640
O41	O4	0.119300	0.085480	0.877240
O51	O5	0.934000	0.132880	0.514340
O61	O6	0.098200	0.246700	0.642220
O71	O7	0.607100	0.116610	0.095360
O81	O8	0.380700	0.208240	0.122760
O91	O9	0.434000	0.381460	0.514340
O101	O10	0.598200	0.395520	0.642220
O111	O11	0.107100	0.978750	0.095360
O121	O12	0.880700	0.914520	0.122760
O131	O13	0.066000	0.867120	0.485660
O141	O14	0.901800	0.753300	0.357780
O151	O15	0.392900	0.883390	0.904640
O161	O16	0.619300	0.791760	0.877240
O171	O17	0.250000	0.062550	0.000000
O181	O18	0.750000	0.937450	0.000000
