data_GESNOI_clean_PM
_symmetry_space_group_name_H-M	'P1'
_cell_length_a	14.303000
_cell_length_b	18.715900
_cell_length_c	17.051100
_cell_angle_alpha	90.000000
_cell_angle_beta	102.118000
_cell_angle_gamma	90.000000
_symmetry_Int_Tables_number 1

loop_
_symmetry_equiv_pos_as_xyz
'x,y,z'

loop_
_atom_site_label
_atom_site_type_symbol
_atom_site_fract_x
_atom_site_fract_y
_atom_site_fract_z
P11	P1	0.509980	0.663270	0.309740
P21	P2	0.723020	0.755390	0.501440
S11	S1	0.007300	0.530300	0.703600
C11	C1	0.708900	0.813600	0.274800
H11	H1	0.698500	0.845900	0.316600
H21	H2	0.676200	0.833000	0.223600
C21	C2	0.684800	0.691300	0.223500
H31	H3	0.651200	0.707800	0.171200
H41	H4	0.660300	0.644400	0.232800
C31	C3	0.563900	0.748700	0.289300
H51	H5	0.529300	0.767100	0.238300
H61	H6	0.557000	0.782800	0.330500
C41	C4	0.799000	0.686500	0.737100
H71	H7	0.865000	0.702400	0.749500
H81	H8	0.798600	0.636300	0.722700
C51	C5	0.743500	0.805200	0.689200
H91	H9	0.705600	0.831800	0.644900
H101	H10	0.808000	0.824100	0.699900
C61	C6	0.787700	0.715300	0.594700
H111	H11	0.791200	0.664100	0.586600
H121	H12	0.852500	0.733600	0.605900
N11	N1	0.667900	0.742200	0.286900
H131	H13	0.699300	0.725100	0.335300
N21	N2	0.745100	0.728200	0.667300
H141	H14	0.683700	0.712000	0.655900
O11	O1	0.467700	0.629900	0.230300
O21	O2	0.436400	0.685000	0.359400
O31	O3	0.588200	0.620700	0.363500
O41	O4	0.741600	0.835600	0.506100
O51	O5	0.766500	0.719400	0.437900
O61	O6	0.617800	0.739500	0.496300
O71	O7	0.629200	0.565500	0.525000
O81	O8	0.994000	0.602200	0.670400
O91	O9	0.061000	0.545400	0.777300
P31	P3	0.009980	0.163270	0.809740
P41	P4	0.223020	0.255390	0.001440
S21	S2	0.507300	0.030300	0.203600
C71	C7	0.208900	0.313600	0.774800
H151	H15	0.198500	0.345900	0.816600
H161	H16	0.176200	0.333000	0.723600
C81	C8	0.184800	0.191300	0.723500
H171	H17	0.151200	0.207800	0.671200
H181	H18	0.160300	0.144400	0.732800
C91	C9	0.063900	0.248700	0.789300
H191	H19	0.029300	0.267100	0.738300
H201	H20	0.057000	0.282800	0.830500
C101	C10	0.299000	0.186500	0.237100
H211	H21	0.365000	0.202400	0.249500
H221	H22	0.298600	0.136300	0.222700
C111	C11	0.243500	0.305200	0.189200
H231	H23	0.205600	0.331800	0.144900
H241	H24	0.308000	0.324100	0.199900
C121	C12	0.287700	0.215300	0.094700
H251	H25	0.291200	0.164100	0.086600
H261	H26	0.352500	0.233600	0.105900
N31	N3	0.167900	0.242200	0.786900
H271	H27	0.199300	0.225100	0.835300
N41	N4	0.245100	0.228200	0.167300
H281	H28	0.183700	0.212000	0.155900
O101	O10	0.967700	0.129900	0.730300
O111	O11	0.936400	0.185000	0.859400
O121	O12	0.088200	0.120700	0.863500
O131	O13	0.241600	0.335600	0.006100
O141	O14	0.266500	0.219400	0.937900
O151	O15	0.117800	0.239500	0.996300
O161	O16	0.129200	0.065500	0.025000
O171	O17	0.494000	0.102200	0.170400
O181	O18	0.561000	0.045400	0.277300
P51	P5	0.490020	0.663270	0.690260
P61	P6	0.276980	0.755390	0.498560
S31	S3	0.992700	0.530300	0.296400
C131	C13	0.291100	0.813600	0.725200
H291	H29	0.301500	0.845900	0.683400
H301	H30	0.323800	0.833000	0.776400
C141	C14	0.315200	0.691300	0.776500
H311	H31	0.348800	0.707800	0.828800
H321	H32	0.339700	0.644400	0.767200
C151	C15	0.436100	0.748700	0.710700
H331	H33	0.470700	0.767100	0.761700
H341	H34	0.443000	0.782800	0.669500
C161	C16	0.201000	0.686500	0.262900
H351	H35	0.135000	0.702400	0.250500
H361	H36	0.201400	0.636300	0.277300
C171	C17	0.256500	0.805200	0.310800
H371	H37	0.294400	0.831800	0.355100
H381	H38	0.192000	0.824100	0.300100
C181	C18	0.212300	0.715300	0.405300
H391	H39	0.208800	0.664100	0.413400
H401	H40	0.147500	0.733600	0.394100
N51	N5	0.332100	0.742200	0.713100
H411	H41	0.300700	0.725100	0.664700
N61	N6	0.254900	0.728200	0.332700
H421	H42	0.316300	0.712000	0.344100
O191	O19	0.532300	0.629900	0.769700
O201	O20	0.563600	0.685000	0.640600
O211	O21	0.411800	0.620700	0.636500
O221	O22	0.258400	0.835600	0.493900
O231	O23	0.233500	0.719400	0.562100
O241	O24	0.382200	0.739500	0.503700
O251	O25	0.370800	0.565500	0.475000
O261	O26	0.006000	0.602200	0.329600
O271	O27	0.939000	0.545400	0.222700
P71	P7	0.990020	0.163270	0.190260
P81	P8	0.776980	0.255390	0.998560
S41	S4	0.492700	0.030300	0.796400
C191	C19	0.791100	0.313600	0.225200
H431	H43	0.801500	0.345900	0.183400
H441	H44	0.823800	0.333000	0.276400
C201	C20	0.815200	0.191300	0.276500
H451	H45	0.848800	0.207800	0.328800
H461	H46	0.839700	0.144400	0.267200
C211	C21	0.936100	0.248700	0.210700
H471	H47	0.970700	0.267100	0.261700
H481	H48	0.943000	0.282800	0.169500
C221	C22	0.701000	0.186500	0.762900
H491	H49	0.635000	0.202400	0.750500
H501	H50	0.701400	0.136300	0.777300
C231	C23	0.756500	0.305200	0.810800
H511	H51	0.794400	0.331800	0.855100
H521	H52	0.692000	0.324100	0.800100
C241	C24	0.712300	0.215300	0.905300
H531	H53	0.708800	0.164100	0.913400
H541	H54	0.647500	0.233600	0.894100
N71	N7	0.832100	0.242200	0.213100
H551	H55	0.800700	0.225100	0.164700
N81	N8	0.754900	0.228200	0.832700
H561	H56	0.816300	0.212000	0.844100
O281	O28	0.032300	0.129900	0.269700
O291	O29	0.063600	0.185000	0.140600
O301	O30	0.911800	0.120700	0.136500
O311	O31	0.758400	0.335600	0.993900
O321	O32	0.733500	0.219400	0.062100
O331	O33	0.882200	0.239500	0.003700
O341	O34	0.870800	0.065500	0.975000
O351	O35	0.506000	0.102200	0.829600
O361	O36	0.439000	0.045400	0.722700
P91	P9	0.490020	0.336730	0.690260
P101	P10	0.276980	0.244610	0.498560
S51	S5	0.992700	0.469700	0.296400
C251	C25	0.291100	0.186400	0.725200
H571	H57	0.301500	0.154100	0.683400
H581	H58	0.323800	0.167000	0.776400
C261	C26	0.315200	0.308700	0.776500
H591	H59	0.348800	0.292200	0.828800
H601	H60	0.339700	0.355600	0.767200
C271	C27	0.436100	0.251300	0.710700
H611	H61	0.470700	0.232900	0.761700
H621	H62	0.443000	0.217200	0.669500
C281	C28	0.201000	0.313500	0.262900
H631	H63	0.135000	0.297600	0.250500
H641	H64	0.201400	0.363700	0.277300
C291	C29	0.256500	0.194800	0.310800
H651	H65	0.294400	0.168200	0.355100
H661	H66	0.192000	0.175900	0.300100
C301	C30	0.212300	0.284700	0.405300
H671	H67	0.208800	0.335900	0.413400
H681	H68	0.147500	0.266400	0.394100
N91	N9	0.332100	0.257800	0.713100
H691	H69	0.300700	0.274900	0.664700
N101	N10	0.254900	0.271800	0.332700
H701	H70	0.316300	0.288000	0.344100
O371	O37	0.532300	0.370100	0.769700
O381	O38	0.563600	0.315000	0.640600
O391	O39	0.411800	0.379300	0.636500
O401	O40	0.258400	0.164400	0.493900
O411	O41	0.233500	0.280600	0.562100
O421	O42	0.382200	0.260500	0.503700
O431	O43	0.370800	0.434500	0.475000
O441	O44	0.006000	0.397800	0.329600
O451	O45	0.939000	0.454600	0.222700
P111	P11	0.990020	0.836730	0.190260
P121	P12	0.776980	0.744610	0.998560
S61	S6	0.492700	0.969700	0.796400
C311	C31	0.791100	0.686400	0.225200
H711	H71	0.801500	0.654100	0.183400
H721	H72	0.823800	0.667000	0.276400
C321	C32	0.815200	0.808700	0.276500
H731	H73	0.848800	0.792200	0.328800
H741	H74	0.839700	0.855600	0.267200
C331	C33	0.936100	0.751300	0.210700
H751	H75	0.970700	0.732900	0.261700
H761	H76	0.943000	0.717200	0.169500
C341	C34	0.701000	0.813500	0.762900
H771	H77	0.635000	0.797600	0.750500
H781	H78	0.701400	0.863700	0.777300
C351	C35	0.756500	0.694800	0.810800
H791	H79	0.794400	0.668200	0.855100
H801	H80	0.692000	0.675900	0.800100
C361	C36	0.712300	0.784700	0.905300
H811	H81	0.708800	0.835900	0.913400
H821	H82	0.647500	0.766400	0.894100
N111	N11	0.832100	0.757800	0.213100
H831	H83	0.800700	0.774900	0.164700
N121	N12	0.754900	0.771800	0.832700
H841	H84	0.816300	0.788000	0.844100
O461	O46	0.032300	0.870100	0.269700
O471	O47	0.063600	0.815000	0.140600
O481	O48	0.911800	0.879300	0.136500
O491	O49	0.758400	0.664400	0.993900
O501	O50	0.733500	0.780600	0.062100
O511	O51	0.882200	0.760500	0.003700
O521	O52	0.870800	0.934500	0.975000
O531	O53	0.506000	0.897800	0.829600
O541	O54	0.439000	0.954600	0.722700
P131	P13	0.509980	0.336730	0.309740
P141	P14	0.723020	0.244610	0.501440
S71	S7	0.007300	0.469700	0.703600
C371	C37	0.708900	0.186400	0.274800
H851	H85	0.698500	0.154100	0.316600
H861	H86	0.676200	0.167000	0.223600
C381	C38	0.684800	0.308700	0.223500
H871	H87	0.651200	0.292200	0.171200
H881	H88	0.660300	0.355600	0.232800
C391	C39	0.563900	0.251300	0.289300
H891	H89	0.529300	0.232900	0.238300
H901	H90	0.557000	0.217200	0.330500
C401	C40	0.799000	0.313500	0.737100
H911	H91	0.865000	0.297600	0.749500
H921	H92	0.798600	0.363700	0.722700
C411	C41	0.743500	0.194800	0.689200
H931	H93	0.705600	0.168200	0.644900
H941	H94	0.808000	0.175900	0.699900
C421	C42	0.787700	0.284700	0.594700
H951	H95	0.791200	0.335900	0.586600
H961	H96	0.852500	0.266400	0.605900
N131	N13	0.667900	0.257800	0.286900
H971	H97	0.699300	0.274900	0.335300
N141	N14	0.745100	0.271800	0.667300
H981	H98	0.683700	0.288000	0.655900
O551	O55	0.467700	0.370100	0.230300
O561	O56	0.436400	0.315000	0.359400
O571	O57	0.588200	0.379300	0.363500
O581	O58	0.741600	0.164400	0.506100
O591	O59	0.766500	0.280600	0.437900
O601	O60	0.617800	0.260500	0.496300
O611	O61	0.629200	0.434500	0.525000
O621	O62	0.994000	0.397800	0.670400
O631	O63	0.061000	0.454600	0.777300
P151	P15	0.009980	0.836730	0.809740
P161	P16	0.223020	0.744610	0.001440
S81	S8	0.507300	0.969700	0.203600
C431	C43	0.208900	0.686400	0.774800
H991	H99	0.198500	0.654100	0.816600
H1001	H100	0.176200	0.667000	0.723600
C441	C44	0.184800	0.808700	0.723500
H1011	H101	0.151200	0.792200	0.671200
H1021	H102	0.160300	0.855600	0.732800
C451	C45	0.063900	0.751300	0.789300
H1031	H103	0.029300	0.732900	0.738300
H1041	H104	0.057000	0.717200	0.830500
C461	C46	0.299000	0.813500	0.237100
H1051	H105	0.365000	0.797600	0.249500
H1061	H106	0.298600	0.863700	0.222700
C471	C47	0.243500	0.694800	0.189200
H1071	H107	0.205600	0.668200	0.144900
H1081	H108	0.308000	0.675900	0.199900
C481	C48	0.287700	0.784700	0.094700
H1091	H109	0.291200	0.835900	0.086600
H1101	H110	0.352500	0.766400	0.105900
N151	N15	0.167900	0.757800	0.786900
H1111	H111	0.199300	0.774900	0.835300
N161	N16	0.245100	0.771800	0.167300
H1121	H112	0.183700	0.788000	0.155900
O641	O64	0.967700	0.870100	0.730300
O651	O65	0.936400	0.815000	0.859400
O661	O66	0.088200	0.879300	0.863500
O671	O67	0.241600	0.664400	0.006100
O681	O68	0.266500	0.780600	0.937900
O691	O69	0.117800	0.760500	0.996300
O701	O70	0.129200	0.934500	0.025000
O711	O71	0.494000	0.897800	0.170400
O721	O72	0.561000	0.954600	0.277300
Nd11	Nd1	0.500000	0.652770	0.500000
Nd21	Nd2	0.000000	0.152770	0.000000
Nd31	Nd3	0.500000	0.347230	0.500000
Nd41	Nd4	0.000000	0.847230	0.000000
Nd51	Nd5	0.643160	0.500000	0.390230
P171	P17	0.619530	0.500000	0.575750
C491	C49	0.885600	0.500000	0.719500
C501	C50	0.869300	0.500000	0.796100
H1131	H113	0.920100	0.500000	0.840300
C511	C51	0.775200	0.500000	0.806300
H1141	H114	0.762500	0.500000	0.857600
C521	C52	0.700000	0.500000	0.739200
H1151	H115	0.637300	0.500000	0.746300
C531	C53	0.717100	0.500000	0.661100
C541	C54	0.811700	0.500000	0.651900
H1161	H116	0.825200	0.500000	0.600900
O731	O73	0.526500	0.500000	0.602400
O741	O74	0.016000	0.500000	0.627000
Nd61	Nd6	0.143160	0.000000	0.890230
P181	P18	0.119530	0.000000	0.075750
C551	C55	0.385600	0.000000	0.219500
C561	C56	0.369300	0.000000	0.296100
H1171	H117	0.420100	0.000000	0.340300
C571	C57	0.275200	0.000000	0.306300
H1181	H118	0.262500	0.000000	0.357600
C581	C58	0.200000	0.000000	0.239200
H1191	H119	0.137300	0.000000	0.246300
C591	C59	0.217100	0.000000	0.161100
C601	C60	0.311700	0.000000	0.151900
H1201	H120	0.325200	0.000000	0.100900
O751	O75	0.026500	0.000000	0.102400
O761	O76	0.516000	0.000000	0.127000
Nd71	Nd7	0.356840	0.500000	0.609770
P191	P19	0.380470	0.500000	0.424250
C611	C61	0.114400	0.500000	0.280500
C621	C62	0.130700	0.500000	0.203900
H1211	H121	0.079900	0.500000	0.159700
C631	C63	0.224800	0.500000	0.193700
H1221	H122	0.237500	0.500000	0.142400
C641	C64	0.300000	0.500000	0.260800
H1231	H123	0.362700	0.500000	0.253700
C651	C65	0.282900	0.500000	0.338900
C661	C66	0.188300	0.500000	0.348100
H1241	H124	0.174800	0.500000	0.399100
O771	O77	0.473500	0.500000	0.397600
O781	O78	0.984000	0.500000	0.373000
Nd81	Nd8	0.856840	0.000000	0.109770
P201	P20	0.880470	0.000000	0.924250
C671	C67	0.614400	0.000000	0.780500
C681	C68	0.630700	0.000000	0.703900
H1251	H125	0.579900	0.000000	0.659700
C691	C69	0.724800	0.000000	0.693700
H1261	H126	0.737500	0.000000	0.642400
C701	C70	0.800000	0.000000	0.760800
H1271	H127	0.862700	0.000000	0.753700
C711	C71	0.782900	0.000000	0.838900
C721	C72	0.688300	0.000000	0.848100
H1281	H128	0.674800	0.000000	0.899100
O791	O79	0.973500	0.000000	0.897600
O801	O80	0.484000	0.000000	0.873000
