data_GETXAG_clean_PM
_symmetry_space_group_name_H-M	'P1'
_cell_length_a	6.709800
_cell_length_b	13.094500
_cell_length_c	21.342000
_cell_angle_alpha	90.000000
_cell_angle_beta	90.000000
_cell_angle_gamma	102.506000
_symmetry_Int_Tables_number 1

loop_
_symmetry_equiv_pos_as_xyz
'x,y,z'

loop_
_atom_site_label
_atom_site_type_symbol
_atom_site_fract_x
_atom_site_fract_y
_atom_site_fract_z
Co11	Co1	0.518020	0.046820	0.433070
Co21	Co2	0.981980	0.453180	0.933070
Co31	Co3	0.481980	0.953180	0.566930
Co41	Co4	0.018020	0.546820	0.066930
Co51	Co5	0.000000	0.000000	0.500000
Co61	Co6	0.500000	0.500000	0.000000
H11	H1	0.215200	0.981800	0.352600
H21	H2	0.398500	0.968500	0.321100
H31	H3	0.613900	0.114500	0.266000
H41	H4	0.598200	0.248700	0.197600
H51	H5	0.043100	0.111200	0.322600
H61	H6	0.025900	0.243100	0.252100
H71	H7	0.952400	0.406000	0.431200
H81	H8	0.957300	0.582100	0.421900
H91	H9	0.566000	0.644800	0.413100
H101	H10	0.561600	0.469200	0.421300
H111	H11	0.365000	0.777000	0.393300
H121	H12	0.142000	0.758000	0.407000
H131	H13	0.284800	0.518200	0.852600
H141	H14	0.101500	0.531500	0.821100
H151	H15	0.886100	0.385500	0.766000
H161	H16	0.901800	0.251300	0.697600
H171	H17	0.456900	0.388800	0.822600
H181	H18	0.474100	0.256900	0.752100
H191	H19	0.547600	0.094000	0.931200
H201	H20	0.542700	0.917900	0.921900
H211	H21	0.934000	0.855200	0.913100
H221	H22	0.938400	0.030800	0.921300
H231	H23	0.135000	0.723000	0.893300
H241	H24	0.358000	0.742000	0.907000
H251	H25	0.784800	0.018200	0.647400
H261	H26	0.601500	0.031500	0.678900
H271	H27	0.386100	0.885500	0.734000
H281	H28	0.401800	0.751300	0.802400
H291	H29	0.956900	0.888800	0.677400
H301	H30	0.974100	0.756900	0.747900
H311	H31	0.047600	0.594000	0.568800
H321	H32	0.042700	0.417900	0.578100
H331	H33	0.434000	0.355200	0.586900
H341	H34	0.438400	0.530800	0.578700
H351	H35	0.635000	0.223000	0.606700
H361	H36	0.858000	0.242000	0.593000
H371	H37	0.715200	0.481800	0.147400
H381	H38	0.898500	0.468500	0.178900
H391	H39	0.113900	0.614500	0.234000
H401	H40	0.098200	0.748700	0.302400
H411	H41	0.543100	0.611200	0.177400
H421	H42	0.525900	0.743100	0.247900
H431	H43	0.452400	0.906000	0.068800
H441	H44	0.457300	0.082100	0.078100
H451	H45	0.066000	0.144800	0.086900
H461	H46	0.061600	0.969200	0.078700
H471	H47	0.865000	0.277000	0.106700
H481	H48	0.642000	0.258000	0.093000
C11	C1	0.328180	0.097380	0.300290
C21	C2	0.495000	0.139800	0.263100
C31	C3	0.484600	0.219700	0.221740
C41	C4	0.294980	0.335380	0.166810
C51	C5	0.255630	0.307430	0.438650
C61	C6	0.153800	0.137500	0.296670
C71	C7	0.307630	0.257330	0.215620
C81	C8	0.143800	0.216800	0.254430
C91	C9	0.256530	0.418530	0.428010
C101	C10	0.261920	0.632620	0.418290
C111	C11	0.076700	0.453800	0.427820
C121	C12	0.079800	0.559800	0.422560
C131	C13	0.441980	0.597080	0.417170
C141	C14	0.439210	0.491610	0.422040
C151	C15	0.171820	0.402620	0.800290
C161	C16	0.005000	0.360200	0.763100
C171	C17	0.015400	0.280300	0.721740
C181	C18	0.205020	0.164620	0.666810
C191	C19	0.244370	0.192570	0.938650
C201	C20	0.346200	0.362500	0.796670
C211	C21	0.192370	0.242670	0.715620
C221	C22	0.356200	0.283200	0.754430
C231	C23	0.243470	0.081470	0.928010
C241	C24	0.238080	0.867380	0.918290
C251	C25	0.423300	0.046200	0.927820
C261	C26	0.420200	0.940200	0.922560
C271	C27	0.058020	0.902920	0.917170
C281	C28	0.060790	0.008390	0.922040
C291	C29	0.671820	0.902620	0.699710
C301	C30	0.505000	0.860200	0.736900
C311	C31	0.515400	0.780300	0.778260
C321	C32	0.705020	0.664620	0.833190
C331	C33	0.744370	0.692570	0.561350
C341	C34	0.846200	0.862500	0.703330
C351	C35	0.692370	0.742670	0.784380
C361	C36	0.856200	0.783200	0.745570
C371	C37	0.743470	0.581470	0.571990
C381	C38	0.738080	0.367380	0.581710
C391	C39	0.923300	0.546200	0.572180
C401	C40	0.920200	0.440200	0.577440
C411	C41	0.558020	0.402920	0.582830
C421	C42	0.560790	0.508390	0.577960
C431	C43	0.828180	0.597380	0.199710
C441	C44	0.995000	0.639800	0.236900
C451	C45	0.984600	0.719700	0.278260
C461	C46	0.794980	0.835380	0.333190
C471	C47	0.755630	0.807430	0.061350
C481	C48	0.653800	0.637500	0.203330
C491	C49	0.807630	0.757330	0.284380
C501	C50	0.643800	0.716800	0.245570
C511	C51	0.756530	0.918530	0.071990
C521	C52	0.761920	0.132620	0.081710
C531	C53	0.576700	0.953800	0.072180
C541	C54	0.579800	0.059800	0.077440
C551	C55	0.941980	0.097080	0.082830
C561	C56	0.939210	0.991610	0.077960
N11	N1	0.343450	0.014650	0.342670
N21	N2	0.157400	0.146700	0.462240
N31	N3	0.354520	0.165720	0.450710
N41	N4	0.421480	0.266580	0.435340
N51	N5	0.090160	0.235060	0.455500
N61	N6	0.188530	0.441030	0.106640
N71	N7	0.369540	0.433240	0.087030
N81	N8	0.441890	0.366490	0.123830
N91	N9	0.136990	0.379890	0.157510
N101	N10	0.265330	0.739830	0.417940
N111	N11	0.156550	0.485350	0.842670
N121	N12	0.342600	0.353300	0.962240
N131	N13	0.145480	0.334280	0.950710
N141	N14	0.078520	0.233420	0.935340
N151	N15	0.409840	0.264940	0.955500
N161	N16	0.311470	0.058970	0.606640
N171	N17	0.130460	0.066760	0.587030
N181	N18	0.058110	0.133510	0.623830
N191	N19	0.363010	0.120110	0.657510
N201	N20	0.234670	0.760170	0.917940
N211	N21	0.656550	0.985350	0.657330
N221	N22	0.842600	0.853300	0.537760
N231	N23	0.645480	0.834280	0.549290
N241	N24	0.578520	0.733420	0.564660
N251	N25	0.909840	0.764940	0.544500
N261	N26	0.811470	0.558970	0.893360
N271	N27	0.630460	0.566760	0.912970
N281	N28	0.558110	0.633510	0.876170
N291	N29	0.863010	0.620110	0.842490
N301	N30	0.734670	0.260170	0.582060
N311	N31	0.843450	0.514650	0.157330
N321	N32	0.657400	0.646700	0.037760
N331	N33	0.854520	0.665720	0.049290
N341	N34	0.921480	0.766580	0.064660
N351	N35	0.590160	0.735060	0.044500
N361	N36	0.688530	0.941030	0.393360
N371	N37	0.869540	0.933240	0.412970
N381	N38	0.941890	0.866490	0.376170
N391	N39	0.636990	0.879890	0.342490
N401	N40	0.765330	0.239830	0.082060
O11	O1	0.287110	0.950010	0.487890
O21	O2	0.212890	0.549990	0.987890
O31	O3	0.712890	0.049990	0.512110
O41	O4	0.787110	0.450010	0.012110
