data_GETXAG01_clean_PM
_symmetry_space_group_name_H-M	'P1'
_cell_length_a	6.667300
_cell_length_b	13.077100
_cell_length_c	21.275100
_cell_angle_alpha	90.000000
_cell_angle_beta	90.000000
_cell_angle_gamma	102.492000
_symmetry_Int_Tables_number 1

loop_
_symmetry_equiv_pos_as_xyz
'x,y,z'

loop_
_atom_site_label
_atom_site_type_symbol
_atom_site_fract_x
_atom_site_fract_y
_atom_site_fract_z
Co11	Co1	0.517510	0.546560	0.066950
Co21	Co2	0.982490	0.953440	0.566950
Co31	Co3	0.482490	0.453440	0.933050
Co41	Co4	0.000000	0.500000	0.000000
Co51	Co5	0.017510	0.046560	0.433050
Co61	Co6	0.500000	0.000000	0.500000
H11	H1	0.464600	0.889300	0.675700
H21	H2	0.766000	0.891300	0.475100
H31	H3	0.598000	0.744900	0.304800
H41	H4	0.360000	0.241500	0.589700
H51	H5	0.517700	0.242900	0.252100
H61	H6	0.266000	0.391300	0.024900
H71	H7	0.067700	0.470300	0.421700
H81	H8	0.903000	0.971400	0.326100
H91	H9	0.567700	0.970300	0.078300
H101	H10	0.403000	0.471400	0.173900
H111	H11	0.447000	0.405500	0.431700
H121	H12	0.216000	0.479200	0.146200
H131	H13	0.716000	0.979200	0.353800
H141	H14	0.284000	0.020800	0.646200
H151	H15	0.234000	0.108700	0.524900
H161	H16	0.035400	0.610700	0.175700
H171	H17	0.097000	0.028600	0.673900
H181	H18	0.017700	0.742900	0.247900
H191	H19	0.885000	0.888600	0.733900
H201	H20	0.098000	0.244900	0.195200
H211	H21	0.127000	0.219600	0.601300
H221	H22	0.640000	0.758500	0.410300
H231	H23	0.571000	0.148000	0.085900
H241	H24	0.535400	0.110700	0.324300
H251	H25	0.115000	0.111400	0.266100
H261	H26	0.784000	0.520800	0.853800
H271	H27	0.860000	0.741500	0.910300
H281	H28	0.049900	0.916900	0.923000
H291	H29	0.385000	0.388600	0.766100
H301	H30	0.873000	0.780400	0.398700
H311	H31	0.432300	0.029700	0.921700
H321	H32	0.929000	0.352000	0.585900
H331	H33	0.482300	0.757100	0.747900
H341	H34	0.902000	0.755100	0.804800
H351	H35	0.071000	0.648000	0.414100
H361	H36	0.553000	0.594500	0.568300
H371	H37	0.549900	0.416900	0.577000
H381	H38	0.450100	0.583100	0.423000
H391	H39	0.053000	0.094500	0.931700
H401	H40	0.947000	0.905500	0.068300
H411	H41	0.950100	0.083100	0.077000
H421	H42	0.597000	0.528600	0.826100
H431	H43	0.627000	0.719600	0.898700
H441	H44	0.140000	0.258500	0.089700
H451	H45	0.734000	0.608700	0.975100
H461	H46	0.982300	0.257100	0.752100
H471	H47	0.615000	0.611400	0.233900
H481	H48	0.402000	0.255100	0.695200
H491	H49	0.429000	0.852000	0.914100
H501	H50	0.964600	0.389300	0.824300
H511	H51	0.373000	0.280400	0.101300
H521	H52	0.932300	0.529700	0.578300
C11	C1	0.558200	0.006910	0.922850
C21	C2	0.638600	0.215760	0.254620
C31	C3	0.256300	0.808690	0.060990
C41	C4	0.257400	0.919400	0.070910
C51	C5	0.260400	0.134170	0.080290
C61	C6	0.743700	0.191310	0.939010
C71	C7	0.058200	0.506910	0.577150
C81	C8	0.493100	0.637570	0.236940
C91	C9	0.056100	0.401090	0.581740
C101	C10	0.517600	0.283350	0.720770
C111	C11	0.576300	0.560540	0.423680
C121	C12	0.006900	0.862430	0.736940
C131	C13	0.825100	0.096450	0.301120
C141	C14	0.861400	0.284240	0.754620
C151	C15	0.076300	0.060540	0.076320
C161	C16	0.196100	0.744590	0.784780
C171	C17	0.208300	0.666960	0.833950
C181	C18	0.443900	0.098910	0.081740
C191	C19	0.574400	0.454600	0.428590
C201	C20	0.941800	0.493090	0.422850
C211	C21	0.017600	0.783350	0.779230
C221	C22	0.556100	0.901090	0.918260
C231	C23	0.423700	0.439460	0.576320
C241	C24	0.239600	0.365830	0.580290
C251	C25	0.482400	0.716650	0.279230
C261	C26	0.441800	0.993090	0.077150
C271	C27	0.943900	0.598910	0.418260
C281	C28	0.351200	0.863060	0.702510
C291	C29	0.851200	0.363060	0.797490
C301	C30	0.982400	0.216650	0.220770
C311	C31	0.739600	0.865830	0.919710
C321	C32	0.425600	0.545400	0.571410
C331	C33	0.148800	0.636940	0.202510
C341	C34	0.506900	0.362430	0.763060
C351	C35	0.757400	0.419400	0.429090
C361	C36	0.648800	0.136940	0.297490
C371	C37	0.138600	0.715760	0.245380
C381	C38	0.361400	0.784240	0.745380
C391	C39	0.325100	0.596450	0.198880
C401	C40	0.674900	0.403550	0.801120
C411	C41	0.760400	0.634170	0.419710
C421	C42	0.074400	0.954600	0.071410
C431	C43	0.243700	0.691310	0.560990
C441	C44	0.925600	0.045400	0.928590
C451	C45	0.742600	0.080600	0.929090
C461	C46	0.791700	0.333040	0.166050
C471	C47	0.708300	0.166960	0.666050
C481	C48	0.291700	0.833040	0.333950
C491	C49	0.696100	0.244590	0.715220
C501	C50	0.303900	0.755410	0.284780
C511	C51	0.993100	0.137570	0.263060
C521	C52	0.803900	0.255410	0.215220
C531	C53	0.174900	0.903550	0.698880
C541	C54	0.756300	0.308690	0.439010
C551	C55	0.923700	0.939460	0.923680
C561	C56	0.242600	0.580600	0.570910
N11	N1	0.141400	0.833400	0.548580
N21	N2	0.439800	0.864540	0.377190
N31	N3	0.160100	0.985580	0.655700
N41	N4	0.560200	0.135460	0.622810
N51	N5	0.641400	0.333400	0.951420
N61	N6	0.131600	0.878000	0.343610
N71	N7	0.763600	0.741530	0.419360
N81	N8	0.367500	0.931420	0.414090
N91	N9	0.910300	0.264770	0.955380
N101	N10	0.184200	0.938970	0.394610
N111	N11	0.132500	0.568580	0.914090
N121	N12	0.631600	0.378000	0.156390
N131	N13	0.660100	0.485580	0.844300
N141	N14	0.589700	0.235230	0.455380
N151	N15	0.654700	0.146370	0.461530
N161	N16	0.736400	0.758470	0.919360
N171	N17	0.424200	0.766980	0.063930
N181	N18	0.060200	0.635460	0.877190
N191	N19	0.924200	0.266980	0.436070
N201	N20	0.315800	0.561030	0.894610
N211	N21	0.868400	0.122000	0.656390
N221	N22	0.632500	0.068580	0.585910
N231	N23	0.075800	0.733020	0.563930
N241	N24	0.368400	0.622000	0.843610
N251	N25	0.089700	0.735230	0.044620
N261	N26	0.575800	0.233020	0.936070
N271	N27	0.263600	0.241530	0.080640
N281	N28	0.236400	0.258470	0.580640
N291	N29	0.939800	0.364540	0.122810
N301	N30	0.339900	0.514420	0.155700
N311	N31	0.815800	0.061030	0.605390
N321	N32	0.154700	0.646370	0.038470
N331	N33	0.858600	0.166600	0.451420
N341	N34	0.839900	0.014420	0.344300
N351	N35	0.410300	0.764770	0.544620
N361	N36	0.845300	0.353630	0.961530
N371	N37	0.358600	0.666600	0.048580
N381	N38	0.345300	0.853630	0.538470
N391	N39	0.867500	0.431420	0.085910
N401	N40	0.684200	0.438970	0.105390
O11	O1	0.786580	0.949870	0.487800
O21	O2	0.713420	0.550130	0.987800
O31	O3	0.213420	0.050130	0.512200
O41	O4	0.286580	0.449870	0.012200
