data_GEVKID_clean_PM
_symmetry_space_group_name_H-M	'P1'
_cell_length_a	11.711000
_cell_length_b	11.711000
_cell_length_c	17.196200
_cell_angle_alpha	95.325000
_cell_angle_beta	95.325000
_cell_angle_gamma	105.779000
_symmetry_Int_Tables_number 1

loop_
_symmetry_equiv_pos_as_xyz
'x,y,z'

loop_
_atom_site_label
_atom_site_type_symbol
_atom_site_fract_x
_atom_site_fract_y
_atom_site_fract_z
Cd11	Cd1	0.085570	0.587580	0.824560
Cd21	Cd2	0.412420	0.914430	0.675440
Cd31	Cd3	0.914430	0.412420	0.175440
Cd41	Cd4	0.587580	0.085570	0.324560
Cd51	Cd5	0.363200	0.636810	0.750000
Cd61	Cd6	0.636810	0.363190	0.250000
Cd71	Cd7	0.000000	0.500000	0.000000
Cd81	Cd8	0.500000	0.000000	0.500000
H11	H1	0.471300	0.625100	0.944000
H21	H2	0.423200	0.638200	0.073600
H31	H3	0.376500	0.495500	0.067800
H41	H4	0.428400	0.440000	0.864200
H51	H5	0.379200	0.370000	0.935500
H61	H6	0.836500	0.234500	0.890100
H71	H7	0.952100	0.130300	0.817200
H81	H8	0.812500	0.061500	0.807800
H91	H9	0.718400	0.337800	0.818400
H101	H10	0.661900	0.195700	0.801200
H111	H11	0.103500	0.913300	0.034200
H121	H12	0.148000	0.989600	0.915500
H131	H13	0.008500	0.969500	0.888400
H141	H14	0.855200	0.868000	0.978000
H151	H15	0.904600	0.828000	0.058100
H161	H16	0.113500	0.638500	0.559400
H171	H17	0.025500	0.386100	0.569600
H181	H18	0.163900	0.457700	0.572600
H191	H19	0.868300	0.503300	0.559100
H201	H20	0.912600	0.644600	0.556200
H211	H21	0.374900	0.528700	0.556000
H221	H22	0.361800	0.576800	0.426400
H231	H23	0.504500	0.623500	0.432200
H241	H24	0.560000	0.571600	0.635800
H251	H25	0.630000	0.620800	0.564500
H261	H26	0.765500	0.163500	0.609900
H271	H27	0.869700	0.047900	0.682800
H281	H28	0.938500	0.187500	0.692200
H291	H29	0.662200	0.281600	0.681600
H301	H30	0.804300	0.338100	0.698800
H311	H31	0.086700	0.896500	0.465800
H321	H32	0.010400	0.852000	0.584500
H331	H33	0.030500	0.991500	0.611600
H341	H34	0.132000	0.144800	0.522000
H351	H35	0.172000	0.095400	0.441900
H361	H36	0.361500	0.886500	0.940600
H371	H37	0.613900	0.974500	0.930400
H381	H38	0.542300	0.836100	0.927400
H391	H39	0.496700	0.131700	0.940900
H401	H40	0.355400	0.087400	0.943800
H411	H41	0.528700	0.374900	0.056000
H421	H42	0.576800	0.361800	0.926400
H431	H43	0.623500	0.504500	0.932200
H441	H44	0.571600	0.560000	0.135800
H451	H45	0.620800	0.630000	0.064500
H461	H46	0.163500	0.765500	0.109900
H471	H47	0.047900	0.869700	0.182800
H481	H48	0.187500	0.938500	0.192200
H491	H49	0.281600	0.662200	0.181600
H501	H50	0.338100	0.804300	0.198800
H511	H51	0.896500	0.086700	0.965800
H521	H52	0.852000	0.010400	0.084500
H531	H53	0.991500	0.030500	0.111600
H541	H54	0.144800	0.132000	0.022000
H551	H55	0.095400	0.172000	0.941900
H561	H56	0.886500	0.361500	0.440600
H571	H57	0.974500	0.613900	0.430400
H581	H58	0.836100	0.542300	0.427400
H591	H59	0.131700	0.496700	0.440900
H601	H60	0.087400	0.355400	0.443800
H611	H61	0.625100	0.471300	0.444000
H621	H62	0.638200	0.423200	0.573600
H631	H63	0.495500	0.376500	0.567800
H641	H64	0.440000	0.428400	0.364200
H651	H65	0.370000	0.379200	0.435500
H661	H66	0.234500	0.836500	0.390100
H671	H67	0.130300	0.952100	0.317200
H681	H68	0.061500	0.812500	0.307800
H691	H69	0.337800	0.718400	0.318400
H701	H70	0.195700	0.661900	0.301200
H711	H71	0.913300	0.103500	0.534200
H721	H72	0.989600	0.148000	0.415500
H731	H73	0.969500	0.008500	0.388400
H741	H74	0.868000	0.855200	0.478000
H751	H75	0.828000	0.904600	0.558100
H761	H76	0.638500	0.113500	0.059400
H771	H77	0.386100	0.025500	0.069600
H781	H78	0.457700	0.163900	0.072600
H791	H79	0.503300	0.868300	0.059100
H801	H80	0.644600	0.912600	0.056200
C11	C1	0.287720	0.558880	0.930670
C21	C2	0.413010	0.554590	0.960430
C31	C3	0.435180	0.562620	0.049800
C41	C4	0.438060	0.441540	0.922200
C51	C5	0.947520	0.357880	0.832790
C61	C6	0.846950	0.245250	0.833930
C71	C7	0.871980	0.133020	0.795000
C81	C8	0.730800	0.263000	0.793700
C91	C9	0.036300	0.767500	0.950900
C101	C10	0.039200	0.891200	0.988400
C111	C11	0.070400	0.987800	0.934600
C121	C12	0.921700	0.889500	0.021600
C131	C13	0.066070	0.588930	0.666700
C141	C14	0.053600	0.570800	0.577400
C151	C15	0.081800	0.453800	0.550100
C161	C16	0.928900	0.567700	0.540000
C171	C17	0.441120	0.712280	0.569330
C181	C18	0.445410	0.586990	0.539570
C191	C19	0.437380	0.564820	0.450200
C201	C20	0.558460	0.561940	0.577800
C211	C21	0.642120	0.052480	0.667210
C221	C22	0.754750	0.153050	0.666070
C231	C23	0.866980	0.128020	0.705000
C241	C24	0.737000	0.269200	0.706300
C251	C25	0.232500	0.963700	0.549100
C261	C26	0.108800	0.960800	0.511600
C271	C27	0.012200	0.929600	0.565400
C281	C28	0.110500	0.078300	0.478400
C291	C29	0.411070	0.933930	0.833300
C301	C30	0.429200	0.946400	0.922600
C311	C31	0.546200	0.918200	0.949900
C321	C32	0.432300	0.071100	0.960000
C331	C33	0.712280	0.441120	0.069330
C341	C34	0.586990	0.445410	0.039570
C351	C35	0.564820	0.437380	0.950200
C361	C36	0.561940	0.558460	0.077800
C371	C37	0.052480	0.642120	0.167210
C381	C38	0.153050	0.754750	0.166070
C391	C39	0.128020	0.866980	0.205000
C401	C40	0.269200	0.737000	0.206300
C411	C41	0.963700	0.232500	0.049100
C421	C42	0.960800	0.108800	0.011600
C431	C43	0.929600	0.012200	0.065400
C441	C44	0.078300	0.110500	0.978400
C451	C45	0.933930	0.411070	0.333300
C461	C46	0.946400	0.429200	0.422600
C471	C47	0.918200	0.546200	0.449900
C481	C48	0.071100	0.432300	0.460000
C491	C49	0.558880	0.287720	0.430670
C501	C50	0.554590	0.413010	0.460430
C511	C51	0.562620	0.435180	0.549800
C521	C52	0.441540	0.438060	0.422200
C531	C53	0.357880	0.947520	0.332790
C541	C54	0.245250	0.846950	0.333930
C551	C55	0.133020	0.871980	0.295000
C561	C56	0.263000	0.730800	0.293700
C571	C57	0.767500	0.036300	0.450900
C581	C58	0.891200	0.039200	0.488400
C591	C59	0.987800	0.070400	0.434600
C601	C60	0.889500	0.921700	0.521600
C611	C61	0.588930	0.066070	0.166700
C621	C62	0.570800	0.053600	0.077400
C631	C63	0.453800	0.081800	0.050100
C641	C64	0.567700	0.928900	0.040000
O11	O1	0.272010	0.580990	0.858700
O21	O2	0.206410	0.542990	0.972860
O31	O3	0.936780	0.454680	0.870970
O41	O4	0.033330	0.361070	0.795200
O51	O5	0.072580	0.756020	0.884500
O61	O6	0.997320	0.684280	0.990890
O71	O7	0.169800	0.617600	0.705240
O81	O8	0.975200	0.571200	0.701500
O91	O9	0.419010	0.727990	0.641300
O101	O10	0.457010	0.793590	0.527140
O111	O11	0.545320	0.063220	0.629030
O121	O12	0.638930	0.966670	0.704800
O131	O13	0.243980	0.927420	0.615500
O141	O14	0.315720	0.002680	0.509110
O151	O15	0.382400	0.830200	0.794760
O161	O16	0.428800	0.024800	0.798500
O171	O17	0.727990	0.419010	0.141300
O181	O18	0.793590	0.457010	0.027140
O191	O19	0.063220	0.545320	0.129030
O201	O20	0.966670	0.638930	0.204800
O211	O21	0.927420	0.243980	0.115500
O221	O22	0.002680	0.315720	0.009110
O231	O23	0.830200	0.382400	0.294760
O241	O24	0.024800	0.428800	0.298500
O251	O25	0.580990	0.272010	0.358700
O261	O26	0.542990	0.206410	0.472860
O271	O27	0.454680	0.936780	0.370970
O281	O28	0.361070	0.033330	0.295200
O291	O29	0.756020	0.072580	0.384500
O301	O30	0.684280	0.997320	0.490890
O311	O31	0.617600	0.169800	0.205240
O321	O32	0.571200	0.975200	0.201500
