data_GEVXAI_clean_PM
_symmetry_space_group_name_H-M	'P1'
_cell_length_a	7.184900
_cell_length_b	10.732900
_cell_length_c	17.175300
_cell_angle_alpha	97.160000
_cell_angle_beta	90.000000
_cell_angle_gamma	90.000000
_symmetry_Int_Tables_number 1

loop_
_symmetry_equiv_pos_as_xyz
'x,y,z'

loop_
_atom_site_label
_atom_site_type_symbol
_atom_site_fract_x
_atom_site_fract_y
_atom_site_fract_z
Gd11	Gd1	0.020040	0.825010	0.753160
Gd21	Gd2	0.520040	0.674990	0.746840
Gd31	Gd3	0.979960	0.174990	0.246840
Gd41	Gd4	0.479960	0.325010	0.253160
H11	H1	0.317000	0.507000	0.480600
H21	H2	0.966000	0.190000	0.560000
H31	H3	0.651000	0.833000	0.551800
H41	H4	0.817000	0.993000	0.019400
H51	H5	0.466000	0.310000	0.940000
H61	H6	0.151000	0.667000	0.948200
H71	H7	0.683000	0.493000	0.519400
H81	H8	0.034000	0.810000	0.440000
H91	H9	0.349000	0.167000	0.448200
H101	H10	0.183000	0.007000	0.980600
H111	H11	0.534000	0.690000	0.060000
H121	H12	0.849000	0.333000	0.051800
C11	C1	0.251700	0.594400	0.625570
C21	C2	0.117700	0.547900	0.561870
C31	C3	0.925800	0.542300	0.573370
C41	C4	0.826900	0.584000	0.648710
C51	C5	0.189900	0.505600	0.488180
C61	C6	0.352500	0.891500	0.634050
C71	C7	0.428400	0.952700	0.566550
C81	C8	0.341200	0.053700	0.536950
C91	C9	0.181400	0.122000	0.579210
C101	C10	0.588200	0.901000	0.529490
C111	C11	0.751700	0.905600	0.874430
C121	C12	0.617700	0.952100	0.938130
C131	C13	0.425800	0.957700	0.926630
C141	C14	0.326900	0.916000	0.851290
C151	C15	0.689900	0.994400	0.011820
C161	C16	0.852500	0.608500	0.865950
C171	C17	0.928400	0.547300	0.933450
C181	C18	0.841200	0.446300	0.963050
C191	C19	0.681400	0.378000	0.920790
C201	C20	0.088200	0.599000	0.970510
C211	C21	0.748300	0.405600	0.374430
C221	C22	0.882300	0.452100	0.438130
C231	C23	0.074200	0.457700	0.426630
C241	C24	0.173100	0.416000	0.351290
C251	C25	0.810100	0.494400	0.511820
C261	C26	0.647500	0.108500	0.365950
C271	C27	0.571600	0.047300	0.433450
C281	C28	0.658800	0.946300	0.463050
C291	C29	0.818600	0.878000	0.420790
C301	C30	0.411800	0.099000	0.470510
C311	C31	0.248300	0.094400	0.125570
C321	C32	0.382300	0.047900	0.061870
C331	C33	0.574200	0.042300	0.073370
C341	C34	0.673100	0.084000	0.148710
C351	C35	0.310100	0.005600	0.988180
C361	C36	0.147500	0.391500	0.134050
C371	C37	0.071600	0.452700	0.066550
C381	C38	0.158800	0.553700	0.036950
C391	C39	0.318600	0.622000	0.079210
C401	C40	0.911800	0.401000	0.029490
O11	O1	0.189400	0.644280	0.692230
O21	O2	0.421000	0.582900	0.613710
O31	O3	0.808100	0.702760	0.670430
O41	O4	0.747700	0.506040	0.684650
O51	O5	0.178900	0.887570	0.642880
O61	O6	0.468800	0.845070	0.676220
O71	O7	0.182400	0.153500	0.649920
O81	O8	0.047400	0.148400	0.533010
O91	O9	0.689400	0.855720	0.807770
O101	O10	0.921000	0.917100	0.886290
O111	O11	0.308100	0.797240	0.829570
O121	O12	0.247700	0.993960	0.815350
O131	O13	0.678900	0.612430	0.857120
O141	O14	0.968800	0.654930	0.823780
O151	O15	0.682400	0.346500	0.850080
O161	O16	0.547400	0.351600	0.966990
O171	O17	0.810600	0.355720	0.307770
O181	O18	0.579000	0.417100	0.386290
O191	O19	0.191900	0.297240	0.329570
O201	O20	0.252300	0.493960	0.315350
O211	O21	0.821100	0.112430	0.357120
O221	O22	0.531200	0.154930	0.323780
O231	O23	0.817600	0.846500	0.350080
O241	O24	0.952600	0.851600	0.466990
O251	O25	0.310600	0.144280	0.192230
O261	O26	0.079000	0.082900	0.113710
O271	O27	0.691900	0.202760	0.170430
O281	O28	0.752300	0.006040	0.184650
O291	O29	0.321100	0.387570	0.142880
O301	O30	0.031200	0.345070	0.176220
O311	O31	0.317600	0.653500	0.149920
O321	O32	0.452600	0.648400	0.033010
