data_GEVXIQ_clean_PM
_symmetry_space_group_name_H-M	'P1'
_cell_length_a	10.066200
_cell_length_b	11.449200
_cell_length_c	12.774600
_cell_angle_alpha	108.730000
_cell_angle_beta	96.948000
_cell_angle_gamma	96.802000
_symmetry_Int_Tables_number 1

loop_
_symmetry_equiv_pos_as_xyz
'x,y,z'

loop_
_atom_site_label
_atom_site_type_symbol
_atom_site_fract_x
_atom_site_fract_y
_atom_site_fract_z
Gd11	Gd1	0.931860	0.923660	0.616050
Gd21	Gd2	0.548360	0.401840	0.241780
Gd31	Gd3	0.068140	0.076340	0.383950
Gd41	Gd4	0.451640	0.598160	0.758220
H11	H1	0.861000	0.446000	0.375000
H21	H2	0.238000	0.676000	0.319000
H31	H3	0.980000	0.693000	0.110000
H41	H4	0.139000	0.554000	0.625000
H51	H5	0.762000	0.324000	0.681000
H61	H6	0.020000	0.307000	0.890000
C11	C1	0.065000	0.822000	0.375900
C21	C2	0.048300	0.686000	0.363500
C31	C3	0.931600	0.615400	0.374900
C41	C4	0.802200	0.669600	0.393500
C51	C5	0.934100	0.491000	0.366500
C61	C6	0.048500	0.436100	0.345300
C71	C7	0.052600	0.306300	0.348000
C81	C8	0.161800	0.505700	0.327800
C91	C9	0.288000	0.455700	0.296400
C101	C10	0.160500	0.629100	0.335800
C111	C11	0.770800	0.537200	0.116000
C121	C12	0.886000	0.516900	0.052000
C131	C13	0.898600	0.397800	0.981300
C141	C14	0.789300	0.285200	0.954400
C151	C15	0.987900	0.617000	0.069000
C161	C16	0.935000	0.178000	0.624100
C171	C17	0.951700	0.314000	0.636500
C181	C18	0.068400	0.384600	0.625100
C191	C19	0.197800	0.330400	0.606500
C201	C20	0.065900	0.509000	0.633500
C211	C21	0.951500	0.563900	0.654700
C221	C22	0.947400	0.693700	0.652000
C231	C23	0.838200	0.494300	0.672200
C241	C24	0.712000	0.544300	0.703600
C251	C25	0.839500	0.370900	0.664200
C261	C26	0.229200	0.462800	0.884000
C271	C27	0.114000	0.483100	0.948000
C281	C28	0.101400	0.602200	0.018700
C291	C29	0.210700	0.714800	0.045600
C301	C30	0.012100	0.383000	0.931000
O11	O1	0.075500	0.905100	0.473400
O21	O2	0.078000	0.853700	0.292900
O31	O3	0.814500	0.787900	0.435300
O41	O4	0.691200	0.596900	0.367500
O51	O5	0.944800	0.237100	0.347500
O61	O6	0.165200	0.269600	0.354800
O71	O7	0.288600	0.388100	0.197500
O81	O8	0.395600	0.492800	0.369600
O91	O9	0.718700	0.446000	0.140700
O101	O10	0.734900	0.643300	0.144500
O111	O11	0.822700	0.193700	0.980000
O121	O12	0.673700	0.288300	0.906000
O131	O13	0.924500	0.094900	0.526600
O141	O14	0.922000	0.146300	0.707100
O151	O15	0.185500	0.212100	0.564700
O161	O16	0.308800	0.403100	0.632500
O171	O17	0.055200	0.762900	0.652500
O181	O18	0.834800	0.730400	0.645200
O191	O19	0.711400	0.611900	0.802500
O201	O20	0.604400	0.507200	0.630400
O211	O21	0.281300	0.554000	0.859300
O221	O22	0.265100	0.356700	0.855500
O231	O23	0.177300	0.806300	0.020000
O241	O24	0.326300	0.711700	0.094000
