data_GEZFIC_charged_PM
_symmetry_space_group_name_H-M	'P1'
_cell_length_a	15.510000
_cell_length_b	19.707000
_cell_length_c	19.707000
_cell_angle_alpha	90.000000
_cell_angle_beta	90.000000
_cell_angle_gamma	90.000000
_symmetry_Int_Tables_number 1

loop_
_symmetry_equiv_pos_as_xyz
'x,y,z'

loop_
_atom_site_label
_atom_site_type_symbol
_atom_site_fract_x
_atom_site_fract_y
_atom_site_fract_z
Zn11	Zn1	0.000000	0.750000	0.250000
Zn21	Zn2	0.000000	0.250000	0.750000
Zn31	Zn3	0.500000	0.250000	0.750000
Zn41	Zn4	0.500000	0.750000	0.250000
Zn51	Zn5	0.315630	0.750000	0.750000
Zn61	Zn6	0.184370	0.250000	0.250000
Zn71	Zn7	0.684370	0.250000	0.250000
Zn81	Zn8	0.815630	0.750000	0.750000
H11	H1	0.242400	0.737300	0.414500
H21	H2	0.155100	0.785500	0.332300
H31	H3	0.009800	0.620800	0.324800
H41	H4	0.091600	0.568600	0.407900
H51	H5	0.358500	0.586100	0.553400
H61	H6	0.392800	0.642400	0.652700
H71	H7	0.213800	0.779200	0.620500
H81	H8	0.170600	0.726600	0.521700
H91	H9	0.300100	0.530100	0.484000
H101	H10	0.242400	0.762700	0.085500
H111	H11	0.155100	0.714500	0.167700
H121	H12	0.009800	0.879200	0.175200
H131	H13	0.091600	0.931400	0.092100
H141	H14	0.358500	0.913900	0.946600
H151	H15	0.392800	0.857600	0.847300
H161	H16	0.213800	0.720800	0.879500
H171	H17	0.170600	0.773400	0.978300
H181	H18	0.300100	0.969900	0.016000
H191	H19	0.242400	0.085500	0.737300
H201	H20	0.155100	0.167700	0.785500
H211	H21	0.009800	0.175200	0.620800
H221	H22	0.091600	0.092100	0.568600
H231	H23	0.358500	0.946600	0.586100
H241	H24	0.392800	0.847300	0.642400
H251	H25	0.213800	0.879500	0.779200
H261	H26	0.170600	0.978300	0.726600
H271	H27	0.300100	0.016000	0.530100
H281	H28	0.242400	0.414500	0.762700
H291	H29	0.155100	0.332300	0.714500
H301	H30	0.009800	0.324800	0.879200
H311	H31	0.091600	0.407900	0.931400
H321	H32	0.358500	0.553400	0.913900
H331	H33	0.392800	0.652700	0.857600
H341	H34	0.213800	0.620500	0.720800
H351	H35	0.170600	0.521700	0.773400
H361	H36	0.300100	0.484000	0.969900
H371	H37	0.257600	0.262700	0.914500
H381	H38	0.344900	0.214500	0.832300
H391	H39	0.490200	0.379200	0.824800
H401	H40	0.408400	0.431400	0.907900
H411	H41	0.141500	0.413900	0.053400
H421	H42	0.107200	0.357600	0.152700
H431	H43	0.286200	0.220800	0.120500
H441	H44	0.329400	0.273400	0.021700
H451	H45	0.199900	0.469900	0.984000
H461	H46	0.257600	0.237300	0.585500
H471	H47	0.344900	0.285500	0.667700
H481	H48	0.490200	0.120800	0.675200
H491	H49	0.408400	0.068600	0.592100
H501	H50	0.141500	0.086100	0.446600
H511	H51	0.107200	0.142400	0.347300
H521	H52	0.286200	0.279200	0.379500
H531	H53	0.329400	0.226600	0.478300
H541	H54	0.199900	0.030100	0.516000
H551	H55	0.257600	0.914500	0.237300
H561	H56	0.344900	0.832300	0.285500
H571	H57	0.490200	0.824800	0.120800
H581	H58	0.408400	0.907900	0.068600
H591	H59	0.141500	0.053400	0.086100
H601	H60	0.107200	0.152700	0.142400
H611	H61	0.286200	0.120500	0.279200
H621	H62	0.329400	0.021700	0.226600
H631	H63	0.199900	0.984000	0.030100
H641	H64	0.257600	0.585500	0.262700
H651	H65	0.344900	0.667700	0.214500
H661	H66	0.490200	0.675200	0.379200
H671	H67	0.408400	0.592100	0.431400
H681	H68	0.141500	0.446600	0.413900
H691	H69	0.107200	0.347300	0.357600
H701	H70	0.286200	0.379500	0.220800
H711	H71	0.329400	0.478300	0.273400
H721	H72	0.199900	0.516000	0.469900
H731	H73	0.757600	0.262700	0.585500
H741	H74	0.844900	0.214500	0.667700
H751	H75	0.990200	0.379200	0.675200
H761	H76	0.908400	0.431400	0.592100
H771	H77	0.641500	0.413900	0.446600
H781	H78	0.607200	0.357600	0.347300
H791	H79	0.786200	0.220800	0.379500
H801	H80	0.829400	0.273400	0.478300
H811	H81	0.699900	0.469900	0.516000
H821	H82	0.757600	0.237300	0.914500
H831	H83	0.844900	0.285500	0.832300
H841	H84	0.990200	0.120800	0.824800
H851	H85	0.908400	0.068600	0.907900
H861	H86	0.641500	0.086100	0.053400
H871	H87	0.607200	0.142400	0.152700
H881	H88	0.786200	0.279200	0.120500
H891	H89	0.829400	0.226600	0.021700
H901	H90	0.699900	0.030100	0.984000
H911	H91	0.757600	0.914500	0.262700
H921	H92	0.844900	0.832300	0.214500
H931	H93	0.990200	0.824800	0.379200
H941	H94	0.908400	0.907900	0.431400
H951	H95	0.641500	0.053400	0.413900
H961	H96	0.607200	0.152700	0.357600
H971	H97	0.786200	0.120500	0.220800
H981	H98	0.829400	0.021700	0.273400
H991	H99	0.699900	0.984000	0.469900
H1001	H100	0.757600	0.585500	0.237300
H1011	H101	0.844900	0.667700	0.285500
H1021	H102	0.990200	0.675200	0.120800
H1031	H103	0.908400	0.592100	0.068600
H1041	H104	0.641500	0.446600	0.086100
H1051	H105	0.607200	0.347300	0.142400
H1061	H106	0.786200	0.379500	0.279200
H1071	H107	0.829400	0.478300	0.226600
H1081	H108	0.699900	0.516000	0.030100
H1091	H109	0.742400	0.737300	0.085500
H1101	H110	0.655100	0.785500	0.167700
H1111	H111	0.509800	0.620800	0.175200
H1121	H112	0.591600	0.568600	0.092100
H1131	H113	0.858500	0.586100	0.946600
H1141	H114	0.892800	0.642400	0.847300
H1151	H115	0.713800	0.779200	0.879500
H1161	H116	0.670600	0.726600	0.978300
H1171	H117	0.800100	0.530100	0.016000
H1181	H118	0.742400	0.762700	0.414500
H1191	H119	0.655100	0.714500	0.332300
H1201	H120	0.509800	0.879200	0.324800
H1211	H121	0.591600	0.931400	0.407900
H1221	H122	0.858500	0.913900	0.553400
H1231	H123	0.892800	0.857600	0.652700
H1241	H124	0.713800	0.720800	0.620500
H1251	H125	0.670600	0.773400	0.521700
H1261	H126	0.800100	0.969900	0.484000
H1271	H127	0.742400	0.085500	0.762700
H1281	H128	0.655100	0.167700	0.714500
H1291	H129	0.509800	0.175200	0.879200
H1301	H130	0.591600	0.092100	0.931400
H1311	H131	0.858500	0.946600	0.913900
H1321	H132	0.892800	0.847300	0.857600
H1331	H133	0.713800	0.879500	0.720800
H1341	H134	0.670600	0.978300	0.773400
H1351	H135	0.800100	0.016000	0.969900
H1361	H136	0.742400	0.414500	0.737300
H1371	H137	0.655100	0.332300	0.785500
H1381	H138	0.509800	0.324800	0.620800
H1391	H139	0.591600	0.407900	0.568600
H1401	H140	0.858500	0.553400	0.586100
H1411	H141	0.892800	0.652700	0.642400
H1421	H142	0.713800	0.620500	0.779200
H1431	H143	0.670600	0.521700	0.726600
H1441	H144	0.800100	0.484000	0.530100
C11	C1	0.194630	0.712700	0.396990
C21	C2	0.142610	0.740940	0.347900
C31	C3	0.057340	0.644590	0.343670
C41	C4	0.105860	0.613060	0.393000
C51	C5	0.176260	0.647290	0.420840
C61	C6	0.258720	0.648850	0.526050
C71	C7	0.326680	0.625190	0.566490
C81	C8	0.346870	0.659390	0.625670
C91	C9	0.242420	0.738740	0.607110
C101	C10	0.216480	0.708010	0.547670
C111	C11	0.194630	0.787300	0.103010
C121	C12	0.142610	0.759060	0.152100
C131	C13	0.057340	0.855410	0.156330
C141	C14	0.105860	0.886940	0.107000
C151	C15	0.176260	0.852710	0.079160
C161	C16	0.258720	0.851150	0.973950
C171	C17	0.326680	0.874810	0.933510
C181	C18	0.346870	0.840610	0.874330
C191	C19	0.242420	0.761260	0.892890
C201	C20	0.216480	0.791990	0.952330
C211	C21	0.194630	0.103010	0.712700
C221	C22	0.142610	0.152100	0.740940
C231	C23	0.057340	0.156330	0.644590
C241	C24	0.105860	0.107000	0.613060
C251	C25	0.176260	0.079160	0.647290
C261	C26	0.258720	0.973950	0.648850
C271	C27	0.326680	0.933510	0.625190
C281	C28	0.346870	0.874330	0.659390
C291	C29	0.242420	0.892890	0.738740
C301	C30	0.216480	0.952330	0.708010
C311	C31	0.194630	0.396990	0.787300
C321	C32	0.142610	0.347900	0.759060
C331	C33	0.057340	0.343670	0.855410
C341	C34	0.105860	0.393000	0.886940
C351	C35	0.176260	0.420840	0.852710
C361	C36	0.258720	0.526050	0.851150
C371	C37	0.326680	0.566490	0.874810
C381	C38	0.346870	0.625670	0.840610
C391	C39	0.242420	0.607110	0.761260
C401	C40	0.216480	0.547670	0.791990
C411	C41	0.305370	0.287300	0.896990
C421	C42	0.357390	0.259060	0.847900
C431	C43	0.442660	0.355410	0.843670
C441	C44	0.394140	0.386940	0.893000
C451	C45	0.323740	0.352710	0.920840
C461	C46	0.241280	0.351150	0.026050
C471	C47	0.173320	0.374810	0.066490
C481	C48	0.153130	0.340610	0.125670
C491	C49	0.257580	0.261260	0.107110
C501	C50	0.283520	0.291990	0.047670
C511	C51	0.305370	0.212700	0.603010
C521	C52	0.357390	0.240940	0.652100
C531	C53	0.442660	0.144590	0.656330
C541	C54	0.394140	0.113060	0.607000
C551	C55	0.323740	0.147290	0.579160
C561	C56	0.241280	0.148850	0.473950
C571	C57	0.173320	0.125190	0.433510
C581	C58	0.153130	0.159390	0.374330
C591	C59	0.257580	0.238740	0.392890
C601	C60	0.283520	0.208010	0.452330
C611	C61	0.305370	0.896990	0.212700
C621	C62	0.357390	0.847900	0.240940
C631	C63	0.442660	0.843670	0.144590
C641	C64	0.394140	0.893000	0.113060
C651	C65	0.323740	0.920840	0.147290
C661	C66	0.241280	0.026050	0.148850
C671	C67	0.173320	0.066490	0.125190
C681	C68	0.153130	0.125670	0.159390
C691	C69	0.257580	0.107110	0.238740
C701	C70	0.283520	0.047670	0.208010
C711	C71	0.305370	0.603010	0.287300
C721	C72	0.357390	0.652100	0.259060
C731	C73	0.442660	0.656330	0.355410
C741	C74	0.394140	0.607000	0.386940
C751	C75	0.323740	0.579160	0.352710
C761	C76	0.241280	0.473950	0.351150
C771	C77	0.173320	0.433510	0.374810
C781	C78	0.153130	0.374330	0.340610
C791	C79	0.257580	0.392890	0.261260
C801	C80	0.283520	0.452330	0.291990
C811	C81	0.805370	0.287300	0.603010
C821	C82	0.857390	0.259060	0.652100
C831	C83	0.942660	0.355410	0.656330
C841	C84	0.894140	0.386940	0.607000
C851	C85	0.823740	0.352710	0.579160
C861	C86	0.741280	0.351150	0.473950
C871	C87	0.673320	0.374810	0.433510
C881	C88	0.653130	0.340610	0.374330
C891	C89	0.757580	0.261260	0.392890
C901	C90	0.783520	0.291990	0.452330
C911	C91	0.805370	0.212700	0.896990
C921	C92	0.857390	0.240940	0.847900
C931	C93	0.942660	0.144590	0.843670
C941	C94	0.894140	0.113060	0.893000
C951	C95	0.823740	0.147290	0.920840
C961	C96	0.741280	0.148850	0.026050
C971	C97	0.673320	0.125190	0.066490
C981	C98	0.653130	0.159390	0.125670
C991	C99	0.757580	0.238740	0.107110
C1001	C100	0.783520	0.208010	0.047670
C1011	C101	0.805370	0.896990	0.287300
C1021	C102	0.857390	0.847900	0.259060
C1031	C103	0.942660	0.843670	0.355410
C1041	C104	0.894140	0.893000	0.386940
C1051	C105	0.823740	0.920840	0.352710
C1061	C106	0.741280	0.026050	0.351150
C1071	C107	0.673320	0.066490	0.374810
C1081	C108	0.653130	0.125670	0.340610
C1091	C109	0.757580	0.107110	0.261260
C1101	C110	0.783520	0.047670	0.291990
C1111	C111	0.805370	0.603010	0.212700
C1121	C112	0.857390	0.652100	0.240940
C1131	C113	0.942660	0.656330	0.144590
C1141	C114	0.894140	0.607000	0.113060
C1151	C115	0.823740	0.579160	0.147290
C1161	C116	0.741280	0.473950	0.148850
C1171	C117	0.673320	0.433510	0.125190
C1181	C118	0.653130	0.374330	0.159390
C1191	C119	0.757580	0.392890	0.238740
C1201	C120	0.783520	0.452330	0.208010
C1211	C121	0.694630	0.712700	0.103010
C1221	C122	0.642610	0.740940	0.152100
C1231	C123	0.557340	0.644590	0.156330
C1241	C124	0.605860	0.613060	0.107000
C1251	C125	0.676260	0.647290	0.079160
C1261	C126	0.758720	0.648850	0.973950
C1271	C127	0.826680	0.625190	0.933510
C1281	C128	0.846870	0.659390	0.874330
C1291	C129	0.742420	0.738740	0.892890
C1301	C130	0.716480	0.708010	0.952330
C1311	C131	0.694630	0.787300	0.396990
C1321	C132	0.642610	0.759060	0.347900
C1331	C133	0.557340	0.855410	0.343670
C1341	C134	0.605860	0.886940	0.393000
C1351	C135	0.676260	0.852710	0.420840
C1361	C136	0.758720	0.851150	0.526050
C1371	C137	0.826680	0.874810	0.566490
C1381	C138	0.846870	0.840610	0.625670
C1391	C139	0.742420	0.761260	0.607110
C1401	C140	0.716480	0.791990	0.547670
C1411	C141	0.694630	0.103010	0.787300
C1421	C142	0.642610	0.152100	0.759060
C1431	C143	0.557340	0.156330	0.855410
C1441	C144	0.605860	0.107000	0.886940
C1451	C145	0.676260	0.079160	0.852710
C1461	C146	0.758720	0.973950	0.851150
C1471	C147	0.826680	0.933510	0.874810
C1481	C148	0.846870	0.874330	0.840610
C1491	C149	0.742420	0.892890	0.761260
C1501	C150	0.716480	0.952330	0.791990
C1511	C151	0.694630	0.396990	0.712700
C1521	C152	0.642610	0.347900	0.740940
C1531	C153	0.557340	0.343670	0.644590
C1541	C154	0.605860	0.393000	0.613060
C1551	C155	0.676260	0.420840	0.647290
C1561	C156	0.758720	0.526050	0.648850
C1571	C157	0.826680	0.566490	0.625190
C1581	C158	0.846870	0.625670	0.659390
C1591	C159	0.742420	0.607110	0.738740
C1601	C160	0.716480	0.547670	0.708010
C1611	C161	0.250000	0.543900	0.456100
C1621	C162	0.250000	0.956100	0.043900
C1631	C163	0.250000	0.043900	0.543900
C1641	C164	0.250000	0.456100	0.956100
C1651	C165	0.750000	0.456100	0.543900
C1661	C166	0.750000	0.043900	0.956100
C1671	C167	0.750000	0.956100	0.456100
C1681	C168	0.750000	0.543900	0.043900
N11	N1	0.074420	0.707620	0.321010
N21	N2	0.231020	0.615210	0.467860
N31	N3	0.305310	0.715250	0.647110
N41	N4	0.074420	0.792380	0.178990
N51	N5	0.231020	0.884790	0.032140
N61	N6	0.305310	0.784750	0.852890
N71	N7	0.074420	0.178990	0.707620
N81	N8	0.231020	0.032140	0.615210
N91	N9	0.305310	0.852890	0.715250
N101	N10	0.074420	0.321010	0.792380
N111	N11	0.231020	0.467860	0.884790
N121	N12	0.305310	0.647110	0.784750
N131	N13	0.425580	0.292380	0.821010
N141	N14	0.268980	0.384790	0.967860
N151	N15	0.194690	0.284750	0.147110
N161	N16	0.425580	0.207620	0.678990
N171	N17	0.268980	0.115210	0.532140
N181	N18	0.194690	0.215250	0.352890
N191	N19	0.425580	0.821010	0.207620
N201	N20	0.268980	0.967860	0.115210
N211	N21	0.194690	0.147110	0.215250
N221	N22	0.425580	0.678990	0.292380
N231	N23	0.268980	0.532140	0.384790
N241	N24	0.194690	0.352890	0.284750
N251	N25	0.925580	0.292380	0.678990
N261	N26	0.768980	0.384790	0.532140
N271	N27	0.694690	0.284750	0.352890
N281	N28	0.925580	0.207620	0.821010
N291	N29	0.768980	0.115210	0.967860
N301	N30	0.694690	0.215250	0.147110
N311	N31	0.925580	0.821010	0.292380
N321	N32	0.768980	0.967860	0.384790
N331	N33	0.694690	0.147110	0.284750
N341	N34	0.925580	0.678990	0.207620
N351	N35	0.768980	0.532140	0.115210
N361	N36	0.694690	0.352890	0.215250
N371	N37	0.574420	0.707620	0.178990
N381	N38	0.731020	0.615210	0.032140
N391	N39	0.805310	0.715250	0.852890
N401	N40	0.574420	0.792380	0.321010
N411	N41	0.731020	0.884790	0.467860
N421	N42	0.805310	0.784750	0.647110
N431	N43	0.574420	0.178990	0.792380
N441	N44	0.731020	0.032140	0.884790
N451	N45	0.805310	0.852890	0.784750
N461	N46	0.574420	0.321010	0.707620
N471	N47	0.731020	0.467860	0.615210
N481	N48	0.805310	0.647110	0.715250
O11	O1	0.449200	0.750000	0.750000
O21	O2	0.169000	0.750000	0.750000
O31	O3	0.050800	0.250000	0.250000
O41	O4	0.331000	0.250000	0.250000
O51	O5	0.550800	0.250000	0.250000
O61	O6	0.831000	0.250000	0.250000
O71	O7	0.949200	0.750000	0.750000
O81	O8	0.669000	0.750000	0.750000
N491	N49	0.565900	0.290960	0.979300
O91	O9	0.621000	0.297460	0.911000
O101	O10	0.507300	0.251160	0.984300
O111	O11	0.568700	0.351260	0.013500
N501	N50	0.565900	0.209040	0.520700
O121	O12	0.621000	0.202540	0.589000
O131	O13	0.507300	0.248840	0.515700
O141	O14	0.568700	0.148740	0.486500
N511	N51	0.565900	0.520700	0.290960
O151	O15	0.621000	0.589000	0.297460
O161	O16	0.507300	0.515700	0.251160
O171	O17	0.568700	0.486500	0.351260
N521	N52	0.565900	0.979300	0.209040
O181	O18	0.621000	0.911000	0.202540
O191	O19	0.507300	0.984300	0.248840
O201	O20	0.568700	0.013500	0.148740
N531	N53	0.934100	0.709040	0.479300
O211	O21	0.879000	0.702540	0.411000
O221	O22	0.992700	0.748840	0.484300
O231	O23	0.931300	0.648740	0.513500
N541	N54	0.934100	0.790960	0.020700
O241	O24	0.879000	0.797460	0.089000
O251	O25	0.992700	0.751160	0.015700
O261	O26	0.931300	0.851260	0.986500
N551	N55	0.934100	0.479300	0.790960
O271	O27	0.879000	0.411000	0.797460
O281	O28	0.992700	0.484300	0.751160
O291	O29	0.931300	0.513500	0.851260
N561	N56	0.934100	0.020700	0.709040
O301	O30	0.879000	0.089000	0.702540
O311	O31	0.992700	0.015700	0.748840
O321	O32	0.931300	0.986500	0.648740
N571	N57	0.434100	0.709040	0.020700
O331	O33	0.379000	0.702540	0.089000
O341	O34	0.492700	0.748840	0.015700
O351	O35	0.431300	0.648740	0.986500
N581	N58	0.434100	0.790960	0.479300
O361	O36	0.379000	0.797460	0.411000
O371	O37	0.492700	0.751160	0.484300
O381	O38	0.431300	0.851260	0.513500
N591	N59	0.434100	0.479300	0.709040
O391	O39	0.379000	0.411000	0.702540
O401	O40	0.492700	0.484300	0.748840
O411	O41	0.431300	0.513500	0.648740
N601	N60	0.434100	0.020700	0.790960
O421	O42	0.379000	0.089000	0.797460
O431	O43	0.492700	0.015700	0.751160
O441	O44	0.431300	0.986500	0.851260
N611	N61	0.065900	0.290960	0.520700
O451	O45	0.121000	0.297460	0.589000
O461	O46	0.007300	0.251160	0.515700
O471	O47	0.068700	0.351260	0.486500
N621	N62	0.065900	0.209040	0.979300
O481	O48	0.121000	0.202540	0.911000
O491	O49	0.007300	0.248840	0.984300
O501	O50	0.068700	0.148740	0.013500
N631	N63	0.065900	0.520700	0.209040
O511	O51	0.121000	0.589000	0.202540
O521	O52	0.007300	0.515700	0.248840
O531	O53	0.068700	0.486500	0.148740
N641	N64	0.065900	0.979300	0.290960
O541	O54	0.121000	0.911000	0.297460
O551	O55	0.007300	0.984300	0.251160
O561	O56	0.068700	0.013500	0.351260
