data_GIFFAE_clean_PM
_symmetry_space_group_name_H-M	'P1'
_cell_length_a	12.774800
_cell_length_b	12.797600
_cell_length_c	13.331700
_cell_angle_alpha	90.000000
_cell_angle_beta	90.000000
_cell_angle_gamma	90.000000
_symmetry_Int_Tables_number 1

loop_
_symmetry_equiv_pos_as_xyz
'x,y,z'

loop_
_atom_site_label
_atom_site_type_symbol
_atom_site_fract_x
_atom_site_fract_y
_atom_site_fract_z
Sm11	Sm1	0.542600	0.210700	0.254200
Sm21	Sm2	0.539700	0.708100	0.094800
Sm31	Sm3	0.042600	0.789300	0.245800
Sm41	Sm4	0.039700	0.291900	0.405200
Sm51	Sm5	0.957400	0.710700	0.745800
Sm61	Sm6	0.960300	0.208100	0.905200
Sm71	Sm7	0.457400	0.289300	0.754200
Sm81	Sm8	0.460300	0.791900	0.594800
C11	C1	0.700000	0.250000	0.947000
C21	C2	0.619000	0.254000	0.010000
C31	C3	0.714000	0.264000	0.836000
C41	C4	0.502000	0.264000	0.011000
C51	C5	0.492000	0.752000	0.343000
C61	C6	0.526000	0.965000	0.178000
C71	C7	0.509000	0.947000	0.287000
C81	C8	0.496000	0.864000	0.351000
C91	C9	0.200000	0.750000	0.553000
C101	C10	0.119000	0.746000	0.490000
C111	C11	0.214000	0.736000	0.664000
C121	C12	0.002000	0.736000	0.489000
C131	C13	0.992000	0.248000	0.157000
C141	C14	0.026000	0.035000	0.322000
C151	C15	0.009000	0.053000	0.213000
C161	C16	0.996000	0.136000	0.149000
C171	C17	0.800000	0.750000	0.053000
C181	C18	0.881000	0.754000	0.990000
C191	C19	0.786000	0.764000	0.164000
C201	C20	0.998000	0.764000	0.989000
C211	C21	0.008000	0.252000	0.657000
C221	C22	0.974000	0.465000	0.822000
C231	C23	0.991000	0.447000	0.713000
C241	C24	0.004000	0.364000	0.649000
C251	C25	0.300000	0.250000	0.447000
C261	C26	0.381000	0.246000	0.510000
C271	C27	0.286000	0.236000	0.336000
C281	C28	0.498000	0.236000	0.511000
C291	C29	0.508000	0.748000	0.843000
C301	C30	0.474000	0.535000	0.678000
C311	C31	0.491000	0.553000	0.787000
C321	C32	0.504000	0.636000	0.851000
N11	N1	0.793000	0.231000	0.997000
N21	N2	0.765000	0.228000	0.098000
N31	N3	0.663000	0.241000	0.107000
N41	N4	0.508000	0.038000	0.345000
N51	N5	0.494000	0.014000	0.439000
N61	N6	0.491000	0.909000	0.441000
N71	N7	0.293000	0.769000	0.503000
N81	N8	0.265000	0.772000	0.402000
N91	N9	0.163000	0.759000	0.393000
N101	N10	0.008000	0.962000	0.155000
N111	N11	0.994000	0.986000	0.061000
N121	N12	0.991000	0.091000	0.059000
N131	N13	0.707000	0.731000	0.003000
N141	N14	0.735000	0.728000	0.902000
N151	N15	0.837000	0.741000	0.893000
N161	N16	0.992000	0.538000	0.655000
N171	N17	0.006000	0.514000	0.561000
N181	N18	0.009000	0.409000	0.559000
N191	N19	0.207000	0.269000	0.497000
N201	N20	0.235000	0.272000	0.598000
N211	N21	0.337000	0.259000	0.607000
N221	N22	0.492000	0.462000	0.845000
N231	N23	0.506000	0.486000	0.939000
N241	N24	0.509000	0.591000	0.941000
O11	O1	0.804000	0.243000	0.800000
O21	O2	0.637000	0.290000	0.785000
O31	O3	0.459000	0.267000	0.095000
O41	O4	0.453000	0.255000	0.928000
O51	O5	0.532000	0.057000	0.147000
O61	O6	0.527000	0.886000	0.121000
O71	O7	0.492000	0.704000	0.431000
O81	O8	0.486000	0.706000	0.262000
O91	O9	0.304000	0.757000	0.700000
O101	O10	0.137000	0.710000	0.715000
O111	O11	0.959000	0.733000	0.405000
O121	O12	0.953000	0.745000	0.572000
O131	O13	0.032000	0.943000	0.353000
O141	O14	0.027000	0.114000	0.379000
O151	O15	0.992000	0.296000	0.069000
O161	O16	0.986000	0.294000	0.238000
O171	O17	0.696000	0.743000	0.200000
O181	O18	0.863000	0.790000	0.215000
O191	O19	0.041000	0.767000	0.905000
O201	O20	0.047000	0.755000	0.072000
O211	O21	0.968000	0.557000	0.853000
O221	O22	0.973000	0.386000	0.879000
O231	O23	0.008000	0.204000	0.569000
O241	O24	0.014000	0.206000	0.738000
O251	O25	0.196000	0.257000	0.300000
O261	O26	0.363000	0.210000	0.285000
O271	O27	0.541000	0.233000	0.595000
O281	O28	0.547000	0.245000	0.428000
O291	O29	0.468000	0.443000	0.647000
O301	O30	0.473000	0.614000	0.621000
O311	O31	0.508000	0.796000	0.931000
O321	O32	0.514000	0.794000	0.762000
