data_GIFKEL_clean_PM
_symmetry_space_group_name_H-M	'P1'
_cell_length_a	9.540000
_cell_length_b	7.611000
_cell_length_c	7.120000
_cell_angle_alpha	90.000000
_cell_angle_beta	100.950000
_cell_angle_gamma	90.000000
_symmetry_Int_Tables_number 1

loop_
_symmetry_equiv_pos_as_xyz
'x,y,z'

loop_
_atom_site_label
_atom_site_type_symbol
_atom_site_fract_x
_atom_site_fract_y
_atom_site_fract_z
N11	N1	0.062200	0.220900	0.230200
C11	C1	0.040500	0.327300	0.334000
H11	H1	0.287000	0.080000	0.022000
H21	H2	0.200000	0.101000	0.677000
H31	H3	0.474000	0.106000	0.808000
H41	H4	0.363000	0.106000	0.431000
N21	N2	0.937800	0.220900	0.769800
C21	C2	0.959500	0.327300	0.666000
H51	H5	0.713000	0.080000	0.978000
H61	H6	0.800000	0.101000	0.323000
H71	H7	0.526000	0.106000	0.192000
H81	H8	0.637000	0.106000	0.569000
N31	N3	0.937800	0.779100	0.769800
C31	C3	0.959500	0.672700	0.666000
H91	H9	0.713000	0.920000	0.978000
H101	H10	0.800000	0.899000	0.323000
H111	H11	0.526000	0.894000	0.192000
H121	H12	0.637000	0.894000	0.569000
N41	N4	0.062200	0.779100	0.230200
C41	C4	0.040500	0.672700	0.334000
H131	H13	0.287000	0.920000	0.022000
H141	H14	0.200000	0.899000	0.677000
H151	H15	0.474000	0.894000	0.808000
H161	H16	0.363000	0.894000	0.431000
Cd11	Cd1	0.000000	0.000000	0.000000
Ni11	Ni1	0.000000	0.500000	0.500000
N51	N5	0.229700	0.000000	0.940200
C51	C5	0.252200	0.000000	0.741900
C61	C6	0.406600	0.000000	0.721000
C71	C7	0.422700	0.000000	0.511200
N61	N6	0.770300	0.000000	0.059800
C81	C8	0.747800	0.000000	0.258100
C91	C9	0.593400	0.000000	0.279000
C101	C10	0.577300	0.000000	0.488800
