data_GIGWID01_clean_PM
_symmetry_space_group_name_H-M	'P1'
_cell_length_a	8.919300
_cell_length_b	12.126800
_cell_length_c	16.734100
_cell_angle_alpha	90.000000
_cell_angle_beta	90.000000
_cell_angle_gamma	109.184000
_symmetry_Int_Tables_number 1

loop_
_symmetry_equiv_pos_as_xyz
'x,y,z'

loop_
_atom_site_label
_atom_site_type_symbol
_atom_site_fract_x
_atom_site_fract_y
_atom_site_fract_z
Pr11	Pr1	0.931680	0.951750	0.383290
Pr21	Pr2	0.431680	0.951750	0.116710
Pr31	Pr3	0.568320	0.048250	0.883290
Pr41	Pr4	0.068320	0.048250	0.616710
H11	H1	0.318700	0.643300	0.101100
H21	H2	0.902300	0.349100	0.692300
H31	H3	0.412600	0.723000	0.321700
H41	H4	0.818700	0.643300	0.398900
H51	H5	0.402300	0.349100	0.807700
H61	H6	0.509700	0.664300	0.926900
H71	H7	0.528900	0.717300	0.568800
H81	H8	0.204400	0.504700	0.414500
H91	H9	0.092500	0.526500	0.724300
H101	H10	0.471100	0.282700	0.431200
H111	H11	0.028900	0.717300	0.931200
H121	H12	0.826600	0.816100	0.166300
H131	H13	0.597700	0.650900	0.192300
H141	H14	0.880900	0.364000	0.035200
H151	H15	0.326600	0.816100	0.333700
H161	H16	0.876200	0.859800	0.989400
H171	H17	0.704400	0.504700	0.085500
H181	H18	0.795600	0.495300	0.585500
H191	H19	0.742400	0.794700	0.928900
H201	H20	0.907500	0.473500	0.275700
H211	H21	0.087400	0.277000	0.821700
H221	H22	0.587400	0.277000	0.678300
H231	H23	0.372600	0.532500	0.568300
H241	H24	0.097700	0.650900	0.307700
H251	H25	0.257600	0.205300	0.071100
H261	H26	0.990300	0.335700	0.426900
H271	H27	0.592500	0.526500	0.775700
H281	H28	0.757600	0.205300	0.428900
H291	H29	0.490300	0.335700	0.073100
H301	H30	0.123800	0.140200	0.010600
H311	H31	0.242400	0.794700	0.571100
H321	H32	0.872600	0.532500	0.931700
H331	H33	0.912600	0.723000	0.178300
H341	H34	0.119100	0.636000	0.964800
H351	H35	0.407500	0.473500	0.224300
H361	H36	0.623800	0.140200	0.489400
H371	H37	0.376200	0.859800	0.510600
H381	H38	0.627400	0.467500	0.431700
H391	H39	0.295600	0.495300	0.914500
H401	H40	0.971100	0.282700	0.068800
H411	H41	0.009700	0.664300	0.573100
H421	H42	0.681300	0.356700	0.898900
H431	H43	0.181300	0.356700	0.601100
H441	H44	0.173400	0.183900	0.833700
H451	H45	0.673400	0.183900	0.666300
H461	H46	0.127400	0.467500	0.068300
H471	H47	0.380900	0.364000	0.464800
H481	H48	0.619100	0.636000	0.535200
C11	C1	0.630400	0.601500	0.007180
C21	C2	0.267900	0.801100	0.941050
C31	C3	0.620300	0.504500	0.383830
C41	C4	0.269300	0.804900	0.514900
C51	C5	0.876300	0.304500	0.074690
C61	C6	0.656600	0.855700	0.026120
C71	C7	0.396900	0.385600	0.759410
C81	C8	0.879700	0.495500	0.883830
C91	C9	0.276000	0.335600	0.706350
C101	C10	0.120300	0.504500	0.116170
C111	C11	0.506400	0.598400	0.956230
C121	C12	0.623700	0.695500	0.574690
C131	C13	0.776000	0.335600	0.793650
C141	C14	0.369600	0.398500	0.992820
C151	C15	0.989000	0.508500	0.239890
C161	C16	0.493600	0.401600	0.043770
C171	C17	0.011000	0.491500	0.760110
C181	C18	0.232100	0.198900	0.441050
C191	C19	0.734600	0.609700	0.364200
C201	C20	0.900100	0.793600	0.200030
C211	C21	0.376300	0.304500	0.425310
C221	C22	0.006400	0.598400	0.543770
C231	C23	0.995700	0.454800	0.167950
C241	C24	0.377900	0.497100	0.949170
C251	C25	0.877900	0.497100	0.550830
C261	C26	0.767900	0.801100	0.558950
C271	C27	0.379700	0.495500	0.616170
C281	C28	0.234600	0.609700	0.135800
C291	C29	0.896900	0.385600	0.740590
C301	C30	0.099900	0.206400	0.799970
C311	C31	0.230700	0.195100	0.014900
C321	C32	0.599900	0.206400	0.700030
C331	C33	0.489000	0.508500	0.260110
C341	C34	0.603100	0.614400	0.240590
C351	C35	0.400100	0.793600	0.299970
C361	C36	0.993600	0.401600	0.456230
C371	C37	0.265400	0.390300	0.635800
C381	C38	0.103100	0.614400	0.259410
C391	C39	0.343400	0.144300	0.973880
C401	C40	0.224000	0.664400	0.206350
C411	C41	0.843400	0.144300	0.526120
C421	C42	0.511000	0.491500	0.739890
C431	C43	0.732100	0.198900	0.058950
C441	C44	0.130400	0.601500	0.492820
C451	C45	0.156600	0.855700	0.473880
C461	C46	0.057800	0.889600	0.201850
C471	C47	0.730700	0.195100	0.485100
C481	C48	0.504300	0.545200	0.667950
C491	C49	0.622100	0.502900	0.050830
C501	C50	0.869600	0.398500	0.507180
C511	C51	0.122100	0.502900	0.449170
C521	C52	0.557800	0.889600	0.298150
C531	C53	0.123700	0.695500	0.925310
C541	C54	0.769300	0.804900	0.985100
C551	C55	0.442200	0.110400	0.701850
C561	C56	0.765400	0.390300	0.864200
C571	C57	0.942200	0.110400	0.798150
C581	C58	0.724000	0.664400	0.293650
C591	C59	0.495700	0.454800	0.332050
C601	C60	0.004300	0.545200	0.832050
O11	O1	0.096700	0.817970	0.408350
O21	O2	0.799200	0.817560	0.486380
O31	O3	0.631400	0.941560	0.992690
O41	O4	0.908700	0.046270	0.737180
O51	O5	0.839300	0.772920	0.279980
O61	O6	0.299200	0.817560	0.013620
O71	O7	0.160000	0.136560	0.384170
O81	O8	0.903300	0.182030	0.591650
O91	O9	0.660000	0.136560	0.115830
O101	O10	0.766400	0.695980	0.017490
O111	O11	0.374500	0.351390	0.347770
O121	O12	0.339300	0.772920	0.220020
O131	O13	0.340000	0.863440	0.884170
O141	O14	0.403300	0.182030	0.908350
O151	O15	0.091300	0.953730	0.262820
O161	O16	0.368600	0.058440	0.007310
O171	O17	0.625500	0.648610	0.652230
O181	O18	0.131400	0.941560	0.507310
O191	O19	0.660700	0.227080	0.779980
O201	O20	0.356000	0.099900	0.642270
O211	O21	0.856000	0.099900	0.857730
O221	O22	0.868600	0.058440	0.492690
O231	O23	0.596700	0.817970	0.091650
O241	O24	0.233600	0.304020	0.982510
O251	O25	0.125500	0.648610	0.847770
O261	O26	0.840000	0.863440	0.615830
O271	O27	0.266400	0.695980	0.482510
O281	O28	0.200800	0.182440	0.513620
O291	O29	0.733600	0.304020	0.517490
O301	O30	0.644000	0.900100	0.357730
O311	O31	0.700800	0.182440	0.986380
O321	O32	0.874500	0.351390	0.152230
O331	O33	0.144000	0.900100	0.142270
O341	O34	0.591300	0.953730	0.237180
O351	O35	0.408700	0.046270	0.762820
O361	O36	0.160700	0.227080	0.720020
