data_GIHPEU_clean_PM
_symmetry_space_group_name_H-M	'P1'
_cell_length_a	13.687200
_cell_length_b	13.687200
_cell_length_c	13.687200
_cell_angle_alpha	102.290000
_cell_angle_beta	102.290000
_cell_angle_gamma	102.290000
_symmetry_Int_Tables_number 1

loop_
_symmetry_equiv_pos_as_xyz
'x,y,z'

loop_
_atom_site_label
_atom_site_type_symbol
_atom_site_fract_x
_atom_site_fract_y
_atom_site_fract_z
Co11	Co1	0.883310	0.116690	0.500000
Co21	Co2	0.500000	0.883310	0.116690
Co31	Co3	0.116690	0.500000	0.883310
H11	H1	0.866200	0.408200	0.316900
H21	H2	0.879000	0.325300	0.627300
H31	H3	0.900700	0.910800	0.377400
H41	H4	0.823700	0.806200	0.654700
H51	H5	0.858500	0.485200	0.615700
H61	H6	0.856200	0.582100	0.387900
H71	H7	0.837600	0.974500	0.644400
H81	H8	0.888600	0.740800	0.379200
H91	H9	0.883900	0.248800	0.336800
H101	H10	0.850500	0.634800	0.590800
H111	H11	0.316900	0.866200	0.408200
H121	H12	0.627300	0.879000	0.325300
H131	H13	0.377400	0.900700	0.910800
H141	H14	0.654700	0.823700	0.806200
H151	H15	0.615700	0.858500	0.485200
H161	H16	0.387900	0.856200	0.582100
H171	H17	0.644400	0.837600	0.974500
H181	H18	0.379200	0.888600	0.740800
H191	H19	0.336800	0.883900	0.248800
H201	H20	0.590800	0.850500	0.634800
H211	H21	0.408200	0.316900	0.866200
H221	H22	0.325300	0.627300	0.879000
H231	H23	0.910800	0.377400	0.900700
H241	H24	0.806200	0.654700	0.823700
H251	H25	0.485200	0.615700	0.858500
H261	H26	0.582100	0.387900	0.856200
H271	H27	0.974500	0.644400	0.837600
H281	H28	0.740800	0.379200	0.888600
H291	H29	0.248800	0.336800	0.883900
H301	H30	0.634800	0.590800	0.850500
H311	H31	0.591800	0.133800	0.683100
H321	H32	0.674700	0.121000	0.372700
H331	H33	0.089200	0.099300	0.622600
H341	H34	0.193800	0.176300	0.345300
H351	H35	0.514800	0.141500	0.384300
H361	H36	0.417900	0.143800	0.612100
H371	H37	0.025500	0.162400	0.355600
H381	H38	0.259200	0.111400	0.620800
H391	H39	0.751200	0.116100	0.663200
H401	H40	0.365200	0.149500	0.409200
H411	H41	0.133800	0.683100	0.591800
H421	H42	0.121000	0.372700	0.674700
H431	H43	0.099300	0.622600	0.089200
H441	H44	0.176300	0.345300	0.193800
H451	H45	0.141500	0.384300	0.514800
H461	H46	0.143800	0.612100	0.417900
H471	H47	0.162400	0.355600	0.025500
H481	H48	0.111400	0.620800	0.259200
H491	H49	0.116100	0.663200	0.751200
H501	H50	0.149500	0.409200	0.365200
H511	H51	0.683100	0.591800	0.133800
H521	H52	0.372700	0.674700	0.121000
H531	H53	0.622600	0.089200	0.099300
H541	H54	0.345300	0.193800	0.176300
H551	H55	0.384300	0.514800	0.141500
H561	H56	0.612100	0.417900	0.143800
H571	H57	0.355600	0.025500	0.162400
H581	H58	0.620800	0.259200	0.111400
H591	H59	0.663200	0.751200	0.116100
H601	H60	0.409200	0.365200	0.149500
W11	W1	0.000000	0.206640	0.793360
W21	W2	0.793360	0.000000	0.206640
W31	W3	0.206640	0.793360	0.000000
C11	C1	0.869000	0.393500	0.381300
C21	C2	0.876300	0.342200	0.563900
C31	C3	0.857300	0.753700	0.518500
C41	C4	0.885400	0.889400	0.434500
C51	C5	0.840400	0.825700	0.597200
C61	C6	0.864800	0.438600	0.557600
C71	C7	0.862500	0.466900	0.465300
C81	C8	0.857500	0.570700	0.453500
C91	C9	0.848500	0.926500	0.590300
C101	C10	0.878600	0.787200	0.435200
C111	C11	0.879500	0.297900	0.394100
C121	C12	0.854600	0.648000	0.527000
C131	C13	0.381300	0.869000	0.393500
C141	C14	0.563900	0.876300	0.342200
C151	C15	0.518500	0.857300	0.753700
C161	C16	0.434500	0.885400	0.889400
C171	C17	0.597200	0.840400	0.825700
C181	C18	0.557600	0.864800	0.438600
C191	C19	0.465300	0.862500	0.466900
C201	C20	0.453500	0.857500	0.570700
C211	C21	0.590300	0.848500	0.926500
C221	C22	0.435200	0.878600	0.787200
C231	C23	0.394100	0.879500	0.297900
C241	C24	0.527000	0.854600	0.648000
C251	C25	0.393500	0.381300	0.869000
C261	C26	0.342200	0.563900	0.876300
C271	C27	0.753700	0.518500	0.857300
C281	C28	0.889400	0.434500	0.885400
C291	C29	0.825700	0.597200	0.840400
C301	C30	0.438600	0.557600	0.864800
C311	C31	0.466900	0.465300	0.862500
C321	C32	0.570700	0.453500	0.857500
C331	C33	0.926500	0.590300	0.848500
C341	C34	0.787200	0.435200	0.878600
C351	C35	0.297900	0.394100	0.879500
C361	C36	0.648000	0.527000	0.854600
C371	C37	0.606500	0.131000	0.618700
C381	C38	0.657800	0.123700	0.436100
C391	C39	0.246300	0.142700	0.481500
C401	C40	0.110600	0.114600	0.565500
C411	C41	0.174300	0.159600	0.402800
C421	C42	0.561400	0.135200	0.442400
C431	C43	0.533100	0.137500	0.534700
C441	C44	0.429300	0.142500	0.546500
C451	C45	0.073500	0.151500	0.409700
C461	C46	0.212800	0.121400	0.564800
C471	C47	0.702100	0.120500	0.605900
C481	C48	0.352000	0.145400	0.473000
C491	C49	0.131000	0.618700	0.606500
C501	C50	0.123700	0.436100	0.657800
C511	C51	0.142700	0.481500	0.246300
C521	C52	0.114600	0.565500	0.110600
C531	C53	0.159600	0.402800	0.174300
C541	C54	0.135200	0.442400	0.561400
C551	C55	0.137500	0.534700	0.533100
C561	C56	0.142500	0.546500	0.429300
C571	C57	0.151500	0.409700	0.073500
C581	C58	0.121400	0.564800	0.212800
C591	C59	0.120500	0.605900	0.702100
C601	C60	0.145400	0.473000	0.352000
C611	C61	0.618700	0.606500	0.131000
C621	C62	0.436100	0.657800	0.123700
C631	C63	0.481500	0.246300	0.142700
C641	C64	0.565500	0.110600	0.114600
C651	C65	0.402800	0.174300	0.159600
C661	C66	0.442400	0.561400	0.135200
C671	C67	0.534700	0.533100	0.137500
C681	C68	0.546500	0.429300	0.142500
C691	C69	0.409700	0.073500	0.151500
C701	C70	0.564800	0.212800	0.121400
C711	C71	0.605900	0.702100	0.120500
C721	C72	0.473000	0.352000	0.145400
N11	N1	0.883800	0.271600	0.483300
N21	N2	0.871100	0.958400	0.510900
N31	N3	0.483300	0.883800	0.271600
N41	N4	0.510900	0.871100	0.958400
N51	N5	0.271600	0.483300	0.883800
N61	N6	0.958400	0.510900	0.871100
N71	N7	0.728400	0.116200	0.516700
N81	N8	0.041600	0.128900	0.489100
N91	N9	0.116200	0.516700	0.728400
N101	N10	0.128900	0.489100	0.041600
N111	N11	0.516700	0.728400	0.116200
N121	N12	0.489100	0.041600	0.128900
O11	O1	0.938190	0.168280	0.657600
O21	O2	0.657600	0.938190	0.168280
O31	O3	0.168280	0.657600	0.938190
O41	O4	0.831720	0.061810	0.342400
O51	O5	0.061810	0.342400	0.831720
O61	O6	0.342400	0.831720	0.061810
