data_GIKMOD01_clean_PM
_symmetry_space_group_name_H-M	'P1'
_cell_length_a	7.280600
_cell_length_b	10.107500
_cell_length_c	18.242100
_cell_angle_alpha	90.000000
_cell_angle_beta	90.000000
_cell_angle_gamma	94.886000
_symmetry_Int_Tables_number 1

loop_
_symmetry_equiv_pos_as_xyz
'x,y,z'

loop_
_atom_site_label
_atom_site_type_symbol
_atom_site_fract_x
_atom_site_fract_y
_atom_site_fract_z
Cu11	Cu1	0.551580	0.935790	0.931490
Cu21	Cu2	0.866170	0.716980	0.592420
Cu31	Cu3	0.948420	0.564210	0.431490
Cu41	Cu4	0.633830	0.783020	0.092420
Cu51	Cu5	0.448420	0.064210	0.068510
Cu61	Cu6	0.133830	0.283020	0.407580
Cu71	Cu7	0.051580	0.435790	0.568510
Cu81	Cu8	0.366170	0.216980	0.907580
H11	H1	0.450400	0.800400	0.706600
H21	H2	0.293100	0.171000	0.695100
H31	H3	0.289000	0.945500	0.513600
H41	H4	0.049600	0.699600	0.206600
H51	H5	0.206900	0.329000	0.195100
H61	H6	0.211000	0.554500	0.013600
H71	H7	0.549600	0.199600	0.293400
H81	H8	0.706900	0.829000	0.304900
H91	H9	0.711000	0.054500	0.486400
H101	H10	0.950400	0.300400	0.793400
H111	H11	0.793100	0.671000	0.804900
H121	H12	0.789000	0.445500	0.986400
C11	C1	0.407900	0.869700	0.679640
C21	C2	0.284200	0.077700	0.597530
C31	C3	0.374200	0.855100	0.605170
C41	C4	0.314800	0.091600	0.672210
C51	C5	0.377500	0.988900	0.713520
C61	C6	0.408300	0.012100	0.794020
C71	C7	0.311900	0.957200	0.563440
C81	C8	0.212000	0.188300	0.555740
C91	C9	0.092100	0.630300	0.179640
C101	C10	0.215800	0.422300	0.097530
C111	C11	0.125800	0.644900	0.105170
C121	C12	0.185200	0.408400	0.172210
C131	C13	0.122500	0.511100	0.213520
C141	C14	0.091700	0.487900	0.294020
C151	C15	0.188100	0.542800	0.063440
C161	C16	0.288000	0.311700	0.055740
C171	C17	0.592100	0.130300	0.320360
C181	C18	0.715800	0.922300	0.402470
C191	C19	0.625800	0.144900	0.394830
C201	C20	0.685200	0.908400	0.327790
C211	C21	0.622500	0.011100	0.286480
C221	C22	0.591700	0.987900	0.205980
C231	C23	0.688100	0.042800	0.436560
C241	C24	0.788000	0.811700	0.444260
C251	C25	0.907900	0.369700	0.820360
C261	C26	0.784200	0.577700	0.902470
C271	C27	0.874200	0.355100	0.894830
C281	C28	0.814800	0.591600	0.827790
C291	C29	0.877500	0.488900	0.786480
C301	C30	0.908300	0.512100	0.705980
C311	C31	0.811900	0.457200	0.936560
C321	C32	0.712000	0.688300	0.944260
S11	S1	0.386160	0.696460	0.566520
S21	S2	0.113840	0.803540	0.066520
S31	S3	0.613840	0.303540	0.433480
S41	S4	0.886160	0.196460	0.933480
O11	O1	0.548500	0.642600	0.598150
O21	O2	0.163500	0.167400	0.490330
O31	O3	0.392400	0.708700	0.487730
O41	O4	0.384400	0.126800	0.815540
O51	O5	0.366000	0.052500	0.965050
O61	O6	0.205100	0.296700	0.590730
O71	O7	0.455200	0.916200	0.832390
O81	O8	0.218200	0.623700	0.593070
O91	O9	0.951500	0.857400	0.098150
O101	O10	0.336500	0.332600	0.990330
O111	O11	0.107600	0.791300	0.987730
O121	O12	0.115600	0.373200	0.315540
O131	O13	0.134000	0.447500	0.465050
O141	O14	0.294900	0.203300	0.090730
O151	O15	0.044800	0.583800	0.332390
O161	O16	0.281800	0.876300	0.093070
O171	O17	0.451500	0.357400	0.401850
O181	O18	0.836500	0.832600	0.509670
O191	O19	0.607600	0.291300	0.512270
O201	O20	0.615600	0.873200	0.184460
O211	O21	0.634000	0.947500	0.034950
O221	O22	0.794900	0.703300	0.409270
O231	O23	0.544800	0.083800	0.167610
O241	O24	0.781800	0.376300	0.406930
O251	O25	0.048500	0.142600	0.901850
O261	O26	0.663500	0.667400	0.009670
O271	O27	0.892400	0.208700	0.012270
O281	O28	0.884400	0.626800	0.684460
O291	O29	0.866000	0.552500	0.534950
O301	O30	0.705100	0.796700	0.909270
O311	O31	0.955200	0.416200	0.667610
O321	O32	0.718200	0.123700	0.906930
