data_GIKMOD10_clean_PM
_symmetry_space_group_name_H-M	'P1'
_cell_length_a	7.356000
_cell_length_b	10.167000
_cell_length_c	18.208000
_cell_angle_alpha	90.000000
_cell_angle_beta	90.000000
_cell_angle_gamma	94.277000
_symmetry_Int_Tables_number 1

loop_
_symmetry_equiv_pos_as_xyz
'x,y,z'

loop_
_atom_site_label
_atom_site_type_symbol
_atom_site_fract_x
_atom_site_fract_y
_atom_site_fract_z
Cu11	Cu1	0.866020	0.216990	0.904920
Cu21	Cu2	0.041420	0.930450	0.931630
Cu31	Cu3	0.633980	0.283010	0.404920
Cu41	Cu4	0.458580	0.569550	0.431630
Cu51	Cu5	0.133980	0.783010	0.095080
Cu61	Cu6	0.958580	0.069550	0.068370
Cu71	Cu7	0.366020	0.716990	0.595080
Cu81	Cu8	0.541420	0.430450	0.568370
H11	H1	0.778800	0.164100	0.692200
H21	H2	0.935600	0.794100	0.705800
H31	H3	0.777100	0.935700	0.510800
H41	H4	0.721200	0.335900	0.192200
H51	H5	0.564400	0.705900	0.205800
H61	H6	0.722900	0.564300	0.010800
H71	H7	0.221200	0.835900	0.307800
H81	H8	0.064400	0.205900	0.294200
H91	H9	0.222900	0.064300	0.489200
H101	H10	0.278800	0.664100	0.807800
H111	H11	0.435600	0.294100	0.794200
H121	H12	0.277100	0.435700	0.989200
C11	C1	0.858600	0.847300	0.604000
C21	C2	0.767600	0.068300	0.595300
C31	C3	0.800700	0.084500	0.669900
C41	C4	0.865900	0.983900	0.712000
C51	C5	0.900000	0.008200	0.792400
C61	C6	0.893900	0.863000	0.678500
C71	C7	0.797500	0.947700	0.560800
C81	C8	0.696900	0.179800	0.552700
C91	C9	0.641400	0.652700	0.104000
C101	C10	0.732400	0.431700	0.095300
C111	C11	0.699300	0.415500	0.169900
C121	C12	0.634100	0.516100	0.212000
C131	C13	0.600000	0.491800	0.292400
C141	C14	0.606100	0.637000	0.178500
C151	C15	0.702500	0.552300	0.060800
C161	C16	0.803100	0.320200	0.052700
C171	C17	0.141400	0.152700	0.396000
C181	C18	0.232400	0.931700	0.404700
C191	C19	0.199300	0.915500	0.330100
C201	C20	0.134100	0.016100	0.288000
C211	C21	0.100000	0.991800	0.207600
C221	C22	0.106100	0.137000	0.321500
C231	C23	0.202500	0.052300	0.439200
C241	C24	0.303100	0.820200	0.447300
C251	C25	0.358600	0.347300	0.896000
C261	C26	0.267600	0.568300	0.904700
C271	C27	0.300700	0.584500	0.830100
C281	C28	0.365900	0.483900	0.788000
C291	C29	0.400000	0.508200	0.707600
C301	C30	0.393900	0.363000	0.821500
C311	C31	0.297500	0.447700	0.939200
C321	C32	0.196900	0.679800	0.947300
S11	S1	0.877760	0.689720	0.564890
S21	S2	0.622240	0.810280	0.064890
S31	S3	0.122240	0.310280	0.435110
S41	S4	0.377760	0.189720	0.935110
O11	O1	0.946400	0.914400	0.831750
O21	O2	0.871900	0.058500	0.964850
O31	O3	0.655900	0.161400	0.485950
O41	O4	0.880700	0.124300	0.813180
O51	O5	0.864600	0.699000	0.486800
O61	O6	0.682300	0.284200	0.589550
O71	O7	0.727500	0.611400	0.597500
O81	O8	0.048400	0.644600	0.592200
O91	O9	0.553600	0.585600	0.331750
O101	O10	0.628100	0.441500	0.464850
O111	O11	0.844100	0.338600	0.985950
O121	O12	0.619300	0.375700	0.313180
O131	O13	0.635400	0.801000	0.986800
O141	O14	0.817700	0.215800	0.089550
O151	O15	0.772500	0.888600	0.097500
O161	O16	0.451600	0.855400	0.092200
O171	O17	0.053600	0.085600	0.168250
O181	O18	0.128100	0.941500	0.035150
O191	O19	0.344100	0.838600	0.514050
O201	O20	0.119300	0.875700	0.186820
O211	O21	0.135400	0.301000	0.513200
O221	O22	0.317700	0.715800	0.410450
O231	O23	0.272500	0.388600	0.402500
O241	O24	0.951600	0.355400	0.407800
O251	O25	0.446400	0.414400	0.668250
O261	O26	0.371900	0.558500	0.535150
O271	O27	0.155900	0.661400	0.014050
O281	O28	0.380700	0.624300	0.686820
O291	O29	0.364600	0.199000	0.013200
O301	O30	0.182300	0.784200	0.910450
O311	O31	0.227500	0.111400	0.902500
O321	O32	0.548400	0.144600	0.907800
