data_GIMHAM_clean_PM
_symmetry_space_group_name_H-M	'P1'
_cell_length_a	13.939000
_cell_length_b	8.334000
_cell_length_c	12.856000
_cell_angle_alpha	90.000000
_cell_angle_beta	90.000000
_cell_angle_gamma	90.000000
_symmetry_Int_Tables_number 1

loop_
_symmetry_equiv_pos_as_xyz
'x,y,z'

loop_
_atom_site_label
_atom_site_type_symbol
_atom_site_fract_x
_atom_site_fract_y
_atom_site_fract_z
C11	C1	0.236490	0.882370	0.166200
H11	H1	0.194000	0.933200	0.121200
C21	C2	0.334240	0.913930	0.157360
H21	H2	0.355700	0.985600	0.107000
C31	C3	0.363260	0.741860	0.292450
H31	H3	0.405700	0.691000	0.337400
C41	C4	0.265130	0.711480	0.301820
N11	N1	0.202090	0.780940	0.237590
N21	N2	0.397770	0.842510	0.220300
C51	C5	0.226850	0.605640	0.387020
H41	H4	0.194300	0.672500	0.437700
H51	H5	0.280600	0.554700	0.421800
C61	C6	0.226490	0.308130	0.281830
H61	H6	0.190000	0.227800	0.244200
H71	H7	0.267300	0.364000	0.232600
C71	C7	0.287000	0.228580	0.363340
C81	C8	0.380340	0.280220	0.382580
H81	H8	0.409400	0.354900	0.339000
C91	C9	0.429540	0.218430	0.468070
H91	H9	0.491400	0.255000	0.481000
C101	C10	0.304170	0.051870	0.509660
H101	H10	0.279000	0.970600	0.551100
C111	C11	0.249340	0.108420	0.427300
H111	H11	0.188500	0.067000	0.414900
N31	N3	0.391870	0.109060	0.532320
S11	S1	0.144500	0.450840	0.343830
Ag11	Ag1	0.056380	0.603690	0.202470
C121	C12	0.763510	0.117630	0.666200
H121	H12	0.806000	0.066800	0.621200
C131	C13	0.665760	0.086070	0.657360
H131	H13	0.644300	0.014400	0.607000
C141	C14	0.636740	0.258140	0.792450
H141	H14	0.594300	0.309000	0.837400
C151	C15	0.734870	0.288520	0.801820
N41	N4	0.797910	0.219060	0.737590
N51	N5	0.602230	0.157490	0.720300
C161	C16	0.773150	0.394360	0.887020
H151	H15	0.805700	0.327500	0.937700
H161	H16	0.719400	0.445300	0.921800
C171	C17	0.773510	0.691870	0.781830
H171	H17	0.810000	0.772200	0.744200
H181	H18	0.732700	0.636000	0.732600
C181	C18	0.713000	0.771420	0.863340
C191	C19	0.619660	0.719780	0.882580
H191	H19	0.590600	0.645100	0.839000
C201	C20	0.570460	0.781570	0.968070
H201	H20	0.508600	0.745000	0.981000
C211	C21	0.695830	0.948130	0.009660
H211	H21	0.721000	0.029400	0.051100
C221	C22	0.750660	0.891580	0.927300
H221	H22	0.811500	0.933000	0.914900
N61	N6	0.608130	0.890940	0.032320
S21	S2	0.855500	0.549160	0.843830
Ag21	Ag2	0.943620	0.396310	0.702470
C231	C23	0.736490	0.617630	0.166200
H231	H23	0.694000	0.566800	0.121200
C241	C24	0.834240	0.586070	0.157360
H241	H24	0.855700	0.514400	0.107000
C251	C25	0.863260	0.758140	0.292450
H251	H25	0.905700	0.809000	0.337400
C261	C26	0.765130	0.788520	0.301820
N71	N7	0.702090	0.719060	0.237590
N81	N8	0.897770	0.657490	0.220300
C271	C27	0.726850	0.894360	0.387020
H261	H26	0.694300	0.827500	0.437700
H271	H27	0.780600	0.945300	0.421800
C281	C28	0.726490	0.191870	0.281830
H281	H28	0.690000	0.272200	0.244200
H291	H29	0.767300	0.136000	0.232600
C291	C29	0.787000	0.271420	0.363340
C301	C30	0.880340	0.219780	0.382580
H301	H30	0.909400	0.145100	0.339000
C311	C31	0.929540	0.281570	0.468070
H311	H31	0.991400	0.245000	0.481000
C321	C32	0.804170	0.448130	0.509660
H321	H32	0.779000	0.529400	0.551100
C331	C33	0.749340	0.391580	0.427300
H331	H33	0.688500	0.433000	0.414900
N91	N9	0.891870	0.390940	0.532320
S31	S3	0.644500	0.049160	0.343830
Ag31	Ag3	0.556380	0.896310	0.202470
C341	C34	0.263510	0.382370	0.666200
H341	H34	0.306000	0.433200	0.621200
C351	C35	0.165760	0.413930	0.657360
H351	H35	0.144300	0.485600	0.607000
C361	C36	0.136740	0.241860	0.792450
H361	H36	0.094300	0.191000	0.837400
C371	C37	0.234870	0.211480	0.801820
N101	N10	0.297910	0.280940	0.737590
N111	N11	0.102230	0.342510	0.720300
C381	C38	0.273150	0.105640	0.887020
H371	H37	0.305700	0.172500	0.937700
H381	H38	0.219400	0.054700	0.921800
C391	C39	0.273510	0.808130	0.781830
H391	H39	0.310000	0.727800	0.744200
H401	H40	0.232700	0.864000	0.732600
C401	C40	0.213000	0.728580	0.863340
C411	C41	0.119660	0.780220	0.882580
H411	H41	0.090600	0.854900	0.839000
C421	C42	0.070460	0.718430	0.968070
H421	H42	0.008600	0.755000	0.981000
C431	C43	0.195830	0.551870	0.009660
H431	H43	0.221000	0.470600	0.051100
C441	C44	0.250660	0.608420	0.927300
H441	H44	0.311500	0.567000	0.914900
N121	N12	0.108130	0.609060	0.032320
S41	S4	0.355500	0.950840	0.843830
Ag41	Ag4	0.443620	0.103690	0.702470
