data_GIMSIG_clean_PM
_symmetry_space_group_name_H-M	'P1'
_cell_length_a	10.385500
_cell_length_b	12.317500
_cell_length_c	12.317500
_cell_angle_alpha	79.762800
_cell_angle_beta	65.066000
_cell_angle_gamma	65.066100
_symmetry_Int_Tables_number 1

loop_
_symmetry_equiv_pos_as_xyz
'x,y,z'

loop_
_atom_site_label
_atom_site_type_symbol
_atom_site_fract_x
_atom_site_fract_y
_atom_site_fract_z
Cd11	Cd1	0.096360	0.302500	0.504790
Cd21	Cd2	0.903640	0.697500	0.495210
Cd31	Cd3	0.601140	0.495210	0.302510
Cd41	Cd4	0.398860	0.504790	0.697490
H11	H1	0.373500	0.350000	0.282400
H21	H2	0.456900	0.398000	0.079400
H31	H3	0.005900	0.650000	0.717600
H41	H4	0.934300	0.602000	0.920600
H51	H5	0.655900	0.717600	0.350000
H61	H6	0.536300	0.920600	0.398000
H71	H7	0.723500	0.282400	0.650000
H81	H8	0.854900	0.079400	0.602000
H91	H9	0.626500	0.650000	0.717600
H101	H10	0.543100	0.602000	0.920600
H111	H11	0.994100	0.350000	0.282400
H121	H12	0.065700	0.398000	0.079400
H131	H13	0.344100	0.282400	0.650000
H141	H14	0.463700	0.079400	0.602000
H151	H15	0.276500	0.717600	0.350000
H161	H16	0.145100	0.920600	0.398000
C11	C1	0.310400	0.360460	0.240500
C21	C2	0.361300	0.388950	0.119270
C31	C3	0.911360	0.639540	0.759500
C41	C4	0.869520	0.611050	0.880730
C51	C5	0.550900	0.759500	0.360460
C61	C6	0.480570	0.880730	0.388950
C71	C7	0.670860	0.240500	0.639540
C81	C8	0.750250	0.119270	0.611050
C91	C9	0.689600	0.639540	0.759500
C101	C10	0.638700	0.611050	0.880730
C111	C11	0.088640	0.360460	0.240500
C121	C12	0.130480	0.388950	0.119270
C131	C13	0.449100	0.240500	0.639540
C141	C14	0.519430	0.119270	0.611050
C151	C15	0.329140	0.759500	0.360460
C161	C16	0.249750	0.880730	0.388950
C171	C17	0.269180	0.403870	0.057770
C181	C18	0.316570	0.439410	0.927450
C191	C19	0.730820	0.596130	0.942230
C201	C20	0.683430	0.560590	0.072550
C211	C21	0.326950	0.942230	0.403870
C221	C22	0.244020	0.072550	0.439410
C231	C23	0.673050	0.057770	0.596130
C241	C24	0.755980	0.927450	0.560590
S11	S1	0.750000	0.500000	0.500000
S21	S2	0.250000	0.500000	0.500000
N11	N1	0.176000	0.347080	0.300920
N21	N2	0.824000	0.652920	0.699080
N31	N3	0.476920	0.699080	0.347080
N41	N4	0.523080	0.300920	0.652920
O11	O1	0.441830	0.454340	0.876320
O21	O2	0.841520	0.415460	0.566800
O31	O3	0.772490	0.545660	0.123680
O41	O4	0.823780	0.584540	0.433200
O51	O5	0.318150	0.123680	0.454340
O61	O6	0.408320	0.433200	0.415460
O71	O7	0.896170	0.876320	0.545660
O81	O8	0.256980	0.566800	0.584540
O91	O9	0.558170	0.545660	0.123680
O101	O10	0.158480	0.584540	0.433200
O111	O11	0.227510	0.454340	0.876320
O121	O12	0.176220	0.415460	0.566800
O131	O13	0.681850	0.876320	0.545660
O141	O14	0.591680	0.566800	0.584540
O151	O15	0.103830	0.123680	0.454340
O161	O16	0.743020	0.433200	0.415460
