data_GIMVAA_clean_PM
_symmetry_space_group_name_H-M	'P1'
_cell_length_a	7.600100
_cell_length_b	9.975800
_cell_length_c	17.510800
_cell_angle_alpha	90.000000
_cell_angle_beta	90.000000
_cell_angle_gamma	90.000000
_symmetry_Int_Tables_number 1

loop_
_symmetry_equiv_pos_as_xyz
'x,y,z'

loop_
_atom_site_label
_atom_site_type_symbol
_atom_site_fract_x
_atom_site_fract_y
_atom_site_fract_z
Zn11	Zn1	0.349750	0.250000	0.419260
Zn21	Zn2	0.489770	0.250000	0.762960
Zn31	Zn3	0.150250	0.750000	0.919260
Zn41	Zn4	0.010230	0.750000	0.262960
Zn51	Zn5	0.650250	0.750000	0.580740
Zn61	Zn6	0.510230	0.750000	0.237040
Zn71	Zn7	0.849750	0.250000	0.080740
Zn81	Zn8	0.989770	0.250000	0.737040
H11	H1	0.537200	0.459200	0.318400
H21	H2	0.037900	0.468300	0.372300
H31	H3	0.962800	0.540800	0.818400
H41	H4	0.462100	0.531700	0.872300
H51	H5	0.462800	0.959200	0.681600
H61	H6	0.962100	0.968300	0.627700
H71	H7	0.037200	0.040800	0.181600
H81	H8	0.537900	0.031700	0.127700
H91	H9	0.462800	0.540800	0.681600
H101	H10	0.962100	0.531700	0.627700
H111	H11	0.037200	0.459200	0.181600
H121	H12	0.537900	0.468300	0.127700
H131	H13	0.537200	0.040800	0.318400
H141	H14	0.037900	0.031700	0.372300
H151	H15	0.962800	0.959200	0.818400
H161	H16	0.462100	0.968300	0.872300
H171	H17	0.535300	0.250000	0.577700
H181	H18	0.026200	0.250000	0.542900
H191	H19	0.964700	0.750000	0.077700
H201	H20	0.473800	0.750000	0.042900
H211	H21	0.464700	0.750000	0.422300
H221	H22	0.973800	0.750000	0.457100
H231	H23	0.035300	0.250000	0.922300
H241	H24	0.526200	0.250000	0.957100
C11	C1	0.417600	0.485890	0.322500
C21	C2	0.149500	0.490600	0.351450
C31	C3	0.082400	0.514110	0.822500
C41	C4	0.350500	0.509400	0.851450
C51	C5	0.582400	0.985890	0.677500
C61	C6	0.850500	0.990600	0.648550
C71	C7	0.917600	0.014110	0.177500
C81	C8	0.649500	0.009400	0.148550
C91	C9	0.582400	0.514110	0.677500
C101	C10	0.850500	0.509400	0.648550
C111	C11	0.917600	0.485890	0.177500
C121	C12	0.649500	0.490600	0.148550
C131	C13	0.417600	0.014110	0.322500
C141	C14	0.149500	0.009400	0.351450
C151	C15	0.082400	0.985890	0.822500
C161	C16	0.350500	0.990600	0.851450
C171	C17	0.411700	0.250000	0.585880
C181	C18	0.138100	0.250000	0.567140
C191	C19	0.088300	0.750000	0.085880
C201	C20	0.361900	0.750000	0.067140
C211	C21	0.588300	0.750000	0.414120
C221	C22	0.861900	0.750000	0.432860
C231	C23	0.911700	0.250000	0.914120
C241	C24	0.638100	0.250000	0.932860
N11	N1	0.295700	0.415980	0.361700
N21	N2	0.353880	0.594870	0.290410
N31	N3	0.178320	0.598130	0.309310
N41	N4	0.204300	0.584020	0.861700
N51	N5	0.146120	0.405130	0.790410
N61	N6	0.321680	0.401870	0.809310
N71	N7	0.704300	0.915980	0.638300
N81	N8	0.646120	0.094870	0.709590
N91	N9	0.821680	0.098130	0.690690
N101	N10	0.795700	0.084020	0.138300
N111	N11	0.853880	0.905130	0.209590
N121	N12	0.678320	0.901870	0.190690
N131	N13	0.704300	0.584020	0.638300
N141	N14	0.646120	0.405130	0.709590
N151	N15	0.821680	0.401870	0.690690
N161	N16	0.795700	0.415980	0.138300
N171	N17	0.853880	0.594870	0.209590
N181	N18	0.678320	0.598130	0.190690
N191	N19	0.295700	0.084020	0.361700
N201	N20	0.353880	0.905130	0.290410
N211	N21	0.178320	0.901870	0.309310
N221	N22	0.204300	0.915980	0.861700
N231	N23	0.146120	0.094870	0.790410
N241	N24	0.321680	0.098130	0.809310
N251	N25	0.292700	0.250000	0.528870
N261	N26	0.338900	0.250000	0.654350
N271	N27	0.160300	0.250000	0.642000
N281	N28	0.207300	0.750000	0.028870
N291	N29	0.161100	0.750000	0.154350
N301	N30	0.339700	0.750000	0.142000
N311	N31	0.707300	0.750000	0.471130
N321	N32	0.661100	0.750000	0.345650
N331	N33	0.839700	0.750000	0.358000
N341	N34	0.792700	0.250000	0.971130
N351	N35	0.838900	0.250000	0.845650
N361	N36	0.660300	0.250000	0.858000
