data_GIQYAH_clean_PM
_symmetry_space_group_name_H-M	'P1'
_cell_length_a	9.551500
_cell_length_b	9.551500
_cell_length_c	15.390000
_cell_angle_alpha	92.710500
_cell_angle_beta	92.710500
_cell_angle_gamma	98.299700
_symmetry_Int_Tables_number 1

loop_
_symmetry_equiv_pos_as_xyz
'x,y,z'

loop_
_atom_site_label
_atom_site_type_symbol
_atom_site_fract_x
_atom_site_fract_y
_atom_site_fract_z
Ho11	Ho1	0.009950	0.990050	0.750000
Ho21	Ho2	0.990050	0.009950	0.250000
P11	P1	0.353180	0.044080	0.645120
P21	P2	0.652880	0.976860	0.654540
P31	P3	0.955920	0.646820	0.854880
P41	P4	0.023140	0.347120	0.845460
P51	P5	0.646820	0.955920	0.354880
P61	P6	0.347120	0.023140	0.345460
P71	P7	0.044080	0.353180	0.145120
P81	P8	0.976860	0.652880	0.154540
H11	H1	0.424700	0.831100	0.735600
H21	H2	0.471400	0.166000	0.813400
H31	H3	0.628300	0.125700	0.818100
H41	H4	0.583800	0.229400	0.746400
H51	H5	0.168900	0.575300	0.764400
H61	H6	0.834000	0.528600	0.686600
H71	H7	0.874300	0.371700	0.681900
H81	H8	0.770600	0.416200	0.753600
H91	H9	0.575300	0.168900	0.264400
H101	H10	0.528600	0.834000	0.186600
H111	H11	0.371700	0.874300	0.181900
H121	H12	0.416200	0.770600	0.253600
H131	H13	0.831100	0.424700	0.235600
H141	H14	0.166000	0.471400	0.313400
H151	H15	0.125700	0.628300	0.318100
H161	H16	0.229400	0.583800	0.246400
Ru11	Ru1	0.545300	0.121460	0.501940
Ru21	Ru2	0.878540	0.454700	0.998060
Ru31	Ru3	0.454700	0.878540	0.498060
Ru41	Ru4	0.121460	0.545300	0.001940
C11	C1	0.503100	0.020700	0.716300
C21	C2	0.550900	0.146500	0.779000
C31	C3	0.979300	0.496900	0.783700
C41	C4	0.853500	0.449100	0.721000
C51	C5	0.496900	0.979300	0.283700
C61	C6	0.449100	0.853500	0.221000
C71	C7	0.020700	0.503100	0.216300
C81	C8	0.146500	0.550900	0.279000
O11	O1	0.404800	0.164800	0.586800
O21	O2	0.308100	0.909700	0.586200
O31	O3	0.233300	0.071500	0.697900
O41	O4	0.692700	0.105500	0.598100
O51	O5	0.595500	0.844100	0.593600
O61	O6	0.771500	0.952300	0.714100
O71	O7	0.455000	0.901600	0.770500
O81	O8	0.835200	0.595200	0.913200
O91	O9	0.090300	0.691900	0.913800
O101	O10	0.928500	0.766700	0.802100
O111	O11	0.894500	0.307300	0.901900
O121	O12	0.155900	0.404500	0.906400
O131	O13	0.047700	0.228500	0.785900
O141	O14	0.098400	0.545000	0.729500
O151	O15	0.595200	0.835200	0.413200
O161	O16	0.691900	0.090300	0.413800
O171	O17	0.766700	0.928500	0.302100
O181	O18	0.307300	0.894500	0.401900
O191	O19	0.404500	0.155900	0.406400
O201	O20	0.228500	0.047700	0.285900
O211	O21	0.545000	0.098400	0.229500
O221	O22	0.164800	0.404800	0.086800
O231	O23	0.909700	0.308100	0.086200
O241	O24	0.071500	0.233300	0.197900
O251	O25	0.105500	0.692700	0.098100
O261	O26	0.844100	0.595500	0.093600
O271	O27	0.952300	0.771500	0.214100
O281	O28	0.901600	0.455000	0.270500
