data_GIQYIP_clean_PM
_symmetry_space_group_name_H-M	'P1'
_cell_length_a	9.660200
_cell_length_b	9.660200
_cell_length_c	15.625000
_cell_angle_alpha	92.905300
_cell_angle_beta	92.905300
_cell_angle_gamma	99.106200
_symmetry_Int_Tables_number 1

loop_
_symmetry_equiv_pos_as_xyz
'x,y,z'

loop_
_atom_site_label
_atom_site_type_symbol
_atom_site_fract_x
_atom_site_fract_y
_atom_site_fract_z
Nd11	Nd1	0.011350	0.988650	0.750000
Nd21	Nd2	0.988650	0.011350	0.250000
P11	P1	0.355310	0.044890	0.644240
P21	P2	0.650050	0.974910	0.652620
P31	P3	0.955110	0.644690	0.855760
P41	P4	0.025090	0.349950	0.847380
P51	P5	0.644690	0.955110	0.355760
P61	P6	0.349950	0.025090	0.347380
P71	P7	0.044890	0.355310	0.144240
P81	P8	0.974910	0.650050	0.152620
H11	H1	0.478600	0.154600	0.816300
H21	H2	0.637700	0.128500	0.812100
H31	H3	0.575400	0.226600	0.745500
H41	H4	0.419000	0.825000	0.732000
H51	H5	0.845400	0.521400	0.683700
H61	H6	0.871500	0.362300	0.687900
H71	H7	0.773400	0.424600	0.754500
H81	H8	0.175000	0.581000	0.768000
H91	H9	0.521400	0.845400	0.183700
H101	H10	0.362300	0.871500	0.187900
H111	H11	0.424600	0.773400	0.254500
H121	H12	0.581000	0.175000	0.268000
H131	H13	0.154600	0.478600	0.316300
H141	H14	0.128500	0.637700	0.312100
H151	H15	0.226600	0.575400	0.245500
H161	H16	0.825000	0.419000	0.232000
Ru11	Ru1	0.546030	0.120390	0.502210
Ru21	Ru2	0.879610	0.453970	0.997790
Ru31	Ru3	0.453970	0.879610	0.497790
Ru41	Ru4	0.120390	0.546030	0.002210
C11	C1	0.505800	0.015400	0.716200
C21	C2	0.553600	0.142600	0.778000
C31	C3	0.984600	0.494200	0.783800
C41	C4	0.857400	0.446400	0.722000
C51	C5	0.494200	0.984600	0.283800
C61	C6	0.446400	0.857400	0.222000
C71	C7	0.015400	0.505800	0.216200
C81	C8	0.142600	0.553600	0.278000
O11	O1	0.409700	0.168500	0.588890
O21	O2	0.310600	0.910000	0.585620
O31	O3	0.235400	0.077600	0.698560
O41	O4	0.690800	0.101800	0.598250
O51	O5	0.592520	0.843880	0.592380
O61	O6	0.768830	0.951370	0.712140
O71	O7	0.450100	0.898700	0.766000
O81	O8	0.831500	0.590300	0.911110
O91	O9	0.090000	0.689400	0.914380
O101	O10	0.922400	0.764600	0.801440
O111	O11	0.898200	0.309200	0.901750
O121	O12	0.156120	0.407480	0.907620
O131	O13	0.048630	0.231170	0.787860
O141	O14	0.101300	0.549900	0.734000
O151	O15	0.590300	0.831500	0.411110
O161	O16	0.689400	0.090000	0.414380
O171	O17	0.764600	0.922400	0.301440
O181	O18	0.309200	0.898200	0.401750
O191	O19	0.407480	0.156120	0.407620
O201	O20	0.231170	0.048630	0.287860
O211	O21	0.549900	0.101300	0.234000
O221	O22	0.168500	0.409700	0.088890
O231	O23	0.910000	0.310600	0.085620
O241	O24	0.077600	0.235400	0.198560
O251	O25	0.101800	0.690800	0.098250
O261	O26	0.843880	0.592520	0.092380
O271	O27	0.951370	0.768830	0.212140
O281	O28	0.898700	0.450100	0.266000
