data_GIQYOV_clean_PM
_symmetry_space_group_name_H-M	'P1'
_cell_length_a	9.940200
_cell_length_b	9.940200
_cell_length_c	15.690000
_cell_angle_alpha	92.466200
_cell_angle_beta	92.466200
_cell_angle_gamma	97.178100
_symmetry_Int_Tables_number 1

loop_
_symmetry_equiv_pos_as_xyz
'x,y,z'

loop_
_atom_site_label
_atom_site_type_symbol
_atom_site_fract_x
_atom_site_fract_y
_atom_site_fract_z
Pr11	Pr1	0.010580	0.989420	0.750000
Pr21	Pr2	0.989420	0.010580	0.250000
P11	P1	0.356830	0.046350	0.641610
P21	P2	0.649740	0.977400	0.651670
P31	P3	0.953650	0.643170	0.858390
P41	P4	0.022600	0.350260	0.848330
P51	P5	0.643170	0.953650	0.358390
P61	P6	0.350260	0.022600	0.348330
P71	P7	0.046350	0.356830	0.141610
P81	P8	0.977400	0.649740	0.151670
H11	H1	0.430100	0.847500	0.720700
H21	H2	0.930200	0.119000	0.887300
H31	H3	0.849300	0.985500	0.878700
H41	H4	0.549600	0.128600	0.830600
H51	H5	0.647200	0.176600	0.756200
H61	H6	0.496600	0.217600	0.756600
H71	H7	0.152500	0.569900	0.779300
H81	H8	0.881000	0.069800	0.612700
H91	H9	0.014500	0.150700	0.621300
H101	H10	0.871400	0.450400	0.669400
H111	H11	0.823400	0.352800	0.743800
H121	H12	0.782400	0.503400	0.743400
H131	H13	0.569900	0.152500	0.279300
H141	H14	0.069800	0.881000	0.112700
H151	H15	0.150700	0.014500	0.121300
H161	H16	0.450400	0.871400	0.169400
H171	H17	0.352800	0.823400	0.243800
H181	H18	0.503400	0.782400	0.243400
H191	H19	0.847500	0.430100	0.220700
H201	H20	0.119000	0.930200	0.387300
H211	H21	0.985500	0.849300	0.378700
H221	H22	0.128600	0.549600	0.330600
H231	H23	0.176600	0.647200	0.256200
H241	H24	0.217600	0.496600	0.256600
Ru11	Ru1	0.544690	0.118990	0.503380
Ru21	Ru2	0.881010	0.455310	0.996620
Ru31	Ru3	0.455310	0.881010	0.496620
Ru41	Ru4	0.118990	0.544690	0.003380
C11	C1	0.501300	0.018700	0.717300
C21	C2	0.553300	0.146500	0.769800
C31	C3	0.981300	0.498700	0.782700
C41	C4	0.853500	0.446700	0.730200
C51	C5	0.498700	0.981300	0.282700
C61	C6	0.446700	0.853500	0.230200
C71	C7	0.018700	0.501300	0.217300
C81	C8	0.146500	0.553300	0.269800
O11	O1	0.407200	0.168800	0.591200
O21	O2	0.305700	0.905100	0.580400
O31	O3	0.237000	0.076800	0.698700
O41	O4	0.688200	0.101600	0.595900
O51	O5	0.584700	0.843300	0.597100
O61	O6	0.756200	0.937400	0.722200
O71	O7	0.460300	0.918100	0.755600
O81	O8	0.931900	0.031700	0.876600
O91	O9	0.831200	0.592800	0.908800
O101	O10	0.094900	0.694300	0.919600
O111	O11	0.923200	0.763000	0.801300
O121	O12	0.898400	0.311800	0.904100
O131	O13	0.156700	0.415300	0.902900
O141	O14	0.062600	0.243800	0.777800
O151	O15	0.081900	0.539700	0.744400
O161	O16	0.968300	0.068100	0.623400
O171	O17	0.592800	0.831200	0.408800
O181	O18	0.694300	0.094900	0.419600
O191	O19	0.763000	0.923200	0.301300
O201	O20	0.311800	0.898400	0.404100
O211	O21	0.415300	0.156700	0.402900
O221	O22	0.243800	0.062600	0.277800
O231	O23	0.539700	0.081900	0.244400
O241	O24	0.068100	0.968300	0.123400
O251	O25	0.168800	0.407200	0.091200
O261	O26	0.905100	0.305700	0.080400
O271	O27	0.076800	0.237000	0.198700
O281	O28	0.101600	0.688200	0.095900
O291	O29	0.843300	0.584700	0.097100
O301	O30	0.937400	0.756200	0.222200
O311	O31	0.918100	0.460300	0.255600
O321	O32	0.031700	0.931900	0.376600
