data_GIQZIQ_clean_PM
_symmetry_space_group_name_H-M	'P1'
_cell_length_a	11.111600
_cell_length_b	12.622900
_cell_length_c	17.800000
_cell_angle_alpha	88.568000
_cell_angle_beta	83.833000
_cell_angle_gamma	70.167000
_symmetry_Int_Tables_number 1

loop_
_symmetry_equiv_pos_as_xyz
'x,y,z'

loop_
_atom_site_label
_atom_site_type_symbol
_atom_site_fract_x
_atom_site_fract_y
_atom_site_fract_z
Mg11	Mg1	0.700810	0.301060	0.743950
Mg21	Mg2	0.699760	0.422030	0.562670
Mg31	Mg3	0.686490	0.176560	0.922850
Mg41	Mg4	0.299190	0.698940	0.256050
Mg51	Mg5	0.300240	0.577970	0.437330
Mg61	Mg6	0.313510	0.823440	0.077150
H11	H1	0.344500	0.690000	0.625600
H21	H2	0.407100	0.589200	0.836800
H31	H3	0.236900	0.739900	0.883800
H41	H4	0.047700	0.909100	0.861800
H51	H5	0.985600	0.008100	0.650800
H61	H6	0.156900	0.859400	0.603900
H71	H7	0.393200	0.361600	0.765700
H81	H8	0.381700	0.054600	0.817500
H91	H9	0.196400	0.091600	0.761700
H101	H10	0.013100	0.229300	0.702900
H111	H11	0.025400	0.535700	0.650400
H121	H12	0.215600	0.495800	0.699700
H131	H13	0.836400	0.391600	0.027400
H141	H14	0.944800	0.466700	0.818500
H151	H15	0.076400	0.550300	0.863800
H161	H16	0.565200	0.177300	0.460300
H171	H17	0.488900	0.929400	0.639300
H181	H18	0.556400	0.071000	0.673000
H191	H19	0.655500	0.310000	0.374400
H201	H20	0.592900	0.410800	0.163200
H211	H21	0.763100	0.260100	0.116200
H221	H22	0.952300	0.090900	0.138200
H231	H23	0.014400	0.991900	0.349200
H241	H24	0.843100	0.140600	0.396100
H251	H25	0.606800	0.638400	0.234300
H261	H26	0.618300	0.945400	0.182500
H271	H27	0.803600	0.908400	0.238300
H281	H28	0.986900	0.770700	0.297100
H291	H29	0.974600	0.464300	0.349600
H301	H30	0.784400	0.504200	0.300300
H311	H31	0.163600	0.608400	0.972600
H321	H32	0.055200	0.533300	0.181500
H331	H33	0.923600	0.449700	0.136200
H341	H34	0.434800	0.822700	0.539700
H351	H35	0.511100	0.070600	0.360700
H361	H36	0.443600	0.929000	0.327000
C11	C1	0.321600	0.699900	0.677400
C21	C2	0.393200	0.625600	0.725300
C31	C3	0.359100	0.640700	0.803900
C41	C4	0.256800	0.729900	0.831800
C51	C5	0.070700	0.899300	0.810000
C61	C6	0.998100	0.973900	0.762200
C71	C7	0.033800	0.957300	0.684100
C81	C8	0.136700	0.869000	0.655900
C91	C9	0.212900	0.792000	0.704600
C101	C10	0.180400	0.807400	0.783000
C111	C11	0.883700	0.071700	0.791100
C121	C12	0.509000	0.527100	0.695400
C131	C13	0.351900	0.308600	0.765700
C141	C14	0.405200	0.207000	0.797200
C151	C15	0.345000	0.124500	0.795900
C161	C16	0.233800	0.147100	0.763300
C171	C17	0.055200	0.281800	0.702400
C181	C18	0.000000	0.386100	0.673200
C191	C19	0.062400	0.465600	0.671700
C201	C20	0.175900	0.441600	0.700900
C211	C21	0.234900	0.336300	0.733000
C221	C22	0.174700	0.252500	0.731900
C231	C23	0.873700	0.413800	0.641400
C241	C24	0.521100	0.184500	0.837000
C251	C25	0.885200	0.423600	0.994800
C261	C26	0.879700	0.418100	0.919300
C271	C27	0.950500	0.467900	0.870200
C281	C28	0.028600	0.518700	0.897400
C291	C29	0.962700	0.476400	0.025200
C301	C30	0.802200	0.354400	0.888500
C311	C31	0.550100	0.126800	0.495900
C321	C32	0.564600	0.139800	0.570100
C331	C33	0.504500	0.978200	0.602600
C341	C34	0.543600	0.063600	0.622900
C351	C35	0.512500	0.037400	0.472700
C361	C36	0.605800	0.234500	0.595500
C371	C37	0.678400	0.300100	0.322600
C381	C38	0.606800	0.374400	0.274700
C391	C39	0.640900	0.359300	0.196100
C401	C40	0.743200	0.270100	0.168200
C411	C41	0.929300	0.100700	0.190000
C421	C42	0.001900	0.026100	0.237800
C431	C43	0.966200	0.042700	0.315900
C441	C44	0.863300	0.131000	0.344100
C451	C45	0.787100	0.208000	0.295400
C461	C46	0.819600	0.192600	0.217000
C471	C47	0.116300	0.928300	0.208900
C481	C48	0.491000	0.472900	0.304600
C491	C49	0.648100	0.691400	0.234300
C501	C50	0.594800	0.793000	0.202800
C511	C51	0.655000	0.875500	0.204100
C521	C52	0.766200	0.852900	0.236700
C531	C53	0.944800	0.718200	0.297600
C541	C54	0.000000	0.613900	0.326800
C551	C55	0.937600	0.534400	0.328300
C561	C56	0.824100	0.558400	0.299100
C571	C57	0.765100	0.663700	0.267000
C581	C58	0.825300	0.747500	0.268100
C591	C59	0.126300	0.586200	0.358600
C601	C60	0.478900	0.815500	0.163000
C611	C61	0.114800	0.576400	0.005200
C621	C62	0.120300	0.581900	0.080700
C631	C63	0.049500	0.532100	0.129800
C641	C64	0.971400	0.481300	0.102600
C651	C65	0.037300	0.523600	0.974800
C661	C66	0.197800	0.645600	0.111500
C671	C67	0.449900	0.873200	0.504100
C681	C68	0.435400	0.860200	0.429900
C691	C69	0.495500	0.021800	0.397400
C701	C70	0.456400	0.936400	0.377100
C711	C71	0.487500	0.962600	0.527300
C721	C72	0.394200	0.765500	0.404500
O11	O1	0.840500	0.146900	0.745100
O21	O2	0.840100	0.070200	0.858900
O31	O3	0.542700	0.524000	0.625900
O41	O4	0.561700	0.456600	0.741980
O51	O5	0.837100	0.496400	0.599500
O61	O6	0.810000	0.347700	0.652370
O71	O7	0.551900	0.104800	0.881500
O81	O8	0.585400	0.252300	0.828680
O91	O9	0.784000	0.366000	0.820460
O101	O10	0.763500	0.293500	0.934890
O111	O11	0.626900	0.235500	0.661800
O121	O12	0.615500	0.306600	0.546300
O131	O13	0.159500	0.853100	0.254900
O141	O14	0.159900	0.929800	0.141100
O151	O15	0.457300	0.476000	0.374100
O161	O16	0.438300	0.543400	0.258020
O171	O17	0.162900	0.503600	0.400500
O181	O18	0.190000	0.652300	0.347630
O191	O19	0.448100	0.895200	0.118500
O201	O20	0.414600	0.747700	0.171320
O211	O21	0.216000	0.634000	0.179540
O221	O22	0.236500	0.706500	0.065110
O231	O23	0.373100	0.764500	0.338200
O241	O24	0.384500	0.693400	0.453700
