data_GIRHEW_clean_PM
_symmetry_space_group_name_H-M	'P1'
_cell_length_a	16.187100
_cell_length_b	16.306900
_cell_length_c	9.976200
_cell_angle_alpha	90.000000
_cell_angle_beta	114.628000
_cell_angle_gamma	90.000000
_symmetry_Int_Tables_number 1

loop_
_symmetry_equiv_pos_as_xyz
'x,y,z'

loop_
_atom_site_label
_atom_site_type_symbol
_atom_site_fract_x
_atom_site_fract_y
_atom_site_fract_z
C11	C1	0.420400	0.152800	0.333700
H11	H1	0.428500	0.096300	0.336500
C21	C2	0.493100	0.201280	0.416100
H21	H2	0.549400	0.178000	0.472700
C31	C3	0.481200	0.285800	0.413800
C41	C4	0.397000	0.318100	0.324900
H31	H3	0.387600	0.374500	0.320000
C51	C5	0.327400	0.265800	0.244100
H41	H4	0.271100	0.287900	0.184000
C61	C6	0.558500	0.341900	0.503900
C71	C7	0.197500	0.987550	0.896500
N11	N1	0.337760	0.183630	0.248800
N21	N2	0.242260	0.048860	0.987900
N31	N3	0.314260	0.067620	0.955500
N41	N4	0.313160	0.020700	0.851900
N51	N5	0.239770	0.968700	0.810400
N61	N6	0.123800	0.949670	0.897000
H51	H5	0.099700	0.909300	0.838100
H61	H6	0.100800	0.965800	0.956200
O11	O1	0.635090	0.306250	0.574800
O21	O2	0.546190	0.416270	0.504900
Zn11	Zn1	0.227430	0.108380	0.149750
C81	C8	0.920400	0.652800	0.333700
H71	H7	0.928500	0.596300	0.336500
C91	C9	0.993100	0.701280	0.416100
H81	H8	0.049400	0.678000	0.472700
C101	C10	0.981200	0.785800	0.413800
C111	C11	0.897000	0.818100	0.324900
H91	H9	0.887600	0.874500	0.320000
C121	C12	0.827400	0.765800	0.244100
H101	H10	0.771100	0.787900	0.184000
C131	C13	0.058500	0.841900	0.503900
C141	C14	0.697500	0.487550	0.896500
N71	N7	0.837760	0.683630	0.248800
N81	N8	0.742260	0.548860	0.987900
N91	N9	0.814260	0.567620	0.955500
N101	N10	0.813160	0.520700	0.851900
N111	N11	0.739770	0.468700	0.810400
N121	N12	0.623800	0.449670	0.897000
H111	H11	0.599700	0.409300	0.838100
H121	H12	0.600800	0.465800	0.956200
O31	O3	0.135090	0.806250	0.574800
O41	O4	0.046190	0.916270	0.504900
Zn21	Zn2	0.727430	0.608380	0.149750
C151	C15	0.420400	0.847200	0.833700
H131	H13	0.428500	0.903700	0.836500
C161	C16	0.493100	0.798720	0.916100
H141	H14	0.549400	0.822000	0.972700
C171	C17	0.481200	0.714200	0.913800
C181	C18	0.397000	0.681900	0.824900
H151	H15	0.387600	0.625500	0.820000
C191	C19	0.327400	0.734200	0.744100
H161	H16	0.271100	0.712100	0.684000
C201	C20	0.558500	0.658100	0.003900
C211	C21	0.197500	0.012450	0.396500
N131	N13	0.337760	0.816370	0.748800
N141	N14	0.242260	0.951140	0.487900
N151	N15	0.314260	0.932380	0.455500
N161	N16	0.313160	0.979300	0.351900
N171	N17	0.239770	0.031300	0.310400
N181	N18	0.123800	0.050330	0.397000
H171	H17	0.099700	0.090700	0.338100
H181	H18	0.100800	0.034200	0.456200
O51	O5	0.635090	0.693750	0.074800
O61	O6	0.546190	0.583730	0.004900
Zn31	Zn3	0.227430	0.891620	0.649750
C221	C22	0.920400	0.347200	0.833700
H191	H19	0.928500	0.403700	0.836500
C231	C23	0.993100	0.298720	0.916100
H201	H20	0.049400	0.322000	0.972700
C241	C24	0.981200	0.214200	0.913800
C251	C25	0.897000	0.181900	0.824900
H211	H21	0.887600	0.125500	0.820000
C261	C26	0.827400	0.234200	0.744100
H221	H22	0.771100	0.212100	0.684000
C271	C27	0.058500	0.158100	0.003900
C281	C28	0.697500	0.512450	0.396500
N191	N19	0.837760	0.316370	0.748800
N201	N20	0.742260	0.451140	0.487900
N211	N21	0.814260	0.432380	0.455500
N221	N22	0.813160	0.479300	0.351900
N231	N23	0.739770	0.531300	0.310400
N241	N24	0.623800	0.550330	0.397000
H231	H23	0.599700	0.590700	0.338100
H241	H24	0.600800	0.534200	0.456200
O71	O7	0.135090	0.193750	0.074800
O81	O8	0.046190	0.083730	0.004900
Zn41	Zn4	0.727430	0.391620	0.649750
C291	C29	0.579600	0.152800	0.166300
H251	H25	0.571500	0.096300	0.163500
C301	C30	0.506900	0.201280	0.083900
H261	H26	0.450600	0.178000	0.027300
C311	C31	0.518800	0.285800	0.086200
C321	C32	0.603000	0.318100	0.175100
H271	H27	0.612400	0.374500	0.180000
C331	C33	0.672600	0.265800	0.255900
H281	H28	0.728900	0.287900	0.316000
C341	C34	0.441500	0.341900	0.996100
C351	C35	0.802500	0.987550	0.603500
N251	N25	0.662240	0.183630	0.251200
N261	N26	0.757740	0.048860	0.512100
N271	N27	0.685740	0.067620	0.544500
N281	N28	0.686840	0.020700	0.648100
N291	N29	0.760230	0.968700	0.689600
N301	N30	0.876200	0.949670	0.603000
H291	H29	0.900300	0.909300	0.661900
H301	H30	0.899200	0.965800	0.543800
O91	O9	0.364910	0.306250	0.925200
O101	O10	0.453810	0.416270	0.995100
Zn51	Zn5	0.772570	0.108380	0.350250
C361	C36	0.079600	0.652800	0.166300
H311	H31	0.071500	0.596300	0.163500
C371	C37	0.006900	0.701280	0.083900
H321	H32	0.950600	0.678000	0.027300
C381	C38	0.018800	0.785800	0.086200
C391	C39	0.103000	0.818100	0.175100
H331	H33	0.112400	0.874500	0.180000
C401	C40	0.172600	0.765800	0.255900
H341	H34	0.228900	0.787900	0.316000
C411	C41	0.941500	0.841900	0.996100
C421	C42	0.302500	0.487550	0.603500
N311	N31	0.162240	0.683630	0.251200
N321	N32	0.257740	0.548860	0.512100
N331	N33	0.185740	0.567620	0.544500
N341	N34	0.186840	0.520700	0.648100
N351	N35	0.260230	0.468700	0.689600
N361	N36	0.376200	0.449670	0.603000
H351	H35	0.400300	0.409300	0.661900
H361	H36	0.399200	0.465800	0.543800
O111	O11	0.864910	0.806250	0.925200
O121	O12	0.953810	0.916270	0.995100
Zn61	Zn6	0.272570	0.608380	0.350250
C431	C43	0.579600	0.847200	0.666300
H371	H37	0.571500	0.903700	0.663500
C441	C44	0.506900	0.798720	0.583900
H381	H38	0.450600	0.822000	0.527300
C451	C45	0.518800	0.714200	0.586200
C461	C46	0.603000	0.681900	0.675100
H391	H39	0.612400	0.625500	0.680000
C471	C47	0.672600	0.734200	0.755900
H401	H40	0.728900	0.712100	0.816000
C481	C48	0.441500	0.658100	0.496100
C491	C49	0.802500	0.012450	0.103500
N371	N37	0.662240	0.816370	0.751200
N381	N38	0.757740	0.951140	0.012100
N391	N39	0.685740	0.932380	0.044500
N401	N40	0.686840	0.979300	0.148100
N411	N41	0.760230	0.031300	0.189600
N421	N42	0.876200	0.050330	0.103000
H411	H41	0.900300	0.090700	0.161900
H421	H42	0.899200	0.034200	0.043800
O131	O13	0.364910	0.693750	0.425200
O141	O14	0.453810	0.583730	0.495100
Zn71	Zn7	0.772570	0.891620	0.850250
C501	C50	0.079600	0.347200	0.666300
H431	H43	0.071500	0.403700	0.663500
C511	C51	0.006900	0.298720	0.583900
H441	H44	0.950600	0.322000	0.527300
C521	C52	0.018800	0.214200	0.586200
C531	C53	0.103000	0.181900	0.675100
H451	H45	0.112400	0.125500	0.680000
C541	C54	0.172600	0.234200	0.755900
H461	H46	0.228900	0.212100	0.816000
C551	C55	0.941500	0.158100	0.496100
C561	C56	0.302500	0.512450	0.103500
N431	N43	0.162240	0.316370	0.751200
N441	N44	0.257740	0.451140	0.012100
N451	N45	0.185740	0.432380	0.044500
N461	N46	0.186840	0.479300	0.148100
N471	N47	0.260230	0.531300	0.189600
N481	N48	0.376200	0.550330	0.103000
H471	H47	0.400300	0.590700	0.161900
H481	H48	0.399200	0.534200	0.043800
O151	O15	0.864910	0.193750	0.425200
O161	O16	0.953810	0.083730	0.495100
Zn81	Zn8	0.272570	0.391620	0.850250
