data_GIRXUC_clean_PM
_symmetry_space_group_name_H-M	'P1'
_cell_length_a	14.294100
_cell_length_b	14.294100
_cell_length_c	14.294100
_cell_angle_alpha	90.000000
_cell_angle_beta	90.000000
_cell_angle_gamma	90.000000
_symmetry_Int_Tables_number 1

loop_
_symmetry_equiv_pos_as_xyz
'x,y,z'

loop_
_atom_site_label
_atom_site_type_symbol
_atom_site_fract_x
_atom_site_fract_y
_atom_site_fract_z
C11	C1	0.348600	0.894400	0.516500
C21	C2	0.425500	0.832800	0.531700
H11	H1	0.435900	0.782600	0.491700
C31	C3	0.279200	0.876400	0.439100
O11	O1	0.299000	0.807100	0.385500
O21	O2	0.217800	0.932600	0.425400
C41	C4	0.151400	0.105600	0.016500
C51	C5	0.074500	0.167200	0.031700
H21	H2	0.064100	0.217400	0.991700
C61	C6	0.220800	0.123600	0.939100
O31	O3	0.201000	0.192900	0.885500
O41	O4	0.282200	0.067400	0.925400
C71	C7	0.651400	0.394400	0.983500
C81	C8	0.574500	0.332800	0.968300
H31	H3	0.564100	0.282600	0.008300
C91	C9	0.720800	0.376400	0.060900
O51	O5	0.701000	0.307100	0.114500
O61	O6	0.782200	0.432600	0.074600
C101	C10	0.848600	0.605600	0.483500
C111	C11	0.925500	0.667200	0.468300
H41	H4	0.935900	0.717400	0.508300
C121	C12	0.779200	0.623600	0.560900
O71	O7	0.799000	0.692900	0.614500
O81	O8	0.717800	0.567400	0.574600
C131	C13	0.516500	0.348600	0.894400
C141	C14	0.531700	0.425500	0.832800
H51	H5	0.491700	0.435900	0.782600
C151	C15	0.439100	0.279200	0.876400
O91	O9	0.385500	0.299000	0.807100
O101	O10	0.425400	0.217800	0.932600
C161	C16	0.016500	0.151400	0.105600
C171	C17	0.031700	0.074500	0.167200
H61	H6	0.991700	0.064100	0.217400
C181	C18	0.939100	0.220800	0.123600
O111	O11	0.885500	0.201000	0.192900
O121	O12	0.925400	0.282200	0.067400
C191	C19	0.983500	0.651400	0.394400
C201	C20	0.968300	0.574500	0.332800
H71	H7	0.008300	0.564100	0.282600
C211	C21	0.060900	0.720800	0.376400
O131	O13	0.114500	0.701000	0.307100
O141	O14	0.074600	0.782200	0.432600
C221	C22	0.483500	0.848600	0.605600
C231	C23	0.468300	0.925500	0.667200
H81	H8	0.508300	0.935900	0.717400
C241	C24	0.560900	0.779200	0.623600
O151	O15	0.614500	0.799000	0.692900
O161	O16	0.574600	0.717800	0.567400
C251	C25	0.894400	0.516500	0.348600
C261	C26	0.832800	0.531700	0.425500
H91	H9	0.782600	0.491700	0.435900
C271	C27	0.876400	0.439100	0.279200
O171	O17	0.807100	0.385500	0.299000
O181	O18	0.932600	0.425400	0.217800
C281	C28	0.105600	0.016500	0.151400
C291	C29	0.167200	0.031700	0.074500
H101	H10	0.217400	0.991700	0.064100
C301	C30	0.123600	0.939100	0.220800
O191	O19	0.192900	0.885500	0.201000
O201	O20	0.067400	0.925400	0.282200
C311	C31	0.394400	0.983500	0.651400
C321	C32	0.332800	0.968300	0.574500
H111	H11	0.282600	0.008300	0.564100
C331	C33	0.376400	0.060900	0.720800
O211	O21	0.307100	0.114500	0.701000
O221	O22	0.432600	0.074600	0.782200
C341	C34	0.605600	0.483500	0.848600
C351	C35	0.667200	0.468300	0.925500
H121	H12	0.717400	0.508300	0.935900
C361	C36	0.623600	0.560900	0.779200
O231	O23	0.692900	0.614500	0.799000
O241	O24	0.567400	0.574600	0.717800
Zn11	Zn1	0.220270	0.779730	0.279730
Zn21	Zn2	0.073480	0.926520	0.426520
Zn31	Zn3	0.279730	0.220270	0.779730
Zn41	Zn4	0.426520	0.073480	0.926520
Zn51	Zn5	0.779730	0.279730	0.220270
Zn61	Zn6	0.926520	0.426520	0.073480
Zn71	Zn7	0.720270	0.720270	0.720270
Zn81	Zn8	0.573480	0.573480	0.573480
