data_GIRYOX_clean_PM
_symmetry_space_group_name_H-M	'P1'
_cell_length_a	13.442000
_cell_length_b	13.590600
_cell_length_c	14.812900
_cell_angle_alpha	107.215000
_cell_angle_beta	106.806000
_cell_angle_gamma	111.025000
_symmetry_Int_Tables_number 1

loop_
_symmetry_equiv_pos_as_xyz
'x,y,z'

loop_
_atom_site_label
_atom_site_type_symbol
_atom_site_fract_x
_atom_site_fract_y
_atom_site_fract_z
Zn11	Zn1	0.032680	0.259720	0.897560
Zn21	Zn2	0.635120	0.362160	0.102440
Zn31	Zn3	0.000000	0.500000	0.000000
Zn41	Zn4	0.500000	0.500000	0.000000
Zn51	Zn5	0.364880	0.637840	0.897560
Zn61	Zn6	0.967320	0.740280	0.102440
H11	H1	0.431500	0.110800	0.609000
H21	H2	0.557400	0.221400	0.796600
H31	H3	0.906500	0.787800	0.821200
H41	H4	0.738100	0.353800	0.938200
H51	H5	0.261900	0.646200	0.061800
H61	H6	0.401100	0.034900	0.288600
H71	H7	0.271500	0.509900	0.518000
H81	H8	0.219200	0.900800	0.149200
H91	H9	0.942000	0.994900	0.373000
H101	H10	0.430000	0.248400	0.149200
H111	H11	0.603800	0.664800	0.393000
H121	H12	0.414700	0.033400	0.821200
H131	H13	0.387500	0.253700	0.288600
H141	H14	0.253500	0.991900	0.482000
H151	H15	0.710200	0.552900	0.119400
H161	H16	0.746500	0.008100	0.518000
H171	H17	0.739200	0.575200	0.796600
H181	H18	0.760800	0.481800	0.338200
H191	H19	0.289800	0.447100	0.880600
H201	H20	0.112500	0.599900	0.245800
H211	H21	0.366700	0.354100	0.754200
H221	H22	0.077400	0.856400	0.338200
H231	H23	0.289200	0.728200	0.393000
H241	H24	0.553200	0.672200	0.523000
H251	H25	0.892000	0.136700	0.443000
H261	H26	0.612500	0.746300	0.711400
H271	H27	0.322500	0.501800	0.391000
H281	H28	0.108000	0.863300	0.557000
H291	H29	0.728500	0.490100	0.482000
H301	H30	0.446800	0.327800	0.477000
H311	H31	0.598900	0.965100	0.711400
H321	H32	0.570000	0.751600	0.850800
H331	H33	0.093500	0.212200	0.178800
H341	H34	0.568500	0.889200	0.391000
H351	H35	0.780800	0.099200	0.850800
H361	H36	0.949000	0.693700	0.557000
H371	H37	0.069000	0.621900	0.627000
H381	H38	0.585300	0.966600	0.178800
H391	H39	0.299900	0.415600	0.061800
H401	H40	0.922600	0.143600	0.661800
H411	H41	0.633300	0.645900	0.245800
H421	H42	0.931000	0.378100	0.373000
H431	H43	0.469800	0.850800	0.523000
H441	H44	0.887500	0.400100	0.754200
H451	H45	0.051000	0.306300	0.443000
H461	H46	0.710800	0.271800	0.607000
H471	H47	0.677500	0.498200	0.609000
H481	H48	0.396200	0.335200	0.607000
H491	H49	0.530200	0.149200	0.477000
H501	H50	0.260800	0.424800	0.203400
H511	H51	0.700100	0.584400	0.938200
H521	H52	0.058000	0.005100	0.627000
H531	H53	0.239200	0.518200	0.661800
H541	H54	0.090800	0.433500	0.880600
H551	H55	0.909200	0.566500	0.119400
H561	H56	0.442600	0.778600	0.203400
C11	C1	0.344110	0.029450	0.782340
C21	C2	0.035180	0.302280	0.376200
C31	C3	0.665570	0.440970	0.414940
C41	C4	0.350680	0.029400	0.403280
C51	C5	0.993180	0.293500	0.176840
C61	C6	0.249370	0.973970	0.414940
C71	C7	0.334430	0.559030	0.585060
C81	C8	0.164790	0.192070	0.806160
C91	C9	0.265540	0.937040	0.683580
C101	C10	0.016470	0.699170	0.924500
C111	C11	0.835210	0.807930	0.193840
C121	C12	0.918040	0.746540	0.683580
C131	C13	0.638280	0.534080	0.870680
C141	C14	0.061770	0.247110	0.217660
C151	C15	0.858630	0.385910	0.193840
C161	C16	0.506290	0.854490	0.406380
C171	C17	0.129940	0.011240	0.665940
C181	C18	0.732400	0.336600	0.870680
C191	C19	0.464520	0.301120	0.300940
C201	C20	0.683660	0.883340	0.176840
C211	C21	0.856460	0.106860	0.671920
C221	C22	0.206850	0.106080	0.765760
C231	C23	0.081960	0.253460	0.316420
C241	C24	0.773550	0.081550	0.782760
C251	C25	0.557270	0.601440	0.237380
C261	C26	0.941090	0.340320	0.234240
C271	C27	0.611000	0.229700	0.683580
C281	C28	0.389000	0.770300	0.316420
C291	C29	0.684540	0.434940	0.328080
C301	C30	0.663580	0.000180	0.699060
C311	C31	0.524420	0.378340	0.492600
C321	C32	0.938230	0.752890	0.782340
C331	C33	0.535480	0.698880	0.699060
C341	C34	0.475580	0.621660	0.507400
C351	C35	0.226450	0.918450	0.217240
C361	C36	0.599910	0.448110	0.593620
C371	C37	0.459550	0.387020	0.673360
C381	C38	0.793150	0.893920	0.234240
C391	C39	0.490790	0.298790	0.217240
C401	C40	0.447400	0.626120	0.596720
C411	C41	0.400090	0.551890	0.406380
C421	C42	0.870060	0.988760	0.334060
C431	C43	0.158980	0.926080	0.623800
C441	C44	0.141370	0.614090	0.806160
C451	C45	0.841020	0.073920	0.376200
C461	C46	0.983530	0.300830	0.075500
C471	C47	0.006820	0.706500	0.823160
C481	C48	0.750630	0.026030	0.585060
C491	C49	0.286190	0.713660	0.326640
C501	C50	0.315460	0.565060	0.671920
C511	C51	0.361720	0.465920	0.129320
C521	C52	0.623190	0.256990	0.785720
C531	C53	0.180110	0.635940	0.237380
C541	C54	0.713810	0.286340	0.673360
C551	C55	0.649320	0.970600	0.596720
C561	C56	0.408030	0.225330	0.924500
C571	C57	0.468180	0.114260	0.492600
C581	C58	0.427420	0.546120	0.316420
C591	C59	0.531820	0.885740	0.507400
C601	C60	0.058910	0.659680	0.765760
C611	C61	0.819890	0.364060	0.762620
C621	C62	0.143540	0.893140	0.328080
C631	C63	0.591970	0.774670	0.075500
C641	C64	0.964000	0.345300	0.334060
C651	C65	0.662530	0.528730	0.785720
C661	C66	0.734460	0.062960	0.316420
C671	C67	0.540450	0.612980	0.326640
C681	C68	0.376810	0.743010	0.214280
C691	C69	0.552600	0.373880	0.403280
C701	C70	0.442730	0.398560	0.762620
C711	C71	0.336420	0.999820	0.300940
C721	C72	0.267600	0.663400	0.129320
C731	C73	0.509210	0.701210	0.782760
C741	C74	0.316340	0.116660	0.823160
C751	C75	0.572580	0.453880	0.683580
C761	C76	0.655890	0.970550	0.217660
C771	C77	0.964820	0.697720	0.623800
C781	C78	0.493710	0.145510	0.593620
C791	C79	0.337470	0.471270	0.214280
C801	C80	0.036000	0.654700	0.665940
N11	N1	0.470210	0.529860	0.139540
N21	N2	0.842540	0.793140	0.639880
N31	N3	0.297340	0.846740	0.639880
N41	N4	0.830670	0.390320	0.860460
N51	N5	0.598670	0.364900	0.228840
N61	N6	0.169330	0.609680	0.139540
N71	N7	0.157460	0.206860	0.360120
N81	N8	0.130170	0.863940	0.228840
N91	N9	0.529790	0.470140	0.860460
N101	N10	0.869830	0.136060	0.771160
N111	N11	0.401330	0.635100	0.771160
N121	N12	0.702660	0.153260	0.360120
O11	O1	0.496200	0.219790	0.978900
O21	O2	0.946720	0.366480	0.054540
O31	O3	0.197130	0.162960	0.306520
O41	O4	0.392180	0.311940	0.945460
O51	O5	0.607820	0.688060	0.054540
O61	O6	0.017300	0.240890	0.021100
O71	O7	0.802870	0.837040	0.693480
O81	O8	0.351910	0.508870	0.926700
O91	O9	0.129110	0.182200	0.875140
O101	O10	0.770760	0.232960	0.447120
O111	O11	0.648090	0.491130	0.073300
O121	O12	0.823640	0.785840	0.552880
O131	O13	0.246030	0.692940	0.875140
O141	O14	0.982700	0.759110	0.978900
O151	O15	0.503800	0.780210	0.021100
O161	O16	0.390610	0.856440	0.693480
O171	O17	0.159030	0.257730	0.765320
O181	O18	0.106290	0.507590	0.765320
O191	O19	0.176360	0.214160	0.447120
O201	O20	0.925210	0.582170	0.073300
O211	O21	0.753970	0.307060	0.124860
O221	O22	0.893710	0.492410	0.234680
O231	O23	0.229240	0.767040	0.552880
O241	O24	0.609390	0.143560	0.306520
O251	O25	0.870890	0.817800	0.124860
O261	O26	0.053280	0.633520	0.945460
O271	O27	0.840970	0.742270	0.234680
O281	O28	0.074790	0.417830	0.926700
