data_GIRZAK_clean_PM
_symmetry_space_group_name_H-M	'P1'
_cell_length_a	13.838000
_cell_length_b	13.844000
_cell_length_c	14.420000
_cell_angle_alpha	108.310000
_cell_angle_beta	110.430000
_cell_angle_gamma	107.046000
_symmetry_Int_Tables_number 1

loop_
_symmetry_equiv_pos_as_xyz
'x,y,z'

loop_
_atom_site_label
_atom_site_type_symbol
_atom_site_fract_x
_atom_site_fract_y
_atom_site_fract_z
Zn11	Zn1	0.447000	0.726000	0.599800
Zn21	Zn2	0.500000	0.500000	0.500000
Zn31	Zn3	0.553000	0.274000	0.400200
Zn41	Zn4	0.155900	0.369300	0.600200
Zn51	Zn5	0.844100	0.630700	0.399800
Zn61	Zn6	0.000000	0.500000	0.500000
H11	H1	0.858300	0.004400	0.759700
H21	H2	0.554600	0.616200	0.117000
H31	H3	0.219400	0.592300	0.295600
H41	H4	0.125400	0.656300	0.766800
H51	H5	0.924500	0.777000	0.704500
H61	H6	0.357400	0.393000	0.229700
H71	H7	0.874600	0.343700	0.233200
H81	H8	0.445200	0.992500	0.872100
H91	H9	0.598800	0.857000	0.057600
H101	H10	0.623700	0.228400	0.697800
H111	H11	0.445400	0.383800	0.883000
H121	H12	0.814600	0.754700	0.917100
H131	H13	0.853800	0.456400	0.903500
H141	H14	0.557600	0.294300	0.953600
H151	H15	0.748200	0.636100	0.564700
H161	H16	0.777500	0.506700	0.009100
H171	H17	0.075500	0.223000	0.295500
H181	H18	0.376300	0.771600	0.302200
H191	H19	0.554800	0.007500	0.127900
H201	H20	0.185400	0.245300	0.082900
H211	H21	0.582200	0.866200	0.857300
H221	H22	0.814300	0.421400	0.562000
H231	H23	0.897800	0.350000	0.083000
H241	H24	0.772000	0.003400	0.991300
H251	H25	0.062500	0.654300	0.056900
H261	H26	0.962900	0.225100	0.631300
H271	H27	0.251800	0.363900	0.435300
H281	H28	0.937500	0.345700	0.943100
H291	H29	0.069100	0.956200	0.694600
H301	H30	0.222500	0.493300	0.990900
H311	H31	0.904600	0.255000	0.764400
H321	H32	0.669000	0.888500	0.624300
H331	H33	0.331000	0.111500	0.375700
H341	H34	0.102200	0.650000	0.917000
H351	H35	0.277300	0.475400	0.859900
H361	H36	0.576800	0.444300	0.375000
H371	H37	0.095400	0.745000	0.235600
H381	H38	0.780600	0.407700	0.704400
H391	H39	0.417800	0.133800	0.142700
H401	H40	0.037100	0.774900	0.368700
H411	H41	0.930900	0.043800	0.305400
H421	H42	0.141700	0.995600	0.240300
H431	H43	0.642600	0.607000	0.770300
H441	H44	0.442400	0.705700	0.046400
H451	H45	0.228000	0.996600	0.008700
H461	H46	0.722700	0.524600	0.140100
H471	H47	0.201800	0.564700	0.626800
H481	H48	0.798200	0.435300	0.373200
H491	H49	0.185700	0.578600	0.438000
H501	H50	0.146200	0.543600	0.096500
H511	H51	0.423200	0.555700	0.625000
H521	H52	0.401200	0.143000	0.942400
C11	C1	0.125000	0.533000	0.365100
C21	C2	0.924000	0.241000	0.416600
C31	C3	0.458700	0.342000	0.743900
C41	C4	0.698200	0.642000	0.754000
C51	C5	0.629000	0.611000	0.307000
C61	C6	0.805000	0.735000	0.845000
C71	C7	0.979000	0.302000	0.783000
C81	C8	0.994000	0.916000	0.921000
C91	C9	0.041400	0.597000	0.845500
C101	C10	0.673000	0.197000	0.308000
C111	C11	0.453000	0.702000	0.112200
C121	C12	0.833000	0.008000	0.886000
C131	C13	0.655000	0.925000	0.121300
C141	C14	0.039000	0.932000	0.039000
C151	C15	0.751000	0.973000	0.916000
C161	C16	0.597500	0.256000	0.829000
C171	C17	0.799000	0.568000	0.161500
C181	C18	0.201000	0.432000	0.838500
C191	C19	0.402500	0.744000	0.171000
C201	C20	0.167000	0.992000	0.114000
C211	C21	0.948000	0.613000	0.113400
C221	C22	0.014000	0.285000	0.703000
C231	C23	0.479700	0.691000	0.308900
C241	C24	0.944800	0.397000	0.247900
C251	C25	0.770000	0.942000	0.178000
C261	C26	0.132000	0.251000	0.277000
C271	C27	0.994200	0.415000	0.952500
C281	C28	0.690000	0.906000	0.698000
C291	C29	0.168000	0.445000	0.916000
C301	C30	0.958600	0.403000	0.154500
C311	C31	0.240000	0.341000	0.363000
C321	C32	0.169300	0.868000	0.682200
C331	C33	0.327000	0.803000	0.692000
C341	C34	0.371000	0.389000	0.693000
C351	C35	0.488900	0.677000	0.411400
C361	C36	0.145900	0.544000	0.278000
C371	C37	0.310000	0.094000	0.302000
C381	C38	0.803000	0.977000	0.780000
C391	C39	0.523200	0.651000	0.156000
C401	C40	0.055200	0.603000	0.752100
C411	C41	0.006000	0.084000	0.079000
C421	C42	0.854100	0.456000	0.722000
C431	C43	0.547000	0.298000	0.887800
C441	C44	0.636000	0.894000	0.836000
C451	C45	0.945500	0.520000	0.836900
C461	C46	0.005800	0.585000	0.047500
C471	C47	0.195000	0.265000	0.155000
C481	C48	0.961000	0.068000	0.961000
C491	C49	0.894000	0.798000	0.834000
C501	C50	0.230000	0.058000	0.822000
C511	C51	0.830700	0.132000	0.317800
C521	C52	0.868000	0.749000	0.723000
C531	C53	0.587600	0.259000	0.734000
C541	C54	0.301800	0.358000	0.246000
C551	C55	0.511100	0.323000	0.588600
C561	C56	0.476800	0.349000	0.844000
C571	C57	0.371000	0.985000	0.836000
C581	C58	0.285000	0.886000	0.738000
C591	C59	0.760000	0.659000	0.637000
C601	C60	0.197000	0.023000	0.220000
C611	C61	0.052000	0.387000	0.886600
C621	C62	0.364000	0.106000	0.164000
C631	C63	0.935600	0.493000	0.924100
C641	C64	0.412400	0.741000	0.266000
C651	C65	0.143000	0.962000	0.728000
C661	C66	0.021000	0.698000	0.217000
C671	C67	0.106000	0.202000	0.166000
C681	C68	0.520300	0.309000	0.691100
C691	C69	0.715000	0.114000	0.262000
C701	C70	0.249000	0.027000	0.084000
C711	C71	0.832000	0.555000	0.084000
C721	C72	0.875000	0.467000	0.634900
C731	C73	0.054500	0.480000	0.163100
C741	C74	0.076000	0.759000	0.583400
C751	C75	0.541300	0.658000	0.256100
C761	C76	0.345000	0.075000	0.878700
C771	C77	0.629000	0.015000	0.164000
C781	C78	0.857000	0.038000	0.272000
C791	C79	0.986000	0.715000	0.297000
C801	C80	0.064400	0.507000	0.075900
N11	N1	0.874200	0.644200	0.271000
N21	N2	0.326000	0.791000	0.123000
N31	N3	0.125800	0.355800	0.729000
N41	N4	0.202000	0.153000	0.866000
N51	N5	0.025400	0.461500	0.351000
N61	N6	0.672500	0.602000	0.649900
N71	N7	0.327500	0.398000	0.350100
N81	N8	0.798000	0.847000	0.134000
N91	N9	0.603600	0.858000	0.724000
N101	N10	0.396400	0.142000	0.276000
N111	N11	0.674000	0.209000	0.877000
N121	N12	0.974600	0.538500	0.649000
O11	O1	0.728300	0.684900	0.386300
O21	O2	0.569200	0.420400	0.420700
O31	O3	0.101000	0.130000	0.831000
O41	O4	0.663000	0.186000	0.949900
O51	O5	0.467700	0.382900	0.561800
O61	O6	0.149900	0.496200	0.582800
O71	O7	0.906000	0.324800	0.444000
O81	O8	0.736100	0.190000	0.838000
O91	O9	0.555000	0.271900	0.537400
O101	O10	0.337000	0.814000	0.050100
O111	O11	0.445000	0.728100	0.462600
O121	O12	0.271700	0.315100	0.613700
O131	O13	0.094000	0.675200	0.556000
O141	O14	0.850100	0.503800	0.417200
O151	O15	0.664700	0.257300	0.258300
O161	O16	0.430800	0.579600	0.579300
O171	O17	0.977900	0.762300	0.537000
O181	O18	0.346300	0.797900	0.613000
O191	O19	0.286000	0.244000	0.943000
O201	O20	0.022100	0.237700	0.463000
O211	O21	0.653700	0.202100	0.387000
O221	O22	0.404800	0.492000	0.743100
O231	O23	0.335300	0.742700	0.741700
O241	O24	0.714000	0.756000	0.057000
O251	O25	0.899000	0.870000	0.169000
O261	O26	0.532300	0.617100	0.438200
O271	O27	0.263900	0.810000	0.162000
O281	O28	0.595200	0.508000	0.256900
