data_GISWEM_clean_PM
_symmetry_space_group_name_H-M	'P1'
_cell_length_a	17.241000
_cell_length_b	15.950000
_cell_length_c	16.740000
_cell_angle_alpha	90.000000
_cell_angle_beta	108.386000
_cell_angle_gamma	90.000000
_symmetry_Int_Tables_number 1

loop_
_symmetry_equiv_pos_as_xyz
'x,y,z'

loop_
_atom_site_label
_atom_site_type_symbol
_atom_site_fract_x
_atom_site_fract_y
_atom_site_fract_z
C11	C1	0.387100	0.279800	0.305400
C21	C2	0.430300	0.311500	0.392700
C31	C3	0.504800	0.279500	0.439400
H11	H1	0.529800	0.239100	0.415900
C41	C4	0.543400	0.306500	0.521100
C51	C5	0.507100	0.369200	0.555000
H21	H2	0.532800	0.387500	0.609800
C61	C6	0.433000	0.404800	0.508400
C71	C7	0.395500	0.374000	0.427400
H31	H3	0.345400	0.396300	0.395700
C81	C8	0.621900	0.264400	0.571100
C91	C9	0.393900	0.473300	0.543000
C101	C10	0.317900	0.502200	0.500900
H41	H4	0.289400	0.478600	0.449100
C111	C11	0.282200	0.564800	0.532600
H51	H5	0.230800	0.583000	0.499700
C121	C12	0.388700	0.573000	0.645900
H61	H6	0.415700	0.597500	0.697700
C131	C13	0.428400	0.511300	0.618100
H71	H7	0.480400	0.495000	0.651300
C141	C14	0.206600	0.490600	0.196500
H81	H8	0.236700	0.518100	0.167100
C151	C15	0.177100	0.527100	0.254200
H91	H9	0.183400	0.582700	0.271800
C161	C16	0.144900	0.396400	0.240400
H101	H10	0.123700	0.344600	0.248600
C171	C17	0.096500	0.474700	0.343800
C181	C18	0.095700	0.411800	0.396800
H111	H11	0.121100	0.361200	0.392600
C191	C19	0.057300	0.421500	0.458000
H121	H12	0.057200	0.376900	0.493700
C201	C20	0.020200	0.494200	0.467000
C211	C21	0.019900	0.555500	0.410600
H131	H13	0.992700	0.605300	0.413000
C221	C22	0.057800	0.547200	0.350500
H141	H14	0.057000	0.591400	0.314100
N11	N1	0.314200	0.600800	0.604600
N21	N2	0.186000	0.408500	0.188000
N31	N3	0.136500	0.465900	0.280900
Ni11	Ni1	0.247600	0.313150	0.148500
O11	O1	0.317300	0.311000	0.270220
O21	O2	0.421200	0.227600	0.273800
O31	O3	0.656700	0.214800	0.534130
O41	O4	0.651500	0.276800	0.649350
C231	C23	0.887100	0.779800	0.305400
C241	C24	0.930300	0.811500	0.392700
C251	C25	0.004800	0.779500	0.439400
H151	H15	0.029800	0.739100	0.415900
C261	C26	0.043400	0.806500	0.521100
C271	C27	0.007100	0.869200	0.555000
H161	H16	0.032800	0.887500	0.609800
C281	C28	0.933000	0.904800	0.508400
C291	C29	0.895500	0.874000	0.427400
H171	H17	0.845400	0.896300	0.395700
C301	C30	0.121900	0.764400	0.571100
C311	C31	0.893900	0.973300	0.543000
C321	C32	0.817900	0.002200	0.500900
H181	H18	0.789400	0.978600	0.449100
C331	C33	0.782200	0.064800	0.532600
H191	H19	0.730800	0.083000	0.499700
C341	C34	0.888700	0.073000	0.645900
H201	H20	0.915700	0.097500	0.697700
C351	C35	0.928400	0.011300	0.618100
H211	H21	0.980400	0.995000	0.651300
C361	C36	0.706600	0.990600	0.196500
H221	H22	0.736700	0.018100	0.167100
C371	C37	0.677100	0.027100	0.254200
H231	H23	0.683400	0.082700	0.271800
C381	C38	0.644900	0.896400	0.240400
H241	H24	0.623700	0.844600	0.248600
C391	C39	0.596500	0.974700	0.343800
C401	C40	0.595700	0.911800	0.396800
H251	H25	0.621100	0.861200	0.392600
C411	C41	0.557300	0.921500	0.458000
H261	H26	0.557200	0.876900	0.493700
C421	C42	0.520200	0.994200	0.467000
C431	C43	0.519900	0.055500	0.410600
H271	H27	0.492700	0.105300	0.413000
C441	C44	0.557800	0.047200	0.350500
H281	H28	0.557000	0.091400	0.314100
N41	N4	0.814200	0.100800	0.604600
N51	N5	0.686000	0.908500	0.188000
N61	N6	0.636500	0.965900	0.280900
Ni21	Ni2	0.747600	0.813150	0.148500
O51	O5	0.817300	0.811000	0.270220
O61	O6	0.921200	0.727600	0.273800
O71	O7	0.156700	0.714800	0.534130
O81	O8	0.151500	0.776800	0.649350
C451	C45	0.612900	0.279800	0.194600
C461	C46	0.569700	0.311500	0.107300
C471	C47	0.495200	0.279500	0.060600
H291	H29	0.470200	0.239100	0.084100
C481	C48	0.456600	0.306500	0.978900
C491	C49	0.492900	0.369200	0.945000
H301	H30	0.467200	0.387500	0.890200
C501	C50	0.567000	0.404800	0.991600
C511	C51	0.604500	0.374000	0.072600
H311	H31	0.654600	0.396300	0.104300
C521	C52	0.378100	0.264400	0.928900
C531	C53	0.606100	0.473300	0.957000
C541	C54	0.682100	0.502200	0.999100
H321	H32	0.710600	0.478600	0.050900
C551	C55	0.717800	0.564800	0.967400
H331	H33	0.769200	0.583000	0.000300
C561	C56	0.611300	0.573000	0.854100
H341	H34	0.584300	0.597500	0.802300
C571	C57	0.571600	0.511300	0.881900
H351	H35	0.519600	0.495000	0.848700
C581	C58	0.793400	0.490600	0.303500
H361	H36	0.763300	0.518100	0.332900
C591	C59	0.822900	0.527100	0.245800
H371	H37	0.816600	0.582700	0.228200
C601	C60	0.855100	0.396400	0.259600
H381	H38	0.876300	0.344600	0.251400
C611	C61	0.903500	0.474700	0.156200
C621	C62	0.904300	0.411800	0.103200
H391	H39	0.878900	0.361200	0.107400
C631	C63	0.942700	0.421500	0.042000
H401	H40	0.942800	0.376900	0.006300
C641	C64	0.979800	0.494200	0.033000
C651	C65	0.980100	0.555500	0.089400
H411	H41	0.007300	0.605300	0.087000
C661	C66	0.942200	0.547200	0.149500
H421	H42	0.943000	0.591400	0.185900
N71	N7	0.685800	0.600800	0.895400
N81	N8	0.814000	0.408500	0.312000
N91	N9	0.863500	0.465900	0.219100
Ni31	Ni3	0.752400	0.313150	0.351500
O91	O9	0.682700	0.311000	0.229780
O101	O10	0.578800	0.227600	0.226200
O111	O11	0.343300	0.214800	0.965870
O121	O12	0.348500	0.276800	0.850650
C671	C67	0.112900	0.779800	0.194600
C681	C68	0.069700	0.811500	0.107300
C691	C69	0.995200	0.779500	0.060600
H431	H43	0.970200	0.739100	0.084100
C701	C70	0.956600	0.806500	0.978900
C711	C71	0.992900	0.869200	0.945000
H441	H44	0.967200	0.887500	0.890200
C721	C72	0.067000	0.904800	0.991600
C731	C73	0.104500	0.874000	0.072600
H451	H45	0.154600	0.896300	0.104300
C741	C74	0.878100	0.764400	0.928900
C751	C75	0.106100	0.973300	0.957000
C761	C76	0.182100	0.002200	0.999100
H461	H46	0.210600	0.978600	0.050900
C771	C77	0.217800	0.064800	0.967400
H471	H47	0.269200	0.083000	0.000300
C781	C78	0.111300	0.073000	0.854100
H481	H48	0.084300	0.097500	0.802300
C791	C79	0.071600	0.011300	0.881900
H491	H49	0.019600	0.995000	0.848700
C801	C80	0.293400	0.990600	0.303500
H501	H50	0.263300	0.018100	0.332900
C811	C81	0.322900	0.027100	0.245800
H511	H51	0.316600	0.082700	0.228200
C821	C82	0.355100	0.896400	0.259600
H521	H52	0.376300	0.844600	0.251400
C831	C83	0.403500	0.974700	0.156200
C841	C84	0.404300	0.911800	0.103200
H531	H53	0.378900	0.861200	0.107400
C851	C85	0.442700	0.921500	0.042000
H541	H54	0.442800	0.876900	0.006300
C861	C86	0.479800	0.994200	0.033000
C871	C87	0.480100	0.055500	0.089400
H551	H55	0.507300	0.105300	0.087000
C881	C88	0.442200	0.047200	0.149500
H561	H56	0.443000	0.091400	0.185900
N101	N10	0.185800	0.100800	0.895400
N111	N11	0.314000	0.908500	0.312000
N121	N12	0.363500	0.965900	0.219100
Ni41	Ni4	0.252400	0.813150	0.351500
O131	O13	0.182700	0.811000	0.229780
O141	O14	0.078800	0.727600	0.226200
O151	O15	0.843300	0.714800	0.965870
O161	O16	0.848500	0.776800	0.850650
C891	C89	0.612900	0.720200	0.694600
C901	C90	0.569700	0.688500	0.607300
C911	C91	0.495200	0.720500	0.560600
H571	H57	0.470200	0.760900	0.584100
C921	C92	0.456600	0.693500	0.478900
C931	C93	0.492900	0.630800	0.445000
H581	H58	0.467200	0.612500	0.390200
C941	C94	0.567000	0.595200	0.491600
C951	C95	0.604500	0.626000	0.572600
H591	H59	0.654600	0.603700	0.604300
C961	C96	0.378100	0.735600	0.428900
C971	C97	0.606100	0.526700	0.457000
C981	C98	0.682100	0.497800	0.499100
H601	H60	0.710600	0.521400	0.550900
C991	C99	0.717800	0.435200	0.467400
H611	H61	0.769200	0.417000	0.500300
C1001	C100	0.611300	0.427000	0.354100
H621	H62	0.584300	0.402500	0.302300
C1011	C101	0.571600	0.488700	0.381900
H631	H63	0.519600	0.505000	0.348700
C1021	C102	0.793400	0.509400	0.803500
H641	H64	0.763300	0.481900	0.832900
C1031	C103	0.822900	0.472900	0.745800
H651	H65	0.816600	0.417300	0.728200
C1041	C104	0.855100	0.603600	0.759600
H661	H66	0.876300	0.655400	0.751400
C1051	C105	0.903500	0.525300	0.656200
C1061	C106	0.904300	0.588200	0.603200
H671	H67	0.878900	0.638800	0.607400
C1071	C107	0.942700	0.578500	0.542000
H681	H68	0.942800	0.623100	0.506300
C1081	C108	0.979800	0.505800	0.533000
C1091	C109	0.980100	0.444500	0.589400
H691	H69	0.007300	0.394700	0.587000
C1101	C110	0.942200	0.452800	0.649500
H701	H70	0.943000	0.408600	0.685900
N131	N13	0.685800	0.399200	0.395400
N141	N14	0.814000	0.591500	0.812000
N151	N15	0.863500	0.534100	0.719100
Ni51	Ni5	0.752400	0.686850	0.851500
O171	O17	0.682700	0.689000	0.729780
O181	O18	0.578800	0.772400	0.726200
O191	O19	0.343300	0.785200	0.465870
O201	O20	0.348500	0.723200	0.350650
C1111	C111	0.112900	0.220200	0.694600
C1121	C112	0.069700	0.188500	0.607300
C1131	C113	0.995200	0.220500	0.560600
H711	H71	0.970200	0.260900	0.584100
C1141	C114	0.956600	0.193500	0.478900
C1151	C115	0.992900	0.130800	0.445000
H721	H72	0.967200	0.112500	0.390200
C1161	C116	0.067000	0.095200	0.491600
C1171	C117	0.104500	0.126000	0.572600
H731	H73	0.154600	0.103700	0.604300
C1181	C118	0.878100	0.235600	0.428900
C1191	C119	0.106100	0.026700	0.457000
C1201	C120	0.182100	0.997800	0.499100
H741	H74	0.210600	0.021400	0.550900
C1211	C121	0.217800	0.935200	0.467400
H751	H75	0.269200	0.917000	0.500300
C1221	C122	0.111300	0.927000	0.354100
H761	H76	0.084300	0.902500	0.302300
C1231	C123	0.071600	0.988700	0.381900
H771	H77	0.019600	0.005000	0.348700
C1241	C124	0.293400	0.009400	0.803500
H781	H78	0.263300	0.981900	0.832900
C1251	C125	0.322900	0.972900	0.745800
H791	H79	0.316600	0.917300	0.728200
C1261	C126	0.355100	0.103600	0.759600
H801	H80	0.376300	0.155400	0.751400
C1271	C127	0.403500	0.025300	0.656200
C1281	C128	0.404300	0.088200	0.603200
H811	H81	0.378900	0.138800	0.607400
C1291	C129	0.442700	0.078500	0.542000
H821	H82	0.442800	0.123100	0.506300
C1301	C130	0.479800	0.005800	0.533000
C1311	C131	0.480100	0.944500	0.589400
H831	H83	0.507300	0.894700	0.587000
C1321	C132	0.442200	0.952800	0.649500
H841	H84	0.443000	0.908600	0.685900
N161	N16	0.185800	0.899200	0.395400
N171	N17	0.314000	0.091500	0.812000
N181	N18	0.363500	0.034100	0.719100
Ni61	Ni6	0.252400	0.186850	0.851500
O211	O21	0.182700	0.189000	0.729780
O221	O22	0.078800	0.272400	0.726200
O231	O23	0.843300	0.285200	0.465870
O241	O24	0.848500	0.223200	0.350650
C1331	C133	0.387100	0.720200	0.805400
C1341	C134	0.430300	0.688500	0.892700
C1351	C135	0.504800	0.720500	0.939400
H851	H85	0.529800	0.760900	0.915900
C1361	C136	0.543400	0.693500	0.021100
C1371	C137	0.507100	0.630800	0.055000
H861	H86	0.532800	0.612500	0.109800
C1381	C138	0.433000	0.595200	0.008400
C1391	C139	0.395500	0.626000	0.927400
H871	H87	0.345400	0.603700	0.895700
C1401	C140	0.621900	0.735600	0.071100
C1411	C141	0.393900	0.526700	0.043000
C1421	C142	0.317900	0.497800	0.000900
H881	H88	0.289400	0.521400	0.949100
C1431	C143	0.282200	0.435200	0.032600
H891	H89	0.230800	0.417000	0.999700
C1441	C144	0.388700	0.427000	0.145900
H901	H90	0.415700	0.402500	0.197700
C1451	C145	0.428400	0.488700	0.118100
H911	H91	0.480400	0.505000	0.151300
C1461	C146	0.206600	0.509400	0.696500
H921	H92	0.236700	0.481900	0.667100
C1471	C147	0.177100	0.472900	0.754200
H931	H93	0.183400	0.417300	0.771800
C1481	C148	0.144900	0.603600	0.740400
H941	H94	0.123700	0.655400	0.748600
C1491	C149	0.096500	0.525300	0.843800
C1501	C150	0.095700	0.588200	0.896800
H951	H95	0.121100	0.638800	0.892600
C1511	C151	0.057300	0.578500	0.958000
H961	H96	0.057200	0.623100	0.993700
C1521	C152	0.020200	0.505800	0.967000
C1531	C153	0.019900	0.444500	0.910600
H971	H97	0.992700	0.394700	0.913000
C1541	C154	0.057800	0.452800	0.850500
H981	H98	0.057000	0.408600	0.814100
N191	N19	0.314200	0.399200	0.104600
N201	N20	0.186000	0.591500	0.688000
N211	N21	0.136500	0.534100	0.780900
Ni71	Ni7	0.247600	0.686850	0.648500
O251	O25	0.317300	0.689000	0.770220
O261	O26	0.421200	0.772400	0.773800
O271	O27	0.656700	0.785200	0.034130
O281	O28	0.651500	0.723200	0.149350
C1551	C155	0.887100	0.220200	0.805400
C1561	C156	0.930300	0.188500	0.892700
C1571	C157	0.004800	0.220500	0.939400
H991	H99	0.029800	0.260900	0.915900
C1581	C158	0.043400	0.193500	0.021100
C1591	C159	0.007100	0.130800	0.055000
H1001	H100	0.032800	0.112500	0.109800
C1601	C160	0.933000	0.095200	0.008400
C1611	C161	0.895500	0.126000	0.927400
H1011	H101	0.845400	0.103700	0.895700
C1621	C162	0.121900	0.235600	0.071100
C1631	C163	0.893900	0.026700	0.043000
C1641	C164	0.817900	0.997800	0.000900
H1021	H102	0.789400	0.021400	0.949100
C1651	C165	0.782200	0.935200	0.032600
H1031	H103	0.730800	0.917000	0.999700
C1661	C166	0.888700	0.927000	0.145900
H1041	H104	0.915700	0.902500	0.197700
C1671	C167	0.928400	0.988700	0.118100
H1051	H105	0.980400	0.005000	0.151300
C1681	C168	0.706600	0.009400	0.696500
H1061	H106	0.736700	0.981900	0.667100
C1691	C169	0.677100	0.972900	0.754200
H1071	H107	0.683400	0.917300	0.771800
C1701	C170	0.644900	0.103600	0.740400
H1081	H108	0.623700	0.155400	0.748600
C1711	C171	0.596500	0.025300	0.843800
C1721	C172	0.595700	0.088200	0.896800
H1091	H109	0.621100	0.138800	0.892600
C1731	C173	0.557300	0.078500	0.958000
H1101	H110	0.557200	0.123100	0.993700
C1741	C174	0.520200	0.005800	0.967000
C1751	C175	0.519900	0.944500	0.910600
H1111	H111	0.492700	0.894700	0.913000
C1761	C176	0.557800	0.952800	0.850500
H1121	H112	0.557000	0.908600	0.814100
N221	N22	0.814200	0.899200	0.104600
N231	N23	0.686000	0.091500	0.688000
N241	N24	0.636500	0.034100	0.780900
Ni81	Ni8	0.747600	0.186850	0.648500
O291	O29	0.817300	0.189000	0.770220
O301	O30	0.921200	0.272400	0.773800
O311	O31	0.156700	0.285200	0.034130
O321	O32	0.151500	0.223200	0.149350
