data_GISZUD_clean_PM
_symmetry_space_group_name_H-M	'P1'
_cell_length_a	8.497000
_cell_length_b	9.167000
_cell_length_c	12.570000
_cell_angle_alpha	90.000000
_cell_angle_beta	90.000000
_cell_angle_gamma	90.000000
_symmetry_Int_Tables_number 1

loop_
_symmetry_equiv_pos_as_xyz
'x,y,z'

loop_
_atom_site_label
_atom_site_type_symbol
_atom_site_fract_x
_atom_site_fract_y
_atom_site_fract_z
C11	C1	0.518500	0.445300	0.979000
C21	C2	0.981500	0.554700	0.479000
C31	C3	0.481500	0.945300	0.021000
C41	C4	0.018500	0.054700	0.521000
C51	C5	0.481500	0.554700	0.021000
C61	C6	0.018500	0.445300	0.521000
C71	C7	0.518500	0.054700	0.979000
C81	C8	0.981500	0.945300	0.479000
Cd11	Cd1	0.593600	0.250000	0.895600
C91	C9	0.386600	0.250000	0.778500
C101	C10	0.786400	0.250000	0.782000
Cd21	Cd2	0.906400	0.750000	0.395600
C111	C11	0.113400	0.750000	0.278500
C121	C12	0.713600	0.750000	0.282000
Cd31	Cd3	0.406400	0.750000	0.104400
C131	C13	0.613400	0.750000	0.221500
C141	C14	0.213600	0.750000	0.218000
Cd41	Cd4	0.093600	0.250000	0.604400
C151	C15	0.886600	0.250000	0.721500
C161	C16	0.286400	0.250000	0.718000
