data_GITTUZ_clean_PM
_symmetry_space_group_name_H-M	'P1'
_cell_length_a	18.488200
_cell_length_b	26.640700
_cell_length_c	26.640700
_cell_angle_alpha	120.000000
_cell_angle_beta	90.000000
_cell_angle_gamma	90.000000
_symmetry_Int_Tables_number 1

loop_
_symmetry_equiv_pos_as_xyz
'x,y,z'

loop_
_atom_site_label
_atom_site_type_symbol
_atom_site_fract_x
_atom_site_fract_y
_atom_site_fract_z
Zn11	Zn1	0.412820	0.891770	0.331770
Zn21	Zn2	0.412820	0.440000	0.108230
Zn31	Zn3	0.412820	0.668230	0.560000
Zn41	Zn4	0.912820	0.108230	0.668230
Zn51	Zn5	0.912820	0.560000	0.891770
Zn61	Zn6	0.912820	0.331770	0.440000
Zn71	Zn7	0.587180	0.560000	0.668230
Zn81	Zn8	0.587180	0.331770	0.891770
Zn91	Zn9	0.587180	0.108230	0.440000
Zn101	Zn10	0.087180	0.440000	0.331770
Zn111	Zn11	0.087180	0.668230	0.108230
Zn121	Zn12	0.087180	0.891770	0.560000
Zn131	Zn13	0.587180	0.108230	0.668230
Zn141	Zn14	0.587180	0.560000	0.891770
Zn151	Zn15	0.587180	0.331770	0.440000
Zn161	Zn16	0.087180	0.891770	0.331770
Zn171	Zn17	0.087180	0.440000	0.108230
Zn181	Zn18	0.087180	0.668230	0.560000
Zn191	Zn19	0.412820	0.440000	0.331770
Zn201	Zn20	0.412820	0.668230	0.108230
Zn211	Zn21	0.412820	0.891770	0.560000
Zn221	Zn22	0.912820	0.560000	0.668230
Zn231	Zn23	0.912820	0.331770	0.891770
Zn241	Zn24	0.912820	0.108230	0.440000
H11	H1	0.580000	0.872400	0.302900
H21	H2	0.688800	0.833100	0.254500
H31	H3	0.505300	0.808700	0.355400
H41	H4	0.428300	0.911700	0.219000
H51	H5	0.469000	0.954700	0.165100
H61	H6	0.310500	0.982400	0.314400
H71	H7	0.580000	0.430500	0.127600
H81	H8	0.688800	0.421400	0.166900
H91	H9	0.505300	0.546700	0.191300
H101	H10	0.428300	0.307300	0.088300
H111	H11	0.469000	0.210400	0.045300
H121	H12	0.310500	0.332000	0.017600
H131	H13	0.580000	0.697100	0.569500
H141	H14	0.688800	0.745500	0.578600
H151	H15	0.505300	0.644600	0.453300
H161	H16	0.428300	0.781000	0.692700
H171	H17	0.469000	0.834900	0.789600
H181	H18	0.310500	0.685600	0.668000
H191	H19	0.080000	0.127600	0.697100
H201	H20	0.188800	0.166900	0.745500
H211	H21	0.005300	0.191300	0.644600
H221	H22	0.928300	0.088300	0.781000
H231	H23	0.969000	0.045300	0.834900
H241	H24	0.810500	0.017600	0.685600
H251	H25	0.080000	0.569500	0.872400
H261	H26	0.188800	0.578600	0.833100
H271	H27	0.005300	0.453300	0.808700
H281	H28	0.928300	0.692700	0.911700
H291	H29	0.969000	0.789600	0.954700
H301	H30	0.810500	0.668000	0.982400
H311	H31	0.080000	0.302900	0.430500
H321	H32	0.188800	0.254500	0.421400
H331	H33	0.005300	0.355400	0.546700
H341	H34	0.928300	0.219000	0.307300
H351	H35	0.969000	0.165100	0.210400
H361	H36	0.810500	0.314400	0.332000
H371	H37	0.420000	0.569500	0.697100
H381	H38	0.311200	0.578600	0.745500
H391	H39	0.494700	0.453300	0.644600
H401	H40	0.571700	0.692700	0.781000
H411	H41	0.531000	0.789600	0.834900
H421	H42	0.689500	0.668000	0.685600
H431	H43	0.420000	0.302900	0.872400
H441	H44	0.311200	0.254500	0.833100
H451	H45	0.494700	0.355400	0.808700
H461	H46	0.571700	0.219000	0.911700
H471	H47	0.531000	0.165100	0.954700
H481	H48	0.689500	0.314400	0.982400
H491	H49	0.420000	0.127600	0.430500
H501	H50	0.311200	0.166900	0.421400
H511	H51	0.494700	0.191300	0.546700
H521	H52	0.571700	0.088300	0.307300
H531	H53	0.531000	0.045300	0.210400
H541	H54	0.689500	0.017600	0.332000
H551	H55	0.920000	0.430500	0.302900
H561	H56	0.811200	0.421400	0.254500
H571	H57	0.994700	0.546700	0.355400
H581	H58	0.071700	0.307300	0.219000
H591	H59	0.031000	0.210400	0.165100
H601	H60	0.189500	0.332000	0.314400
H611	H61	0.920000	0.697100	0.127600
H621	H62	0.811200	0.745500	0.166900
H631	H63	0.994700	0.644600	0.191300
H641	H64	0.071700	0.781000	0.088300
H651	H65	0.031000	0.834900	0.045300
H661	H66	0.189500	0.685600	0.017600
H671	H67	0.920000	0.872400	0.569500
H681	H68	0.811200	0.833100	0.578600
H691	H69	0.994700	0.808700	0.453300
H701	H70	0.071700	0.911700	0.692700
H711	H71	0.031000	0.954700	0.789600
H721	H72	0.189500	0.982400	0.668000
H731	H73	0.420000	0.127600	0.697100
H741	H74	0.311200	0.166900	0.745500
H751	H75	0.494700	0.191300	0.644600
H761	H76	0.571700	0.088300	0.781000
H771	H77	0.531000	0.045300	0.834900
H781	H78	0.689500	0.017600	0.685600
H791	H79	0.420000	0.569500	0.872400
H801	H80	0.311200	0.578600	0.833100
H811	H81	0.494700	0.453300	0.808700
H821	H82	0.571700	0.692700	0.911700
H831	H83	0.531000	0.789600	0.954700
H841	H84	0.689500	0.668000	0.982400
H851	H85	0.420000	0.302900	0.430500
H861	H86	0.311200	0.254500	0.421400
H871	H87	0.494700	0.355400	0.546700
H881	H88	0.571700	0.219000	0.307300
H891	H89	0.531000	0.165100	0.210400
H901	H90	0.689500	0.314400	0.332000
H911	H91	0.920000	0.872400	0.302900
H921	H92	0.811200	0.833100	0.254500
H931	H93	0.994700	0.808700	0.355400
H941	H94	0.071700	0.911700	0.219000
H951	H95	0.031000	0.954700	0.165100
H961	H96	0.189500	0.982400	0.314400
H971	H97	0.920000	0.430500	0.127600
H981	H98	0.811200	0.421400	0.166900
H991	H99	0.994700	0.546700	0.191300
H1001	H100	0.071700	0.307300	0.088300
H1011	H101	0.031000	0.210400	0.045300
H1021	H102	0.189500	0.332000	0.017600
H1031	H103	0.920000	0.697100	0.569500
H1041	H104	0.811200	0.745500	0.578600
H1051	H105	0.994700	0.644600	0.453300
H1061	H106	0.071700	0.781000	0.692700
H1071	H107	0.031000	0.834900	0.789600
H1081	H108	0.189500	0.685600	0.668000
H1091	H109	0.580000	0.430500	0.302900
H1101	H110	0.688800	0.421400	0.254500
H1111	H111	0.505300	0.546700	0.355400
H1121	H112	0.428300	0.307300	0.219000
H1131	H113	0.469000	0.210400	0.165100
H1141	H114	0.310500	0.332000	0.314400
H1151	H115	0.580000	0.697100	0.127600
H1161	H116	0.688800	0.745500	0.166900
H1171	H117	0.505300	0.644600	0.191300
H1181	H118	0.428300	0.781000	0.088300
H1191	H119	0.469000	0.834900	0.045300
H1201	H120	0.310500	0.685600	0.017600
H1211	H121	0.580000	0.872400	0.569500
H1221	H122	0.688800	0.833100	0.578600
H1231	H123	0.505300	0.808700	0.453300
H1241	H124	0.428300	0.911700	0.692700
H1251	H125	0.469000	0.954700	0.789600
H1261	H126	0.310500	0.982400	0.668000
H1271	H127	0.080000	0.569500	0.697100
H1281	H128	0.188800	0.578600	0.745500
H1291	H129	0.005300	0.453300	0.644600
H1301	H130	0.928300	0.692700	0.781000
H1311	H131	0.969000	0.789600	0.834900
H1321	H132	0.810500	0.668000	0.685600
H1331	H133	0.080000	0.302900	0.872400
H1341	H134	0.188800	0.254500	0.833100
H1351	H135	0.005300	0.355400	0.808700
H1361	H136	0.928300	0.219000	0.911700
H1371	H137	0.969000	0.165100	0.954700
H1381	H138	0.810500	0.314400	0.982400
H1391	H139	0.080000	0.127600	0.430500
H1401	H140	0.188800	0.166900	0.421400
H1411	H141	0.005300	0.191300	0.546700
H1421	H142	0.928300	0.088300	0.307300
H1431	H143	0.969000	0.045300	0.210400
H1441	H144	0.810500	0.017600	0.332000
H1451	H145	0.362600	0.778950	0.221050
H1461	H146	0.362600	0.442100	0.221050
H1471	H147	0.362600	0.778950	0.557900
H1481	H148	0.862600	0.221050	0.778950
H1491	H149	0.862600	0.557900	0.778950
H1501	H150	0.862600	0.221050	0.442100
H1511	H151	0.637400	0.557900	0.778950
H1521	H152	0.637400	0.221050	0.778950
H1531	H153	0.637400	0.221050	0.442100
H1541	H154	0.137400	0.442100	0.221050
H1551	H155	0.137400	0.778950	0.221050
H1561	H156	0.137400	0.778950	0.557900
H1571	H157	0.500000	0.000000	0.419600
H1581	H158	0.500000	0.419600	0.000000
H1591	H159	0.500000	0.580400	0.580400
H1601	H160	0.000000	0.000000	0.580400
H1611	H161	0.000000	0.580400	0.000000
H1621	H162	0.000000	0.419600	0.419600
H1631	H163	0.500000	0.000000	0.580400
H1641	H164	0.500000	0.580400	0.000000
H1651	H165	0.500000	0.419600	0.419600
H1661	H166	0.000000	0.000000	0.419600
H1671	H167	0.000000	0.419600	0.000000
H1681	H168	0.000000	0.580400	0.580400
C11	C1	0.515000	0.810200	0.241900
C21	C2	0.579900	0.837400	0.266500
C31	C3	0.644500	0.813700	0.238300
C41	C4	0.482000	0.836700	0.389900
C51	C5	0.479000	0.972900	0.295400
C61	C6	0.457000	0.945900	0.236400
C71	C7	0.479900	0.972700	0.205300
C81	C8	0.280400	0.954400	0.316100
C91	C9	0.515000	0.431700	0.189800
C101	C10	0.579900	0.429100	0.162600
C111	C11	0.644500	0.424600	0.186300
C121	C12	0.482000	0.553200	0.163300
C131	C13	0.479000	0.322500	0.027100
C141	C14	0.457000	0.290500	0.054100
C151	C15	0.479900	0.232600	0.027300
C161	C16	0.280400	0.361700	0.045600
C171	C17	0.515000	0.758100	0.568300
C181	C18	0.579900	0.733500	0.570900
C191	C19	0.644500	0.761700	0.575400
C201	C20	0.482000	0.610100	0.446800
C211	C21	0.479000	0.704600	0.677500
C221	C22	0.457000	0.763600	0.709500
C231	C23	0.479900	0.794700	0.767400
C241	C24	0.280400	0.683900	0.638300
C251	C25	0.015000	0.189800	0.758100
C261	C26	0.079900	0.162600	0.733500
C271	C27	0.144500	0.186300	0.761700
C281	C28	0.982000	0.163300	0.610100
C291	C29	0.979000	0.027100	0.704600
C301	C30	0.957000	0.054100	0.763600
C311	C31	0.979900	0.027300	0.794700
C321	C32	0.780400	0.045600	0.683900
C331	C33	0.015000	0.568300	0.810200
C341	C34	0.079900	0.570900	0.837400
C351	C35	0.144500	0.575400	0.813700
C361	C36	0.982000	0.446800	0.836700
C371	C37	0.979000	0.677500	0.972900
C381	C38	0.957000	0.709500	0.945900
C391	C39	0.979900	0.767400	0.972700
C401	C40	0.780400	0.638300	0.954400
C411	C41	0.015000	0.241900	0.431700
C421	C42	0.079900	0.266500	0.429100
C431	C43	0.144500	0.238300	0.424600
C441	C44	0.982000	0.389900	0.553200
C451	C45	0.979000	0.295400	0.322500
C461	C46	0.957000	0.236400	0.290500
C471	C47	0.979900	0.205300	0.232600
C481	C48	0.780400	0.316100	0.361700
C491	C49	0.485000	0.568300	0.758100
C501	C50	0.420100	0.570900	0.733500
C511	C51	0.355500	0.575400	0.761700
C521	C52	0.518000	0.446800	0.610100
C531	C53	0.521000	0.677500	0.704600
C541	C54	0.543000	0.709500	0.763600
C551	C55	0.520100	0.767400	0.794700
C561	C56	0.719600	0.638300	0.683900
C571	C57	0.485000	0.241900	0.810200
C581	C58	0.420100	0.266500	0.837400
C591	C59	0.355500	0.238300	0.813700
C601	C60	0.518000	0.389900	0.836700
C611	C61	0.521000	0.295400	0.972900
C621	C62	0.543000	0.236400	0.945900
C631	C63	0.520100	0.205300	0.972700
C641	C64	0.719600	0.316100	0.954400
C651	C65	0.485000	0.189800	0.431700
C661	C66	0.420100	0.162600	0.429100
C671	C67	0.355500	0.186300	0.424600
C681	C68	0.518000	0.163300	0.553200
C691	C69	0.521000	0.027100	0.322500
C701	C70	0.543000	0.054100	0.290500
C711	C71	0.520100	0.027300	0.232600
C721	C72	0.719600	0.045600	0.361700
C731	C73	0.985000	0.431700	0.241900
C741	C74	0.920100	0.429100	0.266500
C751	C75	0.855500	0.424600	0.238300
C761	C76	0.018000	0.553200	0.389900
C771	C77	0.021000	0.322500	0.295400
C781	C78	0.043000	0.290500	0.236400
C791	C79	0.020100	0.232600	0.205300
C801	C80	0.219600	0.361700	0.316100
C811	C81	0.985000	0.758100	0.189800
C821	C82	0.920100	0.733500	0.162600
C831	C83	0.855500	0.761700	0.186300
C841	C84	0.018000	0.610100	0.163300
C851	C85	0.021000	0.704600	0.027100
C861	C86	0.043000	0.763600	0.054100
C871	C87	0.020100	0.794700	0.027300
C881	C88	0.219600	0.683900	0.045600
C891	C89	0.985000	0.810200	0.568300
C901	C90	0.920100	0.837400	0.570900
C911	C91	0.855500	0.813700	0.575400
C921	C92	0.018000	0.836700	0.446800
C931	C93	0.021000	0.972900	0.677500
C941	C94	0.043000	0.945900	0.709500
C951	C95	0.020100	0.972700	0.767400
C961	C96	0.219600	0.954400	0.638300
C971	C97	0.485000	0.189800	0.758100
C981	C98	0.420100	0.162600	0.733500
C991	C99	0.355500	0.186300	0.761700
C1001	C100	0.518000	0.163300	0.610100
C1011	C101	0.521000	0.027100	0.704600
C1021	C102	0.543000	0.054100	0.763600
C1031	C103	0.520100	0.027300	0.794700
C1041	C104	0.719600	0.045600	0.683900
C1051	C105	0.485000	0.568300	0.810200
C1061	C106	0.420100	0.570900	0.837400
C1071	C107	0.355500	0.575400	0.813700
C1081	C108	0.518000	0.446800	0.836700
C1091	C109	0.521000	0.677500	0.972900
C1101	C110	0.543000	0.709500	0.945900
C1111	C111	0.520100	0.767400	0.972700
C1121	C112	0.719600	0.638300	0.954400
C1131	C113	0.485000	0.241900	0.431700
C1141	C114	0.420100	0.266500	0.429100
C1151	C115	0.355500	0.238300	0.424600
C1161	C116	0.518000	0.389900	0.553200
C1171	C117	0.521000	0.295400	0.322500
C1181	C118	0.543000	0.236400	0.290500
C1191	C119	0.520100	0.205300	0.232600
C1201	C120	0.719600	0.316100	0.361700
C1211	C121	0.985000	0.810200	0.241900
C1221	C122	0.920100	0.837400	0.266500
C1231	C123	0.855500	0.813700	0.238300
C1241	C124	0.018000	0.836700	0.389900
C1251	C125	0.021000	0.972900	0.295400
C1261	C126	0.043000	0.945900	0.236400
C1271	C127	0.020100	0.972700	0.205300
C1281	C128	0.219600	0.954400	0.316100
C1291	C129	0.985000	0.431700	0.189800
C1301	C130	0.920100	0.429100	0.162600
C1311	C131	0.855500	0.424600	0.186300
C1321	C132	0.018000	0.553200	0.163300
C1331	C133	0.021000	0.322500	0.027100
C1341	C134	0.043000	0.290500	0.054100
C1351	C135	0.020100	0.232600	0.027300
C1361	C136	0.219600	0.361700	0.045600
C1371	C137	0.985000	0.758100	0.568300
C1381	C138	0.920100	0.733500	0.570900
C1391	C139	0.855500	0.761700	0.575400
C1401	C140	0.018000	0.610100	0.446800
C1411	C141	0.021000	0.704600	0.677500
C1421	C142	0.043000	0.763600	0.709500
C1431	C143	0.020100	0.794700	0.767400
C1441	C144	0.219600	0.683900	0.638300
C1451	C145	0.515000	0.431700	0.241900
C1461	C146	0.579900	0.429100	0.266500
C1471	C147	0.644500	0.424600	0.238300
C1481	C148	0.482000	0.553200	0.389900
C1491	C149	0.479000	0.322500	0.295400
C1501	C150	0.457000	0.290500	0.236400
C1511	C151	0.479900	0.232600	0.205300
C1521	C152	0.280400	0.361700	0.316100
C1531	C153	0.515000	0.758100	0.189800
C1541	C154	0.579900	0.733500	0.162600
C1551	C155	0.644500	0.761700	0.186300
C1561	C156	0.482000	0.610100	0.163300
C1571	C157	0.479000	0.704600	0.027100
C1581	C158	0.457000	0.763600	0.054100
C1591	C159	0.479900	0.794700	0.027300
C1601	C160	0.280400	0.683900	0.045600
C1611	C161	0.515000	0.810200	0.568300
C1621	C162	0.579900	0.837400	0.570900
C1631	C163	0.644500	0.813700	0.575400
C1641	C164	0.482000	0.836700	0.446800
C1651	C165	0.479000	0.972900	0.677500
C1661	C166	0.457000	0.945900	0.709500
C1671	C167	0.479900	0.972700	0.767400
C1681	C168	0.280400	0.954400	0.638300
C1691	C169	0.015000	0.568300	0.758100
C1701	C170	0.079900	0.570900	0.733500
C1711	C171	0.144500	0.575400	0.761700
C1721	C172	0.982000	0.446800	0.610100
C1731	C173	0.979000	0.677500	0.704600
C1741	C174	0.957000	0.709500	0.763600
C1751	C175	0.979900	0.767400	0.794700
C1761	C176	0.780400	0.638300	0.683900
C1771	C177	0.015000	0.241900	0.810200
C1781	C178	0.079900	0.266500	0.837400
C1791	C179	0.144500	0.238300	0.813700
C1801	C180	0.982000	0.389900	0.836700
C1811	C181	0.979000	0.295400	0.972900
C1821	C182	0.957000	0.236400	0.945900
C1831	C183	0.979900	0.205300	0.972700
C1841	C184	0.780400	0.316100	0.954400
C1851	C185	0.015000	0.189800	0.431700
C1861	C186	0.079900	0.162600	0.429100
C1871	C187	0.144500	0.186300	0.424600
C1881	C188	0.982000	0.163300	0.553200
C1891	C189	0.979000	0.027100	0.322500
C1901	C190	0.957000	0.054100	0.290500
C1911	C191	0.979900	0.027300	0.232600
C1921	C192	0.780400	0.045600	0.361700
C1931	C193	0.413800	0.780550	0.219450
C1941	C194	0.413800	0.438900	0.219450
C1951	C195	0.413800	0.780550	0.561100
C1961	C196	0.913800	0.219450	0.780550
C1971	C197	0.913800	0.561100	0.780550
C1981	C198	0.913800	0.219450	0.438900
C1991	C199	0.586200	0.561100	0.780550
C2001	C200	0.586200	0.219450	0.780550
C2011	C201	0.586200	0.219450	0.438900
C2021	C202	0.086200	0.438900	0.219450
C2031	C203	0.086200	0.780550	0.219450
C2041	C204	0.086200	0.780550	0.561100
C2051	C205	0.422300	0.904600	0.452300
C2061	C206	0.422300	0.547700	0.095400
C2071	C207	0.422300	0.547700	0.452300
C2081	C208	0.922300	0.095400	0.547700
C2091	C209	0.922300	0.452300	0.904600
C2101	C210	0.922300	0.452300	0.547700
C2111	C211	0.577700	0.452300	0.547700
C2121	C212	0.577700	0.452300	0.904600
C2131	C213	0.577700	0.095400	0.547700
C2141	C214	0.077700	0.547700	0.452300
C2151	C215	0.077700	0.547700	0.095400
C2161	C216	0.077700	0.904600	0.452300
C2171	C217	0.500000	0.000000	0.383900
C2181	C218	0.500000	0.383900	0.000000
C2191	C219	0.500000	0.616100	0.616100
C2201	C220	0.000000	0.000000	0.616100
C2211	C221	0.000000	0.616100	0.000000
C2221	C222	0.000000	0.383900	0.383900
C2231	C223	0.500000	0.000000	0.616100
C2241	C224	0.500000	0.616100	0.000000
C2251	C225	0.500000	0.383900	0.383900
C2261	C226	0.000000	0.000000	0.383900
C2271	C227	0.000000	0.383900	0.000000
C2281	C228	0.000000	0.616100	0.616100
C2291	C229	0.250000	0.873900	0.321700
C2301	C230	0.250000	0.447800	0.126100
C2311	C231	0.250000	0.678300	0.552200
C2321	C232	0.750000	0.126100	0.678300
C2331	C233	0.750000	0.552200	0.873900
C2341	C234	0.750000	0.321700	0.447800
C2351	C235	0.750000	0.552200	0.678300
C2361	C236	0.750000	0.321700	0.873900
C2371	C237	0.750000	0.126100	0.447800
C2381	C238	0.250000	0.447800	0.321700
C2391	C239	0.250000	0.678300	0.126100
C2401	C240	0.250000	0.873900	0.552200
N11	N1	0.450500	0.823400	0.260000
N21	N2	0.447100	0.878600	0.395200
N31	N3	0.466000	0.956300	0.337900
N41	N4	0.304800	0.904200	0.319200
N51	N5	0.450500	0.436600	0.176600
N61	N6	0.447100	0.516600	0.121400
N71	N7	0.466000	0.381600	0.043700
N81	N8	0.304800	0.415000	0.095800
N91	N9	0.450500	0.740000	0.563400
N101	N10	0.447100	0.604800	0.483400
N111	N11	0.466000	0.662100	0.618400
N121	N12	0.304800	0.680800	0.585000
N131	N13	0.950500	0.176600	0.740000
N141	N14	0.947100	0.121400	0.604800
N151	N15	0.966000	0.043700	0.662100
N161	N16	0.804800	0.095800	0.680800
N171	N17	0.950500	0.563400	0.823400
N181	N18	0.947100	0.483400	0.878600
N191	N19	0.966000	0.618400	0.956300
N201	N20	0.804800	0.585000	0.904200
N211	N21	0.950500	0.260000	0.436600
N221	N22	0.947100	0.395200	0.516600
N231	N23	0.966000	0.337900	0.381600
N241	N24	0.804800	0.319200	0.415000
N251	N25	0.549500	0.563400	0.740000
N261	N26	0.552900	0.483400	0.604800
N271	N27	0.534000	0.618400	0.662100
N281	N28	0.695200	0.585000	0.680800
N291	N29	0.549500	0.260000	0.823400
N301	N30	0.552900	0.395200	0.878600
N311	N31	0.534000	0.337900	0.956300
N321	N32	0.695200	0.319200	0.904200
N331	N33	0.549500	0.176600	0.436600
N341	N34	0.552900	0.121400	0.516600
N351	N35	0.534000	0.043700	0.381600
N361	N36	0.695200	0.095800	0.415000
N371	N37	0.049500	0.436600	0.260000
N381	N38	0.052900	0.516600	0.395200
N391	N39	0.034000	0.381600	0.337900
N401	N40	0.195200	0.415000	0.319200
N411	N41	0.049500	0.740000	0.176600
N421	N42	0.052900	0.604800	0.121400
N431	N43	0.034000	0.662100	0.043700
N441	N44	0.195200	0.680800	0.095800
N451	N45	0.049500	0.823400	0.563400
N461	N46	0.052900	0.878600	0.483400
N471	N47	0.034000	0.956300	0.618400
N481	N48	0.195200	0.904200	0.585000
N491	N49	0.549500	0.176600	0.740000
N501	N50	0.552900	0.121400	0.604800
N511	N51	0.534000	0.043700	0.662100
N521	N52	0.695200	0.095800	0.680800
N531	N53	0.549500	0.563400	0.823400
N541	N54	0.552900	0.483400	0.878600
N551	N55	0.534000	0.618400	0.956300
N561	N56	0.695200	0.585000	0.904200
N571	N57	0.549500	0.260000	0.436600
N581	N58	0.552900	0.395200	0.516600
N591	N59	0.534000	0.337900	0.381600
N601	N60	0.695200	0.319200	0.415000
N611	N61	0.049500	0.823400	0.260000
N621	N62	0.052900	0.878600	0.395200
N631	N63	0.034000	0.956300	0.337900
N641	N64	0.195200	0.904200	0.319200
N651	N65	0.049500	0.436600	0.176600
N661	N66	0.052900	0.516600	0.121400
N671	N67	0.034000	0.381600	0.043700
N681	N68	0.195200	0.415000	0.095800
N691	N69	0.049500	0.740000	0.563400
N701	N70	0.052900	0.604800	0.483400
N711	N71	0.034000	0.662100	0.618400
N721	N72	0.195200	0.680800	0.585000
N731	N73	0.450500	0.436600	0.260000
N741	N74	0.447100	0.516600	0.395200
N751	N75	0.466000	0.381600	0.337900
N761	N76	0.304800	0.415000	0.319200
N771	N77	0.450500	0.740000	0.176600
N781	N78	0.447100	0.604800	0.121400
N791	N79	0.466000	0.662100	0.043700
N801	N80	0.304800	0.680800	0.095800
N811	N81	0.450500	0.823400	0.563400
N821	N82	0.447100	0.878600	0.483400
N831	N83	0.466000	0.956300	0.618400
N841	N84	0.304800	0.904200	0.585000
N851	N85	0.950500	0.563400	0.740000
N861	N86	0.947100	0.483400	0.604800
N871	N87	0.966000	0.618400	0.662100
N881	N88	0.804800	0.585000	0.680800
N891	N89	0.950500	0.260000	0.823400
N901	N90	0.947100	0.395200	0.878600
N911	N91	0.966000	0.337900	0.956300
N921	N92	0.804800	0.319200	0.904200
N931	N93	0.950500	0.176600	0.436600
N941	N94	0.947100	0.121400	0.516600
N951	N95	0.966000	0.043700	0.381600
N961	N96	0.804800	0.095800	0.415000
N971	N97	0.386400	0.949700	0.474850
N981	N98	0.386400	0.525150	0.050300
N991	N99	0.386400	0.525150	0.474850
N1001	N100	0.886400	0.050300	0.525150
N1011	N101	0.886400	0.474850	0.949700
N1021	N102	0.886400	0.474850	0.525150
N1031	N103	0.613600	0.474850	0.525150
N1041	N104	0.613600	0.474850	0.949700
N1051	N105	0.613600	0.050300	0.525150
N1061	N106	0.113600	0.525150	0.474850
N1071	N107	0.113600	0.525150	0.050300
N1081	N108	0.113600	0.949700	0.474850
N1091	N109	0.250000	0.828900	0.324900
N1101	N110	0.250000	0.496000	0.171100
N1111	N111	0.250000	0.675100	0.504000
N1121	N112	0.750000	0.171100	0.675100
N1131	N113	0.750000	0.504000	0.828900
N1141	N114	0.750000	0.324900	0.496000
N1151	N115	0.750000	0.504000	0.675100
N1161	N116	0.750000	0.324900	0.828900
N1171	N117	0.750000	0.171100	0.496000
N1181	N118	0.250000	0.496000	0.324900
N1191	N119	0.250000	0.675100	0.171100
N1201	N120	0.250000	0.828900	0.504000
O11	O1	0.375500	0.973200	0.444900
O21	O2	0.305800	0.812100	0.327900
O31	O3	0.375500	0.471700	0.026800
O41	O4	0.305800	0.515800	0.187900
O51	O5	0.375500	0.555100	0.528300
O61	O6	0.305800	0.672100	0.484200
O71	O7	0.875500	0.026800	0.555100
O81	O8	0.805800	0.187900	0.672100
O91	O9	0.875500	0.528300	0.973200
O101	O10	0.805800	0.484200	0.812100
O111	O11	0.875500	0.444900	0.471700
O121	O12	0.805800	0.327900	0.515800
O131	O13	0.624500	0.528300	0.555100
O141	O14	0.694200	0.484200	0.672100
O151	O15	0.624500	0.444900	0.973200
O161	O16	0.694200	0.327900	0.812100
O171	O17	0.624500	0.026800	0.471700
O181	O18	0.694200	0.187900	0.515800
O191	O19	0.124500	0.471700	0.444900
O201	O20	0.194200	0.515800	0.327900
O211	O21	0.124500	0.555100	0.026800
O221	O22	0.194200	0.672100	0.187900
O231	O23	0.124500	0.973200	0.528300
O241	O24	0.194200	0.812100	0.484200
O251	O25	0.624500	0.026800	0.555100
O261	O26	0.694200	0.187900	0.672100
O271	O27	0.624500	0.528300	0.973200
O281	O28	0.694200	0.484200	0.812100
O291	O29	0.624500	0.444900	0.471700
O301	O30	0.694200	0.327900	0.515800
O311	O31	0.124500	0.973200	0.444900
O321	O32	0.194200	0.812100	0.327900
O331	O33	0.124500	0.471700	0.026800
O341	O34	0.194200	0.515800	0.187900
O351	O35	0.124500	0.555100	0.528300
O361	O36	0.194200	0.672100	0.484200
O371	O37	0.375500	0.471700	0.444900
O381	O38	0.305800	0.515800	0.327900
O391	O39	0.375500	0.555100	0.026800
O401	O40	0.305800	0.672100	0.187900
O411	O41	0.375500	0.973200	0.528300
O421	O42	0.305800	0.812100	0.484200
O431	O43	0.875500	0.528300	0.555100
O441	O44	0.805800	0.484200	0.672100
O451	O45	0.875500	0.444900	0.973200
O461	O46	0.805800	0.327900	0.812100
O471	O47	0.875500	0.026800	0.471700
O481	O48	0.805800	0.187900	0.515800
