data_GITVEL_clean_PM
_symmetry_space_group_name_H-M	'P1'
_cell_length_a	18.020800
_cell_length_b	27.011100
_cell_length_c	27.011100
_cell_angle_alpha	120.000000
_cell_angle_beta	90.000000
_cell_angle_gamma	90.000000
_symmetry_Int_Tables_number 1

loop_
_symmetry_equiv_pos_as_xyz
'x,y,z'

loop_
_atom_site_label
_atom_site_type_symbol
_atom_site_fract_x
_atom_site_fract_y
_atom_site_fract_z
Zn11	Zn1	0.579670	0.332790	0.443530
Zn21	Zn2	0.579670	0.110740	0.667210
Zn31	Zn3	0.579670	0.556470	0.889260
Zn41	Zn4	0.079670	0.667210	0.556470
Zn51	Zn5	0.079670	0.889260	0.332790
Zn61	Zn6	0.079670	0.443530	0.110740
Zn71	Zn7	0.420330	0.889260	0.556470
Zn81	Zn8	0.420330	0.443530	0.332790
Zn91	Zn9	0.420330	0.667210	0.110740
Zn101	Zn10	0.920330	0.110740	0.443530
Zn111	Zn11	0.920330	0.556470	0.667210
Zn121	Zn12	0.920330	0.332790	0.889260
Zn131	Zn13	0.420330	0.667210	0.556470
Zn141	Zn14	0.420330	0.889260	0.332790
Zn151	Zn15	0.420330	0.443530	0.110740
Zn161	Zn16	0.920330	0.332790	0.443530
Zn171	Zn17	0.920330	0.110740	0.667210
Zn181	Zn18	0.920330	0.556470	0.889260
Zn191	Zn19	0.579670	0.110740	0.443530
Zn201	Zn20	0.579670	0.556470	0.667210
Zn211	Zn21	0.579670	0.332790	0.889260
Zn221	Zn22	0.079670	0.889260	0.556470
Zn231	Zn23	0.079670	0.443530	0.332790
Zn241	Zn24	0.079670	0.667210	0.110740
H11	H1	0.445400	0.244300	0.399300
H21	H2	0.682800	0.329400	0.345700
H31	H3	0.431700	0.401200	0.511100
H41	H4	0.532300	0.262500	0.308100
H51	H5	0.445400	0.155000	0.755700
H61	H6	0.682800	0.016300	0.670600
H71	H7	0.431700	0.109900	0.598800
H81	H8	0.532300	0.045600	0.737500
H91	H9	0.445400	0.600700	0.845000
H101	H10	0.682800	0.654300	0.983700
H111	H11	0.431700	0.488900	0.890100
H121	H12	0.532300	0.691900	0.954400
H131	H13	0.945400	0.755700	0.600700
H141	H14	0.182800	0.670600	0.654300
H151	H15	0.931700	0.598800	0.488900
H161	H16	0.032300	0.737500	0.691900
H171	H17	0.945400	0.845000	0.244300
H181	H18	0.182800	0.983700	0.329400
H191	H19	0.931700	0.890100	0.401200
H201	H20	0.032300	0.954400	0.262500
H211	H21	0.945400	0.399300	0.155000
H221	H22	0.182800	0.345700	0.016300
H231	H23	0.931700	0.511100	0.109900
H241	H24	0.032300	0.308100	0.045600
H251	H25	0.554600	0.845000	0.600700
H261	H26	0.317200	0.983700	0.654300
H271	H27	0.568300	0.890100	0.488900
H281	H28	0.467700	0.954400	0.691900
H291	H29	0.554600	0.399300	0.244300
H301	H30	0.317200	0.345700	0.329400
H311	H31	0.568300	0.511100	0.401200
H321	H32	0.467700	0.308100	0.262500
H331	H33	0.554600	0.755700	0.155000
H341	H34	0.317200	0.670600	0.016300
H351	H35	0.568300	0.598800	0.109900
H361	H36	0.467700	0.737500	0.045600
H371	H37	0.054600	0.155000	0.399300
H381	H38	0.817200	0.016300	0.345700
H391	H39	0.068300	0.109900	0.511100
H401	H40	0.967700	0.045600	0.308100
H411	H41	0.054600	0.600700	0.755700
H421	H42	0.817200	0.654300	0.670600
H431	H43	0.068300	0.488900	0.598800
H441	H44	0.967700	0.691900	0.737500
H451	H45	0.054600	0.244300	0.845000
H461	H46	0.817200	0.329400	0.983700
H471	H47	0.068300	0.401200	0.890100
H481	H48	0.967700	0.262500	0.954400
H491	H49	0.554600	0.755700	0.600700
H501	H50	0.317200	0.670600	0.654300
H511	H51	0.568300	0.598800	0.488900
H521	H52	0.467700	0.737500	0.691900
H531	H53	0.554600	0.845000	0.244300
H541	H54	0.317200	0.983700	0.329400
H551	H55	0.568300	0.890100	0.401200
H561	H56	0.467700	0.954400	0.262500
H571	H57	0.554600	0.399300	0.155000
H581	H58	0.317200	0.345700	0.016300
H591	H59	0.568300	0.511100	0.109900
H601	H60	0.467700	0.308100	0.045600
H611	H61	0.054600	0.244300	0.399300
H621	H62	0.817200	0.329400	0.345700
H631	H63	0.068300	0.401200	0.511100
H641	H64	0.967700	0.262500	0.308100
H651	H65	0.054600	0.155000	0.755700
H661	H66	0.817200	0.016300	0.670600
H671	H67	0.068300	0.109900	0.598800
H681	H68	0.967700	0.045600	0.737500
H691	H69	0.054600	0.600700	0.845000
H701	H70	0.817200	0.654300	0.983700
H711	H71	0.068300	0.488900	0.890100
H721	H72	0.967700	0.691900	0.954400
H731	H73	0.445400	0.155000	0.399300
H741	H74	0.682800	0.016300	0.345700
H751	H75	0.431700	0.109900	0.511100
H761	H76	0.532300	0.045600	0.308100
H771	H77	0.445400	0.600700	0.755700
H781	H78	0.682800	0.654300	0.670600
H791	H79	0.431700	0.488900	0.598800
H801	H80	0.532300	0.691900	0.737500
H811	H81	0.445400	0.244300	0.845000
H821	H82	0.682800	0.329400	0.983700
H831	H83	0.431700	0.401200	0.890100
H841	H84	0.532300	0.262500	0.954400
H851	H85	0.945400	0.845000	0.600700
H861	H86	0.182800	0.983700	0.654300
H871	H87	0.931700	0.890100	0.488900
H881	H88	0.032300	0.954400	0.691900
H891	H89	0.945400	0.399300	0.244300
H901	H90	0.182800	0.345700	0.329400
H911	H91	0.931700	0.511100	0.401200
H921	H92	0.032300	0.308100	0.262500
H931	H93	0.945400	0.755700	0.155000
H941	H94	0.182800	0.670600	0.016300
H951	H95	0.931700	0.598800	0.109900
H961	H96	0.032300	0.737500	0.045600
H971	H97	0.628800	0.222300	0.444600
H981	H98	0.628800	0.222300	0.777700
H991	H99	0.628800	0.555400	0.777700
H1001	H100	0.128800	0.777700	0.555400
H1011	H101	0.128800	0.777700	0.222300
H1021	H102	0.128800	0.444600	0.222300
H1031	H103	0.371200	0.777700	0.555400
H1041	H104	0.371200	0.444600	0.222300
H1051	H105	0.371200	0.777700	0.222300
H1061	H106	0.871200	0.222300	0.444600
H1071	H107	0.871200	0.555400	0.777700
H1081	H108	0.871200	0.222300	0.777700
H1091	H109	0.627000	0.453600	0.546400
H1101	H110	0.627000	0.092800	0.546400
H1111	H111	0.627000	0.453600	0.907200
H1121	H112	0.127000	0.546400	0.453600
H1131	H113	0.127000	0.907200	0.453600
H1141	H114	0.127000	0.546400	0.092800
H1151	H115	0.373000	0.907200	0.453600
H1161	H116	0.373000	0.546400	0.453600
H1171	H117	0.373000	0.546400	0.092800
H1181	H118	0.873000	0.092800	0.546400
H1191	H119	0.873000	0.453600	0.546400
H1201	H120	0.873000	0.453600	0.907200
H1211	H121	0.500000	0.422000	0.422000
H1221	H122	0.500000	0.000000	0.578000
H1231	H123	0.500000	0.578000	0.000000
H1241	H124	0.000000	0.578000	0.578000
H1251	H125	0.000000	0.000000	0.422000
H1261	H126	0.000000	0.422000	0.000000
H1271	H127	0.500000	0.578000	0.578000
H1281	H128	0.500000	0.000000	0.422000
H1291	H129	0.500000	0.422000	0.000000
H1301	H130	0.000000	0.422000	0.422000
H1311	H131	0.000000	0.000000	0.578000
H1321	H132	0.000000	0.578000	0.000000
C11	C1	0.482300	0.232200	0.415000
C21	C2	0.712700	0.330100	0.374100
C31	C3	0.473800	0.419600	0.532300
C41	C4	0.517600	0.300600	0.326000
C51	C5	0.482300	0.182800	0.767800
C61	C6	0.712700	0.044000	0.669900
C71	C7	0.473800	0.112700	0.580400
C81	C8	0.517600	0.025400	0.699400
C91	C9	0.482300	0.585000	0.817200
C101	C10	0.712700	0.625900	0.956000
C111	C11	0.473800	0.467700	0.887300
C121	C12	0.517600	0.674000	0.974600
C131	C13	0.982300	0.767800	0.585000
C141	C14	0.212700	0.669900	0.625900
C151	C15	0.973800	0.580400	0.467700
C161	C16	0.017600	0.699400	0.674000
C171	C17	0.982300	0.817200	0.232200
C181	C18	0.212700	0.956000	0.330100
C191	C19	0.973800	0.887300	0.419600
C201	C20	0.017600	0.974600	0.300600
C211	C21	0.982300	0.415000	0.182800
C221	C22	0.212700	0.374100	0.044000
C231	C23	0.973800	0.532300	0.112700
C241	C24	0.017600	0.326000	0.025400
C251	C25	0.517700	0.817200	0.585000
C261	C26	0.287300	0.956000	0.625900
C271	C27	0.526200	0.887300	0.467700
C281	C28	0.482400	0.974600	0.674000
C291	C29	0.517700	0.415000	0.232200
C301	C30	0.287300	0.374100	0.330100
C311	C31	0.526200	0.532300	0.419600
C321	C32	0.482400	0.326000	0.300600
C331	C33	0.517700	0.767800	0.182800
C341	C34	0.287300	0.669900	0.044000
C351	C35	0.526200	0.580400	0.112700
C361	C36	0.482400	0.699400	0.025400
C371	C37	0.017700	0.182800	0.415000
C381	C38	0.787300	0.044000	0.374100
C391	C39	0.026200	0.112700	0.532300
C401	C40	0.982400	0.025400	0.326000
C411	C41	0.017700	0.585000	0.767800
C421	C42	0.787300	0.625900	0.669900
C431	C43	0.026200	0.467700	0.580400
C441	C44	0.982400	0.674000	0.699400
C451	C45	0.017700	0.232200	0.817200
C461	C46	0.787300	0.330100	0.956000
C471	C47	0.026200	0.419600	0.887300
C481	C48	0.982400	0.300600	0.974600
C491	C49	0.517700	0.767800	0.585000
C501	C50	0.287300	0.669900	0.625900
C511	C51	0.526200	0.580400	0.467700
C521	C52	0.482400	0.699400	0.674000
C531	C53	0.517700	0.817200	0.232200
C541	C54	0.287300	0.956000	0.330100
C551	C55	0.526200	0.887300	0.419600
C561	C56	0.482400	0.974600	0.300600
C571	C57	0.517700	0.415000	0.182800
C581	C58	0.287300	0.374100	0.044000
C591	C59	0.526200	0.532300	0.112700
C601	C60	0.482400	0.326000	0.025400
C611	C61	0.017700	0.232200	0.415000
C621	C62	0.787300	0.330100	0.374100
C631	C63	0.026200	0.419600	0.532300
C641	C64	0.982400	0.300600	0.326000
C651	C65	0.017700	0.182800	0.767800
C661	C66	0.787300	0.044000	0.669900
C671	C67	0.026200	0.112700	0.580400
C681	C68	0.982400	0.025400	0.699400
C691	C69	0.017700	0.585000	0.817200
C701	C70	0.787300	0.625900	0.956000
C711	C71	0.026200	0.467700	0.887300
C721	C72	0.982400	0.674000	0.974600
C731	C73	0.482300	0.182800	0.415000
C741	C74	0.712700	0.044000	0.374100
C751	C75	0.473800	0.112700	0.532300
C761	C76	0.517600	0.025400	0.326000
C771	C77	0.482300	0.585000	0.767800
C781	C78	0.712700	0.625900	0.669900
C791	C79	0.473800	0.467700	0.580400
C801	C80	0.517600	0.674000	0.699400
C811	C81	0.482300	0.232200	0.817200
C821	C82	0.712700	0.330100	0.956000
C831	C83	0.473800	0.419600	0.887300
C841	C84	0.517600	0.300600	0.974600
C851	C85	0.982300	0.817200	0.585000
C861	C86	0.212700	0.956000	0.625900
C871	C87	0.973800	0.887300	0.467700
C881	C88	0.017600	0.974600	0.674000
C891	C89	0.982300	0.415000	0.232200
C901	C90	0.212700	0.374100	0.330100
C911	C91	0.973800	0.532300	0.419600
C921	C92	0.017600	0.326000	0.300600
C931	C93	0.982300	0.767800	0.182800
C941	C94	0.212700	0.669900	0.044000
C951	C95	0.973800	0.580400	0.112700
C961	C96	0.017600	0.699400	0.025400
C971	C97	0.577300	0.221500	0.443000
C981	C98	0.577300	0.221500	0.778500
C991	C99	0.577300	0.557000	0.778500
C1001	C100	0.077300	0.778500	0.557000
C1011	C101	0.077300	0.778500	0.221500
C1021	C102	0.077300	0.443000	0.221500
C1031	C103	0.422700	0.778500	0.557000
C1041	C104	0.422700	0.443000	0.221500
C1051	C105	0.422700	0.778500	0.221500
C1061	C106	0.922700	0.221500	0.443000
C1071	C107	0.922700	0.557000	0.778500
C1081	C108	0.922700	0.221500	0.778500
C1091	C109	0.750000	0.331400	0.447200
C1101	C110	0.750000	0.115800	0.668600
C1111	C111	0.750000	0.552800	0.884200
C1121	C112	0.250000	0.668600	0.552800
C1131	C113	0.250000	0.884200	0.331400
C1141	C114	0.250000	0.447200	0.115800
C1151	C115	0.250000	0.884200	0.552800
C1161	C116	0.250000	0.447200	0.331400
C1171	C117	0.250000	0.668600	0.115800
C1181	C118	0.750000	0.115800	0.447200
C1191	C119	0.750000	0.552800	0.668600
C1201	C120	0.750000	0.331400	0.884200
C1211	C121	0.579100	0.446250	0.553750
C1221	C122	0.579100	0.107500	0.553750
C1231	C123	0.579100	0.446250	0.892500
C1241	C124	0.079100	0.553750	0.446250
C1251	C125	0.079100	0.892500	0.446250
C1261	C126	0.079100	0.553750	0.107500
C1271	C127	0.420900	0.892500	0.446250
C1281	C128	0.420900	0.553750	0.446250
C1291	C129	0.420900	0.553750	0.107500
C1301	C130	0.920900	0.107500	0.553750
C1311	C131	0.920900	0.446250	0.553750
C1321	C132	0.920900	0.446250	0.892500
C1331	C133	0.500000	0.387600	0.387600
C1341	C134	0.500000	0.000000	0.612400
C1351	C135	0.500000	0.612400	0.000000
C1361	C136	0.000000	0.612400	0.612400
C1371	C137	0.000000	0.000000	0.387600
C1381	C138	0.000000	0.387600	0.000000
C1391	C139	0.500000	0.612400	0.612400
C1401	C140	0.500000	0.000000	0.387600
C1411	C141	0.500000	0.387600	0.000000
C1421	C142	0.000000	0.387600	0.387600
C1431	C143	0.000000	0.000000	0.612400
C1441	C144	0.000000	0.612400	0.000000
N11	N1	0.545600	0.262320	0.441940
N21	N2	0.687900	0.331300	0.422300
N31	N3	0.546300	0.399730	0.517370
N41	N4	0.527900	0.339530	0.381870
N51	N5	0.545600	0.179620	0.737680
N61	N6	0.687900	0.091000	0.668700
N71	N7	0.546300	0.117640	0.600270
N81	N8	0.527900	0.042340	0.660470
N91	N9	0.545600	0.558060	0.820380
N101	N10	0.687900	0.577700	0.909000
N111	N11	0.546300	0.482630	0.882360
N121	N12	0.527900	0.618130	0.957660
N131	N13	0.045600	0.737680	0.558060
N141	N14	0.187900	0.668700	0.577700
N151	N15	0.046300	0.600270	0.482630
N161	N16	0.027900	0.660470	0.618130
N171	N17	0.045600	0.820380	0.262320
N181	N18	0.187900	0.909000	0.331300
N191	N19	0.046300	0.882360	0.399730
N201	N20	0.027900	0.957660	0.339530
N211	N21	0.045600	0.441940	0.179620
N221	N22	0.187900	0.422300	0.091000
N231	N23	0.046300	0.517370	0.117640
N241	N24	0.027900	0.381870	0.042340
N251	N25	0.454400	0.820380	0.558060
N261	N26	0.312100	0.909000	0.577700
N271	N27	0.453700	0.882360	0.482630
N281	N28	0.472100	0.957660	0.618130
N291	N29	0.454400	0.441940	0.262320
N301	N30	0.312100	0.422300	0.331300
N311	N31	0.453700	0.517370	0.399730
N321	N32	0.472100	0.381870	0.339530
N331	N33	0.454400	0.737680	0.179620
N341	N34	0.312100	0.668700	0.091000
N351	N35	0.453700	0.600270	0.117640
N361	N36	0.472100	0.660470	0.042340
N371	N37	0.954400	0.179620	0.441940
N381	N38	0.812100	0.091000	0.422300
N391	N39	0.953700	0.117640	0.517370
N401	N40	0.972100	0.042340	0.381870
N411	N41	0.954400	0.558060	0.737680
N421	N42	0.812100	0.577700	0.668700
N431	N43	0.953700	0.482630	0.600270
N441	N44	0.972100	0.618130	0.660470
N451	N45	0.954400	0.262320	0.820380
N461	N46	0.812100	0.331300	0.909000
N471	N47	0.953700	0.399730	0.882360
N481	N48	0.972100	0.339530	0.957660
N491	N49	0.454400	0.737680	0.558060
N501	N50	0.312100	0.668700	0.577700
N511	N51	0.453700	0.600270	0.482630
N521	N52	0.472100	0.660470	0.618130
N531	N53	0.454400	0.820380	0.262320
N541	N54	0.312100	0.909000	0.331300
N551	N55	0.453700	0.882360	0.399730
N561	N56	0.472100	0.957660	0.339530
N571	N57	0.454400	0.441940	0.179620
N581	N58	0.312100	0.422300	0.091000
N591	N59	0.453700	0.517370	0.117640
N601	N60	0.472100	0.381870	0.042340
N611	N61	0.954400	0.262320	0.441940
N621	N62	0.812100	0.331300	0.422300
N631	N63	0.953700	0.399730	0.517370
N641	N64	0.972100	0.339530	0.381870
N651	N65	0.954400	0.179620	0.737680
N661	N66	0.812100	0.091000	0.668700
N671	N67	0.953700	0.117640	0.600270
N681	N68	0.972100	0.042340	0.660470
N691	N69	0.954400	0.558060	0.820380
N701	N70	0.812100	0.577700	0.909000
N711	N71	0.953700	0.482630	0.882360
N721	N72	0.972100	0.618130	0.957660
N731	N73	0.545600	0.179620	0.441940
N741	N74	0.687900	0.091000	0.422300
N751	N75	0.546300	0.117640	0.517370
N761	N76	0.527900	0.042340	0.381870
N771	N77	0.545600	0.558060	0.737680
N781	N78	0.687900	0.577700	0.668700
N791	N79	0.546300	0.482630	0.600270
N801	N80	0.527900	0.618130	0.660470
N811	N81	0.545600	0.262320	0.820380
N821	N82	0.687900	0.331300	0.909000
N831	N83	0.546300	0.399730	0.882360
N841	N84	0.527900	0.339530	0.957660
N851	N85	0.045600	0.820380	0.558060
N861	N86	0.187900	0.909000	0.577700
N871	N87	0.046300	0.882360	0.482630
N881	N88	0.027900	0.957660	0.618130
N891	N89	0.045600	0.441940	0.262320
N901	N90	0.187900	0.422300	0.331300
N911	N91	0.046300	0.517370	0.399730
N921	N92	0.027900	0.381870	0.339530
N931	N93	0.045600	0.737680	0.179620
N941	N94	0.187900	0.668700	0.091000
N951	N95	0.046300	0.600270	0.117640
N961	N96	0.027900	0.660470	0.042340
N971	N97	0.750000	0.331800	0.501200
N981	N98	0.750000	0.169400	0.668200
N991	N99	0.750000	0.498800	0.830600
N1001	N100	0.250000	0.668200	0.498800
N1011	N101	0.250000	0.830600	0.331800
N1021	N102	0.250000	0.501200	0.169400
N1031	N103	0.250000	0.830600	0.498800
N1041	N104	0.250000	0.501200	0.331800
N1051	N105	0.250000	0.668200	0.169400
N1061	N106	0.750000	0.169400	0.501200
N1071	N107	0.750000	0.498800	0.668200
N1081	N108	0.750000	0.331800	0.830600
O11	O1	0.690300	0.332100	0.522500
O21	O2	0.690300	0.190400	0.667900
O31	O3	0.690300	0.477500	0.809600
O41	O4	0.190300	0.667900	0.477500
O51	O5	0.190300	0.809600	0.332100
O61	O6	0.190300	0.522500	0.190400
O71	O7	0.309700	0.809600	0.477500
O81	O8	0.309700	0.522500	0.332100
O91	O9	0.309700	0.667900	0.190400
O101	O10	0.809700	0.190400	0.522500
O111	O11	0.809700	0.477500	0.667900
O121	O12	0.809700	0.332100	0.809600
O131	O13	0.309700	0.667900	0.477500
O141	O14	0.309700	0.809600	0.332100
O151	O15	0.309700	0.522500	0.190400
O161	O16	0.809700	0.332100	0.522500
O171	O17	0.809700	0.190400	0.667900
O181	O18	0.809700	0.477500	0.809600
O191	O19	0.690300	0.190400	0.522500
O201	O20	0.690300	0.477500	0.667900
O211	O21	0.690300	0.332100	0.809600
O221	O22	0.190300	0.809600	0.477500
O231	O23	0.190300	0.522500	0.332100
O241	O24	0.190300	0.667900	0.190400
