data_GITWIQ_clean_PM
_symmetry_space_group_name_H-M	'P1'
_cell_length_a	11.124800
_cell_length_b	17.632300
_cell_length_c	17.632300
_cell_angle_alpha	78.646300
_cell_angle_beta	71.611000
_cell_angle_gamma	71.611100
_symmetry_Int_Tables_number 1

loop_
_symmetry_equiv_pos_as_xyz
'x,y,z'

loop_
_atom_site_label
_atom_site_type_symbol
_atom_site_fract_x
_atom_site_fract_y
_atom_site_fract_z
Zn11	Zn1	0.655150	0.322870	0.928190
Zn21	Zn2	0.093790	0.928190	0.322870
Zn31	Zn3	0.844850	0.571810	0.177130
Zn41	Zn4	0.406210	0.177130	0.571810
Zn51	Zn5	0.344850	0.677130	0.071810
Zn61	Zn6	0.906210	0.071810	0.677130
Zn71	Zn7	0.155150	0.428190	0.822870
Zn81	Zn8	0.593790	0.822870	0.428190
Zn91	Zn9	0.750000	0.250000	0.250000
Zn101	Zn10	0.250000	0.750000	0.750000
H11	H1	0.742200	0.111600	0.155000
H21	H2	0.688700	0.140800	0.024800
H31	H3	0.883800	0.333400	0.766200
H41	H4	0.870300	0.547700	0.838500
H51	H5	0.666300	0.505400	0.880200
H61	H6	0.991200	0.155000	0.111600
H71	H7	0.145700	0.024800	0.140800
H81	H8	0.016600	0.766200	0.333400
H91	H9	0.743500	0.838500	0.547700
H101	H10	0.948100	0.880200	0.505400
H111	H11	0.757800	0.345000	0.388400
H121	H12	0.811300	0.475200	0.359200
H131	H13	0.616200	0.733800	0.166600
H141	H14	0.629700	0.661500	0.952300
H151	H15	0.833700	0.619800	0.994600
H161	H16	0.508800	0.388400	0.345000
H171	H17	0.354300	0.359200	0.475200
H181	H18	0.483400	0.166600	0.733800
H191	H19	0.756500	0.952300	0.661500
H201	H20	0.551900	0.994600	0.619800
H211	H21	0.257800	0.888400	0.845000
H221	H22	0.311300	0.859200	0.975200
H231	H23	0.116200	0.666600	0.233800
H241	H24	0.129700	0.452300	0.161500
H251	H25	0.333700	0.494600	0.119800
H261	H26	0.008800	0.845000	0.888400
H271	H27	0.854300	0.975200	0.859200
H281	H28	0.983400	0.233800	0.666600
H291	H29	0.256500	0.161500	0.452300
H301	H30	0.051900	0.119800	0.494600
H311	H31	0.242200	0.655000	0.611600
H321	H32	0.188700	0.524800	0.640800
H331	H33	0.383800	0.266200	0.833400
H341	H34	0.370300	0.338500	0.047700
H351	H35	0.166300	0.380200	0.005400
H361	H36	0.491200	0.611600	0.655000
H371	H37	0.645700	0.640800	0.524800
H381	H38	0.516600	0.833400	0.266200
H391	H39	0.243500	0.047700	0.338500
H401	H40	0.448100	0.005400	0.380200
C11	C1	0.711300	0.163700	0.129500
C21	C2	0.682100	0.179800	0.057200
C31	C3	0.647210	0.289090	0.102690
C41	C4	0.857500	0.286600	0.768200
C51	C5	0.907730	0.372170	0.902370
C61	C6	0.863400	0.494900	0.859900
C71	C7	0.750600	0.471500	0.882900
C81	C8	0.995500	0.129500	0.163700
C91	C9	0.080900	0.057200	0.179800
C101	C10	0.961010	0.102690	0.289090
C111	C11	0.087700	0.768200	0.286600
C121	C12	0.817730	0.902370	0.372170
C131	C13	0.781800	0.859900	0.494900
C141	C14	0.895000	0.882900	0.471500
C151	C15	0.788700	0.370500	0.336300
C161	C16	0.817900	0.442800	0.320200
C171	C17	0.852790	0.397310	0.210910
C181	C18	0.642500	0.731800	0.213400
C191	C19	0.592270	0.597630	0.127830
C201	C20	0.636600	0.640100	0.005100
C211	C21	0.749400	0.617100	0.028500
C221	C22	0.504500	0.336300	0.370500
C231	C23	0.419100	0.320200	0.442800
C241	C24	0.538990	0.210910	0.397310
C251	C25	0.412300	0.213400	0.731800
C261	C26	0.682270	0.127830	0.597630
C271	C27	0.718200	0.005100	0.640100
C281	C28	0.605000	0.028500	0.617100
C291	C29	0.288700	0.836300	0.870500
C301	C30	0.317900	0.820200	0.942800
C311	C31	0.352790	0.710910	0.897310
C321	C32	0.142500	0.713400	0.231800
C331	C33	0.092270	0.627830	0.097630
C341	C34	0.136600	0.505100	0.140100
C351	C35	0.249400	0.528500	0.117100
C361	C36	0.004500	0.870500	0.836300
C371	C37	0.919100	0.942800	0.820200
C381	C38	0.038990	0.897310	0.710910
C391	C39	0.912300	0.231800	0.713400
C401	C40	0.182270	0.097630	0.627830
C411	C41	0.218200	0.140100	0.505100
C421	C42	0.105000	0.117100	0.528500
C431	C43	0.211300	0.629500	0.663700
C441	C44	0.182100	0.557200	0.679800
C451	C45	0.147210	0.602690	0.789090
C461	C46	0.357500	0.268200	0.786600
C471	C47	0.407730	0.402370	0.872170
C481	C48	0.363400	0.359900	0.994900
C491	C49	0.250600	0.382900	0.971500
C501	C50	0.495500	0.663700	0.629500
C511	C51	0.580900	0.679800	0.557200
C521	C52	0.461010	0.789090	0.602690
C531	C53	0.587700	0.786600	0.268200
C541	C54	0.317730	0.872170	0.402370
C551	C55	0.281800	0.994900	0.359900
C561	C56	0.395000	0.971500	0.382900
C571	C57	0.758700	0.195200	0.804800
C581	C58	0.241300	0.804800	0.195200
C591	C59	0.741300	0.695200	0.304800
C601	C60	0.258700	0.304800	0.695200
N11	N1	0.689410	0.233920	0.158860
N21	N2	0.641870	0.260780	0.039480
N31	N3	0.604380	0.372780	0.112460
N41	N4	0.752450	0.260850	0.829850
N51	N5	0.777520	0.392420	0.910340
N61	N6	0.964640	0.431040	0.871880
N71	N7	0.978490	0.293610	0.928010
N81	N8	0.917810	0.158860	0.233920
N91	N9	0.057870	0.039480	0.260780
N101	N10	0.910380	0.112460	0.372780
N111	N11	0.156850	0.829850	0.260850
N121	N12	0.919720	0.910340	0.392420
N131	N13	0.732440	0.871880	0.431040
N141	N14	0.799890	0.928010	0.293610
N151	N15	0.810590	0.341140	0.266080
N161	N16	0.858130	0.460520	0.239220
N171	N17	0.895620	0.387540	0.127220
N181	N18	0.747550	0.670150	0.239150
N191	N19	0.722480	0.589660	0.107580
N201	N20	0.535360	0.628120	0.068960
N211	N21	0.521510	0.571990	0.206390
N221	N22	0.582190	0.266080	0.341140
N231	N23	0.442130	0.239220	0.460520
N241	N24	0.589620	0.127220	0.387540
N251	N25	0.343150	0.239150	0.670150
N261	N26	0.580280	0.107580	0.589660
N271	N27	0.767560	0.068960	0.628120
N281	N28	0.700110	0.206390	0.571990
N291	N29	0.310590	0.766080	0.841140
N301	N30	0.358130	0.739220	0.960520
N311	N31	0.395620	0.627220	0.887540
N321	N32	0.247550	0.739150	0.170150
N331	N33	0.222480	0.607580	0.089660
N341	N34	0.035360	0.568960	0.128120
N351	N35	0.021510	0.706390	0.071990
N361	N36	0.082190	0.841140	0.766080
N371	N37	0.942130	0.960520	0.739220
N381	N38	0.089620	0.887540	0.627220
N391	N39	0.843150	0.170150	0.739150
N401	N40	0.080280	0.089660	0.607580
N411	N41	0.267560	0.128120	0.568960
N421	N42	0.200110	0.071990	0.706390
N431	N43	0.189410	0.658860	0.733920
N441	N44	0.141870	0.539480	0.760780
N451	N45	0.104380	0.612460	0.872780
N461	N46	0.252450	0.329850	0.760850
N471	N47	0.277520	0.410340	0.892420
N481	N48	0.464640	0.371880	0.931040
N491	N49	0.478490	0.428010	0.793610
N501	N50	0.417810	0.733920	0.658860
N511	N51	0.557870	0.760780	0.539480
N521	N52	0.410380	0.872780	0.612460
N531	N53	0.656850	0.760850	0.329850
N541	N54	0.419720	0.892420	0.410340
N551	N55	0.232440	0.931040	0.371880
N561	N56	0.299890	0.793610	0.428010
N571	N57	0.660700	0.151900	0.848100
N581	N58	0.339300	0.848100	0.151900
N591	N59	0.839300	0.651900	0.348100
N601	N60	0.160700	0.348100	0.651900
O11	O1	0.607770	0.393180	0.174480
O21	O2	0.563500	0.420320	0.058880
O31	O3	0.920570	0.240870	0.952990
O41	O4	0.577730	0.179310	0.907630
O51	O5	0.095440	0.283090	0.924430
O61	O6	0.824570	0.174480	0.393180
O71	O7	0.957300	0.058880	0.420320
O81	O8	0.885570	0.952990	0.240870
O91	O9	0.335330	0.907630	0.179310
O101	O10	0.697040	0.924430	0.283090
O111	O11	0.892230	0.325520	0.106820
O121	O12	0.936500	0.441120	0.079680
O131	O13	0.579430	0.547010	0.259130
O141	O14	0.922270	0.592370	0.320690
O151	O15	0.404560	0.575570	0.216910
O161	O16	0.675430	0.106820	0.325520
O171	O17	0.542700	0.079680	0.441120
O181	O18	0.614430	0.259130	0.547010
O191	O19	0.164670	0.320690	0.592370
O201	O20	0.802960	0.216910	0.575570
O211	O21	0.392230	0.606820	0.825520
O221	O22	0.436500	0.579680	0.941120
O231	O23	0.079430	0.759130	0.047010
O241	O24	0.422270	0.820690	0.092370
O251	O25	0.904560	0.716910	0.075570
O261	O26	0.175430	0.825520	0.606820
O271	O27	0.042700	0.941120	0.579680
O281	O28	0.114430	0.047010	0.759130
O291	O29	0.664670	0.092370	0.820690
O301	O30	0.302960	0.075570	0.716910
O311	O31	0.107770	0.674480	0.893180
O321	O32	0.063500	0.558880	0.920320
O331	O33	0.420570	0.452990	0.740870
O341	O34	0.077730	0.407630	0.679310
O351	O35	0.595440	0.424430	0.783090
O361	O36	0.324570	0.893180	0.674480
O371	O37	0.457300	0.920320	0.558880
O381	O38	0.385570	0.740870	0.452990
O391	O39	0.835330	0.679310	0.407630
O401	O40	0.197040	0.783090	0.424430
