data_GIVNIK_clean_PM
_symmetry_space_group_name_H-M	'P1'
_cell_length_a	33.647400
_cell_length_b	13.923700
_cell_length_c	23.343700
_cell_angle_alpha	90.000000
_cell_angle_beta	112.495000
_cell_angle_gamma	90.000000
_symmetry_Int_Tables_number 1

loop_
_symmetry_equiv_pos_as_xyz
'x,y,z'

loop_
_atom_site_label
_atom_site_type_symbol
_atom_site_fract_x
_atom_site_fract_y
_atom_site_fract_z
Ag11	Ag1	0.154000	0.136110	0.291290
N11	N1	0.217810	0.151600	0.372180
C11	C1	0.248610	0.150200	0.415030
C21	C2	0.287190	0.144800	0.469330
C31	C3	0.307770	0.058500	0.487190
C41	C4	0.304540	0.228800	0.503590
C51	C5	0.346030	0.051400	0.539930
H11	H1	0.296200	0.003800	0.464000
H21	H2	0.291000	0.287700	0.490900
C61	C6	0.341880	0.222900	0.556110
C71	C7	0.363460	0.135100	0.574560
H31	H3	0.359700	0.992500	0.551900
H41	H4	0.352800	0.277800	0.579500
C81	C8	0.405290	0.132600	0.628370
C91	C9	0.440300	0.093000	0.619870
C101	C10	0.405490	0.171500	0.684770
C111	C11	0.442350	0.054600	0.563900
N21	N2	0.481200	0.079500	0.668320
C121	C12	0.369660	0.182500	0.702760
N31	N3	0.442170	0.201340	0.733190
C131	C13	0.483500	0.022600	0.577830
H51	H5	0.419900	0.052100	0.525300
C141	C14	0.505720	0.038400	0.642260
H61	H6	0.341100	0.168300	0.678800
C151	C15	0.385580	0.218200	0.762580
C161	C16	0.430290	0.230900	0.779690
H71	H7	0.494600	0.995800	0.550600
H81	H8	0.534400	0.021800	0.663900
H91	H9	0.369900	0.231400	0.786900
C171	C17	0.378930	0.506400	0.682070
C181	C18	0.462240	0.276300	0.833700
C191	C19	0.381250	0.480500	0.625820
H101	H10	0.356000	0.536500	0.687600
C201	C20	0.418250	0.477900	0.729120
C211	C21	0.463700	0.282500	0.895280
N41	N4	0.496730	0.318640	0.828570
C221	C22	0.422350	0.437000	0.640470
H111	H11	0.360200	0.489700	0.586500
H121	H12	0.425200	0.486700	0.771400
N51	N5	0.444080	0.436700	0.704620
H131	H13	0.443100	0.260100	0.909500
C231	C23	0.501210	0.327700	0.929340
C241	C24	0.521850	0.353600	0.888260
C251	C25	0.439650	0.404600	0.597460
H141	H14	0.511600	0.339600	0.971700
C261	C26	0.416170	0.432900	0.531870
C271	C27	0.410850	0.530200	0.517310
C281	C28	0.400220	0.366000	0.484460
H151	H15	0.420600	0.574800	0.549400
C291	C29	0.391730	0.563300	0.457160
C301	C30	0.379660	0.397400	0.423370
H161	H16	0.403200	0.300700	0.493300
H171	H17	0.389300	0.628700	0.448400
C311	C31	0.376190	0.495300	0.410050
H181	H18	0.368300	0.352900	0.391500
C321	C32	0.358230	0.528400	0.347290
Ag21	Ag2	0.654000	0.636110	0.291290
N61	N6	0.717810	0.651600	0.372180
C331	C33	0.748610	0.650200	0.415030
C341	C34	0.787190	0.644800	0.469330
C351	C35	0.807770	0.558500	0.487190
C361	C36	0.804540	0.728800	0.503590
C371	C37	0.846030	0.551400	0.539930
H191	H19	0.796200	0.503800	0.464000
H201	H20	0.791000	0.787700	0.490900
C381	C38	0.841880	0.722900	0.556110
C391	C39	0.863460	0.635100	0.574560
H211	H21	0.859700	0.492500	0.551900
H221	H22	0.852800	0.777800	0.579500
C401	C40	0.905290	0.632600	0.628370
C411	C41	0.940300	0.593000	0.619870
C421	C42	0.905490	0.671500	0.684770
C431	C43	0.942350	0.554600	0.563900
N71	N7	0.981200	0.579500	0.668320
C441	C44	0.869660	0.682500	0.702760
N81	N8	0.942170	0.701340	0.733190
C451	C45	0.983500	0.522600	0.577830
H231	H23	0.919900	0.552100	0.525300
C461	C46	0.005720	0.538400	0.642260
H241	H24	0.841100	0.668300	0.678800
C471	C47	0.885580	0.718200	0.762580
C481	C48	0.930290	0.730900	0.779690
H251	H25	0.994600	0.495800	0.550600
H261	H26	0.034400	0.521800	0.663900
H271	H27	0.869900	0.731400	0.786900
C491	C49	0.878930	0.006400	0.682070
C501	C50	0.962240	0.776300	0.833700
C511	C51	0.881250	0.980500	0.625820
H281	H28	0.856000	0.036500	0.687600
C521	C52	0.918250	0.977900	0.729120
C531	C53	0.963700	0.782500	0.895280
N91	N9	0.996730	0.818640	0.828570
C541	C54	0.922350	0.937000	0.640470
H291	H29	0.860200	0.989700	0.586500
H301	H30	0.925200	0.986700	0.771400
N101	N10	0.944080	0.936700	0.704620
H311	H31	0.943100	0.760100	0.909500
C551	C55	0.001210	0.827700	0.929340
C561	C56	0.021850	0.853600	0.888260
C571	C57	0.939650	0.904600	0.597460
H321	H32	0.011600	0.839600	0.971700
C581	C58	0.916170	0.932900	0.531870
C591	C59	0.910850	0.030200	0.517310
C601	C60	0.900220	0.866000	0.484460
H331	H33	0.920600	0.074800	0.549400
C611	C61	0.891730	0.063300	0.457160
C621	C62	0.879660	0.897400	0.423370
H341	H34	0.903200	0.800700	0.493300
H351	H35	0.889300	0.128700	0.448400
C631	C63	0.876190	0.995300	0.410050
H361	H36	0.868300	0.852900	0.391500
C641	C64	0.858230	0.028400	0.347290
Ag31	Ag3	0.846000	0.136110	0.208710
N111	N11	0.782190	0.151600	0.127820
C651	C65	0.751390	0.150200	0.084970
C661	C66	0.712810	0.144800	0.030670
C671	C67	0.692230	0.058500	0.012810
C681	C68	0.695460	0.228800	0.996410
C691	C69	0.653970	0.051400	0.960070
H371	H37	0.703800	0.003800	0.036000
H381	H38	0.709000	0.287700	0.009100
C701	C70	0.658120	0.222900	0.943890
C711	C71	0.636540	0.135100	0.925440
H391	H39	0.640300	0.992500	0.948100
H401	H40	0.647200	0.277800	0.920500
C721	C72	0.594710	0.132600	0.871630
C731	C73	0.559700	0.093000	0.880130
C741	C74	0.594510	0.171500	0.815230
C751	C75	0.557650	0.054600	0.936100
N121	N12	0.518800	0.079500	0.831680
C761	C76	0.630340	0.182500	0.797240
N131	N13	0.557830	0.201340	0.766810
C771	C77	0.516500	0.022600	0.922170
H411	H41	0.580100	0.052100	0.974700
C781	C78	0.494280	0.038400	0.857740
H421	H42	0.658900	0.168300	0.821200
C791	C79	0.614420	0.218200	0.737420
C801	C80	0.569710	0.230900	0.720310
H431	H43	0.505400	0.995800	0.949400
H441	H44	0.465600	0.021800	0.836100
H451	H45	0.630100	0.231400	0.713100
C811	C81	0.621070	0.506400	0.817930
C821	C82	0.537760	0.276300	0.666300
C831	C83	0.618750	0.480500	0.874180
H461	H46	0.644000	0.536500	0.812400
C841	C84	0.581750	0.477900	0.770880
C851	C85	0.536300	0.282500	0.604720
N141	N14	0.503270	0.318640	0.671430
C861	C86	0.577650	0.437000	0.859530
H471	H47	0.639800	0.489700	0.913500
H481	H48	0.574800	0.486700	0.728600
N151	N15	0.555920	0.436700	0.795380
H491	H49	0.556900	0.260100	0.590500
C871	C87	0.498790	0.327700	0.570660
C881	C88	0.478150	0.353600	0.611740
C891	C89	0.560350	0.404600	0.902540
H501	H50	0.488400	0.339600	0.528300
C901	C90	0.583830	0.432900	0.968130
C911	C91	0.589150	0.530200	0.982690
C921	C92	0.599780	0.366000	0.015540
H511	H51	0.579400	0.574800	0.950600
C931	C93	0.608270	0.563300	0.042840
C941	C94	0.620340	0.397400	0.076630
H521	H52	0.596800	0.300700	0.006700
H531	H53	0.610700	0.628700	0.051600
C951	C95	0.623810	0.495300	0.089950
H541	H54	0.631700	0.352900	0.108500
C961	C96	0.641770	0.528400	0.152710
Ag41	Ag4	0.346000	0.636110	0.208710
N161	N16	0.282190	0.651600	0.127820
C971	C97	0.251390	0.650200	0.084970
C981	C98	0.212810	0.644800	0.030670
C991	C99	0.192230	0.558500	0.012810
C1001	C100	0.195460	0.728800	0.996410
C1011	C101	0.153970	0.551400	0.960070
H551	H55	0.203800	0.503800	0.036000
H561	H56	0.209000	0.787700	0.009100
C1021	C102	0.158120	0.722900	0.943890
C1031	C103	0.136540	0.635100	0.925440
H571	H57	0.140300	0.492500	0.948100
H581	H58	0.147200	0.777800	0.920500
C1041	C104	0.094710	0.632600	0.871630
C1051	C105	0.059700	0.593000	0.880130
C1061	C106	0.094510	0.671500	0.815230
C1071	C107	0.057650	0.554600	0.936100
N171	N17	0.018800	0.579500	0.831680
C1081	C108	0.130340	0.682500	0.797240
N181	N18	0.057830	0.701340	0.766810
C1091	C109	0.016500	0.522600	0.922170
H591	H59	0.080100	0.552100	0.974700
C1101	C110	0.994280	0.538400	0.857740
H601	H60	0.158900	0.668300	0.821200
C1111	C111	0.114420	0.718200	0.737420
C1121	C112	0.069710	0.730900	0.720310
H611	H61	0.005400	0.495800	0.949400
H621	H62	0.965600	0.521800	0.836100
H631	H63	0.130100	0.731400	0.713100
C1131	C113	0.121070	0.006400	0.817930
C1141	C114	0.037760	0.776300	0.666300
C1151	C115	0.118750	0.980500	0.874180
H641	H64	0.144000	0.036500	0.812400
C1161	C116	0.081750	0.977900	0.770880
C1171	C117	0.036300	0.782500	0.604720
N191	N19	0.003270	0.818640	0.671430
C1181	C118	0.077650	0.937000	0.859530
H651	H65	0.139800	0.989700	0.913500
H661	H66	0.074800	0.986700	0.728600
N201	N20	0.055920	0.936700	0.795380
H671	H67	0.056900	0.760100	0.590500
C1191	C119	0.998790	0.827700	0.570660
C1201	C120	0.978150	0.853600	0.611740
C1211	C121	0.060350	0.904600	0.902540
H681	H68	0.988400	0.839600	0.528300
C1221	C122	0.083830	0.932900	0.968130
C1231	C123	0.089150	0.030200	0.982690
C1241	C124	0.099780	0.866000	0.015540
H691	H69	0.079400	0.074800	0.950600
C1251	C125	0.108270	0.063300	0.042840
C1261	C126	0.120340	0.897400	0.076630
H701	H70	0.096800	0.800700	0.006700
H711	H71	0.110700	0.128700	0.051600
C1271	C127	0.123810	0.995300	0.089950
H721	H72	0.131700	0.852900	0.108500
C1281	C128	0.141770	0.028400	0.152710
N211	N21	0.654650	0.559700	0.202520
N221	N22	0.154650	0.059700	0.202520
N231	N23	0.345350	0.559700	0.297480
N241	N24	0.845350	0.059700	0.297480
Zn11	Zn1	0.500000	0.144120	0.750000
Zn21	Zn2	0.500000	0.370860	0.750000
Zn31	Zn3	0.000000	0.644120	0.750000
Zn41	Zn4	0.000000	0.870860	0.750000
N251	N25	0.345350	0.440300	0.797480
N261	N26	0.845350	0.940300	0.797480
N271	N27	0.654650	0.440300	0.702520
N281	N28	0.154650	0.940300	0.702520
Ag51	Ag5	0.846000	0.863890	0.708710
N291	N29	0.782190	0.848400	0.627820
C1291	C129	0.751390	0.849800	0.584970
C1301	C130	0.712810	0.855200	0.530670
C1311	C131	0.692230	0.941500	0.512810
C1321	C132	0.695460	0.771200	0.496410
C1331	C133	0.653970	0.948600	0.460070
H731	H73	0.703800	0.996200	0.536000
H741	H74	0.709000	0.712300	0.509100
C1341	C134	0.658120	0.777100	0.443890
C1351	C135	0.636540	0.864900	0.425440
H751	H75	0.640300	0.007500	0.448100
H761	H76	0.647200	0.722200	0.420500
C1361	C136	0.594710	0.867400	0.371630
C1371	C137	0.559700	0.907000	0.380130
C1381	C138	0.594510	0.828500	0.315230
C1391	C139	0.557650	0.945400	0.436100
N301	N30	0.518800	0.920500	0.331680
C1401	C140	0.630340	0.817500	0.297240
N311	N31	0.557830	0.798660	0.266810
C1411	C141	0.516500	0.977400	0.422170
H771	H77	0.580100	0.947900	0.474700
C1421	C142	0.494280	0.961600	0.357740
H781	H78	0.658900	0.831700	0.321200
C1431	C143	0.614420	0.781800	0.237420
C1441	C144	0.569710	0.769100	0.220310
H791	H79	0.505400	0.004200	0.449400
H801	H80	0.465600	0.978200	0.336100
H811	H81	0.630100	0.768600	0.213100
C1451	C145	0.621070	0.493600	0.317930
C1461	C146	0.537760	0.723700	0.166300
C1471	C147	0.618750	0.519500	0.374180
H821	H82	0.644000	0.463500	0.312400
C1481	C148	0.581750	0.522100	0.270880
C1491	C149	0.536300	0.717500	0.104720
N321	N32	0.503270	0.681360	0.171430
C1501	C150	0.577650	0.563000	0.359530
H831	H83	0.639800	0.510300	0.413500
H841	H84	0.574800	0.513300	0.228600
N331	N33	0.555920	0.563300	0.295380
H851	H85	0.556900	0.739900	0.090500
C1511	C151	0.498790	0.672300	0.070660
C1521	C152	0.478150	0.646400	0.111740
C1531	C153	0.560350	0.595400	0.402540
H861	H86	0.488400	0.660400	0.028300
C1541	C154	0.583830	0.567100	0.468130
C1551	C155	0.589150	0.469800	0.482690
C1561	C156	0.599780	0.634000	0.515540
H871	H87	0.579400	0.425200	0.450600
C1571	C157	0.608270	0.436700	0.542840
C1581	C158	0.620340	0.602600	0.576630
H881	H88	0.596800	0.699300	0.506700
H891	H89	0.610700	0.371300	0.551600
C1591	C159	0.623810	0.504700	0.589950
H901	H90	0.631700	0.647100	0.608500
C1601	C160	0.641770	0.471600	0.652710
Ag61	Ag6	0.346000	0.363890	0.708710
N341	N34	0.282190	0.348400	0.627820
C1611	C161	0.251390	0.349800	0.584970
C1621	C162	0.212810	0.355200	0.530670
C1631	C163	0.192230	0.441500	0.512810
C1641	C164	0.195460	0.271200	0.496410
C1651	C165	0.153970	0.448600	0.460070
H911	H91	0.203800	0.496200	0.536000
H921	H92	0.209000	0.212300	0.509100
C1661	C166	0.158120	0.277100	0.443890
C1671	C167	0.136540	0.364900	0.425440
H931	H93	0.140300	0.507500	0.448100
H941	H94	0.147200	0.222200	0.420500
C1681	C168	0.094710	0.367400	0.371630
C1691	C169	0.059700	0.407000	0.380130
C1701	C170	0.094510	0.328500	0.315230
C1711	C171	0.057650	0.445400	0.436100
N351	N35	0.018800	0.420500	0.331680
C1721	C172	0.130340	0.317500	0.297240
N361	N36	0.057830	0.298660	0.266810
C1731	C173	0.016500	0.477400	0.422170
H951	H95	0.080100	0.447900	0.474700
C1741	C174	0.994280	0.461600	0.357740
H961	H96	0.158900	0.331700	0.321200
C1751	C175	0.114420	0.281800	0.237420
C1761	C176	0.069710	0.269100	0.220310
H971	H97	0.005400	0.504200	0.449400
H981	H98	0.965600	0.478200	0.336100
H991	H99	0.130100	0.268600	0.213100
C1771	C177	0.121070	0.993600	0.317930
C1781	C178	0.037760	0.223700	0.166300
C1791	C179	0.118750	0.019500	0.374180
H1001	H100	0.144000	0.963500	0.312400
C1801	C180	0.081750	0.022100	0.270880
C1811	C181	0.036300	0.217500	0.104720
N371	N37	0.003270	0.181360	0.171430
C1821	C182	0.077650	0.063000	0.359530
H1011	H101	0.139800	0.010300	0.413500
H1021	H102	0.074800	0.013300	0.228600
N381	N38	0.055920	0.063300	0.295380
H1031	H103	0.056900	0.239900	0.090500
C1831	C183	0.998790	0.172300	0.070660
C1841	C184	0.978150	0.146400	0.111740
C1851	C185	0.060350	0.095400	0.402540
H1041	H104	0.988400	0.160400	0.028300
C1861	C186	0.083830	0.067100	0.468130
C1871	C187	0.089150	0.969800	0.482690
C1881	C188	0.099780	0.134000	0.515540
H1051	H105	0.079400	0.925200	0.450600
C1891	C189	0.108270	0.936700	0.542840
C1901	C190	0.120340	0.102600	0.576630
H1061	H106	0.096800	0.199300	0.506700
H1071	H107	0.110700	0.871300	0.551600
C1911	C191	0.123810	0.004700	0.589950
H1081	H108	0.131700	0.147100	0.608500
C1921	C192	0.141770	0.971600	0.652710
Ag71	Ag7	0.154000	0.863890	0.791290
N391	N39	0.217810	0.848400	0.872180
C1931	C193	0.248610	0.849800	0.915030
C1941	C194	0.287190	0.855200	0.969330
C1951	C195	0.307770	0.941500	0.987190
C1961	C196	0.304540	0.771200	0.003590
C1971	C197	0.346030	0.948600	0.039930
H1091	H109	0.296200	0.996200	0.964000
H1101	H110	0.291000	0.712300	0.990900
C1981	C198	0.341880	0.777100	0.056110
C1991	C199	0.363460	0.864900	0.074560
H1111	H111	0.359700	0.007500	0.051900
H1121	H112	0.352800	0.722200	0.079500
C2001	C200	0.405290	0.867400	0.128370
C2011	C201	0.440300	0.907000	0.119870
C2021	C202	0.405490	0.828500	0.184770
C2031	C203	0.442350	0.945400	0.063900
N401	N40	0.481200	0.920500	0.168320
C2041	C204	0.369660	0.817500	0.202760
N411	N41	0.442170	0.798660	0.233190
C2051	C205	0.483500	0.977400	0.077830
H1131	H113	0.419900	0.947900	0.025300
C2061	C206	0.505720	0.961600	0.142260
H1141	H114	0.341100	0.831700	0.178800
C2071	C207	0.385580	0.781800	0.262580
C2081	C208	0.430290	0.769100	0.279690
H1151	H115	0.494600	0.004200	0.050600
H1161	H116	0.534400	0.978200	0.163900
H1171	H117	0.369900	0.768600	0.286900
C2091	C209	0.378930	0.493600	0.182070
C2101	C210	0.462240	0.723700	0.333700
C2111	C211	0.381250	0.519500	0.125820
H1181	H118	0.356000	0.463500	0.187600
C2121	C212	0.418250	0.522100	0.229120
C2131	C213	0.463700	0.717500	0.395280
N421	N42	0.496730	0.681360	0.328570
C2141	C214	0.422350	0.563000	0.140470
H1191	H119	0.360200	0.510300	0.086500
H1201	H120	0.425200	0.513300	0.271400
N431	N43	0.444080	0.563300	0.204620
H1211	H121	0.443100	0.739900	0.409500
C2151	C215	0.501210	0.672300	0.429340
C2161	C216	0.521850	0.646400	0.388260
C2171	C217	0.439650	0.595400	0.097460
H1221	H122	0.511600	0.660400	0.471700
C2181	C218	0.416170	0.567100	0.031870
C2191	C219	0.410850	0.469800	0.017310
C2201	C220	0.400220	0.634000	0.984460
H1231	H123	0.420600	0.425200	0.049400
C2211	C221	0.391730	0.436700	0.957160
C2221	C222	0.379660	0.602600	0.923370
H1241	H124	0.403200	0.699300	0.993300
H1251	H125	0.389300	0.371300	0.948400
C2231	C223	0.376190	0.504700	0.910050
H1261	H126	0.368300	0.647100	0.891500
C2241	C224	0.358230	0.471600	0.847290
Ag81	Ag8	0.654000	0.363890	0.791290
N441	N44	0.717810	0.348400	0.872180
C2251	C225	0.748610	0.349800	0.915030
C2261	C226	0.787190	0.355200	0.969330
C2271	C227	0.807770	0.441500	0.987190
C2281	C228	0.804540	0.271200	0.003590
C2291	C229	0.846030	0.448600	0.039930
H1271	H127	0.796200	0.496200	0.964000
H1281	H128	0.791000	0.212300	0.990900
C2301	C230	0.841880	0.277100	0.056110
C2311	C231	0.863460	0.364900	0.074560
H1291	H129	0.859700	0.507500	0.051900
H1301	H130	0.852800	0.222200	0.079500
C2321	C232	0.905290	0.367400	0.128370
C2331	C233	0.940300	0.407000	0.119870
C2341	C234	0.905490	0.328500	0.184770
C2351	C235	0.942350	0.445400	0.063900
N451	N45	0.981200	0.420500	0.168320
C2361	C236	0.869660	0.317500	0.202760
N461	N46	0.942170	0.298660	0.233190
C2371	C237	0.983500	0.477400	0.077830
H1311	H131	0.919900	0.447900	0.025300
C2381	C238	0.005720	0.461600	0.142260
H1321	H132	0.841100	0.331700	0.178800
C2391	C239	0.885580	0.281800	0.262580
C2401	C240	0.930290	0.269100	0.279690
H1331	H133	0.994600	0.504200	0.050600
H1341	H134	0.034400	0.478200	0.163900
H1351	H135	0.869900	0.268600	0.286900
C2411	C241	0.878930	0.993600	0.182070
C2421	C242	0.962240	0.223700	0.333700
C2431	C243	0.881250	0.019500	0.125820
H1361	H136	0.856000	0.963500	0.187600
C2441	C244	0.918250	0.022100	0.229120
C2451	C245	0.963700	0.217500	0.395280
N471	N47	0.996730	0.181360	0.328570
C2461	C246	0.922350	0.063000	0.140470
H1371	H137	0.860200	0.010300	0.086500
H1381	H138	0.925200	0.013300	0.271400
N481	N48	0.944080	0.063300	0.204620
H1391	H139	0.943100	0.239900	0.409500
C2471	C247	0.001210	0.172300	0.429340
C2481	C248	0.021850	0.146400	0.388260
C2491	C249	0.939650	0.095400	0.097460
H1401	H140	0.011600	0.160400	0.471700
C2501	C250	0.916170	0.067100	0.031870
C2511	C251	0.910850	0.969800	0.017310
C2521	C252	0.900220	0.134000	0.984460
H1411	H141	0.920600	0.925200	0.049400
C2531	C253	0.891730	0.936700	0.957160
C2541	C254	0.879660	0.102600	0.923370
H1421	H142	0.903200	0.199300	0.993300
H1431	H143	0.889300	0.871300	0.948400
C2551	C255	0.876190	0.004700	0.910050
H1441	H144	0.868300	0.147100	0.891500
C2561	C256	0.858230	0.971600	0.847290
Zn51	Zn5	0.500000	0.855880	0.250000
Zn61	Zn6	0.500000	0.629140	0.250000
Zn71	Zn7	0.000000	0.355880	0.250000
Zn81	Zn8	0.000000	0.129140	0.250000
