data_GIWBEU_charged_PM
_symmetry_space_group_name_H-M	'P1'
_cell_length_a	13.082000
_cell_length_b	16.616600
_cell_length_c	31.250500
_cell_angle_alpha	83.231600
_cell_angle_beta	77.918100
_cell_angle_gamma	66.818600
_symmetry_Int_Tables_number 1

loop_
_symmetry_equiv_pos_as_xyz
'x,y,z'

loop_
_atom_site_label
_atom_site_type_symbol
_atom_site_fract_x
_atom_site_fract_y
_atom_site_fract_z
Ga11	Ga1	0.895540	0.712020	0.413420
Ga21	Ga2	0.979020	0.212020	0.913420
Ag11	Ag1	0.986040	0.230980	0.231820
Ag21	Ag2	0.551160	0.730980	0.731820
H11	H1	0.153200	0.683300	0.373300
H21	H2	0.277200	0.587800	0.312400
H31	H3	0.182600	0.491100	0.300500
H41	H4	0.774900	0.476400	0.369000
H51	H5	0.618800	0.555400	0.428600
H61	H6	0.670700	0.673500	0.451700
H71	H7	0.108100	0.365900	0.344300
H81	H8	0.136800	0.265600	0.294600
H91	H9	0.893900	0.434200	0.236400
H101	H10	0.861900	0.539500	0.284500
H111	H11	0.036000	0.759900	0.470500
H121	H12	0.118000	0.873900	0.454500
H131	H13	0.040500	0.965800	0.391000
H141	H14	0.793000	0.927500	0.280500
H151	H15	0.700500	0.823000	0.278800
H161	H16	0.745700	0.716500	0.343300
H171	H17	0.762100	0.055900	0.335900
H181	H18	0.794500	0.173900	0.292300
H191	H19	0.115800	0.031600	0.260400
H201	H20	0.098500	0.913100	0.299900
H211	H21	0.871900	0.063900	0.943900
H221	H22	0.822400	0.013800	0.021200
H231	H23	0.872600	0.092700	0.070100
H241	H24	0.042000	0.347300	0.041700
H251	H25	0.089100	0.436300	0.973100
H261	H26	0.047500	0.374500	0.910500
H271	H27	0.815400	0.320800	0.088200
H281	H28	0.826200	0.321200	0.161600
H291	H29	0.109900	0.118200	0.149400
H301	H30	0.110900	0.110500	0.075100
H311	H31	0.790200	0.183300	0.873300
H321	H32	0.822600	0.087800	0.812400
H331	H33	0.025800	0.991100	0.800500
H341	H34	0.379700	0.976400	0.869000
H351	H35	0.397200	0.055400	0.928600
H361	H36	0.204100	0.173500	0.951700
H371	H37	0.181700	0.865900	0.844300
H381	H38	0.303000	0.765600	0.794600
H391	H39	0.435500	0.934200	0.736400
H401	H40	0.314100	0.039500	0.784500
H411	H41	0.733600	0.259900	0.970500
H421	H42	0.553600	0.373900	0.954500
H431	H43	0.602700	0.465800	0.891000
H441	H44	0.999000	0.427500	0.780500
H451	H45	0.197700	0.323000	0.778800
H461	H46	0.194500	0.216500	0.843300
H471	H47	0.846100	0.555900	0.835900
H481	H48	0.739300	0.673900	0.792300
H491	H49	0.592200	0.531600	0.760400
H501	H50	0.688500	0.413100	0.799900
H511	H51	0.120300	0.563900	0.443900
H521	H52	0.142600	0.513800	0.521200
H531	H53	0.964600	0.592700	0.570100
H541	H54	0.569000	0.847300	0.541700
H551	H55	0.501500	0.936300	0.473100
H561	H56	0.667500	0.874500	0.410500
H571	H57	0.775600	0.820800	0.588200
H581	H58	0.691000	0.821200	0.661600
H591	H59	0.622500	0.618200	0.649400
H601	H60	0.703500	0.610500	0.575100
C11	C1	0.133800	0.643830	0.360170
C21	C2	0.205300	0.589000	0.327200
C31	C3	0.153100	0.537700	0.320100
C41	C4	0.042600	0.567060	0.348340
C51	C5	0.960340	0.534700	0.351420
C61	C6	0.853960	0.561430	0.379850
C71	C7	0.770800	0.523100	0.385100
C81	C8	0.685700	0.566200	0.417200
C91	C9	0.717300	0.631590	0.430410
C101	C10	0.978780	0.464110	0.320930
C111	C11	0.061300	0.381100	0.322700
C121	C12	0.076000	0.320800	0.293800
C131	C13	0.935000	0.418840	0.259760
C141	C14	0.917300	0.482290	0.287910
C151	C15	0.026000	0.799900	0.445900
C161	C16	0.069900	0.865000	0.438200
C171	C17	0.030600	0.913400	0.402800
C181	C18	0.970700	0.870020	0.386380
C191	C19	0.917000	0.892880	0.350920
C201	C20	0.851270	0.854860	0.337400
C211	C21	0.794700	0.879800	0.300600
C221	C22	0.744200	0.823090	0.299510
C231	C23	0.770400	0.763770	0.336030
C241	C24	0.927600	0.971760	0.323040
C251	C25	0.835700	0.049300	0.320700
C261	C26	0.857100	0.120000	0.293800
C271	C27	0.042900	0.036300	0.275700
C281	C28	0.034100	0.965930	0.299270
C291	C29	0.883300	0.084160	0.969040
C301	C30	0.855400	0.056190	0.012210
C311	C31	0.882900	0.098930	0.039070
C321	C32	0.930390	0.155660	0.011960
C331	C33	0.962900	0.217850	0.024950
C341	C34	0.997400	0.279220	0.999180
C351	C35	0.035700	0.340900	0.012700
C361	C36	0.062500	0.390200	0.975000
C371	C37	0.039500	0.353600	0.940200
C381	C38	0.964700	0.216530	0.073270
C391	C39	0.878300	0.278890	0.099710
C401	C40	0.885800	0.278770	0.143430
C411	C41	0.050500	0.161100	0.136500
C421	C42	0.051600	0.155420	0.091980
C431	C43	0.862200	0.143830	0.860170
C441	C44	0.878500	0.089000	0.827200
C451	C45	0.989100	0.037700	0.820100
C461	C46	0.042000	0.067060	0.848340
C471	C47	0.153540	0.034700	0.851420
C481	C48	0.204760	0.061430	0.879850
C491	C49	0.321000	0.023100	0.885100
C501	C50	0.330900	0.066200	0.917200
C511	C51	0.220700	0.131590	0.930410
C521	C52	0.236180	0.964110	0.820930
C531	C53	0.234900	0.881100	0.822700
C541	C54	0.309400	0.820800	0.793800
C551	C55	0.386400	0.918840	0.759760
C561	C56	0.312500	0.982290	0.787910
C571	C57	0.728200	0.299900	0.945900
C581	C58	0.626900	0.365000	0.938200
C591	C59	0.653200	0.413400	0.902800
C601	C60	0.772900	0.370020	0.886380
C611	C61	0.839200	0.392880	0.850920
C621	C62	0.956470	0.354860	0.837400
C631	C63	0.024900	0.379800	0.800600
C641	C64	0.133200	0.323090	0.799510
C651	C65	0.129800	0.263770	0.836030
C661	C66	0.777600	0.471760	0.823040
C671	C67	0.794300	0.549300	0.820700
C681	C68	0.729100	0.620000	0.793800
C691	C69	0.645100	0.536300	0.775700
C701	C70	0.700700	0.465930	0.799270
C711	C71	0.063500	0.584160	0.469040
C721	C72	0.076200	0.556190	0.512210
C731	C73	0.979100	0.598930	0.539070
C741	C74	0.901990	0.655660	0.511960
C751	C75	0.794300	0.717850	0.524950
C761	C76	0.724200	0.779220	0.499180
C771	C77	0.610700	0.840900	0.512700
C781	C78	0.572300	0.890200	0.475000
C791	C79	0.666700	0.853600	0.440200
C801	C80	0.745500	0.716530	0.573270
C811	C81	0.743100	0.778890	0.599710
C821	C82	0.692000	0.778770	0.643430
C831	C83	0.651900	0.661100	0.636500
C841	C84	0.701000	0.655420	0.591980
N11	N1	0.034430	0.634580	0.371560
N21	N2	0.819510	0.627220	0.409560
N31	N3	0.008520	0.335290	0.263870
N41	N4	0.969850	0.798620	0.416280
N51	N5	0.832570	0.782060	0.358600
N61	N6	0.953080	0.116200	0.271840
N71	N7	0.928990	0.144640	0.968380
N81	N8	0.006050	0.287140	0.953960
N91	N9	0.972230	0.222280	0.161260
N101	N10	0.959430	0.134580	0.871560
N111	N11	0.143710	0.127220	0.909560
N121	N12	0.392320	0.835290	0.763870
N131	N13	0.815250	0.298620	0.916280
N141	N14	0.026770	0.282060	0.858600
N151	N15	0.658880	0.616200	0.771840
N161	N16	0.957990	0.644640	0.468380
N171	N17	0.752850	0.787140	0.453960
N181	N18	0.644230	0.722280	0.661260
Ga31	Ga3	0.020980	0.787980	0.086580
Ga41	Ga4	0.104460	0.287980	0.586580
Ag31	Ag3	0.448840	0.269020	0.268180
Ag41	Ag4	0.013960	0.769020	0.768180
H611	H61	0.209800	0.816700	0.126700
H621	H62	0.177400	0.912200	0.187600
H631	H63	0.974200	0.008900	0.199500
H641	H64	0.620300	0.023600	0.131000
H651	H65	0.602800	0.944600	0.071400
H661	H66	0.795900	0.826500	0.048300
H671	H67	0.818300	0.134100	0.155700
H681	H68	0.697000	0.234400	0.205400
H691	H69	0.564500	0.065800	0.263600
H701	H70	0.685900	0.960500	0.215500
H711	H71	0.266400	0.740100	0.029500
H721	H72	0.446400	0.626100	0.045500
H731	H73	0.397300	0.534200	0.109000
H741	H74	0.001000	0.572500	0.219500
H751	H75	0.802300	0.677000	0.221200
H761	H76	0.805500	0.783500	0.156700
H771	H77	0.153900	0.444100	0.164100
H781	H78	0.260700	0.326100	0.207700
H791	H79	0.407800	0.468400	0.239600
H801	H80	0.311500	0.586900	0.200100
H811	H81	0.879700	0.436100	0.556100
H821	H82	0.857400	0.486200	0.478800
H831	H83	0.035400	0.407300	0.429900
H841	H84	0.431000	0.152700	0.458300
H851	H85	0.498500	0.063700	0.526900
H861	H86	0.332500	0.125500	0.589500
H871	H87	0.224400	0.179200	0.411800
H881	H88	0.309000	0.178800	0.338400
H891	H89	0.377500	0.381800	0.350600
H901	H90	0.296500	0.389500	0.424900
H911	H91	0.846800	0.316700	0.626700
H921	H92	0.722800	0.412200	0.687600
H931	H93	0.817400	0.508900	0.699500
H941	H94	0.225100	0.523600	0.631000
H951	H95	0.381200	0.444600	0.571400
H961	H96	0.329300	0.326500	0.548300
H971	H97	0.891900	0.634100	0.655700
H981	H98	0.863200	0.734400	0.705400
H991	H99	0.106100	0.565800	0.763600
H1001	H100	0.138100	0.460500	0.715500
H1011	H101	0.964000	0.240100	0.529500
H1021	H102	0.882000	0.126100	0.545500
H1031	H103	0.959500	0.034200	0.609000
H1041	H104	0.207000	0.072500	0.719500
H1051	H105	0.299500	0.177000	0.721200
H1061	H106	0.254300	0.283500	0.656700
H1071	H107	0.237900	0.944100	0.664100
H1081	H108	0.205500	0.826100	0.707700
H1091	H109	0.884200	0.968400	0.739600
H1101	H110	0.901500	0.086900	0.700100
H1111	H111	0.128100	0.936100	0.056100
H1121	H112	0.177600	0.986200	0.978800
H1131	H113	0.127400	0.907300	0.929900
H1141	H114	0.958000	0.652700	0.958300
H1151	H115	0.910900	0.563700	0.026900
H1161	H116	0.952500	0.625500	0.089500
H1171	H117	0.184600	0.679200	0.911800
H1181	H118	0.173800	0.678800	0.838400
H1191	H119	0.890100	0.881800	0.850600
H1201	H120	0.889100	0.889500	0.924900
C851	C85	0.137800	0.856170	0.139830
C861	C86	0.121500	0.911000	0.172800
C871	C87	0.010900	0.962300	0.179900
C881	C88	0.958000	0.932940	0.151660
C891	C89	0.846460	0.965300	0.148580
C901	C90	0.795240	0.938570	0.120150
C911	C91	0.679000	0.976900	0.114900
C921	C92	0.669100	0.933800	0.082800
C931	C93	0.779300	0.868410	0.069590
C941	C94	0.763820	0.035890	0.179070
C951	C95	0.765100	0.118900	0.177300
C961	C96	0.690600	0.179200	0.206200
C971	C97	0.613600	0.081160	0.240240
C981	C98	0.687500	0.017710	0.212090
C991	C99	0.271800	0.700100	0.054100
C1001	C100	0.373100	0.635000	0.061800
C1011	C101	0.346800	0.586600	0.097200
C1021	C102	0.227100	0.629980	0.113620
C1031	C103	0.160800	0.607120	0.149080
C1041	C104	0.043530	0.645140	0.162600
C1051	C105	0.975100	0.620200	0.199400
C1061	C106	0.866800	0.676910	0.200490
C1071	C107	0.870200	0.736230	0.163970
C1081	C108	0.222400	0.528240	0.176960
C1091	C109	0.205700	0.450700	0.179300
C1101	C110	0.270900	0.380000	0.206200
C1111	C111	0.354900	0.463700	0.224300
C1121	C112	0.299300	0.534070	0.200730
C1131	C113	0.936500	0.415840	0.530960
C1141	C114	0.923800	0.443810	0.487790
C1151	C115	0.020900	0.401070	0.460930
C1161	C116	0.098010	0.344340	0.488040
C1171	C117	0.205700	0.282150	0.475050
C1181	C118	0.275800	0.220780	0.500820
C1191	C119	0.389300	0.159100	0.487300
C1201	C120	0.427700	0.109800	0.525000
C1211	C121	0.333300	0.146400	0.559800
C1221	C122	0.254500	0.283470	0.426730
C1231	C123	0.256900	0.221110	0.400290
C1241	C124	0.308000	0.221230	0.356570
C1251	C125	0.348100	0.338900	0.363500
C1261	C126	0.299000	0.344580	0.408020
C1271	C127	0.866200	0.356170	0.639830
C1281	C128	0.794700	0.411000	0.672800
C1291	C129	0.846900	0.462300	0.679900
C1301	C130	0.957400	0.432940	0.651660
C1311	C131	0.039660	0.465300	0.648580
C1321	C132	0.146040	0.438570	0.620150
C1331	C133	0.229200	0.476900	0.614900
C1341	C134	0.314300	0.433800	0.582800
C1351	C135	0.282700	0.368410	0.569590
C1361	C136	0.021220	0.535890	0.679070
C1371	C137	0.938700	0.618900	0.677300
C1381	C138	0.924000	0.679200	0.706200
C1391	C139	0.065000	0.581160	0.740240
C1401	C140	0.082700	0.517710	0.712090
C1411	C141	0.974000	0.200100	0.554100
C1421	C142	0.930100	0.135000	0.561800
C1431	C143	0.969400	0.086600	0.597200
C1441	C144	0.029300	0.129980	0.613620
C1451	C145	0.083000	0.107120	0.649080
C1461	C146	0.148730	0.145140	0.662600
C1471	C147	0.205300	0.120200	0.699400
C1481	C148	0.255800	0.176910	0.700490
C1491	C149	0.229600	0.236230	0.663970
C1501	C150	0.072400	0.028240	0.676960
C1511	C151	0.164300	0.950700	0.679300
C1521	C152	0.142900	0.880000	0.706200
C1531	C153	0.957100	0.963700	0.724300
C1541	C154	0.965900	0.034070	0.700730
C1551	C155	0.116700	0.915840	0.030960
C1561	C156	0.144600	0.943810	0.987790
C1571	C157	0.117100	0.901070	0.960930
C1581	C158	0.069610	0.844340	0.988040
C1591	C159	0.037100	0.782150	0.975050
C1601	C160	0.002600	0.720780	0.000820
C1611	C161	0.964300	0.659100	0.987300
C1621	C162	0.937500	0.609800	0.025000
C1631	C163	0.960500	0.646400	0.059800
C1641	C164	0.035300	0.783470	0.926730
C1651	C165	0.121700	0.721110	0.900290
C1661	C166	0.114200	0.721230	0.856570
C1671	C167	0.949500	0.838900	0.863500
C1681	C168	0.948400	0.844580	0.908020
N191	N19	0.040570	0.865420	0.128440
N201	N20	0.856290	0.872780	0.090440
N211	N21	0.607680	0.164710	0.236130
N221	N22	0.184750	0.701380	0.083720
N231	N23	0.973230	0.717940	0.141400
N241	N24	0.341120	0.383800	0.228160
N251	N25	0.042010	0.355360	0.531620
N261	N26	0.247150	0.212860	0.546040
N271	N27	0.355770	0.277720	0.338740
N281	N28	0.965570	0.365420	0.628440
N291	N29	0.180490	0.372780	0.590440
N301	N30	0.991480	0.664710	0.736130
N311	N31	0.030150	0.201380	0.583720
N321	N32	0.167430	0.217940	0.641400
N331	N33	0.046920	0.883800	0.728160
N341	N34	0.071010	0.855360	0.031620
N351	N35	0.993950	0.712860	0.046040
N361	N36	0.027770	0.777720	0.838740
C1691	C169	0.392700	0.994800	0.228200
S11	S1	0.308550	0.108300	0.234960
O11	O1	0.215000	0.127710	0.216290
O21	O2	0.326200	0.143600	0.267200
O31	O3	0.405900	0.118200	0.193000
F11	F1	0.466200	0.957500	0.256500
F21	F2	0.336700	0.943700	0.229300
F31	F3	0.457700	0.990800	0.188200
C1701	C170	0.615700	0.505200	0.271800
S21	S2	0.651810	0.391700	0.265040
O41	O4	0.559000	0.372290	0.283710
O51	O5	0.737000	0.356400	0.232800
O61	O6	0.717100	0.381800	0.307000
F41	F4	0.680200	0.542500	0.243500
F51	F5	0.509700	0.556300	0.270700
F61	F6	0.636700	0.509200	0.311800
C1711	C171	0.607300	0.005200	0.771800
S31	S3	0.691450	0.891700	0.765040
O71	O7	0.785000	0.872290	0.783710
O81	O8	0.673800	0.856400	0.732800
O91	O9	0.594100	0.881800	0.807000
F71	F7	0.533800	0.042500	0.743500
F81	F8	0.663300	0.056300	0.770700
F91	F9	0.542300	0.009200	0.811800
C1721	C172	0.384300	0.494800	0.728200
S41	S4	0.348190	0.608300	0.734960
O101	O10	0.441000	0.627710	0.716290
O111	O11	0.263000	0.643600	0.767200
O121	O12	0.282900	0.618200	0.693000
F101	F10	0.319800	0.457500	0.756500
F111	F11	0.490300	0.443700	0.729300
F121	F12	0.363300	0.490800	0.688200
