data_GIXMUX_clean_PM
_symmetry_space_group_name_H-M	'P1'
_cell_length_a	8.591100
_cell_length_b	8.587200
_cell_length_c	52.729500
_cell_angle_alpha	90.000000
_cell_angle_beta	90.000000
_cell_angle_gamma	90.000000
_symmetry_Int_Tables_number 1

loop_
_symmetry_equiv_pos_as_xyz
'x,y,z'

loop_
_atom_site_label
_atom_site_type_symbol
_atom_site_fract_x
_atom_site_fract_y
_atom_site_fract_z
Cu11	Cu1	0.405190	0.897840	0.734820
O11	O1	0.175600	0.882100	0.732050
O21	O2	0.201400	0.649900	0.713990
C11	C1	0.120100	0.757000	0.722410
C21	C2	0.941000	0.748100	0.721800
H11	H1	0.900200	0.825300	0.709600
H21	H2	0.908400	0.643200	0.716100
C31	C3	0.873300	0.780700	0.748180
H31	H3	0.899300	0.890600	0.752800
O31	O3	0.939200	0.682100	0.766700
H41	H4	0.900200	0.702400	0.780900
C41	C4	0.695300	0.766800	0.746770
O41	O4	0.631900	0.881700	0.735210
O51	O5	0.629200	0.654500	0.756080
Cu21	Cu2	0.183840	0.154710	0.487590
O61	O6	0.201000	0.926200	0.484690
O71	O7	0.431800	0.952600	0.465950
C51	C5	0.324500	0.871800	0.474290
C61	C6	0.335200	0.694000	0.473730
H51	H5	0.260400	0.652900	0.461100
H61	H6	0.441200	0.663000	0.468300
C71	C7	0.300800	0.623400	0.499290
H71	H7	0.191700	0.651500	0.504000
O81	O8	0.402300	0.684900	0.518320
H81	H8	0.450300	0.611600	0.525400
C81	C8	0.310700	0.447900	0.497620
O91	O9	0.186100	0.381300	0.488860
O101	O10	0.430400	0.377000	0.503610
N11	N1	0.417100	0.936700	0.697210
C91	C9	0.503000	0.849200	0.681510
H91	H9	0.571900	0.774300	0.688500
C101	C10	0.494800	0.863900	0.655540
H101	H10	0.554300	0.796000	0.645100
C111	C11	0.402000	0.975300	0.644320
C121	C12	0.319000	0.072200	0.660850
H111	H11	0.255800	0.153900	0.654400
C131	C13	0.330100	0.047300	0.686960
H121	H12	0.272200	0.113100	0.697900
C141	C14	0.389600	0.985700	0.616730
H131	H13	0.449700	0.916100	0.606700
C151	C15	0.296300	0.090200	0.604650
H141	H14	0.237700	0.160100	0.614800
C161	C16	0.279700	0.102600	0.576860
C171	C17	0.370800	0.025200	0.559390
H151	H15	0.452500	0.958900	0.565000
C181	C18	0.343600	0.044000	0.534100
H161	H16	0.407500	0.989200	0.522400
C191	C19	0.146000	0.215500	0.541510
H171	H17	0.067500	0.283100	0.535200
C201	C20	0.166400	0.204600	0.567470
H181	H18	0.104600	0.265100	0.578700
N21	N2	0.231200	0.135900	0.524990
N31	N3	0.391700	0.862600	0.772270
C211	C21	0.483200	0.943000	0.788070
H191	H19	0.557600	0.012900	0.781100
C221	C22	0.473300	0.927900	0.814190
H201	H20	0.539700	0.987200	0.824900
C231	C23	0.364100	0.824000	0.824840
C241	C24	0.278600	0.737600	0.808410
H211	H21	0.207700	0.662800	0.814900
C251	C25	0.291600	0.755400	0.782290
H221	H22	0.230400	0.692600	0.771300
C261	C26	0.344200	0.796200	0.851860
H231	H23	0.267500	0.722600	0.856800
C271	C27	0.423100	0.864100	0.869690
H241	H24	0.505000	0.931900	0.864700
C281	C28	0.394700	0.843500	0.897300
C291	C29	0.281900	0.748000	0.908170
H251	H25	0.216100	0.686700	0.897700
C301	C30	0.265700	0.742300	0.934610
H261	H26	0.191000	0.674400	0.942000
C311	C31	0.464400	0.921800	0.939130
H271	H27	0.528700	0.983400	0.949800
C321	C32	0.488300	0.928700	0.913040
H281	H28	0.568800	0.992000	0.906200
N41	N4	0.355600	0.832900	0.949860
Cu31	Cu3	0.094810	0.102160	0.234820
O111	O11	0.324400	0.117900	0.232050
O121	O12	0.298600	0.350100	0.213990
C331	C33	0.379900	0.243000	0.222410
C341	C34	0.559000	0.251900	0.221800
H291	H29	0.599800	0.174700	0.209600
H301	H30	0.591600	0.356800	0.216100
C351	C35	0.626700	0.219300	0.248180
H311	H31	0.600700	0.109400	0.252800
O131	O13	0.560800	0.317900	0.266700
H321	H32	0.599800	0.297600	0.280900
C361	C36	0.804700	0.233200	0.246770
O141	O14	0.868100	0.118300	0.235210
O151	O15	0.870800	0.345500	0.256080
Cu41	Cu4	0.316160	0.845290	0.987590
O161	O16	0.299000	0.073800	0.984690
O171	O17	0.068200	0.047400	0.965950
C371	C37	0.175500	0.128200	0.974290
C381	C38	0.164800	0.306000	0.973730
H331	H33	0.239600	0.347100	0.961100
H341	H34	0.058800	0.337000	0.968300
C391	C39	0.199200	0.376600	0.999290
H351	H35	0.308300	0.348500	0.004000
O181	O18	0.097700	0.315100	0.018320
H361	H36	0.049700	0.388400	0.025400
C401	C40	0.189300	0.552100	0.997620
O191	O19	0.313900	0.618700	0.988860
O201	O20	0.069600	0.623000	0.003610
N51	N5	0.082900	0.063300	0.197210
C411	C41	0.997000	0.150800	0.181510
H371	H37	0.928100	0.225700	0.188500
C421	C42	0.005200	0.136100	0.155540
H381	H38	0.945700	0.204000	0.145100
C431	C43	0.098000	0.024700	0.144320
C441	C44	0.181000	0.927800	0.160850
H391	H39	0.244200	0.846100	0.154400
C451	C45	0.169900	0.952700	0.186960
H401	H40	0.227800	0.886900	0.197900
C461	C46	0.110400	0.014300	0.116730
H411	H41	0.050300	0.083900	0.106700
C471	C47	0.203700	0.909800	0.104650
H421	H42	0.262300	0.839900	0.114800
C481	C48	0.220300	0.897400	0.076860
C491	C49	0.129200	0.974800	0.059390
H431	H43	0.047500	0.041100	0.065000
C501	C50	0.156400	0.956000	0.034100
H441	H44	0.092500	0.010800	0.022400
C511	C51	0.354000	0.784500	0.041510
H451	H45	0.432500	0.716900	0.035200
C521	C52	0.333600	0.795400	0.067470
H461	H46	0.395400	0.734900	0.078700
N61	N6	0.268800	0.864100	0.024990
N71	N7	0.108300	0.137400	0.272270
C531	C53	0.016800	0.057000	0.288070
H471	H47	0.942400	0.987100	0.281100
C541	C54	0.026700	0.072100	0.314190
H481	H48	0.960300	0.012800	0.324900
C551	C55	0.135900	0.176000	0.324840
C561	C56	0.221400	0.262400	0.308410
H491	H49	0.292300	0.337200	0.314900
C571	C57	0.208400	0.244600	0.282290
H501	H50	0.269600	0.307400	0.271300
C581	C58	0.155800	0.203800	0.351860
H511	H51	0.232500	0.277400	0.356800
C591	C59	0.076900	0.135900	0.369690
H521	H52	0.995000	0.068100	0.364700
C601	C60	0.105300	0.156500	0.397300
C611	C61	0.218100	0.252000	0.408170
H531	H53	0.283900	0.313300	0.397700
C621	C62	0.234300	0.257700	0.434610
H541	H54	0.309000	0.325600	0.442000
C631	C63	0.035600	0.078200	0.439130
H551	H55	0.971300	0.016600	0.449800
C641	C64	0.011700	0.071300	0.413040
H561	H56	0.931200	0.008000	0.406200
N81	N8	0.144400	0.167100	0.449860
Cu51	Cu5	0.594810	0.397840	0.765180
O211	O21	0.824400	0.382100	0.767950
O221	O22	0.798600	0.149900	0.786010
C651	C65	0.879900	0.257000	0.777590
C661	C66	0.059000	0.248100	0.778200
H571	H57	0.099800	0.325300	0.790400
H581	H58	0.091600	0.143200	0.783900
C671	C67	0.126700	0.280700	0.751820
H591	H59	0.100700	0.390600	0.747200
O231	O23	0.060800	0.182100	0.733300
H601	H60	0.099800	0.202400	0.719100
C681	C68	0.304700	0.266800	0.753230
O241	O24	0.368100	0.381700	0.764790
O251	O25	0.370800	0.154500	0.743920
Cu61	Cu6	0.816160	0.654710	0.012410
O261	O26	0.799000	0.426200	0.015310
O271	O27	0.568200	0.452600	0.034050
C691	C69	0.675500	0.371800	0.025710
C701	C70	0.664800	0.194000	0.026270
H611	H61	0.739600	0.152900	0.038900
H621	H62	0.558800	0.163000	0.031700
C711	C71	0.699200	0.123400	0.000710
H631	H63	0.808300	0.151500	0.996000
O281	O28	0.597700	0.184900	0.981680
H641	H64	0.549700	0.111600	0.974600
C721	C72	0.689300	0.947900	0.002380
O291	O29	0.813900	0.881300	0.011140
O301	O30	0.569600	0.877000	0.996390
N91	N9	0.582900	0.436700	0.802790
C731	C73	0.497000	0.349200	0.818490
H651	H65	0.428100	0.274300	0.811500
C741	C74	0.505200	0.363900	0.844460
H661	H66	0.445700	0.296000	0.854900
C751	C75	0.598000	0.475300	0.855680
C761	C76	0.681000	0.572200	0.839150
H671	H67	0.744200	0.653900	0.845600
C771	C77	0.669900	0.547300	0.813040
H681	H68	0.727800	0.613100	0.802100
C781	C78	0.610400	0.485700	0.883270
H691	H69	0.550300	0.416100	0.893300
C791	C79	0.703700	0.590200	0.895350
H701	H70	0.762300	0.660100	0.885200
C801	C80	0.720300	0.602600	0.923140
C811	C81	0.629200	0.525200	0.940610
H711	H71	0.547500	0.458900	0.935000
C821	C82	0.656400	0.544000	0.965900
H721	H72	0.592500	0.489200	0.977600
C831	C83	0.854000	0.715500	0.958490
H731	H73	0.932500	0.783100	0.964800
C841	C84	0.833600	0.704600	0.932530
H741	H74	0.895400	0.765100	0.921300
N101	N10	0.768800	0.635900	0.975010
N111	N11	0.608300	0.362600	0.727730
C851	C85	0.516800	0.443000	0.711930
H751	H75	0.442400	0.512900	0.718900
C861	C86	0.526700	0.427900	0.685810
H761	H76	0.460300	0.487200	0.675100
C871	C87	0.635900	0.324000	0.675160
C881	C88	0.721400	0.237600	0.691590
H771	H77	0.792300	0.162800	0.685100
C891	C89	0.708400	0.255400	0.717710
H781	H78	0.769600	0.192600	0.728700
C901	C90	0.655800	0.296200	0.648140
H791	H79	0.732500	0.222600	0.643200
C911	C91	0.576900	0.364100	0.630310
H801	H80	0.495000	0.431900	0.635300
C921	C92	0.605300	0.343500	0.602700
C931	C93	0.718100	0.248000	0.591830
H811	H81	0.783900	0.186700	0.602300
C941	C94	0.734300	0.242300	0.565390
H821	H82	0.809000	0.174400	0.558000
C951	C95	0.535600	0.421800	0.560870
H831	H83	0.471300	0.483400	0.550200
C961	C96	0.511700	0.428700	0.586960
H841	H84	0.431200	0.492000	0.593800
N121	N12	0.644400	0.332900	0.550140
Cu71	Cu7	0.905190	0.602160	0.265180
O311	O31	0.675600	0.617900	0.267950
O321	O32	0.701400	0.850100	0.286010
C971	C97	0.620100	0.743000	0.277590
C981	C98	0.441000	0.751900	0.278200
H851	H85	0.400200	0.674700	0.290400
H861	H86	0.408400	0.856800	0.283900
C991	C99	0.373300	0.719300	0.251820
H871	H87	0.399300	0.609400	0.247200
O331	O33	0.439200	0.817900	0.233300
H881	H88	0.400200	0.797600	0.219100
C1001	C100	0.195300	0.733200	0.253230
O341	O34	0.131900	0.618300	0.264790
O351	O35	0.129200	0.845500	0.243920
Cu81	Cu8	0.683840	0.345290	0.512410
O361	O36	0.701000	0.573800	0.515310
O371	O37	0.931800	0.547400	0.534050
C1011	C101	0.824500	0.628200	0.525710
C1021	C102	0.835200	0.806000	0.526270
H891	H89	0.760400	0.847100	0.538900
H901	H90	0.941200	0.837000	0.531700
C1031	C103	0.800800	0.876600	0.500710
H911	H91	0.691700	0.848500	0.496000
O381	O38	0.902300	0.815100	0.481680
H921	H92	0.950300	0.888400	0.474600
C1041	C104	0.810700	0.052100	0.502380
O391	O39	0.686100	0.118700	0.511140
O401	O40	0.930400	0.123000	0.496390
N131	N13	0.917100	0.563300	0.302790
C1051	C105	0.003000	0.650800	0.318490
H931	H93	0.071900	0.725700	0.311500
C1061	C106	0.994800	0.636100	0.344460
H941	H94	0.054300	0.704000	0.354900
C1071	C107	0.902000	0.524700	0.355680
C1081	C108	0.819000	0.427800	0.339150
H951	H95	0.755800	0.346100	0.345600
C1091	C109	0.830100	0.452700	0.313040
H961	H96	0.772200	0.386900	0.302100
C1101	C110	0.889600	0.514300	0.383270
H971	H97	0.949700	0.583900	0.393300
C1111	C111	0.796300	0.409800	0.395350
H981	H98	0.737700	0.339900	0.385200
C1121	C112	0.779700	0.397400	0.423140
C1131	C113	0.870800	0.474800	0.440610
H991	H99	0.952500	0.541100	0.435000
C1141	C114	0.843600	0.456000	0.465900
H1001	H100	0.907500	0.510800	0.477600
C1151	C115	0.646000	0.284500	0.458490
H1011	H101	0.567500	0.216900	0.464800
C1161	C116	0.666400	0.295400	0.432530
H1021	H102	0.604600	0.234900	0.421300
N141	N14	0.731200	0.364100	0.475010
N151	N15	0.891700	0.637400	0.227730
C1171	C117	0.983200	0.557000	0.211930
H1031	H103	0.057600	0.487100	0.218900
C1181	C118	0.973300	0.572100	0.185810
H1041	H104	0.039700	0.512800	0.175100
C1191	C119	0.864100	0.676000	0.175160
C1201	C120	0.778600	0.762400	0.191590
H1051	H105	0.707700	0.837200	0.185100
C1211	C121	0.791600	0.744600	0.217710
H1061	H106	0.730400	0.807400	0.228700
C1221	C122	0.844200	0.703800	0.148140
H1071	H107	0.767500	0.777400	0.143200
C1231	C123	0.923100	0.635900	0.130310
H1081	H108	0.005000	0.568100	0.135300
C1241	C124	0.894700	0.656500	0.102700
C1251	C125	0.781900	0.752000	0.091830
H1091	H109	0.716100	0.813300	0.102300
C1261	C126	0.765700	0.757700	0.065390
H1101	H110	0.691000	0.825600	0.058000
C1271	C127	0.964400	0.578200	0.060870
H1111	H111	0.028700	0.516600	0.050200
C1281	C128	0.988300	0.571300	0.086960
H1121	H112	0.068800	0.508000	0.093800
N161	N16	0.855600	0.667100	0.050140
