data_GIXNAE_clean_PM
_symmetry_space_group_name_H-M	'P1'
_cell_length_a	9.991600
_cell_length_b	16.360100
_cell_length_c	16.534400
_cell_angle_alpha	90.000000
_cell_angle_beta	90.000000
_cell_angle_gamma	90.000000
_symmetry_Int_Tables_number 1

loop_
_symmetry_equiv_pos_as_xyz
'x,y,z'

loop_
_atom_site_label
_atom_site_type_symbol
_atom_site_fract_x
_atom_site_fract_y
_atom_site_fract_z
Ni11	Ni1	0.310890	0.213750	0.546560
O11	O1	0.492500	0.231300	0.484100
O21	O2	0.629300	0.292000	0.394400
C11	C1	0.516800	0.266200	0.417400
C21	C2	0.406100	0.284700	0.356300
H11	H1	0.430900	0.261100	0.303300
H21	H2	0.398300	0.344700	0.349600
C31	C3	0.269700	0.250000	0.382600
H31	H3	0.201700	0.265000	0.340800
O31	O3	0.234800	0.291500	0.458300
H41	H4	0.135000	0.295500	0.465000
C41	C4	0.271200	0.159800	0.390900
O41	O4	0.285900	0.118200	0.329500
O51	O5	0.261800	0.129700	0.461200
N11	N1	0.612000	0.625500	0.877700
N21	N2	0.361600	0.311900	0.621900
C51	C5	0.680800	0.598800	0.810800
H51	H5	0.767200	0.620700	0.800500
C61	C6	0.629700	0.541500	0.758000
H61	H6	0.675700	0.529100	0.709200
C71	C7	0.506000	0.500500	0.777200
C81	C8	0.446800	0.520700	0.849000
H71	H7	0.368100	0.493000	0.866000
C91	C9	0.501400	0.581500	0.896900
H81	H8	0.458300	0.593300	0.946800
C101	C10	0.451600	0.436300	0.722400
C111	C11	0.381000	0.372500	0.749000
H91	H9	0.362300	0.368400	0.805200
C121	C12	0.335800	0.314200	0.699400
H101	H10	0.281700	0.272100	0.721700
C131	C13	0.421600	0.377900	0.592900
H111	H11	0.431700	0.381800	0.535900
C141	C14	0.471700	0.443100	0.640300
H121	H12	0.516400	0.488600	0.617000
Ni21	Ni2	0.189110	0.786250	0.046560
O61	O6	0.007500	0.768700	0.984100
O71	O7	0.870700	0.708000	0.894400
C151	C15	0.983200	0.733800	0.917400
C161	C16	0.093900	0.715300	0.856300
H131	H13	0.069100	0.738900	0.803300
H141	H14	0.101700	0.655300	0.849600
C171	C17	0.230300	0.750000	0.882600
H151	H15	0.298300	0.735000	0.840800
O81	O8	0.265200	0.708500	0.958300
H161	H16	0.365000	0.704500	0.965000
C181	C18	0.228800	0.840200	0.890900
O91	O9	0.214100	0.881800	0.829500
O101	O10	0.238200	0.870300	0.961200
N31	N3	0.888000	0.374500	0.377700
N41	N4	0.138400	0.688100	0.121900
C191	C19	0.819200	0.401200	0.310800
H171	H17	0.732800	0.379300	0.300500
C201	C20	0.870300	0.458500	0.258000
H181	H18	0.824300	0.470900	0.209200
C211	C21	0.994000	0.499500	0.277200
C221	C22	0.053200	0.479300	0.349000
H191	H19	0.131900	0.507000	0.366000
C231	C23	0.998600	0.418500	0.396900
H201	H20	0.041700	0.406700	0.446800
C241	C24	0.048400	0.563700	0.222400
C251	C25	0.119000	0.627500	0.249000
H211	H21	0.137700	0.631600	0.305200
C261	C26	0.164200	0.685800	0.199400
H221	H22	0.218300	0.727900	0.221700
C271	C27	0.078400	0.622100	0.092900
H231	H23	0.068300	0.618200	0.035900
C281	C28	0.028300	0.556900	0.140300
H241	H24	0.983600	0.511400	0.117000
Ni31	Ni3	0.689110	0.713750	0.953440
O111	O11	0.507500	0.731300	0.015900
O121	O12	0.370700	0.792000	0.105600
C291	C29	0.483200	0.766200	0.082600
C301	C30	0.593900	0.784700	0.143700
H251	H25	0.569100	0.761100	0.196700
H261	H26	0.601700	0.844700	0.150400
C311	C31	0.730300	0.750000	0.117400
H271	H27	0.798300	0.765000	0.159200
O131	O13	0.765200	0.791500	0.041700
H281	H28	0.865000	0.795500	0.035000
C321	C32	0.728800	0.659800	0.109100
O141	O14	0.714100	0.618200	0.170500
O151	O15	0.738200	0.629700	0.038800
N51	N5	0.388000	0.125500	0.622300
N61	N6	0.638400	0.811900	0.878100
C331	C33	0.319200	0.098800	0.689200
H291	H29	0.232800	0.120700	0.699500
C341	C34	0.370300	0.041500	0.742000
H301	H30	0.324300	0.029100	0.790800
C351	C35	0.494000	0.000500	0.722800
C361	C36	0.553200	0.020700	0.651000
H311	H31	0.631900	0.993000	0.634000
C371	C37	0.498600	0.081500	0.603100
H321	H32	0.541700	0.093300	0.553200
C381	C38	0.548400	0.936300	0.777600
C391	C39	0.619000	0.872500	0.751000
H331	H33	0.637700	0.868400	0.694800
C401	C40	0.664200	0.814200	0.800600
H341	H34	0.718300	0.772100	0.778300
C411	C41	0.578400	0.877900	0.907100
H351	H35	0.568300	0.881800	0.964100
C421	C42	0.528300	0.943100	0.859700
H361	H36	0.483600	0.988600	0.883000
Ni41	Ni4	0.810890	0.286250	0.453440
O161	O16	0.992500	0.268700	0.515900
O171	O17	0.129300	0.208000	0.605600
C431	C43	0.016800	0.233800	0.582600
C441	C44	0.906100	0.215300	0.643700
H371	H37	0.930900	0.238900	0.696700
H381	H38	0.898300	0.155300	0.650400
C451	C45	0.769700	0.250000	0.617400
H391	H39	0.701700	0.235000	0.659200
O181	O18	0.734800	0.208500	0.541700
H401	H40	0.635000	0.204500	0.535000
C461	C46	0.771200	0.340200	0.609100
O191	O19	0.785900	0.381800	0.670500
O201	O20	0.761800	0.370300	0.538800
N71	N7	0.112000	0.874500	0.122300
N81	N8	0.861600	0.188100	0.378100
C471	C47	0.180800	0.901200	0.189200
H411	H41	0.267200	0.879300	0.199500
C481	C48	0.129700	0.958500	0.242000
H421	H42	0.175700	0.970900	0.290800
C491	C49	0.006000	0.999500	0.222800
C501	C50	0.946800	0.979300	0.151000
H431	H43	0.868100	0.007000	0.134000
C511	C51	0.001400	0.918500	0.103100
H441	H44	0.958300	0.906700	0.053200
C521	C52	0.951600	0.063700	0.277600
C531	C53	0.881000	0.127500	0.251000
H451	H45	0.862300	0.131600	0.194800
C541	C54	0.835800	0.185800	0.300600
H461	H46	0.781700	0.227900	0.278300
C551	C55	0.921600	0.122100	0.407100
H471	H47	0.931700	0.118200	0.464100
C561	C56	0.971700	0.056900	0.359700
H481	H48	0.016400	0.011400	0.383000
