data_GIYTAK_clean_PM
_symmetry_space_group_name_H-M	'P1'
_cell_length_a	8.943600
_cell_length_b	9.453800
_cell_length_c	19.005000
_cell_angle_alpha	95.166000
_cell_angle_beta	93.050000
_cell_angle_gamma	117.534000
_symmetry_Int_Tables_number 1

loop_
_symmetry_equiv_pos_as_xyz
'x,y,z'

loop_
_atom_site_label
_atom_site_type_symbol
_atom_site_fract_x
_atom_site_fract_y
_atom_site_fract_z
Cd11	Cd1	0.983620	0.898190	0.820780
Cd21	Cd2	0.016380	0.101810	0.179220
Cd31	Cd3	0.000000	0.000000	0.000000
H11	H1	0.787000	0.190600	0.962200
H21	H2	0.961300	0.431700	0.918800
H31	H3	0.830900	0.385200	0.851300
H41	H4	0.764200	0.450400	0.992300
H51	H5	0.545700	0.377700	0.865000
H61	H6	0.503200	0.419600	0.940600
H71	H7	0.491000	0.184500	0.976600
H81	H8	0.557900	0.109400	0.837000
H91	H9	0.529100	0.000800	0.897800
H101	H10	0.797600	0.577700	0.721500
H111	H11	0.629900	0.451000	0.617600
H121	H12	0.506100	0.642800	0.487400
H131	H13	0.664900	0.870500	0.577900
H141	H14	0.830100	0.985900	0.682500
H151	H15	0.213000	0.809400	0.037800
H161	H16	0.038700	0.568300	0.081200
H171	H17	0.169100	0.614800	0.148700
H181	H18	0.235800	0.549600	0.007700
H191	H19	0.454300	0.622300	0.135000
H201	H20	0.496800	0.580400	0.059400
H211	H21	0.509000	0.815500	0.023400
H221	H22	0.442100	0.890600	0.163000
H231	H23	0.470900	0.999200	0.102200
H241	H24	0.202400	0.422300	0.278500
H251	H25	0.370100	0.549000	0.382400
H261	H26	0.493900	0.357200	0.512600
H271	H27	0.335100	0.129500	0.422100
H281	H28	0.169900	0.014100	0.317500
C11	C1	0.846000	0.114200	0.867600
C21	C2	0.767800	0.199200	0.911900
C31	C3	0.841600	0.376400	0.901600
C41	C4	0.750500	0.457900	0.941500
C51	C5	0.560800	0.369100	0.915100
C61	C6	0.481600	0.192300	0.925600
C71	C7	0.576000	0.111300	0.887900
C81	C8	0.825200	0.634300	0.931200
C91	C9	0.297600	0.098500	0.896100
C101	C10	0.769800	0.637700	0.692200
C111	C11	0.671400	0.561300	0.629300
C121	C12	0.633800	0.647600	0.583200
C131	C13	0.530300	0.576100	0.513700
C141	C14	0.691900	0.808100	0.605900
C151	C15	0.789000	0.876100	0.669500
C161	C16	0.154000	0.885800	0.132400
C171	C17	0.232200	0.800800	0.088100
C181	C18	0.158400	0.623600	0.098400
C191	C19	0.249500	0.542100	0.058500
C201	C20	0.439200	0.630900	0.084900
C211	C21	0.518400	0.807700	0.074400
C221	C22	0.424000	0.888700	0.112100
C231	C23	0.174800	0.365700	0.068800
C241	C24	0.702400	0.901500	0.103900
C251	C25	0.230200	0.362300	0.307800
C261	C26	0.328600	0.438700	0.370700
C271	C27	0.366200	0.352400	0.416800
C281	C28	0.469700	0.423900	0.486300
C291	C29	0.308100	0.191900	0.394100
C301	C30	0.211000	0.123900	0.330500
N11	N1	0.828200	0.795100	0.713800
N21	N2	0.171800	0.204900	0.286200
O11	O1	0.861700	0.002400	0.895910
O21	O2	0.884200	0.143600	0.807900
O31	O3	0.249900	0.122900	0.837070
O41	O4	0.197900	0.986500	0.928610
O51	O5	0.843600	0.667100	0.869350
O61	O6	0.862200	0.732600	0.986270
O71	O7	0.138300	0.997600	0.104090
O81	O8	0.115800	0.856400	0.192100
O91	O9	0.750100	0.877100	0.162930
O101	O10	0.802100	0.013500	0.071390
O111	O11	0.156400	0.332900	0.130650
O121	O12	0.137800	0.267400	0.013730
