data_GIYTIS_SL_PM
_symmetry_space_group_name_H-M	'P1'
_cell_length_a	8.950800
_cell_length_b	9.089200
_cell_length_c	19.802000
_cell_angle_alpha	95.640000
_cell_angle_beta	97.680000
_cell_angle_gamma	118.250000
_symmetry_Int_Tables_number 1

loop_
_symmetry_equiv_pos_as_xyz
'x,y,z'

loop_
_atom_site_label
_atom_site_type_symbol
_atom_site_fract_x
_atom_site_fract_y
_atom_site_fract_z
Zn11	Zn1	0.313880	0.442920	0.770860
Zn21	Zn2	0.440000	0.614900	0.936210
Zn31	Zn3	0.566320	0.786250	0.101760
H41	H4	0.384400	0.995400	0.836800
H51	H5	0.490800	0.067500	0.779300
H61	H6	0.775000	0.073300	0.778200
H71	H7	0.853100	0.005200	0.835200
H81	H8	0.843600	0.450000	0.886000
H91	H9	0.773800	0.348600	0.809400
H101	H10	0.037700	0.779400	0.985400
H111	H11	0.106200	0.874400	0.063000
H121	H12	0.489800	0.238800	0.033100
H131	H13	0.395600	0.171300	0.093900
H141	H14	0.106800	0.156100	0.092400
H151	H15	0.034300	0.223500	0.033900
H161	H16	0.979400	0.208600	0.673100
H171	H17	0.937600	0.035400	0.565200
H181	H18	0.300900	0.441900	0.518200
H191	H19	0.414500	0.526300	0.634500
H201	H20	0.096600	0.253200	0.425600
H211	H21	0.825900	0.003900	0.452100
H221	H22	0.596000	0.770400	0.353800
H231	H23	0.486800	0.668200	0.238300
H241	H24	0.844200	0.102000	0.196500
H251	H25	0.016400	0.127000	0.309800
C261	C26	0.502400	0.336800	0.859600
C271	C27	0.596600	0.235800	0.873300
C281	C28	0.500200	0.058700	0.828000
C291	C29	0.606000	0.966200	0.846400
C301	C30	0.511000	0.786400	0.804200
C311	C31	0.788400	0.064600	0.826800
C321	C32	0.885500	0.245000	0.873300
C331	C33	0.063800	0.346600	0.861500
C341	C34	0.782900	0.337000	0.857800
C351	C35	0.812000	0.879000	0.011600
C361	C36	0.000700	0.989600	0.001200
C371	C37	0.099500	0.890500	0.015200
C381	C38	0.280200	0.988600	0.001400
C391	C39	0.376300	0.893700	0.016600
C401	C40	0.377200	0.175400	0.044900
C411	C41	0.274900	0.265300	0.030900
C421	C42	0.377000	0.442800	0.073600
C431	C43	0.099000	0.164400	0.043700
C441	C44	0.059000	0.238000	0.644300
C451	C45	0.013000	0.152000	0.576600
C461	C46	0.082000	0.245000	0.526600
C471	C47	0.237000	0.382000	0.549400
C481	C48	0.303000	0.434000	0.619500
C491	C49	0.023000	0.188000	0.452700
C501	C50	0.891000	0.068000	0.422300
C511	C51	0.800000	0.993000	0.345700
C521	C52	0.651000	0.835000	0.322000
C531	C53	0.586000	0.774000	0.252700
C541	C54	0.806000	0.023000	0.225800
C551	C55	0.897000	0.060000	0.297300
N561	N56	0.218300	0.362900	0.666300
N571	N57	0.659300	0.863000	0.203800
O581	O58	0.450300	0.337700	0.793100
O591	O59	0.492200	0.419800	0.906900
O601	O60	0.455000	0.762700	0.738300
O611	O61	0.430300	0.665200	0.832900
O621	O62	0.091700	0.329600	0.800500
O631	O63	0.176800	0.448900	0.912500
O641	O64	0.705100	0.774600	0.961200
O651	O65	0.786200	0.905800	0.072100
O661	O66	0.384100	0.807000	0.964900
O671	O67	0.446000	0.909100	0.075900
O681	O68	0.447900	0.563300	0.039500
O691	O69	0.348900	0.478000	0.129200
H701	H70	0.622650	0.961990	0.904140
H711	H71	0.893490	0.230600	0.930010
H721	H72	0.608350	0.222770	0.930170
H731	H73	0.992600	0.002710	0.944350
H741	H74	0.262830	0.276340	0.973810
H751	H75	0.268460	0.996860	0.944030
