data_GIZVER_clean_PM
_symmetry_space_group_name_H-M	'P1'
_cell_length_a	8.465300
_cell_length_b	9.938700
_cell_length_c	25.115000
_cell_angle_alpha	90.560000
_cell_angle_beta	90.000000
_cell_angle_gamma	90.000000
_symmetry_Int_Tables_number 1

loop_
_symmetry_equiv_pos_as_xyz
'x,y,z'

loop_
_atom_site_label
_atom_site_type_symbol
_atom_site_fract_x
_atom_site_fract_y
_atom_site_fract_z
Co11	Co1	0.673330	0.254940	0.912370
Co21	Co2	0.295900	0.315710	0.902140
Co31	Co3	0.173330	0.245060	0.587630
Co41	Co4	0.795900	0.184290	0.597860
Co51	Co5	0.326670	0.745060	0.087630
Co61	Co6	0.704100	0.684290	0.097860
Co71	Co7	0.826670	0.754940	0.412370
Co81	Co8	0.204100	0.815710	0.402140
Co91	Co9	0.500000	0.500000	0.000000
Co101	Co10	0.000000	0.000000	0.500000
H11	H1	0.010000	0.948800	0.813700
H21	H2	0.968000	0.547100	0.831100
H31	H3	0.725900	0.799800	0.927000
H41	H4	0.199700	0.796900	0.768600
H51	H5	0.195800	0.641300	0.779100
H61	H6	0.019300	0.890800	0.701600
H71	H7	0.842800	0.646500	0.588900
H81	H8	0.050600	0.491300	0.718400
H91	H9	0.464900	0.248700	0.983100
H101	H10	0.510000	0.551200	0.686300
H111	H11	0.468000	0.952900	0.668900
H121	H12	0.225900	0.700200	0.573000
H131	H13	0.699700	0.703100	0.731400
H141	H14	0.695800	0.858700	0.720900
H151	H15	0.519300	0.609200	0.798400
H161	H16	0.342800	0.853500	0.911100
H171	H17	0.550600	0.008700	0.781600
H181	H18	0.964900	0.251300	0.516900
H191	H19	0.990000	0.051200	0.186300
H201	H20	0.032000	0.452900	0.168900
H211	H21	0.274100	0.200200	0.073000
H221	H22	0.800300	0.203100	0.231400
H231	H23	0.804200	0.358700	0.220900
H241	H24	0.980700	0.109200	0.298400
H251	H25	0.157200	0.353500	0.411100
H261	H26	0.949400	0.508700	0.281600
H271	H27	0.535100	0.751300	0.016900
H281	H28	0.490000	0.448800	0.313700
H291	H29	0.532000	0.047100	0.331100
H301	H30	0.774100	0.299800	0.427000
H311	H31	0.300300	0.296900	0.268600
H321	H32	0.304200	0.141300	0.279100
H331	H33	0.480700	0.390800	0.201600
H341	H34	0.657200	0.146500	0.088900
H351	H35	0.449400	0.991300	0.218400
H361	H36	0.035100	0.748700	0.483100
C11	C1	0.861500	0.893700	0.872500
C21	C2	0.967400	0.875200	0.831200
C31	C3	0.010500	0.741600	0.815940
C41	C4	0.943300	0.634500	0.841790
C51	C5	0.837000	0.656500	0.884510
C61	C6	0.796600	0.785200	0.899210
C71	C7	0.805100	0.035100	0.885900
C81	C8	0.756100	0.539000	0.910500
C91	C9	0.131000	0.719100	0.771200
C101	C10	0.046100	0.697000	0.719470
C111	C11	0.000700	0.803900	0.689000
C121	C12	0.926600	0.786000	0.639300
C131	C13	0.894100	0.659000	0.621310
C141	C14	0.937700	0.548100	0.651470
C151	C15	0.016800	0.565800	0.699400
C161	C16	0.883300	0.907300	0.607400
C171	C17	0.899800	0.409100	0.632020
C181	C18	0.361500	0.606300	0.627500
C191	C19	0.467400	0.624800	0.668800
C201	C20	0.510500	0.758400	0.684060
C211	C21	0.443300	0.865500	0.658210
C221	C22	0.337000	0.843500	0.615490
C231	C23	0.296600	0.714800	0.600790
C241	C24	0.305100	0.464900	0.614100
C251	C25	0.256100	0.961000	0.589500
C261	C26	0.631000	0.780900	0.728800
C271	C27	0.546100	0.803000	0.780530
C281	C28	0.500700	0.696100	0.811000
C291	C29	0.426600	0.714000	0.860700
C301	C30	0.394100	0.841000	0.878690
C311	C31	0.437700	0.951900	0.848530
C321	C32	0.516800	0.934200	0.800600
C331	C33	0.383300	0.592700	0.892600
C341	C34	0.399800	0.090900	0.867980
C351	C35	0.138500	0.106300	0.127500
C361	C36	0.032600	0.124800	0.168800
C371	C37	0.989500	0.258400	0.184060
C381	C38	0.056700	0.365500	0.158210
C391	C39	0.163000	0.343500	0.115490
C401	C40	0.203400	0.214800	0.100790
C411	C41	0.194900	0.964900	0.114100
C421	C42	0.243900	0.461000	0.089500
C431	C43	0.869000	0.280900	0.228800
C441	C44	0.953900	0.303000	0.280530
C451	C45	0.999300	0.196100	0.311000
C461	C46	0.073400	0.214000	0.360700
C471	C47	0.105900	0.341000	0.378690
C481	C48	0.062300	0.451900	0.348530
C491	C49	0.983200	0.434200	0.300600
C501	C50	0.116700	0.092700	0.392600
C511	C51	0.100200	0.590900	0.367980
C521	C52	0.638500	0.393700	0.372500
C531	C53	0.532600	0.375200	0.331200
C541	C54	0.489500	0.241600	0.315940
C551	C55	0.556700	0.134500	0.341790
C561	C56	0.663000	0.156500	0.384510
C571	C57	0.703400	0.285200	0.399210
C581	C58	0.694900	0.535100	0.385900
C591	C59	0.743900	0.039000	0.410500
C601	C60	0.369000	0.219100	0.271200
C611	C61	0.453900	0.197000	0.219470
C621	C62	0.499300	0.303900	0.189000
C631	C63	0.573400	0.286000	0.139300
C641	C64	0.605900	0.159000	0.121310
C651	C65	0.562300	0.048100	0.151470
C661	C66	0.483200	0.065800	0.199400
C671	C67	0.616700	0.407300	0.107400
C681	C68	0.600200	0.909100	0.132020
O11	O1	0.486200	0.319400	0.957160
O21	O2	0.849100	0.137500	0.860760
O31	O3	0.704300	0.050800	0.923940
O41	O4	0.707500	0.557100	0.956840
O51	O5	0.743000	0.433300	0.882970
O61	O6	0.864600	0.016000	0.632110
O71	O7	0.867400	0.894200	0.557180
O81	O8	0.784300	0.392500	0.602000
O91	O9	0.981700	0.309400	0.645360
O101	O10	0.986200	0.180600	0.542840
O111	O11	0.349100	0.362500	0.639240
O121	O12	0.204300	0.449200	0.576060
O131	O13	0.207500	0.942900	0.543160
O141	O14	0.243000	0.066700	0.617030
O151	O15	0.364600	0.484000	0.867890
O161	O16	0.367400	0.605800	0.942820
O171	O17	0.284300	0.107500	0.898000
O181	O18	0.481700	0.190600	0.854640
O191	O19	0.513800	0.680600	0.042840
O201	O20	0.150900	0.862500	0.139240
O211	O21	0.295700	0.949200	0.076060
O221	O22	0.292500	0.442900	0.043160
O231	O23	0.257000	0.566700	0.117030
O241	O24	0.135400	0.984000	0.367890
O251	O25	0.132600	0.105800	0.442820
O261	O26	0.215700	0.607500	0.398000
O271	O27	0.018300	0.690600	0.354640
O281	O28	0.013800	0.819400	0.457160
O291	O29	0.650900	0.637500	0.360760
O301	O30	0.795700	0.550800	0.423940
O311	O31	0.792500	0.057100	0.456840
O321	O32	0.757000	0.933300	0.382970
O331	O33	0.635400	0.516000	0.132110
O341	O34	0.632600	0.394200	0.057180
O351	O35	0.715700	0.892500	0.102000
O361	O36	0.518300	0.809400	0.145360
