data_GOBSUM_clean_PM
_symmetry_space_group_name_H-M	'P1'
_cell_length_a	31.717000
_cell_length_b	9.433300
_cell_length_c	18.173900
_cell_angle_alpha	90.000000
_cell_angle_beta	119.894000
_cell_angle_gamma	90.000000
_symmetry_Int_Tables_number 1

loop_
_symmetry_equiv_pos_as_xyz
'x,y,z'

loop_
_atom_site_label
_atom_site_type_symbol
_atom_site_fract_x
_atom_site_fract_y
_atom_site_fract_z
Co11	Co1	0.123720	0.814640	0.392080
O11	O1	0.139200	0.711200	0.310650
O21	O2	0.220780	0.707600	0.373070
O31	O3	0.207670	0.398910	0.017730
O41	O4	0.128330	0.352200	0.965920
O51	O5	0.143300	0.025800	0.366440
O61	O6	0.194800	0.899020	0.475160
N11	N1	0.046770	0.805000	0.302520
C11	C1	0.178820	0.683600	0.313400
C21	C2	0.175200	0.613500	0.235790
C31	C3	0.132410	0.549000	0.175300
H11	H1	0.104600	0.549800	0.182100
C41	C4	0.215590	0.609300	0.225180
H21	H2	0.245200	0.651700	0.266500
C51	C5	0.169110	0.405500	0.019850
C61	C6	0.170360	0.481600	0.093820
C71	C7	0.213170	0.543900	0.154840
H31	H3	0.241100	0.541700	0.148500
C81	C8	0.130240	0.483400	0.105000
H41	H4	0.100900	0.439300	0.064200
C91	C9	0.183470	0.014700	0.433380
C101	C10	0.217860	0.136900	0.467520
C111	C11	0.212580	0.252300	0.415960
H51	H5	0.186900	0.253900	0.358700
C121	C12	0.255080	0.134600	0.551600
H61	H6	0.258400	0.056100	0.586800
C131	C13	0.019990	0.738200	0.341310
H71	H7	0.024100	0.796400	0.389800
H81	H8	0.033700	0.643100	0.363100
C141	C14	0.034260	0.724700	0.223820
H91	H9	0.042600	0.623500	0.238000
H101	H10	0.053700	0.761300	0.199000
C151	C15	0.028030	0.951600	0.276940
H111	H11	0.041900	0.993600	0.243700
H121	H12	0.038400	0.010400	0.328200
Co21	Co2	0.623720	0.314640	0.392080
O71	O7	0.639200	0.211200	0.310650
O81	O8	0.720780	0.207600	0.373070
O91	O9	0.707670	0.898910	0.017730
O101	O10	0.628330	0.852200	0.965920
O111	O11	0.643300	0.525800	0.366440
O121	O12	0.694800	0.399020	0.475160
N21	N2	0.546770	0.305000	0.302520
C161	C16	0.678820	0.183600	0.313400
C171	C17	0.675200	0.113500	0.235790
C181	C18	0.632410	0.049000	0.175300
H131	H13	0.604600	0.049800	0.182100
C191	C19	0.715590	0.109300	0.225180
H141	H14	0.745200	0.151700	0.266500
C201	C20	0.669110	0.905500	0.019850
C211	C21	0.670360	0.981600	0.093820
C221	C22	0.713170	0.043900	0.154840
H151	H15	0.741100	0.041700	0.148500
C231	C23	0.630240	0.983400	0.105000
H161	H16	0.600900	0.939300	0.064200
C241	C24	0.683470	0.514700	0.433380
C251	C25	0.717860	0.636900	0.467520
C261	C26	0.712580	0.752300	0.415960
H171	H17	0.686900	0.753900	0.358700
C271	C27	0.755080	0.634600	0.551600
H181	H18	0.758400	0.556100	0.586800
C281	C28	0.519990	0.238200	0.341310
H191	H19	0.524100	0.296400	0.389800
H201	H20	0.533700	0.143100	0.363100
C291	C29	0.534260	0.224700	0.223820
H211	H21	0.542600	0.123500	0.238000
H221	H22	0.553700	0.261300	0.199000
C301	C30	0.528030	0.451600	0.276940
H231	H23	0.541900	0.493600	0.243700
H241	H24	0.538400	0.510400	0.328200
Co31	Co3	0.876280	0.814640	0.107920
O131	O13	0.860800	0.711200	0.189350
O141	O14	0.779220	0.707600	0.126930
O151	O15	0.792330	0.398910	0.482270
O161	O16	0.871670	0.352200	0.534080
O171	O17	0.856700	0.025800	0.133560
O181	O18	0.805200	0.899020	0.024840
N31	N3	0.953230	0.805000	0.197480
C311	C31	0.821180	0.683600	0.186600
C321	C32	0.824800	0.613500	0.264210
C331	C33	0.867590	0.549000	0.324700
H251	H25	0.895400	0.549800	0.317900
C341	C34	0.784410	0.609300	0.274820
H261	H26	0.754800	0.651700	0.233500
C351	C35	0.830890	0.405500	0.480150
C361	C36	0.829640	0.481600	0.406180
C371	C37	0.786830	0.543900	0.345160
H271	H27	0.758900	0.541700	0.351500
C381	C38	0.869760	0.483400	0.395000
H281	H28	0.899100	0.439300	0.435800
C391	C39	0.816530	0.014700	0.066620
C401	C40	0.782140	0.136900	0.032480
C411	C41	0.787420	0.252300	0.084040
H291	H29	0.813100	0.253900	0.141300
C421	C42	0.744920	0.134600	0.948400
H301	H30	0.741600	0.056100	0.913200
C431	C43	0.980010	0.738200	0.158690
H311	H31	0.975900	0.796400	0.110200
H321	H32	0.966300	0.643100	0.136900
C441	C44	0.965740	0.724700	0.276180
H331	H33	0.957400	0.623500	0.262000
H341	H34	0.946300	0.761300	0.301000
C451	C45	0.971970	0.951600	0.223060
H351	H35	0.958100	0.993600	0.256300
H361	H36	0.961600	0.010400	0.171800
Co41	Co4	0.376280	0.314640	0.107920
O191	O19	0.360800	0.211200	0.189350
O201	O20	0.279220	0.207600	0.126930
O211	O21	0.292330	0.898910	0.482270
O221	O22	0.371670	0.852200	0.534080
O231	O23	0.356700	0.525800	0.133560
O241	O24	0.305200	0.399020	0.024840
N41	N4	0.453230	0.305000	0.197480
C461	C46	0.321180	0.183600	0.186600
C471	C47	0.324800	0.113500	0.264210
C481	C48	0.367590	0.049000	0.324700
H371	H37	0.395400	0.049800	0.317900
C491	C49	0.284410	0.109300	0.274820
H381	H38	0.254800	0.151700	0.233500
C501	C50	0.330890	0.905500	0.480150
C511	C51	0.329640	0.981600	0.406180
C521	C52	0.286830	0.043900	0.345160
H391	H39	0.258900	0.041700	0.351500
C531	C53	0.369760	0.983400	0.395000
H401	H40	0.399100	0.939300	0.435800
C541	C54	0.316530	0.514700	0.066620
C551	C55	0.282140	0.636900	0.032480
C561	C56	0.287420	0.752300	0.084040
H411	H41	0.313100	0.753900	0.141300
C571	C57	0.244920	0.634600	0.948400
H421	H42	0.241600	0.556100	0.913200
C581	C58	0.480010	0.238200	0.158690
H431	H43	0.475900	0.296400	0.110200
H441	H44	0.466300	0.143100	0.136900
C591	C59	0.465740	0.224700	0.276180
H451	H45	0.457400	0.123500	0.262000
H461	H46	0.446300	0.261300	0.301000
C601	C60	0.471970	0.451600	0.223060
H471	H47	0.458100	0.493600	0.256300
H481	H48	0.461600	0.510400	0.171800
Co51	Co5	0.876280	0.185360	0.607920
O251	O25	0.860800	0.288800	0.689350
O261	O26	0.779220	0.292400	0.626930
O271	O27	0.792330	0.601090	0.982270
O281	O28	0.871670	0.647800	0.034080
O291	O29	0.856700	0.974200	0.633560
O301	O30	0.805200	0.100980	0.524840
N51	N5	0.953230	0.195000	0.697480
C611	C61	0.821180	0.316400	0.686600
C621	C62	0.824800	0.386500	0.764210
C631	C63	0.867590	0.451000	0.824700
H491	H49	0.895400	0.450200	0.817900
C641	C64	0.784410	0.390700	0.774820
H501	H50	0.754800	0.348300	0.733500
C651	C65	0.830890	0.594500	0.980150
C661	C66	0.829640	0.518400	0.906180
C671	C67	0.786830	0.456100	0.845160
H511	H51	0.758900	0.458300	0.851500
C681	C68	0.869760	0.516600	0.895000
H521	H52	0.899100	0.560700	0.935800
C691	C69	0.816530	0.985300	0.566620
C701	C70	0.782140	0.863100	0.532480
C711	C71	0.787420	0.747700	0.584040
H531	H53	0.813100	0.746100	0.641300
C721	C72	0.744920	0.865400	0.448400
H541	H54	0.741600	0.943900	0.413200
C731	C73	0.980010	0.261800	0.658690
H551	H55	0.975900	0.203600	0.610200
H561	H56	0.966300	0.356900	0.636900
C741	C74	0.965740	0.275300	0.776180
H571	H57	0.957400	0.376500	0.762000
H581	H58	0.946300	0.238700	0.801000
C751	C75	0.971970	0.048400	0.723060
H591	H59	0.958100	0.006400	0.756300
H601	H60	0.961600	0.989600	0.671800
Co61	Co6	0.376280	0.685360	0.607920
O311	O31	0.360800	0.788800	0.689350
O321	O32	0.279220	0.792400	0.626930
O331	O33	0.292330	0.101090	0.982270
O341	O34	0.371670	0.147800	0.034080
O351	O35	0.356700	0.474200	0.633560
O361	O36	0.305200	0.600980	0.524840
N61	N6	0.453230	0.695000	0.697480
C761	C76	0.321180	0.816400	0.686600
C771	C77	0.324800	0.886500	0.764210
C781	C78	0.367590	0.951000	0.824700
H611	H61	0.395400	0.950200	0.817900
C791	C79	0.284410	0.890700	0.774820
H621	H62	0.254800	0.848300	0.733500
C801	C80	0.330890	0.094500	0.980150
C811	C81	0.329640	0.018400	0.906180
C821	C82	0.286830	0.956100	0.845160
H631	H63	0.258900	0.958300	0.851500
C831	C83	0.369760	0.016600	0.895000
H641	H64	0.399100	0.060700	0.935800
C841	C84	0.316530	0.485300	0.566620
C851	C85	0.282140	0.363100	0.532480
C861	C86	0.287420	0.247700	0.584040
H651	H65	0.313100	0.246100	0.641300
C871	C87	0.244920	0.365400	0.448400
H661	H66	0.241600	0.443900	0.413200
C881	C88	0.480010	0.761800	0.658690
H671	H67	0.475900	0.703600	0.610200
H681	H68	0.466300	0.856900	0.636900
C891	C89	0.465740	0.775300	0.776180
H691	H69	0.457400	0.876500	0.762000
H701	H70	0.446300	0.738700	0.801000
C901	C90	0.471970	0.548400	0.723060
H711	H71	0.458100	0.506400	0.756300
H721	H72	0.461600	0.489600	0.671800
Co71	Co7	0.123720	0.185360	0.892080
O371	O37	0.139200	0.288800	0.810650
O381	O38	0.220780	0.292400	0.873070
O391	O39	0.207670	0.601090	0.517730
O401	O40	0.128330	0.647800	0.465920
O411	O41	0.143300	0.974200	0.866440
O421	O42	0.194800	0.100980	0.975160
N71	N7	0.046770	0.195000	0.802520
C911	C91	0.178820	0.316400	0.813400
C921	C92	0.175200	0.386500	0.735790
C931	C93	0.132410	0.451000	0.675300
H731	H73	0.104600	0.450200	0.682100
C941	C94	0.215590	0.390700	0.725180
H741	H74	0.245200	0.348300	0.766500
C951	C95	0.169110	0.594500	0.519850
C961	C96	0.170360	0.518400	0.593820
C971	C97	0.213170	0.456100	0.654840
H751	H75	0.241100	0.458300	0.648500
C981	C98	0.130240	0.516600	0.605000
H761	H76	0.100900	0.560700	0.564200
C991	C99	0.183470	0.985300	0.933380
C1001	C100	0.217860	0.863100	0.967520
C1011	C101	0.212580	0.747700	0.915960
H771	H77	0.186900	0.746100	0.858700
C1021	C102	0.255080	0.865400	0.051600
H781	H78	0.258400	0.943900	0.086800
C1031	C103	0.019990	0.261800	0.841310
H791	H79	0.024100	0.203600	0.889800
H801	H80	0.033700	0.356900	0.863100
C1041	C104	0.034260	0.275300	0.723820
H811	H81	0.042600	0.376500	0.738000
H821	H82	0.053700	0.238700	0.699000
C1051	C105	0.028030	0.048400	0.776940
H831	H83	0.041900	0.006400	0.743700
H841	H84	0.038400	0.989600	0.828200
Co81	Co8	0.623720	0.685360	0.892080
O431	O43	0.639200	0.788800	0.810650
O441	O44	0.720780	0.792400	0.873070
O451	O45	0.707670	0.101090	0.517730
O461	O46	0.628330	0.147800	0.465920
O471	O47	0.643300	0.474200	0.866440
O481	O48	0.694800	0.600980	0.975160
N81	N8	0.546770	0.695000	0.802520
C1061	C106	0.678820	0.816400	0.813400
C1071	C107	0.675200	0.886500	0.735790
C1081	C108	0.632410	0.951000	0.675300
H851	H85	0.604600	0.950200	0.682100
C1091	C109	0.715590	0.890700	0.725180
H861	H86	0.745200	0.848300	0.766500
C1101	C110	0.669110	0.094500	0.519850
C1111	C111	0.670360	0.018400	0.593820
C1121	C112	0.713170	0.956100	0.654840
H871	H87	0.741100	0.958300	0.648500
C1131	C113	0.630240	0.016600	0.605000
H881	H88	0.600900	0.060700	0.564200
C1141	C114	0.683470	0.485300	0.933380
C1151	C115	0.717860	0.363100	0.967520
C1161	C116	0.712580	0.247700	0.915960
H891	H89	0.686900	0.246100	0.858700
C1171	C117	0.755080	0.365400	0.051600
H901	H90	0.758400	0.443900	0.086800
C1181	C118	0.519990	0.761800	0.841310
H911	H91	0.524100	0.703600	0.889800
H921	H92	0.533700	0.856900	0.863100
C1191	C119	0.534260	0.775300	0.723820
H931	H93	0.542600	0.876500	0.738000
H941	H94	0.553700	0.738700	0.699000
C1201	C120	0.528030	0.548400	0.776940
H951	H95	0.541900	0.506400	0.743700
H961	H96	0.538400	0.489600	0.828200
Co91	Co9	0.250000	0.750000	0.500000
Co101	Co10	0.750000	0.750000	0.000000
Co111	Co11	0.750000	0.250000	0.500000
Co121	Co12	0.250000	0.250000	0.000000
