data_GOBXAY_clean_PM
_symmetry_space_group_name_H-M	'P1'
_cell_length_a	14.105100
_cell_length_b	15.336500
_cell_length_c	17.816200
_cell_angle_alpha	89.985000
_cell_angle_beta	86.890000
_cell_angle_gamma	89.747000
_symmetry_Int_Tables_number 1

loop_
_symmetry_equiv_pos_as_xyz
'x,y,z'

loop_
_atom_site_label
_atom_site_type_symbol
_atom_site_fract_x
_atom_site_fract_y
_atom_site_fract_z
Ce11	Ce1	0.693580	0.573400	0.723710
Ce21	Ce2	0.870920	0.842060	0.252320
Ce31	Ce3	0.516540	0.249760	0.253030
Ce41	Ce4	0.144720	0.658620	0.237400
Ce51	Ce5	0.259340	0.924730	0.738000
Ce61	Ce6	0.483460	0.750240	0.746970
Ce71	Ce7	0.740660	0.075270	0.262000
Ce81	Ce8	0.855280	0.341380	0.762600
Ce91	Ce9	0.129080	0.157940	0.747680
Ce101	Ce10	0.306420	0.426600	0.276290
H11	H1	0.019600	0.126000	0.068100
H21	H2	0.939100	0.392300	0.983200
H31	H3	0.994500	0.459200	0.084400
H41	H4	0.723600	0.564600	0.252100
H51	H5	0.301200	0.943400	0.240700
H61	H6	0.399200	0.061100	0.092900
H71	H7	0.912900	0.826900	0.756600
H81	H8	0.127700	0.410000	0.519700
H91	H9	0.933400	0.337300	0.278500
H101	H10	0.662500	0.001500	0.011900
H111	H11	0.669200	0.419500	0.250100
H121	H12	0.147700	0.937600	0.471700
H131	H13	0.628300	0.928600	0.542200
H141	H14	0.357100	0.986900	0.561500
H151	H15	0.453500	0.366500	0.641200
H161	H16	0.066600	0.662700	0.721500
H171	H17	0.954100	0.037300	0.619500
H181	H18	0.354600	0.249000	0.635700
H191	H19	0.371700	0.071400	0.457800
H201	H20	0.234800	0.332500	0.068100
H211	H21	0.031800	0.032700	0.232600
H221	H22	0.635400	0.573500	0.526000
H231	H23	0.852300	0.062400	0.528300
H241	H24	0.980400	0.874000	0.931900
H251	H25	0.276400	0.435400	0.747900
H261	H26	0.045900	0.962700	0.380500
H271	H27	0.988200	0.483300	0.272500
H281	H28	0.330800	0.580500	0.749900
H291	H29	0.462000	0.888500	0.244100
H301	H30	0.765200	0.667500	0.931900
H311	H31	0.407500	0.623700	0.995300
H321	H32	0.698800	0.056600	0.759300
H331	H33	0.634200	0.236000	0.760400
H341	H34	0.872300	0.590000	0.480300
H351	H35	0.112500	0.099800	0.960100
H361	H36	0.538000	0.111500	0.755900
H371	H37	0.636800	0.466600	0.430500
H381	H38	0.968200	0.967300	0.767400
H391	H39	0.647700	0.912000	0.765700
H401	H40	0.817200	0.745600	0.039000
H411	H41	0.363200	0.533400	0.569500
H421	H42	0.642900	0.013100	0.438500
H431	H43	0.004000	0.423900	0.613700
H441	H44	0.600800	0.938900	0.907100
H451	H45	0.996000	0.576100	0.386300
H461	H46	0.364600	0.426500	0.474000
H471	H47	0.405600	0.543500	0.105300
H481	H48	0.645400	0.751000	0.364300
H491	H49	0.182800	0.254400	0.961000
H501	H50	0.011800	0.516700	0.727500
H511	H51	0.337500	0.998500	0.988100
H521	H52	0.060900	0.607700	0.016800
H531	H53	0.352300	0.088000	0.234300
H541	H54	0.594400	0.456500	0.894700
H551	H55	0.887500	0.900200	0.039900
H561	H56	0.592500	0.376300	0.004700
H571	H57	0.087100	0.173100	0.243400
H581	H58	0.365800	0.764000	0.239600
H591	H59	0.005500	0.540800	0.915600
H601	H60	0.546500	0.633500	0.358800
C11	C1	0.072300	0.492400	0.446000
C21	C2	0.519300	0.164000	0.735000
C31	C3	0.612900	0.390000	0.703500
C41	C4	0.712400	0.923900	0.762700
C51	C5	0.096400	0.042700	0.235700
C61	C6	0.422100	0.761700	0.264300
C71	C7	0.108500	0.617300	0.730100
C81	C8	0.387100	0.610000	0.296500
C91	C9	0.129300	0.126300	0.240400
C101	C10	0.470000	0.315200	0.665100
C111	C11	0.901400	0.627900	0.265000
C121	C12	0.138200	0.464300	0.739500
C131	C13	0.881700	0.031800	0.136200
C141	C14	0.057300	0.985500	0.935000
C151	C15	0.924200	0.471100	0.268200
C161	C16	0.903600	0.957300	0.764300
C171	C17	0.118300	0.968200	0.863800
C181	C18	0.497300	0.435400	0.445200
C191	C19	0.799700	0.366000	0.258800
C201	C20	0.133400	0.976900	0.618300
C211	C21	0.933200	0.012400	0.442300
C221	C22	0.845600	0.524400	0.614900
C231	C23	0.067100	0.059000	0.976000
C241	C24	0.973600	0.022700	0.570400
C251	C25	0.855300	0.703700	0.014400
C261	C26	0.419100	0.520600	0.541500
C271	C27	0.891500	0.382700	0.269900
C281	C28	0.772500	0.859600	0.759300
C291	C29	0.597200	0.001900	0.007300
C301	C30	0.483400	0.883500	0.627500
C311	C31	0.579400	0.544700	0.516300
C321	C32	0.026400	0.977300	0.429600
C331	C33	0.866600	0.023100	0.381700
C341	C34	0.538000	0.042100	0.063600
C351	C35	0.409100	0.245900	0.662800
C361	C36	0.098600	0.372100	0.735000
C371	C37	0.497700	0.389700	0.131800
C381	C38	0.839200	0.028800	0.764400
C391	C39	0.440400	0.037500	0.055700
C401	C40	0.051500	0.315500	0.963600
C411	C41	0.000900	0.622000	0.001000
C421	C42	0.965800	0.579000	0.942700
C431	C43	0.910700	0.036500	0.515800
C441	C44	0.558000	0.474500	0.937000
C451	C45	0.736000	0.762600	0.752900
C461	C46	0.011400	0.075200	0.040800
C471	C47	0.496600	0.626400	0.619300
C481	C48	0.554000	0.425500	0.002300
C491	C49	0.923900	0.553600	0.487900
C501	C50	0.420600	0.455300	0.483700
C511	C51	0.742600	0.011300	0.761700
C521	C52	0.424900	0.042900	0.474700
C531	C53	0.154400	0.475600	0.385100
C541	C54	0.834800	0.537400	0.862000
C551	C55	0.232700	0.727800	0.735100
C561	C56	0.416400	0.991300	0.536500
C571	C57	0.577900	0.238300	0.735700
C581	C58	0.861800	0.535700	0.260500
C591	C59	0.144700	0.296300	0.985600
C601	C60	0.873000	0.127300	0.759000
C611	C61	0.127000	0.872700	0.241000
C621	C62	0.504200	0.553600	0.936700
C631	C63	0.766500	0.518600	0.255100
C641	C64	0.559600	0.962500	0.944300
C651	C65	0.200300	0.634000	0.741200
C661	C66	0.932900	0.941000	0.024000
C671	C67	0.076100	0.446400	0.512100
C681	C68	0.983400	0.728400	0.107600
C691	C69	0.488200	0.946900	0.563300
C701	C70	0.733300	0.431800	0.253900
C711	C71	0.511800	0.053100	0.436700
C721	C72	0.948500	0.684500	0.036400
C731	C73	0.462000	0.957900	0.936400
C741	C74	0.870700	0.873700	0.759600
C751	C75	0.997900	0.545900	0.431400
C761	C76	0.034200	0.421000	0.057300
C771	C77	0.495800	0.446400	0.063300
C781	C78	0.266700	0.568200	0.746100
C791	C79	0.160800	0.971200	0.235600
C801	C80	0.264000	0.237400	0.247100
C811	C81	0.530000	0.684800	0.334900
C821	C82	0.503400	0.373600	0.380700
C831	C83	0.287600	0.076100	0.237300
C841	C84	0.999100	0.378000	0.999000
C851	C85	0.878400	0.589200	0.921700
C861	C86	0.502700	0.564600	0.554800
C871	C87	0.480700	0.836000	0.265000
C881	C88	0.165200	0.462600	0.138000
C891	C89	0.578800	0.084300	0.128300
C901	C90	0.575100	0.957100	0.525300
C911	C91	0.442000	0.525500	0.063000
C921	C92	0.516600	0.116500	0.372500
C931	C93	0.002100	0.454100	0.568600
C941	C94	0.590900	0.754100	0.337200
C951	C95	0.016600	0.271600	0.892400
C961	C96	0.767300	0.272200	0.264900
C971	C97	0.568900	0.827900	0.298600
C981	C98	0.233500	0.481400	0.744900
C991	C99	0.421200	0.915700	0.871700
C1001	C100	0.121600	0.410800	0.078300
C1011	C101	0.227500	0.140400	0.240700
C1021	C102	0.502300	0.610300	0.868200
C1031	C103	0.447000	0.686600	0.299500
C1041	C104	0.927700	0.507600	0.554000
C1051	C105	0.580900	0.479400	0.458500
C1061	C106	0.823200	0.655000	0.951700
C1071	C107	0.089300	0.963500	0.484200
C1081	C108	0.257400	0.988700	0.238300
C1091	C109	0.628600	0.905200	0.290500
C1101	C110	0.371400	0.094800	0.709500
C1111	C111	0.402800	0.998100	0.992700
C1121	C112	0.988600	0.924800	0.959200
C1131	C113	0.431100	0.172100	0.701400
C1141	C114	0.583600	0.008700	0.463500
C1151	C115	0.553000	0.313400	0.700500
C1161	C116	0.446000	0.574500	0.997700
C1171	C117	0.066800	0.987600	0.557700
C1181	C118	0.075800	0.528900	0.731800
C1191	C119	0.942700	0.014500	0.065000
C1201	C120	0.176800	0.345000	0.048300
O11	O1	0.426300	0.350700	0.351700
O21	O2	0.401100	0.028800	0.740800
O31	O3	0.778300	0.568100	0.597000
O41	O4	0.113100	0.004700	0.683300
O51	O5	0.206900	0.928900	0.601700
O61	O6	0.692200	0.386300	0.734000
O71	O7	0.463600	0.682900	0.874200
O81	O8	0.401800	0.866900	0.662700
O91	O9	0.165300	0.315600	0.734300
O101	O10	0.420900	0.660600	0.641600
O111	O11	0.812300	0.183200	0.764700
O121	O12	0.543400	0.586400	0.804200
O131	O13	0.718100	0.900700	0.312400
O141	O14	0.938700	0.294600	0.872200
O151	O15	0.525800	0.123600	0.170600
O161	O16	0.150600	0.512300	0.321500
O171	O17	0.007100	0.351800	0.734000
O181	O18	0.357300	0.253000	0.237100
O191	O19	0.246000	0.444200	0.157200
O201	O20	0.456600	0.413600	0.195800
O211	O21	0.579100	0.339400	0.358400
O221	O22	0.067100	0.212300	0.866200
O231	O23	0.114300	0.528200	0.163400
O241	O24	0.797000	0.706900	0.723800
O251	O25	0.642700	0.747000	0.762900
O261	O26	0.180200	0.783100	0.708700
O271	O27	0.446400	0.151000	0.351000
O281	O28	0.849400	0.487700	0.678500
O291	O29	0.819800	0.216900	0.291300
O301	O30	0.323200	0.751300	0.757700
O311	O31	0.967800	0.141000	0.753000
O321	O32	0.573700	0.649300	0.648300
O331	O33	0.414200	0.540200	0.323700
O341	O34	0.992900	0.648200	0.266000
O351	O35	0.203000	0.293100	0.276200
O361	O36	0.754000	0.555800	0.842800
O371	O37	0.335200	0.919900	0.861800
O381	O38	0.127100	0.892200	0.839600
O391	O39	0.474200	0.876400	0.829400
O401	O40	0.837100	0.967400	0.171800
O411	O41	0.553600	0.849000	0.649000
O421	O42	0.281900	0.099300	0.687600
O431	O43	0.162900	0.032600	0.828200
O441	O44	0.793100	0.071100	0.398300
O451	O45	0.187700	0.816800	0.235300
O461	O46	0.834700	0.684400	0.265700
O471	O47	0.676800	0.248700	0.242300
O481	O48	0.221700	0.431900	0.403000
O491	O49	0.886900	0.995300	0.316700
O501	O50	0.872900	0.107800	0.160400
O511	O51	0.585800	0.459800	0.676300
O521	O52	0.598900	0.971200	0.259200
O531	O53	0.664800	0.080100	0.138200
O541	O54	0.932900	0.787700	0.133800
O551	O55	0.598200	0.133100	0.337300
O561	O56	0.032200	0.859000	0.247000
O571	O57	0.061300	0.705400	0.127800
O581	O58	0.536400	0.317100	0.125800
O591	O59	0.307800	0.613700	0.266000
O601	O60	0.885700	0.471800	0.836600
