data_GOLYUD_clean_PM
_symmetry_space_group_name_H-M	'P1'
_cell_length_a	14.226900
_cell_length_b	14.769200
_cell_length_c	21.691200
_cell_angle_alpha	90.391000
_cell_angle_beta	94.357000
_cell_angle_gamma	118.233000
_symmetry_Int_Tables_number 1

loop_
_symmetry_equiv_pos_as_xyz
'x,y,z'

loop_
_atom_site_label
_atom_site_type_symbol
_atom_site_fract_x
_atom_site_fract_y
_atom_site_fract_z
C11	C1	0.932700	0.092000	0.995240
H11	H1	0.956200	0.046700	0.010400
C21	C2	0.873800	0.070900	0.937930
H21	H2	0.856000	0.009900	0.915800
C31	C3	0.840400	0.140200	0.912500
C41	C4	0.866700	0.228800	0.948370
H31	H3	0.845700	0.276000	0.933500
C51	C5	0.923700	0.248000	0.006000
H41	H4	0.940300	0.307800	0.029100
C61	C6	0.779500	0.118600	0.849880
C71	C7	0.718700	0.019000	0.826420
H51	H5	0.718800	0.965400	0.848700
C81	C8	0.657100	0.996900	0.770070
C91	C9	0.659900	0.075800	0.735370
H61	H6	0.621400	0.061100	0.696700
C101	C10	0.720400	0.177900	0.758040
C111	C11	0.780600	0.198300	0.815770
H71	H7	0.821600	0.265900	0.831300
C121	C12	0.805900	0.441400	0.694210
H81	H8	0.864000	0.507300	0.699600
C131	C13	0.806400	0.363100	0.728520
H91	H9	0.865100	0.377000	0.756400
C141	C14	0.719600	0.262500	0.722080
C151	C15	0.633700	0.245900	0.679290
H101	H10	0.575100	0.180500	0.673700
C161	C16	0.634300	0.325400	0.644800
H111	H11	0.576300	0.312800	0.616600
C171	C17	0.503530	0.846790	0.727490
C181	C18	0.421750	0.844530	0.759760
H121	H12	0.438100	0.888300	0.794500
C191	C19	0.315530	0.776890	0.740050
C201	C20	0.291090	0.711510	0.688080
H131	H13	0.220000	0.666300	0.674900
C211	C21	0.372870	0.713770	0.655810
C221	C22	0.479090	0.781400	0.675520
H141	H14	0.533800	0.782900	0.653900
C231	C23	0.051400	0.684700	0.809460
H151	H15	0.988000	0.623700	0.811700
C241	C24	0.132400	0.684400	0.777830
H161	H16	0.122900	0.623700	0.758700
C251	C25	0.228300	0.775300	0.774700
C261	C26	0.239000	0.862600	0.803580
H171	H17	0.303000	0.923400	0.803000
C271	C27	0.156100	0.862500	0.833830
H181	H18	0.164300	0.923600	0.851600
C281	C28	0.408700	0.582300	0.514600
H191	H19	0.464300	0.580600	0.495600
C291	C29	0.430500	0.637500	0.564300
H201	H20	0.501600	0.673900	0.580500
C301	C30	0.346800	0.646300	0.597810
C311	C31	0.241900	0.584600	0.569400
H211	H21	0.184600	0.584400	0.587500
C321	C32	0.221200	0.524600	0.515700
H221	H22	0.151300	0.484200	0.498400
C331	C33	0.053800	0.067100	0.196530
C341	C34	0.015600	0.955700	0.212160
C351	C35	0.043500	0.932100	0.270500
H231	H23	0.086700	0.984800	0.299700
C361	C36	0.007200	0.831000	0.285000
H241	H24	0.026200	0.816000	0.324100
C371	C37	0.942800	0.751400	0.242200
C381	C38	0.916000	0.775600	0.183400
H251	H25	0.874300	0.723100	0.153900
C391	C39	0.951100	0.877000	0.169000
H261	H26	0.931200	0.892400	0.130300
C401	C40	0.761600	0.585200	0.278900
C411	C41	0.749700	0.629900	0.332300
H271	H27	0.809500	0.680600	0.355500
C421	C42	0.646100	0.597700	0.351000
H281	H28	0.636900	0.629400	0.385500
C431	C43	0.558600	0.518600	0.317740
C441	C44	0.571700	0.473400	0.264690
H291	H29	0.512500	0.420800	0.242200
C451	C45	0.675200	0.507800	0.245300
H301	H30	0.684600	0.478100	0.209900
C461	C46	0.449300	0.483600	0.339530
C471	C47	0.932200	0.690600	0.641950
C481	C48	0.043100	0.758600	0.627170
C491	C49	0.081100	0.731600	0.576070
H311	H31	0.037000	0.671000	0.552700
C501	C50	0.184700	0.795400	0.560100
H321	H32	0.210500	0.777700	0.526500
C511	C51	0.248500	0.885800	0.595400
C521	C52	0.212300	0.911700	0.646940
H331	H33	0.256500	0.971600	0.670900
C531	C53	0.110200	0.847500	0.662040
H341	H34	0.085800	0.864500	0.696600
C541	C54	0.354000	0.049400	0.521240
C551	C55	0.326400	0.023500	0.459400
H351	H35	0.325800	0.964900	0.442800
C561	C56	0.299800	0.083200	0.421650
H361	H36	0.281100	0.065100	0.379600
C571	C57	0.300400	0.171000	0.445800
C581	C58	0.329300	0.198400	0.509470
H371	H37	0.330500	0.257200	0.526100
C591	C59	0.355800	0.136200	0.547130
H381	H38	0.374600	0.152900	0.589300
C601	C60	0.276200	0.241200	0.405480
C611	C61	0.199800	0.409500	0.147750
C621	C62	0.289200	0.520100	0.153860
C631	C63	0.279200	0.593600	0.119500
H391	H39	0.218200	0.575500	0.092600
C641	C64	0.360600	0.695300	0.125000
H401	H40	0.354100	0.745700	0.102500
C651	C65	0.452900	0.720600	0.165270
C661	C66	0.460600	0.645700	0.199530
H411	H41	0.520400	0.663600	0.227300
C671	C67	0.381300	0.545000	0.193210
H421	H42	0.388900	0.494300	0.214800
C681	C68	0.626900	0.842400	0.103800
C691	C69	0.605700	0.878400	0.048400
H431	H43	0.563100	0.910600	0.046500
C701	C70	0.649100	0.865600	0.995600
H441	H44	0.635500	0.889800	0.958300
C711	C71	0.711800	0.817600	0.998030
C721	C72	0.734800	0.784300	0.053400
H451	H45	0.779400	0.754300	0.055300
C731	C73	0.691500	0.795400	0.106630
H461	H46	0.705800	0.771500	0.143800
C741	C74	0.756900	0.802200	0.940290
Co11	Co1	0.062550	0.224250	0.112400
Co21	Co2	0.286250	0.453820	0.399710
Co31	Co3	0.221510	0.280000	0.271080
N11	N1	0.956100	0.180200	0.029610
N21	N2	0.721000	0.423200	0.652440
N31	N3	0.062900	0.773400	0.837560
N41	N4	0.306500	0.525700	0.488270
O11	O1	0.613700	0.897900	0.744940
O21	O2	0.028100	0.083500	0.142770
O31	O3	0.101600	0.132860	0.238670
O41	O4	0.885400	0.563300	0.206840
O51	O5	0.954500	0.618500	0.315430
O61	O6	0.365340	0.423490	0.307930
O71	O7	0.448600	0.520000	0.391900
O81	O8	0.131800	0.383670	0.100430
O91	O9	0.196460	0.343440	0.183690
O101	O10	0.516600	0.917400	0.156120
O111	O11	0.628300	0.859400	0.224480
O121	O12	0.712600	0.811800	0.890570
O131	O13	0.827700	0.774600	0.946390
O141	O14	0.252700	0.214480	0.349120
O151	O15	0.286400	0.322890	0.430190
O161	O16	0.407500	0.902200	0.534090
O171	O17	0.444200	0.025800	0.625640
O181	O18	0.874400	0.617000	0.602240
O191	O19	0.900330	0.707320	0.690940
S11	S1	0.893690	0.623010	0.259790
S21	S2	0.378390	0.965160	0.571020
S31	S3	0.560200	0.845340	0.168420
C751	C75	0.067300	0.908000	0.004760
H471	H47	0.043800	0.953300	0.989600
C761	C76	0.126200	0.929100	0.062070
H481	H48	0.144000	0.990100	0.084200
C771	C77	0.159600	0.859800	0.087500
C781	C78	0.133300	0.771200	0.051630
H491	H49	0.154300	0.724000	0.066500
C791	C79	0.076300	0.752000	0.994000
H501	H50	0.059700	0.692200	0.970900
C801	C80	0.220500	0.881400	0.150120
C811	C81	0.281300	0.981000	0.173580
H511	H51	0.281200	0.034600	0.151300
C821	C82	0.342900	0.003100	0.229930
C831	C83	0.340100	0.924200	0.264630
H521	H52	0.378600	0.938900	0.303300
C841	C84	0.279600	0.822100	0.241960
C851	C85	0.219400	0.801700	0.184230
H531	H53	0.178400	0.734100	0.168700
C861	C86	0.194100	0.558600	0.305790
H541	H54	0.136000	0.492700	0.300400
C871	C87	0.193600	0.636900	0.271480
H551	H55	0.134900	0.623000	0.243600
C881	C88	0.280400	0.737500	0.277920
C891	C89	0.366300	0.754100	0.320710
H561	H56	0.424900	0.819500	0.326300
C901	C90	0.365700	0.674600	0.355200
H571	H57	0.423700	0.687200	0.383400
C911	C91	0.496470	0.153210	0.272510
C921	C92	0.578250	0.155470	0.240240
H581	H58	0.561900	0.111700	0.205500
C931	C93	0.684470	0.223110	0.259950
C941	C94	0.708910	0.288490	0.311920
H591	H59	0.780000	0.333700	0.325100
C951	C95	0.627130	0.286230	0.344190
C961	C96	0.520910	0.218600	0.324480
H601	H60	0.466200	0.217100	0.346100
C971	C97	0.948600	0.315300	0.190540
H611	H61	0.012000	0.376300	0.188300
C981	C98	0.867600	0.315600	0.222170
H621	H62	0.877100	0.376300	0.241300
C991	C99	0.771700	0.224700	0.225300
C1001	C100	0.761000	0.137400	0.196420
H631	H63	0.697000	0.076600	0.197000
C1011	C101	0.843900	0.137500	0.166170
H641	H64	0.835700	0.076400	0.148400
C1021	C102	0.591300	0.417700	0.485400
H651	H65	0.535700	0.419400	0.504400
C1031	C103	0.569500	0.362500	0.435700
H661	H66	0.498400	0.326100	0.419500
C1041	C104	0.653200	0.353700	0.402190
C1051	C105	0.758100	0.415400	0.430600
H671	H67	0.815400	0.415600	0.412500
C1061	C106	0.778800	0.475400	0.484300
H681	H68	0.848700	0.515800	0.501600
C1071	C107	0.946200	0.932900	0.803470
C1081	C108	0.984400	0.044300	0.787840
C1091	C109	0.956500	0.067900	0.729500
H691	H69	0.913300	0.015200	0.700300
C1101	C110	0.992800	0.169000	0.715000
H701	H70	0.973800	0.184000	0.675900
C1111	C111	0.057200	0.248600	0.757800
C1121	C112	0.084000	0.224400	0.816600
H711	H71	0.125700	0.276900	0.846100
C1131	C113	0.048900	0.123000	0.831000
H721	H72	0.068800	0.107600	0.869700
C1141	C114	0.238400	0.414800	0.721100
C1151	C115	0.250300	0.370100	0.667700
H731	H73	0.190500	0.319400	0.644500
C1161	C116	0.353900	0.402300	0.649000
H741	H74	0.363100	0.370600	0.614500
C1171	C117	0.441400	0.481400	0.682260
C1181	C118	0.428300	0.526600	0.735310
H751	H75	0.487500	0.579200	0.757800
C1191	C119	0.324800	0.492200	0.754700
H761	H76	0.315400	0.521900	0.790100
C1201	C120	0.550700	0.516400	0.660470
C1211	C121	0.067800	0.309400	0.358050
C1221	C122	0.956900	0.241400	0.372830
C1231	C123	0.918900	0.268400	0.423930
H771	H77	0.963000	0.329000	0.447300
C1241	C124	0.815300	0.204600	0.439900
H781	H78	0.789500	0.222300	0.473500
C1251	C125	0.751500	0.114200	0.404600
C1261	C126	0.787700	0.088300	0.353060
H791	H79	0.743500	0.028400	0.329100
C1271	C127	0.889800	0.152500	0.337960
H801	H80	0.914200	0.135500	0.303400
C1281	C128	0.646000	0.950600	0.478760
C1291	C129	0.673600	0.976500	0.540600
H811	H81	0.674200	0.035100	0.557200
C1301	C130	0.700200	0.916800	0.578350
H821	H82	0.718900	0.934900	0.620400
C1311	C131	0.699600	0.829000	0.554200
C1321	C132	0.670700	0.801600	0.490530
H831	H83	0.669500	0.742800	0.473900
C1331	C133	0.644200	0.863800	0.452870
H841	H84	0.625400	0.847100	0.410700
C1341	C134	0.723800	0.758800	0.594520
C1351	C135	0.800200	0.590500	0.852250
C1361	C136	0.710800	0.479900	0.846140
C1371	C137	0.720800	0.406400	0.880500
H851	H85	0.781800	0.424500	0.907400
C1381	C138	0.639400	0.304700	0.875000
H861	H86	0.645900	0.254300	0.897500
C1391	C139	0.547100	0.279400	0.834730
C1401	C140	0.539400	0.354300	0.800470
H871	H87	0.479600	0.336400	0.772700
C1411	C141	0.618700	0.455000	0.806790
H881	H88	0.611100	0.505700	0.785200
C1421	C142	0.373100	0.157600	0.896200
C1431	C143	0.394300	0.121600	0.951600
H891	H89	0.436900	0.089400	0.953500
C1441	C144	0.350900	0.134400	0.004400
H901	H90	0.364500	0.110200	0.041700
C1451	C145	0.288200	0.182400	0.001970
C1461	C146	0.265200	0.215700	0.946600
H911	H91	0.220600	0.245700	0.944700
C1471	C147	0.308500	0.204600	0.893370
H921	H92	0.294200	0.228500	0.856200
C1481	C148	0.243100	0.197800	0.059710
Co41	Co4	0.937450	0.775750	0.887600
Co51	Co5	0.713750	0.546180	0.600290
Co61	Co6	0.778490	0.720000	0.728920
N51	N5	0.043900	0.819800	0.970390
N61	N6	0.279000	0.576800	0.347560
N71	N7	0.937100	0.226600	0.162440
N81	N8	0.693500	0.474300	0.511730
O201	O20	0.386300	0.102100	0.255060
O211	O21	0.971900	0.916500	0.857230
O221	O22	0.898400	0.867140	0.761330
O231	O23	0.114600	0.436700	0.793160
O241	O24	0.045500	0.381500	0.684570
O251	O25	0.634660	0.576510	0.692070
O261	O26	0.551400	0.480000	0.608100
O271	O27	0.868200	0.616330	0.899570
O281	O28	0.803540	0.656560	0.816310
O291	O29	0.483400	0.082600	0.843880
O301	O30	0.371700	0.140600	0.775520
O311	O31	0.287400	0.188200	0.109430
O321	O32	0.172300	0.225400	0.053610
O331	O33	0.747300	0.785520	0.650880
O341	O34	0.713600	0.677110	0.569810
O351	O35	0.592500	0.097800	0.465910
O361	O36	0.555800	0.974200	0.374360
O371	O37	0.125600	0.383000	0.397760
O381	O38	0.099670	0.292680	0.309060
S41	S4	0.106310	0.376990	0.740210
S51	S5	0.621610	0.034840	0.428980
S61	S6	0.439800	0.154660	0.831580
