data_GOMREG_clean_PM
_symmetry_space_group_name_H-M	'P1'
_cell_length_a	14.877900
_cell_length_b	13.063300
_cell_length_c	15.419100
_cell_angle_alpha	90.000000
_cell_angle_beta	110.745000
_cell_angle_gamma	90.000000
_symmetry_Int_Tables_number 1

loop_
_symmetry_equiv_pos_as_xyz
'x,y,z'

loop_
_atom_site_label
_atom_site_type_symbol
_atom_site_fract_x
_atom_site_fract_y
_atom_site_fract_z
Al11	Al1	0.377300	0.307550	0.124090
Al21	Al2	0.742830	0.374150	0.079670
Mn11	Mn1	0.257170	0.625850	0.920330
Al31	Al3	0.083840	0.109400	0.163770
Mn21	Mn2	0.416160	0.609400	0.336230
P11	P1	0.244690	0.114290	0.075510
P21	P2	0.874130	0.190950	0.126560
P31	P3	0.588770	0.366020	0.170980
O11	O1	0.973100	0.187800	0.120100
O21	O2	0.336800	0.177100	0.108800
O31	O3	0.657900	0.328100	0.126300
O41	O4	0.868500	0.132200	0.207900
O51	O5	0.501200	0.296200	0.139600
O61	O6	0.174600	0.156400	0.116200
O71	O7	0.637000	0.364600	0.275500
O81	O8	0.849600	0.303900	0.130400
O91	O9	0.798100	0.143600	0.042100
O101	O10	0.558600	0.474100	0.140500
O111	O11	0.271900	0.004300	0.106300
O121	O12	0.201600	0.116700	0.970600
Al41	Al4	0.877300	0.807550	0.124090
Al51	Al5	0.242830	0.874150	0.079670
Mn31	Mn3	0.757170	0.125850	0.920330
Al61	Al6	0.583840	0.609400	0.163770
Mn41	Mn4	0.916160	0.109400	0.336230
P41	P4	0.744690	0.614290	0.075510
P51	P5	0.374130	0.690950	0.126560
P61	P6	0.088770	0.866020	0.170980
O131	O13	0.473100	0.687800	0.120100
O141	O14	0.836800	0.677100	0.108800
O151	O15	0.157900	0.828100	0.126300
O161	O16	0.368500	0.632200	0.207900
O171	O17	0.001200	0.796200	0.139600
O181	O18	0.674600	0.656400	0.116200
O191	O19	0.137000	0.864600	0.275500
O201	O20	0.349600	0.803900	0.130400
O211	O21	0.298100	0.643600	0.042100
O221	O22	0.058600	0.974100	0.140500
O231	O23	0.771900	0.504300	0.106300
O241	O24	0.701600	0.616700	0.970600
Al71	Al7	0.622700	0.307550	0.375910
Al81	Al8	0.257170	0.374150	0.420330
Mn51	Mn5	0.742830	0.625850	0.579670
P71	P7	0.755310	0.114290	0.424490
P81	P8	0.125870	0.190950	0.373440
P91	P9	0.411230	0.366020	0.329020
O251	O25	0.026900	0.187800	0.379900
O261	O26	0.663200	0.177100	0.391200
O271	O27	0.342100	0.328100	0.373700
O281	O28	0.131500	0.132200	0.292100
O291	O29	0.498800	0.296200	0.360400
O301	O30	0.825400	0.156400	0.383800
O311	O31	0.363000	0.364600	0.224500
O321	O32	0.150400	0.303900	0.369600
O331	O33	0.201900	0.143600	0.457900
O341	O34	0.441400	0.474100	0.359500
O351	O35	0.728100	0.004300	0.393700
O361	O36	0.798400	0.116700	0.529400
Al91	Al9	0.122700	0.807550	0.375910
Al101	Al10	0.757170	0.874150	0.420330
Mn61	Mn6	0.242830	0.125850	0.579670
P101	P10	0.255310	0.614290	0.424490
P111	P11	0.625870	0.690950	0.373440
P121	P12	0.911230	0.866020	0.329020
O371	O37	0.526900	0.687800	0.379900
O381	O38	0.163200	0.677100	0.391200
O391	O39	0.842100	0.828100	0.373700
O401	O40	0.631500	0.632200	0.292100
O411	O41	0.998800	0.796200	0.360400
O421	O42	0.325400	0.656400	0.383800
O431	O43	0.863000	0.864600	0.224500
O441	O44	0.650400	0.803900	0.369600
O451	O45	0.701900	0.643600	0.457900
O461	O46	0.941400	0.974100	0.359500
O471	O47	0.228100	0.504300	0.393700
O481	O48	0.298400	0.616700	0.529400
Al111	Al11	0.622700	0.692450	0.875910
Al121	Al12	0.916160	0.890600	0.836230
Mn71	Mn7	0.583840	0.390600	0.663770
P131	P13	0.755310	0.885710	0.924490
P141	P14	0.125870	0.809050	0.873440
P151	P15	0.411230	0.633980	0.829020
O491	O49	0.026900	0.812200	0.879900
O501	O50	0.663200	0.822900	0.891200
O511	O51	0.342100	0.671900	0.873700
O521	O52	0.131500	0.867800	0.792100
O531	O53	0.498800	0.703800	0.860400
O541	O54	0.825400	0.843600	0.883800
O551	O55	0.363000	0.635400	0.724500
O561	O56	0.150400	0.696100	0.869600
O571	O57	0.201900	0.856400	0.957900
O581	O58	0.441400	0.525900	0.859500
O591	O59	0.728100	0.995700	0.893700
O601	O60	0.798400	0.883300	0.029400
Al131	Al13	0.122700	0.192450	0.875910
Al141	Al14	0.416160	0.390600	0.836230
Mn81	Mn8	0.083840	0.890600	0.663770
P161	P16	0.255310	0.385710	0.924490
P171	P17	0.625870	0.309050	0.873440
P181	P18	0.911230	0.133980	0.829020
O611	O61	0.526900	0.312200	0.879900
O621	O62	0.163200	0.322900	0.891200
O631	O63	0.842100	0.171900	0.873700
O641	O64	0.631500	0.367800	0.792100
O651	O65	0.998800	0.203800	0.860400
O661	O66	0.325400	0.343600	0.883800
O671	O67	0.863000	0.135400	0.724500
O681	O68	0.650400	0.196100	0.869600
O691	O69	0.701900	0.356400	0.957900
O701	O70	0.941400	0.025900	0.859500
O711	O71	0.228100	0.495700	0.893700
O721	O72	0.298400	0.383300	0.029400
Al151	Al15	0.377300	0.692450	0.624090
P191	P19	0.244690	0.885710	0.575510
P201	P20	0.874130	0.809050	0.626560
P211	P21	0.588770	0.633980	0.670980
O731	O73	0.973100	0.812200	0.620100
O741	O74	0.336800	0.822900	0.608800
O751	O75	0.657900	0.671900	0.626300
O761	O76	0.868500	0.867800	0.707900
O771	O77	0.501200	0.703800	0.639600
O781	O78	0.174600	0.843600	0.616200
O791	O79	0.637000	0.635400	0.775500
O801	O80	0.849600	0.696100	0.630400
O811	O81	0.798100	0.856400	0.542100
O821	O82	0.558600	0.525900	0.640500
O831	O83	0.271900	0.995700	0.606300
O841	O84	0.201600	0.883300	0.470600
Al161	Al16	0.877300	0.192450	0.624090
P221	P22	0.744690	0.385710	0.575510
P231	P23	0.374130	0.309050	0.626560
P241	P24	0.088770	0.133980	0.670980
O851	O85	0.473100	0.312200	0.620100
O861	O86	0.836800	0.322900	0.608800
O871	O87	0.157900	0.171900	0.626300
O881	O88	0.368500	0.367800	0.707900
O891	O89	0.001200	0.203800	0.639600
O901	O90	0.674600	0.343600	0.616200
O911	O91	0.137000	0.135400	0.775500
O921	O92	0.349600	0.196100	0.630400
O931	O93	0.298100	0.356400	0.542100
O941	O94	0.058600	0.025900	0.640500
O951	O95	0.771900	0.495700	0.606300
O961	O96	0.701600	0.383300	0.470600
