data_GONNAA_clean_PM
_symmetry_space_group_name_H-M	'P1'
_cell_length_a	15.734500
_cell_length_b	15.744200
_cell_length_c	20.580100
_cell_angle_alpha	90.000000
_cell_angle_beta	90.000000
_cell_angle_gamma	112.118000
_symmetry_Int_Tables_number 1

loop_
_symmetry_equiv_pos_as_xyz
'x,y,z'

loop_
_atom_site_label
_atom_site_type_symbol
_atom_site_fract_x
_atom_site_fract_y
_atom_site_fract_z
Zn11	Zn1	0.796510	0.143950	0.910500
Zn21	Zn2	0.296510	0.643950	0.589500
Zn31	Zn3	0.646290	0.287870	0.908260
Zn41	Zn4	0.872370	0.863470	0.755190
Zn51	Zn5	0.372370	0.363470	0.744810
Zn61	Zn6	0.703490	0.356050	0.410500
Zn71	Zn7	0.627630	0.636530	0.255190
Zn81	Zn8	0.203490	0.856050	0.089500
Zn91	Zn9	0.353710	0.712130	0.091740
Zn101	Zn10	0.853710	0.212130	0.408260
Zn111	Zn11	0.146290	0.787870	0.591740
Zn121	Zn12	0.127630	0.136530	0.244810
H11	H1	0.870900	0.524300	0.742600
H21	H2	0.874100	0.377700	0.346200
H31	H3	0.922800	0.518900	0.417200
H41	H4	0.822400	0.384200	0.671400
H51	H5	0.381400	0.039600	0.879800
H61	H6	0.077200	0.481100	0.582800
H71	H7	0.881600	0.388200	0.268700
H81	H8	0.118400	0.611800	0.731300
H91	H9	0.322400	0.884200	0.828600
H101	H10	0.618400	0.111800	0.768700
H111	H11	0.537500	0.947900	0.285400
H121	H12	0.370900	0.024300	0.757400
H131	H13	0.129100	0.475700	0.257400
H141	H14	0.618600	0.960400	0.120200
H151	H15	0.471900	0.134700	0.237000
H161	H16	0.117500	0.678500	0.330900
H171	H17	0.028100	0.365300	0.737000
H181	H18	0.177600	0.615800	0.328600
H191	H19	0.118600	0.460400	0.379800
H201	H20	0.037500	0.447900	0.214600
H211	H21	0.462500	0.052100	0.714600
H221	H22	0.422800	0.018900	0.082800
H231	H23	0.979800	0.577800	0.585400
H241	H24	0.617500	0.178500	0.169100
H251	H25	0.882500	0.321500	0.669100
H261	H26	0.382500	0.821500	0.830900
H271	H27	0.528100	0.865300	0.763000
H281	H28	0.941500	0.545400	0.217700
H291	H29	0.677600	0.115800	0.171400
H301	H30	0.479800	0.077800	0.914600
H311	H31	0.460600	0.118500	0.115600
H321	H32	0.971900	0.634700	0.263000
H331	H33	0.374100	0.877700	0.153800
H341	H34	0.058500	0.454600	0.782300
H351	H35	0.881400	0.539600	0.620200
H361	H36	0.962500	0.552100	0.785400
H371	H37	0.441500	0.045400	0.282300
H381	H38	0.960600	0.618500	0.384400
H391	H39	0.520200	0.922200	0.085400
H401	H40	0.020200	0.422200	0.414600
H411	H41	0.125900	0.622300	0.653800
H421	H42	0.539400	0.881500	0.884400
H431	H43	0.577200	0.981100	0.917200
H441	H44	0.381600	0.888200	0.231300
H451	H45	0.039400	0.381500	0.615600
H461	H46	0.625900	0.122300	0.846200
H471	H47	0.629100	0.975700	0.242600
H481	H48	0.558500	0.954600	0.717700
C11	C1	0.086900	0.486900	0.684080
C21	C2	0.397400	0.900500	0.946570
C31	C3	0.066000	0.475100	0.256390
C41	C4	0.913100	0.513100	0.315920
C51	C5	0.102600	0.599500	0.446570
C61	C6	0.885700	0.385400	0.672930
C71	C7	0.990000	0.677800	0.691420
C81	C8	0.944500	0.540300	0.622130
C91	C9	0.959100	0.555300	0.380500
C101	C10	0.816800	0.515200	0.314240
C111	C11	0.626900	0.132100	0.291590
C121	C12	0.410900	0.915600	0.189790
C131	C13	0.614300	0.114600	0.172930
C141	C14	0.183200	0.484800	0.685760
C151	C15	0.459100	0.055300	0.119500
C161	C16	0.683200	0.984800	0.814240
C171	C17	0.413100	0.013100	0.184080
C181	C18	0.602600	0.099500	0.053430
C191	C19	0.569200	0.073300	0.238250
C201	C20	0.510000	0.822200	0.191420
C211	C21	0.430800	0.926700	0.761750
C221	C22	0.441600	0.942700	0.884030
C231	C23	0.540900	0.944700	0.880500
C241	C24	0.558400	0.057300	0.115970
C251	C25	0.555500	0.959700	0.122130
C261	C26	0.029600	0.428600	0.740340
C271	C27	0.586900	0.986900	0.815920
C281	C28	0.970400	0.571400	0.259660
C291	C29	0.566000	0.975100	0.243610
C301	C30	0.897400	0.400500	0.553430
C311	C31	0.910900	0.415600	0.310210
C321	C32	0.470400	0.071400	0.240340
C331	C33	0.010000	0.322200	0.308580
C341	C34	0.510100	0.916800	0.187040
C351	C35	0.040900	0.444700	0.619500
C361	C36	0.055500	0.459700	0.377870
C371	C37	0.444500	0.040300	0.877870
C381	C38	0.385700	0.885400	0.827070
C391	C39	0.930800	0.426700	0.738250
C401	C40	0.126900	0.632100	0.208410
C411	C41	0.069200	0.573300	0.261750
C421	C42	0.010100	0.416800	0.312960
C431	C43	0.529600	0.928600	0.759660
C441	C44	0.873100	0.367900	0.791590
C451	C45	0.058400	0.557300	0.384030
C461	C46	0.114300	0.614600	0.327070
C471	C47	0.490000	0.177800	0.808580
C481	C48	0.316800	0.015200	0.185760
C491	C49	0.934000	0.524900	0.743610
C501	C50	0.941600	0.442700	0.615970
C511	C51	0.589100	0.084400	0.810210
C521	C52	0.373100	0.867900	0.708410
C531	C53	0.989900	0.583200	0.687040
C541	C54	0.489900	0.083200	0.812960
C551	C55	0.089100	0.584400	0.689790
C561	C56	0.434000	0.024900	0.756390
N11	N1	0.191600	0.637000	0.527430
N21	N2	0.580800	0.162300	0.021010
N31	N3	0.861200	0.315700	0.470550
N41	N4	0.795900	0.374300	0.815010
N51	N5	0.826600	0.011100	0.833910
N61	N6	0.756800	0.039600	0.847430
N71	N7	0.670900	0.082500	0.024150
N81	N8	0.112000	0.702900	0.181720
N91	N9	0.736200	0.193300	0.357460
N101	N10	0.638800	0.184300	0.970550
N111	N11	0.318200	0.760300	0.640490
N121	N12	0.296800	0.077600	0.218470
N131	N13	0.550500	0.712000	0.214370
N141	N14	0.263800	0.806700	0.642540
N151	N15	0.888000	0.297100	0.818280
N161	N16	0.071400	0.301600	0.273510
N171	N17	0.138800	0.684300	0.529450
N181	N18	0.449500	0.288000	0.785630
N191	N19	0.293200	0.441300	0.705180
N201	N20	0.181800	0.739700	0.140490
N211	N21	0.681800	0.239700	0.359510
N221	N22	0.206800	0.058700	0.205180
N231	N23	0.763800	0.306700	0.857460
N241	N24	0.928600	0.698400	0.726490
N251	N25	0.612000	0.202900	0.318280
N261	N26	0.361200	0.815700	0.029450
N271	N27	0.050500	0.212000	0.285630
N281	N28	0.256800	0.539600	0.652570
N291	N29	0.982700	0.179700	0.326120
N301	N30	0.829100	0.417500	0.524150
N311	N31	0.243200	0.960400	0.152570
N321	N32	0.204100	0.625700	0.184990
N331	N33	0.295900	0.874300	0.684990
N341	N34	0.673400	0.488900	0.333910
N351	N35	0.517300	0.320300	0.826120
N361	N36	0.236200	0.693300	0.142540
N371	N37	0.044500	0.751200	0.657640
N381	N38	0.691600	0.137000	0.972570
N391	N39	0.017300	0.820300	0.673880
N401	N40	0.818200	0.260300	0.859510
N411	N41	0.793200	0.941300	0.794820
N421	N42	0.706800	0.558700	0.294820
N431	N43	0.388000	0.797100	0.681720
N441	N44	0.173400	0.988900	0.166090
N451	N45	0.704100	0.125700	0.315010
N461	N46	0.419200	0.837700	0.978990
N471	N47	0.949500	0.788000	0.714370
N481	N48	0.955500	0.248800	0.342360
N491	N49	0.329100	0.917500	0.975850
N501	N50	0.703200	0.922400	0.781530
N511	N51	0.571400	0.801600	0.226490
N521	N52	0.919200	0.337700	0.521010
N531	N53	0.482700	0.679700	0.173880
N541	N54	0.308400	0.863000	0.027430
N551	N55	0.455500	0.748800	0.157640
N561	N56	0.743200	0.460400	0.347430
N571	N57	0.428600	0.198400	0.773510
N581	N58	0.796800	0.577600	0.281530
N591	N59	0.544500	0.251200	0.842360
N601	N60	0.326600	0.511100	0.666090
N611	N61	0.203200	0.422400	0.718470
N621	N62	0.808400	0.363000	0.472570
N631	N63	0.080800	0.662300	0.478990
N641	N64	0.170900	0.582500	0.475850
Cl11	Cl1	0.411030	0.648910	0.525060
Cl21	Cl2	0.339950	0.597440	0.027170
Cl31	Cl3	0.911030	0.148910	0.974940
Cl41	Cl4	0.839950	0.097440	0.472830
Cl51	Cl5	0.588970	0.351090	0.474940
Cl61	Cl6	0.088970	0.851090	0.025060
Cl71	Cl7	0.160050	0.902560	0.527170
Cl81	Cl8	0.660050	0.402560	0.972830
