data_GOSBOH_clean_PM
_symmetry_space_group_name_H-M	'P1'
_cell_length_a	14.174000
_cell_length_b	15.455600
_cell_length_c	15.455600
_cell_angle_alpha	68.910400
_cell_angle_beta	72.200100
_cell_angle_gamma	107.800000
_symmetry_Int_Tables_number 1

loop_
_symmetry_equiv_pos_as_xyz
'x,y,z'

loop_
_atom_site_label
_atom_site_type_symbol
_atom_site_fract_x
_atom_site_fract_y
_atom_site_fract_z
Cu11	Cu1	0.000000	0.000000	0.500000
Cu21	Cu2	0.500000	0.500000	0.500000
Cu31	Cu3	0.000000	0.500000	0.000000
H11	H1	0.922400	0.584800	0.594700
H21	H2	0.484900	0.475100	0.868900
H31	H3	0.557100	0.503800	0.272900
H41	H4	0.077600	0.415200	0.405300
H51	H5	0.222000	0.124600	0.300300
H61	H6	0.990200	0.344000	0.524900
H71	H7	0.646200	0.131100	0.344000
H81	H8	0.895900	0.667600	0.909600
H91	H9	0.442900	0.496200	0.727100
H101	H10	0.522800	0.882900	0.620200
H111	H11	0.477200	0.117100	0.379800
H121	H12	0.097400	0.575100	0.124600
H131	H13	0.337600	0.820500	0.584800
H141	H14	0.194500	0.090400	0.577200
H151	H15	0.830000	0.272900	0.223300
H161	H16	0.575700	0.802100	0.493500
H171	H17	0.485100	0.278300	0.385900
H181	H18	0.522300	0.300300	0.575100
H191	H19	0.639900	0.496900	0.882900
H201	H20	0.206800	0.335800	0.278300
H211	H21	0.266800	0.379800	0.507700
H221	H22	0.053300	0.223300	0.503800
H231	H23	0.773600	0.704400	0.802100
H241	H24	0.514900	0.721700	0.614100
H251	H25	0.793200	0.664200	0.721700
H261	H26	0.930800	0.506500	0.295600
H271	H27	0.037200	0.512800	0.574000
H281	H28	0.170000	0.727100	0.776700
H291	H29	0.517100	0.594700	0.820500
H301	H30	0.143000	0.620200	0.496900
H311	H31	0.424300	0.197900	0.506500
H321	H32	0.774500	0.507700	0.112500
H331	H33	0.946700	0.776700	0.496200
H341	H34	0.524400	0.913200	0.512800
H351	H35	0.902600	0.424900	0.875400
H361	H36	0.225500	0.492300	0.887500
H371	H37	0.662400	0.179500	0.415200
H381	H38	0.104100	0.332400	0.090400
H391	H39	0.113000	0.887500	0.620200
H401	H40	0.805500	0.909600	0.422800
H411	H41	0.388800	0.426000	0.086800
H421	H42	0.515100	0.524900	0.131100
H431	H43	0.069200	0.493500	0.704400
H441	H44	0.228300	0.422800	0.667600
H451	H45	0.360100	0.503100	0.117100
H461	H46	0.871000	0.385900	0.335800
H471	H47	0.857000	0.379800	0.503100
H481	H48	0.778000	0.875400	0.699700
H491	H49	0.129000	0.614100	0.664200
H501	H50	0.482900	0.405300	0.179500
H511	H51	0.887000	0.112500	0.379800
H521	H52	0.962800	0.487200	0.426000
H531	H53	0.475600	0.086800	0.487200
H541	H54	0.611200	0.574000	0.913200
H551	H55	0.477700	0.699700	0.424900
H561	H56	0.009800	0.656000	0.475100
H571	H57	0.226400	0.295600	0.197900
H581	H58	0.771700	0.577200	0.332400
H591	H59	0.353800	0.868900	0.656000
H601	H60	0.733200	0.620200	0.492300
C11	C1	0.924000	0.156000	0.400200
C21	C2	0.270000	0.495000	0.615000
C31	C3	0.768000	0.443800	0.156000
C41	C4	0.923000	0.418000	0.436000
C51	C5	0.889000	0.480000	0.872000
C61	C6	0.006100	0.210100	0.474400
C71	C7	0.225000	0.110000	0.505000
C81	C8	0.634000	0.180000	0.365000
C91	C9	0.409000	0.648000	0.480000
C101	C10	0.993900	0.789900	0.525600
C111	C11	0.505000	0.146000	0.418000
C121	C12	0.123000	0.563000	0.641000
C131	C13	0.115000	0.385000	0.110000
C141	C14	0.111000	0.520000	0.128000
C151	C15	0.001000	0.635000	0.545000
C161	C16	0.641000	0.564000	0.854000
C171	C17	0.440000	0.204000	0.437000
C181	C18	0.519500	0.525600	0.684500
C191	C19	0.359000	0.436000	0.146000
C201	C20	0.796000	0.315500	0.210100
C211	C21	0.560000	0.796000	0.563000
C221	C22	0.077000	0.582000	0.564000
C231	C23	0.239000	0.128000	0.352000
C241	C24	0.366000	0.820000	0.635000
C251	C25	0.454000	0.455000	0.180000
C261	C26	0.885000	0.615000	0.890000
C271	C27	0.204000	0.684500	0.789900
C281	C28	0.324200	0.400200	0.443800
C291	C29	0.764000	0.641000	0.796000
C301	C30	0.236000	0.359000	0.204000
C311	C31	0.730000	0.505000	0.385000
C321	C32	0.761000	0.872000	0.648000
C331	C33	0.877000	0.437000	0.359000
C341	C34	0.232000	0.556200	0.844000
C351	C35	0.495000	0.854000	0.582000
C361	C36	0.999000	0.365000	0.455000
C371	C37	0.775000	0.890000	0.495000
C381	C38	0.675800	0.599800	0.556200
C391	C39	0.076000	0.844000	0.599800
C401	C40	0.591000	0.352000	0.520000
C411	C41	0.480500	0.474400	0.315500
C421	C42	0.546000	0.545000	0.820000
N11	N1	0.831000	0.516000	0.824000
N21	N2	0.169000	0.484000	0.176000
N31	N3	0.560300	0.534300	0.593000
N41	N4	0.685000	0.340000	0.484000
N51	N5	0.846700	0.407000	0.127300
N61	N6	0.590500	0.559400	0.711100
N71	N7	0.771000	0.434000	0.401000
N81	N8	0.031100	0.729500	0.559400
N91	N9	0.974000	0.127300	0.465700
N101	N10	0.409500	0.440600	0.288900
N111	N11	0.683000	0.375000	0.254000
N121	N12	0.172000	0.401000	0.165000
N131	N13	0.836100	0.913800	0.544000
N141	N14	0.163900	0.086200	0.456000
N151	N15	0.619900	0.456000	0.457800
N161	N16	0.026000	0.872700	0.534300
N171	N17	0.692000	0.629000	0.625000
N181	N18	0.968900	0.270500	0.440600
N191	N19	0.380100	0.544000	0.542200
N201	N20	0.655000	0.824000	0.660000
N211	N21	0.663000	0.835000	0.566000
N221	N22	0.315000	0.660000	0.516000
N231	N23	0.698400	0.288900	0.270500
N241	N24	0.077700	0.457800	0.086200
N251	N25	0.937000	0.254000	0.371000
N261	N26	0.308000	0.371000	0.375000
N271	N27	0.301600	0.711100	0.729500
N281	N28	0.922300	0.542200	0.913800
N291	N29	0.345000	0.176000	0.340000
N301	N30	0.063000	0.746000	0.629000
N311	N31	0.229000	0.566000	0.599000
N321	N32	0.337000	0.165000	0.434000
N331	N33	0.828000	0.599000	0.835000
N341	N34	0.439700	0.465700	0.407000
N351	N35	0.317000	0.625000	0.746000
N361	N36	0.153300	0.593000	0.872700
