data_GOSKEG_clean_PM
_symmetry_space_group_name_H-M	'P1'
_cell_length_a	10.117000
_cell_length_b	29.539000
_cell_length_c	29.556000
_cell_angle_alpha	91.446000
_cell_angle_beta	93.321000
_cell_angle_gamma	91.615000
_symmetry_Int_Tables_number 1

loop_
_symmetry_equiv_pos_as_xyz
'x,y,z'

loop_
_atom_site_label
_atom_site_type_symbol
_atom_site_fract_x
_atom_site_fract_y
_atom_site_fract_z
Zn11	Zn1	0.899400	0.232060	0.775740
Zn21	Zn2	0.258680	0.406000	0.593590
Zn31	Zn3	0.267180	0.038570	0.596770
Zn41	Zn4	0.604710	0.227660	0.766480
Zn51	Zn5	0.236000	0.404680	0.962250
Zn61	Zn6	0.247670	0.051750	0.948880
H11	H1	0.122700	0.789200	0.758100
H21	H2	0.377000	0.026600	0.042200
H31	H3	0.249100	0.573500	0.594600
H41	H4	0.542000	0.130400	0.871700
H51	H5	0.089600	0.138400	0.075800
H61	H6	0.133400	0.958400	0.974200
H71	H7	0.360700	0.498100	0.984900
H81	H8	0.040500	0.146600	0.140900
H91	H9	0.154000	0.075000	0.367500
H101	H10	0.131100	0.290100	0.477600
H111	H11	0.354600	0.217600	0.358000
H121	H12	0.347400	0.633400	0.926300
H131	H13	0.430900	0.952200	0.591600
H141	H14	0.568500	0.329100	0.669200
H151	H15	0.453000	0.859800	0.850400
H161	H16	0.159500	0.015200	0.500600
H171	H17	0.745900	0.046500	0.953300
H181	H18	0.381000	0.130000	0.251100
H191	H19	0.042400	0.186900	0.208800
H201	H20	0.439600	0.823100	0.657800
H211	H21	0.103500	0.523100	0.858100
H221	H22	0.352100	0.150100	0.483300
H231	H23	0.124700	0.751000	0.868700
H241	H24	0.433100	0.882300	0.623700
H251	H25	0.773700	0.034600	0.590400
H261	H26	0.459900	0.791500	0.812100
H271	H27	0.389400	0.278600	0.145400
H281	H28	0.371300	0.181000	0.424900
H291	H29	0.294400	0.399200	0.428200
H301	H30	0.401900	0.316300	0.090300
H311	H31	0.941400	0.127300	0.871000
H321	H32	0.293800	0.123800	0.553500
H331	H33	0.093700	0.908100	0.677500
H341	H34	0.341100	0.355800	0.369700
H351	H35	0.378000	0.238600	0.211900
H361	H36	0.391800	0.520700	0.708900
H371	H37	0.365600	0.700900	0.887200
H381	H38	0.166400	0.697000	0.684700
H391	H39	0.915900	0.329700	0.880500
H401	H40	0.358100	0.048300	0.117900
H411	H41	0.586000	0.120000	0.670500
H421	H42	0.357400	0.450500	0.675000
H431	H43	0.403500	0.352800	0.022900
H441	H44	0.031100	0.282800	0.408000
H451	H45	0.140000	0.112800	0.300000
H461	H46	0.155000	0.883500	0.951600
H471	H47	0.378900	0.089100	0.182400
H481	H48	0.060500	0.344300	0.175500
H491	H49	0.212500	0.499700	0.565000
H501	H50	0.314500	0.430900	0.501200
H511	H51	0.126100	0.819900	0.909400
H521	H52	0.148300	0.644600	0.781900
H531	H53	0.472400	0.657800	0.764600
H541	H54	0.181000	0.044300	0.428900
H551	H55	0.986000	0.123800	0.672200
H561	H56	0.051100	0.303200	0.241000
H571	H57	0.110600	0.113000	0.002800
H581	H58	0.074400	0.380600	0.117200
H591	H59	0.117500	0.856300	0.720600
H601	H60	0.396700	0.925400	0.857600
H611	H61	0.964500	0.333400	0.674000
H621	H62	0.451300	0.756900	0.699200
H631	H63	0.131600	0.577600	0.819100
H641	H64	0.344800	0.312700	0.303700
H651	H65	0.479000	0.590700	0.723000
H661	H66	0.079500	0.413400	0.047700
H671	H67	0.142300	0.327600	0.548300
H681	H68	0.517400	0.328600	0.877800
H691	H69	0.028500	0.240000	0.339300
H701	H70	0.118500	0.451300	0.890200
H711	H71	0.732000	0.410100	0.967300
H721	H72	0.090600	0.976400	0.640400
H731	H73	0.361100	0.568400	0.953700
H741	H74	0.762600	0.413100	0.588200
H751	H75	0.380000	0.998000	0.883500
H761	H76	0.167500	0.629600	0.643400
C11	C1	0.113200	0.144100	0.162400
C21	C2	0.483700	0.388770	0.944780
C31	C3	0.185200	0.835600	0.714900
C41	C4	0.190500	0.796200	0.738300
C51	C5	0.278700	0.331400	0.364400
C61	C6	0.020400	0.056790	0.611640
C71	C7	0.191300	0.773470	0.864010
C81	C8	0.777200	0.058300	0.612800
C91	C9	0.224700	0.316000	0.153650
C101	C10	0.297600	0.723870	0.759700
C111	C11	0.785900	0.128060	0.677240
C121	C12	0.232700	0.342600	0.111720
C131	C13	0.163000	0.099800	0.026480
C141	C14	0.096300	0.289000	0.387000
C151	C15	0.902500	0.111280	0.661190
C161	C16	0.255200	0.383200	0.451700
C171	C17	0.972800	0.391910	0.946300
C181	C18	0.275400	0.846010	0.683200
C191	C19	0.314200	0.557100	0.656300
C201	C20	0.863200	0.083040	0.914220
C211	C21	0.215200	0.061800	0.454600
C221	C22	0.224400	0.097040	0.106770
C231	C23	0.307000	0.502500	0.958000
C241	C24	0.319900	0.675520	0.872700
C251	C25	0.258300	0.124120	0.404160
C261	C26	0.189000	0.951480	0.950300
C271	C27	0.119900	0.297500	0.221300
C281	C28	0.311100	0.259500	0.204300
C291	C29	0.333200	0.476300	0.658200
C301	C30	0.605200	0.371690	0.925540
C311	C31	0.208900	0.264700	0.232730
C321	C32	0.239900	0.597430	0.876100
C331	C33	0.142800	0.373000	0.097900
C341	C34	0.308400	0.544700	0.938900
C351	C35	0.275700	0.895310	0.901830
C361	C36	0.332900	0.358200	0.042000
C371	C37	0.412600	0.611700	0.715300
C381	C38	0.517800	0.391260	0.606370
C391	C39	0.744400	0.068880	0.930770
C401	C40	0.168200	0.475900	0.904600
C411	C41	0.283600	0.722050	0.804700
C421	C42	0.767200	0.290760	0.712110
C431	C43	0.882000	0.376290	0.628380
C441	C44	0.281100	0.305600	0.325000
C451	C45	0.236100	0.171300	0.321550
C461	C46	0.183800	0.127500	0.325850
C471	C47	0.147700	0.393400	0.056300
C481	C48	0.269400	0.402300	0.497300
C491	C49	0.623500	0.118370	0.882720
C501	C50	0.645500	0.374720	0.625490
C511	C51	0.741800	0.133220	0.865620
C521	C52	0.265200	0.101700	0.447900
C531	C53	0.387800	0.797400	0.830400
C541	C54	0.096000	0.262600	0.345900
C551	C55	0.187300	0.322500	0.396400
C561	C56	0.716300	0.323980	0.872890
C571	C57	0.763400	0.391010	0.610980
C581	C58	0.836400	0.340630	0.891790
C591	C59	0.150000	0.115100	0.070100
C601	C60	0.208500	0.042800	0.498000
C611	C61	0.500000	0.069120	0.935810
C621	C62	0.306600	0.121600	0.484800
C631	C63	0.860700	0.116130	0.881990
C641	C64	0.192700	0.345700	0.441300
C651	C65	0.267200	0.679370	0.829200
C661	C66	0.229800	0.634800	0.668400
C671	C67	0.666100	0.108780	0.659990
C681	C68	0.843700	0.372710	0.926640
C691	C69	0.882300	0.343650	0.661570
C701	C70	0.727700	0.388020	0.943310
C711	C71	0.312100	0.110420	0.187000
C721	C72	0.740700	0.169350	0.829850
C731	C73	0.286100	0.764630	0.833400
C741	C74	0.528300	0.053790	0.610230
C751	C75	0.288600	0.103800	0.527700
C761	C76	0.215900	0.116800	0.152620
C771	C77	0.332600	0.336200	0.082400
C781	C78	0.768200	0.326300	0.676560
C791	C79	0.660000	0.074620	0.628760
C801	C80	0.228000	0.674700	0.693500
C811	C81	0.352400	0.518200	0.679000
C821	C82	0.162600	0.519400	0.883800
C831	C83	0.989900	0.063580	0.931400
C841	C84	0.312100	0.683330	0.730800
C851	C85	0.269400	0.548700	0.613400
C861	C86	0.114300	0.167900	0.203200
C871	C87	0.712800	0.290120	0.833260
C881	C88	0.363200	0.902100	0.629300
C891	C89	0.173800	0.342900	0.523000
C901	C90	0.600900	0.339900	0.890360
C911	C91	0.322500	0.601700	0.679300
C921	C92	0.181100	0.602380	0.833300
C931	C93	0.293000	0.766320	0.733700
C941	C94	0.649000	0.341290	0.658910
C951	C95	0.321200	0.167290	0.399790
C961	C96	0.310200	0.189030	0.360030
C971	C97	0.264900	0.888880	0.657000
C981	C98	0.192700	0.642200	0.810900
C991	C99	0.125700	0.322500	0.182200
C1001	C100	0.307000	0.063000	0.094930
C1011	C101	0.381000	0.776900	0.703800
C1021	C102	0.165700	0.958100	0.638200
C1031	C103	0.204800	0.239700	0.275870
C1041	C104	0.160700	0.320900	0.480500
C1051	C105	0.218200	0.195000	0.277820
C1061	C106	0.008800	0.394630	0.611030
C1071	C107	0.191500	0.814820	0.888200
C1081	C108	0.895600	0.076100	0.628990
C1091	C109	0.790500	0.167190	0.711340
C1101	C110	0.192400	0.269700	0.316060
C1111	C111	0.342500	0.931470	0.882100
C1121	C112	0.313000	0.134660	0.228320
C1131	C113	0.408200	0.651700	0.740300
C1141	C114	0.319400	0.283800	0.164800
C1151	C115	0.236600	0.553820	0.899400
C1161	C116	0.166200	0.916400	0.660100
C1171	C117	0.251000	0.503700	0.594900
C1181	C118	0.216700	0.165100	0.236310
C1191	C119	0.360500	0.943600	0.609800
C1201	C120	0.285700	0.848240	0.881500
C1211	C121	0.624600	0.085500	0.916280
C1221	C122	0.308500	0.635150	0.896400
C1231	C123	0.316800	0.049500	0.049310
C1241	C124	0.384000	0.837900	0.853700
C1251	C125	0.331600	0.974530	0.897120
C1261	C126	0.373700	0.816700	0.678500
C1271	C127	0.193100	0.104600	0.366090
C1281	C128	0.200700	0.906640	0.936450
N11	N1	0.244900	0.067650	0.015680
N21	N2	0.265100	0.061020	0.533460
N31	N3	0.253700	0.985100	0.930990
N41	N4	0.235100	0.468670	0.940630
N51	N5	0.230400	0.385800	0.529770
N61	N6	0.262700	0.972640	0.615200
N71	N7	0.241300	0.386510	0.027980
N81	N8	0.282900	0.469730	0.616210
O11	O1	0.076700	0.375310	0.931400
O21	O2	0.680000	0.180680	0.721860
O31	O3	0.372200	0.370480	0.930440
O41	O4	0.425500	0.068080	0.627370
O51	O5	0.986900	0.030450	0.957340
O61	O6	0.851300	0.183670	0.818640
O71	O7	0.877600	0.278730	0.728000
O81	O8	0.629200	0.181900	0.814750
O91	O9	0.009100	0.027850	0.579320
O101	O10	0.114900	0.376360	0.625250
O111	O11	0.130700	0.070830	0.630150
O121	O12	0.602300	0.276700	0.816500
O131	O13	0.654800	0.276640	0.722790
O141	O14	0.005100	0.425560	0.583620
O151	O15	0.391300	0.083520	0.918310
O161	O16	0.977300	0.422300	0.976180
O171	O17	0.513500	0.418960	0.575980
O181	O18	0.900300	0.182290	0.726490
O191	O19	0.491900	0.419860	0.974590
O201	O20	0.506600	0.042760	0.968120
O211	O21	0.823400	0.278060	0.821310
O221	O22	0.412500	0.374630	0.621710
O231	O23	0.095800	0.082160	0.918100
O241	O24	0.526000	0.023980	0.579280
Zn71	Zn7	0.100600	0.767940	0.224250
Zn81	Zn8	0.741320	0.594000	0.406410
Zn91	Zn9	0.732820	0.961430	0.403230
Zn101	Zn10	0.752330	0.948250	0.051120
Zn111	Zn11	0.764000	0.595320	0.037750
Zn121	Zn12	0.395290	0.772340	0.233520
H771	H77	0.705600	0.600800	0.571800
H781	H78	0.685500	0.569100	0.498800
H791	H79	0.875300	0.249000	0.131300
H801	H80	0.882500	0.143700	0.279400
H811	H81	0.638900	0.431600	0.046300
H821	H82	0.268000	0.589900	0.032700
H831	H83	0.622000	0.761400	0.788100
H841	H84	0.645400	0.782400	0.642000
H851	H85	0.621100	0.910900	0.817600
H861	H86	0.596500	0.647200	0.977100
H871	H87	0.658900	0.644200	0.630300
H881	H88	0.896500	0.476900	0.141900
H891	H89	0.620000	0.002000	0.116500
H901	H90	0.920500	0.586600	0.952300
H911	H91	0.877300	0.210800	0.241900
H921	H92	0.845000	0.116500	0.048400
H931	H93	0.860000	0.887200	0.700000
H941	H94	0.706200	0.876200	0.446500
H951	H95	0.414000	0.880000	0.329500
H961	H96	0.910400	0.861600	0.924200
H971	H97	0.598100	0.683700	0.909700
H981	H98	0.619000	0.870000	0.748900
H991	H99	0.084100	0.670300	0.119500
H1001	H100	0.939500	0.655700	0.824500
H1011	H101	0.237400	0.586900	0.411800
H1021	H102	0.925600	0.619400	0.882800
H1031	H103	0.458000	0.869600	0.128300
H1041	H104	0.881500	0.548700	0.109800
H1051	H105	0.840500	0.984800	0.499400
H1061	H106	0.623000	0.973400	0.957800
H1071	H107	0.634400	0.299100	0.112800
H1081	H108	0.971500	0.760000	0.660700
H1091	H109	0.866600	0.041600	0.025800
H1101	H110	0.647900	0.849900	0.516700
H1111	H111	0.851700	0.355400	0.218100
H1121	H112	0.547000	0.140200	0.149600
H1131	H113	0.846000	0.925000	0.632500
H1141	H114	0.868900	0.709900	0.522400
H1151	H115	0.566900	0.117700	0.376300
H1161	H116	0.889400	0.887000	0.997200
H1171	H117	0.652600	0.366600	0.073700
H1181	H118	0.787500	0.500300	0.435000
H1191	H119	0.639300	0.501900	0.015100
H1201	H120	0.254100	0.953500	0.046700
H1211	H121	0.968900	0.717200	0.592000
H1221	H122	0.959500	0.853400	0.859100
H1231	H123	0.750900	0.426500	0.405400
H1241	H124	0.655200	0.687300	0.696300
H1251	H125	0.058600	0.872700	0.129000
H1261	H126	0.608200	0.479300	0.291100
H1271	H127	0.833600	0.303000	0.315300
H1281	H128	0.431500	0.670900	0.330800
H1291	H129	0.610600	0.721400	0.854600
H1301	H130	0.642600	0.549500	0.325000
H1311	H131	0.906300	0.091900	0.322500
H1321	H132	0.560400	0.176900	0.342200
H1331	H133	0.832500	0.370400	0.356600
H1341	H134	0.909400	0.023600	0.359600
H1351	H135	0.527600	0.342200	0.235400
H1361	H136	0.482600	0.671400	0.122200
H1371	H137	0.603300	0.074600	0.142400
H1381	H138	0.035500	0.666600	0.326000
H1391	H139	0.014000	0.876200	0.327800
H1401	H140	0.873900	0.180100	0.090600
H1411	H141	0.868400	0.422400	0.180900
H1421	H142	0.628700	0.819000	0.575100
H1431	H143	0.819000	0.955700	0.571100
H1441	H144	0.641900	0.951700	0.882100
H1451	H145	0.857700	0.672400	0.451700
H1461	H146	0.226300	0.965400	0.409600
H1471	H147	0.948900	0.696800	0.759000
H1481	H148	0.521000	0.409300	0.277000
H1491	H149	0.540100	0.208500	0.187900
H1501	H150	0.957600	0.813100	0.791200
H1511	H151	0.569100	0.047800	0.408400
H1521	H152	0.548700	0.243100	0.300800
C1291	C129	0.471700	0.946210	0.389770
C1301	C130	0.117700	0.656350	0.338430
C1311	C131	0.809500	0.203800	0.261700
C1321	C132	0.104400	0.923900	0.371010
C1331	C133	0.837400	0.480600	0.116200
C1341	C134	0.874300	0.677500	0.817800
C1351	C135	0.691500	0.364850	0.103600
C1361	C136	0.010100	0.936420	0.068600
C1371	C137	0.666800	0.523700	0.341800
C1381	C138	0.394800	0.628310	0.074460
C1391	C139	0.834300	0.041900	0.361800
C1401	C140	0.734800	0.898300	0.552100
C1411	C141	0.711400	0.896200	0.472300
C1421	C142	0.118000	0.623710	0.371620
C1431	C143	0.376500	0.881630	0.117280
C1441	C144	0.730600	0.597700	0.502700
C1451	C145	0.591800	0.348300	0.259700
C1461	C146	0.833800	0.083600	0.339900
C1471	C147	0.375400	0.914500	0.083720
C1481	C148	0.163600	0.659370	0.108210
C1491	C149	0.795200	0.760300	0.724130
C1501	C150	0.716400	0.277950	0.195300
C1511	C151	0.904000	0.737400	0.654100
C1521	C152	0.799300	0.093360	0.063550
C1531	C153	0.677500	0.398300	0.320700
C1541	C154	0.232800	0.709240	0.287890
C1551	C155	0.272300	0.611980	0.056690
C1561	C156	0.775600	0.902960	0.893230
C1571	C157	0.772000	0.325300	0.306500
C1581	C158	0.885700	0.832100	0.796800
C1591	C159	0.222800	0.941700	0.387200
C1601	C160	0.784800	0.938200	0.545400
C1611	C161	0.287200	0.709880	0.166740
C1621	C162	0.693000	0.497500	0.042000
C1631	C163	0.340000	0.925380	0.371240
C1641	C164	0.283700	0.676020	0.127110
C1651	C165	0.886800	0.855900	0.837600
C1661	C166	0.724300	0.104690	0.098170
C1671	C167	0.636800	0.097900	0.370700
C1681	C168	0.718900	0.694400	0.675000
C1691	C169	0.991200	0.605370	0.388970
C1701	C170	0.806900	0.895400	0.633910
C1711	C171	0.763400	0.446180	0.100600
C1721	C172	0.693400	0.878400	0.515200
C1731	C173	0.791100	0.735300	0.767270
C1741	C174	0.667100	0.641800	0.958000
C1751	C175	0.812700	0.677500	0.603600
C1761	C176	0.685800	0.442900	0.343700
C1771	C177	0.680100	0.324480	0.127300
C1781	C178	0.587400	0.388300	0.284700
C1791	C179	0.760100	0.402570	0.123900
C1801	C180	0.691600	0.455300	0.061100
C1811	C181	0.668400	0.025470	0.102880
C1821	C182	0.816200	0.872500	0.674150
C1831	C183	0.231800	0.673700	0.323440
C1841	C184	0.687900	0.889580	0.813000
C1851	C185	0.619000	0.223100	0.296200
C1861	C186	0.741700	0.875880	0.595840
C1871	C187	0.689800	0.810970	0.639970
C1881	C188	0.667400	0.663800	0.917600
C1891	C189	0.784100	0.883200	0.847380
C1901	C190	0.707000	0.233680	0.266300
C1911	C191	0.721300	0.668600	0.635600
C1921	C192	0.850000	0.884900	0.929900
C1931	C193	0.749000	0.496300	0.405100
C1941	C194	0.516300	0.611230	0.055220
C1951	C195	0.808500	0.185180	0.111800
C1961	C196	0.680600	0.716200	0.835200
C1971	C197	0.857200	0.627000	0.902100
C1981	C198	0.763900	0.828700	0.678450
C1991	C199	0.735100	0.111120	0.343000
C2001	C200	0.657500	0.068530	0.117900
C2011	C201	0.139300	0.883870	0.118010
C2021	C202	0.687000	0.865340	0.771680
C2031	C203	0.616000	0.162100	0.146300
C2041	C204	0.209500	0.832810	0.288660
C2051	C205	0.612200	0.202600	0.169600
C2061	C206	0.259300	0.830650	0.170150
C2071	C207	0.713900	0.235370	0.166600
C2081	C208	0.807600	0.730300	0.683940
C2091	C209	0.500000	0.930880	0.064190
C2101	C210	0.767300	0.657400	0.888280
C2111	C211	0.903700	0.711000	0.613000
C2121	C212	0.258200	0.866780	0.134380
C2131	C213	0.826200	0.657100	0.477000
C2141	C214	0.097500	0.888720	0.338810
C2151	C215	0.354500	0.625280	0.374510
C2161	C216	0.818900	0.397620	0.166700
C2171	C217	0.730600	0.451300	0.386600
C2181	C218	0.683200	0.950500	0.950690
C2191	C219	0.837000	0.900200	0.973520
C2201	C220	0.687900	0.316670	0.269200
C2211	C221	0.732800	0.320630	0.170800
C2221	C222	0.775300	0.684000	0.846350
C2231	C223	0.814800	0.164400	0.285100
C2241	C224	0.688900	0.740500	0.795700
C2251	C225	0.770200	0.365200	0.331600
C2261	C226	0.351000	0.658710	0.341090
C2271	C227	0.807300	0.654300	0.558700
C2281	C228	0.783300	0.834900	0.763690
C2291	C229	0.744800	0.616800	0.548300
C2301	C230	0.027200	0.608090	0.053700
C2311	C231	0.255600	0.931120	0.069230
C2321	C232	0.702400	0.276130	0.240300
C2331	C233	0.333900	0.891220	0.340010
C2341	C234	0.880100	0.702500	0.778700
C2351	C235	0.808700	0.226530	0.135990
C2361	C236	0.639500	0.056400	0.390200
C2371	C237	0.807300	0.357800	0.189100
C2381	C238	0.647600	0.481800	0.321000
C2391	C239	0.831800	0.524100	0.095400
C2401	C240	0.626300	0.183300	0.321500
C2411	C241	0.811000	0.048520	0.049700
C2421	C242	0.839300	0.679100	0.519500
C2431	C243	0.156300	0.627290	0.073360
C2441	C244	0.979600	0.943210	0.388360
C2451	C245	0.781800	0.805000	0.722180
C2461	C246	0.852300	0.606600	0.943700
C2471	C247	0.791500	0.957200	0.502000
C2481	C248	0.136800	0.916960	0.085780
C2491	C249	0.693000	0.937000	0.905070
C2501	C250	0.714300	0.151760	0.118500
C2511	C251	0.724600	0.153990	0.316800
C2521	C252	0.236600	0.608990	0.389020
C2531	C253	0.482200	0.608740	0.393630
C2541	C254	0.678800	0.832710	0.600210
C2551	C255	0.399100	0.660100	0.109640
C2561	C256	0.214100	0.871940	0.322760
N91	N9	0.734900	0.938980	0.466540
N101	N10	0.755100	0.932350	0.984320
N111	N11	0.717100	0.530270	0.383790
N121	N12	0.769600	0.614200	0.470230
N131	N13	0.737300	0.027360	0.384800
N141	N14	0.758700	0.613490	0.972020
N151	N15	0.764900	0.531330	0.059370
N161	N16	0.746300	0.014900	0.069010
O251	O25	0.923300	0.624690	0.068600
O261	O26	0.099700	0.817710	0.273510
O271	O27	0.587500	0.625370	0.378290
O281	O28	0.627800	0.629520	0.069560
O291	O29	0.176600	0.721940	0.178690
O301	O30	0.904200	0.917840	0.081900
O311	O31	0.869300	0.929170	0.369850
O321	O32	0.345200	0.723360	0.277210
O331	O33	0.574500	0.931920	0.372630
O341	O34	0.474000	0.976020	0.420720
O351	O35	0.370800	0.818100	0.185250
O361	O36	0.122400	0.721270	0.272000
O371	O37	0.013100	0.969550	0.042660
O381	O38	0.608700	0.916480	0.081690
O391	O39	0.148700	0.816330	0.181360
O401	O40	0.493400	0.957240	0.031880
O411	O41	0.486500	0.581040	0.424020
O421	O42	0.320000	0.819320	0.278140
O431	O43	0.397700	0.723300	0.183500
O441	O44	0.994900	0.574440	0.416380
O451	O45	0.508100	0.580140	0.025410
O461	O46	0.990900	0.972150	0.420680
O471	O47	0.022700	0.577700	0.023820
O481	O48	0.885100	0.623640	0.374750
