data_GOTNEK_clean_PM
_symmetry_space_group_name_H-M	'P1'
_cell_length_a	19.123700
_cell_length_b	14.460300
_cell_length_c	30.624700
_cell_angle_alpha	90.000000
_cell_angle_beta	90.000000
_cell_angle_gamma	90.000000
_symmetry_Int_Tables_number 1

loop_
_symmetry_equiv_pos_as_xyz
'x,y,z'

loop_
_atom_site_label
_atom_site_type_symbol
_atom_site_fract_x
_atom_site_fract_y
_atom_site_fract_z
Dy11	Dy1	0.358920	0.537130	0.536610
Dy21	Dy2	0.313810	0.474680	0.412360
O11	O1	0.337000	0.631390	0.420850
O21	O2	0.379560	0.660300	0.487540
O31	O3	0.409750	0.831600	0.508000
H11	H1	0.400800	0.777100	0.512600
O41	O4	0.762600	0.970600	0.489480
O51	O5	0.696960	0.980200	0.431300
O61	O6	0.563140	0.993400	0.437560
H21	H2	0.601600	0.988300	0.425900
O71	O7	0.332010	0.381500	0.523310
O81	O8	0.292650	0.346300	0.456660
O91	O9	0.261270	0.175800	0.438960
H31	H3	0.242300	0.226000	0.435300
O101	O10	0.912960	0.019900	0.452960
O111	O11	0.975050	0.998400	0.511700
O121	O12	0.110050	0.005700	0.508710
H41	H4	0.071700	0.012900	0.520100
O131	O13	0.392600	0.430500	0.301770
O141	O14	0.340200	0.532800	0.344550
O151	O15	0.294100	0.685100	0.313250
H51	H5	0.295700	0.641700	0.330400
O161	O16	0.083060	0.946200	0.093730
O171	O17	0.190570	0.990500	0.106180
O181	O18	0.253020	0.936900	0.175510
H61	H6	0.250000	0.956900	0.150500
C11	C1	0.405300	0.849000	0.464190
C21	C2	0.384600	0.780100	0.434120
C31	C3	0.382500	0.801500	0.391370
H71	H7	0.370700	0.755500	0.371500
C41	C4	0.397500	0.890300	0.375730
C51	C5	0.393500	0.910300	0.330200
H81	H8	0.383700	0.863100	0.310500
C61	C6	0.403900	0.997400	0.315550
H91	H9	0.401700	0.010000	0.285800
C71	C7	0.418100	0.069100	0.345600
H101	H10	0.422700	0.129400	0.335400
C81	C8	0.425300	0.052100	0.389060
H111	H11	0.437000	0.100100	0.407900
C91	C9	0.414930	0.960300	0.406030
C101	C10	0.421170	0.938100	0.450990
C111	C11	0.440500	0.009600	0.485470
H121	H12	0.438400	0.070400	0.472100
H131	H13	0.405200	0.007900	0.508200
C121	C12	0.511000	0.998900	0.506690
C131	C13	0.519900	0.006500	0.553310
C141	C14	0.462800	0.017700	0.583270
H141	H14	0.417300	0.019300	0.572700
C151	C15	0.474200	0.025900	0.626100
H151	H15	0.436100	0.034600	0.644600
C161	C16	0.541000	0.022100	0.644400
H161	H16	0.547200	0.028500	0.674400
C171	C17	0.596000	0.009100	0.618110
H171	H17	0.640400	0.004600	0.630300
C181	C18	0.588300	0.001800	0.571800
C191	C19	0.645600	0.990600	0.544960
H181	H18	0.689900	0.987200	0.557400
C201	C20	0.639200	0.984400	0.500220
C211	C21	0.570900	0.992900	0.481500
C221	C22	0.365800	0.683700	0.448980
C231	C23	0.702400	0.976700	0.472780
C241	C24	0.267500	0.158700	0.482550
C251	C25	0.289500	0.230900	0.512720
C261	C26	0.296700	0.211400	0.555620
H191	H19	0.310400	0.258200	0.574600
C271	C27	0.283900	0.121500	0.572550
C281	C28	0.292500	0.103600	0.616590
H201	H20	0.305000	0.151300	0.635400
C291	C29	0.282700	0.017600	0.632300
H211	H21	0.287600	0.006000	0.662100
C301	C30	0.265100	0.944800	0.603400
H221	H22	0.261100	0.884800	0.614100
C311	C31	0.254500	0.960600	0.561700
H231	H23	0.240900	0.911800	0.543900
C321	C32	0.262900	0.050700	0.542710
C331	C33	0.253600	0.070300	0.497520
C341	C34	0.235200	0.997600	0.464060
H241	H24	0.236000	0.937900	0.478500
H251	H25	0.271900	0.997000	0.442200
C351	C35	0.165700	0.006700	0.440550
C361	C36	0.159300	0.003200	0.394250
C371	C37	0.218400	0.000000	0.365200
H261	H26	0.263200	0.006300	0.376600
C381	C38	0.210200	0.987900	0.321200
H271	H27	0.249700	0.982800	0.303700
C391	C39	0.143900	0.983100	0.301800
H281	H28	0.139000	0.975700	0.271800
C401	C40	0.086600	0.989800	0.328400
H291	H29	0.042300	0.988300	0.315900
C411	C41	0.092300	0.998800	0.373950
C421	C42	0.033000	0.004700	0.400010
H301	H30	0.989200	0.005600	0.386700
C431	C43	0.036900	0.009200	0.444660
C441	C44	0.103000	0.007400	0.464620
C451	C45	0.305900	0.327700	0.497270
C461	C46	0.971600	0.009600	0.471240
C471	C47	0.319700	0.657200	0.273170
C481	C48	0.354200	0.570000	0.269450
C491	C49	0.379900	0.544800	0.230140
H311	H31	0.401800	0.487600	0.227600
C501	C50	0.374800	0.601200	0.193050
C511	C51	0.402700	0.575200	0.152070
H321	H32	0.424500	0.518000	0.149100
C521	C52	0.398300	0.632900	0.116620
H331	H33	0.415800	0.614800	0.089600
C531	C53	0.367600	0.718000	0.121810
H341	H34	0.365800	0.757100	0.097700
C541	C54	0.339600	0.748700	0.160200
H351	H35	0.320400	0.807700	0.162200
C551	C55	0.340300	0.688000	0.197590
C561	C56	0.311700	0.716100	0.237550
C571	C57	0.271700	0.806300	0.242980
H361	H36	0.260600	0.813900	0.273700
H371	H37	0.302500	0.856800	0.234800
C581	C58	0.204500	0.815500	0.216920
C591	C59	0.144800	0.759200	0.227080
C601	C60	0.141400	0.700100	0.263750
H381	H38	0.179700	0.695700	0.282300
C611	C61	0.082400	0.648800	0.272560
H391	H39	0.082100	0.608900	0.296400
C621	C62	0.023900	0.655800	0.246600
H401	H40	0.984000	0.621800	0.253200
C631	C63	0.024800	0.712800	0.211300
H411	H41	0.985200	0.717200	0.193800
C641	C64	0.083800	0.764800	0.200620
C651	C65	0.082700	0.826600	0.164590
H421	H42	0.043500	0.829200	0.146700
C661	C66	0.138900	0.882400	0.155940
C671	C67	0.199100	0.878600	0.183460
C681	C68	0.364900	0.504800	0.307470
C691	C69	0.136300	0.943000	0.116680
Dy31	Dy3	0.641080	0.462870	0.036610
Dy41	Dy4	0.686190	0.525320	0.912360
O191	O19	0.663000	0.368610	0.920850
O201	O20	0.620440	0.339700	0.987540
O211	O21	0.590250	0.168400	0.008000
H431	H43	0.599200	0.222900	0.012600
O221	O22	0.237400	0.029400	0.989480
O231	O23	0.303040	0.019800	0.931300
O241	O24	0.436860	0.006600	0.937560
H441	H44	0.398400	0.011700	0.925900
O251	O25	0.667990	0.618500	0.023310
O261	O26	0.707350	0.653700	0.956660
O271	O27	0.738730	0.824200	0.938960
H451	H45	0.757700	0.774000	0.935300
O281	O28	0.087040	0.980100	0.952960
O291	O29	0.024950	0.001600	0.011700
O301	O30	0.889950	0.994300	0.008710
H461	H46	0.928300	0.987100	0.020100
O311	O31	0.607400	0.569500	0.801770
O321	O32	0.659800	0.467200	0.844550
O331	O33	0.705900	0.314900	0.813250
H471	H47	0.704300	0.358300	0.830400
O341	O34	0.916940	0.053800	0.593730
O351	O35	0.809430	0.009500	0.606180
O361	O36	0.746980	0.063100	0.675510
H481	H48	0.750000	0.043100	0.650500
C701	C70	0.594700	0.151000	0.964190
C711	C71	0.615400	0.219900	0.934120
C721	C72	0.617500	0.198500	0.891370
H491	H49	0.629300	0.244500	0.871500
C731	C73	0.602500	0.109700	0.875730
C741	C74	0.606500	0.089700	0.830200
H501	H50	0.616300	0.136900	0.810500
C751	C75	0.596100	0.002600	0.815550
H511	H51	0.598300	0.990000	0.785800
C761	C76	0.581900	0.930900	0.845600
H521	H52	0.577300	0.870600	0.835400
C771	C77	0.574700	0.947900	0.889060
H531	H53	0.563000	0.899900	0.907900
C781	C78	0.585070	0.039700	0.906030
C791	C79	0.578830	0.061900	0.950990
C801	C80	0.559500	0.990400	0.985470
H541	H54	0.561600	0.929600	0.972100
H551	H55	0.594800	0.992100	0.008200
C811	C81	0.489000	0.001100	0.006690
C821	C82	0.480100	0.993500	0.053310
C831	C83	0.537200	0.982300	0.083270
H561	H56	0.582700	0.980700	0.072700
C841	C84	0.525800	0.974100	0.126100
H571	H57	0.563900	0.965400	0.144600
C851	C85	0.459000	0.977900	0.144400
H581	H58	0.452800	0.971500	0.174400
C861	C86	0.404000	0.990900	0.118110
H591	H59	0.359600	0.995400	0.130300
C871	C87	0.411700	0.998200	0.071800
C881	C88	0.354400	0.009400	0.044960
H601	H60	0.310100	0.012800	0.057400
C891	C89	0.360800	0.015600	0.000220
C901	C90	0.429100	0.007100	0.981500
C911	C91	0.634200	0.316300	0.948980
C921	C92	0.297600	0.023300	0.972780
C931	C93	0.732500	0.841300	0.982550
C941	C94	0.710500	0.769100	0.012720
C951	C95	0.703300	0.788600	0.055620
H611	H61	0.689600	0.741800	0.074600
C961	C96	0.716100	0.878500	0.072550
C971	C97	0.707500	0.896400	0.116590
H621	H62	0.695000	0.848700	0.135400
C981	C98	0.717300	0.982400	0.132300
H631	H63	0.712400	0.994000	0.162100
C991	C99	0.734900	0.055200	0.103400
H641	H64	0.738900	0.115200	0.114100
C1001	C100	0.745500	0.039400	0.061700
H651	H65	0.759100	0.088200	0.043900
C1011	C101	0.737100	0.949300	0.042710
C1021	C102	0.746400	0.929700	0.997520
C1031	C103	0.764800	0.002400	0.964060
H661	H66	0.764000	0.062100	0.978500
H671	H67	0.728100	0.003000	0.942200
C1041	C104	0.834300	0.993300	0.940550
C1051	C105	0.840700	0.996800	0.894250
C1061	C106	0.781600	0.000000	0.865200
H681	H68	0.736800	0.993700	0.876600
C1071	C107	0.789800	0.012100	0.821200
H691	H69	0.750300	0.017200	0.803700
C1081	C108	0.856100	0.016900	0.801800
H701	H70	0.861000	0.024300	0.771800
C1091	C109	0.913400	0.010200	0.828400
H711	H71	0.957700	0.011700	0.815900
C1101	C110	0.907700	0.001200	0.873950
C1111	C111	0.967000	0.995300	0.900010
H721	H72	0.010800	0.994400	0.886700
C1121	C112	0.963100	0.990800	0.944660
C1131	C113	0.897000	0.992600	0.964620
C1141	C114	0.694100	0.672300	0.997270
C1151	C115	0.028400	0.990400	0.971240
C1161	C116	0.680300	0.342800	0.773170
C1171	C117	0.645800	0.430000	0.769450
C1181	C118	0.620100	0.455200	0.730140
H731	H73	0.598200	0.512400	0.727600
C1191	C119	0.625200	0.398800	0.693050
C1201	C120	0.597300	0.424800	0.652070
H741	H74	0.575500	0.482000	0.649100
C1211	C121	0.601700	0.367100	0.616620
H751	H75	0.584200	0.385200	0.589600
C1221	C122	0.632400	0.282000	0.621810
H761	H76	0.634200	0.242900	0.597700
C1231	C123	0.660400	0.251300	0.660200
H771	H77	0.679600	0.192300	0.662200
C1241	C124	0.659700	0.312000	0.697590
C1251	C125	0.688300	0.283900	0.737550
C1261	C126	0.728300	0.193700	0.742980
H781	H78	0.739400	0.186100	0.773700
H791	H79	0.697500	0.143200	0.734800
C1271	C127	0.795500	0.184500	0.716920
C1281	C128	0.855200	0.240800	0.727080
C1291	C129	0.858600	0.299900	0.763750
H801	H80	0.820300	0.304300	0.782300
C1301	C130	0.917600	0.351200	0.772560
H811	H81	0.917900	0.391100	0.796400
C1311	C131	0.976100	0.344200	0.746600
H821	H82	0.016000	0.378200	0.753200
C1321	C132	0.975200	0.287200	0.711300
H831	H83	0.014800	0.282800	0.693800
C1331	C133	0.916200	0.235200	0.700620
C1341	C134	0.917300	0.173400	0.664590
H841	H84	0.956500	0.170800	0.646700
C1351	C135	0.861100	0.117600	0.655940
C1361	C136	0.800900	0.121400	0.683460
C1371	C137	0.635100	0.495200	0.807470
C1381	C138	0.863700	0.057000	0.616680
Dy51	Dy5	0.858920	0.962870	0.536610
Dy61	Dy6	0.813810	0.025320	0.412360
O371	O37	0.837000	0.868610	0.420850
O381	O38	0.879560	0.839700	0.487540
O391	O39	0.909750	0.668400	0.508000
H851	H85	0.900800	0.722900	0.512600
O401	O40	0.262600	0.529400	0.489480
O411	O41	0.196960	0.519800	0.431300
O421	O42	0.063140	0.506600	0.437560
H861	H86	0.101600	0.511700	0.425900
O431	O43	0.832010	0.118500	0.523310
O441	O44	0.792650	0.153700	0.456660
O451	O45	0.761270	0.324200	0.438960
H871	H87	0.742300	0.274000	0.435300
O461	O46	0.412960	0.480100	0.452960
O471	O47	0.475050	0.501600	0.511700
O481	O48	0.610050	0.494300	0.508710
H881	H88	0.571700	0.487100	0.520100
O491	O49	0.892600	0.069500	0.301770
O501	O50	0.840200	0.967200	0.344550
O511	O51	0.794100	0.814900	0.313250
H891	H89	0.795700	0.858300	0.330400
O521	O52	0.583060	0.553800	0.093730
O531	O53	0.690570	0.509500	0.106180
O541	O54	0.753020	0.563100	0.175510
H901	H90	0.750000	0.543100	0.150500
C1391	C139	0.905300	0.651000	0.464190
C1401	C140	0.884600	0.719900	0.434120
C1411	C141	0.882500	0.698500	0.391370
H911	H91	0.870700	0.744500	0.371500
C1421	C142	0.897500	0.609700	0.375730
C1431	C143	0.893500	0.589700	0.330200
H921	H92	0.883700	0.636900	0.310500
C1441	C144	0.903900	0.502600	0.315550
H931	H93	0.901700	0.490000	0.285800
C1451	C145	0.918100	0.430900	0.345600
H941	H94	0.922700	0.370600	0.335400
C1461	C146	0.925300	0.447900	0.389060
H951	H95	0.937000	0.399900	0.407900
C1471	C147	0.914930	0.539700	0.406030
C1481	C148	0.921170	0.561900	0.450990
C1491	C149	0.940500	0.490400	0.485470
H961	H96	0.938400	0.429600	0.472100
H971	H97	0.905200	0.492100	0.508200
C1501	C150	0.011000	0.501100	0.506690
C1511	C151	0.019900	0.493500	0.553310
C1521	C152	0.962800	0.482300	0.583270
H981	H98	0.917300	0.480700	0.572700
C1531	C153	0.974200	0.474100	0.626100
H991	H99	0.936100	0.465400	0.644600
C1541	C154	0.041000	0.477900	0.644400
H1001	H100	0.047200	0.471500	0.674400
C1551	C155	0.096000	0.490900	0.618110
H1011	H101	0.140400	0.495400	0.630300
C1561	C156	0.088300	0.498200	0.571800
C1571	C157	0.145600	0.509400	0.544960
H1021	H102	0.189900	0.512800	0.557400
C1581	C158	0.139200	0.515600	0.500220
C1591	C159	0.070900	0.507100	0.481500
C1601	C160	0.865800	0.816300	0.448980
C1611	C161	0.202400	0.523300	0.472780
C1621	C162	0.767500	0.341300	0.482550
C1631	C163	0.789500	0.269100	0.512720
C1641	C164	0.796700	0.288600	0.555620
H1031	H103	0.810400	0.241800	0.574600
C1651	C165	0.783900	0.378500	0.572550
C1661	C166	0.792500	0.396400	0.616590
H1041	H104	0.805000	0.348700	0.635400
C1671	C167	0.782700	0.482400	0.632300
H1051	H105	0.787600	0.494000	0.662100
C1681	C168	0.765100	0.555200	0.603400
H1061	H106	0.761100	0.615200	0.614100
C1691	C169	0.754500	0.539400	0.561700
H1071	H107	0.740900	0.588200	0.543900
C1701	C170	0.762900	0.449300	0.542710
C1711	C171	0.753600	0.429700	0.497520
C1721	C172	0.735200	0.502400	0.464060
H1081	H108	0.736000	0.562100	0.478500
H1091	H109	0.771900	0.503000	0.442200
C1731	C173	0.665700	0.493300	0.440550
C1741	C174	0.659300	0.496800	0.394250
C1751	C175	0.718400	0.500000	0.365200
H1101	H110	0.763200	0.493700	0.376600
C1761	C176	0.710200	0.512100	0.321200
H1111	H111	0.749700	0.517200	0.303700
C1771	C177	0.643900	0.516900	0.301800
H1121	H112	0.639000	0.524300	0.271800
C1781	C178	0.586600	0.510200	0.328400
H1131	H113	0.542300	0.511700	0.315900
C1791	C179	0.592300	0.501200	0.373950
C1801	C180	0.533000	0.495300	0.400010
H1141	H114	0.489200	0.494400	0.386700
C1811	C181	0.536900	0.490800	0.444660
C1821	C182	0.603000	0.492600	0.464620
C1831	C183	0.805900	0.172300	0.497270
C1841	C184	0.471600	0.490400	0.471240
C1851	C185	0.819700	0.842800	0.273170
C1861	C186	0.854200	0.930000	0.269450
C1871	C187	0.879900	0.955200	0.230140
H1151	H115	0.901800	0.012400	0.227600
C1881	C188	0.874800	0.898800	0.193050
C1891	C189	0.902700	0.924800	0.152070
H1161	H116	0.924500	0.982000	0.149100
C1901	C190	0.898300	0.867100	0.116620
H1171	H117	0.915800	0.885200	0.089600
C1911	C191	0.867600	0.782000	0.121810
H1181	H118	0.865800	0.742900	0.097700
C1921	C192	0.839600	0.751300	0.160200
H1191	H119	0.820400	0.692300	0.162200
C1931	C193	0.840300	0.812000	0.197590
C1941	C194	0.811700	0.783900	0.237550
C1951	C195	0.771700	0.693700	0.242980
H1201	H120	0.760600	0.686100	0.273700
H1211	H121	0.802500	0.643200	0.234800
C1961	C196	0.704500	0.684500	0.216920
C1971	C197	0.644800	0.740800	0.227080
C1981	C198	0.641400	0.799900	0.263750
H1221	H122	0.679700	0.804300	0.282300
C1991	C199	0.582400	0.851200	0.272560
H1231	H123	0.582100	0.891100	0.296400
C2001	C200	0.523900	0.844200	0.246600
H1241	H124	0.484000	0.878200	0.253200
C2011	C201	0.524800	0.787200	0.211300
H1251	H125	0.485200	0.782800	0.193800
C2021	C202	0.583800	0.735200	0.200620
C2031	C203	0.582700	0.673400	0.164590
H1261	H126	0.543500	0.670800	0.146700
C2041	C204	0.638900	0.617600	0.155940
C2051	C205	0.699100	0.621400	0.183460
C2061	C206	0.864900	0.995200	0.307470
C2071	C207	0.636300	0.557000	0.116680
Dy71	Dy7	0.141080	0.037130	0.036610
Dy81	Dy8	0.186190	0.974680	0.912360
O551	O55	0.163000	0.131390	0.920850
O561	O56	0.120440	0.160300	0.987540
O571	O57	0.090250	0.331600	0.008000
H1271	H127	0.099200	0.277100	0.012600
O581	O58	0.737400	0.470600	0.989480
O591	O59	0.803040	0.480200	0.931300
O601	O60	0.936860	0.493400	0.937560
H1281	H128	0.898400	0.488300	0.925900
O611	O61	0.167990	0.881500	0.023310
O621	O62	0.207350	0.846300	0.956660
O631	O63	0.238730	0.675800	0.938960
H1291	H129	0.257700	0.726000	0.935300
O641	O64	0.587040	0.519900	0.952960
O651	O65	0.524950	0.498400	0.011700
O661	O66	0.389950	0.505700	0.008710
H1301	H130	0.428300	0.512900	0.020100
O671	O67	0.107400	0.930500	0.801770
O681	O68	0.159800	0.032800	0.844550
O691	O69	0.205900	0.185100	0.813250
H1311	H131	0.204300	0.141700	0.830400
O701	O70	0.416940	0.446200	0.593730
O711	O71	0.309430	0.490500	0.606180
O721	O72	0.246980	0.436900	0.675510
H1321	H132	0.250000	0.456900	0.650500
C2081	C208	0.094700	0.349000	0.964190
C2091	C209	0.115400	0.280100	0.934120
C2101	C210	0.117500	0.301500	0.891370
H1331	H133	0.129300	0.255500	0.871500
C2111	C211	0.102500	0.390300	0.875730
C2121	C212	0.106500	0.410300	0.830200
H1341	H134	0.116300	0.363100	0.810500
C2131	C213	0.096100	0.497400	0.815550
H1351	H135	0.098300	0.510000	0.785800
C2141	C214	0.081900	0.569100	0.845600
H1361	H136	0.077300	0.629400	0.835400
C2151	C215	0.074700	0.552100	0.889060
H1371	H137	0.063000	0.600100	0.907900
C2161	C216	0.085070	0.460300	0.906030
C2171	C217	0.078830	0.438100	0.950990
C2181	C218	0.059500	0.509600	0.985470
H1381	H138	0.061600	0.570400	0.972100
H1391	H139	0.094800	0.507900	0.008200
C2191	C219	0.989000	0.498900	0.006690
C2201	C220	0.980100	0.506500	0.053310
C2211	C221	0.037200	0.517700	0.083270
H1401	H140	0.082700	0.519300	0.072700
C2221	C222	0.025800	0.525900	0.126100
H1411	H141	0.063900	0.534600	0.144600
C2231	C223	0.959000	0.522100	0.144400
H1421	H142	0.952800	0.528500	0.174400
C2241	C224	0.904000	0.509100	0.118110
H1431	H143	0.859600	0.504600	0.130300
C2251	C225	0.911700	0.501800	0.071800
C2261	C226	0.854400	0.490600	0.044960
H1441	H144	0.810100	0.487200	0.057400
C2271	C227	0.860800	0.484400	0.000220
C2281	C228	0.929100	0.492900	0.981500
C2291	C229	0.134200	0.183700	0.948980
C2301	C230	0.797600	0.476700	0.972780
C2311	C231	0.232500	0.658700	0.982550
C2321	C232	0.210500	0.730900	0.012720
C2331	C233	0.203300	0.711400	0.055620
H1451	H145	0.189600	0.758200	0.074600
C2341	C234	0.216100	0.621500	0.072550
C2351	C235	0.207500	0.603600	0.116590
H1461	H146	0.195000	0.651300	0.135400
C2361	C236	0.217300	0.517600	0.132300
H1471	H147	0.212400	0.506000	0.162100
C2371	C237	0.234900	0.444800	0.103400
H1481	H148	0.238900	0.384800	0.114100
C2381	C238	0.245500	0.460600	0.061700
H1491	H149	0.259100	0.411800	0.043900
C2391	C239	0.237100	0.550700	0.042710
C2401	C240	0.246400	0.570300	0.997520
C2411	C241	0.264800	0.497600	0.964060
H1501	H150	0.264000	0.437900	0.978500
H1511	H151	0.228100	0.497000	0.942200
C2421	C242	0.334300	0.506700	0.940550
C2431	C243	0.340700	0.503200	0.894250
C2441	C244	0.281600	0.500000	0.865200
H1521	H152	0.236800	0.506300	0.876600
C2451	C245	0.289800	0.487900	0.821200
H1531	H153	0.250300	0.482800	0.803700
C2461	C246	0.356100	0.483100	0.801800
H1541	H154	0.361000	0.475700	0.771800
C2471	C247	0.413400	0.489800	0.828400
H1551	H155	0.457700	0.488300	0.815900
C2481	C248	0.407700	0.498800	0.873950
C2491	C249	0.467000	0.504700	0.900010
H1561	H156	0.510800	0.505600	0.886700
C2501	C250	0.463100	0.509200	0.944660
C2511	C251	0.397000	0.507400	0.964620
C2521	C252	0.194100	0.827700	0.997270
C2531	C253	0.528400	0.509600	0.971240
C2541	C254	0.180300	0.157200	0.773170
C2551	C255	0.145800	0.070000	0.769450
C2561	C256	0.120100	0.044800	0.730140
H1571	H157	0.098200	0.987600	0.727600
C2571	C257	0.125200	0.101200	0.693050
C2581	C258	0.097300	0.075200	0.652070
H1581	H158	0.075500	0.018000	0.649100
C2591	C259	0.101700	0.132900	0.616620
H1591	H159	0.084200	0.114800	0.589600
C2601	C260	0.132400	0.218000	0.621810
H1601	H160	0.134200	0.257100	0.597700
C2611	C261	0.160400	0.248700	0.660200
H1611	H161	0.179600	0.307700	0.662200
C2621	C262	0.159700	0.188000	0.697590
C2631	C263	0.188300	0.216100	0.737550
C2641	C264	0.228300	0.306300	0.742980
H1621	H162	0.239400	0.313900	0.773700
H1631	H163	0.197500	0.356800	0.734800
C2651	C265	0.295500	0.315500	0.716920
C2661	C266	0.355200	0.259200	0.727080
C2671	C267	0.358600	0.200100	0.763750
H1641	H164	0.320300	0.195700	0.782300
C2681	C268	0.417600	0.148800	0.772560
H1651	H165	0.417900	0.108900	0.796400
C2691	C269	0.476100	0.155800	0.746600
H1661	H166	0.516000	0.121800	0.753200
C2701	C270	0.475200	0.212800	0.711300
H1671	H167	0.514800	0.217200	0.693800
C2711	C271	0.416200	0.264800	0.700620
C2721	C272	0.417300	0.326600	0.664590
H1681	H168	0.456500	0.329200	0.646700
C2731	C273	0.361100	0.382400	0.655940
C2741	C274	0.300900	0.378600	0.683460
C2751	C275	0.135100	0.004800	0.807470
C2761	C276	0.363700	0.443000	0.616680
