data_GOVWOF_clean_PM
_symmetry_space_group_name_H-M	'P1'
_cell_length_a	28.105000
_cell_length_b	28.105000
_cell_length_c	14.598000
_cell_angle_alpha	90.000000
_cell_angle_beta	90.000000
_cell_angle_gamma	120.000000
_symmetry_Int_Tables_number 1

loop_
_symmetry_equiv_pos_as_xyz
'x,y,z'

loop_
_atom_site_label
_atom_site_type_symbol
_atom_site_fract_x
_atom_site_fract_y
_atom_site_fract_z
C11	C1	0.359800	0.252400	0.876600
C21	C2	0.345000	0.287700	0.824300
C31	C3	0.381000	0.320700	0.757000
H11	H1	0.413000	0.319800	0.745500
C41	C4	0.368900	0.355600	0.706300
C51	C5	0.321400	0.357300	0.723800
H21	H2	0.312800	0.380100	0.690200
C61	C6	0.286700	0.323600	0.793200
C71	C7	0.297800	0.290800	0.841300
H31	H3	0.273800	0.269300	0.887300
C81	C8	0.235100	0.327500	0.813900
C91	C9	0.397900	0.423700	0.590700
H41	H4	0.386800	0.443900	0.630800
H51	H5	0.369200	0.404100	0.545800
C101	C10	0.452000	0.462800	0.543400
H61	H6	0.457200	0.486700	0.715800
C111	C11	0.388900	0.527800	0.804000
H71	H7	0.364600	0.494900	0.775300
C121	C12	0.376400	0.541300	0.888500
C131	C13	0.319700	0.501800	0.932400
O11	O1	0.321000	0.215300	0.924600
O21	O2	0.406150	0.258890	0.870500
O31	O3	0.206140	0.299670	0.878600
O41	O4	0.225700	0.357600	0.762000
O51	O5	0.407620	0.386330	0.642200
O61	O6	0.290800	0.459800	0.881700
O71	O7	0.307140	0.507800	0.003600
C141	C14	0.747600	0.107400	0.876600
C151	C15	0.712300	0.057300	0.824300
C161	C16	0.679300	0.060300	0.757000
H81	H8	0.680200	0.093200	0.745500
C171	C17	0.644400	0.013300	0.706300
C181	C18	0.642700	0.964100	0.723800
H91	H9	0.619900	0.932700	0.690200
C191	C19	0.676400	0.963100	0.793200
C201	C20	0.709200	0.007000	0.841300
H101	H10	0.730700	0.004500	0.887300
C211	C21	0.672500	0.907600	0.813900
C221	C22	0.576300	0.974200	0.590700
H111	H11	0.556100	0.942900	0.630800
H121	H12	0.595900	0.965100	0.545800
C231	C23	0.537200	0.989200	0.543400
H131	H13	0.513300	0.970500	0.715800
C241	C24	0.472200	0.861100	0.804000
H141	H14	0.505100	0.869700	0.775300
C251	C25	0.458700	0.835100	0.888500
C261	C26	0.498200	0.817900	0.932400
O81	O8	0.784700	0.105700	0.924600
O91	O9	0.741110	0.147260	0.870500
O101	O10	0.700330	0.906470	0.878600
O111	O11	0.642400	0.868100	0.762000
O121	O12	0.613670	0.021290	0.642200
O131	O13	0.540200	0.831000	0.881700
O141	O14	0.492200	0.799340	0.003600
C271	C27	0.892600	0.640200	0.876600
C281	C28	0.942700	0.655000	0.824300
C291	C29	0.939700	0.619000	0.757000
H151	H15	0.906800	0.587000	0.745500
C301	C30	0.986700	0.631100	0.706300
C311	C31	0.035900	0.678600	0.723800
H161	H16	0.067300	0.687200	0.690200
C321	C32	0.036900	0.713300	0.793200
C331	C33	0.993000	0.702200	0.841300
H171	H17	0.995500	0.726200	0.887300
C341	C34	0.092400	0.764900	0.813900
C351	C35	0.025800	0.602100	0.590700
H181	H18	0.057100	0.613200	0.630800
H191	H19	0.034900	0.630800	0.545800
C361	C36	0.010800	0.548000	0.543400
H201	H20	0.029500	0.542800	0.715800
C371	C37	0.138900	0.611100	0.804000
H211	H21	0.130300	0.635400	0.775300
C381	C38	0.164900	0.623600	0.888500
C391	C39	0.182100	0.680300	0.932400
O151	O15	0.894300	0.679000	0.924600
O161	O16	0.852740	0.593850	0.870500
O171	O17	0.093530	0.793860	0.878600
O181	O18	0.131900	0.774300	0.762000
O191	O19	0.978710	0.592380	0.642200
O201	O20	0.169000	0.709200	0.881700
O211	O21	0.200660	0.692860	0.003600
C401	C40	0.252400	0.359800	0.123400
C411	C41	0.287700	0.345000	0.175700
C421	C42	0.320700	0.381000	0.243000
H221	H22	0.319800	0.413000	0.254500
C431	C43	0.355600	0.368900	0.293700
C441	C44	0.357300	0.321400	0.276200
H231	H23	0.380100	0.312800	0.309800
C451	C45	0.323600	0.286700	0.206800
C461	C46	0.290800	0.297800	0.158700
H241	H24	0.269300	0.273800	0.112700
C471	C47	0.327500	0.235100	0.186100
C481	C48	0.423700	0.397900	0.409300
H251	H25	0.443900	0.386800	0.369200
H261	H26	0.404100	0.369200	0.454200
C491	C49	0.462800	0.452000	0.456600
H271	H27	0.486700	0.457200	0.284200
C501	C50	0.527800	0.388900	0.196000
H281	H28	0.494900	0.364600	0.224700
C511	C51	0.541300	0.376400	0.111500
C521	C52	0.501800	0.319700	0.067600
O221	O22	0.215300	0.321000	0.075400
O231	O23	0.258890	0.406150	0.129500
O241	O24	0.299670	0.206140	0.121400
O251	O25	0.357600	0.225700	0.238000
O261	O26	0.386330	0.407620	0.357800
O271	O27	0.459800	0.290800	0.118300
O281	O28	0.507800	0.307140	0.996400
C531	C53	0.107400	0.747600	0.123400
C541	C54	0.057300	0.712300	0.175700
C551	C55	0.060300	0.679300	0.243000
H291	H29	0.093200	0.680200	0.254500
C561	C56	0.013300	0.644400	0.293700
C571	C57	0.964100	0.642700	0.276200
H301	H30	0.932700	0.619900	0.309800
C581	C58	0.963100	0.676400	0.206800
C591	C59	0.007000	0.709200	0.158700
H311	H31	0.004500	0.730700	0.112700
C601	C60	0.907600	0.672500	0.186100
C611	C61	0.974200	0.576300	0.409300
H321	H32	0.942900	0.556100	0.369200
H331	H33	0.965100	0.595900	0.454200
C621	C62	0.989200	0.537200	0.456600
H341	H34	0.970500	0.513300	0.284200
C631	C63	0.861100	0.472200	0.196000
H351	H35	0.869700	0.505100	0.224700
C641	C64	0.835100	0.458700	0.111500
C651	C65	0.817900	0.498200	0.067600
O291	O29	0.105700	0.784700	0.075400
O301	O30	0.147260	0.741110	0.129500
O311	O31	0.906470	0.700330	0.121400
O321	O32	0.868100	0.642400	0.238000
O331	O33	0.021290	0.613670	0.357800
O341	O34	0.831000	0.540200	0.118300
O351	O35	0.799340	0.492200	0.996400
C661	C66	0.640200	0.892600	0.123400
C671	C67	0.655000	0.942700	0.175700
C681	C68	0.619000	0.939700	0.243000
H361	H36	0.587000	0.906800	0.254500
C691	C69	0.631100	0.986700	0.293700
C701	C70	0.678600	0.035900	0.276200
H371	H37	0.687200	0.067300	0.309800
C711	C71	0.713300	0.036900	0.206800
C721	C72	0.702200	0.993000	0.158700
H381	H38	0.726200	0.995500	0.112700
C731	C73	0.764900	0.092400	0.186100
C741	C74	0.602100	0.025800	0.409300
H391	H39	0.613200	0.057100	0.369200
H401	H40	0.630800	0.034900	0.454200
C751	C75	0.548000	0.010800	0.456600
H411	H41	0.542800	0.029500	0.284200
C761	C76	0.611100	0.138900	0.196000
H421	H42	0.635400	0.130300	0.224700
C771	C77	0.623600	0.164900	0.111500
C781	C78	0.680300	0.182100	0.067600
O361	O36	0.679000	0.894300	0.075400
O371	O37	0.593850	0.852740	0.129500
O381	O38	0.793860	0.093530	0.121400
O391	O39	0.774300	0.131900	0.238000
O401	O40	0.592380	0.978710	0.357800
O411	O41	0.709200	0.169000	0.118300
O421	O42	0.692860	0.200660	0.996400
C791	C79	0.640200	0.747600	0.123400
C801	C80	0.655000	0.712300	0.175700
C811	C81	0.619000	0.679300	0.243000
H431	H43	0.587000	0.680200	0.254500
C821	C82	0.631100	0.644400	0.293700
C831	C83	0.678600	0.642700	0.276200
H441	H44	0.687200	0.619900	0.309800
C841	C84	0.713300	0.676400	0.206800
C851	C85	0.702200	0.709200	0.158700
H451	H45	0.726200	0.730700	0.112700
C861	C86	0.764900	0.672500	0.186100
C871	C87	0.602100	0.576300	0.409300
H461	H46	0.613200	0.556100	0.369200
H471	H47	0.630800	0.595900	0.454200
C881	C88	0.548000	0.537200	0.456600
H481	H48	0.542800	0.513300	0.284200
C891	C89	0.611100	0.472200	0.196000
H491	H49	0.635400	0.505100	0.224700
C901	C90	0.623600	0.458700	0.111500
C911	C91	0.680300	0.498200	0.067600
O431	O43	0.679000	0.784700	0.075400
O441	O44	0.593850	0.741110	0.129500
O451	O45	0.793860	0.700330	0.121400
O461	O46	0.774300	0.642400	0.238000
O471	O47	0.592380	0.613670	0.357800
O481	O48	0.709200	0.540200	0.118300
O491	O49	0.692860	0.492200	0.996400
C921	C92	0.252400	0.892600	0.123400
C931	C93	0.287700	0.942700	0.175700
C941	C94	0.320700	0.939700	0.243000
H501	H50	0.319800	0.906800	0.254500
C951	C95	0.355600	0.986700	0.293700
C961	C96	0.357300	0.035900	0.276200
H511	H51	0.380100	0.067300	0.309800
C971	C97	0.323600	0.036900	0.206800
C981	C98	0.290800	0.993000	0.158700
H521	H52	0.269300	0.995500	0.112700
C991	C99	0.327500	0.092400	0.186100
C1001	C100	0.423700	0.025800	0.409300
H531	H53	0.443900	0.057100	0.369200
H541	H54	0.404100	0.034900	0.454200
C1011	C101	0.462800	0.010800	0.456600
H551	H55	0.486700	0.029500	0.284200
C1021	C102	0.527800	0.138900	0.196000
H561	H56	0.494900	0.130300	0.224700
C1031	C103	0.541300	0.164900	0.111500
C1041	C104	0.501800	0.182100	0.067600
O501	O50	0.215300	0.894300	0.075400
O511	O51	0.258890	0.852740	0.129500
O521	O52	0.299670	0.093530	0.121400
O531	O53	0.357600	0.131900	0.238000
O541	O54	0.386330	0.978710	0.357800
O551	O55	0.459800	0.169000	0.118300
O561	O56	0.507800	0.200660	0.996400
C1051	C105	0.107400	0.359800	0.123400
C1061	C106	0.057300	0.345000	0.175700
C1071	C107	0.060300	0.381000	0.243000
H571	H57	0.093200	0.413000	0.254500
C1081	C108	0.013300	0.368900	0.293700
C1091	C109	0.964100	0.321400	0.276200
H581	H58	0.932700	0.312800	0.309800
C1101	C110	0.963100	0.286700	0.206800
C1111	C111	0.007000	0.297800	0.158700
H591	H59	0.004500	0.273800	0.112700
C1121	C112	0.907600	0.235100	0.186100
C1131	C113	0.974200	0.397900	0.409300
H601	H60	0.942900	0.386800	0.369200
H611	H61	0.965100	0.369200	0.454200
C1141	C114	0.989200	0.452000	0.456600
H621	H62	0.970500	0.457200	0.284200
C1151	C115	0.861100	0.388900	0.196000
H631	H63	0.869700	0.364600	0.224700
C1161	C116	0.835100	0.376400	0.111500
C1171	C117	0.817900	0.319700	0.067600
O571	O57	0.105700	0.321000	0.075400
O581	O58	0.147260	0.406150	0.129500
O591	O59	0.906470	0.206140	0.121400
O601	O60	0.868100	0.225700	0.238000
O611	O61	0.021290	0.407620	0.357800
O621	O62	0.831000	0.290800	0.118300
O631	O63	0.799340	0.307140	0.996400
C1181	C118	0.747600	0.640200	0.876600
C1191	C119	0.712300	0.655000	0.824300
C1201	C120	0.679300	0.619000	0.757000
H641	H64	0.680200	0.587000	0.745500
C1211	C121	0.644400	0.631100	0.706300
C1221	C122	0.642700	0.678600	0.723800
H651	H65	0.619900	0.687200	0.690200
C1231	C123	0.676400	0.713300	0.793200
C1241	C124	0.709200	0.702200	0.841300
H661	H66	0.730700	0.726200	0.887300
C1251	C125	0.672500	0.764900	0.813900
C1261	C126	0.576300	0.602100	0.590700
H671	H67	0.556100	0.613200	0.630800
H681	H68	0.595900	0.630800	0.545800
C1271	C127	0.537200	0.548000	0.543400
H691	H69	0.513300	0.542800	0.715800
C1281	C128	0.472200	0.611100	0.804000
H701	H70	0.505100	0.635400	0.775300
C1291	C129	0.458700	0.623600	0.888500
C1301	C130	0.498200	0.680300	0.932400
O641	O64	0.784700	0.679000	0.924600
O651	O65	0.741110	0.593850	0.870500
O661	O66	0.700330	0.793860	0.878600
O671	O67	0.642400	0.774300	0.762000
O681	O68	0.613670	0.592380	0.642200
O691	O69	0.540200	0.709200	0.881700
O701	O70	0.492200	0.692860	0.003600
C1311	C131	0.892600	0.252400	0.876600
C1321	C132	0.942700	0.287700	0.824300
C1331	C133	0.939700	0.320700	0.757000
H711	H71	0.906800	0.319800	0.745500
C1341	C134	0.986700	0.355600	0.706300
C1351	C135	0.035900	0.357300	0.723800
H721	H72	0.067300	0.380100	0.690200
C1361	C136	0.036900	0.323600	0.793200
C1371	C137	0.993000	0.290800	0.841300
H731	H73	0.995500	0.269300	0.887300
C1381	C138	0.092400	0.327500	0.813900
C1391	C139	0.025800	0.423700	0.590700
H741	H74	0.057100	0.443900	0.630800
H751	H75	0.034900	0.404100	0.545800
C1401	C140	0.010800	0.462800	0.543400
H761	H76	0.029500	0.486700	0.715800
C1411	C141	0.138900	0.527800	0.804000
H771	H77	0.130300	0.494900	0.775300
C1421	C142	0.164900	0.541300	0.888500
C1431	C143	0.182100	0.501800	0.932400
O711	O71	0.894300	0.215300	0.924600
O721	O72	0.852740	0.258890	0.870500
O731	O73	0.093530	0.299670	0.878600
O741	O74	0.131900	0.357600	0.762000
O751	O75	0.978710	0.386330	0.642200
O761	O76	0.169000	0.459800	0.881700
O771	O77	0.200660	0.507800	0.003600
C1441	C144	0.359800	0.107400	0.876600
C1451	C145	0.345000	0.057300	0.824300
C1461	C146	0.381000	0.060300	0.757000
H781	H78	0.413000	0.093200	0.745500
C1471	C147	0.368900	0.013300	0.706300
C1481	C148	0.321400	0.964100	0.723800
H791	H79	0.312800	0.932700	0.690200
C1491	C149	0.286700	0.963100	0.793200
C1501	C150	0.297800	0.007000	0.841300
H801	H80	0.273800	0.004500	0.887300
C1511	C151	0.235100	0.907600	0.813900
C1521	C152	0.397900	0.974200	0.590700
H811	H81	0.386800	0.942900	0.630800
H821	H82	0.369200	0.965100	0.545800
C1531	C153	0.452000	0.989200	0.543400
H831	H83	0.457200	0.970500	0.715800
C1541	C154	0.388900	0.861100	0.804000
H841	H84	0.364600	0.869700	0.775300
C1551	C155	0.376400	0.835100	0.888500
C1561	C156	0.319700	0.817900	0.932400
O781	O78	0.321000	0.105700	0.924600
O791	O79	0.406150	0.147260	0.870500
O801	O80	0.206140	0.906470	0.878600
O811	O81	0.225700	0.868100	0.762000
O821	O82	0.407620	0.021290	0.642200
O831	O83	0.290800	0.831000	0.881700
O841	O84	0.307140	0.799340	0.003600
Mn11	Mn1	0.311730	0.155860	0.025180
Mn21	Mn2	0.451730	0.225860	0.932610
Mn31	Mn3	0.421180	0.210590	0.186070
O851	O85	0.398230	0.199110	0.047900
Mn41	Mn4	0.844140	0.155870	0.025180
Mn51	Mn5	0.774140	0.225870	0.932610
Mn61	Mn6	0.789410	0.210590	0.186070
O861	O86	0.800890	0.199120	0.047900
Mn71	Mn7	0.844130	0.688270	0.025180
Mn81	Mn8	0.774130	0.548270	0.932610
Mn91	Mn9	0.789410	0.578820	0.186070
O871	O87	0.800880	0.601770	0.047900
Mn101	Mn10	0.155860	0.311730	0.974820
Mn111	Mn11	0.225860	0.451730	0.067390
Mn121	Mn12	0.210590	0.421180	0.813930
O881	O88	0.199110	0.398230	0.952100
Mn131	Mn13	0.155870	0.844140	0.974820
Mn141	Mn14	0.225870	0.774140	0.067390
Mn151	Mn15	0.210590	0.789410	0.813930
O891	O89	0.199120	0.800890	0.952100
Mn161	Mn16	0.688270	0.844130	0.974820
Mn171	Mn17	0.548270	0.774130	0.067390
Mn181	Mn18	0.578820	0.789410	0.813930
O901	O90	0.601770	0.800880	0.952100
C1571	C157	0.489310	0.510690	0.587100
C1581	C158	0.478850	0.521150	0.683500
C1591	C159	0.436970	0.563030	0.764600
C1601	C160	0.411160	0.588840	0.931400
H851	H85	0.402700	0.597300	0.988500
O911	O91	0.449450	0.550550	0.677600
C1611	C161	0.489310	0.978620	0.587100
C1621	C162	0.478850	0.957700	0.683500
C1631	C163	0.436970	0.873940	0.764600
C1641	C164	0.411160	0.822320	0.931400
H861	H86	0.402700	0.805400	0.988500
O921	O92	0.449450	0.898900	0.677600
C1651	C165	0.021380	0.510690	0.587100
C1661	C166	0.042300	0.521150	0.683500
C1671	C167	0.126060	0.563030	0.764600
C1681	C168	0.177680	0.588840	0.931400
H871	H87	0.194600	0.597300	0.988500
O931	O93	0.101100	0.550550	0.677600
C1691	C169	0.510690	0.489310	0.412900
C1701	C170	0.521150	0.478850	0.316500
C1711	C171	0.563030	0.436970	0.235400
C1721	C172	0.588840	0.411160	0.068600
H881	H88	0.597300	0.402700	0.011500
O941	O94	0.550550	0.449450	0.322400
C1731	C173	0.978620	0.489310	0.412900
C1741	C174	0.957700	0.478850	0.316500
C1751	C175	0.873940	0.436970	0.235400
C1761	C176	0.822320	0.411160	0.068600
H891	H89	0.805400	0.402700	0.011500
O951	O95	0.898900	0.449450	0.322400
C1771	C177	0.510690	0.021380	0.412900
C1781	C178	0.521150	0.042300	0.316500
C1791	C179	0.563030	0.126060	0.235400
C1801	C180	0.588840	0.177680	0.068600
H901	H90	0.597300	0.194600	0.011500
O961	O96	0.550550	0.101100	0.322400
