data_GOXGAD_clean_PM
_symmetry_space_group_name_H-M	'P1'
_cell_length_a	7.989600
_cell_length_b	10.083100
_cell_length_c	15.036700
_cell_angle_alpha	79.462400
_cell_angle_beta	74.593300
_cell_angle_gamma	66.660000
_symmetry_Int_Tables_number 1

loop_
_symmetry_equiv_pos_as_xyz
'x,y,z'

loop_
_atom_site_label
_atom_site_type_symbol
_atom_site_fract_x
_atom_site_fract_y
_atom_site_fract_z
Cd11	Cd1	0.330120	0.219010	0.532370
Cd21	Cd2	0.081500	0.780990	0.467630
Cd31	Cd3	0.517440	0.898170	0.253710
Cd41	Cd4	0.669320	0.101830	0.746290
H11	H1	0.566500	0.253200	0.004000
H21	H2	0.800100	0.515300	0.746300
H31	H3	0.980100	0.085400	0.190800
H41	H4	0.207100	0.340800	0.991200
H51	H5	0.143100	0.599100	0.758500
H61	H6	0.823700	0.746800	0.996000
H71	H7	0.061700	0.484700	0.253700
H81	H8	0.309200	0.712800	0.913800
H91	H9	0.935800	0.287200	0.086200
H101	H10	0.500700	0.400900	0.241500
H111	H11	0.539100	0.659200	0.008800
H121	H12	0.256300	0.914600	0.809200
C11	C1	0.076400	0.283000	0.305200
C21	C2	0.517000	0.414800	0.177400
C31	C3	0.820900	0.719800	0.613600
C41	C4	0.968500	0.694700	0.870100
C51	C5	0.998300	0.165300	0.203100
C61	C6	0.971500	0.285600	0.140600
C71	C7	0.054100	0.160900	0.287500
C81	C8	0.201000	0.456200	0.866600
C91	C9	0.523800	0.662600	0.182000
C101	C10	0.154300	0.280200	0.386400
C111	C11	0.564700	0.593200	0.840600
C121	C12	0.366700	0.834700	0.796900
C131	C13	0.006400	0.544600	0.012000
C141	C14	0.526900	0.164100	0.175500
C151	C15	0.149500	0.430600	0.961200
C161	C16	0.397700	0.714400	0.859400
C171	C17	0.502500	0.839100	0.712500
C181	C18	0.998500	0.406800	0.159400
C191	C19	0.368400	0.337400	0.818000
C201	C20	0.047400	0.403400	0.241000
C211	C21	0.563000	0.455400	0.988000
C221	C22	0.664600	0.717000	0.694800
C231	C23	0.541300	0.569400	0.038800
C241	C24	0.109200	0.585200	0.822600
C251	C25	0.078800	0.031200	0.348200
C261	C26	0.919500	0.672700	0.963500
C271	C27	0.691800	0.596600	0.759000
C281	C28	0.458200	0.968800	0.651800
C291	C29	0.866500	0.835900	0.824500
C301	C30	0.523800	0.543800	0.133400
C311	C31	0.555700	0.327300	0.036500
C321	C32	0.533300	0.305300	0.129900
O11	O1	0.422400	0.214700	0.858700
O21	O2	0.924400	0.871900	0.737700
O31	O3	0.956200	0.538800	0.103800
O41	O4	0.598800	0.461200	0.896200
O51	O5	0.796000	0.833600	0.560600
O61	O6	0.479300	0.081600	0.663000
O71	O7	0.554700	0.633800	0.265400
O81	O8	0.223900	0.918400	0.337000
O91	O9	0.941300	0.023400	0.414200
O101	O10	0.501600	0.081300	0.131100
O111	O11	0.534000	0.128100	0.262300
O121	O12	0.453900	0.366200	0.734600
O131	O13	0.495800	0.785300	0.141300
O141	O14	0.170100	0.389500	0.402900
O151	O15	0.378900	0.976600	0.585800
O161	O16	0.962500	0.610500	0.597100
O171	O17	0.190200	0.166400	0.439400
O181	O18	0.714000	0.918700	0.868900
