data_GOXMEN_clean_PM
_symmetry_space_group_name_H-M	'P1'
_cell_length_a	10.402000
_cell_length_b	16.373000
_cell_length_c	17.065700
_cell_angle_alpha	61.333900
_cell_angle_beta	87.319300
_cell_angle_gamma	84.404900
_symmetry_Int_Tables_number 1

loop_
_symmetry_equiv_pos_as_xyz
'x,y,z'

loop_
_atom_site_label
_atom_site_type_symbol
_atom_site_fract_x
_atom_site_fract_y
_atom_site_fract_z
Co11	Co1	0.045900	0.693740	0.053200
Co21	Co2	0.546400	0.370470	0.698780
H11	H1	0.806900	0.713600	0.314600
H21	H2	0.316600	0.674500	0.140800
H31	H3	0.688600	0.418300	0.961400
H41	H4	0.725400	0.553400	0.416600
H51	H5	0.818700	0.258500	0.789400
H61	H6	0.517000	0.377800	0.889800
H71	H7	0.559500	0.630400	0.183000
H81	H8	0.276500	0.387500	0.788400
H91	H9	0.778800	0.624000	0.138400
H101	H10	0.278700	0.718600	0.714800
H111	H11	0.235600	0.796600	0.538200
H121	H12	0.284500	0.275000	0.727000
H131	H13	0.738300	0.005000	0.634800
H141	H14	0.561300	0.188400	0.904400
H151	H15	0.931400	0.105700	0.609600
H161	H16	0.257800	0.966700	0.936400
H171	H17	0.011500	0.458900	0.757600
H181	H18	0.194900	0.593500	0.859400
H191	H19	0.208400	0.260300	0.376800
H201	H20	0.036800	0.315200	0.277800
H211	H21	0.013200	0.477900	0.163600
H221	H22	0.006400	0.757600	0.205800
H231	H23	0.094600	0.219400	0.762000
H241	H24	0.541200	0.103800	0.580000
H251	H25	0.386900	0.458800	0.416200
H261	H26	0.501300	0.606100	0.531800
H271	H27	0.802300	0.463400	0.717600
H281	H28	0.832000	0.522600	0.940800
H291	H29	0.453400	0.768200	0.484000
H301	H30	0.425800	0.056900	0.949000
H311	H31	0.899000	0.992600	0.851800
H321	H32	0.355900	0.367800	0.368000
H331	H33	0.528600	0.241600	0.596400
C11	C1	0.096000	0.356200	0.274400
C21	C2	0.407000	0.723100	0.529600
C31	C3	0.540000	0.504100	0.430400
C41	C4	0.597500	0.196000	0.619200
C51	C5	0.608000	0.119100	0.603200
C61	C6	0.439800	0.627800	0.560400
C71	C7	0.016500	0.567400	0.905000
C81	C8	0.280000	0.605700	0.680800
C91	C9	0.412600	0.115700	0.899600
C101	C10	0.451600	0.497800	0.385600
C111	C11	0.283500	0.697900	0.672600
C121	C12	0.849700	0.105900	0.634200
C131	C13	0.080300	0.964900	0.908200
C141	C14	0.092400	0.155100	0.795800
C151	C15	0.254000	0.468900	0.269000
C161	C16	0.120800	0.568200	0.855400
C171	C17	0.491800	0.186500	0.873200
C181	C18	0.811400	0.652200	0.168400
C191	C19	0.983400	0.115500	0.800000
C201	C20	0.198000	0.323200	0.334400
C211	C21	0.902200	0.523600	0.904600
C221	C22	0.653400	0.600400	0.295800
C231	C23	0.012100	0.486400	0.794200
C241	C24	0.337200	0.234700	0.775400
C251	C25	0.298700	0.447800	0.750800
C261	C26	0.116100	0.530400	0.797800
C271	C27	0.284800	0.385100	0.330600
C281	C28	0.078600	0.453400	0.206200
C291	C29	0.194000	0.104300	0.838600
C301	C30	0.754000	0.440800	0.770000
C311	C31	0.691700	0.419400	0.906400
C321	C32	0.687000	0.201200	0.667000
C331	C33	0.024800	0.608000	0.969200
C341	C34	0.446400	0.549100	0.287400
C351	C35	0.598300	0.395100	0.866000
C361	C36	0.936500	0.727200	0.204000
C371	C37	0.823900	0.698900	0.268600
C381	C38	0.973100	0.019600	0.852800
C391	C39	0.542000	0.448200	0.530800
C401	C40	0.186600	0.002500	0.902000
C411	C41	0.898900	0.485700	0.853400
C421	C42	0.066900	0.863300	0.962200
C431	C43	0.804000	0.144100	0.689600
C441	C44	0.731700	0.066100	0.625400
C451	C45	0.167000	0.502900	0.211800
C461	C46	0.373000	0.566100	0.637800
C471	C47	0.554000	0.598800	0.245000
C481	C48	0.297000	0.748700	0.572800
C491	C49	0.283300	0.616500	0.171800
C501	C50	0.655000	0.554300	0.384400
C511	C51	0.800700	0.235600	0.751000
N11	N1	0.308000	0.146300	0.839600
N21	N2	0.914600	0.699000	0.142800
N31	N3	0.785600	0.444200	0.845800
N41	N4	0.869500	0.170600	0.745800
N51	N5	0.395800	0.467400	0.696800
N61	N6	0.226000	0.533800	0.745600
N71	N7	0.447000	0.253600	0.791400
N81	N8	0.700300	0.267800	0.696600
N91	N9	0.644500	0.400400	0.782600
N101	N10	0.337500	0.547800	0.240600
N111	N11	0.176600	0.597100	0.149400
N121	N12	0.754900	0.649100	0.247200
O11	O1	0.464200	0.400400	0.572200
O21	O2	0.940600	0.599200	0.025000
O31	O3	0.109100	0.664800	0.951000
O41	O4	0.637000	0.471200	0.572200
O51	O5	0.146500	0.816300	0.027400
O61	O6	0.972300	0.827100	0.951200
Co31	Co3	0.545900	0.746940	0.946800
Co41	Co4	0.046400	0.069250	0.301220
H341	H34	0.332000	0.463400	0.059200
H351	H35	0.816600	0.815300	0.859200
H361	H36	0.041200	0.683800	0.420000
H371	H37	0.855900	0.735800	0.632000
H381	H38	0.061300	0.092800	0.095600
H391	H39	0.694900	0.452900	0.140600
H401	H40	0.953400	0.252200	0.516000
H411	H41	0.306900	0.028200	0.685400
H421	H42	0.017000	0.267600	0.110200
H431	H43	0.278800	0.762400	0.861600
H441	H44	0.708400	0.637100	0.623200
H451	H45	0.925800	0.005900	0.051000
H461	H46	0.028600	0.838000	0.403600
H471	H47	0.778700	0.433400	0.285200
H481	H48	0.302300	0.181000	0.282400
H491	H49	0.318700	0.047900	0.210600
H501	H50	0.776500	0.175900	0.211600
H511	H51	0.784500	0.002000	0.273000
H521	H52	0.511500	0.216500	0.242400
H531	H53	0.886900	0.875000	0.583800
H541	H54	0.188600	0.379700	0.038600
H551	H55	0.059500	0.813400	0.817000
H561	H56	0.399000	0.844400	0.148200
H571	H57	0.594600	0.981400	0.238000
H581	H58	0.238300	0.639800	0.365200
H591	H59	0.735600	0.334800	0.461800
H601	H60	0.506400	0.963400	0.794200
H611	H61	0.513200	0.641500	0.836400
H621	H62	0.431400	0.715300	0.390400
H631	H63	0.536800	0.593000	0.722200
H641	H64	0.001300	0.137900	0.468200
H651	H65	0.225400	0.970000	0.583400
H661	H66	0.757800	0.903100	0.063600
C521	C52	0.436500	0.931200	0.796000
C531	C53	0.042000	0.979000	0.469200
C541	C54	0.524800	0.577200	0.030800
C551	C55	0.667000	0.714700	0.788200
C561	C56	0.592400	0.950900	0.204200
C571	C57	0.837200	0.010100	0.224600
C581	C58	0.097500	0.815200	0.380800
C591	C59	0.686600	0.904500	0.098000
C601	C60	0.596000	0.630600	0.725600
C611	C61	0.473100	0.872400	0.147200
C621	C62	0.907000	0.252700	0.470400
C631	C63	0.155000	0.938700	0.615600
C641	C64	0.578600	0.659600	0.793800
C651	C65	0.108000	0.722300	0.396800
C661	C66	0.783500	0.370500	0.327400
C671	C67	0.912600	0.015300	0.100400
C681	C68	0.797000	0.321500	0.427200
C691	C69	0.616100	0.328200	0.202200
C701	C70	0.191700	0.325800	0.093600
C711	C71	0.254000	0.210800	0.230000
C721	C72	0.798700	0.198600	0.249200
C731	C73	0.698000	0.657600	0.665600
C741	C74	0.349700	0.740100	0.365800
C751	C75	0.939800	0.188200	0.439600
C761	C76	0.483400	0.915500	0.200000
C771	C77	0.784800	0.715700	0.669400
C781	C78	0.580300	0.873100	0.091800
C791	C79	0.398900	0.339100	0.146600
C801	C80	0.783300	0.788300	0.828200
C811	C81	0.054000	0.843800	0.755000
C821	C82	0.187000	0.868200	0.333000
C831	C83	0.311400	0.820600	0.831600
C841	C84	0.153400	0.896200	0.704200
C851	C85	0.694000	0.942900	0.161400
C861	C86	0.754000	0.737900	0.731000
C871	C87	0.512100	0.280600	0.205800
C881	C88	0.780000	0.286500	0.319200
C891	C89	0.991800	0.059700	0.126800
C901	C90	0.951600	0.883400	0.614400
C911	C91	0.231700	0.691500	0.374600
C921	C92	0.516500	0.472400	0.095000
C931	C93	0.098300	0.261100	0.134000
C941	C94	0.304000	0.833700	0.310400
C951	C95	0.946400	0.836500	0.712600
C961	C96	0.620800	0.423600	0.144600
C971	C97	0.040000	0.934500	0.569600
C981	C98	0.300700	0.986600	0.249000
C991	C99	0.323900	0.967500	0.731400
C1001	C100	0.873000	0.203900	0.362200
C1011	C101	0.566900	0.825500	0.037800
C1021	C102	0.402200	0.428200	0.095400
N131	N13	0.676600	0.746500	0.850600
N141	N14	0.726000	0.279400	0.254400
N151	N15	0.369500	0.916400	0.254200
N161	N16	0.254900	0.896300	0.752800
N171	N17	0.808000	0.985900	0.160400
N181	N18	0.414600	0.841800	0.857200
N191	N19	0.200300	0.964400	0.303400
N201	N20	0.837500	0.788400	0.759400
N211	N21	0.144500	0.183000	0.217400
N221	N22	0.285600	0.290000	0.154200
N231	N23	0.947000	0.045000	0.208600
N241	N24	0.895800	0.164200	0.303200
O71	O7	0.440600	0.624200	0.975000
O81	O8	0.472300	0.778300	0.048800
O91	O9	0.646500	0.843700	0.972600
O101	O10	0.964200	0.972600	0.427800
O111	O11	0.137000	0.043400	0.427800
O121	O12	0.609100	0.615800	0.049000
