data_GOYPAN_clean_PM
_symmetry_space_group_name_H-M	'P1'
_cell_length_a	8.723800
_cell_length_b	11.627200
_cell_length_c	8.274700
_cell_angle_alpha	90.000000
_cell_angle_beta	90.000000
_cell_angle_gamma	90.000000
_symmetry_Int_Tables_number 1

loop_
_symmetry_equiv_pos_as_xyz
'x,y,z'

loop_
_atom_site_label
_atom_site_type_symbol
_atom_site_fract_x
_atom_site_fract_y
_atom_site_fract_z
O11	O1	0.583870	0.322270	0.589000
O21	O2	0.238080	0.094750	0.383670
O31	O3	0.412360	0.316890	0.395000
C11	C1	0.470150	0.280010	0.522530
H11	H1	0.422000	0.212300	0.571100
O41	O4	0.916130	0.677730	0.589000
O51	O5	0.261920	0.905250	0.383670
O61	O6	0.087640	0.683110	0.395000
C21	C2	0.029850	0.719990	0.522530
H21	H2	0.078000	0.787700	0.571100
O71	O7	0.916130	0.822270	0.911000
O81	O8	0.261920	0.594750	0.116330
O91	O9	0.087640	0.816890	0.105000
C31	C3	0.029850	0.780010	0.977470
H31	H3	0.078000	0.712300	0.928900
O101	O10	0.583870	0.177730	0.911000
O111	O11	0.238080	0.405250	0.116330
O121	O12	0.412360	0.183110	0.105000
C41	C4	0.470150	0.219990	0.977470
H41	H4	0.422000	0.287700	0.928900
O131	O13	0.416130	0.677730	0.411000
O141	O14	0.761920	0.905250	0.616330
O151	O15	0.587640	0.683110	0.605000
C51	C5	0.529850	0.719990	0.477470
H51	H5	0.578000	0.787700	0.428900
O161	O16	0.083870	0.322270	0.411000
O171	O17	0.738080	0.094750	0.616330
O181	O18	0.912360	0.316890	0.605000
C61	C6	0.970150	0.280010	0.477470
H61	H6	0.922000	0.212300	0.428900
O191	O19	0.083870	0.177730	0.089000
O201	O20	0.738080	0.405250	0.883670
O211	O21	0.912360	0.183110	0.895000
C71	C7	0.970150	0.219990	0.022530
H71	H7	0.922000	0.287700	0.071100
O221	O22	0.416130	0.822270	0.089000
O231	O23	0.761920	0.594750	0.883670
O241	O24	0.587640	0.816890	0.895000
C81	C8	0.529850	0.780010	0.022530
H81	H8	0.578000	0.712300	0.071100
Co11	Co1	0.237200	0.250000	0.250000
Co21	Co2	0.262800	0.750000	0.250000
Co31	Co3	0.762800	0.750000	0.750000
Co41	Co4	0.737200	0.250000	0.750000
C91	C9	0.250000	0.000000	0.314300
H91	H9	0.250000	0.000000	0.201900
C101	C10	0.250000	0.500000	0.185700
H101	H10	0.250000	0.500000	0.298100
C111	C11	0.750000	0.000000	0.685700
H111	H11	0.750000	0.000000	0.798100
C121	C12	0.750000	0.500000	0.814300
H121	H12	0.750000	0.500000	0.701900
