data_GOYXID_clean_PM
_symmetry_space_group_name_H-M	'P1'
_cell_length_a	9.516400
_cell_length_b	12.044700
_cell_length_c	16.828000
_cell_angle_alpha	96.507000
_cell_angle_beta	90.000000
_cell_angle_gamma	113.269000
_symmetry_Int_Tables_number 1

loop_
_symmetry_equiv_pos_as_xyz
'x,y,z'

loop_
_atom_site_label
_atom_site_type_symbol
_atom_site_fract_x
_atom_site_fract_y
_atom_site_fract_z
Gd11	Gd1	0.304510	0.009080	0.934320
Gd21	Gd2	0.295430	0.990920	0.565680
Gd31	Gd3	0.704570	0.009080	0.434320
Gd41	Gd4	0.695490	0.990920	0.065680
Ag11	Ag1	0.038250	0.317840	0.583320
Ag21	Ag2	0.279590	0.317840	0.083320
Ag31	Ag3	0.720410	0.682160	0.916680
Ag41	Ag4	0.961750	0.682160	0.416680
H11	H1	0.750900	0.697200	0.552700
H21	H2	0.426800	0.808600	0.719800
H31	H3	0.430700	0.421000	0.370500
H41	H4	0.569300	0.579000	0.629500
H51	H5	0.053700	0.302800	0.947300
H61	H6	0.033500	0.900000	0.167700
H71	H7	0.133500	0.100000	0.332300
H81	H8	0.133800	0.628200	0.881700
H91	H9	0.381800	0.808600	0.219800
H101	H10	0.618200	0.191400	0.780200
H111	H11	0.464900	0.705200	0.819200
H121	H12	0.866200	0.371800	0.118300
H131	H13	0.505600	0.371800	0.618300
H141	H14	0.249100	0.302800	0.447300
H151	H15	0.411100	0.584000	0.042100
H161	H16	0.891100	0.801400	0.773300
H171	H17	0.866500	0.900000	0.667700
H181	H18	0.089700	0.198600	0.726700
H191	H19	0.535100	0.294800	0.180800
H201	H20	0.827100	0.416000	0.457900
H211	H21	0.240300	0.705200	0.319200
H221	H22	0.990300	0.421000	0.870500
H231	H23	0.759700	0.294800	0.680800
H241	H24	0.009700	0.579000	0.129500
H251	H25	0.573200	0.191400	0.280200
H261	H26	0.946300	0.697200	0.052700
H271	H27	0.910300	0.801400	0.273300
H281	H28	0.494400	0.628200	0.381700
H291	H29	0.172900	0.584000	0.542100
H301	H30	0.966500	0.100000	0.832300
H311	H31	0.588900	0.416000	0.957900
H321	H32	0.108900	0.198600	0.226700
C11	C1	0.784000	0.864200	0.699000
C21	C2	0.619400	0.543800	0.594100
C31	C3	0.389200	0.762200	0.975600
C41	C4	0.661000	0.370400	0.536400
C51	C5	0.838400	0.420800	0.088100
C61	C6	0.373000	0.762200	0.475600
C71	C7	0.035900	0.069200	0.011600
C81	C8	0.356800	0.129800	0.315200
C91	C9	0.324500	0.551600	0.007600
C101	C10	0.610800	0.237800	0.024400
C111	C11	0.964100	0.930800	0.988400
C121	C12	0.796400	0.803000	0.761900
C131	C13	0.114600	0.385800	0.951500
C141	C14	0.728800	0.614200	0.548500
C151	C15	0.080200	0.864200	0.199000
C161	C16	0.677700	0.056400	0.878600
C171	C17	0.773000	0.129800	0.815200
C181	C18	0.033300	0.069200	0.511600
C191	C19	0.292300	0.070400	0.755400
C201	C20	0.227100	0.551600	0.507600
C211	C21	0.799900	0.252400	0.710300
C221	C22	0.924400	0.543800	0.094100
C231	C23	0.523200	0.809000	0.729500
C241	C24	0.161600	0.579200	0.911900
C251	C25	0.216000	0.135800	0.301000
C261	C26	0.993400	0.197000	0.738100
C271	C27	0.714200	0.191000	0.770500
C281	C28	0.075600	0.456200	0.905900
C291	C29	0.322300	0.943600	0.121400
C301	C30	0.772900	0.448400	0.492400
C311	C31	0.271200	0.385800	0.451500
C321	C32	0.582400	0.420800	0.588100
C331	C33	0.227000	0.870200	0.184800
C341	C34	0.627000	0.237800	0.524400
C351	C35	0.621300	0.943600	0.621400
C361	C36	0.203600	0.197000	0.238100
C371	C37	0.675500	0.448400	0.992400
C381	C38	0.378700	0.056400	0.378600
C391	C39	0.221900	0.929600	0.744600
C401	C40	0.380600	0.456200	0.405900
C411	C41	0.200100	0.747600	0.289700
C421	C42	0.919800	0.135800	0.801000
C431	C43	0.290600	0.629600	0.963600
C441	C44	0.417600	0.579200	0.411900
C451	C45	0.707700	0.929600	0.244600
C461	C46	0.966700	0.930800	0.488400
C471	C47	0.476800	0.191000	0.270500
C481	C48	0.006600	0.803000	0.261900
C491	C49	0.778100	0.070400	0.255400
C501	C50	0.885400	0.614200	0.048500
C511	C51	0.643200	0.870200	0.684800
C521	C52	0.547500	0.747600	0.789700
C531	C53	0.339000	0.629600	0.463600
C541	C54	0.709400	0.370400	0.036400
C551	C55	0.285800	0.809000	0.229500
C561	C56	0.452500	0.252400	0.210300
N11	N1	0.065100	0.746600	0.306800
N21	N2	0.761900	0.568200	0.997500
N31	N3	0.806300	0.568200	0.497500
N41	N4	0.934900	0.253400	0.693200
N51	N5	0.318500	0.253400	0.193200
N61	N6	0.681500	0.746600	0.806800
N71	N7	0.238100	0.431800	0.002500
N81	N8	0.193700	0.431800	0.502500
O11	O1	0.819100	0.123000	0.325000
O21	O2	0.668700	0.880400	0.307100
O31	O3	0.500300	0.040600	0.377800
O41	O4	0.744300	0.018200	0.926600
O51	O5	0.478900	0.205400	0.994400
O61	O6	0.726100	0.981800	0.573400
O71	O7	0.180900	0.877000	0.675000
O81	O8	0.851400	0.885000	0.440600
O91	O9	0.273900	0.018200	0.426600
O101	O10	0.788300	0.119600	0.192900
O111	O11	0.211700	0.880400	0.807100
O121	O12	0.966400	0.115000	0.059400
O131	O13	0.255700	0.981800	0.073400
O141	O14	0.967200	0.127400	0.482200
O151	O15	0.303900	0.123000	0.825000
O161	O16	0.521100	0.794600	0.005600
O171	O17	0.500900	0.170000	0.546400
O181	O18	0.839800	0.872600	0.017800
O191	O19	0.696100	0.877000	0.175000
O201	O20	0.499700	0.959400	0.622200
O211	O21	0.499100	0.830000	0.453600
O221	O22	0.330900	0.830000	0.953600
O231	O23	0.032800	0.872600	0.517800
O241	O24	0.669100	0.170000	0.046400
O251	O25	0.148600	0.115000	0.559400
O261	O26	0.033600	0.885000	0.940600
O271	O27	0.160200	0.127400	0.982200
O281	O28	0.459700	0.959400	0.122200
O291	O29	0.273500	0.794600	0.505600
O301	O30	0.726500	0.205400	0.494400
O311	O31	0.540300	0.040600	0.877800
O321	O32	0.331300	0.119600	0.692900
