data_GOYYIE_clean_PM
_symmetry_space_group_name_H-M	'P1'
_cell_length_a	9.378000
_cell_length_b	11.999100
_cell_length_c	16.508000
_cell_angle_alpha	96.197300
_cell_angle_beta	90.000000
_cell_angle_gamma	113.003000
_symmetry_Int_Tables_number 1

loop_
_symmetry_equiv_pos_as_xyz
'x,y,z'

loop_
_atom_site_label
_atom_site_type_symbol
_atom_site_fract_x
_atom_site_fract_y
_atom_site_fract_z
Yb11	Yb1	0.802600	0.009400	0.934100
Yb21	Yb2	0.793200	0.990600	0.565900
Yb31	Yb3	0.206800	0.009400	0.434100
Yb41	Yb4	0.197400	0.990600	0.065900
Ag11	Ag1	0.533790	0.318040	0.579250
Ag21	Ag2	0.215750	0.681960	0.920750
Ag31	Ag3	0.784250	0.318040	0.079250
Ag41	Ag4	0.466210	0.681960	0.420750
H11	H1	0.043300	0.300200	0.183700
H21	H2	0.956700	0.699800	0.816300
H31	H3	0.436200	0.694600	0.061300
H41	H4	0.410200	0.804200	0.275000
H51	H5	0.741600	0.305400	0.438700
H61	H6	0.589800	0.195800	0.725000
H71	H7	0.256900	0.300200	0.683700
H81	H8	0.888900	0.812600	0.220300
H91	H9	0.667300	0.584600	0.539200
H101	H10	0.989500	0.362800	0.614200
H111	H11	0.631700	0.098400	0.331900
H121	H12	0.533300	0.901600	0.168100
H131	H13	0.373300	0.362800	0.114200
H141	H14	0.606000	0.195800	0.225000
H151	H15	0.466700	0.098400	0.831900
H161	H16	0.743100	0.699800	0.316300
H171	H17	0.111100	0.187400	0.779700
H181	H18	0.510700	0.568600	0.133300
H191	H19	0.368300	0.901600	0.668100
H201	H20	0.076300	0.187400	0.279700
H211	H21	0.917300	0.584600	0.039200
H221	H22	0.923700	0.812600	0.720300
H231	H23	0.626700	0.637200	0.885800
H241	H24	0.942100	0.431400	0.366700
H251	H25	0.394000	0.804200	0.775000
H261	H26	0.258400	0.694600	0.561300
H271	H27	0.563800	0.305400	0.938700
H281	H28	0.057900	0.568600	0.633300
H291	H29	0.332700	0.415400	0.460800
H301	H30	0.489300	0.431400	0.866700
H311	H31	0.010500	0.637200	0.385800
H321	H32	0.082700	0.415400	0.960800
C11	C1	0.341900	0.414200	0.087300
C21	C2	0.702700	0.195600	0.237300
C31	C3	0.297300	0.804400	0.762700
C41	C4	0.879600	0.766600	0.476200
C51	C5	0.139700	0.871400	0.683700
C61	C6	0.275400	0.069600	0.255100
C71	C7	0.658100	0.585800	0.912700
C81	C8	0.284200	0.865200	0.699700
C91	C9	0.724600	0.930400	0.744900
C101	C10	0.296500	0.254400	0.711500
C111	C11	0.791000	0.633400	0.963900
C121	C12	0.170200	0.052400	0.878800
C131	C13	0.620700	0.389200	0.946700
C141	C14	0.790000	0.810600	0.229100
C151	C15	0.117800	0.947600	0.621200
C161	C16	0.927700	0.585800	0.412700
C171	C17	0.979400	0.189400	0.270900
C181	C18	0.768500	0.389200	0.446700
C191	C19	0.957900	0.254400	0.211500
C201	C20	0.231500	0.610800	0.553300
C211	C21	0.882200	0.052400	0.378800
C221	C22	0.507100	0.804400	0.262700
C231	C23	0.172200	0.446800	0.994600
C241	C24	0.575800	0.465000	0.902700
C251	C25	0.210000	0.189400	0.770900
C261	C26	0.731700	0.871400	0.183700
C271	C27	0.492900	0.195600	0.737300
C281	C28	0.827800	0.553200	0.005400
C291	C29	0.268300	0.128600	0.816300
C301	C30	0.157600	0.366600	0.536100
C311	C31	0.020600	0.810600	0.729100
C321	C32	0.113000	0.233400	0.023800
C331	C33	0.829800	0.947600	0.121200
C341	C34	0.466800	0.932400	0.490000
C351	C35	0.842400	0.633400	0.463900
C361	C36	0.581000	0.865200	0.199700
C371	C37	0.725400	0.553200	0.505400
C381	C38	0.534400	0.067600	0.010000
C391	C39	0.072300	0.414200	0.587300
C401	C40	0.889200	0.465000	0.402700
C411	C41	0.110800	0.535000	0.597300
C421	C42	0.419000	0.134800	0.800300
C431	C43	0.715800	0.134800	0.300300
C441	C44	0.794200	0.069600	0.755100
C451	C45	0.424200	0.535000	0.097300
C461	C46	0.205800	0.930400	0.244900
C471	C47	0.274600	0.446800	0.494600
C481	C48	0.042100	0.745600	0.788500
C491	C49	0.533200	0.067600	0.510000
C501	C50	0.209000	0.366600	0.036100
C511	C51	0.860300	0.128600	0.316300
C521	C52	0.465600	0.932400	0.990000
C531	C53	0.887000	0.766600	0.976200
C541	C54	0.379300	0.610800	0.053300
C551	C55	0.703500	0.745600	0.288500
C561	C56	0.120400	0.233400	0.523800
N11	N1	0.691200	0.434200	0.499900
N21	N2	0.257000	0.565800	0.000100
N31	N3	0.308800	0.565800	0.500100
N41	N4	0.565500	0.745400	0.307600
N51	N5	0.820100	0.254600	0.192400
N61	N6	0.434500	0.254600	0.692400
N71	N7	0.179900	0.745400	0.807600
N81	N8	0.743000	0.434200	0.999900
O11	O1	0.975000	0.197800	0.991500
O21	O2	0.967600	0.963400	0.124000
O31	O3	0.991000	0.161600	0.544900
O41	O4	0.461800	0.116800	0.055700
O51	O5	0.338300	0.873800	0.020800
O61	O6	0.222800	0.197800	0.491500
O71	O7	0.170600	0.161600	0.044900
O81	O8	0.223600	0.990400	0.572500
O91	O9	0.004200	0.036600	0.376000
O101	O10	0.803700	0.122600	0.825800
O111	O11	0.538200	0.883200	0.944300
O121	O12	0.233200	0.009600	0.927500
O131	O13	0.995800	0.963400	0.624000
O141	O14	0.025000	0.802200	0.008500
O151	O15	0.826600	0.118800	0.690700
O161	O16	0.707800	0.881200	0.809300
O171	O17	0.655000	0.116800	0.555700
O181	O18	0.009000	0.838400	0.455100
O191	O19	0.345000	0.883200	0.444300
O201	O20	0.766800	0.990400	0.072500
O211	O21	0.318900	0.122600	0.325800
O221	O22	0.196300	0.877400	0.174200
O231	O23	0.829400	0.838400	0.955100
O241	O24	0.173400	0.881200	0.309300
O251	O25	0.777200	0.802200	0.508500
O261	O26	0.776400	0.009600	0.427500
O271	O27	0.292200	0.118800	0.190700
O281	O28	0.681100	0.877400	0.674200
O291	O29	0.464500	0.126200	0.479200
O301	O30	0.032400	0.036600	0.876000
O311	O31	0.661700	0.126200	0.979200
O321	O32	0.535500	0.873800	0.520800
