data_GOYYAW_clean_PM
_symmetry_space_group_name_H-M	'P1'
_cell_length_a	9.459000
_cell_length_b	12.048100
_cell_length_c	16.683000
_cell_angle_alpha	96.055300
_cell_angle_beta	90.000000
_cell_angle_gamma	113.113000
_symmetry_Int_Tables_number 1

loop_
_symmetry_equiv_pos_as_xyz
'x,y,z'

loop_
_atom_site_label
_atom_site_type_symbol
_atom_site_fract_x
_atom_site_fract_y
_atom_site_fract_z
Ho11	Ho1	0.303430	0.009420	0.434100
Ho21	Ho2	0.696570	0.990580	0.565900
Ho31	Ho3	0.294010	0.990580	0.065900
Ho41	Ho4	0.705990	0.009420	0.934100
Ag11	Ag1	0.034440	0.316840	0.080180
Ag21	Ag2	0.965560	0.683160	0.919820
Ag31	Ag3	0.282400	0.316840	0.580180
Ag41	Ag4	0.717600	0.683160	0.419820
H11	H1	0.424700	0.810400	0.220500
H21	H2	0.130400	0.096800	0.830500
H31	H3	0.536100	0.292000	0.681100
H41	H4	0.562500	0.573200	0.131400
H51	H5	0.575300	0.189600	0.779500
H61	H6	0.827600	0.414400	0.959300
H71	H7	0.586800	0.414400	0.459300
H81	H8	0.413200	0.585600	0.540700
H91	H9	0.501600	0.634200	0.881400
H101	H10	0.437500	0.426800	0.868600
H111	H11	0.244100	0.708000	0.818900
H121	H12	0.033600	0.903200	0.669500
H131	H13	0.051900	0.304600	0.444700
H141	H14	0.385700	0.810400	0.720500
H151	H15	0.252700	0.304600	0.944700
H161	H16	0.989300	0.426800	0.368600
H171	H17	0.614300	0.189600	0.279500
H181	H18	0.463900	0.708000	0.318900
H191	H19	0.948100	0.695400	0.555300
H201	H20	0.909500	0.802200	0.772400
H211	H21	0.172400	0.585600	0.040700
H221	H22	0.498400	0.365800	0.118600
H231	H23	0.869600	0.903200	0.169500
H241	H24	0.747300	0.695400	0.055300
H251	H25	0.090500	0.197800	0.227600
H261	H26	0.010700	0.573200	0.631400
H271	H27	0.892700	0.802200	0.272400
H281	H28	0.755900	0.292000	0.181100
H291	H29	0.107300	0.197800	0.727600
H301	H30	0.966400	0.096800	0.330500
H311	H31	0.132600	0.634200	0.381400
H321	H32	0.867400	0.365800	0.618600
C11	C1	0.711500	0.190000	0.270200
C21	C2	0.376400	0.764600	0.976500
C31	C3	0.797400	0.250600	0.211400
C41	C4	0.772400	0.446000	0.994200
C51	C5	0.214700	0.134400	0.800000
C61	C6	0.453200	0.250600	0.711400
C71	C7	0.288500	0.810000	0.729800
C81	C8	0.965100	0.930400	0.988400
C91	C9	0.925100	0.539400	0.595800
C101	C10	0.423600	0.584000	0.910900
C111	C11	0.672600	0.052800	0.378500
C121	C12	0.839600	0.416000	0.589100
C131	C13	0.726800	0.612800	0.051100
C141	C14	0.919700	0.134400	0.300000
C151	C15	0.220300	0.930200	0.244600
C161	C16	0.080300	0.865600	0.700000
C171	C17	0.614300	0.539400	0.095800
C181	C18	0.611800	0.235400	0.523500
C191	C19	0.478500	0.190000	0.770200
C201	C20	0.965300	0.930400	0.488400
C211	C21	0.546800	0.749400	0.288600
C221	C22	0.709900	0.930200	0.744600
C231	C23	0.293600	0.632600	0.464900
C241	C24	0.673600	0.446000	0.494200
C251	C25	0.623600	0.235400	0.023500
C261	C26	0.006500	0.803600	0.761300
C271	C27	0.202900	0.196400	0.738700
C281	C28	0.785300	0.865600	0.200000
C291	C29	0.772800	0.128400	0.316000
C301	C30	0.160400	0.584000	0.410900
C311	C31	0.797100	0.803600	0.261300
C321	C32	0.339000	0.632600	0.964900
C331	C33	0.074900	0.460600	0.404200
C341	C34	0.521500	0.810000	0.229800
C351	C35	0.706400	0.367400	0.535100
C361	C36	0.227600	0.554000	0.005800
C371	C37	0.886000	0.612800	0.551100
C381	C38	0.114000	0.387200	0.448900
C391	C39	0.290100	0.069800	0.255400
C401	C40	0.326400	0.554000	0.505800
C411	C41	0.661000	0.367400	0.035100
C421	C42	0.034900	0.069600	0.011600
C431	C43	0.355600	0.128400	0.816000
C441	C44	0.380200	0.052800	0.878500
C451	C45	0.644400	0.871600	0.184000
C461	C46	0.327400	0.947200	0.621500
C471	C47	0.993500	0.196400	0.238700
C481	C48	0.388200	0.764600	0.476500
C491	C49	0.273200	0.387200	0.948900
C501	C50	0.227200	0.871600	0.684000
C511	C51	0.779700	0.069800	0.755400
C521	C52	0.619800	0.947200	0.121500
C531	C53	0.034700	0.069600	0.511600
C541	C54	0.385700	0.460600	0.904200
C551	C55	0.202600	0.749400	0.788600
C561	C56	0.576400	0.416000	0.089100
N11	N1	0.809900	0.567600	0.000200
N21	N2	0.317300	0.255200	0.693700
N31	N3	0.757700	0.567600	0.500200
N41	N4	0.242300	0.432400	0.499800
N51	N5	0.937900	0.255200	0.193700
N61	N6	0.190100	0.432400	0.999800
N71	N7	0.682700	0.744800	0.306300
N81	N8	0.062100	0.744800	0.806300
O11	O1	0.462400	0.961600	0.622700
O21	O2	0.500800	0.038400	0.877300
O31	O3	0.504400	0.834400	0.955500
O41	O4	0.818400	0.122800	0.824900
O51	O5	0.738900	0.013200	0.426700
O61	O6	0.670000	0.165600	0.544500
O71	O7	0.330000	0.834400	0.455500
O81	O8	0.499200	0.961600	0.122700
O91	O9	0.839300	0.873800	0.520600
O101	O10	0.160700	0.126200	0.479400
O111	O11	0.965500	0.126200	0.979400
O121	O12	0.210700	0.880400	0.308400
O131	O13	0.522000	0.797800	0.507700
O141	O14	0.495600	0.165600	0.044500
O151	O15	0.789300	0.119600	0.691600
O161	O16	0.034500	0.873800	0.020600
O171	O17	0.181600	0.877200	0.175100
O181	O18	0.330300	0.119600	0.191600
O191	O19	0.537600	0.038400	0.377300
O201	O20	0.724200	0.202200	0.992300
O211	O21	0.725700	0.986800	0.073300
O221	O22	0.304400	0.122800	0.324900
O231	O23	0.261100	0.986800	0.573300
O241	O24	0.274300	0.013200	0.926700
O251	O25	0.478000	0.202200	0.492300
O261	O26	0.151800	0.116400	0.058200
O271	O27	0.964600	0.116400	0.558200
O281	O28	0.848200	0.883600	0.941800
O291	O29	0.035400	0.883600	0.441800
O301	O30	0.695600	0.877200	0.675100
O311	O31	0.275800	0.797800	0.007700
O321	O32	0.669700	0.880400	0.808400
