data_GOZNEQ_clean_PM
_symmetry_space_group_name_H-M	'P1'
_cell_length_a	10.676100
_cell_length_b	16.101200
_cell_length_c	18.013100
_cell_angle_alpha	103.521000
_cell_angle_beta	106.261000
_cell_angle_gamma	108.668000
_symmetry_Int_Tables_number 1

loop_
_symmetry_equiv_pos_as_xyz
'x,y,z'

loop_
_atom_site_label
_atom_site_type_symbol
_atom_site_fract_x
_atom_site_fract_y
_atom_site_fract_z
Mn11	Mn1	0.489600	0.165740	0.166870
Mn21	Mn2	0.500000	0.500000	0.500000
Mn31	Mn3	0.510400	0.834260	0.833130
H11	H1	0.671900	0.978200	0.336900
H21	H2	0.668900	0.454100	0.087300
H31	H3	0.743800	0.798700	0.952800
H41	H4	0.340300	0.689800	0.330200
H51	H5	0.321800	0.573200	0.388500
H61	H6	0.331100	0.545900	0.912700
H71	H7	0.230300	0.194300	0.551000
H81	H8	0.762000	0.693400	0.020800
H91	H9	0.689700	0.092600	0.274600
H101	H10	0.315100	0.649100	0.840500
H111	H11	0.659700	0.310200	0.669800
H121	H12	0.247200	0.311600	0.491400
H131	H13	0.310300	0.907400	0.725400
H141	H14	0.238000	0.306600	0.979200
H151	H15	0.678200	0.426800	0.611500
H161	H16	0.684900	0.350900	0.159500
H171	H17	0.769700	0.805700	0.449000
H181	H18	0.752800	0.688400	0.508600
H191	H19	0.758600	0.131500	0.773900
H201	H20	0.256800	0.982900	0.165900
H211	H21	0.241400	0.868500	0.226100
H221	H22	0.743200	0.017100	0.834100
H231	H23	0.256200	0.201300	0.047200
H241	H24	0.328100	0.021800	0.663100
W11	W1	0.038550	0.217140	0.232150
W21	W2	0.961450	0.782860	0.767850
C11	C1	0.456400	0.913300	0.287200
C21	C2	0.077300	0.127000	0.302000
C31	C3	0.670900	0.684900	0.984800
C41	C4	0.660100	0.747000	0.944200
C51	C5	0.552400	0.755600	0.385300
C61	C6	0.967200	0.758500	0.878800
C71	C7	0.679300	0.758100	0.437500
C81	C8	0.339900	0.253000	0.055800
C91	C9	0.594300	0.341000	0.122000
C101	C10	0.235700	0.325500	0.332200
C111	C11	0.543600	0.086700	0.712800
C121	C12	0.667500	0.085600	0.763800
C131	C13	0.024600	0.752400	0.662900
C141	C14	0.658500	0.018100	0.799700
C151	C15	0.332500	0.914400	0.236200
C161	C16	0.320700	0.241900	0.562500
C171	C17	0.922700	0.873000	0.698000
C181	C18	0.020500	0.348500	0.248400
C191	C19	0.585000	0.403300	0.079800
C201	C20	0.587500	0.978900	0.301700
C211	C21	0.935700	0.074400	0.143000
C221	C22	0.423800	0.689500	0.366700
C231	C23	0.205100	0.187900	0.205100
C241	C24	0.413100	0.620400	0.401000
C251	C25	0.412500	0.021100	0.698300
C261	C26	0.598300	0.047400	0.264900
C271	C27	0.668800	0.688400	0.472300
C281	C28	0.979500	0.651500	0.751600
C291	C29	0.586900	0.379600	0.599000
C301	C30	0.548500	0.610300	0.972800
C311	C31	0.415000	0.596700	0.920200
C321	C32	0.576200	0.310500	0.633300
C331	C33	0.331200	0.311600	0.527700
C341	C34	0.186100	0.819900	0.818400
C351	C35	0.451500	0.389700	0.027200
C361	C36	0.032800	0.241500	0.121200
C371	C37	0.405700	0.659000	0.878000
C381	C38	0.329100	0.315100	0.015200
C391	C39	0.064300	0.925600	0.857000
C401	C40	0.794900	0.812100	0.794900
C411	C41	0.813900	0.180100	0.181600
C421	C42	0.341500	0.981900	0.200300
C431	C43	0.401700	0.952600	0.735100
C441	C44	0.764300	0.674500	0.667800
C451	C45	0.447600	0.244400	0.614700
C461	C46	0.975400	0.247600	0.337100
N11	N1	0.692000	0.162100	0.158400
N21	N2	0.035700	0.254100	0.059800
N31	N3	0.301300	0.177100	0.189600
N41	N4	0.964300	0.745900	0.940200
N51	N5	0.554500	0.160600	0.679700
N61	N6	0.524000	0.951300	0.785300
N71	N7	0.878900	0.000800	0.091200
N81	N8	0.445500	0.839400	0.320300
N91	N9	0.336200	0.382500	0.388000
N101	N10	0.561400	0.540300	0.014900
N111	N11	0.947400	0.265900	0.395500
N121	N12	0.474400	0.266100	0.109700
N131	N13	0.903900	0.920000	0.660800
N141	N14	0.663800	0.617500	0.612000
N151	N15	0.569700	0.829800	0.354800
N161	N16	0.121100	0.999200	0.908800
N171	N17	0.438600	0.459700	0.985100
N181	N18	0.021400	0.422200	0.255600
N191	N19	0.430300	0.170200	0.645200
N201	N20	0.476000	0.048700	0.214700
N211	N21	0.096100	0.080000	0.339200
N221	N22	0.052600	0.734100	0.604500
N231	N23	0.308000	0.837900	0.841600
N241	N24	0.525600	0.733900	0.890300
N251	N25	0.536800	0.620000	0.454000
N261	N26	0.978600	0.577800	0.744400
N271	N27	0.698700	0.822900	0.810400
N281	N28	0.463200	0.380000	0.546000
