data_GUANZS_clean_PM
_symmetry_space_group_name_H-M	'P1'
_cell_length_a	9.515000
_cell_length_b	9.515000
_cell_length_c	14.351000
_cell_angle_alpha	90.000000
_cell_angle_beta	90.000000
_cell_angle_gamma	90.000000
_symmetry_Int_Tables_number 1

loop_
_symmetry_equiv_pos_as_xyz
'x,y,z'

loop_
_atom_site_label
_atom_site_type_symbol
_atom_site_fract_x
_atom_site_fract_y
_atom_site_fract_z
O11	O1	0.064700	0.168400	0.063600
O21	O2	0.883200	0.155700	0.178800
O31	O3	0.564700	0.668400	0.563600
O41	O4	0.383200	0.655700	0.678800
O51	O5	0.935300	0.831600	0.063600
O61	O6	0.116800	0.844300	0.178800
O71	O7	0.435300	0.331600	0.563600
O81	O8	0.616800	0.344300	0.678800
O91	O9	0.168400	0.935300	0.936400
O101	O10	0.155700	0.116800	0.821200
O111	O11	0.668400	0.435300	0.436400
O121	O12	0.655700	0.616800	0.321200
O131	O13	0.831600	0.064700	0.936400
O141	O14	0.844300	0.883200	0.821200
O151	O15	0.331600	0.564700	0.436400
O161	O16	0.344300	0.383200	0.321200
O171	O17	0.435300	0.168400	0.686400
O181	O18	0.616800	0.155700	0.571200
O191	O19	0.935300	0.668400	0.186400
O201	O20	0.116800	0.655700	0.071200
O211	O21	0.564700	0.831600	0.686400
O221	O22	0.383200	0.844300	0.571200
O231	O23	0.064700	0.331600	0.186400
O241	O24	0.883200	0.344300	0.071200
O251	O25	0.331600	0.935300	0.813600
O261	O26	0.344300	0.116800	0.928800
O271	O27	0.831600	0.435300	0.313600
O281	O28	0.844300	0.616800	0.428800
O291	O29	0.668400	0.064700	0.813600
O301	O30	0.655700	0.883200	0.928800
O311	O31	0.168400	0.564700	0.313600
O321	O32	0.155700	0.383200	0.428800
S11	S1	0.969400	0.250000	0.125000
S21	S2	0.030600	0.750000	0.125000
S31	S3	0.530600	0.250000	0.625000
S41	S4	0.250000	0.030600	0.875000
S51	S5	0.750000	0.530600	0.375000
S61	S6	0.750000	0.969400	0.875000
S71	S7	0.250000	0.469400	0.375000
S81	S8	0.469400	0.750000	0.625000
Zn11	Zn1	0.000000	0.000000	0.000000
Zn21	Zn2	0.500000	0.500000	0.500000
Zn31	Zn3	0.500000	0.000000	0.750000
Zn41	Zn4	0.000000	0.500000	0.250000
