data_GUBKUL_clean_PM
_symmetry_space_group_name_H-M	'P1'
_cell_length_a	13.410900
_cell_length_b	16.256800
_cell_length_c	27.902800
_cell_angle_alpha	90.000000
_cell_angle_beta	98.984000
_cell_angle_gamma	90.000000
_symmetry_Int_Tables_number 1

loop_
_symmetry_equiv_pos_as_xyz
'x,y,z'

loop_
_atom_site_label
_atom_site_type_symbol
_atom_site_fract_x
_atom_site_fract_y
_atom_site_fract_z
Ba11	Ba1	0.371810	0.743710	0.820150
Ba21	Ba2	0.650780	0.860010	0.768070
Ba31	Ba3	0.386220	0.594380	0.959000
C11	C1	0.612500	0.587700	0.814620
C21	C2	0.620900	0.673800	0.796200
O11	O1	0.685600	0.687400	0.769500
O21	O2	0.565300	0.728500	0.810140
C31	C3	0.604800	0.572800	0.862950
C41	C4	0.590500	0.644300	0.895200
O31	O3	0.502500	0.666400	0.899230
O41	O4	0.669800	0.678400	0.916710
C51	C5	0.621100	0.493600	0.881820
C61	C6	0.622100	0.477700	0.934670
O51	O5	0.562100	0.515000	0.957180
O61	O6	0.683600	0.423900	0.954190
C71	C7	0.639200	0.429100	0.851460
C81	C8	0.670200	0.344900	0.872790
O71	O7	0.601200	0.296600	0.879560
O81	O8	0.762000	0.330100	0.880960
C91	C9	0.630700	0.441900	0.801300
C101	C10	0.626000	0.371300	0.766890
O91	O9	0.686600	0.312000	0.774630
O101	O10	0.555300	0.374300	0.731140
C111	C11	0.619300	0.521800	0.783260
C121	C12	0.615400	0.539900	0.729500
O111	O11	0.691900	0.525600	0.710340
O121	O12	0.534500	0.572800	0.708630
Ba41	Ba4	0.871810	0.243710	0.320150
Ba51	Ba5	0.150780	0.360010	0.268070
Ba61	Ba6	0.886220	0.094380	0.459000
C131	C13	0.112500	0.087700	0.314620
C141	C14	0.120900	0.173800	0.296200
O131	O13	0.185600	0.187400	0.269500
O141	O14	0.065300	0.228500	0.310140
C151	C15	0.104800	0.072800	0.362950
C161	C16	0.090500	0.144300	0.395200
O151	O15	0.002500	0.166400	0.399230
O161	O16	0.169800	0.178400	0.416710
C171	C17	0.121100	0.993600	0.381820
C181	C18	0.122100	0.977700	0.434670
O171	O17	0.062100	0.015000	0.457180
O181	O18	0.183600	0.923900	0.454190
C191	C19	0.139200	0.929100	0.351460
C201	C20	0.170200	0.844900	0.372790
O191	O19	0.101200	0.796600	0.379560
O201	O20	0.262000	0.830100	0.380960
C211	C21	0.130700	0.941900	0.301300
C221	C22	0.126000	0.871300	0.266890
O211	O21	0.186600	0.812000	0.274630
O221	O22	0.055300	0.874300	0.231140
C231	C23	0.119300	0.021800	0.283260
C241	C24	0.115400	0.039900	0.229500
O231	O23	0.191900	0.025600	0.210340
O241	O24	0.034500	0.072800	0.208630
Ba71	Ba7	0.128190	0.743710	0.179850
Ba81	Ba8	0.849220	0.860010	0.231930
Ba91	Ba9	0.113780	0.594380	0.041000
C251	C25	0.887500	0.587700	0.185380
C261	C26	0.879100	0.673800	0.203800
O251	O25	0.814400	0.687400	0.230500
O261	O26	0.934700	0.728500	0.189860
C271	C27	0.895200	0.572800	0.137050
C281	C28	0.909500	0.644300	0.104800
O271	O27	0.997500	0.666400	0.100770
O281	O28	0.830200	0.678400	0.083290
C291	C29	0.878900	0.493600	0.118180
C301	C30	0.877900	0.477700	0.065330
O291	O29	0.937900	0.515000	0.042820
O301	O30	0.816400	0.423900	0.045810
C311	C31	0.860800	0.429100	0.148540
C321	C32	0.829800	0.344900	0.127210
O311	O31	0.898800	0.296600	0.120440
O321	O32	0.738000	0.330100	0.119040
C331	C33	0.869300	0.441900	0.198700
C341	C34	0.874000	0.371300	0.233110
O331	O33	0.813400	0.312000	0.225370
O341	O34	0.944700	0.374300	0.268860
C351	C35	0.880700	0.521800	0.216740
C361	C36	0.884600	0.539900	0.270500
O351	O35	0.808100	0.525600	0.289660
O361	O36	0.965500	0.572800	0.291370
Ba101	Ba10	0.628190	0.243710	0.679850
Ba111	Ba11	0.349220	0.360010	0.731930
Ba121	Ba12	0.613780	0.094380	0.541000
C371	C37	0.387500	0.087700	0.685380
C381	C38	0.379100	0.173800	0.703800
O371	O37	0.314400	0.187400	0.730500
O381	O38	0.434700	0.228500	0.689860
C391	C39	0.395200	0.072800	0.637050
C401	C40	0.409500	0.144300	0.604800
O391	O39	0.497500	0.166400	0.600770
O401	O40	0.330200	0.178400	0.583290
C411	C41	0.378900	0.993600	0.618180
C421	C42	0.377900	0.977700	0.565330
O411	O41	0.437900	0.015000	0.542820
O421	O42	0.316400	0.923900	0.545810
C431	C43	0.360800	0.929100	0.648540
C441	C44	0.329800	0.844900	0.627210
O431	O43	0.398800	0.796600	0.620440
O441	O44	0.238000	0.830100	0.619040
C451	C45	0.369300	0.941900	0.698700
C461	C46	0.374000	0.871300	0.733110
O451	O45	0.313400	0.812000	0.725370
O461	O46	0.444700	0.874300	0.768860
C471	C47	0.380700	0.021800	0.716740
C481	C48	0.384600	0.039900	0.770500
O471	O47	0.308100	0.025600	0.789660
O481	O48	0.465500	0.072800	0.791370
Ba131	Ba13	0.628190	0.256290	0.179850
Ba141	Ba14	0.349220	0.139990	0.231930
Ba151	Ba15	0.613780	0.405620	0.041000
C491	C49	0.387500	0.412300	0.185380
C501	C50	0.379100	0.326200	0.203800
O491	O49	0.314400	0.312600	0.230500
O501	O50	0.434700	0.271500	0.189860
C511	C51	0.395200	0.427200	0.137050
C521	C52	0.409500	0.355700	0.104800
O511	O51	0.497500	0.333600	0.100770
O521	O52	0.330200	0.321600	0.083290
C531	C53	0.378900	0.506400	0.118180
C541	C54	0.377900	0.522300	0.065330
O531	O53	0.437900	0.485000	0.042820
O541	O54	0.316400	0.576100	0.045810
C551	C55	0.360800	0.570900	0.148540
C561	C56	0.329800	0.655100	0.127210
O551	O55	0.398800	0.703400	0.120440
O561	O56	0.238000	0.669900	0.119040
C571	C57	0.369300	0.558100	0.198700
C581	C58	0.374000	0.628700	0.233110
O571	O57	0.313400	0.688000	0.225370
O581	O58	0.444700	0.625700	0.268860
C591	C59	0.380700	0.478200	0.216740
C601	C60	0.384600	0.460100	0.270500
O591	O59	0.308100	0.474400	0.289660
O601	O60	0.465500	0.427200	0.291370
Ba161	Ba16	0.128190	0.756290	0.679850
Ba171	Ba17	0.849220	0.639990	0.731930
Ba181	Ba18	0.113780	0.905620	0.541000
C611	C61	0.887500	0.912300	0.685380
C621	C62	0.879100	0.826200	0.703800
O611	O61	0.814400	0.812600	0.730500
O621	O62	0.934700	0.771500	0.689860
C631	C63	0.895200	0.927200	0.637050
C641	C64	0.909500	0.855700	0.604800
O631	O63	0.997500	0.833600	0.600770
O641	O64	0.830200	0.821600	0.583290
C651	C65	0.878900	0.006400	0.618180
C661	C66	0.877900	0.022300	0.565330
O651	O65	0.937900	0.985000	0.542820
O661	O66	0.816400	0.076100	0.545810
C671	C67	0.860800	0.070900	0.648540
C681	C68	0.829800	0.155100	0.627210
O671	O67	0.898800	0.203400	0.620440
O681	O68	0.738000	0.169900	0.619040
C691	C69	0.869300	0.058100	0.698700
C701	C70	0.874000	0.128700	0.733110
O691	O69	0.813400	0.188000	0.725370
O701	O70	0.944700	0.125700	0.768860
C711	C71	0.880700	0.978200	0.716740
C721	C72	0.884600	0.960100	0.770500
O711	O71	0.808100	0.974400	0.789660
O721	O72	0.965500	0.927200	0.791370
Ba191	Ba19	0.871810	0.256290	0.820150
Ba201	Ba20	0.150780	0.139990	0.768070
Ba211	Ba21	0.886220	0.405620	0.959000
C731	C73	0.112500	0.412300	0.814620
C741	C74	0.120900	0.326200	0.796200
O731	O73	0.185600	0.312600	0.769500
O741	O74	0.065300	0.271500	0.810140
C751	C75	0.104800	0.427200	0.862950
C761	C76	0.090500	0.355700	0.895200
O751	O75	0.002500	0.333600	0.899230
O761	O76	0.169800	0.321600	0.916710
C771	C77	0.121100	0.506400	0.881820
C781	C78	0.122100	0.522300	0.934670
O771	O77	0.062100	0.485000	0.957180
O781	O78	0.183600	0.576100	0.954190
C791	C79	0.139200	0.570900	0.851460
C801	C80	0.170200	0.655100	0.872790
O791	O79	0.101200	0.703400	0.879560
O801	O80	0.262000	0.669900	0.880960
C811	C81	0.130700	0.558100	0.801300
C821	C82	0.126000	0.628700	0.766890
O811	O81	0.186600	0.688000	0.774630
O821	O82	0.055300	0.625700	0.731140
C831	C83	0.119300	0.478200	0.783260
C841	C84	0.115400	0.460100	0.729500
O831	O83	0.191900	0.474400	0.710340
O841	O84	0.034500	0.427200	0.708630
Ba221	Ba22	0.371810	0.756290	0.320150
Ba231	Ba23	0.650780	0.639990	0.268070
Ba241	Ba24	0.386220	0.905620	0.459000
C851	C85	0.612500	0.912300	0.314620
C861	C86	0.620900	0.826200	0.296200
O851	O85	0.685600	0.812600	0.269500
O861	O86	0.565300	0.771500	0.310140
C871	C87	0.604800	0.927200	0.362950
C881	C88	0.590500	0.855700	0.395200
O871	O87	0.502500	0.833600	0.399230
O881	O88	0.669800	0.821600	0.416710
C891	C89	0.621100	0.006400	0.381820
C901	C90	0.622100	0.022300	0.434670
O891	O89	0.562100	0.985000	0.457180
O901	O90	0.683600	0.076100	0.454190
C911	C91	0.639200	0.070900	0.351460
C921	C92	0.670200	0.155100	0.372790
O911	O91	0.601200	0.203400	0.379560
O921	O92	0.762000	0.169900	0.380960
C931	C93	0.630700	0.058100	0.301300
C941	C94	0.626000	0.128700	0.266890
O931	O93	0.686600	0.188000	0.274630
O941	O94	0.555300	0.125700	0.231140
C951	C95	0.619300	0.978200	0.283260
C961	C96	0.615400	0.960100	0.229500
O951	O95	0.691900	0.974400	0.210340
O961	O96	0.534500	0.927200	0.208630
