data_GUDJOG_clean_PM
_symmetry_space_group_name_H-M	'P1'
_cell_length_a	32.599000
_cell_length_b	8.844900
_cell_length_c	34.246000
_cell_angle_alpha	90.000000
_cell_angle_beta	116.457000
_cell_angle_gamma	90.000000
_symmetry_Int_Tables_number 1

loop_
_symmetry_equiv_pos_as_xyz
'x,y,z'

loop_
_atom_site_label
_atom_site_type_symbol
_atom_site_fract_x
_atom_site_fract_y
_atom_site_fract_z
Sm11	Sm1	0.493380	0.878090	0.118360
C11	C1	0.889430	0.648000	0.476350
C21	C2	0.580100	0.718200	0.249240
C31	C3	0.811700	0.891200	0.332920
H11	H1	0.800000	0.803100	0.314400
H21	H2	0.840800	0.918700	0.333700
C41	C4	0.576000	0.775100	0.284780
H31	H3	0.554700	0.849700	0.281700
C51	C5	0.610960	0.602100	0.253130
H41	H4	0.611900	0.562500	0.228400
C61	C6	0.682600	0.384300	0.265680
H51	H5	0.695900	0.467600	0.256700
H61	H6	0.655300	0.351000	0.240500
C71	C7	0.716300	0.256800	0.282400
C81	C8	0.763500	0.288900	0.303800
C91	C9	0.778200	0.021100	0.314890
C101	C10	0.700400	0.104300	0.278760
N11	N1	0.670640	0.434500	0.299750
H71	H7	0.683600	0.391100	0.324800
C111	C11	0.850100	0.757400	0.404000
C121	C12	0.856300	0.743300	0.446900
H81	H8	0.837900	0.799000	0.455900
C131	C13	0.605200	0.716600	0.325700
N21	N2	0.817660	0.857300	0.376260
H91	H9	0.800100	0.901800	0.385400
C141	C14	0.639900	0.546800	0.293900
C151	C15	0.917800	0.565000	0.463080
H101	H10	0.940900	0.503500	0.482800
C161	C16	0.877700	0.670400	0.391130
H111	H11	0.873600	0.676100	0.362500
C171	C17	0.794700	0.166500	0.320600
C181	C18	0.731700	0.990200	0.295300
C191	C19	0.895700	0.635500	0.521800
C201	C20	0.780500	0.449900	0.311300
H121	H12	0.755600	0.517200	0.295100
H131	H13	0.804000	0.461800	0.301900
H141	H14	0.792800	0.473300	0.341900
C211	C21	0.636400	0.604700	0.330150
H151	H15	0.655400	0.567200	0.357800
C221	C22	0.714200	0.830800	0.291700
H161	H16	0.686400	0.830900	0.294900
H171	H17	0.736800	0.769900	0.314200
H181	H18	0.708200	0.790000	0.263700
C231	C23	0.649100	0.074600	0.258100
H191	H19	0.638600	0.047600	0.228000
H201	H20	0.633400	0.164100	0.260000
H211	H21	0.642800	0.993300	0.273200
C241	C24	0.845900	0.202100	0.344900
H221	H22	0.861100	0.123600	0.365700
H231	H23	0.850100	0.297000	0.359800
H241	H24	0.858500	0.208000	0.324400
C251	C25	0.550340	0.779700	0.204000
O11	O1	0.530030	0.907100	0.199790
O21	O2	0.545560	0.703300	0.171310
O31	O3	0.864330	0.706100	0.528070
H251	H25	0.873600	0.722400	0.554200
C261	C26	0.601200	0.769500	0.365800
O41	O4	0.634940	0.748900	0.402160
C271	C27	0.910900	0.576000	0.420320
O51	O5	0.928160	0.569900	0.549890
C281	C28	0.940800	0.488500	0.405300
O61	O6	0.972130	0.407900	0.431890
O71	O7	0.933650	0.497500	0.366400
O81	O8	0.564810	0.825200	0.361110
Sm21	Sm2	0.993380	0.378090	0.118360
C291	C29	0.389430	0.148000	0.476350
C301	C30	0.080100	0.218200	0.249240
C311	C31	0.311700	0.391200	0.332920
H261	H26	0.300000	0.303100	0.314400
H271	H27	0.340800	0.418700	0.333700
C321	C32	0.076000	0.275100	0.284780
H281	H28	0.054700	0.349700	0.281700
C331	C33	0.110960	0.102100	0.253130
H291	H29	0.111900	0.062500	0.228400
C341	C34	0.182600	0.884300	0.265680
H301	H30	0.195900	0.967600	0.256700
H311	H31	0.155300	0.851000	0.240500
C351	C35	0.216300	0.756800	0.282400
C361	C36	0.263500	0.788900	0.303800
C371	C37	0.278200	0.521100	0.314890
C381	C38	0.200400	0.604300	0.278760
N31	N3	0.170640	0.934500	0.299750
H321	H32	0.183600	0.891100	0.324800
C391	C39	0.350100	0.257400	0.404000
C401	C40	0.356300	0.243300	0.446900
H331	H33	0.337900	0.299000	0.455900
C411	C41	0.105200	0.216600	0.325700
N41	N4	0.317660	0.357300	0.376260
H341	H34	0.300100	0.401800	0.385400
C421	C42	0.139900	0.046800	0.293900
C431	C43	0.417800	0.065000	0.463080
H351	H35	0.440900	0.003500	0.482800
C441	C44	0.377700	0.170400	0.391130
H361	H36	0.373600	0.176100	0.362500
C451	C45	0.294700	0.666500	0.320600
C461	C46	0.231700	0.490200	0.295300
C471	C47	0.395700	0.135500	0.521800
C481	C48	0.280500	0.949900	0.311300
H371	H37	0.255600	0.017200	0.295100
H381	H38	0.304000	0.961800	0.301900
H391	H39	0.292800	0.973300	0.341900
C491	C49	0.136400	0.104700	0.330150
H401	H40	0.155400	0.067200	0.357800
C501	C50	0.214200	0.330800	0.291700
H411	H41	0.186400	0.330900	0.294900
H421	H42	0.236800	0.269900	0.314200
H431	H43	0.208200	0.290000	0.263700
C511	C51	0.149100	0.574600	0.258100
H441	H44	0.138600	0.547600	0.228000
H451	H45	0.133400	0.664100	0.260000
H461	H46	0.142800	0.493300	0.273200
C521	C52	0.345900	0.702100	0.344900
H471	H47	0.361100	0.623600	0.365700
H481	H48	0.350100	0.797000	0.359800
H491	H49	0.358500	0.708000	0.324400
C531	C53	0.050340	0.279700	0.204000
O91	O9	0.030030	0.407100	0.199790
O101	O10	0.045560	0.203300	0.171310
O111	O11	0.364330	0.206100	0.528070
H501	H50	0.373600	0.222400	0.554200
C541	C54	0.101200	0.269500	0.365800
O121	O12	0.134940	0.248900	0.402160
C551	C55	0.410900	0.076000	0.420320
O131	O13	0.428160	0.069900	0.549890
C561	C56	0.440800	0.988500	0.405300
O141	O14	0.472130	0.907900	0.431890
O151	O15	0.433650	0.997500	0.366400
O161	O16	0.064810	0.325200	0.361110
Sm31	Sm3	0.506620	0.878090	0.381640
C571	C57	0.110570	0.648000	0.023650
C581	C58	0.419900	0.718200	0.250760
C591	C59	0.188300	0.891200	0.167080
H511	H51	0.200000	0.803100	0.185600
H521	H52	0.159200	0.918700	0.166300
C601	C60	0.424000	0.775100	0.215220
H531	H53	0.445300	0.849700	0.218300
C611	C61	0.389040	0.602100	0.246870
H541	H54	0.388100	0.562500	0.271600
C621	C62	0.317400	0.384300	0.234320
H551	H55	0.304100	0.467600	0.243300
H561	H56	0.344700	0.351000	0.259500
C631	C63	0.283700	0.256800	0.217600
C641	C64	0.236500	0.288900	0.196200
C651	C65	0.221800	0.021100	0.185110
C661	C66	0.299600	0.104300	0.221240
N51	N5	0.329360	0.434500	0.200250
H571	H57	0.316400	0.391100	0.175200
C671	C67	0.149900	0.757400	0.096000
C681	C68	0.143700	0.743300	0.053100
H581	H58	0.162100	0.799000	0.044100
C691	C69	0.394800	0.716600	0.174300
N61	N6	0.182340	0.857300	0.123740
H591	H59	0.199900	0.901800	0.114600
C701	C70	0.360100	0.546800	0.206100
C711	C71	0.082200	0.565000	0.036920
H601	H60	0.059100	0.503500	0.017200
C721	C72	0.122300	0.670400	0.108870
H611	H61	0.126400	0.676100	0.137500
C731	C73	0.205300	0.166500	0.179400
C741	C74	0.268300	0.990200	0.204700
C751	C75	0.104300	0.635500	0.978200
C761	C76	0.219500	0.449900	0.188700
H621	H62	0.244400	0.517200	0.204900
H631	H63	0.196000	0.461800	0.198100
H641	H64	0.207200	0.473300	0.158100
C771	C77	0.363600	0.604700	0.169850
H651	H65	0.344600	0.567200	0.142200
C781	C78	0.285800	0.830800	0.208300
H661	H66	0.313600	0.830900	0.205100
H671	H67	0.263200	0.769900	0.185800
H681	H68	0.291800	0.790000	0.236300
C791	C79	0.350900	0.074600	0.241900
H691	H69	0.361400	0.047600	0.272000
H701	H70	0.366600	0.164100	0.240000
H711	H71	0.357200	0.993300	0.226800
C801	C80	0.154100	0.202100	0.155100
H721	H72	0.138900	0.123600	0.134300
H731	H73	0.149900	0.297000	0.140200
H741	H74	0.141500	0.208000	0.175600
C811	C81	0.449660	0.779700	0.296000
O171	O17	0.469970	0.907100	0.300210
O181	O18	0.454440	0.703300	0.328690
O191	O19	0.135670	0.706100	0.971930
H751	H75	0.126400	0.722400	0.945800
C821	C82	0.398800	0.769500	0.134200
O201	O20	0.365060	0.748900	0.097840
C831	C83	0.089100	0.576000	0.079680
O211	O21	0.071840	0.569900	0.950110
C841	C84	0.059200	0.488500	0.094700
O221	O22	0.027870	0.407900	0.068110
O231	O23	0.066350	0.497500	0.133600
O241	O24	0.435190	0.825200	0.138890
Sm41	Sm4	0.006620	0.378090	0.381640
C851	C85	0.610570	0.148000	0.023650
C861	C86	0.919900	0.218200	0.250760
C871	C87	0.688300	0.391200	0.167080
H761	H76	0.700000	0.303100	0.185600
H771	H77	0.659200	0.418700	0.166300
C881	C88	0.924000	0.275100	0.215220
H781	H78	0.945300	0.349700	0.218300
C891	C89	0.889040	0.102100	0.246870
H791	H79	0.888100	0.062500	0.271600
C901	C90	0.817400	0.884300	0.234320
H801	H80	0.804100	0.967600	0.243300
H811	H81	0.844700	0.851000	0.259500
C911	C91	0.783700	0.756800	0.217600
C921	C92	0.736500	0.788900	0.196200
C931	C93	0.721800	0.521100	0.185110
C941	C94	0.799600	0.604300	0.221240
N71	N7	0.829360	0.934500	0.200250
H821	H82	0.816400	0.891100	0.175200
C951	C95	0.649900	0.257400	0.096000
C961	C96	0.643700	0.243300	0.053100
H831	H83	0.662100	0.299000	0.044100
C971	C97	0.894800	0.216600	0.174300
N81	N8	0.682340	0.357300	0.123740
H841	H84	0.699900	0.401800	0.114600
C981	C98	0.860100	0.046800	0.206100
C991	C99	0.582200	0.065000	0.036920
H851	H85	0.559100	0.003500	0.017200
C1001	C100	0.622300	0.170400	0.108870
H861	H86	0.626400	0.176100	0.137500
C1011	C101	0.705300	0.666500	0.179400
C1021	C102	0.768300	0.490200	0.204700
C1031	C103	0.604300	0.135500	0.978200
C1041	C104	0.719500	0.949900	0.188700
H871	H87	0.744400	0.017200	0.204900
H881	H88	0.696000	0.961800	0.198100
H891	H89	0.707200	0.973300	0.158100
C1051	C105	0.863600	0.104700	0.169850
H901	H90	0.844600	0.067200	0.142200
C1061	C106	0.785800	0.330800	0.208300
H911	H91	0.813600	0.330900	0.205100
H921	H92	0.763200	0.269900	0.185800
H931	H93	0.791800	0.290000	0.236300
C1071	C107	0.850900	0.574600	0.241900
H941	H94	0.861400	0.547600	0.272000
H951	H95	0.866600	0.664100	0.240000
H961	H96	0.857200	0.493300	0.226800
C1081	C108	0.654100	0.702100	0.155100
H971	H97	0.638900	0.623600	0.134300
H981	H98	0.649900	0.797000	0.140200
H991	H99	0.641500	0.708000	0.175600
C1091	C109	0.949660	0.279700	0.296000
O251	O25	0.969970	0.407100	0.300210
O261	O26	0.954440	0.203300	0.328690
O271	O27	0.635670	0.206100	0.971930
H1001	H100	0.626400	0.222400	0.945800
C1101	C110	0.898800	0.269500	0.134200
O281	O28	0.865060	0.248900	0.097840
C1111	C111	0.589100	0.076000	0.079680
O291	O29	0.571840	0.069900	0.950110
C1121	C112	0.559200	0.988500	0.094700
O301	O30	0.527870	0.907900	0.068110
O311	O31	0.566350	0.997500	0.133600
O321	O32	0.935190	0.325200	0.138890
Sm51	Sm5	0.506620	0.121910	0.881640
C1131	C113	0.110570	0.352000	0.523650
C1141	C114	0.419900	0.281800	0.750760
C1151	C115	0.188300	0.108800	0.667080
H1011	H101	0.200000	0.196900	0.685600
H1021	H102	0.159200	0.081300	0.666300
C1161	C116	0.424000	0.224900	0.715220
H1031	H103	0.445300	0.150300	0.718300
C1171	C117	0.389040	0.397900	0.746870
H1041	H104	0.388100	0.437500	0.771600
C1181	C118	0.317400	0.615700	0.734320
H1051	H105	0.304100	0.532400	0.743300
H1061	H106	0.344700	0.649000	0.759500
C1191	C119	0.283700	0.743200	0.717600
C1201	C120	0.236500	0.711100	0.696200
C1211	C121	0.221800	0.978900	0.685110
C1221	C122	0.299600	0.895700	0.721240
N91	N9	0.329360	0.565500	0.700250
H1071	H107	0.316400	0.608900	0.675200
C1231	C123	0.149900	0.242600	0.596000
C1241	C124	0.143700	0.256700	0.553100
H1081	H108	0.162100	0.201000	0.544100
C1251	C125	0.394800	0.283400	0.674300
N101	N10	0.182340	0.142700	0.623740
H1091	H109	0.199900	0.098200	0.614600
C1261	C126	0.360100	0.453200	0.706100
C1271	C127	0.082200	0.435000	0.536920
H1101	H110	0.059100	0.496500	0.517200
C1281	C128	0.122300	0.329600	0.608870
H1111	H111	0.126400	0.323900	0.637500
C1291	C129	0.205300	0.833500	0.679400
C1301	C130	0.268300	0.009800	0.704700
C1311	C131	0.104300	0.364500	0.478200
C1321	C132	0.219500	0.550100	0.688700
H1121	H112	0.244400	0.482800	0.704900
H1131	H113	0.196000	0.538200	0.698100
H1141	H114	0.207200	0.526700	0.658100
C1331	C133	0.363600	0.395300	0.669850
H1151	H115	0.344600	0.432800	0.642200
C1341	C134	0.285800	0.169200	0.708300
H1161	H116	0.313600	0.169100	0.705100
H1171	H117	0.263200	0.230100	0.685800
H1181	H118	0.291800	0.210000	0.736300
C1351	C135	0.350900	0.925400	0.741900
H1191	H119	0.361400	0.952400	0.772000
H1201	H120	0.366600	0.835900	0.740000
H1211	H121	0.357200	0.006700	0.726800
C1361	C136	0.154100	0.797900	0.655100
H1221	H122	0.138900	0.876400	0.634300
H1231	H123	0.149900	0.703000	0.640200
H1241	H124	0.141500	0.792000	0.675600
C1371	C137	0.449660	0.220300	0.796000
O331	O33	0.469970	0.092900	0.800210
O341	O34	0.454440	0.296700	0.828690
O351	O35	0.135670	0.293900	0.471930
H1251	H125	0.126400	0.277600	0.445800
C1381	C138	0.398800	0.230500	0.634200
O361	O36	0.365060	0.251100	0.597840
C1391	C139	0.089100	0.424000	0.579680
O371	O37	0.071840	0.430100	0.450110
C1401	C140	0.059200	0.511500	0.594700
O381	O38	0.027870	0.592100	0.568110
O391	O39	0.066350	0.502500	0.633600
O401	O40	0.435190	0.174800	0.638890
Sm61	Sm6	0.006620	0.621910	0.881640
C1411	C141	0.610570	0.852000	0.523650
C1421	C142	0.919900	0.781800	0.750760
C1431	C143	0.688300	0.608800	0.667080
H1261	H126	0.700000	0.696900	0.685600
H1271	H127	0.659200	0.581300	0.666300
C1441	C144	0.924000	0.724900	0.715220
H1281	H128	0.945300	0.650300	0.718300
C1451	C145	0.889040	0.897900	0.746870
H1291	H129	0.888100	0.937500	0.771600
C1461	C146	0.817400	0.115700	0.734320
H1301	H130	0.804100	0.032400	0.743300
H1311	H131	0.844700	0.149000	0.759500
C1471	C147	0.783700	0.243200	0.717600
C1481	C148	0.736500	0.211100	0.696200
C1491	C149	0.721800	0.478900	0.685110
C1501	C150	0.799600	0.395700	0.721240
N111	N11	0.829360	0.065500	0.700250
H1321	H132	0.816400	0.108900	0.675200
C1511	C151	0.649900	0.742600	0.596000
C1521	C152	0.643700	0.756700	0.553100
H1331	H133	0.662100	0.701000	0.544100
C1531	C153	0.894800	0.783400	0.674300
N121	N12	0.682340	0.642700	0.623740
H1341	H134	0.699900	0.598200	0.614600
C1541	C154	0.860100	0.953200	0.706100
C1551	C155	0.582200	0.935000	0.536920
H1351	H135	0.559100	0.996500	0.517200
C1561	C156	0.622300	0.829600	0.608870
H1361	H136	0.626400	0.823900	0.637500
C1571	C157	0.705300	0.333500	0.679400
C1581	C158	0.768300	0.509800	0.704700
C1591	C159	0.604300	0.864500	0.478200
C1601	C160	0.719500	0.050100	0.688700
H1371	H137	0.744400	0.982800	0.704900
H1381	H138	0.696000	0.038200	0.698100
H1391	H139	0.707200	0.026700	0.658100
C1611	C161	0.863600	0.895300	0.669850
H1401	H140	0.844600	0.932800	0.642200
C1621	C162	0.785800	0.669200	0.708300
H1411	H141	0.813600	0.669100	0.705100
H1421	H142	0.763200	0.730100	0.685800
H1431	H143	0.791800	0.710000	0.736300
C1631	C163	0.850900	0.425400	0.741900
H1441	H144	0.861400	0.452400	0.772000
H1451	H145	0.866600	0.335900	0.740000
H1461	H146	0.857200	0.506700	0.726800
C1641	C164	0.654100	0.297900	0.655100
H1471	H147	0.638900	0.376400	0.634300
H1481	H148	0.649900	0.203000	0.640200
H1491	H149	0.641500	0.292000	0.675600
C1651	C165	0.949660	0.720300	0.796000
O411	O41	0.969970	0.592900	0.800210
O421	O42	0.954440	0.796700	0.828690
O431	O43	0.635670	0.793900	0.471930
H1501	H150	0.626400	0.777600	0.445800
C1661	C166	0.898800	0.730500	0.634200
O441	O44	0.865060	0.751100	0.597840
C1671	C167	0.589100	0.924000	0.579680
O451	O45	0.571840	0.930100	0.450110
C1681	C168	0.559200	0.011500	0.594700
O461	O46	0.527870	0.092100	0.568110
O471	O47	0.566350	0.002500	0.633600
O481	O48	0.935190	0.674800	0.638890
Sm71	Sm7	0.493380	0.121910	0.618360
C1691	C169	0.889430	0.352000	0.976350
C1701	C170	0.580100	0.281800	0.749240
C1711	C171	0.811700	0.108800	0.832920
H1511	H151	0.800000	0.196900	0.814400
H1521	H152	0.840800	0.081300	0.833700
C1721	C172	0.576000	0.224900	0.784780
H1531	H153	0.554700	0.150300	0.781700
C1731	C173	0.610960	0.397900	0.753130
H1541	H154	0.611900	0.437500	0.728400
C1741	C174	0.682600	0.615700	0.765680
H1551	H155	0.695900	0.532400	0.756700
H1561	H156	0.655300	0.649000	0.740500
C1751	C175	0.716300	0.743200	0.782400
C1761	C176	0.763500	0.711100	0.803800
C1771	C177	0.778200	0.978900	0.814890
C1781	C178	0.700400	0.895700	0.778760
N131	N13	0.670640	0.565500	0.799750
H1571	H157	0.683600	0.608900	0.824800
C1791	C179	0.850100	0.242600	0.904000
C1801	C180	0.856300	0.256700	0.946900
H1581	H158	0.837900	0.201000	0.955900
C1811	C181	0.605200	0.283400	0.825700
N141	N14	0.817660	0.142700	0.876260
H1591	H159	0.800100	0.098200	0.885400
C1821	C182	0.639900	0.453200	0.793900
C1831	C183	0.917800	0.435000	0.963080
H1601	H160	0.940900	0.496500	0.982800
C1841	C184	0.877700	0.329600	0.891130
H1611	H161	0.873600	0.323900	0.862500
C1851	C185	0.794700	0.833500	0.820600
C1861	C186	0.731700	0.009800	0.795300
C1871	C187	0.895700	0.364500	0.021800
C1881	C188	0.780500	0.550100	0.811300
H1621	H162	0.755600	0.482800	0.795100
H1631	H163	0.804000	0.538200	0.801900
H1641	H164	0.792800	0.526700	0.841900
C1891	C189	0.636400	0.395300	0.830150
H1651	H165	0.655400	0.432800	0.857800
C1901	C190	0.714200	0.169200	0.791700
H1661	H166	0.686400	0.169100	0.794900
H1671	H167	0.736800	0.230100	0.814200
H1681	H168	0.708200	0.210000	0.763700
C1911	C191	0.649100	0.925400	0.758100
H1691	H169	0.638600	0.952400	0.728000
H1701	H170	0.633400	0.835900	0.760000
H1711	H171	0.642800	0.006700	0.773200
C1921	C192	0.845900	0.797900	0.844900
H1721	H172	0.861100	0.876400	0.865700
H1731	H173	0.850100	0.703000	0.859800
H1741	H174	0.858500	0.792000	0.824400
C1931	C193	0.550340	0.220300	0.704000
O491	O49	0.530030	0.092900	0.699790
O501	O50	0.545560	0.296700	0.671310
O511	O51	0.864330	0.293900	0.028070
H1751	H175	0.873600	0.277600	0.054200
C1941	C194	0.601200	0.230500	0.865800
O521	O52	0.634940	0.251100	0.902160
C1951	C195	0.910900	0.424000	0.920320
O531	O53	0.928160	0.430100	0.049890
C1961	C196	0.940800	0.511500	0.905300
O541	O54	0.972130	0.592100	0.931890
O551	O55	0.933650	0.502500	0.866400
O561	O56	0.564810	0.174800	0.861110
Sm81	Sm8	0.993380	0.621910	0.618360
C1971	C197	0.389430	0.852000	0.976350
C1981	C198	0.080100	0.781800	0.749240
C1991	C199	0.311700	0.608800	0.832920
H1761	H176	0.300000	0.696900	0.814400
H1771	H177	0.340800	0.581300	0.833700
C2001	C200	0.076000	0.724900	0.784780
H1781	H178	0.054700	0.650300	0.781700
C2011	C201	0.110960	0.897900	0.753130
H1791	H179	0.111900	0.937500	0.728400
C2021	C202	0.182600	0.115700	0.765680
H1801	H180	0.195900	0.032400	0.756700
H1811	H181	0.155300	0.149000	0.740500
C2031	C203	0.216300	0.243200	0.782400
C2041	C204	0.263500	0.211100	0.803800
C2051	C205	0.278200	0.478900	0.814890
C2061	C206	0.200400	0.395700	0.778760
N151	N15	0.170640	0.065500	0.799750
H1821	H182	0.183600	0.108900	0.824800
C2071	C207	0.350100	0.742600	0.904000
C2081	C208	0.356300	0.756700	0.946900
H1831	H183	0.337900	0.701000	0.955900
C2091	C209	0.105200	0.783400	0.825700
N161	N16	0.317660	0.642700	0.876260
H1841	H184	0.300100	0.598200	0.885400
C2101	C210	0.139900	0.953200	0.793900
C2111	C211	0.417800	0.935000	0.963080
H1851	H185	0.440900	0.996500	0.982800
C2121	C212	0.377700	0.829600	0.891130
H1861	H186	0.373600	0.823900	0.862500
C2131	C213	0.294700	0.333500	0.820600
C2141	C214	0.231700	0.509800	0.795300
C2151	C215	0.395700	0.864500	0.021800
C2161	C216	0.280500	0.050100	0.811300
H1871	H187	0.255600	0.982800	0.795100
H1881	H188	0.304000	0.038200	0.801900
H1891	H189	0.292800	0.026700	0.841900
C2171	C217	0.136400	0.895300	0.830150
H1901	H190	0.155400	0.932800	0.857800
C2181	C218	0.214200	0.669200	0.791700
H1911	H191	0.186400	0.669100	0.794900
H1921	H192	0.236800	0.730100	0.814200
H1931	H193	0.208200	0.710000	0.763700
C2191	C219	0.149100	0.425400	0.758100
H1941	H194	0.138600	0.452400	0.728000
H1951	H195	0.133400	0.335900	0.760000
H1961	H196	0.142800	0.506700	0.773200
C2201	C220	0.345900	0.297900	0.844900
H1971	H197	0.361100	0.376400	0.865700
H1981	H198	0.350100	0.203000	0.859800
H1991	H199	0.358500	0.292000	0.824400
C2211	C221	0.050340	0.720300	0.704000
O571	O57	0.030030	0.592900	0.699790
O581	O58	0.045560	0.796700	0.671310
O591	O59	0.364330	0.793900	0.028070
H2001	H200	0.373600	0.777600	0.054200
C2221	C222	0.101200	0.730500	0.865800
O601	O60	0.134940	0.751100	0.902160
C2231	C223	0.410900	0.924000	0.920320
O611	O61	0.428160	0.930100	0.049890
C2241	C224	0.440800	0.011500	0.905300
O621	O62	0.472130	0.092100	0.931890
O631	O63	0.433650	0.002500	0.866400
O641	O64	0.064810	0.674800	0.861110
