data_GUFBUG_clean_PM
_symmetry_space_group_name_H-M	'P1'
_cell_length_a	10.448900
_cell_length_b	21.555200
_cell_length_c	38.344000
_cell_angle_alpha	90.000000
_cell_angle_beta	90.000000
_cell_angle_gamma	90.000000
_symmetry_Int_Tables_number 1

loop_
_symmetry_equiv_pos_as_xyz
'x,y,z'

loop_
_atom_site_label
_atom_site_type_symbol
_atom_site_fract_x
_atom_site_fract_y
_atom_site_fract_z
C11	C1	0.016900	0.625900	0.910300
C21	C2	0.103500	0.646900	0.887000
H11	H1	0.189700	0.637400	0.889900
C31	C3	0.063700	0.683300	0.858200
H21	H2	0.123300	0.698400	0.842300
C41	C4	0.935800	0.695900	0.854100
C51	C5	0.849800	0.673800	0.878300
H31	H3	0.763200	0.682900	0.876000
C61	C6	0.891000	0.637700	0.906500
H41	H4	0.832200	0.622000	0.922400
C71	C7	0.059500	0.587100	0.941100
C81	C8	0.890800	0.734500	0.824800
C91	C9	0.905500	0.794300	0.819600
C101	C10	0.965200	0.840000	0.842800
C111	C11	0.958000	0.832800	0.879000
H51	H5	0.915000	0.799000	0.888500
C121	C12	0.014700	0.875600	0.900500
H61	H6	0.007400	0.871200	0.924600
C131	C13	0.080700	0.923900	0.887400
C141	C14	0.088400	0.932900	0.851500
H71	H7	0.131700	0.966800	0.842200
C151	C15	0.029800	0.889800	0.830000
H81	H8	0.034600	0.895200	0.806000
C161	C16	0.145200	0.967800	0.912400
C171	C17	0.780500	0.752200	0.764700
O11	O1	0.977300	0.568200	0.961800
O21	O2	0.175900	0.573000	0.944000
O31	O3	0.135300	0.961900	0.943800
O41	O4	0.210900	0.012300	0.896100
H91	H9	0.245200	0.034800	0.910600
S11	S1	0.810800	0.690560	0.792710
S21	S2	0.838100	0.824410	0.780740
C181	C18	0.516900	0.125900	0.410300
C191	C19	0.603500	0.146900	0.387000
H101	H10	0.689700	0.137400	0.389900
C201	C20	0.563700	0.183300	0.358200
H111	H11	0.623300	0.198400	0.342300
C211	C21	0.435800	0.195900	0.354100
C221	C22	0.349800	0.173800	0.378300
H121	H12	0.263200	0.182900	0.376000
C231	C23	0.391000	0.137700	0.406500
H131	H13	0.332200	0.122000	0.422400
C241	C24	0.559500	0.087100	0.441100
C251	C25	0.390800	0.234500	0.324800
C261	C26	0.405500	0.294300	0.319600
C271	C27	0.465200	0.340000	0.342800
C281	C28	0.458000	0.332800	0.379000
H141	H14	0.415000	0.299000	0.388500
C291	C29	0.514700	0.375600	0.400500
H151	H15	0.507400	0.371200	0.424600
C301	C30	0.580700	0.423900	0.387400
C311	C31	0.588400	0.432900	0.351500
H161	H16	0.631700	0.466800	0.342200
C321	C32	0.529800	0.389800	0.330000
H171	H17	0.534600	0.395200	0.306000
C331	C33	0.645200	0.467800	0.412400
C341	C34	0.280500	0.252200	0.264700
O51	O5	0.477300	0.068200	0.461800
O61	O6	0.675900	0.073000	0.444000
O71	O7	0.635300	0.461900	0.443800
O81	O8	0.710900	0.512300	0.396100
H181	H18	0.745200	0.534800	0.410600
S31	S3	0.310800	0.190560	0.292710
S41	S4	0.338100	0.324410	0.280740
C351	C35	0.983100	0.374100	0.910300
C361	C36	0.896500	0.353100	0.887000
H191	H19	0.810300	0.362600	0.889900
C371	C37	0.936300	0.316700	0.858200
H201	H20	0.876700	0.301600	0.842300
C381	C38	0.064200	0.304100	0.854100
C391	C39	0.150200	0.326200	0.878300
H211	H21	0.236800	0.317100	0.876000
C401	C40	0.109000	0.362300	0.906500
H221	H22	0.167800	0.378000	0.922400
C411	C41	0.940500	0.412900	0.941100
C421	C42	0.109200	0.265500	0.824800
C431	C43	0.094500	0.205700	0.819600
C441	C44	0.034800	0.160000	0.842800
C451	C45	0.042000	0.167200	0.879000
H231	H23	0.085000	0.201000	0.888500
C461	C46	0.985300	0.124400	0.900500
H241	H24	0.992600	0.128800	0.924600
C471	C47	0.919300	0.076100	0.887400
C481	C48	0.911600	0.067100	0.851500
H251	H25	0.868300	0.033200	0.842200
C491	C49	0.970200	0.110200	0.830000
H261	H26	0.965400	0.104800	0.806000
C501	C50	0.854800	0.032200	0.912400
C511	C51	0.219500	0.247800	0.764700
O91	O9	0.022700	0.431800	0.961800
O101	O10	0.824100	0.427000	0.944000
O111	O11	0.864700	0.038100	0.943800
O121	O12	0.789100	0.987700	0.896100
H271	H27	0.754800	0.965200	0.910600
S51	S5	0.189200	0.309440	0.792710
S61	S6	0.161900	0.175590	0.780740
C521	C52	0.483100	0.874100	0.410300
C531	C53	0.396500	0.853100	0.387000
H281	H28	0.310300	0.862600	0.389900
C541	C54	0.436300	0.816700	0.358200
H291	H29	0.376700	0.801600	0.342300
C551	C55	0.564200	0.804100	0.354100
C561	C56	0.650200	0.826200	0.378300
H301	H30	0.736800	0.817100	0.376000
C571	C57	0.609000	0.862300	0.406500
H311	H31	0.667800	0.878000	0.422400
C581	C58	0.440500	0.912900	0.441100
C591	C59	0.609200	0.765500	0.324800
C601	C60	0.594500	0.705700	0.319600
C611	C61	0.534800	0.660000	0.342800
C621	C62	0.542000	0.667200	0.379000
H321	H32	0.585000	0.701000	0.388500
C631	C63	0.485300	0.624400	0.400500
H331	H33	0.492600	0.628800	0.424600
C641	C64	0.419300	0.576100	0.387400
C651	C65	0.411600	0.567100	0.351500
H341	H34	0.368300	0.533200	0.342200
C661	C66	0.470200	0.610200	0.330000
H351	H35	0.465400	0.604800	0.306000
C671	C67	0.354800	0.532200	0.412400
C681	C68	0.719500	0.747800	0.264700
O131	O13	0.522700	0.931800	0.461800
O141	O14	0.324100	0.927000	0.444000
O151	O15	0.364700	0.538100	0.443800
O161	O16	0.289100	0.487700	0.396100
H361	H36	0.254800	0.465200	0.410600
S71	S7	0.689200	0.809440	0.292710
S81	S8	0.661900	0.675590	0.280740
C691	C69	0.483100	0.125900	0.089700
C701	C70	0.396500	0.146900	0.113000
H371	H37	0.310300	0.137400	0.110100
C711	C71	0.436300	0.183300	0.141800
H381	H38	0.376700	0.198400	0.157700
C721	C72	0.564200	0.195900	0.145900
C731	C73	0.650200	0.173800	0.121700
H391	H39	0.736800	0.182900	0.124000
C741	C74	0.609000	0.137700	0.093500
H401	H40	0.667800	0.122000	0.077600
C751	C75	0.440500	0.087100	0.058900
C761	C76	0.609200	0.234500	0.175200
C771	C77	0.594500	0.294300	0.180400
C781	C78	0.534800	0.340000	0.157200
C791	C79	0.542000	0.332800	0.121000
H411	H41	0.585000	0.299000	0.111500
C801	C80	0.485300	0.375600	0.099500
H421	H42	0.492600	0.371200	0.075400
C811	C81	0.419300	0.423900	0.112600
C821	C82	0.411600	0.432900	0.148500
H431	H43	0.368300	0.466800	0.157800
C831	C83	0.470200	0.389800	0.170000
H441	H44	0.465400	0.395200	0.194000
C841	C84	0.354800	0.467800	0.087600
C851	C85	0.719500	0.252200	0.235300
O171	O17	0.522700	0.068200	0.038200
O181	O18	0.324100	0.073000	0.056000
O191	O19	0.364700	0.461900	0.056200
O201	O20	0.289100	0.512300	0.103900
H451	H45	0.254800	0.534800	0.089400
S91	S9	0.689200	0.190560	0.207290
S101	S10	0.661900	0.324410	0.219260
C861	C86	0.983100	0.625900	0.589700
C871	C87	0.896500	0.646900	0.613000
H461	H46	0.810300	0.637400	0.610100
C881	C88	0.936300	0.683300	0.641800
H471	H47	0.876700	0.698400	0.657700
C891	C89	0.064200	0.695900	0.645900
C901	C90	0.150200	0.673800	0.621700
H481	H48	0.236800	0.682900	0.624000
C911	C91	0.109000	0.637700	0.593500
H491	H49	0.167800	0.622000	0.577600
C921	C92	0.940500	0.587100	0.558900
C931	C93	0.109200	0.734500	0.675200
C941	C94	0.094500	0.794300	0.680400
C951	C95	0.034800	0.840000	0.657200
C961	C96	0.042000	0.832800	0.621000
H501	H50	0.085000	0.799000	0.611500
C971	C97	0.985300	0.875600	0.599500
H511	H51	0.992600	0.871200	0.575400
C981	C98	0.919300	0.923900	0.612600
C991	C99	0.911600	0.932900	0.648500
H521	H52	0.868300	0.966800	0.657800
C1001	C100	0.970200	0.889800	0.670000
H531	H53	0.965400	0.895200	0.694000
C1011	C101	0.854800	0.967800	0.587600
C1021	C102	0.219500	0.752200	0.735300
O211	O21	0.022700	0.568200	0.538200
O221	O22	0.824100	0.573000	0.556000
O231	O23	0.864700	0.961900	0.556200
O241	O24	0.789100	0.012300	0.603900
H541	H54	0.754800	0.034800	0.589400
S111	S11	0.189200	0.690560	0.707290
S121	S12	0.161900	0.824410	0.719260
C1031	C103	0.516900	0.874100	0.089700
C1041	C104	0.603500	0.853100	0.113000
H551	H55	0.689700	0.862600	0.110100
C1051	C105	0.563700	0.816700	0.141800
H561	H56	0.623300	0.801600	0.157700
C1061	C106	0.435800	0.804100	0.145900
C1071	C107	0.349800	0.826200	0.121700
H571	H57	0.263200	0.817100	0.124000
C1081	C108	0.391000	0.862300	0.093500
H581	H58	0.332200	0.878000	0.077600
C1091	C109	0.559500	0.912900	0.058900
C1101	C110	0.390800	0.765500	0.175200
C1111	C111	0.405500	0.705700	0.180400
C1121	C112	0.465200	0.660000	0.157200
C1131	C113	0.458000	0.667200	0.121000
H591	H59	0.415000	0.701000	0.111500
C1141	C114	0.514700	0.624400	0.099500
H601	H60	0.507400	0.628800	0.075400
C1151	C115	0.580700	0.576100	0.112600
C1161	C116	0.588400	0.567100	0.148500
H611	H61	0.631700	0.533200	0.157800
C1171	C117	0.529800	0.610200	0.170000
H621	H62	0.534600	0.604800	0.194000
C1181	C118	0.645200	0.532200	0.087600
C1191	C119	0.280500	0.747800	0.235300
O251	O25	0.477300	0.931800	0.038200
O261	O26	0.675900	0.927000	0.056000
O271	O27	0.635300	0.538100	0.056200
O281	O28	0.710900	0.487700	0.103900
H631	H63	0.745200	0.465200	0.089400
S131	S13	0.310800	0.809440	0.207290
S141	S14	0.338100	0.675590	0.219260
C1201	C120	0.016900	0.374100	0.589700
C1211	C121	0.103500	0.353100	0.613000
H641	H64	0.189700	0.362600	0.610100
C1221	C122	0.063700	0.316700	0.641800
H651	H65	0.123300	0.301600	0.657700
C1231	C123	0.935800	0.304100	0.645900
C1241	C124	0.849800	0.326200	0.621700
H661	H66	0.763200	0.317100	0.624000
C1251	C125	0.891000	0.362300	0.593500
H671	H67	0.832200	0.378000	0.577600
C1261	C126	0.059500	0.412900	0.558900
C1271	C127	0.890800	0.265500	0.675200
C1281	C128	0.905500	0.205700	0.680400
C1291	C129	0.965200	0.160000	0.657200
C1301	C130	0.958000	0.167200	0.621000
H681	H68	0.915000	0.201000	0.611500
C1311	C131	0.014700	0.124400	0.599500
H691	H69	0.007400	0.128800	0.575400
C1321	C132	0.080700	0.076100	0.612600
C1331	C133	0.088400	0.067100	0.648500
H701	H70	0.131700	0.033200	0.657800
C1341	C134	0.029800	0.110200	0.670000
H711	H71	0.034600	0.104800	0.694000
C1351	C135	0.145200	0.032200	0.587600
C1361	C136	0.780500	0.247800	0.735300
O291	O29	0.977300	0.431800	0.538200
O301	O30	0.175900	0.427000	0.556000
O311	O31	0.135300	0.038100	0.556200
O321	O32	0.210900	0.987700	0.603900
H721	H72	0.245200	0.965200	0.589400
S151	S15	0.810800	0.309440	0.707290
S161	S16	0.838100	0.175590	0.719260
C1371	C137	0.983100	0.374100	0.089700
C1381	C138	0.896500	0.353100	0.113000
H731	H73	0.810300	0.362600	0.110100
C1391	C139	0.936300	0.316700	0.141800
H741	H74	0.876700	0.301600	0.157700
C1401	C140	0.064200	0.304100	0.145900
C1411	C141	0.150200	0.326200	0.121700
H751	H75	0.236800	0.317100	0.124000
C1421	C142	0.109000	0.362300	0.093500
H761	H76	0.167800	0.378000	0.077600
C1431	C143	0.940500	0.412900	0.058900
C1441	C144	0.109200	0.265500	0.175200
C1451	C145	0.094500	0.205700	0.180400
C1461	C146	0.034800	0.160000	0.157200
C1471	C147	0.042000	0.167200	0.121000
H771	H77	0.085000	0.201000	0.111500
C1481	C148	0.985300	0.124400	0.099500
H781	H78	0.992600	0.128800	0.075400
C1491	C149	0.919300	0.076100	0.112600
C1501	C150	0.911600	0.067100	0.148500
H791	H79	0.868300	0.033200	0.157800
C1511	C151	0.970200	0.110200	0.170000
H801	H80	0.965400	0.104800	0.194000
C1521	C152	0.854800	0.032200	0.087600
C1531	C153	0.219500	0.247800	0.235300
O331	O33	0.022700	0.431800	0.038200
O341	O34	0.824100	0.427000	0.056000
O351	O35	0.864700	0.038100	0.056200
O361	O36	0.789100	0.987700	0.103900
H811	H81	0.754800	0.965200	0.089400
S171	S17	0.189200	0.309440	0.207290
S181	S18	0.161900	0.175590	0.219260
C1541	C154	0.483100	0.874100	0.589700
C1551	C155	0.396500	0.853100	0.613000
H821	H82	0.310300	0.862600	0.610100
C1561	C156	0.436300	0.816700	0.641800
H831	H83	0.376700	0.801600	0.657700
C1571	C157	0.564200	0.804100	0.645900
C1581	C158	0.650200	0.826200	0.621700
H841	H84	0.736800	0.817100	0.624000
C1591	C159	0.609000	0.862300	0.593500
H851	H85	0.667800	0.878000	0.577600
C1601	C160	0.440500	0.912900	0.558900
C1611	C161	0.609200	0.765500	0.675200
C1621	C162	0.594500	0.705700	0.680400
C1631	C163	0.534800	0.660000	0.657200
C1641	C164	0.542000	0.667200	0.621000
H861	H86	0.585000	0.701000	0.611500
C1651	C165	0.485300	0.624400	0.599500
H871	H87	0.492600	0.628800	0.575400
C1661	C166	0.419300	0.576100	0.612600
C1671	C167	0.411600	0.567100	0.648500
H881	H88	0.368300	0.533200	0.657800
C1681	C168	0.470200	0.610200	0.670000
H891	H89	0.465400	0.604800	0.694000
C1691	C169	0.354800	0.532200	0.587600
C1701	C170	0.719500	0.747800	0.735300
O371	O37	0.522700	0.931800	0.538200
O381	O38	0.324100	0.927000	0.556000
O391	O39	0.364700	0.538100	0.556200
O401	O40	0.289100	0.487700	0.603900
H901	H90	0.254800	0.465200	0.589400
S191	S19	0.689200	0.809440	0.707290
S201	S20	0.661900	0.675590	0.719260
C1711	C171	0.016900	0.625900	0.089700
C1721	C172	0.103500	0.646900	0.113000
H911	H91	0.189700	0.637400	0.110100
C1731	C173	0.063700	0.683300	0.141800
H921	H92	0.123300	0.698400	0.157700
C1741	C174	0.935800	0.695900	0.145900
C1751	C175	0.849800	0.673800	0.121700
H931	H93	0.763200	0.682900	0.124000
C1761	C176	0.891000	0.637700	0.093500
H941	H94	0.832200	0.622000	0.077600
C1771	C177	0.059500	0.587100	0.058900
C1781	C178	0.890800	0.734500	0.175200
C1791	C179	0.905500	0.794300	0.180400
C1801	C180	0.965200	0.840000	0.157200
C1811	C181	0.958000	0.832800	0.121000
H951	H95	0.915000	0.799000	0.111500
C1821	C182	0.014700	0.875600	0.099500
H961	H96	0.007400	0.871200	0.075400
C1831	C183	0.080700	0.923900	0.112600
C1841	C184	0.088400	0.932900	0.148500
H971	H97	0.131700	0.966800	0.157800
C1851	C185	0.029800	0.889800	0.170000
H981	H98	0.034600	0.895200	0.194000
C1861	C186	0.145200	0.967800	0.087600
C1871	C187	0.780500	0.752200	0.235300
O411	O41	0.977300	0.568200	0.038200
O421	O42	0.175900	0.573000	0.056000
O431	O43	0.135300	0.961900	0.056200
O441	O44	0.210900	0.012300	0.103900
H991	H99	0.245200	0.034800	0.089400
S211	S21	0.810800	0.690560	0.207290
S221	S22	0.838100	0.824410	0.219260
C1881	C188	0.516900	0.125900	0.589700
C1891	C189	0.603500	0.146900	0.613000
H1001	H100	0.689700	0.137400	0.610100
C1901	C190	0.563700	0.183300	0.641800
H1011	H101	0.623300	0.198400	0.657700
C1911	C191	0.435800	0.195900	0.645900
C1921	C192	0.349800	0.173800	0.621700
H1021	H102	0.263200	0.182900	0.624000
C1931	C193	0.391000	0.137700	0.593500
H1031	H103	0.332200	0.122000	0.577600
C1941	C194	0.559500	0.087100	0.558900
C1951	C195	0.390800	0.234500	0.675200
C1961	C196	0.405500	0.294300	0.680400
C1971	C197	0.465200	0.340000	0.657200
C1981	C198	0.458000	0.332800	0.621000
H1041	H104	0.415000	0.299000	0.611500
C1991	C199	0.514700	0.375600	0.599500
H1051	H105	0.507400	0.371200	0.575400
C2001	C200	0.580700	0.423900	0.612600
C2011	C201	0.588400	0.432900	0.648500
H1061	H106	0.631700	0.466800	0.657800
C2021	C202	0.529800	0.389800	0.670000
H1071	H107	0.534600	0.395200	0.694000
C2031	C203	0.645200	0.467800	0.587600
C2041	C204	0.280500	0.252200	0.735300
O451	O45	0.477300	0.068200	0.538200
O461	O46	0.675900	0.073000	0.556000
O471	O47	0.635300	0.461900	0.556200
O481	O48	0.710900	0.512300	0.603900
H1081	H108	0.745200	0.534800	0.589400
S231	S23	0.310800	0.190560	0.707290
S241	S24	0.338100	0.324410	0.719260
C2051	C205	0.516900	0.874100	0.910300
C2061	C206	0.603500	0.853100	0.887000
H1091	H109	0.689700	0.862600	0.889900
C2071	C207	0.563700	0.816700	0.858200
H1101	H110	0.623300	0.801600	0.842300
C2081	C208	0.435800	0.804100	0.854100
C2091	C209	0.349800	0.826200	0.878300
H1111	H111	0.263200	0.817100	0.876000
C2101	C210	0.391000	0.862300	0.906500
H1121	H112	0.332200	0.878000	0.922400
C2111	C211	0.559500	0.912900	0.941100
C2121	C212	0.390800	0.765500	0.824800
C2131	C213	0.405500	0.705700	0.819600
C2141	C214	0.465200	0.660000	0.842800
C2151	C215	0.458000	0.667200	0.879000
H1131	H113	0.415000	0.701000	0.888500
C2161	C216	0.514700	0.624400	0.900500
H1141	H114	0.507400	0.628800	0.924600
C2171	C217	0.580700	0.576100	0.887400
C2181	C218	0.588400	0.567100	0.851500
H1151	H115	0.631700	0.533200	0.842200
C2191	C219	0.529800	0.610200	0.830000
H1161	H116	0.534600	0.604800	0.806000
C2201	C220	0.645200	0.532200	0.912400
C2211	C221	0.280500	0.747800	0.764700
O491	O49	0.477300	0.931800	0.961800
O501	O50	0.675900	0.927000	0.944000
O511	O51	0.635300	0.538100	0.943800
O521	O52	0.710900	0.487700	0.896100
H1171	H117	0.745200	0.465200	0.910600
S251	S25	0.310800	0.809440	0.792710
S261	S26	0.338100	0.675590	0.780740
C2221	C222	0.016900	0.374100	0.410300
C2231	C223	0.103500	0.353100	0.387000
H1181	H118	0.189700	0.362600	0.389900
C2241	C224	0.063700	0.316700	0.358200
H1191	H119	0.123300	0.301600	0.342300
C2251	C225	0.935800	0.304100	0.354100
C2261	C226	0.849800	0.326200	0.378300
H1201	H120	0.763200	0.317100	0.376000
C2271	C227	0.891000	0.362300	0.406500
H1211	H121	0.832200	0.378000	0.422400
C2281	C228	0.059500	0.412900	0.441100
C2291	C229	0.890800	0.265500	0.324800
C2301	C230	0.905500	0.205700	0.319600
C2311	C231	0.965200	0.160000	0.342800
C2321	C232	0.958000	0.167200	0.379000
H1221	H122	0.915000	0.201000	0.388500
C2331	C233	0.014700	0.124400	0.400500
H1231	H123	0.007400	0.128800	0.424600
C2341	C234	0.080700	0.076100	0.387400
C2351	C235	0.088400	0.067100	0.351500
H1241	H124	0.131700	0.033200	0.342200
C2361	C236	0.029800	0.110200	0.330000
H1251	H125	0.034600	0.104800	0.306000
C2371	C237	0.145200	0.032200	0.412400
C2381	C238	0.780500	0.247800	0.264700
O531	O53	0.977300	0.431800	0.461800
O541	O54	0.175900	0.427000	0.444000
O551	O55	0.135300	0.038100	0.443800
O561	O56	0.210900	0.987700	0.396100
H1261	H126	0.245200	0.965200	0.410600
S271	S27	0.810800	0.309440	0.292710
S281	S28	0.838100	0.175590	0.280740
C2391	C239	0.483100	0.125900	0.910300
C2401	C240	0.396500	0.146900	0.887000
H1271	H127	0.310300	0.137400	0.889900
C2411	C241	0.436300	0.183300	0.858200
H1281	H128	0.376700	0.198400	0.842300
C2421	C242	0.564200	0.195900	0.854100
C2431	C243	0.650200	0.173800	0.878300
H1291	H129	0.736800	0.182900	0.876000
C2441	C244	0.609000	0.137700	0.906500
H1301	H130	0.667800	0.122000	0.922400
C2451	C245	0.440500	0.087100	0.941100
C2461	C246	0.609200	0.234500	0.824800
C2471	C247	0.594500	0.294300	0.819600
C2481	C248	0.534800	0.340000	0.842800
C2491	C249	0.542000	0.332800	0.879000
H1311	H131	0.585000	0.299000	0.888500
C2501	C250	0.485300	0.375600	0.900500
H1321	H132	0.492600	0.371200	0.924600
C2511	C251	0.419300	0.423900	0.887400
C2521	C252	0.411600	0.432900	0.851500
H1331	H133	0.368300	0.466800	0.842200
C2531	C253	0.470200	0.389800	0.830000
H1341	H134	0.465400	0.395200	0.806000
C2541	C254	0.354800	0.467800	0.912400
C2551	C255	0.719500	0.252200	0.764700
O571	O57	0.522700	0.068200	0.961800
O581	O58	0.324100	0.073000	0.944000
O591	O59	0.364700	0.461900	0.943800
O601	O60	0.289100	0.512300	0.896100
H1351	H135	0.254800	0.534800	0.910600
S291	S29	0.689200	0.190560	0.792710
S301	S30	0.661900	0.324410	0.780740
C2561	C256	0.983100	0.625900	0.410300
C2571	C257	0.896500	0.646900	0.387000
H1361	H136	0.810300	0.637400	0.389900
C2581	C258	0.936300	0.683300	0.358200
H1371	H137	0.876700	0.698400	0.342300
C2591	C259	0.064200	0.695900	0.354100
C2601	C260	0.150200	0.673800	0.378300
H1381	H138	0.236800	0.682900	0.376000
C2611	C261	0.109000	0.637700	0.406500
H1391	H139	0.167800	0.622000	0.422400
C2621	C262	0.940500	0.587100	0.441100
C2631	C263	0.109200	0.734500	0.324800
C2641	C264	0.094500	0.794300	0.319600
C2651	C265	0.034800	0.840000	0.342800
C2661	C266	0.042000	0.832800	0.379000
H1401	H140	0.085000	0.799000	0.388500
C2671	C267	0.985300	0.875600	0.400500
H1411	H141	0.992600	0.871200	0.424600
C2681	C268	0.919300	0.923900	0.387400
C2691	C269	0.911600	0.932900	0.351500
H1421	H142	0.868300	0.966800	0.342200
C2701	C270	0.970200	0.889800	0.330000
H1431	H143	0.965400	0.895200	0.306000
C2711	C271	0.854800	0.967800	0.412400
C2721	C272	0.219500	0.752200	0.264700
O611	O61	0.022700	0.568200	0.461800
O621	O62	0.824100	0.573000	0.444000
O631	O63	0.864700	0.961900	0.443800
O641	O64	0.789100	0.012300	0.396100
H1441	H144	0.754800	0.034800	0.410600
S311	S31	0.189200	0.690560	0.292710
S321	S32	0.161900	0.824410	0.280740
Ba11	Ba1	0.198430	0.491810	0.000000
Ba21	Ba2	0.698430	0.991810	0.500000
Ba31	Ba3	0.801570	0.508190	0.000000
Ba41	Ba4	0.301570	0.008190	0.500000
Ba51	Ba5	0.301570	0.991810	0.000000
Ba61	Ba6	0.801570	0.491810	0.500000
Ba71	Ba7	0.698430	0.008190	0.000000
Ba81	Ba8	0.198430	0.508190	0.500000
