data_GUFREF_clean_PM
_symmetry_space_group_name_H-M	'P1'
_cell_length_a	12.673900
_cell_length_b	12.673900
_cell_length_c	23.307000
_cell_angle_alpha	83.002500
_cell_angle_beta	83.002500
_cell_angle_gamma	62.805600
_symmetry_Int_Tables_number 1

loop_
_symmetry_equiv_pos_as_xyz
'x,y,z'

loop_
_atom_site_label
_atom_site_type_symbol
_atom_site_fract_x
_atom_site_fract_y
_atom_site_fract_z
Cd11	Cd1	0.350460	0.232270	0.856090
Cd21	Cd2	0.767730	0.649540	0.643910
Cd31	Cd3	0.649540	0.767730	0.143910
Cd41	Cd4	0.232270	0.350460	0.356090
H11	H1	0.498700	0.429500	0.711200
H21	H2	0.496300	0.332700	0.676300
H31	H3	0.380900	0.633100	0.681400
H41	H4	0.240200	0.777200	0.623500
H51	H5	0.129700	0.727300	0.569600
H61	H6	0.301000	0.389000	0.631600
H71	H7	0.164600	0.436800	0.558400
H81	H8	0.120700	0.561100	0.523000
H91	H9	0.152300	0.515900	0.867800
H101	H10	0.061200	0.653800	0.935600
H111	H11	0.184700	0.390500	0.059600
H121	H12	0.273100	0.259900	0.988700
H131	H13	0.020100	0.599700	0.082500
H141	H14	0.007700	0.703100	0.035000
H151	H15	0.127000	0.691800	0.109300
H161	H16	0.218500	0.563300	0.093200
H171	H17	0.169600	0.768000	0.017200
H181	H18	0.263700	0.639100	0.002600
H191	H19	0.223300	0.879500	0.078600
H201	H20	0.369200	0.899000	0.117600
H211	H21	0.592300	0.571900	0.094600
H221	H22	0.452700	0.542700	0.054300
H231	H23	0.133000	0.376800	0.775900
H241	H24	0.965200	0.385000	0.746700
H251	H25	0.048600	0.066400	0.828100
H261	H26	0.212900	0.068100	0.857700
H271	H27	0.811200	0.260800	0.799400
H281	H28	0.843400	0.293800	0.735000
H291	H29	0.906600	0.060600	0.782200
H301	H30	0.570500	0.501300	0.788800
H311	H31	0.667300	0.503700	0.823700
H321	H32	0.366900	0.619100	0.818600
H331	H33	0.222800	0.759800	0.876500
H341	H34	0.272700	0.870300	0.930400
H351	H35	0.611000	0.699000	0.868400
H361	H36	0.563200	0.835400	0.941600
H371	H37	0.438900	0.879300	0.977000
H381	H38	0.484100	0.847700	0.632200
H391	H39	0.346200	0.938800	0.564400
H401	H40	0.609500	0.815300	0.440400
H411	H41	0.740100	0.726900	0.511300
H421	H42	0.400300	0.979900	0.417500
H431	H43	0.296900	0.992300	0.465000
H441	H44	0.308200	0.873000	0.390700
H451	H45	0.436700	0.781500	0.406800
H461	H46	0.232000	0.830400	0.482800
H471	H47	0.360900	0.736300	0.497400
H481	H48	0.120500	0.776700	0.421400
H491	H49	0.101000	0.630800	0.382400
H501	H50	0.428100	0.407700	0.405400
H511	H51	0.457300	0.547300	0.445700
H521	H52	0.623200	0.867000	0.724100
H531	H53	0.615000	0.034800	0.753300
H541	H54	0.933600	0.951400	0.671900
H551	H55	0.931900	0.787100	0.642300
H561	H56	0.739200	0.188800	0.700600
H571	H57	0.706200	0.156600	0.765000
H581	H58	0.939400	0.093400	0.717800
H591	H59	0.501300	0.570500	0.288800
H601	H60	0.503700	0.667300	0.323700
H611	H61	0.619100	0.366900	0.318600
H621	H62	0.759800	0.222800	0.376500
H631	H63	0.870300	0.272700	0.430400
H641	H64	0.699000	0.611000	0.368400
H651	H65	0.835400	0.563200	0.441600
H661	H66	0.879300	0.438900	0.477000
H671	H67	0.847700	0.484100	0.132200
H681	H68	0.938800	0.346200	0.064400
H691	H69	0.815300	0.609500	0.940400
H701	H70	0.726900	0.740100	0.011300
H711	H71	0.979900	0.400300	0.917500
H721	H72	0.992300	0.296900	0.965000
H731	H73	0.873000	0.308200	0.890700
H741	H74	0.781500	0.436700	0.906800
H751	H75	0.830400	0.232000	0.982800
H761	H76	0.736300	0.360900	0.997400
H771	H77	0.776700	0.120500	0.921400
H781	H78	0.630800	0.101000	0.882400
H791	H79	0.407700	0.428100	0.905400
H801	H80	0.547300	0.457300	0.945700
H811	H81	0.867000	0.623200	0.224100
H821	H82	0.034800	0.615000	0.253300
H831	H83	0.951400	0.933600	0.171900
H841	H84	0.787100	0.931900	0.142300
H851	H85	0.188800	0.739200	0.200600
H861	H86	0.156600	0.706200	0.265000
H871	H87	0.093400	0.939400	0.217800
H881	H88	0.429500	0.498700	0.211200
H891	H89	0.332700	0.496300	0.176300
H901	H90	0.633100	0.380900	0.181400
H911	H91	0.777200	0.240200	0.123500
H921	H92	0.727300	0.129700	0.069600
H931	H93	0.389000	0.301000	0.131600
H941	H94	0.436800	0.164600	0.058400
H951	H95	0.561100	0.120700	0.023000
H961	H96	0.515900	0.152300	0.367800
H971	H97	0.653800	0.061200	0.435600
H981	H98	0.390500	0.184700	0.559600
H991	H99	0.259900	0.273100	0.488700
H1001	H100	0.599700	0.020100	0.582500
H1011	H101	0.703100	0.007700	0.535000
H1021	H102	0.691800	0.127000	0.609300
H1031	H103	0.563300	0.218500	0.593200
H1041	H104	0.768000	0.169600	0.517200
H1051	H105	0.639100	0.263700	0.502600
H1061	H106	0.879500	0.223300	0.578600
H1071	H107	0.899000	0.369200	0.617600
H1081	H108	0.571900	0.592300	0.594600
H1091	H109	0.542700	0.452700	0.554300
H1101	H110	0.376800	0.133000	0.275900
H1111	H111	0.385000	0.965200	0.246700
H1121	H112	0.066400	0.048600	0.328100
H1131	H113	0.068100	0.212900	0.357700
H1141	H114	0.260800	0.811200	0.299400
H1151	H115	0.293800	0.843400	0.235000
H1161	H116	0.060600	0.906600	0.282200
C11	C1	0.395420	0.354420	0.753330
C21	C2	0.447300	0.399300	0.699520
C31	C3	0.356000	0.495600	0.662470
C41	C4	0.336930	0.612330	0.659840
C51	C5	0.252500	0.698700	0.625200
C61	C6	0.186000	0.668800	0.592800
C71	C7	0.203280	0.553280	0.595170
C81	C8	0.288660	0.467460	0.630010
C91	C9	0.127000	0.522000	0.561810
C101	C10	0.002850	0.560850	0.592490
C111	C11	0.159990	0.490390	0.906870
C121	C12	0.104820	0.574020	0.947500
C131	C13	0.114980	0.538380	0.005990
C141	C14	0.177860	0.418660	0.020850
C151	C15	0.230700	0.340500	0.977770
C161	C16	0.063370	0.626570	0.051900
C171	C17	0.161830	0.640430	0.077570
C181	C18	0.226360	0.691760	0.033730
C191	C19	0.320860	0.708460	0.060520
C201	C20	0.298300	0.815100	0.080800
C211	C21	0.386890	0.826090	0.104230
C221	C22	0.517130	0.635330	0.090800
C231	C23	0.433190	0.616990	0.066600
C241	C24	0.115260	0.313460	0.787400
C251	C25	0.014270	0.318870	0.769370
C261	C26	0.985240	0.227040	0.784520
C271	C27	0.063200	0.132000	0.817500
C281	C28	0.162630	0.133230	0.834900
C291	C29	0.871030	0.234030	0.767200
C301	C30	0.645580	0.604580	0.746670
C311	C31	0.600700	0.552700	0.800480
C321	C32	0.504400	0.644000	0.837530
C331	C33	0.387670	0.663070	0.840160
C341	C34	0.301300	0.747500	0.874800
C351	C35	0.331200	0.814000	0.907200
C361	C36	0.446720	0.796720	0.904830
C371	C37	0.532540	0.711340	0.869990
C381	C38	0.478000	0.873000	0.938190
C391	C39	0.439150	0.997150	0.907510
C401	C40	0.509610	0.840010	0.593130
C411	C41	0.425980	0.895180	0.552500
C421	C42	0.461620	0.885020	0.494010
C431	C43	0.581340	0.822140	0.479150
C441	C44	0.659500	0.769300	0.522230
C451	C45	0.373430	0.936630	0.448100
C461	C46	0.359570	0.838170	0.422430
C471	C47	0.308240	0.773640	0.466270
C481	C48	0.291540	0.679140	0.439480
C491	C49	0.184900	0.701700	0.419200
C501	C50	0.173910	0.613110	0.395770
C511	C51	0.364670	0.482870	0.409200
C521	C52	0.383010	0.566810	0.433400
C531	C53	0.686540	0.884740	0.712600
C541	C54	0.681130	0.985730	0.730630
C551	C55	0.772960	0.014760	0.715480
C561	C56	0.868000	0.936800	0.682500
C571	C57	0.866770	0.837370	0.665100
C581	C58	0.765970	0.128970	0.732800
C591	C59	0.604580	0.645580	0.246670
C601	C60	0.552700	0.600700	0.300480
C611	C61	0.644000	0.504400	0.337530
C621	C62	0.663070	0.387670	0.340160
C631	C63	0.747500	0.301300	0.374800
C641	C64	0.814000	0.331200	0.407200
C651	C65	0.796720	0.446720	0.404830
C661	C66	0.711340	0.532540	0.369990
C671	C67	0.873000	0.478000	0.438190
C681	C68	0.997150	0.439150	0.407510
C691	C69	0.840010	0.509610	0.093130
C701	C70	0.895180	0.425980	0.052500
C711	C71	0.885020	0.461620	0.994010
C721	C72	0.822140	0.581340	0.979150
C731	C73	0.769300	0.659500	0.022230
C741	C74	0.936630	0.373430	0.948100
C751	C75	0.838170	0.359570	0.922430
C761	C76	0.773640	0.308240	0.966270
C771	C77	0.679140	0.291540	0.939480
C781	C78	0.701700	0.184900	0.919200
C791	C79	0.613110	0.173910	0.895770
C801	C80	0.482870	0.364670	0.909200
C811	C81	0.566810	0.383010	0.933400
C821	C82	0.884740	0.686540	0.212600
C831	C83	0.985730	0.681130	0.230630
C841	C84	0.014760	0.772960	0.215480
C851	C85	0.936800	0.868000	0.182500
C861	C86	0.837370	0.866770	0.165100
C871	C87	0.128970	0.765970	0.232800
C881	C88	0.354420	0.395420	0.253330
C891	C89	0.399300	0.447300	0.199520
C901	C90	0.495600	0.356000	0.162470
C911	C91	0.612330	0.336930	0.159840
C921	C92	0.698700	0.252500	0.125200
C931	C93	0.668800	0.186000	0.092800
C941	C94	0.553280	0.203280	0.095170
C951	C95	0.467460	0.288660	0.130010
C961	C96	0.522000	0.127000	0.061810
C971	C97	0.560850	0.002850	0.092490
C981	C98	0.490390	0.159990	0.406870
C991	C99	0.574020	0.104820	0.447500
C1001	C100	0.538380	0.114980	0.505990
C1011	C101	0.418660	0.177860	0.520850
C1021	C102	0.340500	0.230700	0.477770
C1031	C103	0.626570	0.063370	0.551900
C1041	C104	0.640430	0.161830	0.577570
C1051	C105	0.691760	0.226360	0.533730
C1061	C106	0.708460	0.320860	0.560520
C1071	C107	0.815100	0.298300	0.580800
C1081	C108	0.826090	0.386890	0.604230
C1091	C109	0.635330	0.517130	0.590800
C1101	C110	0.616990	0.433190	0.566600
C1111	C111	0.313460	0.115260	0.287400
C1121	C112	0.318870	0.014270	0.269370
C1131	C113	0.227040	0.985240	0.284520
C1141	C114	0.132000	0.063200	0.317500
C1151	C115	0.133230	0.162630	0.334900
C1161	C116	0.234030	0.871030	0.267200
C1171	C117	0.879600	0.120400	0.750000
C1181	C118	0.120400	0.879600	0.250000
N11	N1	0.223910	0.374510	0.921350
N21	N2	0.495930	0.738730	0.108830
N31	N3	0.190200	0.223000	0.820570
N41	N4	0.625490	0.776090	0.578650
N51	N5	0.261270	0.504070	0.391170
N61	N6	0.777000	0.809800	0.679430
N71	N7	0.776090	0.625490	0.078650
N81	N8	0.504070	0.261270	0.891170
N91	N9	0.809800	0.777000	0.179430
N101	N10	0.374510	0.223910	0.421350
N111	N11	0.738730	0.495930	0.608830
N121	N12	0.223000	0.190200	0.320570
O11	O1	0.436360	0.243960	0.764380
O21	O2	0.316220	0.427820	0.785340
O31	O3	0.990750	0.511750	0.640390
O41	O4	0.916220	0.643020	0.569330
O51	O5	0.756040	0.563640	0.735620
O61	O6	0.572180	0.683780	0.714660
O71	O7	0.488250	0.009250	0.859610
O81	O8	0.356980	0.083780	0.930670
O91	O9	0.563640	0.756040	0.235620
O101	O10	0.683780	0.572180	0.214660
O111	O11	0.009250	0.488250	0.359610
O121	O12	0.083780	0.356980	0.430670
O131	O13	0.243960	0.436360	0.264380
O141	O14	0.427820	0.316220	0.285340
O151	O15	0.511750	0.990750	0.140390
O161	O16	0.643020	0.916220	0.069330
