data_GUFXEM_clean_PM
_symmetry_space_group_name_H-M	'P1'
_cell_length_a	16.731800
_cell_length_b	18.110500
_cell_length_c	16.472100
_cell_angle_alpha	90.000000
_cell_angle_beta	110.618000
_cell_angle_gamma	90.000000
_symmetry_Int_Tables_number 1

loop_
_symmetry_equiv_pos_as_xyz
'x,y,z'

loop_
_atom_site_label
_atom_site_type_symbol
_atom_site_fract_x
_atom_site_fract_y
_atom_site_fract_z
Zn11	Zn1	0.185560	0.610500	0.127450
Zn21	Zn2	0.307810	0.617360	0.362010
C11	C1	0.074200	0.739730	0.273000
C21	C2	0.101900	0.773460	0.353500
H11	H1	0.157000	0.765000	0.392100
C31	C3	0.048000	0.819680	0.376900
C41	C4	0.965400	0.831140	0.319500
H21	H2	0.929100	0.862100	0.335400
C51	C5	0.936100	0.797060	0.238700
C61	C6	0.991400	0.751680	0.215300
H31	H3	0.973100	0.729200	0.161100
C71	C7	0.846300	0.810240	0.181200
C81	C8	0.812500	0.880300	0.176000
H41	H4	0.847100	0.918700	0.206100
C91	C9	0.727100	0.894500	0.126200
C101	C10	0.676300	0.837600	0.081300
H51	H5	0.619700	0.846500	0.047400
C111	C11	0.709500	0.766900	0.086400
C121	C12	0.794400	0.753800	0.135800
H61	H6	0.816600	0.706400	0.138200
C131	C13	0.135000	0.691310	0.250500
C141	C14	0.076900	0.857370	0.462500
C151	C15	0.694800	0.970700	0.126600
C161	C16	0.653600	0.703900	0.043600
C171	C17	0.232900	0.385300	0.110000
C181	C18	0.186300	0.324210	0.070800
H71	H7	0.131000	0.329700	0.031500
C191	C19	0.222100	0.254370	0.090000
C201	C20	0.305900	0.247280	0.146100
H81	H8	0.330100	0.200500	0.157700
C211	C21	0.354000	0.307630	0.185000
C221	C22	0.316600	0.376930	0.168500
H91	H9	0.347200	0.418100	0.196300
C231	C23	0.443200	0.296000	0.246400
C241	C24	0.496300	0.245540	0.227300
H101	H10	0.478300	0.221900	0.173700
C251	C25	0.576700	0.230080	0.288100
C261	C26	0.602900	0.264290	0.367700
H111	H11	0.655500	0.252300	0.409100
C271	C27	0.551900	0.316270	0.386630
C281	C28	0.471900	0.332440	0.325500
H121	H12	0.437600	0.367900	0.337800
C291	C29	0.193300	0.460500	0.091000
C301	C30	0.172500	0.186200	0.054500
C311	C31	0.636300	0.178200	0.267900
C321	C32	0.580900	0.353260	0.473300
O11	O1	0.115400	0.670730	0.173150
O21	O2	0.201510	0.674510	0.310140
O31	O3	0.154150	0.850340	0.509450
O41	O4	0.023030	0.891890	0.484050
O51	O5	0.747800	0.022590	0.144140
O61	O6	0.616870	0.981720	0.114210
O71	O7	0.579200	0.717800	0.993500
O81	O8	0.683400	0.640090	0.060600
H131	H13	0.659300	0.604600	0.027100
O91	O9	0.129810	0.469030	0.022580
O101	O10	0.227630	0.510540	0.144980
O111	O11	0.096520	0.198740	0.999610
H141	H14	0.071600	0.158300	0.979700
O121	O12	0.201040	0.124740	0.074900
O131	O13	0.615770	0.156160	0.191460
O141	O14	0.701900	0.160670	0.328370
O151	O15	0.656890	0.339950	0.522350
O161	O16	0.531320	0.393310	0.493720
Zn31	Zn3	0.814440	0.110500	0.372550
Zn41	Zn4	0.692190	0.117360	0.137990
C331	C33	0.925800	0.239730	0.227000
C341	C34	0.898100	0.273460	0.146500
H151	H15	0.843000	0.265000	0.107900
C351	C35	0.952000	0.319680	0.123100
C361	C36	0.034600	0.331140	0.180500
H161	H16	0.070900	0.362100	0.164600
C371	C37	0.063900	0.297060	0.261300
C381	C38	0.008600	0.251680	0.284700
H171	H17	0.026900	0.229200	0.338900
C391	C39	0.153700	0.310240	0.318800
C401	C40	0.187500	0.380300	0.324000
H181	H18	0.152900	0.418700	0.293900
C411	C41	0.272900	0.394500	0.373800
C421	C42	0.323700	0.337600	0.418700
H191	H19	0.380300	0.346500	0.452600
C431	C43	0.290500	0.266900	0.413600
C441	C44	0.205600	0.253800	0.364200
H201	H20	0.183400	0.206400	0.361800
C451	C45	0.865000	0.191310	0.249500
C461	C46	0.923100	0.357370	0.037500
C471	C47	0.305200	0.470700	0.373400
C481	C48	0.346400	0.203900	0.456400
C491	C49	0.767100	0.885300	0.390000
C501	C50	0.813700	0.824210	0.429200
H211	H21	0.869000	0.829700	0.468500
C511	C51	0.777900	0.754370	0.410000
C521	C52	0.694100	0.747280	0.353900
H221	H22	0.669900	0.700500	0.342300
C531	C53	0.646000	0.807630	0.315000
C541	C54	0.683400	0.876930	0.331500
H231	H23	0.652800	0.918100	0.303700
C551	C55	0.556800	0.796000	0.253600
C561	C56	0.503700	0.745540	0.272700
H241	H24	0.521700	0.721900	0.326300
C571	C57	0.423300	0.730080	0.211900
C581	C58	0.397100	0.764290	0.132300
H251	H25	0.344500	0.752300	0.090900
C591	C59	0.448100	0.816270	0.113370
C601	C60	0.528100	0.832440	0.174500
H261	H26	0.562400	0.867900	0.162200
C611	C61	0.806700	0.960500	0.409000
C621	C62	0.827500	0.686200	0.445500
C631	C63	0.363700	0.678200	0.232100
C641	C64	0.419100	0.853260	0.026700
O171	O17	0.884600	0.170730	0.326850
O181	O18	0.798490	0.174510	0.189860
O191	O19	0.845850	0.350340	0.990550
O201	O20	0.976970	0.391890	0.015950
O211	O21	0.252200	0.522590	0.355860
O221	O22	0.383130	0.481720	0.385790
O231	O23	0.420800	0.217800	0.506500
O241	O24	0.316600	0.140090	0.439400
H271	H27	0.340700	0.104600	0.472900
O251	O25	0.870190	0.969030	0.477420
O261	O26	0.772370	0.010540	0.355020
O271	O27	0.903480	0.698740	0.500390
H281	H28	0.928400	0.658300	0.520300
O281	O28	0.798960	0.624740	0.425100
O291	O29	0.384230	0.656160	0.308540
O301	O30	0.298100	0.660670	0.171630
O311	O31	0.343110	0.839950	0.977650
O321	O32	0.468680	0.893310	0.006280
Zn51	Zn5	0.814440	0.389500	0.872550
Zn61	Zn6	0.692190	0.382640	0.637990
C651	C65	0.925800	0.260270	0.727000
C661	C66	0.898100	0.226540	0.646500
H291	H29	0.843000	0.235000	0.607900
C671	C67	0.952000	0.180320	0.623100
C681	C68	0.034600	0.168860	0.680500
H301	H30	0.070900	0.137900	0.664600
C691	C69	0.063900	0.202940	0.761300
C701	C70	0.008600	0.248320	0.784700
H311	H31	0.026900	0.270800	0.838900
C711	C71	0.153700	0.189760	0.818800
C721	C72	0.187500	0.119700	0.824000
H321	H32	0.152900	0.081300	0.793900
C731	C73	0.272900	0.105500	0.873800
C741	C74	0.323700	0.162400	0.918700
H331	H33	0.380300	0.153500	0.952600
C751	C75	0.290500	0.233100	0.913600
C761	C76	0.205600	0.246200	0.864200
H341	H34	0.183400	0.293600	0.861800
C771	C77	0.865000	0.308690	0.749500
C781	C78	0.923100	0.142630	0.537500
C791	C79	0.305200	0.029300	0.873400
C801	C80	0.346400	0.296100	0.956400
C811	C81	0.767100	0.614700	0.890000
C821	C82	0.813700	0.675790	0.929200
H351	H35	0.869000	0.670300	0.968500
C831	C83	0.777900	0.745630	0.910000
C841	C84	0.694100	0.752720	0.853900
H361	H36	0.669900	0.799500	0.842300
C851	C85	0.646000	0.692370	0.815000
C861	C86	0.683400	0.623070	0.831500
H371	H37	0.652800	0.581900	0.803700
C871	C87	0.556800	0.704000	0.753600
C881	C88	0.503700	0.754460	0.772700
H381	H38	0.521700	0.778100	0.826300
C891	C89	0.423300	0.769920	0.711900
C901	C90	0.397100	0.735710	0.632300
H391	H39	0.344500	0.747700	0.590900
C911	C91	0.448100	0.683730	0.613370
C921	C92	0.528100	0.667560	0.674500
H401	H40	0.562400	0.632100	0.662200
C931	C93	0.806700	0.539500	0.909000
C941	C94	0.827500	0.813800	0.945500
C951	C95	0.363700	0.821800	0.732100
C961	C96	0.419100	0.646740	0.526700
O331	O33	0.884600	0.329270	0.826850
O341	O34	0.798490	0.325490	0.689860
O351	O35	0.845850	0.149660	0.490550
O361	O36	0.976970	0.108110	0.515950
O371	O37	0.252200	0.977410	0.855860
O381	O38	0.383130	0.018280	0.885790
O391	O39	0.420800	0.282200	0.006500
O401	O40	0.316600	0.359910	0.939400
H411	H41	0.340700	0.395400	0.972900
O411	O41	0.870190	0.530970	0.977420
O421	O42	0.772370	0.489460	0.855020
O431	O43	0.903480	0.801260	0.000390
H421	H42	0.928400	0.841700	0.020300
O441	O44	0.798960	0.875260	0.925100
O451	O45	0.384230	0.843840	0.808540
O461	O46	0.298100	0.839330	0.671630
O471	O47	0.343110	0.660050	0.477650
O481	O48	0.468680	0.606690	0.506280
Zn71	Zn7	0.185560	0.889500	0.627450
Zn81	Zn8	0.307810	0.882640	0.862010
C971	C97	0.074200	0.760270	0.773000
C981	C98	0.101900	0.726540	0.853500
H431	H43	0.157000	0.735000	0.892100
C991	C99	0.048000	0.680320	0.876900
C1001	C100	0.965400	0.668860	0.819500
H441	H44	0.929100	0.637900	0.835400
C1011	C101	0.936100	0.702940	0.738700
C1021	C102	0.991400	0.748320	0.715300
H451	H45	0.973100	0.770800	0.661100
C1031	C103	0.846300	0.689760	0.681200
C1041	C104	0.812500	0.619700	0.676000
H461	H46	0.847100	0.581300	0.706100
C1051	C105	0.727100	0.605500	0.626200
C1061	C106	0.676300	0.662400	0.581300
H471	H47	0.619700	0.653500	0.547400
C1071	C107	0.709500	0.733100	0.586400
C1081	C108	0.794400	0.746200	0.635800
H481	H48	0.816600	0.793600	0.638200
C1091	C109	0.135000	0.808690	0.750500
C1101	C110	0.076900	0.642630	0.962500
C1111	C111	0.694800	0.529300	0.626600
C1121	C112	0.653600	0.796100	0.543600
C1131	C113	0.232900	0.114700	0.610000
C1141	C114	0.186300	0.175790	0.570800
H491	H49	0.131000	0.170300	0.531500
C1151	C115	0.222100	0.245630	0.590000
C1161	C116	0.305900	0.252720	0.646100
H501	H50	0.330100	0.299500	0.657700
C1171	C117	0.354000	0.192370	0.685000
C1181	C118	0.316600	0.123070	0.668500
H511	H51	0.347200	0.081900	0.696300
C1191	C119	0.443200	0.204000	0.746400
C1201	C120	0.496300	0.254460	0.727300
H521	H52	0.478300	0.278100	0.673700
C1211	C121	0.576700	0.269920	0.788100
C1221	C122	0.602900	0.235710	0.867700
H531	H53	0.655500	0.247700	0.909100
C1231	C123	0.551900	0.183730	0.886630
C1241	C124	0.471900	0.167560	0.825500
H541	H54	0.437600	0.132100	0.837800
C1251	C125	0.193300	0.039500	0.591000
C1261	C126	0.172500	0.313800	0.554500
C1271	C127	0.636300	0.321800	0.767900
C1281	C128	0.580900	0.146740	0.973300
O491	O49	0.115400	0.829270	0.673150
O501	O50	0.201510	0.825490	0.810140
O511	O51	0.154150	0.649660	0.009450
O521	O52	0.023030	0.608110	0.984050
O531	O53	0.747800	0.477410	0.644140
O541	O54	0.616870	0.518280	0.614210
O551	O55	0.579200	0.782200	0.493500
O561	O56	0.683400	0.859910	0.560600
H551	H55	0.659300	0.895400	0.527100
O571	O57	0.129810	0.030970	0.522580
O581	O58	0.227630	0.989460	0.644980
O591	O59	0.096520	0.301260	0.499610
H561	H56	0.071600	0.341700	0.479700
O601	O60	0.201040	0.375260	0.574900
O611	O61	0.615770	0.343840	0.691460
O621	O62	0.701900	0.339330	0.828370
O631	O63	0.656890	0.160050	0.022350
O641	O64	0.531320	0.106690	0.993720
Zn91	Zn9	0.000000	0.500000	0.000000
Zn101	Zn10	0.000000	0.000000	0.500000
Zn111	Zn11	0.500000	0.500000	0.500000
Zn121	Zn12	0.500000	0.000000	0.000000
