data_GUHGOH_clean_PM
_symmetry_space_group_name_H-M	'P1'
_cell_length_a	18.256900
_cell_length_b	9.538200
_cell_length_c	16.937300
_cell_angle_alpha	90.000000
_cell_angle_beta	120.434000
_cell_angle_gamma	90.000000
_symmetry_Int_Tables_number 1

loop_
_symmetry_equiv_pos_as_xyz
'x,y,z'

loop_
_atom_site_label
_atom_site_type_symbol
_atom_site_fract_x
_atom_site_fract_y
_atom_site_fract_z
N11	N1	0.182900	0.587000	0.351970
Ba11	Ba1	0.011590	0.746780	0.998260
Co11	Co1	0.222040	0.779950	0.304990
P11	P1	0.149270	0.533550	0.180400
O11	O1	0.074790	0.487300	0.091090
O21	O2	0.164250	0.693000	0.179680
O31	O3	0.232100	0.455800	0.213050
O41	O4	0.335340	0.693500	0.390390
O51	O5	0.405030	0.496000	0.450100
O61	O6	0.141570	0.863300	0.341410
O71	O7	0.045850	0.818900	0.382460
C11	C1	0.118710	0.517300	0.266300
H11	H1	0.063600	0.560300	0.244400
H21	H2	0.114500	0.419000	0.278100
C21	C2	0.259360	0.499600	0.404900
H31	H3	0.250400	0.409500	0.374700
H41	H4	0.267400	0.482800	0.465300
C31	C3	0.338590	0.565700	0.414900
C41	C4	0.144400	0.638600	0.404500
H51	H5	0.187400	0.642500	0.468900
H61	H6	0.100600	0.573800	0.397500
C51	C5	0.105800	0.783400	0.372700
N21	N2	0.682900	0.087000	0.351970
Ba21	Ba2	0.511590	0.246780	0.998260
Co21	Co2	0.722040	0.279950	0.304990
P21	P2	0.649270	0.033550	0.180400
O81	O8	0.574790	0.987300	0.091090
O91	O9	0.664250	0.193000	0.179680
O101	O10	0.732100	0.955800	0.213050
O111	O11	0.835340	0.193500	0.390390
O121	O12	0.905030	0.996000	0.450100
O131	O13	0.641570	0.363300	0.341410
O141	O14	0.545850	0.318900	0.382460
C61	C6	0.618710	0.017300	0.266300
H71	H7	0.563600	0.060300	0.244400
H81	H8	0.614500	0.919000	0.278100
C71	C7	0.759360	0.999600	0.404900
H91	H9	0.750400	0.909500	0.374700
H101	H10	0.767400	0.982800	0.465300
C81	C8	0.838590	0.065700	0.414900
C91	C9	0.644400	0.138600	0.404500
H111	H11	0.687400	0.142500	0.468900
H121	H12	0.600600	0.073800	0.397500
C101	C10	0.605800	0.283400	0.372700
N31	N3	0.817100	0.587000	0.148030
Ba31	Ba3	0.988410	0.746780	0.501740
Co31	Co3	0.777960	0.779950	0.195010
P31	P3	0.850730	0.533550	0.319600
O151	O15	0.925210	0.487300	0.408910
O161	O16	0.835750	0.693000	0.320320
O171	O17	0.767900	0.455800	0.286950
O181	O18	0.664660	0.693500	0.109610
O191	O19	0.594970	0.496000	0.049900
O201	O20	0.858430	0.863300	0.158590
O211	O21	0.954150	0.818900	0.117540
C111	C11	0.881290	0.517300	0.233700
H131	H13	0.936400	0.560300	0.255600
H141	H14	0.885500	0.419000	0.221900
C121	C12	0.740640	0.499600	0.095100
H151	H15	0.749600	0.409500	0.125300
H161	H16	0.732600	0.482800	0.034700
C131	C13	0.661410	0.565700	0.085100
C141	C14	0.855600	0.638600	0.095500
H171	H17	0.812600	0.642500	0.031100
H181	H18	0.899400	0.573800	0.102500
C151	C15	0.894200	0.783400	0.127300
N41	N4	0.317100	0.087000	0.148030
Ba41	Ba4	0.488410	0.246780	0.501740
Co41	Co4	0.277960	0.279950	0.195010
P41	P4	0.350730	0.033550	0.319600
O221	O22	0.425210	0.987300	0.408910
O231	O23	0.335750	0.193000	0.320320
O241	O24	0.267900	0.955800	0.286950
O251	O25	0.164660	0.193500	0.109610
O261	O26	0.094970	0.996000	0.049900
O271	O27	0.358430	0.363300	0.158590
O281	O28	0.454150	0.318900	0.117540
C161	C16	0.381290	0.017300	0.233700
H191	H19	0.436400	0.060300	0.255600
H201	H20	0.385500	0.919000	0.221900
C171	C17	0.240640	0.999600	0.095100
H211	H21	0.249600	0.909500	0.125300
H221	H22	0.232600	0.982800	0.034700
C181	C18	0.161410	0.065700	0.085100
C191	C19	0.355600	0.138600	0.095500
H231	H23	0.312600	0.142500	0.031100
H241	H24	0.399400	0.073800	0.102500
C201	C20	0.394200	0.283400	0.127300
N51	N5	0.817100	0.413000	0.648030
Ba51	Ba5	0.988410	0.253220	0.001740
Co51	Co5	0.777960	0.220050	0.695010
P51	P5	0.850730	0.466450	0.819600
O291	O29	0.925210	0.512700	0.908910
O301	O30	0.835750	0.307000	0.820320
O311	O31	0.767900	0.544200	0.786950
O321	O32	0.664660	0.306500	0.609610
O331	O33	0.594970	0.504000	0.549900
O341	O34	0.858430	0.136700	0.658590
O351	O35	0.954150	0.181100	0.617540
C211	C21	0.881290	0.482700	0.733700
H251	H25	0.936400	0.439700	0.755600
H261	H26	0.885500	0.581000	0.721900
C221	C22	0.740640	0.500400	0.595100
H271	H27	0.749600	0.590500	0.625300
H281	H28	0.732600	0.517200	0.534700
C231	C23	0.661410	0.434300	0.585100
C241	C24	0.855600	0.361400	0.595500
H291	H29	0.812600	0.357500	0.531100
H301	H30	0.899400	0.426200	0.602500
C251	C25	0.894200	0.216600	0.627300
N61	N6	0.317100	0.913000	0.648030
Ba61	Ba6	0.488410	0.753220	0.001740
Co61	Co6	0.277960	0.720050	0.695010
P61	P6	0.350730	0.966450	0.819600
O361	O36	0.425210	0.012700	0.908910
O371	O37	0.335750	0.807000	0.820320
O381	O38	0.267900	0.044200	0.786950
O391	O39	0.164660	0.806500	0.609610
O401	O40	0.094970	0.004000	0.549900
O411	O41	0.358430	0.636700	0.658590
O421	O42	0.454150	0.681100	0.617540
C261	C26	0.381290	0.982700	0.733700
H311	H31	0.436400	0.939700	0.755600
H321	H32	0.385500	0.081000	0.721900
C271	C27	0.240640	0.000400	0.595100
H331	H33	0.249600	0.090500	0.625300
H341	H34	0.232600	0.017200	0.534700
C281	C28	0.161410	0.934300	0.585100
C291	C29	0.355600	0.861400	0.595500
H351	H35	0.312600	0.857500	0.531100
H361	H36	0.399400	0.926200	0.602500
C301	C30	0.394200	0.716600	0.627300
N71	N7	0.182900	0.413000	0.851970
Ba71	Ba7	0.011590	0.253220	0.498260
Co71	Co7	0.222040	0.220050	0.804990
P71	P7	0.149270	0.466450	0.680400
O431	O43	0.074790	0.512700	0.591090
O441	O44	0.164250	0.307000	0.679680
O451	O45	0.232100	0.544200	0.713050
O461	O46	0.335340	0.306500	0.890390
O471	O47	0.405030	0.504000	0.950100
O481	O48	0.141570	0.136700	0.841410
O491	O49	0.045850	0.181100	0.882460
C311	C31	0.118710	0.482700	0.766300
H371	H37	0.063600	0.439700	0.744400
H381	H38	0.114500	0.581000	0.778100
C321	C32	0.259360	0.500400	0.904900
H391	H39	0.250400	0.590500	0.874700
H401	H40	0.267400	0.517200	0.965300
C331	C33	0.338590	0.434300	0.914900
C341	C34	0.144400	0.361400	0.904500
H411	H41	0.187400	0.357500	0.968900
H421	H42	0.100600	0.426200	0.897500
C351	C35	0.105800	0.216600	0.872700
N81	N8	0.682900	0.913000	0.851970
Ba81	Ba8	0.511590	0.753220	0.498260
Co81	Co8	0.722040	0.720050	0.804990
P81	P8	0.649270	0.966450	0.680400
O501	O50	0.574790	0.012700	0.591090
O511	O51	0.664250	0.807000	0.679680
O521	O52	0.732100	0.044200	0.713050
O531	O53	0.835340	0.806500	0.890390
O541	O54	0.905030	0.004000	0.950100
O551	O55	0.641570	0.636700	0.841410
O561	O56	0.545850	0.681100	0.882460
C361	C36	0.618710	0.982700	0.766300
H431	H43	0.563600	0.939700	0.744400
H441	H44	0.614500	0.081000	0.778100
C371	C37	0.759360	0.000400	0.904900
H451	H45	0.750400	0.090500	0.874700
H461	H46	0.767400	0.017200	0.965300
C381	C38	0.838590	0.934300	0.914900
C391	C39	0.644400	0.861400	0.904500
H471	H47	0.687400	0.857500	0.968900
H481	H48	0.600600	0.926200	0.897500
C401	C40	0.605800	0.716600	0.872700
