data_GUHPAC_clean_PM
_symmetry_space_group_name_H-M	'P1'
_cell_length_a	32.840000
_cell_length_b	8.998000
_cell_length_c	34.210000
_cell_angle_alpha	90.000000
_cell_angle_beta	115.564000
_cell_angle_gamma	90.000000
_symmetry_Int_Tables_number 1

loop_
_symmetry_equiv_pos_as_xyz
'x,y,z'

loop_
_atom_site_label
_atom_site_type_symbol
_atom_site_fract_x
_atom_site_fract_y
_atom_site_fract_z
Sm11	Sm1	0.003810	0.857550	0.881030
O11	O1	0.068500	0.913500	0.949060
O21	O2	0.130900	0.771100	0.969500
O31	O3	0.029800	0.098600	0.068390
O41	O4	0.070500	0.029000	0.134440
O51	O5	0.453200	0.817600	0.327860
O61	O6	0.468900	0.617100	0.300340
O71	O7	0.438800	0.704700	0.139400
O81	O8	0.368400	0.770400	0.099600
H11	H1	0.373500	0.736400	0.079900
N11	N1	0.330600	0.082000	0.200000
H21	H2	0.317600	0.121800	0.174800
N21	N2	0.183300	0.659900	0.124700
H31	H3	0.199900	0.614000	0.114900
C11	C1	0.402800	0.751900	0.135600
C21	C2	0.397300	0.808000	0.175500
C31	C3	0.424500	0.747900	0.215400
H41	H4	0.445000	0.672600	0.218200
C41	C4	0.420200	0.803900	0.251100
C51	C5	0.389300	0.912800	0.247100
H51	H5	0.386800	0.947400	0.271600
C61	C6	0.361200	0.972800	0.205700
C71	C7	0.364800	0.912200	0.170200
H61	H6	0.345100	0.942300	0.142500
C81	C8	0.449600	0.741100	0.296000
C91	C9	0.318000	0.137500	0.233500
H71	H7	0.344800	0.172300	0.258100
H81	H8	0.305100	0.057000	0.243400
C101	C10	0.284200	0.263200	0.216800
C111	C11	0.237700	0.232800	0.195100
C121	C12	0.208000	0.356700	0.180200
C131	C13	0.224200	0.500100	0.185900
C141	C14	0.270500	0.529700	0.205200
C151	C15	0.300500	0.411700	0.221000
C161	C16	0.220600	0.075400	0.188900
H91	H9	0.212400	0.045100	0.159500
H101	H10	0.194600	0.069500	0.194800
H111	H11	0.243800	0.011000	0.208300
C171	C17	0.157500	0.325000	0.158100
H121	H12	0.145100	0.335200	0.178700
H131	H13	0.152600	0.225500	0.146800
H141	H14	0.143000	0.394100	0.134800
C181	C18	0.351700	0.444000	0.240900
H151	H15	0.368000	0.352200	0.245300
H161	H16	0.360600	0.493700	0.268200
H171	H17	0.358300	0.506300	0.221600
C191	C19	0.191100	0.630500	0.168500
H181	H18	0.162800	0.605900	0.169700
H191	H19	0.203600	0.717900	0.186300
C201	C20	0.151400	0.755400	0.097200
C211	C21	0.143600	0.760100	0.053800
H201	H20	0.161700	0.704600	0.044500
C221	C22	0.108800	0.847300	0.024100
C231	C23	0.082100	0.935600	0.037100
H211	H21	0.059300	0.994700	0.017300
C241	C24	0.090600	0.932600	0.080500
C251	C25	0.124800	0.846100	0.110100
H221	H22	0.130200	0.848100	0.139100
C261	C26	0.101200	0.844300	0.976700
C271	C27	0.063200	0.030000	0.096000
C281	C28	0.288700	0.686000	0.209100
H231	H23	0.264500	0.752400	0.192400
H241	H24	0.311300	0.688900	0.198300
H251	H25	0.301800	0.715800	0.238900
Sm21	Sm2	0.503810	0.357550	0.881030
O91	O9	0.568500	0.413500	0.949060
O101	O10	0.630900	0.271100	0.969500
O111	O11	0.529800	0.598600	0.068390
O121	O12	0.570500	0.529000	0.134440
O131	O13	0.953200	0.317600	0.327860
O141	O14	0.968900	0.117100	0.300340
O151	O15	0.938800	0.204700	0.139400
O161	O16	0.868400	0.270400	0.099600
H261	H26	0.873500	0.236400	0.079900
N31	N3	0.830600	0.582000	0.200000
H271	H27	0.817600	0.621800	0.174800
N41	N4	0.683300	0.159900	0.124700
H281	H28	0.699900	0.114000	0.114900
C291	C29	0.902800	0.251900	0.135600
C301	C30	0.897300	0.308000	0.175500
C311	C31	0.924500	0.247900	0.215400
H291	H29	0.945000	0.172600	0.218200
C321	C32	0.920200	0.303900	0.251100
C331	C33	0.889300	0.412800	0.247100
H301	H30	0.886800	0.447400	0.271600
C341	C34	0.861200	0.472800	0.205700
C351	C35	0.864800	0.412200	0.170200
H311	H31	0.845100	0.442300	0.142500
C361	C36	0.949600	0.241100	0.296000
C371	C37	0.818000	0.637500	0.233500
H321	H32	0.844800	0.672300	0.258100
H331	H33	0.805100	0.557000	0.243400
C381	C38	0.784200	0.763200	0.216800
C391	C39	0.737700	0.732800	0.195100
C401	C40	0.708000	0.856700	0.180200
C411	C41	0.724200	0.000100	0.185900
C421	C42	0.770500	0.029700	0.205200
C431	C43	0.800500	0.911700	0.221000
C441	C44	0.720600	0.575400	0.188900
H341	H34	0.712400	0.545100	0.159500
H351	H35	0.694600	0.569500	0.194800
H361	H36	0.743800	0.511000	0.208300
C451	C45	0.657500	0.825000	0.158100
H371	H37	0.645100	0.835200	0.178700
H381	H38	0.652600	0.725500	0.146800
H391	H39	0.643000	0.894100	0.134800
C461	C46	0.851700	0.944000	0.240900
H401	H40	0.868000	0.852200	0.245300
H411	H41	0.860600	0.993700	0.268200
H421	H42	0.858300	0.006300	0.221600
C471	C47	0.691100	0.130500	0.168500
H431	H43	0.662800	0.105900	0.169700
H441	H44	0.703600	0.217900	0.186300
C481	C48	0.651400	0.255400	0.097200
C491	C49	0.643600	0.260100	0.053800
H451	H45	0.661700	0.204600	0.044500
C501	C50	0.608800	0.347300	0.024100
C511	C51	0.582100	0.435600	0.037100
H461	H46	0.559300	0.494700	0.017300
C521	C52	0.590600	0.432600	0.080500
C531	C53	0.624800	0.346100	0.110100
H471	H47	0.630200	0.348100	0.139100
C541	C54	0.601200	0.344300	0.976700
C551	C55	0.563200	0.530000	0.096000
C561	C56	0.788700	0.186000	0.209100
H481	H48	0.764500	0.252400	0.192400
H491	H49	0.811300	0.188900	0.198300
H501	H50	0.801800	0.215800	0.238900
Sm31	Sm3	0.996190	0.857550	0.618970
O171	O17	0.931500	0.913500	0.550940
O181	O18	0.869100	0.771100	0.530500
O191	O19	0.970200	0.098600	0.431610
O201	O20	0.929500	0.029000	0.365560
O211	O21	0.546800	0.817600	0.172140
O221	O22	0.531100	0.617100	0.199660
O231	O23	0.561200	0.704700	0.360600
O241	O24	0.631600	0.770400	0.400400
H511	H51	0.626500	0.736400	0.420100
N51	N5	0.669400	0.082000	0.300000
H521	H52	0.682400	0.121800	0.325200
N61	N6	0.816700	0.659900	0.375300
H531	H53	0.800100	0.614000	0.385100
C571	C57	0.597200	0.751900	0.364400
C581	C58	0.602700	0.808000	0.324500
C591	C59	0.575500	0.747900	0.284600
H541	H54	0.555000	0.672600	0.281800
C601	C60	0.579800	0.803900	0.248900
C611	C61	0.610700	0.912800	0.252900
H551	H55	0.613200	0.947400	0.228400
C621	C62	0.638800	0.972800	0.294300
C631	C63	0.635200	0.912200	0.329800
H561	H56	0.654900	0.942300	0.357500
C641	C64	0.550400	0.741100	0.204000
C651	C65	0.682000	0.137500	0.266500
H571	H57	0.655200	0.172300	0.241900
H581	H58	0.694900	0.057000	0.256600
C661	C66	0.715800	0.263200	0.283200
C671	C67	0.762300	0.232800	0.304900
C681	C68	0.792000	0.356700	0.319800
C691	C69	0.775800	0.500100	0.314100
C701	C70	0.729500	0.529700	0.294800
C711	C71	0.699500	0.411700	0.279000
C721	C72	0.779400	0.075400	0.311100
H591	H59	0.787600	0.045100	0.340500
H601	H60	0.805400	0.069500	0.305200
H611	H61	0.756200	0.011000	0.291700
C731	C73	0.842500	0.325000	0.341900
H621	H62	0.854900	0.335200	0.321300
H631	H63	0.847400	0.225500	0.353200
H641	H64	0.857000	0.394100	0.365200
C741	C74	0.648300	0.444000	0.259100
H651	H65	0.632000	0.352200	0.254700
H661	H66	0.639400	0.493700	0.231800
H671	H67	0.641700	0.506300	0.278400
C751	C75	0.808900	0.630500	0.331500
H681	H68	0.837200	0.605900	0.330300
H691	H69	0.796400	0.717900	0.313700
C761	C76	0.848600	0.755400	0.402800
C771	C77	0.856400	0.760100	0.446200
H701	H70	0.838300	0.704600	0.455500
C781	C78	0.891200	0.847300	0.475900
C791	C79	0.917900	0.935600	0.462900
H711	H71	0.940700	0.994700	0.482700
C801	C80	0.909400	0.932600	0.419500
C811	C81	0.875200	0.846100	0.389900
H721	H72	0.869800	0.848100	0.360900
C821	C82	0.898800	0.844300	0.523300
C831	C83	0.936800	0.030000	0.404000
C841	C84	0.711300	0.686000	0.290900
H731	H73	0.735500	0.752400	0.307600
H741	H74	0.688700	0.688900	0.301700
H751	H75	0.698200	0.715800	0.261100
Sm41	Sm4	0.496190	0.357550	0.618970
O251	O25	0.431500	0.413500	0.550940
O261	O26	0.369100	0.271100	0.530500
O271	O27	0.470200	0.598600	0.431610
O281	O28	0.429500	0.529000	0.365560
O291	O29	0.046800	0.317600	0.172140
O301	O30	0.031100	0.117100	0.199660
O311	O31	0.061200	0.204700	0.360600
O321	O32	0.131600	0.270400	0.400400
H761	H76	0.126500	0.236400	0.420100
N71	N7	0.169400	0.582000	0.300000
H771	H77	0.182400	0.621800	0.325200
N81	N8	0.316700	0.159900	0.375300
H781	H78	0.300100	0.114000	0.385100
C851	C85	0.097200	0.251900	0.364400
C861	C86	0.102700	0.308000	0.324500
C871	C87	0.075500	0.247900	0.284600
H791	H79	0.055000	0.172600	0.281800
C881	C88	0.079800	0.303900	0.248900
C891	C89	0.110700	0.412800	0.252900
H801	H80	0.113200	0.447400	0.228400
C901	C90	0.138800	0.472800	0.294300
C911	C91	0.135200	0.412200	0.329800
H811	H81	0.154900	0.442300	0.357500
C921	C92	0.050400	0.241100	0.204000
C931	C93	0.182000	0.637500	0.266500
H821	H82	0.155200	0.672300	0.241900
H831	H83	0.194900	0.557000	0.256600
C941	C94	0.215800	0.763200	0.283200
C951	C95	0.262300	0.732800	0.304900
C961	C96	0.292000	0.856700	0.319800
C971	C97	0.275800	0.000100	0.314100
C981	C98	0.229500	0.029700	0.294800
C991	C99	0.199500	0.911700	0.279000
C1001	C100	0.279400	0.575400	0.311100
H841	H84	0.287600	0.545100	0.340500
H851	H85	0.305400	0.569500	0.305200
H861	H86	0.256200	0.511000	0.291700
C1011	C101	0.342500	0.825000	0.341900
H871	H87	0.354900	0.835200	0.321300
H881	H88	0.347400	0.725500	0.353200
H891	H89	0.357000	0.894100	0.365200
C1021	C102	0.148300	0.944000	0.259100
H901	H90	0.132000	0.852200	0.254700
H911	H91	0.139400	0.993700	0.231800
H921	H92	0.141700	0.006300	0.278400
C1031	C103	0.308900	0.130500	0.331500
H931	H93	0.337200	0.105900	0.330300
H941	H94	0.296400	0.217900	0.313700
C1041	C104	0.348600	0.255400	0.402800
C1051	C105	0.356400	0.260100	0.446200
H951	H95	0.338300	0.204600	0.455500
C1061	C106	0.391200	0.347300	0.475900
C1071	C107	0.417900	0.435600	0.462900
H961	H96	0.440700	0.494700	0.482700
C1081	C108	0.409400	0.432600	0.419500
C1091	C109	0.375200	0.346100	0.389900
H971	H97	0.369800	0.348100	0.360900
C1101	C110	0.398800	0.344300	0.523300
C1111	C111	0.436800	0.530000	0.404000
C1121	C112	0.211300	0.186000	0.290900
H981	H98	0.235500	0.252400	0.307600
H991	H99	0.188700	0.188900	0.301700
H1001	H100	0.198200	0.215800	0.261100
Sm51	Sm5	0.996190	0.142450	0.118970
O331	O33	0.931500	0.086500	0.050940
O341	O34	0.869100	0.228900	0.030500
O351	O35	0.970200	0.901400	0.931610
O361	O36	0.929500	0.971000	0.865560
O371	O37	0.546800	0.182400	0.672140
O381	O38	0.531100	0.382900	0.699660
O391	O39	0.561200	0.295300	0.860600
O401	O40	0.631600	0.229600	0.900400
H1011	H101	0.626500	0.263600	0.920100
N91	N9	0.669400	0.918000	0.800000
H1021	H102	0.682400	0.878200	0.825200
N101	N10	0.816700	0.340100	0.875300
H1031	H103	0.800100	0.386000	0.885100
C1131	C113	0.597200	0.248100	0.864400
C1141	C114	0.602700	0.192000	0.824500
C1151	C115	0.575500	0.252100	0.784600
H1041	H104	0.555000	0.327400	0.781800
C1161	C116	0.579800	0.196100	0.748900
C1171	C117	0.610700	0.087200	0.752900
H1051	H105	0.613200	0.052600	0.728400
C1181	C118	0.638800	0.027200	0.794300
C1191	C119	0.635200	0.087800	0.829800
H1061	H106	0.654900	0.057700	0.857500
C1201	C120	0.550400	0.258900	0.704000
C1211	C121	0.682000	0.862500	0.766500
H1071	H107	0.655200	0.827700	0.741900
H1081	H108	0.694900	0.943000	0.756600
C1221	C122	0.715800	0.736800	0.783200
C1231	C123	0.762300	0.767200	0.804900
C1241	C124	0.792000	0.643300	0.819800
C1251	C125	0.775800	0.499900	0.814100
C1261	C126	0.729500	0.470300	0.794800
C1271	C127	0.699500	0.588300	0.779000
C1281	C128	0.779400	0.924600	0.811100
H1091	H109	0.787600	0.954900	0.840500
H1101	H110	0.805400	0.930500	0.805200
H1111	H111	0.756200	0.989000	0.791700
C1291	C129	0.842500	0.675000	0.841900
H1121	H112	0.854900	0.664800	0.821300
H1131	H113	0.847400	0.774500	0.853200
H1141	H114	0.857000	0.605900	0.865200
C1301	C130	0.648300	0.556000	0.759100
H1151	H115	0.632000	0.647800	0.754700
H1161	H116	0.639400	0.506300	0.731800
H1171	H117	0.641700	0.493700	0.778400
C1311	C131	0.808900	0.369500	0.831500
H1181	H118	0.837200	0.394100	0.830300
H1191	H119	0.796400	0.282100	0.813700
C1321	C132	0.848600	0.244600	0.902800
C1331	C133	0.856400	0.239900	0.946200
H1201	H120	0.838300	0.295400	0.955500
C1341	C134	0.891200	0.152700	0.975900
C1351	C135	0.917900	0.064400	0.962900
H1211	H121	0.940700	0.005300	0.982700
C1361	C136	0.909400	0.067400	0.919500
C1371	C137	0.875200	0.153900	0.889900
H1221	H122	0.869800	0.151900	0.860900
C1381	C138	0.898800	0.155700	0.023300
C1391	C139	0.936800	0.970000	0.904000
C1401	C140	0.711300	0.314000	0.790900
H1231	H123	0.735500	0.247600	0.807600
H1241	H124	0.688700	0.311100	0.801700
H1251	H125	0.698200	0.284200	0.761100
Sm61	Sm6	0.496190	0.642450	0.118970
O411	O41	0.431500	0.586500	0.050940
O421	O42	0.369100	0.728900	0.030500
O431	O43	0.470200	0.401400	0.931610
O441	O44	0.429500	0.471000	0.865560
O451	O45	0.046800	0.682400	0.672140
O461	O46	0.031100	0.882900	0.699660
O471	O47	0.061200	0.795300	0.860600
O481	O48	0.131600	0.729600	0.900400
H1261	H126	0.126500	0.763600	0.920100
N111	N11	0.169400	0.418000	0.800000
H1271	H127	0.182400	0.378200	0.825200
N121	N12	0.316700	0.840100	0.875300
H1281	H128	0.300100	0.886000	0.885100
C1411	C141	0.097200	0.748100	0.864400
C1421	C142	0.102700	0.692000	0.824500
C1431	C143	0.075500	0.752100	0.784600
H1291	H129	0.055000	0.827400	0.781800
C1441	C144	0.079800	0.696100	0.748900
C1451	C145	0.110700	0.587200	0.752900
H1301	H130	0.113200	0.552600	0.728400
C1461	C146	0.138800	0.527200	0.794300
C1471	C147	0.135200	0.587800	0.829800
H1311	H131	0.154900	0.557700	0.857500
C1481	C148	0.050400	0.758900	0.704000
C1491	C149	0.182000	0.362500	0.766500
H1321	H132	0.155200	0.327700	0.741900
H1331	H133	0.194900	0.443000	0.756600
C1501	C150	0.215800	0.236800	0.783200
C1511	C151	0.262300	0.267200	0.804900
C1521	C152	0.292000	0.143300	0.819800
C1531	C153	0.275800	0.999900	0.814100
C1541	C154	0.229500	0.970300	0.794800
C1551	C155	0.199500	0.088300	0.779000
C1561	C156	0.279400	0.424600	0.811100
H1341	H134	0.287600	0.454900	0.840500
H1351	H135	0.305400	0.430500	0.805200
H1361	H136	0.256200	0.489000	0.791700
C1571	C157	0.342500	0.175000	0.841900
H1371	H137	0.354900	0.164800	0.821300
H1381	H138	0.347400	0.274500	0.853200
H1391	H139	0.357000	0.105900	0.865200
C1581	C158	0.148300	0.056000	0.759100
H1401	H140	0.132000	0.147800	0.754700
H1411	H141	0.139400	0.006300	0.731800
H1421	H142	0.141700	0.993700	0.778400
C1591	C159	0.308900	0.869500	0.831500
H1431	H143	0.337200	0.894100	0.830300
H1441	H144	0.296400	0.782100	0.813700
C1601	C160	0.348600	0.744600	0.902800
C1611	C161	0.356400	0.739900	0.946200
H1451	H145	0.338300	0.795400	0.955500
C1621	C162	0.391200	0.652700	0.975900
C1631	C163	0.417900	0.564400	0.962900
H1461	H146	0.440700	0.505300	0.982700
C1641	C164	0.409400	0.567400	0.919500
C1651	C165	0.375200	0.653900	0.889900
H1471	H147	0.369800	0.651900	0.860900
C1661	C166	0.398800	0.655700	0.023300
C1671	C167	0.436800	0.470000	0.904000
C1681	C168	0.211300	0.814000	0.790900
H1481	H148	0.235500	0.747600	0.807600
H1491	H149	0.188700	0.811100	0.801700
H1501	H150	0.198200	0.784200	0.761100
Sm71	Sm7	0.003810	0.142450	0.381030
O491	O49	0.068500	0.086500	0.449060
O501	O50	0.130900	0.228900	0.469500
O511	O51	0.029800	0.901400	0.568390
O521	O52	0.070500	0.971000	0.634440
O531	O53	0.453200	0.182400	0.827860
O541	O54	0.468900	0.382900	0.800340
O551	O55	0.438800	0.295300	0.639400
O561	O56	0.368400	0.229600	0.599600
H1511	H151	0.373500	0.263600	0.579900
N131	N13	0.330600	0.918000	0.700000
H1521	H152	0.317600	0.878200	0.674800
N141	N14	0.183300	0.340100	0.624700
H1531	H153	0.199900	0.386000	0.614900
C1691	C169	0.402800	0.248100	0.635600
C1701	C170	0.397300	0.192000	0.675500
C1711	C171	0.424500	0.252100	0.715400
H1541	H154	0.445000	0.327400	0.718200
C1721	C172	0.420200	0.196100	0.751100
C1731	C173	0.389300	0.087200	0.747100
H1551	H155	0.386800	0.052600	0.771600
C1741	C174	0.361200	0.027200	0.705700
C1751	C175	0.364800	0.087800	0.670200
H1561	H156	0.345100	0.057700	0.642500
C1761	C176	0.449600	0.258900	0.796000
C1771	C177	0.318000	0.862500	0.733500
H1571	H157	0.344800	0.827700	0.758100
H1581	H158	0.305100	0.943000	0.743400
C1781	C178	0.284200	0.736800	0.716800
C1791	C179	0.237700	0.767200	0.695100
C1801	C180	0.208000	0.643300	0.680200
C1811	C181	0.224200	0.499900	0.685900
C1821	C182	0.270500	0.470300	0.705200
C1831	C183	0.300500	0.588300	0.721000
C1841	C184	0.220600	0.924600	0.688900
H1591	H159	0.212400	0.954900	0.659500
H1601	H160	0.194600	0.930500	0.694800
H1611	H161	0.243800	0.989000	0.708300
C1851	C185	0.157500	0.675000	0.658100
H1621	H162	0.145100	0.664800	0.678700
H1631	H163	0.152600	0.774500	0.646800
H1641	H164	0.143000	0.605900	0.634800
C1861	C186	0.351700	0.556000	0.740900
H1651	H165	0.368000	0.647800	0.745300
H1661	H166	0.360600	0.506300	0.768200
H1671	H167	0.358300	0.493700	0.721600
C1871	C187	0.191100	0.369500	0.668500
H1681	H168	0.162800	0.394100	0.669700
H1691	H169	0.203600	0.282100	0.686300
C1881	C188	0.151400	0.244600	0.597200
C1891	C189	0.143600	0.239900	0.553800
H1701	H170	0.161700	0.295400	0.544500
C1901	C190	0.108800	0.152700	0.524100
C1911	C191	0.082100	0.064400	0.537100
H1711	H171	0.059300	0.005300	0.517300
C1921	C192	0.090600	0.067400	0.580500
C1931	C193	0.124800	0.153900	0.610100
H1721	H172	0.130200	0.151900	0.639100
C1941	C194	0.101200	0.155700	0.476700
C1951	C195	0.063200	0.970000	0.596000
C1961	C196	0.288700	0.314000	0.709100
H1731	H173	0.264500	0.247600	0.692400
H1741	H174	0.311300	0.311100	0.698300
H1751	H175	0.301800	0.284200	0.738900
Sm81	Sm8	0.503810	0.642450	0.381030
O571	O57	0.568500	0.586500	0.449060
O581	O58	0.630900	0.728900	0.469500
O591	O59	0.529800	0.401400	0.568390
O601	O60	0.570500	0.471000	0.634440
O611	O61	0.953200	0.682400	0.827860
O621	O62	0.968900	0.882900	0.800340
O631	O63	0.938800	0.795300	0.639400
O641	O64	0.868400	0.729600	0.599600
H1761	H176	0.873500	0.763600	0.579900
N151	N15	0.830600	0.418000	0.700000
H1771	H177	0.817600	0.378200	0.674800
N161	N16	0.683300	0.840100	0.624700
H1781	H178	0.699900	0.886000	0.614900
C1971	C197	0.902800	0.748100	0.635600
C1981	C198	0.897300	0.692000	0.675500
C1991	C199	0.924500	0.752100	0.715400
H1791	H179	0.945000	0.827400	0.718200
C2001	C200	0.920200	0.696100	0.751100
C2011	C201	0.889300	0.587200	0.747100
H1801	H180	0.886800	0.552600	0.771600
C2021	C202	0.861200	0.527200	0.705700
C2031	C203	0.864800	0.587800	0.670200
H1811	H181	0.845100	0.557700	0.642500
C2041	C204	0.949600	0.758900	0.796000
C2051	C205	0.818000	0.362500	0.733500
H1821	H182	0.844800	0.327700	0.758100
H1831	H183	0.805100	0.443000	0.743400
C2061	C206	0.784200	0.236800	0.716800
C2071	C207	0.737700	0.267200	0.695100
C2081	C208	0.708000	0.143300	0.680200
C2091	C209	0.724200	0.999900	0.685900
C2101	C210	0.770500	0.970300	0.705200
C2111	C211	0.800500	0.088300	0.721000
C2121	C212	0.720600	0.424600	0.688900
H1841	H184	0.712400	0.454900	0.659500
H1851	H185	0.694600	0.430500	0.694800
H1861	H186	0.743800	0.489000	0.708300
C2131	C213	0.657500	0.175000	0.658100
H1871	H187	0.645100	0.164800	0.678700
H1881	H188	0.652600	0.274500	0.646800
H1891	H189	0.643000	0.105900	0.634800
C2141	C214	0.851700	0.056000	0.740900
H1901	H190	0.868000	0.147800	0.745300
H1911	H191	0.860600	0.006300	0.768200
H1921	H192	0.858300	0.993700	0.721600
C2151	C215	0.691100	0.869500	0.668500
H1931	H193	0.662800	0.894100	0.669700
H1941	H194	0.703600	0.782100	0.686300
C2161	C216	0.651400	0.744600	0.597200
C2171	C217	0.643600	0.739900	0.553800
H1951	H195	0.661700	0.795400	0.544500
C2181	C218	0.608800	0.652700	0.524100
C2191	C219	0.582100	0.564400	0.537100
H1961	H196	0.559300	0.505300	0.517300
C2201	C220	0.590600	0.567400	0.580500
C2211	C221	0.624800	0.653900	0.610100
H1971	H197	0.630200	0.651900	0.639100
C2221	C222	0.601200	0.655700	0.476700
C2231	C223	0.563200	0.470000	0.596000
C2241	C224	0.788700	0.814000	0.709100
H1981	H198	0.764500	0.747600	0.692400
H1991	H199	0.811300	0.811100	0.698300
H2001	H200	0.801800	0.784200	0.738900
