data_GUJGAU_clean_PM
_symmetry_space_group_name_H-M	'P1'
_cell_length_a	13.329900
_cell_length_b	13.636200
_cell_length_c	15.290000
_cell_angle_alpha	108.916000
_cell_angle_beta	101.898000
_cell_angle_gamma	111.691000
_symmetry_Int_Tables_number 1

loop_
_symmetry_equiv_pos_as_xyz
'x,y,z'

loop_
_atom_site_label
_atom_site_type_symbol
_atom_site_fract_x
_atom_site_fract_y
_atom_site_fract_z
La11	La1	0.316040	0.352350	0.573500
La21	La2	0.099360	0.106530	0.653920
La31	La3	0.683960	0.647650	0.426500
La41	La4	0.900640	0.893470	0.346070
P11	P1	0.987400	0.176020	0.442510
P21	P2	0.418570	0.225570	0.734600
P31	P3	0.217650	0.077750	0.439680
P41	P4	0.384990	0.408170	0.368890
P51	P5	0.816880	0.823150	0.070880
P61	P6	0.012600	0.823980	0.557490
P71	P7	0.581430	0.774430	0.265400
P81	P8	0.782350	0.922250	0.560320
P91	P9	0.615010	0.591830	0.631110
P101	P10	0.183120	0.176850	0.929120
H11	H1	0.066900	0.415200	0.533300
H21	H2	0.416300	0.338600	0.932500
H31	H3	0.410000	0.056100	0.559100
H41	H4	0.158000	0.237000	0.125800
H51	H5	0.965400	0.083300	0.227800
H61	H6	0.061100	0.443700	0.869000
H71	H7	0.115300	0.637800	0.973100
H81	H8	0.245300	0.789900	0.953400
H91	H9	0.324900	0.750300	0.835800
H101	H10	0.921200	0.270900	0.557800
H111	H11	0.842400	0.234800	0.449400
H121	H12	0.881800	0.454500	0.551900
H131	H13	0.982900	0.476300	0.641700
H141	H14	0.984000	0.345400	0.365100
H151	H15	0.883400	0.374200	0.380200
H161	H16	0.596800	0.361600	0.865600
H171	H17	0.531700	0.258200	0.890200
H181	H18	0.583900	0.400600	0.058200
H191	H19	0.646500	0.504500	0.033100
H201	H20	0.531400	0.519200	0.889500
H211	H21	0.400200	0.424800	0.830000
H221	H22	0.253000	0.923200	0.365900
H231	H23	0.218200	0.914900	0.455500
H241	H24	0.451300	0.019300	0.384100
H251	H25	0.470800	0.140800	0.459700
H261	H26	0.351300	0.861400	0.518300
H271	H27	0.378300	0.846600	0.421100
H281	H28	0.344000	0.347500	0.200600
H291	H29	0.292000	0.431200	0.238000
H301	H30	0.234500	0.140100	0.193900
H311	H31	0.189200	0.176600	0.279800
H321	H32	0.105600	0.304700	0.292200
H331	H33	0.093800	0.356500	0.214900
H341	H34	0.954200	0.170200	0.089500
H351	H35	0.912700	0.200900	0.178800
H361	H36	0.055500	0.986100	0.163100
H371	H37	0.046100	0.025800	0.077600
H381	H38	0.782900	0.985400	0.121200
H391	H39	0.822900	0.976400	0.031000
H401	H40	0.392400	0.269000	0.382700
H411	H41	0.933100	0.584800	0.466700
H421	H42	0.583700	0.661400	0.067500
H431	H43	0.590000	0.943900	0.440900
H441	H44	0.842000	0.763000	0.874200
H451	H45	0.034600	0.916700	0.772200
H461	H46	0.938900	0.556300	0.131000
H471	H47	0.884700	0.362200	0.026900
H481	H48	0.754700	0.210100	0.046600
H491	H49	0.675100	0.249700	0.164200
H501	H50	0.078800	0.729100	0.442200
H511	H51	0.157600	0.765200	0.550600
H521	H52	0.118200	0.545500	0.448100
H531	H53	0.017100	0.523700	0.358300
H541	H54	0.016000	0.654600	0.634900
H551	H55	0.116600	0.625800	0.619800
H561	H56	0.403200	0.638400	0.134400
H571	H57	0.468300	0.741800	0.109800
H581	H58	0.416100	0.599400	0.941800
H591	H59	0.353500	0.495500	0.966900
H601	H60	0.468600	0.480800	0.110500
H611	H61	0.599800	0.575200	0.170000
H621	H62	0.747000	0.076800	0.634100
H631	H63	0.781800	0.085100	0.544500
H641	H64	0.548700	0.980700	0.615900
H651	H65	0.529200	0.859200	0.540300
H661	H66	0.648700	0.138600	0.481700
H671	H67	0.621700	0.153400	0.578900
H681	H68	0.656000	0.652500	0.799400
H691	H69	0.708000	0.568800	0.762000
H701	H70	0.765500	0.859900	0.806100
H711	H71	0.810800	0.823400	0.720200
H721	H72	0.894400	0.695300	0.707800
H731	H73	0.906200	0.643500	0.785100
H741	H74	0.045800	0.829800	0.910500
H751	H75	0.087300	0.799100	0.821200
H761	H76	0.944500	0.013900	0.836900
H771	H77	0.953900	0.974200	0.922400
H781	H78	0.217100	0.014600	0.878800
H791	H79	0.177100	0.023600	0.969000
H801	H80	0.607600	0.731000	0.617300
C11	C1	0.294000	0.547200	0.705000
C21	C2	0.129600	0.354800	0.728800
C31	C3	0.241200	0.573400	0.780800
C41	C4	0.161700	0.480600	0.790600
C51	C5	0.114500	0.505000	0.862000
C61	C6	0.146500	0.621700	0.924400
C71	C7	0.224700	0.712400	0.913000
C81	C8	0.271800	0.688700	0.842500
C91	C9	0.922100	0.268900	0.493900
C101	C10	0.964000	0.477700	0.577500
C111	C11	0.965600	0.399000	0.409900
C121	C12	0.521900	0.311500	0.864100
C131	C13	0.572900	0.455000	0.034200
C141	C14	0.461700	0.469300	0.895400
C151	C15	0.267500	0.968500	0.435100
C161	C16	0.474300	0.069300	0.454100
C171	C17	0.402600	0.900700	0.490100
C181	C18	0.299600	0.364100	0.240900
C191	C19	0.174300	0.157300	0.210000
C201	C20	0.090500	0.287700	0.222700
C211	C21	0.970500	0.183000	0.158300
C221	C22	0.057200	0.050000	0.147400
C231	C23	0.839200	0.972600	0.094300
C241	C24	0.706000	0.452800	0.295000
C251	C25	0.870400	0.645200	0.271200
C261	C26	0.758800	0.426600	0.219200
C271	C27	0.838300	0.519400	0.209400
C281	C28	0.885500	0.495000	0.138000
C291	C29	0.853500	0.378300	0.075600
C301	C30	0.775300	0.287600	0.087000
C311	C31	0.728200	0.311300	0.157500
C321	C32	0.077900	0.731100	0.506100
C331	C33	0.036000	0.522300	0.422500
C341	C34	0.034400	0.601000	0.590100
C351	C35	0.478100	0.688500	0.135900
C361	C36	0.427100	0.545000	0.965800
C371	C37	0.538300	0.530700	0.104600
C381	C38	0.732500	0.031500	0.564900
C391	C39	0.525700	0.930700	0.545900
C401	C40	0.597400	0.099300	0.509900
C411	C41	0.700400	0.635900	0.759100
C421	C42	0.825700	0.842700	0.790000
C431	C43	0.909500	0.712300	0.777300
C441	C44	0.029500	0.817000	0.841700
C451	C45	0.942800	0.950000	0.852600
C461	C46	0.160800	0.027400	0.905700
N11	N1	0.989800	0.392700	0.507000
N21	N2	0.483700	0.387000	0.930600
N31	N3	0.391500	0.007200	0.494700
N41	N4	0.179700	0.260400	0.192600
N51	N5	0.959900	0.072800	0.164800
N61	N6	0.010200	0.607300	0.493000
N71	N7	0.516300	0.613000	0.069400
N81	N8	0.608500	0.992800	0.505300
N91	N9	0.820300	0.739600	0.807400
N101	N10	0.040100	0.927200	0.835200
O11	O1	0.229900	0.501000	0.614500
O21	O2	0.396800	0.563400	0.732700
O31	O3	0.202000	0.332500	0.694000
O41	O4	0.034400	0.274400	0.714200
O51	O5	0.976500	0.098700	0.497000
O61	O6	0.109000	0.264000	0.462900
O71	O7	0.914200	0.094400	0.332000
O81	O8	0.435100	0.311700	0.689100
O91	O9	0.454700	0.133900	0.688300
O101	O10	0.301900	0.173800	0.744200
O111	O11	0.211700	0.131300	0.541400
O121	O12	0.306800	0.179600	0.430200
O131	O13	0.101700	0.005400	0.355500
O141	O14	0.309600	0.403100	0.429100
O151	O15	0.428500	0.313500	0.361900
O161	O16	0.483900	0.526900	0.399500
O171	O17	0.686500	0.746000	0.025500
O181	O18	0.875000	0.792000	0.997100
O191	O19	0.877700	0.832800	0.170500
O201	O20	0.770100	0.499000	0.385500
O211	O21	0.603200	0.436600	0.267300
O221	O22	0.798000	0.667500	0.306000
O231	O23	0.965600	0.725600	0.285800
O241	O24	0.023500	0.901300	0.503000
O251	O25	0.891000	0.736000	0.537100
O261	O26	0.085800	0.905600	0.668000
O271	O27	0.564900	0.688300	0.310900
O281	O28	0.545300	0.866100	0.311700
O291	O29	0.698100	0.826200	0.255800
O301	O30	0.788300	0.868700	0.458600
O311	O31	0.693200	0.820400	0.569800
O321	O32	0.898300	0.994600	0.644500
O331	O33	0.690400	0.596900	0.570900
O341	O34	0.571500	0.686500	0.638100
O351	O35	0.516100	0.473100	0.600500
O361	O36	0.313500	0.254000	0.974500
O371	O37	0.125000	0.208000	0.002900
O381	O38	0.122300	0.167200	0.829500
