data_GUJREK01_clean_PM
_symmetry_space_group_name_H-M	'P1'
_cell_length_a	12.358800
_cell_length_b	15.501100
_cell_length_c	34.305000
_cell_angle_alpha	90.000000
_cell_angle_beta	90.000000
_cell_angle_gamma	90.000000
_symmetry_Int_Tables_number 1

loop_
_symmetry_equiv_pos_as_xyz
'x,y,z'

loop_
_atom_site_label
_atom_site_type_symbol
_atom_site_fract_x
_atom_site_fract_y
_atom_site_fract_z
Cu11	Cu1	0.650090	0.642260	0.513690
S11	S1	0.880480	0.628680	0.309320
C11	C1	0.815200	0.231500	0.333200
H11	H1	0.877500	0.194000	0.328400
H21	H2	0.751000	0.207300	0.320500
H31	H3	0.802300	0.235800	0.361300
C21	C2	0.837300	0.318600	0.317200
C31	C3	0.825600	0.457100	0.306800
C41	C4	0.789400	0.546300	0.306200
C51	C5	0.688400	0.575500	0.298800
H41	H4	0.627100	0.539000	0.295800
C61	C6	0.684200	0.666600	0.296000
H51	H5	0.619600	0.698100	0.291400
C71	C7	0.782500	0.703900	0.300500
C81	C8	0.814200	0.794200	0.295500
C91	C9	0.817200	0.933800	0.302300
C101	C10	0.795200	0.021900	0.316500
H61	H6	0.836100	0.063500	0.300900
H71	H7	0.817200	0.026500	0.343900
H81	H8	0.717700	0.034100	0.314300
C111	C11	0.702200	0.401900	0.358200
C121	C12	0.600900	0.362700	0.356400
H91	H9	0.580900	0.328500	0.334600
C131	C13	0.529500	0.375000	0.387500
H101	H10	0.461300	0.346700	0.387500
C141	C14	0.557900	0.428700	0.418500
H111	H11	0.507300	0.439100	0.438800
C151	C15	0.661200	0.467900	0.419900
C161	C16	0.730700	0.453600	0.389100
H121	H12	0.800000	0.480100	0.389300
C171	C17	0.692100	0.527500	0.450900
C181	C18	0.697500	0.853700	0.348800
C191	C19	0.593800	0.887800	0.346800
H131	H13	0.568200	0.914500	0.323600
C201	C20	0.529200	0.881800	0.379200
H141	H14	0.459100	0.906900	0.378700
C211	C21	0.563400	0.840200	0.412900
H151	H15	0.516600	0.835200	0.434700
C221	C22	0.667600	0.805700	0.414100
C231	C23	0.734700	0.812300	0.381500
H161	H16	0.805500	0.788400	0.381900
C241	C24	0.702200	0.753500	0.448200
N11	N1	0.779500	0.391100	0.327000
N21	N2	0.913300	0.338100	0.292200
N31	N3	0.908300	0.427000	0.286000
N41	N4	0.768500	0.861700	0.315570
N51	N5	0.890000	0.823000	0.271790
N61	N6	0.891200	0.912500	0.275700
O11	O1	0.618800	0.555100	0.474210
O21	O2	0.790200	0.552900	0.452100
O31	O3	0.633300	0.732700	0.473630
O41	O4	0.801200	0.730100	0.448890
Cu21	Cu2	0.150090	0.142260	0.013690
S21	S2	0.380480	0.128680	0.809320
C251	C25	0.315200	0.731500	0.833200
H171	H17	0.377500	0.694000	0.828400
H181	H18	0.251000	0.707300	0.820500
H191	H19	0.302300	0.735800	0.861300
C261	C26	0.337300	0.818600	0.817200
C271	C27	0.325600	0.957100	0.806800
C281	C28	0.289400	0.046300	0.806200
C291	C29	0.188400	0.075500	0.798800
H201	H20	0.127100	0.039000	0.795800
C301	C30	0.184200	0.166600	0.796000
H211	H21	0.119600	0.198100	0.791400
C311	C31	0.282500	0.203900	0.800500
C321	C32	0.314200	0.294200	0.795500
C331	C33	0.317200	0.433800	0.802300
C341	C34	0.295200	0.521900	0.816500
H221	H22	0.336100	0.563500	0.800900
H231	H23	0.317200	0.526500	0.843900
H241	H24	0.217700	0.534100	0.814300
C351	C35	0.202200	0.901900	0.858200
C361	C36	0.100900	0.862700	0.856400
H251	H25	0.080900	0.828500	0.834600
C371	C37	0.029500	0.875000	0.887500
H261	H26	0.961300	0.846700	0.887500
C381	C38	0.057900	0.928700	0.918500
H271	H27	0.007300	0.939100	0.938800
C391	C39	0.161200	0.967900	0.919900
C401	C40	0.230700	0.953600	0.889100
H281	H28	0.300000	0.980100	0.889300
C411	C41	0.192100	0.027500	0.950900
C421	C42	0.197500	0.353700	0.848800
C431	C43	0.093800	0.387800	0.846800
H291	H29	0.068200	0.414500	0.823600
C441	C44	0.029200	0.381800	0.879200
H301	H30	0.959100	0.406900	0.878700
C451	C45	0.063400	0.340200	0.912900
H311	H31	0.016600	0.335200	0.934700
C461	C46	0.167600	0.305700	0.914100
C471	C47	0.234700	0.312300	0.881500
H321	H32	0.305500	0.288400	0.881900
C481	C48	0.202200	0.253500	0.948200
N71	N7	0.279500	0.891100	0.827000
N81	N8	0.413300	0.838100	0.792200
N91	N9	0.408300	0.927000	0.786000
N101	N10	0.268500	0.361700	0.815570
N111	N11	0.390000	0.323000	0.771790
N121	N12	0.391200	0.412500	0.775700
O51	O5	0.118800	0.055100	0.974210
O61	O6	0.290200	0.052900	0.952100
O71	O7	0.133300	0.232700	0.973630
O81	O8	0.301200	0.230100	0.948890
Cu31	Cu3	0.849910	0.357740	0.013690
S31	S3	0.619520	0.371320	0.809320
C491	C49	0.684800	0.768500	0.833200
H331	H33	0.622500	0.806000	0.828400
H341	H34	0.749000	0.792700	0.820500
H351	H35	0.697700	0.764200	0.861300
C501	C50	0.662700	0.681400	0.817200
C511	C51	0.674400	0.542900	0.806800
C521	C52	0.710600	0.453700	0.806200
C531	C53	0.811600	0.424500	0.798800
H361	H36	0.872900	0.461000	0.795800
C541	C54	0.815800	0.333400	0.796000
H371	H37	0.880400	0.301900	0.791400
C551	C55	0.717500	0.296100	0.800500
C561	C56	0.685800	0.205800	0.795500
C571	C57	0.682800	0.066200	0.802300
C581	C58	0.704800	0.978100	0.816500
H381	H38	0.663900	0.936500	0.800900
H391	H39	0.682800	0.973500	0.843900
H401	H40	0.782300	0.965900	0.814300
C591	C59	0.797800	0.598100	0.858200
C601	C60	0.899100	0.637300	0.856400
H411	H41	0.919100	0.671500	0.834600
C611	C61	0.970500	0.625000	0.887500
H421	H42	0.038700	0.653300	0.887500
C621	C62	0.942100	0.571300	0.918500
H431	H43	0.992700	0.560900	0.938800
C631	C63	0.838800	0.532100	0.919900
C641	C64	0.769300	0.546400	0.889100
H441	H44	0.700000	0.519900	0.889300
C651	C65	0.807900	0.472500	0.950900
C661	C66	0.802500	0.146300	0.848800
C671	C67	0.906200	0.112200	0.846800
H451	H45	0.931800	0.085500	0.823600
C681	C68	0.970800	0.118200	0.879200
H461	H46	0.040900	0.093100	0.878700
C691	C69	0.936600	0.159800	0.912900
H471	H47	0.983400	0.164800	0.934700
C701	C70	0.832400	0.194300	0.914100
C711	C71	0.765300	0.187700	0.881500
H481	H48	0.694500	0.211600	0.881900
C721	C72	0.797800	0.246500	0.948200
N131	N13	0.720500	0.608900	0.827000
N141	N14	0.586700	0.661900	0.792200
N151	N15	0.591700	0.573000	0.786000
N161	N16	0.731500	0.138300	0.815570
N171	N17	0.610000	0.177000	0.771790
N181	N18	0.608800	0.087500	0.775700
O91	O9	0.881200	0.444900	0.974210
O101	O10	0.709800	0.447100	0.952100
O111	O11	0.866700	0.267300	0.973630
O121	O12	0.698800	0.269900	0.948890
Cu41	Cu4	0.349910	0.857740	0.513690
S41	S4	0.119520	0.871320	0.309320
C731	C73	0.184800	0.268500	0.333200
H491	H49	0.122500	0.306000	0.328400
H501	H50	0.249000	0.292700	0.320500
H511	H51	0.197700	0.264200	0.361300
C741	C74	0.162700	0.181400	0.317200
C751	C75	0.174400	0.042900	0.306800
C761	C76	0.210600	0.953700	0.306200
C771	C77	0.311600	0.924500	0.298800
H521	H52	0.372900	0.961000	0.295800
C781	C78	0.315800	0.833400	0.296000
H531	H53	0.380400	0.801900	0.291400
C791	C79	0.217500	0.796100	0.300500
C801	C80	0.185800	0.705800	0.295500
C811	C81	0.182800	0.566200	0.302300
C821	C82	0.204800	0.478100	0.316500
H541	H54	0.163900	0.436500	0.300900
H551	H55	0.182800	0.473500	0.343900
H561	H56	0.282300	0.465900	0.314300
C831	C83	0.297800	0.098100	0.358200
C841	C84	0.399100	0.137300	0.356400
H571	H57	0.419100	0.171500	0.334600
C851	C85	0.470500	0.125000	0.387500
H581	H58	0.538700	0.153300	0.387500
C861	C86	0.442100	0.071300	0.418500
H591	H59	0.492700	0.060900	0.438800
C871	C87	0.338800	0.032100	0.419900
C881	C88	0.269300	0.046400	0.389100
H601	H60	0.200000	0.019900	0.389300
C891	C89	0.307900	0.972500	0.450900
C901	C90	0.302500	0.646300	0.348800
C911	C91	0.406200	0.612200	0.346800
H611	H61	0.431800	0.585500	0.323600
C921	C92	0.470800	0.618200	0.379200
H621	H62	0.540900	0.593100	0.378700
C931	C93	0.436600	0.659800	0.412900
H631	H63	0.483400	0.664800	0.434700
C941	C94	0.332400	0.694300	0.414100
C951	C95	0.265300	0.687700	0.381500
H641	H64	0.194500	0.711600	0.381900
C961	C96	0.297800	0.746500	0.448200
N191	N19	0.220500	0.108900	0.327000
N201	N20	0.086700	0.161900	0.292200
N211	N21	0.091700	0.073000	0.286000
N221	N22	0.231500	0.638300	0.315570
N231	N23	0.110000	0.677000	0.271790
N241	N24	0.108800	0.587500	0.275700
O131	O13	0.381200	0.944900	0.474210
O141	O14	0.209800	0.947100	0.452100
O151	O15	0.366700	0.767300	0.473630
O161	O16	0.198800	0.769900	0.448890
Cu51	Cu5	0.349910	0.142260	0.986310
S51	S5	0.119520	0.128680	0.190680
C971	C97	0.184800	0.731500	0.166800
H651	H65	0.122500	0.694000	0.171600
H661	H66	0.249000	0.707300	0.179500
H671	H67	0.197700	0.735800	0.138700
C981	C98	0.162700	0.818600	0.182800
C991	C99	0.174400	0.957100	0.193200
C1001	C100	0.210600	0.046300	0.193800
C1011	C101	0.311600	0.075500	0.201200
H681	H68	0.372900	0.039000	0.204200
C1021	C102	0.315800	0.166600	0.204000
H691	H69	0.380400	0.198100	0.208600
C1031	C103	0.217500	0.203900	0.199500
C1041	C104	0.185800	0.294200	0.204500
C1051	C105	0.182800	0.433800	0.197700
C1061	C106	0.204800	0.521900	0.183500
H701	H70	0.163900	0.563500	0.199100
H711	H71	0.182800	0.526500	0.156100
H721	H72	0.282300	0.534100	0.185700
C1071	C107	0.297800	0.901900	0.141800
C1081	C108	0.399100	0.862700	0.143600
H731	H73	0.419100	0.828500	0.165400
C1091	C109	0.470500	0.875000	0.112500
H741	H74	0.538700	0.846700	0.112500
C1101	C110	0.442100	0.928700	0.081500
H751	H75	0.492700	0.939100	0.061200
C1111	C111	0.338800	0.967900	0.080100
C1121	C112	0.269300	0.953600	0.110900
H761	H76	0.200000	0.980100	0.110700
C1131	C113	0.307900	0.027500	0.049100
C1141	C114	0.302500	0.353700	0.151200
C1151	C115	0.406200	0.387800	0.153200
H771	H77	0.431800	0.414500	0.176400
C1161	C116	0.470800	0.381800	0.120800
H781	H78	0.540900	0.406900	0.121300
C1171	C117	0.436600	0.340200	0.087100
H791	H79	0.483400	0.335200	0.065300
C1181	C118	0.332400	0.305700	0.085900
C1191	C119	0.265300	0.312300	0.118500
H801	H80	0.194500	0.288400	0.118100
C1201	C120	0.297800	0.253500	0.051800
N251	N25	0.220500	0.891100	0.173000
N261	N26	0.086700	0.838100	0.207800
N271	N27	0.091700	0.927000	0.214000
N281	N28	0.231500	0.361700	0.184430
N291	N29	0.110000	0.323000	0.228210
N301	N30	0.108800	0.412500	0.224300
O171	O17	0.381200	0.055100	0.025790
O181	O18	0.209800	0.052900	0.047900
O191	O19	0.366700	0.232700	0.026370
O201	O20	0.198800	0.230100	0.051110
Cu61	Cu6	0.849910	0.642260	0.486310
S61	S6	0.619520	0.628680	0.690680
C1211	C121	0.684800	0.231500	0.666800
H811	H81	0.622500	0.194000	0.671600
H821	H82	0.749000	0.207300	0.679500
H831	H83	0.697700	0.235800	0.638700
C1221	C122	0.662700	0.318600	0.682800
C1231	C123	0.674400	0.457100	0.693200
C1241	C124	0.710600	0.546300	0.693800
C1251	C125	0.811600	0.575500	0.701200
H841	H84	0.872900	0.539000	0.704200
C1261	C126	0.815800	0.666600	0.704000
H851	H85	0.880400	0.698100	0.708600
C1271	C127	0.717500	0.703900	0.699500
C1281	C128	0.685800	0.794200	0.704500
C1291	C129	0.682800	0.933800	0.697700
C1301	C130	0.704800	0.021900	0.683500
H861	H86	0.663900	0.063500	0.699100
H871	H87	0.682800	0.026500	0.656100
H881	H88	0.782300	0.034100	0.685700
C1311	C131	0.797800	0.401900	0.641800
C1321	C132	0.899100	0.362700	0.643600
H891	H89	0.919100	0.328500	0.665400
C1331	C133	0.970500	0.375000	0.612500
H901	H90	0.038700	0.346700	0.612500
C1341	C134	0.942100	0.428700	0.581500
H911	H91	0.992700	0.439100	0.561200
C1351	C135	0.838800	0.467900	0.580100
C1361	C136	0.769300	0.453600	0.610900
H921	H92	0.700000	0.480100	0.610700
C1371	C137	0.807900	0.527500	0.549100
C1381	C138	0.802500	0.853700	0.651200
C1391	C139	0.906200	0.887800	0.653200
H931	H93	0.931800	0.914500	0.676400
C1401	C140	0.970800	0.881800	0.620800
H941	H94	0.040900	0.906900	0.621300
C1411	C141	0.936600	0.840200	0.587100
H951	H95	0.983400	0.835200	0.565300
C1421	C142	0.832400	0.805700	0.585900
C1431	C143	0.765300	0.812300	0.618500
H961	H96	0.694500	0.788400	0.618100
C1441	C144	0.797800	0.753500	0.551800
N311	N31	0.720500	0.391100	0.673000
N321	N32	0.586700	0.338100	0.707800
N331	N33	0.591700	0.427000	0.714000
N341	N34	0.731500	0.861700	0.684430
N351	N35	0.610000	0.823000	0.728210
N361	N36	0.608800	0.912500	0.724300
O211	O21	0.881200	0.555100	0.525790
O221	O22	0.709800	0.552900	0.547900
O231	O23	0.866700	0.732700	0.526370
O241	O24	0.698800	0.730100	0.551110
Cu71	Cu7	0.150090	0.857740	0.486310
S71	S7	0.380480	0.871320	0.690680
C1451	C145	0.315200	0.268500	0.666800
H971	H97	0.377500	0.306000	0.671600
H981	H98	0.251000	0.292700	0.679500
H991	H99	0.302300	0.264200	0.638700
C1461	C146	0.337300	0.181400	0.682800
C1471	C147	0.325600	0.042900	0.693200
C1481	C148	0.289400	0.953700	0.693800
C1491	C149	0.188400	0.924500	0.701200
H1001	H100	0.127100	0.961000	0.704200
C1501	C150	0.184200	0.833400	0.704000
H1011	H101	0.119600	0.801900	0.708600
C1511	C151	0.282500	0.796100	0.699500
C1521	C152	0.314200	0.705800	0.704500
C1531	C153	0.317200	0.566200	0.697700
C1541	C154	0.295200	0.478100	0.683500
H1021	H102	0.336100	0.436500	0.699100
H1031	H103	0.317200	0.473500	0.656100
H1041	H104	0.217700	0.465900	0.685700
C1551	C155	0.202200	0.098100	0.641800
C1561	C156	0.100900	0.137300	0.643600
H1051	H105	0.080900	0.171500	0.665400
C1571	C157	0.029500	0.125000	0.612500
H1061	H106	0.961300	0.153300	0.612500
C1581	C158	0.057900	0.071300	0.581500
H1071	H107	0.007300	0.060900	0.561200
C1591	C159	0.161200	0.032100	0.580100
C1601	C160	0.230700	0.046400	0.610900
H1081	H108	0.300000	0.019900	0.610700
C1611	C161	0.192100	0.972500	0.549100
C1621	C162	0.197500	0.646300	0.651200
C1631	C163	0.093800	0.612200	0.653200
H1091	H109	0.068200	0.585500	0.676400
C1641	C164	0.029200	0.618200	0.620800
H1101	H110	0.959100	0.593100	0.621300
C1651	C165	0.063400	0.659800	0.587100
H1111	H111	0.016600	0.664800	0.565300
C1661	C166	0.167600	0.694300	0.585900
C1671	C167	0.234700	0.687700	0.618500
H1121	H112	0.305500	0.711600	0.618100
C1681	C168	0.202200	0.746500	0.551800
N371	N37	0.279500	0.108900	0.673000
N381	N38	0.413300	0.161900	0.707800
N391	N39	0.408300	0.073000	0.714000
N401	N40	0.268500	0.638300	0.684430
N411	N41	0.390000	0.677000	0.728210
N421	N42	0.391200	0.587500	0.724300
O251	O25	0.118800	0.944900	0.525790
O261	O26	0.290200	0.947100	0.547900
O271	O27	0.133300	0.767300	0.526370
O281	O28	0.301200	0.769900	0.551110
Cu81	Cu8	0.650090	0.357740	0.986310
S81	S8	0.880480	0.371320	0.190680
C1691	C169	0.815200	0.768500	0.166800
H1131	H113	0.877500	0.806000	0.171600
H1141	H114	0.751000	0.792700	0.179500
H1151	H115	0.802300	0.764200	0.138700
C1701	C170	0.837300	0.681400	0.182800
C1711	C171	0.825600	0.542900	0.193200
C1721	C172	0.789400	0.453700	0.193800
C1731	C173	0.688400	0.424500	0.201200
H1161	H116	0.627100	0.461000	0.204200
C1741	C174	0.684200	0.333400	0.204000
H1171	H117	0.619600	0.301900	0.208600
C1751	C175	0.782500	0.296100	0.199500
C1761	C176	0.814200	0.205800	0.204500
C1771	C177	0.817200	0.066200	0.197700
C1781	C178	0.795200	0.978100	0.183500
H1181	H118	0.836100	0.936500	0.199100
H1191	H119	0.817200	0.973500	0.156100
H1201	H120	0.717700	0.965900	0.185700
C1791	C179	0.702200	0.598100	0.141800
C1801	C180	0.600900	0.637300	0.143600
H1211	H121	0.580900	0.671500	0.165400
C1811	C181	0.529500	0.625000	0.112500
H1221	H122	0.461300	0.653300	0.112500
C1821	C182	0.557900	0.571300	0.081500
H1231	H123	0.507300	0.560900	0.061200
C1831	C183	0.661200	0.532100	0.080100
C1841	C184	0.730700	0.546400	0.110900
H1241	H124	0.800000	0.519900	0.110700
C1851	C185	0.692100	0.472500	0.049100
C1861	C186	0.697500	0.146300	0.151200
C1871	C187	0.593800	0.112200	0.153200
H1251	H125	0.568200	0.085500	0.176400
C1881	C188	0.529200	0.118200	0.120800
H1261	H126	0.459100	0.093100	0.121300
C1891	C189	0.563400	0.159800	0.087100
H1271	H127	0.516600	0.164800	0.065300
C1901	C190	0.667600	0.194300	0.085900
C1911	C191	0.734700	0.187700	0.118500
H1281	H128	0.805500	0.211600	0.118100
C1921	C192	0.702200	0.246500	0.051800
N431	N43	0.779500	0.608900	0.173000
N441	N44	0.913300	0.661900	0.207800
N451	N45	0.908300	0.573000	0.214000
N461	N46	0.768500	0.138300	0.184430
N471	N47	0.890000	0.177000	0.228210
N481	N48	0.891200	0.087500	0.224300
O291	O29	0.618800	0.444900	0.025790
O301	O30	0.790200	0.447100	0.047900
O311	O31	0.633300	0.267300	0.026370
O321	O32	0.801200	0.269900	0.051110
Cu91	Cu9	0.000000	0.250000	0.260020
Cu101	Cu10	0.500000	0.750000	0.760020
Cu111	Cu11	0.000000	0.750000	0.239980
Cu121	Cu12	0.500000	0.250000	0.739980
Cu131	Cu13	0.005310	0.500000	0.250000
Cu141	Cu14	0.494690	0.500000	0.750000
Cu151	Cu15	0.994690	0.000000	0.250000
Cu161	Cu16	0.505310	0.000000	0.750000
