data_GULCAS_clean_PM
_symmetry_space_group_name_H-M	'P1'
_cell_length_a	12.877000
_cell_length_b	12.170000
_cell_length_c	12.159000
_cell_angle_alpha	90.000000
_cell_angle_beta	93.990000
_cell_angle_gamma	90.000000
_symmetry_Int_Tables_number 1

loop_
_symmetry_equiv_pos_as_xyz
'x,y,z'

loop_
_atom_site_label
_atom_site_type_symbol
_atom_site_fract_x
_atom_site_fract_y
_atom_site_fract_z
Fe11	Fe1	0.248940	0.040670	0.202730
P11	P1	0.202350	0.775350	0.176330
H11	H1	0.202000	0.721000	0.075000
P21	P2	0.824890	0.978890	0.055900
H21	H2	0.865000	0.074000	0.025000
F11	F1	0.093800	0.028300	0.202000
O11	O1	0.264700	0.880500	0.166000
O21	O2	0.773800	0.918100	0.957000
O31	O3	0.253000	0.701200	0.265000
O41	O4	0.744000	0.005900	0.137300
O51	O5	0.087700	0.796700	0.188800
O61	O6	0.917600	0.913300	0.105600
Fe21	Fe2	0.748940	0.540670	0.202730
P31	P3	0.702350	0.275350	0.176330
H31	H3	0.702000	0.221000	0.075000
P41	P4	0.324890	0.478890	0.055900
H41	H4	0.365000	0.574000	0.025000
F21	F2	0.593800	0.528300	0.202000
O71	O7	0.764700	0.380500	0.166000
O81	O8	0.273800	0.418100	0.957000
O91	O9	0.753000	0.201200	0.265000
O101	O10	0.244000	0.505900	0.137300
O111	O11	0.587700	0.296700	0.188800
O121	O12	0.417600	0.413300	0.105600
Fe31	Fe3	0.751060	0.040670	0.297270
P51	P5	0.797650	0.775350	0.323670
H51	H5	0.798000	0.721000	0.425000
P61	P6	0.175110	0.978890	0.444100
H61	H6	0.135000	0.074000	0.475000
F31	F3	0.906200	0.028300	0.298000
O131	O13	0.735300	0.880500	0.334000
O141	O14	0.226200	0.918100	0.543000
O151	O15	0.747000	0.701200	0.235000
O161	O16	0.256000	0.005900	0.362700
O171	O17	0.912300	0.796700	0.311200
O181	O18	0.082400	0.913300	0.394400
Fe41	Fe4	0.251060	0.540670	0.297270
P71	P7	0.297650	0.275350	0.323670
H71	H7	0.298000	0.221000	0.425000
P81	P8	0.675110	0.478890	0.444100
H81	H8	0.635000	0.574000	0.475000
F41	F4	0.406200	0.528300	0.298000
O191	O19	0.235300	0.380500	0.334000
O201	O20	0.726200	0.418100	0.543000
O211	O21	0.247000	0.201200	0.235000
O221	O22	0.756000	0.505900	0.362700
O231	O23	0.412300	0.296700	0.311200
O241	O24	0.582400	0.413300	0.394400
Fe51	Fe5	0.751060	0.959330	0.797270
P91	P9	0.797650	0.224650	0.823670
H91	H9	0.798000	0.279000	0.925000
P101	P10	0.175110	0.021110	0.944100
H101	H10	0.135000	0.926000	0.975000
F51	F5	0.906200	0.971700	0.798000
O251	O25	0.735300	0.119500	0.834000
O261	O26	0.226200	0.081900	0.043000
O271	O27	0.747000	0.298800	0.735000
O281	O28	0.256000	0.994100	0.862700
O291	O29	0.912300	0.203300	0.811200
O301	O30	0.082400	0.086700	0.894400
Fe61	Fe6	0.251060	0.459330	0.797270
P111	P11	0.297650	0.724650	0.823670
H111	H11	0.298000	0.779000	0.925000
P121	P12	0.675110	0.521110	0.944100
H121	H12	0.635000	0.426000	0.975000
F61	F6	0.406200	0.471700	0.798000
O311	O31	0.235300	0.619500	0.834000
O321	O32	0.726200	0.581900	0.043000
O331	O33	0.247000	0.798800	0.735000
O341	O34	0.756000	0.494100	0.862700
O351	O35	0.412300	0.703300	0.811200
O361	O36	0.582400	0.586700	0.894400
Fe71	Fe7	0.248940	0.959330	0.702730
P131	P13	0.202350	0.224650	0.676330
H131	H13	0.202000	0.279000	0.575000
P141	P14	0.824890	0.021110	0.555900
H141	H14	0.865000	0.926000	0.525000
F71	F7	0.093800	0.971700	0.702000
O371	O37	0.264700	0.119500	0.666000
O381	O38	0.773800	0.081900	0.457000
O391	O39	0.253000	0.298800	0.765000
O401	O40	0.744000	0.994100	0.637300
O411	O41	0.087700	0.203300	0.688800
O421	O42	0.917600	0.086700	0.605600
Fe81	Fe8	0.748940	0.459330	0.702730
P151	P15	0.702350	0.724650	0.676330
H151	H15	0.702000	0.779000	0.575000
P161	P16	0.324890	0.521110	0.555900
H161	H16	0.365000	0.426000	0.525000
F81	F8	0.593800	0.471700	0.702000
O431	O43	0.764700	0.619500	0.666000
O441	O44	0.273800	0.581900	0.457000
O451	O45	0.753000	0.798800	0.765000
O461	O46	0.244000	0.494100	0.637300
O471	O47	0.587700	0.703300	0.688800
O481	O48	0.417600	0.586700	0.605600
Fe91	Fe9	0.000000	0.911570	0.250000
Fe101	Fe10	0.500000	0.411570	0.250000
Fe111	Fe11	0.000000	0.088430	0.750000
Fe121	Fe12	0.500000	0.588430	0.750000
