data_GUPDEB_clean_PM
_symmetry_space_group_name_H-M	'P1'
_cell_length_a	26.413500
_cell_length_b	26.413500
_cell_length_c	26.413500
_cell_angle_alpha	109.471000
_cell_angle_beta	109.471000
_cell_angle_gamma	109.471000
_symmetry_Int_Tables_number 1

loop_
_symmetry_equiv_pos_as_xyz
'x,y,z'

loop_
_atom_site_label
_atom_site_type_symbol
_atom_site_fract_x
_atom_site_fract_y
_atom_site_fract_z
Cd11	Cd1	0.645180	0.145180	0.290360
Cd21	Cd2	0.854820	0.354820	0.709640
Cd31	Cd3	0.145180	0.854820	0.500000
Cd41	Cd4	0.354820	0.645180	0.500000
Cd51	Cd5	0.500000	0.145180	0.854820
Cd61	Cd6	0.500000	0.354820	0.645180
Cd71	Cd7	0.290360	0.645180	0.145180
Cd81	Cd8	0.709640	0.854820	0.354820
Cd91	Cd9	0.354820	0.709640	0.854820
Cd101	Cd10	0.145180	0.290360	0.645180
Cd111	Cd11	0.645180	0.500000	0.354820
Cd121	Cd12	0.854820	0.500000	0.145180
Cd131	Cd13	0.354820	0.854820	0.709640
Cd141	Cd14	0.145180	0.645180	0.290360
Cd151	Cd15	0.854820	0.145180	0.500000
Cd161	Cd16	0.645180	0.354820	0.500000
Cd171	Cd17	0.500000	0.854820	0.145180
Cd181	Cd18	0.500000	0.645180	0.354820
Cd191	Cd19	0.709640	0.354820	0.854820
Cd201	Cd20	0.290360	0.145180	0.645180
Cd211	Cd21	0.645180	0.290360	0.145180
Cd221	Cd22	0.854820	0.709640	0.354820
Cd231	Cd23	0.354820	0.500000	0.645180
Cd241	Cd24	0.145180	0.500000	0.854820
H11	H1	0.802500	0.243200	0.357100
H21	H2	0.742600	0.167800	0.225200
H31	H3	0.886100	0.445400	0.642900
H41	H4	0.942600	0.517400	0.774800
H51	H5	0.113900	0.756800	0.559300
H61	H6	0.057400	0.832200	0.574800
H71	H7	0.197500	0.554600	0.440700
H81	H8	0.257400	0.482600	0.425200
H91	H9	0.559300	0.113900	0.756800
H101	H10	0.574800	0.057400	0.832200
H111	H11	0.440700	0.197500	0.554600
H121	H12	0.425200	0.257400	0.482600
H131	H13	0.357100	0.802500	0.243200
H141	H14	0.225200	0.742600	0.167800
H151	H15	0.642900	0.886100	0.445400
H161	H16	0.774800	0.942600	0.517400
H171	H17	0.445400	0.642900	0.886100
H181	H18	0.517400	0.774800	0.942600
H191	H19	0.243200	0.357100	0.802500
H201	H20	0.167800	0.225200	0.742600
H211	H21	0.554600	0.440700	0.197500
H221	H22	0.482600	0.425200	0.257400
H231	H23	0.756800	0.559300	0.113900
H241	H24	0.832200	0.574800	0.057400
H251	H25	0.756800	0.197500	0.642900
H261	H26	0.832200	0.257400	0.774800
H271	H27	0.554600	0.113900	0.357100
H281	H28	0.482600	0.057400	0.225200
H291	H29	0.243200	0.886100	0.440700
H301	H30	0.167800	0.942600	0.425200
H311	H31	0.445400	0.802500	0.559300
H321	H32	0.517400	0.742600	0.574800
H331	H33	0.886100	0.440700	0.243200
H341	H34	0.942600	0.425200	0.167800
H351	H35	0.802500	0.559300	0.445400
H361	H36	0.742600	0.574800	0.517400
H371	H37	0.197500	0.642900	0.756800
H381	H38	0.257400	0.774800	0.832200
H391	H39	0.113900	0.357100	0.554600
H401	H40	0.057400	0.225200	0.482600
H411	H41	0.357100	0.554600	0.113900
H421	H42	0.225200	0.482600	0.057400
H431	H43	0.642900	0.756800	0.197500
H441	H44	0.774800	0.832200	0.257400
H451	H45	0.559300	0.445400	0.802500
H461	H46	0.574800	0.517400	0.742600
H471	H47	0.440700	0.243200	0.886100
H481	H48	0.425200	0.167800	0.942600
H491	H49	0.197500	0.756800	0.642900
H501	H50	0.257400	0.832200	0.774800
H511	H51	0.113900	0.554600	0.357100
H521	H52	0.057400	0.482600	0.225200
H531	H53	0.886100	0.243200	0.440700
H541	H54	0.942600	0.167800	0.425200
H551	H55	0.802500	0.445400	0.559300
H561	H56	0.742600	0.517400	0.574800
H571	H57	0.440700	0.886100	0.243200
H581	H58	0.425200	0.942600	0.167800
H591	H59	0.559300	0.802500	0.445400
H601	H60	0.574800	0.742600	0.517400
H611	H61	0.642900	0.197500	0.756800
H621	H62	0.774800	0.257400	0.832200
H631	H63	0.357100	0.113900	0.554600
H641	H64	0.225200	0.057400	0.482600
H651	H65	0.554600	0.357100	0.113900
H661	H66	0.482600	0.225200	0.057400
H671	H67	0.756800	0.642900	0.197500
H681	H68	0.832200	0.774800	0.257400
H691	H69	0.445400	0.559300	0.802500
H701	H70	0.517400	0.574800	0.742600
H711	H71	0.243200	0.440700	0.886100
H721	H72	0.167800	0.425200	0.942600
H731	H73	0.243200	0.802500	0.357100
H741	H74	0.167800	0.742600	0.225200
H751	H75	0.445400	0.886100	0.642900
H761	H76	0.517400	0.942600	0.774800
H771	H77	0.756800	0.113900	0.559300
H781	H78	0.832200	0.057400	0.574800
H791	H79	0.554600	0.197500	0.440700
H801	H80	0.482600	0.257400	0.425200
H811	H81	0.113900	0.559300	0.756800
H821	H82	0.057400	0.574800	0.832200
H831	H83	0.197500	0.440700	0.554600
H841	H84	0.257400	0.425200	0.482600
H851	H85	0.802500	0.357100	0.243200
H861	H86	0.742600	0.225200	0.167800
H871	H87	0.886100	0.642900	0.445400
H881	H88	0.942600	0.774800	0.517400
H891	H89	0.642900	0.445400	0.886100
H901	H90	0.774800	0.517400	0.942600
H911	H91	0.357100	0.243200	0.802500
H921	H92	0.225200	0.167800	0.742600
H931	H93	0.440700	0.554600	0.197500
H941	H94	0.425200	0.482600	0.257400
H951	H95	0.559300	0.756800	0.113900
H961	H96	0.574800	0.832200	0.057400
C11	C1	0.795700	0.216700	0.373200
C21	C2	0.715300	0.182200	0.214500
C31	C3	0.843500	0.422500	0.626800
C41	C4	0.967700	0.500800	0.785500
C51	C5	0.156500	0.783300	0.579000
C61	C6	0.032300	0.817800	0.533100
C71	C7	0.204300	0.577500	0.421000
C81	C8	0.284700	0.499200	0.466900
C91	C9	0.579000	0.156500	0.783300
C101	C10	0.533100	0.032300	0.817800
C111	C11	0.421000	0.204300	0.577500
C121	C12	0.466900	0.284700	0.499200
C131	C13	0.373200	0.795700	0.216700
C141	C14	0.214500	0.715300	0.182200
C151	C15	0.626800	0.843500	0.422500
C161	C16	0.785500	0.967700	0.500800
C171	C17	0.422500	0.626800	0.843500
C181	C18	0.500800	0.785500	0.967700
C191	C19	0.216700	0.373200	0.795700
C201	C20	0.182200	0.214500	0.715300
C211	C21	0.577500	0.421000	0.204300
C221	C22	0.499200	0.466900	0.284700
C231	C23	0.783300	0.579000	0.156500
C241	C24	0.817800	0.533100	0.032300
C251	C25	0.783300	0.204300	0.626800
C261	C26	0.817800	0.284700	0.785500
C271	C27	0.577500	0.156500	0.373200
C281	C28	0.499200	0.032300	0.214500
C291	C29	0.216700	0.843500	0.421000
C301	C30	0.182200	0.967700	0.466900
C311	C31	0.422500	0.795700	0.579000
C321	C32	0.500800	0.715300	0.533100
C331	C33	0.843500	0.421000	0.216700
C341	C34	0.967700	0.466900	0.182200
C351	C35	0.795700	0.579000	0.422500
C361	C36	0.715300	0.533100	0.500800
C371	C37	0.204300	0.626800	0.783300
C381	C38	0.284700	0.785500	0.817800
C391	C39	0.156500	0.373200	0.577500
C401	C40	0.032300	0.214500	0.499200
C411	C41	0.373200	0.577500	0.156500
C421	C42	0.214500	0.499200	0.032300
C431	C43	0.626800	0.783300	0.204300
C441	C44	0.785500	0.817800	0.284700
C451	C45	0.579000	0.422500	0.795700
C461	C46	0.533100	0.500800	0.715300
C471	C47	0.421000	0.216700	0.843500
C481	C48	0.466900	0.182200	0.967700
C491	C49	0.204300	0.783300	0.626800
C501	C50	0.284700	0.817800	0.785500
C511	C51	0.156500	0.577500	0.373200
C521	C52	0.032300	0.499200	0.214500
C531	C53	0.843500	0.216700	0.421000
C541	C54	0.967700	0.182200	0.466900
C551	C55	0.795700	0.422500	0.579000
C561	C56	0.715300	0.500800	0.533100
C571	C57	0.421000	0.843500	0.216700
C581	C58	0.466900	0.967700	0.182200
C591	C59	0.579000	0.795700	0.422500
C601	C60	0.533100	0.715300	0.500800
C611	C61	0.626800	0.204300	0.783300
C621	C62	0.785500	0.284700	0.817800
C631	C63	0.373200	0.156500	0.577500
C641	C64	0.214500	0.032300	0.499200
C651	C65	0.577500	0.373200	0.156500
C661	C66	0.499200	0.214500	0.032300
C671	C67	0.783300	0.626800	0.204300
C681	C68	0.817800	0.785500	0.284700
C691	C69	0.422500	0.579000	0.795700
C701	C70	0.500800	0.533100	0.715300
C711	C71	0.216700	0.421000	0.843500
C721	C72	0.182200	0.466900	0.967700
C731	C73	0.216700	0.795700	0.373200
C741	C74	0.182200	0.715300	0.214500
C751	C75	0.422500	0.843500	0.626800
C761	C76	0.500800	0.967700	0.785500
C771	C77	0.783300	0.156500	0.579000
C781	C78	0.817800	0.032300	0.533100
C791	C79	0.577500	0.204300	0.421000
C801	C80	0.499200	0.284700	0.466900
C811	C81	0.156500	0.579000	0.783300
C821	C82	0.032300	0.533100	0.817800
C831	C83	0.204300	0.421000	0.577500
C841	C84	0.284700	0.466900	0.499200
C851	C85	0.795700	0.373200	0.216700
C861	C86	0.715300	0.214500	0.182200
C871	C87	0.843500	0.626800	0.422500
C881	C88	0.967700	0.785500	0.500800
C891	C89	0.626800	0.422500	0.843500
C901	C90	0.785500	0.500800	0.967700
C911	C91	0.373200	0.216700	0.795700
C921	C92	0.214500	0.182200	0.715300
C931	C93	0.421000	0.577500	0.204300
C941	C94	0.466900	0.499200	0.284700
C951	C95	0.579000	0.783300	0.156500
C961	C96	0.533100	0.817800	0.032300
C971	C97	0.754700	0.147600	0.392900
C981	C98	0.754700	0.361800	0.607100
C991	C99	0.245300	0.852400	0.607100
C1001	C100	0.245300	0.638200	0.392900
C1011	C101	0.607100	0.245300	0.852400
C1021	C102	0.392900	0.245300	0.638200
C1031	C103	0.392900	0.754700	0.147600
C1041	C104	0.607100	0.754700	0.361800
C1051	C105	0.361800	0.607100	0.754700
C1061	C106	0.147600	0.392900	0.754700
C1071	C107	0.638200	0.392900	0.245300
C1081	C108	0.852400	0.607100	0.245300
C1091	C109	0.852400	0.245300	0.607100
C1101	C110	0.638200	0.245300	0.392900
C1111	C111	0.147600	0.754700	0.392900
C1121	C112	0.361800	0.754700	0.607100
C1131	C113	0.754700	0.392900	0.147600
C1141	C114	0.754700	0.607100	0.361800
C1151	C115	0.245300	0.607100	0.852400
C1161	C116	0.245300	0.392900	0.638200
C1171	C117	0.392900	0.638200	0.245300
C1181	C118	0.607100	0.852400	0.245300
C1191	C119	0.607100	0.361800	0.754700
C1201	C120	0.392900	0.147600	0.754700
C1211	C121	0.642600	0.203800	0.203800
C1221	C122	0.000000	0.438800	0.796200
C1231	C123	0.000000	0.796200	0.438800
C1241	C124	0.357400	0.561200	0.561200
C1251	C125	0.438800	0.000000	0.796200
C1261	C126	0.561200	0.357400	0.561200
C1271	C127	0.203800	0.642600	0.203800
C1281	C128	0.796200	0.000000	0.438800
C1291	C129	0.438800	0.796200	0.000000
C1301	C130	0.203800	0.203800	0.642600
C1311	C131	0.561200	0.561200	0.357400
C1321	C132	0.796200	0.438800	0.000000
C1331	C133	0.796200	0.357400	0.796200
C1341	C134	0.561200	0.000000	0.203800
C1351	C135	0.203800	0.000000	0.561200
C1361	C136	0.438800	0.642600	0.438800
C1371	C137	0.000000	0.561200	0.203800
C1381	C138	0.642600	0.438800	0.438800
C1391	C139	0.357400	0.796200	0.796200
C1401	C140	0.000000	0.203800	0.561200
C1411	C141	0.203800	0.561200	0.000000
C1421	C142	0.796200	0.796200	0.357400
C1431	C143	0.438800	0.438800	0.642600
C1441	C144	0.561200	0.203800	0.000000
N11	N1	0.742900	0.174200	0.357300
N21	N2	0.669300	0.175400	0.227700
N31	N3	0.816900	0.385600	0.642700
N41	N4	0.947700	0.441600	0.772300
N51	N5	0.183100	0.825800	0.568700
N61	N6	0.052300	0.824600	0.493900
N71	N7	0.257100	0.614400	0.431300
N81	N8	0.330700	0.558400	0.506100
N91	N9	0.568700	0.183100	0.825800
N101	N10	0.493900	0.052300	0.824600
N111	N11	0.431300	0.257100	0.614400
N121	N12	0.506100	0.330700	0.558400
N131	N13	0.357300	0.742900	0.174200
N141	N14	0.227700	0.669300	0.175400
N151	N15	0.642700	0.816900	0.385600
N161	N16	0.772300	0.947700	0.441600
N171	N17	0.385600	0.642700	0.816900
N181	N18	0.441600	0.772300	0.947700
N191	N19	0.174200	0.357300	0.742900
N201	N20	0.175400	0.227700	0.669300
N211	N21	0.614400	0.431300	0.257100
N221	N22	0.558400	0.506100	0.330700
N231	N23	0.825800	0.568700	0.183100
N241	N24	0.824600	0.493900	0.052300
N251	N25	0.825800	0.257100	0.642700
N261	N26	0.824600	0.330700	0.772300
N271	N27	0.614400	0.183100	0.357300
N281	N28	0.558400	0.052300	0.227700
N291	N29	0.174200	0.816900	0.431300
N301	N30	0.175400	0.947700	0.506100
N311	N31	0.385600	0.742900	0.568700
N321	N32	0.441600	0.669300	0.493900
N331	N33	0.816900	0.431300	0.174200
N341	N34	0.947700	0.506100	0.175400
N351	N35	0.742900	0.568700	0.385600
N361	N36	0.669300	0.493900	0.441600
N371	N37	0.257100	0.642700	0.825800
N381	N38	0.330700	0.772300	0.824600
N391	N39	0.183100	0.357300	0.614400
N401	N40	0.052300	0.227700	0.558400
N411	N41	0.357300	0.614400	0.183100
N421	N42	0.227700	0.558400	0.052300
N431	N43	0.642700	0.825800	0.257100
N441	N44	0.772300	0.824600	0.330700
N451	N45	0.568700	0.385600	0.742900
N461	N46	0.493900	0.441600	0.669300
N471	N47	0.431300	0.174200	0.816900
N481	N48	0.506100	0.175400	0.947700
N491	N49	0.257100	0.825800	0.642700
N501	N50	0.330700	0.824600	0.772300
N511	N51	0.183100	0.614400	0.357300
N521	N52	0.052300	0.558400	0.227700
N531	N53	0.816900	0.174200	0.431300
N541	N54	0.947700	0.175400	0.506100
N551	N55	0.742900	0.385600	0.568700
N561	N56	0.669300	0.441600	0.493900
N571	N57	0.431300	0.816900	0.174200
N581	N58	0.506100	0.947700	0.175400
N591	N59	0.568700	0.742900	0.385600
N601	N60	0.493900	0.669300	0.441600
N611	N61	0.642700	0.257100	0.825800
N621	N62	0.772300	0.330700	0.824600
N631	N63	0.357300	0.183100	0.614400
N641	N64	0.227700	0.052300	0.558400
N651	N65	0.614400	0.357300	0.183100
N661	N66	0.558400	0.227700	0.052300
N671	N67	0.825800	0.642700	0.257100
N681	N68	0.824600	0.772300	0.330700
N691	N69	0.385600	0.568700	0.742900
N701	N70	0.441600	0.493900	0.669300
N711	N71	0.174200	0.431300	0.816900
N721	N72	0.175400	0.506100	0.947700
N731	N73	0.174200	0.742900	0.357300
N741	N74	0.175400	0.669300	0.227700
N751	N75	0.385600	0.816900	0.642700
N761	N76	0.441600	0.947700	0.772300
N771	N77	0.825800	0.183100	0.568700
N781	N78	0.824600	0.052300	0.493900
N791	N79	0.614400	0.257100	0.431300
N801	N80	0.558400	0.330700	0.506100
N811	N81	0.183100	0.568700	0.825800
N821	N82	0.052300	0.493900	0.824600
N831	N83	0.257100	0.431300	0.614400
N841	N84	0.330700	0.506100	0.558400
N851	N85	0.742900	0.357300	0.174200
N861	N86	0.669300	0.227700	0.175400
N871	N87	0.816900	0.642700	0.385600
N881	N88	0.947700	0.772300	0.441600
N891	N89	0.642700	0.385600	0.816900
N901	N90	0.772300	0.441600	0.947700
N911	N91	0.357300	0.174200	0.742900
N921	N92	0.227700	0.175400	0.669300
N931	N93	0.431300	0.614400	0.257100
N941	N94	0.506100	0.558400	0.330700
N951	N95	0.568700	0.825800	0.183100
N961	N96	0.493900	0.824600	0.052300
N971	N97	0.709100	0.099800	0.390700
N981	N98	0.709100	0.318400	0.609300
N991	N99	0.290900	0.900200	0.609300
N1001	N100	0.290900	0.681600	0.390700
N1011	N101	0.609300	0.290900	0.900200
N1021	N102	0.390700	0.290900	0.681600
N1031	N103	0.390700	0.709100	0.099800
N1041	N104	0.609300	0.709100	0.318400
N1051	N105	0.318400	0.609300	0.709100
N1061	N106	0.099800	0.390700	0.709100
N1071	N107	0.681600	0.390700	0.290900
N1081	N108	0.900200	0.609300	0.290900
N1091	N109	0.900200	0.290900	0.609300
N1101	N110	0.681600	0.290900	0.390700
N1111	N111	0.099800	0.709100	0.390700
N1121	N112	0.318400	0.709100	0.609300
N1131	N113	0.709100	0.390700	0.099800
N1141	N114	0.709100	0.609300	0.318400
N1151	N115	0.290900	0.609300	0.900200
N1161	N116	0.290900	0.390700	0.681600
N1171	N117	0.390700	0.681600	0.290900
N1181	N118	0.609300	0.900200	0.290900
N1191	N119	0.609300	0.318400	0.709100
N1201	N120	0.390700	0.099800	0.709100
N1211	N121	0.591600	0.206300	0.206300
N1221	N122	0.000000	0.385300	0.793700
N1231	N123	0.000000	0.793700	0.385300
N1241	N124	0.408400	0.614700	0.614700
N1251	N125	0.385300	0.000000	0.793700
N1261	N126	0.614700	0.408400	0.614700
N1271	N127	0.206300	0.591600	0.206300
N1281	N128	0.793700	0.000000	0.385300
N1291	N129	0.385300	0.793700	0.000000
N1301	N130	0.206300	0.206300	0.591600
N1311	N131	0.614700	0.614700	0.408400
N1321	N132	0.793700	0.385300	0.000000
N1331	N133	0.793700	0.408400	0.793700
N1341	N134	0.614700	0.000000	0.206300
N1351	N135	0.206300	0.000000	0.614700
N1361	N136	0.385300	0.591600	0.385300
N1371	N137	0.000000	0.614700	0.206300
N1381	N138	0.591600	0.385300	0.385300
N1391	N139	0.408400	0.793700	0.793700
N1401	N140	0.000000	0.206300	0.614700
N1411	N141	0.206300	0.614700	0.000000
N1421	N142	0.793700	0.793700	0.408400
N1431	N143	0.385300	0.385300	0.591600
N1441	N144	0.614700	0.206300	0.000000
O11	O1	0.725600	0.080300	0.424900
O21	O2	0.569800	0.231900	0.181900
O31	O3	0.655400	0.300700	0.575100
O41	O4	0.050000	0.387900	0.818100
O51	O5	0.344600	0.919700	0.645300
O61	O6	0.950000	0.768100	0.337900
O71	O7	0.274400	0.699300	0.354700
O81	O8	0.430200	0.612100	0.662100
O91	O9	0.645300	0.344600	0.919700
O101	O10	0.337900	0.950000	0.768100
O111	O11	0.354700	0.274400	0.699300
O121	O12	0.662100	0.430200	0.612100
O131	O13	0.424900	0.725600	0.080300
O141	O14	0.181900	0.569800	0.231900
O151	O15	0.575100	0.655400	0.300700
O161	O16	0.818100	0.050000	0.387900
O171	O17	0.300700	0.575100	0.655400
O181	O18	0.387900	0.818100	0.050000
O191	O19	0.080300	0.424900	0.725600
O201	O20	0.231900	0.181900	0.569800
O211	O21	0.699300	0.354700	0.274400
O221	O22	0.612100	0.662100	0.430200
O231	O23	0.919700	0.645300	0.344600
O241	O24	0.768100	0.337900	0.950000
O251	O25	0.919700	0.274400	0.575100
O261	O26	0.768100	0.430200	0.818100
O271	O27	0.699300	0.344600	0.424900
O281	O28	0.612100	0.950000	0.181900
O291	O29	0.080300	0.655400	0.354700
O301	O30	0.231900	0.050000	0.662100
O311	O31	0.300700	0.725600	0.645300
O321	O32	0.387900	0.569800	0.337900
O331	O33	0.655400	0.354700	0.080300
O341	O34	0.050000	0.662100	0.231900
O351	O35	0.725600	0.645300	0.300700
O361	O36	0.569800	0.337900	0.387900
O371	O37	0.274400	0.575100	0.919700
O381	O38	0.430200	0.818100	0.768100
O391	O39	0.344600	0.424900	0.699300
O401	O40	0.950000	0.181900	0.612100
O411	O41	0.424900	0.699300	0.344600
O421	O42	0.181900	0.612100	0.950000
O431	O43	0.575100	0.919700	0.274400
O441	O44	0.818100	0.768100	0.430200
O451	O45	0.645300	0.300700	0.725600
O461	O46	0.337900	0.387900	0.569800
O471	O47	0.354700	0.080300	0.655400
O481	O48	0.662100	0.231900	0.050000
O491	O49	0.274400	0.919700	0.575100
O501	O50	0.430200	0.768100	0.818100
O511	O51	0.344600	0.699300	0.424900
O521	O52	0.950000	0.612100	0.181900
O531	O53	0.655400	0.080300	0.354700
O541	O54	0.050000	0.231900	0.662100
O551	O55	0.725600	0.300700	0.645300
O561	O56	0.569800	0.387900	0.337900
O571	O57	0.354700	0.655400	0.080300
O581	O58	0.662100	0.050000	0.231900
O591	O59	0.645300	0.725600	0.300700
O601	O60	0.337900	0.569800	0.387900
O611	O61	0.575100	0.274400	0.919700
O621	O62	0.818100	0.430200	0.768100
O631	O63	0.424900	0.344600	0.699300
O641	O64	0.181900	0.950000	0.612100
O651	O65	0.699300	0.424900	0.344600
O661	O66	0.612100	0.181900	0.950000
O671	O67	0.919700	0.575100	0.274400
O681	O68	0.768100	0.818100	0.430200
O691	O69	0.300700	0.645300	0.725600
O701	O70	0.387900	0.337900	0.569800
O711	O71	0.080300	0.354700	0.655400
O721	O72	0.231900	0.662100	0.050000
O731	O73	0.080300	0.725600	0.424900
O741	O74	0.231900	0.569800	0.181900
O751	O75	0.300700	0.655400	0.575100
O761	O76	0.387900	0.050000	0.818100
O771	O77	0.919700	0.344600	0.645300
O781	O78	0.768100	0.950000	0.337900
O791	O79	0.699300	0.274400	0.354700
O801	O80	0.612100	0.430200	0.662100
O811	O81	0.344600	0.645300	0.919700
O821	O82	0.950000	0.337900	0.768100
O831	O83	0.274400	0.354700	0.699300
O841	O84	0.430200	0.662100	0.612100
O851	O85	0.725600	0.424900	0.080300
O861	O86	0.569800	0.181900	0.231900
O871	O87	0.655400	0.575100	0.300700
O881	O88	0.050000	0.818100	0.387900
O891	O89	0.575100	0.300700	0.655400
O901	O90	0.818100	0.387900	0.050000
O911	O91	0.424900	0.080300	0.725600
O921	O92	0.181900	0.231900	0.569800
O931	O93	0.354700	0.699300	0.274400
O941	O94	0.662100	0.612100	0.430200
O951	O95	0.645300	0.919700	0.344600
O961	O96	0.337900	0.768100	0.950000
