data_GUPJEG01_clean_PM
_symmetry_space_group_name_H-M	'P1'
_cell_length_a	9.249400
_cell_length_b	9.421200
_cell_length_c	9.421200
_cell_angle_alpha	101.274000
_cell_angle_beta	112.870000
_cell_angle_gamma	112.870000
_symmetry_Int_Tables_number 1

loop_
_symmetry_equiv_pos_as_xyz
'x,y,z'

loop_
_atom_site_label
_atom_site_type_symbol
_atom_site_fract_x
_atom_site_fract_y
_atom_site_fract_z
Mn11	Mn1	0.750000	0.034800	0.965200
Mn21	Mn2	0.250000	0.965200	0.034800
H11	H1	0.677600	0.264000	0.509200
H21	H2	0.748900	0.868800	0.390600
H31	H3	0.785900	0.856700	0.646500
H41	H4	0.822400	0.490800	0.736000
H51	H5	0.751100	0.609400	0.131200
H61	H6	0.714100	0.353500	0.143300
H71	H7	0.322400	0.736000	0.490800
H81	H8	0.251100	0.131200	0.609400
H91	H9	0.214100	0.143300	0.353500
H101	H10	0.177600	0.509200	0.264000
H111	H11	0.248900	0.390600	0.868800
H121	H12	0.285900	0.646500	0.856700
C11	C1	0.743200	0.177180	0.692620
C21	C2	0.704300	0.182040	0.536760
C31	C3	0.704800	0.065860	0.420940
C41	C4	0.741600	0.946340	0.464660
C51	C5	0.767600	0.942540	0.619260
C61	C6	0.669500	0.078150	0.255050
C71	C7	0.756800	0.307380	0.822820
C81	C8	0.795700	0.463240	0.817960
C91	C9	0.795200	0.579060	0.934140
C101	C10	0.758400	0.535340	0.053660
C111	C11	0.732400	0.380740	0.057460
C121	C12	0.830500	0.744950	0.921850
C131	C13	0.256800	0.822820	0.307380
C141	C14	0.295700	0.817960	0.463240
C151	C15	0.295200	0.934140	0.579060
C161	C16	0.258400	0.053660	0.535340
C171	C17	0.232400	0.057460	0.380740
C181	C18	0.330500	0.921850	0.744950
C191	C19	0.243200	0.692620	0.177180
C201	C20	0.204300	0.536760	0.182040
C211	C21	0.204800	0.420940	0.065860
C221	C22	0.241600	0.464660	0.946340
C231	C23	0.267600	0.619260	0.942540
C241	C24	0.169500	0.255050	0.078150
N11	N1	0.767800	0.055630	0.732230
N21	N2	0.732200	0.267770	0.944370
N31	N3	0.232200	0.944370	0.267770
N41	N4	0.267800	0.732230	0.055630
O11	O1	0.774400	0.065580	0.205920
O21	O2	0.545900	0.108120	0.183100
O31	O3	0.725600	0.794080	0.934420
O41	O4	0.954100	0.816900	0.891880
O51	O5	0.225600	0.934420	0.794080
O61	O6	0.454100	0.891880	0.816900
O71	O7	0.274400	0.205920	0.065580
O81	O8	0.045900	0.183100	0.108120
