data_GUPNUC_clean_PM
_symmetry_space_group_name_H-M	'P1'
_cell_length_a	8.606100
_cell_length_b	9.365600
_cell_length_c	13.016000
_cell_angle_alpha	90.000000
_cell_angle_beta	105.803000
_cell_angle_gamma	90.000000
_symmetry_Int_Tables_number 1

loop_
_symmetry_equiv_pos_as_xyz
'x,y,z'

loop_
_atom_site_label
_atom_site_type_symbol
_atom_site_fract_x
_atom_site_fract_y
_atom_site_fract_z
Cd11	Cd1	0.245150	0.251600	0.990820
N11	N1	0.166800	0.197400	0.806900
N21	N2	0.232400	0.194700	0.739290
N31	N3	0.296900	0.185800	0.671500
N41	N4	0.012200	0.124700	0.996300
N51	N5	0.468200	0.379700	0.979600
N61	N6	0.394600	0.044300	0.032300
N71	N7	0.071900	0.448600	0.943900
Cd21	Cd2	0.754850	0.751600	0.509180
N81	N8	0.833200	0.697400	0.693100
N91	N9	0.767600	0.694700	0.760710
N101	N10	0.703100	0.685800	0.828500
N111	N11	0.987800	0.624700	0.503700
N121	N12	0.531800	0.879700	0.520400
N131	N13	0.605400	0.544300	0.467700
N141	N14	0.928100	0.948600	0.556100
Cd31	Cd3	0.754850	0.748400	0.009180
N151	N15	0.833200	0.802600	0.193100
N161	N16	0.767600	0.805300	0.260710
N171	N17	0.703100	0.814200	0.328500
N181	N18	0.987800	0.875300	0.003700
N191	N19	0.531800	0.620300	0.020400
N201	N20	0.605400	0.955700	0.967700
N211	N21	0.928100	0.551400	0.056100
Cd41	Cd4	0.245150	0.248400	0.490820
N221	N22	0.166800	0.302600	0.306900
N231	N23	0.232400	0.305300	0.239290
N241	N24	0.296900	0.314200	0.171500
N251	N25	0.012200	0.375300	0.496300
N261	N26	0.468200	0.120300	0.479600
N271	N27	0.394600	0.455700	0.532300
N281	N28	0.071900	0.051400	0.443900
N291	N29	0.000000	0.000000	0.000000
N301	N30	0.000000	0.500000	0.500000
N311	N31	0.500000	0.500000	0.000000
N321	N32	0.500000	0.000000	0.500000
N331	N33	0.500000	0.000000	0.000000
N341	N34	0.500000	0.500000	0.500000
N351	N35	0.000000	0.500000	0.000000
N361	N36	0.000000	0.000000	0.500000
