data_GURPUF_clean_PM
_symmetry_space_group_name_H-M	'P1'
_cell_length_a	16.274000
_cell_length_b	20.465000
_cell_length_c	21.243000
_cell_angle_alpha	90.000000
_cell_angle_beta	90.000000
_cell_angle_gamma	90.000000
_symmetry_Int_Tables_number 1

loop_
_symmetry_equiv_pos_as_xyz
'x,y,z'

loop_
_atom_site_label
_atom_site_type_symbol
_atom_site_fract_x
_atom_site_fract_y
_atom_site_fract_z
Mn11	Mn1	0.258150	0.008890	0.629490
Mn21	Mn2	0.016620	0.625230	0.494620
Mn31	Mn3	0.758150	0.991110	0.370510
Mn41	Mn4	0.516620	0.374770	0.505380
Mn51	Mn5	0.258150	0.508890	0.870510
Mn61	Mn6	0.016620	0.125230	0.005380
Mn71	Mn7	0.758150	0.491110	0.129490
Mn81	Mn8	0.516620	0.874770	0.994620
Cr11	Cr1	0.012090	0.887970	0.501690
Cr21	Cr2	0.261720	0.999890	0.883280
Cr31	Cr3	0.512090	0.112030	0.498310
Cr41	Cr4	0.761720	0.000110	0.116720
Cr51	Cr5	0.012090	0.387970	0.998310
Cr61	Cr6	0.261720	0.499890	0.616720
Cr71	Cr7	0.512090	0.612030	0.001690
Cr81	Cr8	0.761720	0.500110	0.383280
C11	C1	0.014400	0.759800	0.535300
C21	C2	0.016600	0.761300	0.462100
C31	C3	0.163300	0.932000	0.542100
C41	C4	0.098600	0.967300	0.583400
C51	C5	0.358900	0.081500	0.542400
C61	C6	0.420000	0.042700	0.583400
C71	C7	0.354100	0.917100	0.955700
C81	C8	0.416400	0.960300	0.918700
C91	C9	0.253100	0.042300	0.761000
C101	C10	0.264900	0.965500	0.759000
C111	C11	0.110800	0.037600	0.927600
C121	C12	0.175600	0.080300	0.960700
C131	C13	0.514400	0.240200	0.464700
C141	C14	0.516600	0.238700	0.537900
C151	C15	0.663300	0.068000	0.457900
C161	C16	0.598600	0.032700	0.416600
C171	C17	0.858900	0.918500	0.457600
C181	C18	0.920000	0.957300	0.416600
C191	C19	0.854100	0.082900	0.044300
C201	C20	0.916400	0.039700	0.081300
C211	C21	0.753100	0.957700	0.239000
C221	C22	0.764900	0.034500	0.241000
C231	C23	0.610800	0.962400	0.072400
C241	C24	0.675600	0.919700	0.039300
C251	C25	0.014400	0.259800	0.964700
C261	C26	0.016600	0.261300	0.037900
C271	C27	0.163300	0.432000	0.957900
C281	C28	0.098600	0.467300	0.916600
C291	C29	0.358900	0.581500	0.957600
C301	C30	0.420000	0.542700	0.916600
C311	C31	0.354100	0.417100	0.544300
C321	C32	0.416400	0.460300	0.581300
C331	C33	0.253100	0.542300	0.739000
C341	C34	0.264900	0.465500	0.741000
C351	C35	0.110800	0.537600	0.572400
C361	C36	0.175600	0.580300	0.539300
C371	C37	0.514400	0.740200	0.035300
C381	C38	0.516600	0.738700	0.962100
C391	C39	0.663300	0.568000	0.042100
C401	C40	0.598600	0.532700	0.083400
C411	C41	0.858900	0.418500	0.042400
C421	C42	0.920000	0.457300	0.083400
C431	C43	0.854100	0.582900	0.455700
C441	C44	0.916400	0.539700	0.418700
C451	C45	0.753100	0.457700	0.261000
C461	C46	0.764900	0.534500	0.259000
C471	C47	0.610800	0.462400	0.427600
C481	C48	0.675600	0.419700	0.460700
O11	O1	0.015800	0.814700	0.561500
O21	O2	0.013000	0.818700	0.438100
O31	O3	0.011200	0.705700	0.561900
O41	O4	0.018700	0.708600	0.433000
O51	O5	0.132700	0.895700	0.498400
O61	O6	0.023200	0.953300	0.569800
O71	O7	0.235700	0.939500	0.553900
O81	O8	0.123800	0.004800	0.623200
O91	O9	0.390900	0.112600	0.495700
O101	O10	0.495500	0.047300	0.566900
O111	O11	0.285400	0.079700	0.556500
O121	O12	0.392500	0.012600	0.628200
O131	O13	0.381900	0.874500	0.991100
O141	O14	0.489600	0.949400	0.923300
O151	O15	0.382400	0.004700	0.884200
O161	O16	0.278500	0.929200	0.945000
O171	O17	0.249300	0.072600	0.711600
O181	O18	0.267800	0.939600	0.707400
O191	O19	0.251300	0.065900	0.816500
O201	O20	0.264800	0.938000	0.812000
O211	O21	0.141200	0.993500	0.891700
O221	O22	0.249500	0.068700	0.947500
O231	O23	0.037600	0.047600	0.936800
O241	O24	0.149400	0.123500	0.997200
O251	O25	0.515800	0.185300	0.438500
O261	O26	0.513000	0.181300	0.561900
O271	O27	0.511200	0.294300	0.438100
O281	O28	0.518700	0.291400	0.567000
O291	O29	0.632700	0.104300	0.501600
O301	O30	0.523200	0.046700	0.430200
O311	O31	0.735700	0.060500	0.446100
O321	O32	0.623800	0.995200	0.376800
O331	O33	0.890900	0.887400	0.504300
O341	O34	0.995500	0.952700	0.433100
O351	O35	0.785400	0.920300	0.443500
O361	O36	0.892500	0.987400	0.371800
O371	O37	0.881900	0.125500	0.008900
O381	O38	0.989600	0.050600	0.076700
O391	O39	0.882400	0.995300	0.115800
O401	O40	0.778500	0.070800	0.055000
O411	O41	0.749300	0.927400	0.288400
O421	O42	0.767800	0.060400	0.292600
O431	O43	0.751300	0.934100	0.183500
O441	O44	0.764800	0.062000	0.188000
O451	O45	0.641200	0.006500	0.108300
O461	O46	0.749500	0.931300	0.052500
O471	O47	0.537600	0.952400	0.063200
O481	O48	0.649400	0.876500	0.002800
O491	O49	0.015800	0.314700	0.938500
O501	O50	0.013000	0.318700	0.061900
O511	O51	0.011200	0.205700	0.938100
O521	O52	0.018700	0.208600	0.067000
O531	O53	0.132700	0.395700	0.001600
O541	O54	0.023200	0.453300	0.930200
O551	O55	0.235700	0.439500	0.946100
O561	O56	0.123800	0.504800	0.876800
O571	O57	0.390900	0.612600	0.004300
O581	O58	0.495500	0.547300	0.933100
O591	O59	0.285400	0.579700	0.943500
O601	O60	0.392500	0.512600	0.871800
O611	O61	0.381900	0.374500	0.508900
O621	O62	0.489600	0.449400	0.576700
O631	O63	0.382400	0.504700	0.615800
O641	O64	0.278500	0.429200	0.555000
O651	O65	0.249300	0.572600	0.788400
O661	O66	0.267800	0.439600	0.792600
O671	O67	0.251300	0.565900	0.683500
O681	O68	0.264800	0.438000	0.688000
O691	O69	0.141200	0.493500	0.608300
O701	O70	0.249500	0.568700	0.552500
O711	O71	0.037600	0.547600	0.563200
O721	O72	0.149400	0.623500	0.502800
O731	O73	0.515800	0.685300	0.061500
O741	O74	0.513000	0.681300	0.938100
O751	O75	0.511200	0.794300	0.061900
O761	O76	0.518700	0.791400	0.933000
O771	O77	0.632700	0.604300	0.998400
O781	O78	0.523200	0.546700	0.069800
O791	O79	0.735700	0.560500	0.053900
O801	O80	0.623800	0.495200	0.123200
O811	O81	0.890900	0.387400	0.995700
O821	O82	0.995500	0.452700	0.066900
O831	O83	0.785400	0.420300	0.056500
O841	O84	0.892500	0.487400	0.128200
O851	O85	0.881900	0.625500	0.491100
O861	O86	0.989600	0.550600	0.423300
O871	O87	0.882400	0.495300	0.384200
O881	O88	0.778500	0.570800	0.445000
O891	O89	0.749300	0.427400	0.211600
O901	O90	0.767800	0.560400	0.207400
O911	O91	0.751300	0.434100	0.316500
O921	O92	0.764800	0.562000	0.312000
O931	O93	0.641200	0.506500	0.391700
O941	O94	0.749500	0.431300	0.447500
O951	O95	0.537600	0.452400	0.436800
O961	O96	0.649400	0.376500	0.497200
