data_GURZID01_clean_PM
_symmetry_space_group_name_H-M	'P1'
_cell_length_a	6.622400
_cell_length_b	13.040700
_cell_length_c	13.977200
_cell_angle_alpha	90.000000
_cell_angle_beta	90.000000
_cell_angle_gamma	90.000000
_symmetry_Int_Tables_number 1

loop_
_symmetry_equiv_pos_as_xyz
'x,y,z'

loop_
_atom_site_label
_atom_site_type_symbol
_atom_site_fract_x
_atom_site_fract_y
_atom_site_fract_z
Cd11	Cd1	0.000000	0.750000	0.774060
Cd21	Cd2	0.500000	0.750000	0.274060
Cd31	Cd3	0.000000	0.250000	0.225940
Cd41	Cd4	0.500000	0.250000	0.725940
Cu11	Cu1	0.500000	0.000000	0.500000
Cu21	Cu2	0.500000	0.500000	0.500000
Cu31	Cu3	0.000000	0.000000	0.000000
Cu41	Cu4	0.000000	0.500000	0.000000
H11	H1	0.355200	0.897800	0.770900
H21	H2	0.434100	0.618500	0.723300
H31	H3	0.934100	0.381500	0.776700
H41	H4	0.144800	0.897800	0.270900
H51	H5	0.934100	0.881500	0.223300
H61	H6	0.065900	0.118500	0.776700
H71	H7	0.144800	0.397800	0.729100
H81	H8	0.644800	0.602200	0.770900
H91	H9	0.565900	0.381500	0.276700
H101	H10	0.065900	0.618500	0.223300
H111	H11	0.644800	0.102200	0.229100
H121	H12	0.355200	0.397800	0.229100
H131	H13	0.855200	0.602200	0.270900
H141	H14	0.434100	0.118500	0.276700
H151	H15	0.565900	0.881500	0.723300
H161	H16	0.855200	0.102200	0.729100
C11	C1	0.067400	0.410290	0.786880
C21	C2	0.666100	0.649320	0.632810
C31	C3	0.166100	0.850680	0.132810
C41	C4	0.067400	0.910290	0.213120
C51	C5	0.166100	0.350680	0.867190
C61	C6	0.543800	0.475480	0.702520
C71	C7	0.932600	0.589710	0.213120
C81	C8	0.333900	0.850680	0.632810
C91	C9	0.432600	0.910290	0.713120
C101	C10	0.567400	0.089710	0.286880
C111	C11	0.956200	0.975480	0.797480
C121	C12	0.956200	0.475480	0.202520
C131	C13	0.833900	0.149320	0.867190
C141	C14	0.043800	0.024520	0.202520
C151	C15	0.543800	0.975480	0.297480
C161	C16	0.456200	0.024520	0.702520
C171	C17	0.666100	0.149320	0.367190
C181	C18	0.333900	0.350680	0.367190
C191	C19	0.932600	0.089710	0.786880
C201	C20	0.432600	0.410290	0.286880
C211	C21	0.833900	0.649320	0.132810
C221	C22	0.043800	0.524520	0.797480
C231	C23	0.456200	0.524520	0.297480
C241	C24	0.567400	0.589710	0.713120
O11	O1	0.493300	0.936770	0.376970
O21	O2	0.638000	0.121760	0.453360
O31	O3	0.006700	0.936770	0.876970
O41	O4	0.993300	0.563230	0.876970
O51	O5	0.493300	0.436770	0.623030
O61	O6	0.506700	0.563230	0.376970
O71	O7	0.006700	0.436770	0.123030
O81	O8	0.566100	0.919750	0.226300
O91	O9	0.066100	0.580250	0.726300
O101	O10	0.362000	0.378240	0.453360
O111	O11	0.736600	0.727830	0.153300
O121	O12	0.763400	0.727830	0.653300
O131	O13	0.862000	0.121760	0.953360
O141	O14	0.763400	0.227830	0.346700
O151	O15	0.433900	0.080250	0.773700
O161	O16	0.638000	0.621760	0.546640
O171	O17	0.263400	0.272170	0.846700
O181	O18	0.236600	0.772170	0.653300
O191	O19	0.506700	0.063230	0.623030
O201	O20	0.993300	0.063230	0.123030
O211	O21	0.362000	0.878240	0.546640
O221	O22	0.236600	0.272170	0.346700
O231	O23	0.066100	0.080250	0.273700
O241	O24	0.138000	0.878240	0.046640
O251	O25	0.933900	0.919750	0.726300
O261	O26	0.263400	0.772170	0.153300
O271	O27	0.736600	0.227830	0.846700
O281	O28	0.433900	0.580250	0.226300
O291	O29	0.138000	0.378240	0.953360
O301	O30	0.933900	0.419750	0.273700
O311	O31	0.862000	0.621760	0.046640
O321	O32	0.566100	0.419750	0.773700
