data_GURZID_clean_PM
_symmetry_space_group_name_H-M	'P1'
_cell_length_a	6.626000
_cell_length_b	13.052000
_cell_length_c	13.958000
_cell_angle_alpha	90.000000
_cell_angle_beta	90.000000
_cell_angle_gamma	90.000000
_symmetry_Int_Tables_number 1

loop_
_symmetry_equiv_pos_as_xyz
'x,y,z'

loop_
_atom_site_label
_atom_site_type_symbol
_atom_site_fract_x
_atom_site_fract_y
_atom_site_fract_z
Cd11	Cd1	0.000000	0.250000	0.774230
Cd21	Cd2	0.500000	0.750000	0.725770
Cd31	Cd3	0.000000	0.750000	0.225770
Cd41	Cd4	0.500000	0.250000	0.274230
Cu11	Cu1	0.500000	0.500000	0.500000
Cu21	Cu2	0.000000	0.000000	0.000000
Cu31	Cu3	0.500000	0.000000	0.500000
Cu41	Cu4	0.000000	0.500000	0.000000
H11	H1	0.433600	0.381500	0.723600
H21	H2	0.644100	0.397600	0.771400
H31	H3	0.066400	0.881500	0.776400
H41	H4	0.855900	0.897600	0.728600
H51	H5	0.566400	0.118500	0.723600
H61	H6	0.355900	0.102400	0.771400
H71	H7	0.933600	0.618500	0.776400
H81	H8	0.144100	0.602400	0.728600
H91	H9	0.566400	0.618500	0.276400
H101	H10	0.355900	0.602400	0.228600
H111	H11	0.933600	0.118500	0.223600
H121	H12	0.144100	0.102400	0.271400
H131	H13	0.433600	0.881500	0.276400
H141	H14	0.644100	0.897600	0.228600
H151	H15	0.066400	0.381500	0.223600
H161	H16	0.855900	0.397600	0.271400
C11	C1	0.665700	0.350700	0.632980
C21	C2	0.566900	0.410100	0.713500
C31	C3	0.544000	0.524500	0.702500
C41	C4	0.834300	0.850700	0.867020
C51	C5	0.933100	0.910100	0.786500
C61	C6	0.956000	0.024500	0.797500
C71	C7	0.334300	0.149300	0.632980
C81	C8	0.433100	0.089900	0.713500
C91	C9	0.456000	0.975500	0.702500
C101	C10	0.165700	0.649300	0.867020
C111	C11	0.066900	0.589900	0.786500
C121	C12	0.044000	0.475500	0.797500
C131	C13	0.334300	0.649300	0.367020
C141	C14	0.433100	0.589900	0.286500
C151	C15	0.456000	0.475500	0.297500
C161	C16	0.165700	0.149300	0.132980
C171	C17	0.066900	0.089900	0.213500
C181	C18	0.044000	0.975500	0.202500
C191	C19	0.665700	0.850700	0.367020
C201	C20	0.566900	0.910100	0.286500
C211	C21	0.544000	0.024500	0.297500
C221	C22	0.834300	0.350700	0.132980
C231	C23	0.933100	0.410100	0.213500
C241	C24	0.956000	0.524500	0.202500
O11	O1	0.763100	0.272350	0.653500
O21	O2	0.637600	0.378080	0.546910
O31	O3	0.493300	0.563410	0.623230
O41	O4	0.566000	0.580420	0.773970
O51	O5	0.736900	0.772350	0.846500
O61	O6	0.862400	0.878080	0.953090
O71	O7	0.006700	0.063410	0.876770
O81	O8	0.934000	0.080420	0.726030
O91	O9	0.236900	0.227650	0.653500
O101	O10	0.362400	0.121920	0.546910
O111	O11	0.506700	0.936590	0.623230
O121	O12	0.434000	0.919580	0.773970
O131	O13	0.263100	0.727650	0.846500
O141	O14	0.137600	0.621920	0.953090
O151	O15	0.993300	0.436590	0.876770
O161	O16	0.066000	0.419580	0.726030
O171	O17	0.236900	0.727650	0.346500
O181	O18	0.362400	0.621920	0.453090
O191	O19	0.506700	0.436590	0.376770
O201	O20	0.434000	0.419580	0.226030
O211	O21	0.263100	0.227650	0.153500
O221	O22	0.137600	0.121920	0.046910
O231	O23	0.993300	0.936590	0.123230
O241	O24	0.066000	0.919580	0.273970
O251	O25	0.763100	0.772350	0.346500
O261	O26	0.637600	0.878080	0.453090
O271	O27	0.493300	0.063410	0.376770
O281	O28	0.566000	0.080420	0.226030
O291	O29	0.736900	0.272350	0.153500
O301	O30	0.862400	0.378080	0.046910
O311	O31	0.006700	0.563410	0.123230
O321	O32	0.934000	0.580420	0.273970
