data_GUSCIH_clean_PM
_symmetry_space_group_name_H-M	'P1'
_cell_length_a	9.996200
_cell_length_b	10.626000
_cell_length_c	10.827300
_cell_angle_alpha	80.552000
_cell_angle_beta	73.117000
_cell_angle_gamma	74.129000
_symmetry_Int_Tables_number 1

loop_
_symmetry_equiv_pos_as_xyz
'x,y,z'

loop_
_atom_site_label
_atom_site_type_symbol
_atom_site_fract_x
_atom_site_fract_y
_atom_site_fract_z
Gd11	Gd1	0.674840	0.692830	0.036670
Gd21	Gd2	0.325160	0.307170	0.963330
Ni11	Ni1	0.786850	0.867530	0.620090
Ni21	Ni2	0.213150	0.132470	0.379910
H11	H1	0.563800	0.694400	0.739800
H21	H2	0.365700	0.665400	0.690700
H31	H3	0.319000	0.755700	0.493900
H41	H4	0.983200	0.269900	0.620300
H51	H5	0.775800	0.436000	0.652700
H61	H6	0.699700	0.552500	0.474100
H71	H7	0.436200	0.305600	0.260200
H81	H8	0.634300	0.334600	0.309300
H91	H9	0.681000	0.244300	0.506100
H101	H10	0.016800	0.730100	0.379700
H111	H11	0.224200	0.564000	0.347300
H121	H12	0.300300	0.447500	0.525900
C11	C1	0.545000	0.731100	0.660700
C21	C2	0.426300	0.712800	0.631800
C31	C3	0.399300	0.765800	0.514500
C41	C4	0.492700	0.835000	0.426200
C51	C5	0.608900	0.850600	0.462700
C61	C6	0.714200	0.929900	0.380600
C71	C7	0.466400	0.883500	0.294800
C81	C8	0.954200	0.318300	0.548900
C91	C9	0.829100	0.417000	0.569100
C101	C10	0.784700	0.487100	0.462500
C111	C11	0.867500	0.459600	0.338300
C121	C12	0.993300	0.361200	0.326800
C131	C13	0.099100	0.329700	0.198900
C141	C14	0.814200	0.538000	0.224000
C151	C15	0.440300	0.522800	0.060900
C161	C16	0.455000	0.268900	0.339300
C171	C17	0.573700	0.287200	0.368200
C181	C18	0.600700	0.234200	0.485500
C191	C19	0.507300	0.165000	0.573800
C201	C20	0.391100	0.149400	0.537300
C211	C21	0.285800	0.070100	0.619400
C221	C22	0.533600	0.116500	0.705200
C231	C23	0.045800	0.681700	0.451100
C241	C24	0.170900	0.583000	0.430900
C251	C25	0.215300	0.512900	0.537500
C261	C26	0.132500	0.540400	0.661700
C271	C27	0.006700	0.638800	0.673200
C281	C28	0.900900	0.670300	0.801100
C291	C29	0.185800	0.462000	0.776000
C301	C30	0.559700	0.477200	0.939100
N11	N1	0.633600	0.799600	0.579200
N21	N2	0.034700	0.290200	0.430100
N31	N3	0.366400	0.200400	0.420800
N41	N4	0.965300	0.709800	0.569900
O11	O1	0.801900	0.948400	0.435460
O21	O2	0.706300	0.973300	0.268470
O31	O3	0.526400	0.804600	0.209680
O41	O4	0.382900	0.991900	0.277350
O51	O5	0.079000	0.396100	0.097020
O61	O6	0.211900	0.238400	0.200670
O71	O7	0.746500	0.489200	0.171100
O81	O8	0.830300	0.652700	0.193500
O91	O9	0.456500	0.608300	0.117500
O101	O10	0.336300	0.468300	0.093140
O111	O11	0.198100	0.051600	0.564540
O121	O12	0.293700	0.026700	0.731530
O131	O13	0.473600	0.195400	0.790320
O141	O14	0.617100	0.008100	0.722650
O151	O15	0.921000	0.603900	0.902980
O161	O16	0.788100	0.761600	0.799330
O171	O17	0.253500	0.510800	0.828900
O181	O18	0.169700	0.347300	0.806500
O191	O19	0.543500	0.391700	0.882500
O201	O20	0.663700	0.531700	0.906860
