data_GUSNEN01_SL_PM
_symmetry_space_group_name_H-M	'P1'
_cell_length_a	19.681200
_cell_length_b	7.700500
_cell_length_c	6.778000
_cell_angle_alpha	90.000000
_cell_angle_beta	75.499700
_cell_angle_gamma	90.000000
_symmetry_Int_Tables_number 1

loop_
_symmetry_equiv_pos_as_xyz
'x,y,z'

loop_
_atom_site_label
_atom_site_type_symbol
_atom_site_fract_x
_atom_site_fract_y
_atom_site_fract_z
H11	H1	0.168700	0.729600	0.799400
H21	H2	0.212500	0.836600	0.342600
C31	C3	0.180800	0.788600	0.082700
C41	C4	0.202600	0.738100	0.883100
C51	C5	0.228200	0.800500	0.199600
C61	C6	0.106600	0.829900	0.171400
O71	O7	0.062800	0.820700	0.062400
O81	O8	0.086200	0.874900	0.357100
H91	H9	0.668700	0.229600	0.799400
H101	H10	0.712500	0.336600	0.342600
C111	C11	0.680800	0.288600	0.082700
C121	C12	0.702600	0.238100	0.883100
C131	C13	0.728200	0.300500	0.199600
C141	C14	0.606600	0.329900	0.171400
O151	O15	0.562800	0.320700	0.062400
O161	O16	0.586200	0.374900	0.357100
H171	H17	0.831300	0.729600	0.700600
H181	H18	0.787500	0.836600	0.157400
C191	C19	0.819200	0.788600	0.417300
C201	C20	0.797400	0.738100	0.616900
C211	C21	0.771800	0.800500	0.300400
C221	C22	0.893400	0.829900	0.328600
O231	O23	0.937200	0.820700	0.437600
O241	O24	0.913800	0.874900	0.142900
H251	H25	0.331300	0.229600	0.700600
H261	H26	0.287500	0.336600	0.157400
C271	C27	0.319200	0.288600	0.417300
C281	C28	0.297400	0.238100	0.616900
C291	C29	0.271800	0.300500	0.300400
C301	C30	0.393400	0.329900	0.328600
O311	O31	0.437200	0.320700	0.437600
O321	O32	0.413800	0.374900	0.142900
H331	H33	0.831300	0.270400	0.200600
H341	H34	0.787500	0.163400	0.657400
C351	C35	0.819200	0.211400	0.917300
C361	C36	0.797400	0.261900	0.116900
C371	C37	0.771800	0.199500	0.800400
C381	C38	0.893400	0.170100	0.828600
O391	O39	0.937200	0.179300	0.937600
O401	O40	0.913800	0.125100	0.642900
H411	H41	0.331300	0.770400	0.200600
H421	H42	0.287500	0.663400	0.657400
C431	C43	0.319200	0.711400	0.917300
C441	C44	0.297400	0.761900	0.116900
C451	C45	0.271800	0.699500	0.800400
C461	C46	0.393400	0.670100	0.828600
O471	O47	0.437200	0.679300	0.937600
O481	O48	0.413800	0.625100	0.642900
H491	H49	0.168700	0.270400	0.299400
H501	H50	0.212500	0.163400	0.842600
C511	C51	0.180800	0.211400	0.582700
C521	C52	0.202600	0.261900	0.383100
C531	C53	0.228200	0.199500	0.699600
C541	C54	0.106600	0.170100	0.671400
O551	O55	0.062800	0.179300	0.562400
O561	O56	0.086200	0.125100	0.857100
H571	H57	0.668700	0.770400	0.299400
H581	H58	0.712500	0.663400	0.842600
C591	C59	0.680800	0.711400	0.582700
C601	C60	0.702600	0.761900	0.383100
C611	C61	0.728200	0.699500	0.699600
C621	C62	0.606600	0.670100	0.671400
O631	O63	0.562800	0.679300	0.562400
O641	O64	0.586200	0.625100	0.857100
H651	H65	0.500000	0.749060	0.250000
H661	H66	0.000000	0.249060	0.250000
H671	H67	0.500000	0.250940	0.750000
H681	H68	0.000000	0.750940	0.750000
Cr691	Cr69	0.000000	0.000000	0.000000
Cr701	Cr70	0.500000	0.500000	0.000000
Cr711	Cr71	0.000000	0.000000	0.500000
Cr721	Cr72	0.500000	0.500000	0.500000
O731	O73	0.000000	0.880800	0.750000
O741	O74	0.500000	0.380800	0.750000
O751	O75	0.000000	0.119200	0.250000
O761	O76	0.500000	0.619200	0.250000
