data_GUVBEF_clean_PM
_symmetry_space_group_name_H-M	'P1'
_cell_length_a	17.053100
_cell_length_b	17.053100
_cell_length_c	10.739700
_cell_angle_alpha	90.000000
_cell_angle_beta	90.000000
_cell_angle_gamma	90.000000
_symmetry_Int_Tables_number 1

loop_
_symmetry_equiv_pos_as_xyz
'x,y,z'

loop_
_atom_site_label
_atom_site_type_symbol
_atom_site_fract_x
_atom_site_fract_y
_atom_site_fract_z
W11	W1	0.338130	0.941380	0.193400
P11	P1	0.365220	0.832970	0.446200
O11	O1	0.426800	0.931100	0.108000
O21	O2	0.250300	0.966500	0.331700
O31	O3	0.293000	0.850300	0.164900
O41	O4	0.392600	0.894800	0.348600
O51	O5	0.340100	0.757500	0.383100
O61	O6	0.295700	0.868500	0.521100
O71	O7	0.434100	0.821500	0.534200
W21	W2	0.838130	0.441380	0.693400
P21	P2	0.865220	0.332970	0.946200
O81	O8	0.926800	0.431100	0.608000
O91	O9	0.750300	0.466500	0.831700
O101	O10	0.793000	0.350300	0.664900
O111	O11	0.892600	0.394800	0.848600
O121	O12	0.840100	0.257500	0.883100
O131	O13	0.795700	0.368500	0.021100
O141	O14	0.934100	0.321500	0.034200
W31	W3	0.161870	0.058620	0.693400
P31	P3	0.134780	0.167030	0.946200
O151	O15	0.073200	0.068900	0.608000
O161	O16	0.249700	0.033500	0.831700
O171	O17	0.207000	0.149700	0.664900
O181	O18	0.107400	0.105200	0.848600
O191	O19	0.159900	0.242500	0.883100
O201	O20	0.204300	0.131500	0.021100
O211	O21	0.065900	0.178500	0.034200
W41	W4	0.661870	0.558620	0.193400
P41	P4	0.634780	0.667030	0.446200
O221	O22	0.573200	0.568900	0.108000
O231	O23	0.749700	0.533500	0.331700
O241	O24	0.707000	0.649700	0.164900
O251	O25	0.607400	0.605200	0.348600
O261	O26	0.659900	0.742500	0.383100
O271	O27	0.704300	0.631500	0.521100
O281	O28	0.565900	0.678500	0.534200
W51	W5	0.808620	0.588130	0.443400
P51	P5	0.917030	0.615220	0.696200
O291	O29	0.818900	0.676800	0.358000
O301	O30	0.783500	0.500300	0.581700
O311	O31	0.899700	0.543000	0.414900
O321	O32	0.855200	0.642600	0.598600
O331	O33	0.992500	0.590100	0.633100
O341	O34	0.881500	0.545700	0.771100
O351	O35	0.928500	0.684100	0.784200
W61	W6	0.308620	0.088130	0.943400
P61	P6	0.417030	0.115220	0.196200
O361	O36	0.318900	0.176800	0.858000
O371	O37	0.283500	0.000300	0.081700
O381	O38	0.399700	0.043000	0.914900
O391	O39	0.355200	0.142600	0.098600
O401	O40	0.492500	0.090100	0.133100
O411	O41	0.381500	0.045700	0.271100
O421	O42	0.428500	0.184100	0.284200
W71	W7	0.691380	0.411870	0.943400
P71	P7	0.582970	0.384780	0.196200
O431	O43	0.681100	0.323200	0.858000
O441	O44	0.716500	0.499700	0.081700
O451	O45	0.600300	0.457000	0.914900
O461	O46	0.644800	0.357400	0.098600
O471	O47	0.507500	0.409900	0.133100
O481	O48	0.618500	0.454300	0.271100
O491	O49	0.571500	0.315900	0.284200
W81	W8	0.191380	0.911870	0.443400
P81	P8	0.082970	0.884780	0.696200
O501	O50	0.181100	0.823200	0.358000
O511	O51	0.216500	0.999700	0.581700
O521	O52	0.100300	0.957000	0.414900
O531	O53	0.144800	0.857400	0.598600
O541	O54	0.007500	0.909900	0.633100
O551	O55	0.118500	0.954300	0.771100
O561	O56	0.071500	0.815900	0.784200
W91	W9	0.661870	0.058620	0.806600
P91	P9	0.634780	0.167030	0.553800
O571	O57	0.573200	0.068900	0.892000
O581	O58	0.749700	0.033500	0.668300
O591	O59	0.707000	0.149700	0.835100
O601	O60	0.607400	0.105200	0.651400
O611	O61	0.659900	0.242500	0.616900
O621	O62	0.704300	0.131500	0.478900
O631	O63	0.565900	0.178500	0.465800
W101	W10	0.161870	0.558620	0.306600
P101	P10	0.134780	0.667030	0.053800
O641	O64	0.073200	0.568900	0.392000
O651	O65	0.249700	0.533500	0.168300
O661	O66	0.207000	0.649700	0.335100
O671	O67	0.107400	0.605200	0.151400
O681	O68	0.159900	0.742500	0.116900
O691	O69	0.204300	0.631500	0.978900
O701	O70	0.065900	0.678500	0.965800
W111	W11	0.838130	0.941380	0.306600
P111	P11	0.865220	0.832970	0.053800
O711	O71	0.926800	0.931100	0.392000
O721	O72	0.750300	0.966500	0.168300
O731	O73	0.793000	0.850300	0.335100
O741	O74	0.892600	0.894800	0.151400
O751	O75	0.840100	0.757500	0.116900
O761	O76	0.795700	0.868500	0.978900
O771	O77	0.934100	0.821500	0.965800
W121	W12	0.338130	0.441380	0.806600
P121	P12	0.365220	0.332970	0.553800
O781	O78	0.426800	0.431100	0.892000
O791	O79	0.250300	0.466500	0.668300
O801	O80	0.293000	0.350300	0.835100
O811	O81	0.392600	0.394800	0.651400
O821	O82	0.340100	0.257500	0.616900
O831	O83	0.295700	0.368500	0.478900
O841	O84	0.434100	0.321500	0.465800
W131	W13	0.191380	0.411870	0.556600
P131	P13	0.082970	0.384780	0.303800
O851	O85	0.181100	0.323200	0.642000
O861	O86	0.216500	0.499700	0.418300
O871	O87	0.100300	0.457000	0.585100
O881	O88	0.144800	0.357400	0.401400
O891	O89	0.007500	0.409900	0.366900
O901	O90	0.118500	0.454300	0.228900
O911	O91	0.071500	0.315900	0.215800
W141	W14	0.691380	0.911870	0.056600
P141	P14	0.582970	0.884780	0.803800
O921	O92	0.681100	0.823200	0.142000
O931	O93	0.716500	0.999700	0.918300
O941	O94	0.600300	0.957000	0.085100
O951	O95	0.644800	0.857400	0.901400
O961	O96	0.507500	0.909900	0.866900
O971	O97	0.618500	0.954300	0.728900
O981	O98	0.571500	0.815900	0.715800
W151	W15	0.308620	0.588130	0.056600
P151	P15	0.417030	0.615220	0.803800
O991	O99	0.318900	0.676800	0.142000
O1001	O100	0.283500	0.500300	0.918300
O1011	O101	0.399700	0.543000	0.085100
O1021	O102	0.355200	0.642600	0.901400
O1031	O103	0.492500	0.590100	0.866900
O1041	O104	0.381500	0.545700	0.728900
O1051	O105	0.428500	0.684100	0.715800
W161	W16	0.808620	0.088130	0.556600
P161	P16	0.917030	0.115220	0.303800
O1061	O106	0.818900	0.176800	0.642000
O1071	O107	0.783500	0.000300	0.418300
O1081	O108	0.899700	0.043000	0.585100
O1091	O109	0.855200	0.142600	0.401400
O1101	O110	0.992500	0.090100	0.366900
O1111	O111	0.881500	0.045700	0.228900
O1121	O112	0.928500	0.184100	0.215800
Ni11	Ni1	0.500000	0.750000	0.625000
Ni21	Ni2	0.000000	0.250000	0.125000
Ni31	Ni3	0.000000	0.750000	0.875000
Ni41	Ni4	0.500000	0.250000	0.375000
Ni51	Ni5	0.250000	0.750000	0.250000
Ni61	Ni6	0.250000	0.250000	0.750000
Ni71	Ni7	0.000000	0.500000	0.500000
Ni81	Ni8	0.500000	0.000000	0.000000
Ni91	Ni9	0.500000	0.500000	0.000000
Ni101	Ni10	0.000000	0.000000	0.500000
Ni111	Ni11	0.750000	0.250000	0.750000
Ni121	Ni12	0.750000	0.750000	0.250000
