data_GUXJUF_clean_PM
_symmetry_space_group_name_H-M	'P1'
_cell_length_a	13.847400
_cell_length_b	32.653000
_cell_length_c	18.534300
_cell_angle_alpha	101.242000
_cell_angle_beta	90.000000
_cell_angle_gamma	90.000000
_symmetry_Int_Tables_number 1

loop_
_symmetry_equiv_pos_as_xyz
'x,y,z'

loop_
_atom_site_label
_atom_site_type_symbol
_atom_site_fract_x
_atom_site_fract_y
_atom_site_fract_z
Cu11	Cu1	0.336850	0.708090	0.309020
Cu21	Cu2	0.674920	0.703950	0.562590
Cu31	Cu3	0.003510	0.493310	0.753740
Cu41	Cu4	0.171050	0.801210	0.492700
Cu51	Cu5	0.824420	0.807290	0.737560
Cu61	Cu6	0.836850	0.791910	0.190980
Cu71	Cu7	0.174920	0.796050	0.937410
Cu81	Cu8	0.503510	0.006690	0.746260
Cu91	Cu9	0.671050	0.698790	0.007300
Cu101	Cu10	0.324420	0.692710	0.762440
Cu111	Cu11	0.663150	0.291910	0.690980
Cu121	Cu12	0.325080	0.296050	0.437410
Cu131	Cu13	0.996490	0.506690	0.246260
Cu141	Cu14	0.828950	0.198790	0.507300
Cu151	Cu15	0.175580	0.192710	0.262440
Cu161	Cu16	0.163150	0.208090	0.809020
Cu171	Cu17	0.825080	0.203950	0.062590
Cu181	Cu18	0.496490	0.993310	0.253740
Cu191	Cu19	0.328950	0.301210	0.992700
Cu201	Cu20	0.675580	0.307290	0.237560
Cu211	Cu21	0.000000	0.500000	0.500000
Cu221	Cu22	0.500000	0.000000	0.000000
Cu231	Cu23	0.500000	0.000000	0.500000
Cu241	Cu24	0.000000	0.500000	0.000000
H11	H1	0.912600	0.598600	0.396900
H21	H2	0.992600	0.593300	0.334700
H31	H3	0.007300	0.626300	0.408800
H41	H4	0.309100	0.549500	0.513100
H51	H5	0.314900	0.543500	0.426300
H61	H6	0.306000	0.504100	0.463900
H71	H7	0.243100	0.626900	0.491200
H81	H8	0.168500	0.571100	0.286600
H91	H9	0.250300	0.623400	0.243300
H101	H10	0.323300	0.677100	0.443900
H111	H11	0.287100	0.777000	0.218200
H121	H12	0.378200	0.826100	0.173700
H131	H13	0.630300	0.824000	0.432900
H141	H14	0.724100	0.776800	0.479800
H151	H15	0.691400	0.675700	0.701300
H161	H16	0.754700	0.618700	0.501400
H171	H17	0.833200	0.565600	0.545000
H181	H18	0.763200	0.623900	0.750200
H191	H19	0.696700	0.503200	0.734300
H201	H20	0.688400	0.537700	0.685200
H211	H21	0.698200	0.551200	0.771800
H221	H22	0.093400	0.591000	0.648600
H231	H23	0.003700	0.621200	0.668500
H241	H24	0.007500	0.589800	0.591700
H251	H25	0.222800	0.725300	0.566500
H261	H26	0.135500	0.670600	0.596300
H271	H27	0.177600	0.816200	0.340600
H281	H28	0.262500	0.883600	0.528500
H291	H29	0.249000	0.862600	0.277000
H301	H30	0.337600	0.931000	0.467800
H311	H31	0.189700	0.982100	0.269000
H321	H32	0.181400	0.952700	0.327200
H331	H33	0.189700	0.933000	0.242300
H341	H34	0.575300	0.885400	0.340700
H351	H35	0.475100	0.872100	0.370400
H361	H36	0.536600	0.908400	0.418500
H371	H37	0.275900	0.772200	0.695400
H381	H38	0.369500	0.823000	0.657100
H391	H39	0.822500	0.824400	0.586500
H401	H40	0.750100	0.870400	0.523300
H411	H41	0.732900	0.889000	0.773900
H421	H42	0.659800	0.937200	0.715000
H431	H43	0.809900	0.945100	0.494400
H441	H44	0.814000	0.962500	0.580300
H451	H45	0.805900	0.993900	0.525300
H461	H46	0.475700	0.909500	0.664300
H471	H47	0.518900	0.874700	0.600900
H481	H48	0.417300	0.895000	0.590200
H491	H49	0.412600	0.901400	0.103100
H501	H50	0.492600	0.906700	0.165300
H511	H51	0.507300	0.873700	0.091200
H521	H52	0.809100	0.950500	0.986900
H531	H53	0.814900	0.956500	0.073700
H541	H54	0.806000	0.995900	0.036100
H551	H55	0.743100	0.873100	0.008800
H561	H56	0.668500	0.928900	0.213400
H571	H57	0.750300	0.876600	0.256700
H581	H58	0.823300	0.822900	0.056100
H591	H59	0.787100	0.723000	0.281800
H601	H60	0.878200	0.673900	0.326300
H611	H61	0.130300	0.676000	0.067100
H621	H62	0.224100	0.723200	0.020200
H631	H63	0.191400	0.824300	0.798700
H641	H64	0.254700	0.881300	0.998600
H651	H65	0.333200	0.934400	0.955000
H661	H66	0.263200	0.876100	0.749800
H671	H67	0.196700	0.996800	0.765700
H681	H68	0.188400	0.962300	0.814800
H691	H69	0.198200	0.948800	0.728200
H701	H70	0.593400	0.909000	0.851400
H711	H71	0.503700	0.878800	0.831500
H721	H72	0.507500	0.910200	0.908300
H731	H73	0.722800	0.774700	0.933500
H741	H74	0.635500	0.829400	0.903700
H751	H75	0.677600	0.683800	0.159400
H761	H76	0.762500	0.616400	0.971500
H771	H77	0.749000	0.637400	0.223000
H781	H78	0.837600	0.569000	0.032200
H791	H79	0.689700	0.517900	0.231000
H801	H80	0.681400	0.547300	0.172800
H811	H81	0.689700	0.567000	0.257700
H821	H82	0.075300	0.614600	0.159300
H831	H83	0.975100	0.627900	0.129600
H841	H84	0.036600	0.591600	0.081500
H851	H85	0.775900	0.727800	0.804600
H861	H86	0.869500	0.677000	0.842900
H871	H87	0.322500	0.675600	0.913500
H881	H88	0.250100	0.629600	0.976700
H891	H89	0.232900	0.611000	0.726100
H901	H90	0.159800	0.562800	0.785000
H911	H91	0.309900	0.554900	0.005600
H921	H92	0.314000	0.537500	0.919700
H931	H93	0.305900	0.506100	0.974700
H941	H94	0.975700	0.590500	0.835700
H951	H95	0.018900	0.625300	0.899100
H961	H96	0.917300	0.605000	0.909800
H971	H97	0.087400	0.401400	0.603100
H981	H98	0.007400	0.406700	0.665300
H991	H99	0.992700	0.373700	0.591200
H1001	H100	0.690900	0.450500	0.486900
H1011	H101	0.685100	0.456500	0.573700
H1021	H102	0.694000	0.495900	0.536100
H1031	H103	0.756900	0.373100	0.508800
H1041	H104	0.831500	0.428900	0.713400
H1051	H105	0.749700	0.376600	0.756700
H1061	H106	0.676700	0.322900	0.556100
H1071	H107	0.712900	0.223000	0.781800
H1081	H108	0.621800	0.173900	0.826300
H1091	H109	0.369700	0.176000	0.567100
H1101	H110	0.275900	0.223200	0.520200
H1111	H111	0.308600	0.324300	0.298700
H1121	H112	0.245300	0.381300	0.498600
H1131	H113	0.166800	0.434400	0.455000
H1141	H114	0.236800	0.376100	0.249800
H1151	H115	0.303300	0.496800	0.265700
H1161	H116	0.311600	0.462300	0.314800
H1171	H117	0.301800	0.448800	0.228200
H1181	H118	0.906600	0.409000	0.351400
H1191	H119	0.996300	0.378800	0.331500
H1201	H120	0.992500	0.410200	0.408300
H1211	H121	0.777200	0.274700	0.433500
H1221	H122	0.864500	0.329400	0.403700
H1231	H123	0.822400	0.183800	0.659400
H1241	H124	0.737500	0.116400	0.471500
H1251	H125	0.751000	0.137400	0.723000
H1261	H126	0.662400	0.069000	0.532200
H1271	H127	0.810300	0.017900	0.731000
H1281	H128	0.818600	0.047300	0.672800
H1291	H129	0.810300	0.067000	0.757700
H1301	H130	0.424700	0.114600	0.659300
H1311	H131	0.524900	0.127900	0.629600
H1321	H132	0.463400	0.091600	0.581500
H1331	H133	0.724100	0.227800	0.304600
H1341	H134	0.630500	0.177000	0.342900
H1351	H135	0.177500	0.175600	0.413500
H1361	H136	0.249900	0.129600	0.476700
H1371	H137	0.267100	0.111000	0.226100
H1381	H138	0.340200	0.062800	0.285000
H1391	H139	0.190100	0.054900	0.505600
H1401	H140	0.186000	0.037500	0.419700
H1411	H141	0.194100	0.006100	0.474700
H1421	H142	0.524300	0.090500	0.335700
H1431	H143	0.481100	0.125300	0.399100
H1441	H144	0.582700	0.105000	0.409800
H1451	H145	0.587400	0.098600	0.896900
H1461	H146	0.507400	0.093300	0.834700
H1471	H147	0.492700	0.126300	0.908800
H1481	H148	0.190900	0.049500	0.013100
H1491	H149	0.185100	0.043500	0.926300
H1501	H150	0.194000	0.004100	0.963900
H1511	H151	0.256900	0.126900	0.991200
H1521	H152	0.331500	0.071100	0.786600
H1531	H153	0.249700	0.123400	0.743300
H1541	H154	0.176700	0.177100	0.943900
H1551	H155	0.212900	0.277000	0.718200
H1561	H156	0.121800	0.326100	0.673700
H1571	H157	0.869700	0.324000	0.932900
H1581	H158	0.775900	0.276800	0.979800
H1591	H159	0.808600	0.175700	0.201300
H1601	H160	0.745300	0.118700	0.001400
H1611	H161	0.666800	0.065600	0.045000
H1621	H162	0.736800	0.123900	0.250200
H1631	H163	0.803300	0.003200	0.234300
H1641	H164	0.811600	0.037700	0.185200
H1651	H165	0.801800	0.051200	0.271800
H1661	H166	0.406600	0.091000	0.148600
H1671	H167	0.496300	0.121200	0.168500
H1681	H168	0.492500	0.089800	0.091700
H1691	H169	0.277200	0.225300	0.066500
H1701	H170	0.364500	0.170600	0.096300
H1711	H171	0.322400	0.316200	0.840600
H1721	H172	0.237500	0.383600	0.028500
H1731	H173	0.251000	0.362600	0.777000
H1741	H174	0.162400	0.431000	0.967800
H1751	H175	0.310300	0.482100	0.769000
H1761	H176	0.318600	0.452700	0.827200
H1771	H177	0.310300	0.433000	0.742300
H1781	H178	0.924700	0.385400	0.840700
H1791	H179	0.024900	0.372100	0.870400
H1801	H180	0.963400	0.408400	0.918500
H1811	H181	0.224100	0.272200	0.195400
H1821	H182	0.130500	0.323000	0.157100
H1831	H183	0.677500	0.324400	0.086500
H1841	H184	0.749900	0.370400	0.023300
H1851	H185	0.767100	0.389000	0.273900
H1861	H186	0.840200	0.437200	0.215000
H1871	H187	0.690100	0.445100	0.994400
H1881	H188	0.686000	0.462500	0.080300
H1891	H189	0.694100	0.493900	0.025300
H1901	H190	0.024300	0.409500	0.164300
H1911	H191	0.981100	0.374700	0.100900
H1921	H192	0.082700	0.395000	0.090200
C11	C1	0.981400	0.599010	0.387400
C21	C2	0.030700	0.566220	0.421000
C31	C3	0.132500	0.563460	0.426000
C41	C4	0.179300	0.535450	0.463200
C51	C5	0.286700	0.532900	0.467000
C61	C6	0.192700	0.594100	0.394400
C71	C7	0.242100	0.625930	0.440200
C81	C8	0.197900	0.592990	0.319900
C91	C9	0.246900	0.624480	0.294300
C101	C10	0.289700	0.656050	0.411700
C111	C11	0.534500	0.718250	0.304000
C121	C12	0.493600	0.751980	0.267700
C131	C13	0.354500	0.777770	0.224600
C141	C14	0.409500	0.807530	0.198900
C151	C15	0.546800	0.783120	0.243200
C161	C16	0.653600	0.790070	0.254300
C171	C17	0.353500	0.771480	0.477600
C181	C18	0.461500	0.773110	0.485000
C191	C19	0.517100	0.744570	0.514000
C201	C20	0.599400	0.803800	0.454600
C211	C21	0.656400	0.775420	0.481900
C221	C22	0.477400	0.710360	0.550000
C231	C23	0.721900	0.653530	0.669400
C241	C24	0.759600	0.620250	0.552400
C251	C25	0.806600	0.588310	0.578100
C261	C26	0.765700	0.622930	0.699200
C271	C27	0.813700	0.590630	0.653600
C281	C28	0.717700	0.530800	0.728900
C291	C29	0.825500	0.531270	0.721700
C301	C30	0.872400	0.559280	0.683800
C311	C31	0.973600	0.560840	0.677100
C321	C32	0.024100	0.593620	0.643500
C331	C33	0.980000	0.777980	0.464700
C341	C34	0.021200	0.745540	0.503800
C351	C35	0.156900	0.722600	0.554600
C361	C36	0.104000	0.689900	0.572800
C371	C37	0.968200	0.713070	0.522900
C381	C38	0.862200	0.705110	0.507100
C391	C39	0.211500	0.839380	0.366800
C401	C40	0.261400	0.878700	0.476800
C411	C41	0.254900	0.866940	0.328400
C421	C42	0.307000	0.907280	0.440400
C431	C43	0.306800	0.900680	0.365500
C441	C44	0.210200	0.955800	0.280900
C451	C45	0.318000	0.955360	0.287500
C461	C46	0.365400	0.928940	0.327500
C471	C47	0.467100	0.926910	0.332900
C481	C48	0.518100	0.895380	0.368800
C491	C49	0.644500	0.774440	0.721300
C501	C50	0.517300	0.713100	0.787400
C511	C51	0.478900	0.745260	0.746500
C521	C52	0.535500	0.775390	0.722300
C531	C53	0.343100	0.772490	0.702800
C541	C54	0.399600	0.803090	0.680000
C551	C55	0.787100	0.846950	0.612900
C561	C56	0.743800	0.874520	0.574700
C571	C57	0.735000	0.884750	0.722300
C581	C58	0.690500	0.913730	0.687100
C591	C59	0.691400	0.908150	0.612400
C601	C60	0.786600	0.966700	0.534200
C611	C61	0.678900	0.964690	0.537900
C621	C62	0.632100	0.936440	0.575400
C631	C63	0.530400	0.933440	0.578900
C641	C64	0.481200	0.900210	0.611500
C651	C65	0.481400	0.900990	0.112600
C661	C66	0.530700	0.933780	0.079000
C671	C67	0.632500	0.936540	0.074000
C681	C68	0.679300	0.964550	0.036800
C691	C69	0.786700	0.967100	0.033000
C701	C70	0.692700	0.905900	0.105600
C711	C71	0.742100	0.874070	0.059800
C721	C72	0.697900	0.907010	0.180100
C731	C73	0.746900	0.875520	0.205700
C741	C74	0.789700	0.843950	0.088300
C751	C75	0.034500	0.781750	0.196000
C761	C76	0.993600	0.748020	0.232300
C771	C77	0.854500	0.722230	0.275400
C781	C78	0.909500	0.692470	0.301100
C791	C79	0.046800	0.716880	0.256800
C801	C80	0.153600	0.709930	0.245700
C811	C81	0.853500	0.728520	0.022400
C821	C82	0.961500	0.726890	0.015000
C831	C83	0.017100	0.755430	0.986000
C841	C84	0.099400	0.696200	0.045400
C851	C85	0.156400	0.724580	0.018100
C861	C86	0.977400	0.789640	0.950000
C871	C87	0.221900	0.846470	0.830600
C881	C88	0.259600	0.879750	0.947600
C891	C89	0.306600	0.911690	0.921900
C901	C90	0.265700	0.877070	0.800800
C911	C91	0.313700	0.909370	0.846400
C921	C92	0.217700	0.969200	0.771100
C931	C93	0.325500	0.968730	0.778300
C941	C94	0.372400	0.940720	0.816200
C951	C95	0.473600	0.939160	0.822900
C961	C96	0.524100	0.906380	0.856500
C971	C97	0.480000	0.722020	0.035300
C981	C98	0.521200	0.754460	0.996200
C991	C99	0.656900	0.777400	0.945400
C1001	C100	0.604000	0.810100	0.927200
C1011	C101	0.468200	0.786930	0.977100
C1021	C102	0.362200	0.794890	0.992900
C1031	C103	0.711500	0.660620	0.133200
C1041	C104	0.761400	0.621300	0.023200
C1051	C105	0.754900	0.633060	0.171600
C1061	C106	0.807000	0.592720	0.059600
C1071	C107	0.806800	0.599320	0.134500
C1081	C108	0.710200	0.544200	0.219100
C1091	C109	0.818000	0.544640	0.212500
C1101	C110	0.865400	0.571060	0.172500
C1111	C111	0.967100	0.573090	0.167100
C1121	C112	0.018100	0.604620	0.131200
C1131	C113	0.144500	0.725560	0.778700
C1141	C114	0.017300	0.786900	0.712600
C1151	C115	0.978900	0.754740	0.753500
C1161	C116	0.035500	0.724610	0.777700
C1171	C117	0.843100	0.727510	0.797200
C1181	C118	0.899600	0.696910	0.820000
C1191	C119	0.287100	0.653050	0.887100
C1201	C120	0.243800	0.625480	0.925300
C1211	C121	0.235000	0.615250	0.777700
C1221	C122	0.190500	0.586270	0.812900
C1231	C123	0.191400	0.591850	0.887600
C1241	C124	0.286600	0.533300	0.965800
C1251	C125	0.178900	0.535310	0.962100
C1261	C126	0.132100	0.563560	0.924600
C1271	C127	0.030400	0.566560	0.921100
C1281	C128	0.981200	0.599790	0.888500
C1291	C129	0.018600	0.400990	0.612600
C1301	C130	0.969300	0.433780	0.579000
C1311	C131	0.867500	0.436540	0.574000
C1321	C132	0.820700	0.464550	0.536800
C1331	C133	0.713300	0.467100	0.533000
C1341	C134	0.807300	0.405900	0.605600
C1351	C135	0.757900	0.374070	0.559800
C1361	C136	0.802100	0.407010	0.680100
C1371	C137	0.753100	0.375520	0.705700
C1381	C138	0.710300	0.343950	0.588300
C1391	C139	0.465500	0.281750	0.696000
C1401	C140	0.506400	0.248020	0.732300
C1411	C141	0.645500	0.222230	0.775400
C1421	C142	0.590500	0.192470	0.801100
C1431	C143	0.453200	0.216880	0.756800
C1441	C144	0.346400	0.209930	0.745700
C1451	C145	0.646500	0.228520	0.522400
C1461	C146	0.538500	0.226890	0.515000
C1471	C147	0.482900	0.255430	0.486000
C1481	C148	0.400600	0.196200	0.545400
C1491	C149	0.343600	0.224580	0.518100
C1501	C150	0.522600	0.289640	0.450000
C1511	C151	0.278100	0.346470	0.330600
C1521	C152	0.240400	0.379750	0.447600
C1531	C153	0.193400	0.411690	0.421900
C1541	C154	0.234300	0.377070	0.300800
C1551	C155	0.186300	0.409370	0.346400
C1561	C156	0.282300	0.469200	0.271100
C1571	C157	0.174500	0.468730	0.278300
C1581	C158	0.127600	0.440720	0.316200
C1591	C159	0.026400	0.439160	0.322900
C1601	C160	0.975900	0.406380	0.356500
C1611	C161	0.020000	0.222020	0.535300
C1621	C162	0.978800	0.254460	0.496200
C1631	C163	0.843100	0.277400	0.445400
C1641	C164	0.896000	0.310100	0.427200
C1651	C165	0.031800	0.286930	0.477100
C1661	C166	0.137800	0.294890	0.492900
C1671	C167	0.788500	0.160620	0.633200
C1681	C168	0.738600	0.121300	0.523200
C1691	C169	0.745100	0.133060	0.671600
C1701	C170	0.693000	0.092720	0.559600
C1711	C171	0.693200	0.099320	0.634500
C1721	C172	0.789800	0.044200	0.719100
C1731	C173	0.682000	0.044640	0.712500
C1741	C174	0.634600	0.071060	0.672500
C1751	C175	0.532900	0.073090	0.667100
C1761	C176	0.481900	0.104620	0.631200
C1771	C177	0.355500	0.225560	0.278700
C1781	C178	0.482700	0.286900	0.212600
C1791	C179	0.521100	0.254740	0.253500
C1801	C180	0.464500	0.224610	0.277700
C1811	C181	0.656900	0.227510	0.297200
C1821	C182	0.600400	0.196910	0.320000
C1831	C183	0.212900	0.153050	0.387100
C1841	C184	0.256200	0.125480	0.425300
C1851	C185	0.265000	0.115250	0.277700
C1861	C186	0.309500	0.086270	0.312900
C1871	C187	0.308600	0.091850	0.387600
C1881	C188	0.213400	0.033300	0.465800
C1891	C189	0.321100	0.035310	0.462100
C1901	C190	0.367900	0.063560	0.424600
C1911	C191	0.469600	0.066560	0.421100
C1921	C192	0.518800	0.099790	0.388500
C1931	C193	0.518600	0.099010	0.887400
C1941	C194	0.469300	0.066220	0.921000
C1951	C195	0.367500	0.063460	0.926000
C1961	C196	0.320700	0.035450	0.963200
C1971	C197	0.213300	0.032900	0.967000
C1981	C198	0.307300	0.094100	0.894400
C1991	C199	0.257900	0.125930	0.940200
C2001	C200	0.302100	0.092990	0.819900
C2011	C201	0.253100	0.124480	0.794300
C2021	C202	0.210300	0.156050	0.911700
C2031	C203	0.965500	0.218250	0.804000
C2041	C204	0.006400	0.251980	0.767700
C2051	C205	0.145500	0.277770	0.724600
C2061	C206	0.090500	0.307530	0.698900
C2071	C207	0.953200	0.283120	0.743200
C2081	C208	0.846400	0.290070	0.754300
C2091	C209	0.146500	0.271480	0.977600
C2101	C210	0.038500	0.273110	0.985000
C2111	C211	0.982900	0.244570	0.014000
C2121	C212	0.900600	0.303800	0.954600
C2131	C213	0.843600	0.275420	0.981900
C2141	C214	0.022600	0.210360	0.050000
C2151	C215	0.778100	0.153530	0.169400
C2161	C216	0.740400	0.120250	0.052400
C2171	C217	0.693400	0.088310	0.078100
C2181	C218	0.734300	0.122930	0.199200
C2191	C219	0.686300	0.090630	0.153600
C2201	C220	0.782300	0.030800	0.228900
C2211	C221	0.674500	0.031270	0.221700
C2221	C222	0.627600	0.059280	0.183800
C2231	C223	0.526400	0.060840	0.177100
C2241	C224	0.475900	0.093620	0.143500
C2251	C225	0.520000	0.277980	0.964700
C2261	C226	0.478800	0.245540	0.003800
C2271	C227	0.343100	0.222600	0.054600
C2281	C228	0.396000	0.189900	0.072800
C2291	C229	0.531800	0.213070	0.022900
C2301	C230	0.637800	0.205110	0.007100
C2311	C231	0.288500	0.339380	0.866800
C2321	C232	0.238600	0.378700	0.976800
C2331	C233	0.245100	0.366940	0.828400
C2341	C234	0.193000	0.407280	0.940400
C2351	C235	0.193200	0.400680	0.865500
C2361	C236	0.289800	0.455800	0.780900
C2371	C237	0.182000	0.455360	0.787500
C2381	C238	0.134600	0.428940	0.827500
C2391	C239	0.032900	0.426910	0.832900
C2401	C240	0.981900	0.395380	0.868800
C2411	C241	0.855500	0.274440	0.221300
C2421	C242	0.982700	0.213100	0.287400
C2431	C243	0.021100	0.245260	0.246500
C2441	C244	0.964500	0.275390	0.222300
C2451	C245	0.156900	0.272490	0.202800
C2461	C246	0.100400	0.303090	0.180000
C2471	C247	0.712900	0.346950	0.112900
C2481	C248	0.756200	0.374520	0.074700
C2491	C249	0.765000	0.384750	0.222300
C2501	C250	0.809500	0.413730	0.187100
C2511	C251	0.808600	0.408150	0.112400
C2521	C252	0.713400	0.466700	0.034200
C2531	C253	0.821100	0.464690	0.037900
C2541	C254	0.867900	0.436440	0.075400
C2551	C255	0.969600	0.433440	0.078900
C2561	C256	0.018800	0.400210	0.111500
N11	N1	0.289800	0.656580	0.340100
N21	N2	0.397700	0.750460	0.258300
N31	N3	0.504100	0.810800	0.208500
N41	N4	0.504300	0.804010	0.457300
N51	N5	0.613000	0.746120	0.511200
N61	N6	0.720600	0.653330	0.597800
N71	N7	0.114900	0.749950	0.520400
N81	N8	0.010600	0.685010	0.558200
N91	N9	0.216900	0.845010	0.440500
N101	N10	0.383800	0.743710	0.734800
N111	N11	0.494600	0.804920	0.689900
N121	N12	0.780400	0.851200	0.685100
N131	N13	0.789800	0.843420	0.159900
N141	N14	0.897700	0.749540	0.241700
N151	N15	0.004100	0.689200	0.291500
N161	N16	0.004300	0.695990	0.042700
N171	N17	0.113000	0.753880	0.988800
N181	N18	0.220600	0.846670	0.902200
N191	N19	0.614900	0.750050	0.979600
N201	N20	0.510600	0.814990	0.941800
N211	N21	0.716900	0.654990	0.059500
N221	N22	0.883800	0.756290	0.765200
N231	N23	0.994600	0.695080	0.810100
N241	N24	0.280400	0.648800	0.814900
N251	N25	0.710200	0.343420	0.659900
N261	N26	0.602300	0.249540	0.741700
N271	N27	0.495900	0.189200	0.791500
N281	N28	0.495700	0.195990	0.542700
N291	N29	0.387000	0.253880	0.488800
N301	N30	0.279400	0.346670	0.402200
N311	N31	0.885100	0.250050	0.479600
N321	N32	0.989400	0.314990	0.441800
N331	N33	0.783100	0.154990	0.559500
N341	N34	0.616200	0.256290	0.265200
N351	N35	0.505400	0.195080	0.310100
N361	N36	0.219600	0.148800	0.314900
N371	N37	0.210200	0.156580	0.840100
N381	N38	0.102300	0.250460	0.758300
N391	N39	0.995900	0.310800	0.708500
N401	N40	0.995700	0.304010	0.957300
N411	N41	0.887000	0.246120	0.011200
N421	N42	0.779400	0.153330	0.097800
N431	N43	0.385100	0.249950	0.020400
N441	N44	0.489400	0.185010	0.058200
N451	N45	0.283100	0.345010	0.940500
N461	N46	0.116200	0.243710	0.234800
N471	N47	0.005400	0.304920	0.189900
N481	N48	0.719600	0.351200	0.185100
O11	O1	0.134700	0.509850	0.496400
O21	O2	0.971700	0.542670	0.447400
O31	O3	0.471900	0.693910	0.323400
O41	O4	0.622600	0.715790	0.311300
O51	O5	0.705300	0.772150	0.201200
O61	O6	0.681900	0.814550	0.309300
O71	O7	0.318200	0.750590	0.421190
O81	O8	0.304800	0.794620	0.527780
O91	O9	0.389200	0.706850	0.556280
O101	O10	0.540600	0.687630	0.573000
O111	O11	0.032200	0.535410	0.699700
O121	O12	0.869600	0.504970	0.752500
O131	O13	0.041100	0.804580	0.451400
O141	O14	0.893900	0.777040	0.448300
O151	O15	0.807000	0.724110	0.556100
O161	O16	0.838500	0.679120	0.452000
O171	O17	0.361800	0.981170	0.254100
O181	O18	0.525600	0.950920	0.306700
O191	O19	0.684200	0.749960	0.671800
O201	O20	0.688400	0.800720	0.769100
O211	O21	0.603700	0.713420	0.803680
O221	O22	0.454900	0.687370	0.801800
O231	O23	0.635200	0.990410	0.505300
O241	O24	0.471900	0.957330	0.552200
O251	O25	0.634700	0.990150	0.003600
O261	O26	0.471700	0.957330	0.052600
O271	O27	0.971900	0.806090	0.176600
O281	O28	0.122600	0.784210	0.188700
O291	O29	0.205300	0.727850	0.298800
O301	O30	0.181900	0.685450	0.190700
O311	O31	0.818200	0.749410	0.078810
O321	O32	0.804800	0.705380	0.972220
O331	O33	0.889200	0.793150	0.943720
O341	O34	0.040600	0.812370	0.927000
O351	O35	0.532200	0.964590	0.800300
O361	O36	0.369600	0.995030	0.747500
O371	O37	0.541100	0.695420	0.048600
O381	O38	0.393900	0.722960	0.051700
O391	O39	0.307000	0.775890	0.943900
O401	O40	0.338500	0.820880	0.048000
O411	O41	0.861800	0.518830	0.245900
O421	O42	0.025600	0.549080	0.193300
O431	O43	0.184200	0.750040	0.828200
O441	O44	0.188400	0.699280	0.730900
O451	O45	0.103700	0.786580	0.696320
O461	O46	0.954900	0.812630	0.698200
O471	O47	0.135200	0.509590	0.994700
O481	O48	0.971900	0.542670	0.947800
O491	O49	0.865300	0.490150	0.503600
O501	O50	0.028300	0.457330	0.552600
O511	O51	0.528100	0.306090	0.676600
O521	O52	0.377400	0.284210	0.688700
O531	O53	0.294700	0.227850	0.798800
O541	O54	0.318100	0.185450	0.690700
O551	O55	0.681800	0.249410	0.578810
O561	O56	0.695200	0.205380	0.472220
O571	O57	0.610800	0.293150	0.443720
O581	O58	0.459400	0.312370	0.427000
O591	O59	0.967800	0.464590	0.300300
O601	O60	0.130400	0.495030	0.247500
O611	O61	0.958900	0.195420	0.548600
O621	O62	0.106100	0.222960	0.551700
O631	O63	0.193000	0.275890	0.443900
O641	O64	0.161500	0.320880	0.548000
O651	O65	0.638200	0.018830	0.745900
O661	O66	0.474400	0.049080	0.693300
O671	O67	0.315800	0.250040	0.328200
O681	O68	0.311600	0.199280	0.230900
O691	O69	0.396300	0.286580	0.196320
O701	O70	0.545100	0.312630	0.198200
O711	O71	0.364800	0.009590	0.494700
O721	O72	0.528100	0.042670	0.447800
O731	O73	0.365300	0.009850	0.996400
O741	O74	0.528300	0.042670	0.947400
O751	O75	0.028100	0.193910	0.823400
O761	O76	0.877400	0.215790	0.811300
O771	O77	0.794700	0.272150	0.701200
O781	O78	0.818100	0.314550	0.809300
O791	O79	0.181800	0.250590	0.921190
O801	O80	0.195200	0.294620	0.027780
O811	O81	0.110800	0.206850	0.056280
O821	O82	0.959400	0.187630	0.073000
O831	O83	0.467800	0.035410	0.199700
O841	O84	0.630400	0.004970	0.252500
O851	O85	0.458900	0.304580	0.951400
O861	O86	0.606100	0.277040	0.948300
O871	O87	0.693000	0.224110	0.056100
O881	O88	0.661500	0.179120	0.952000
O891	O89	0.138200	0.481170	0.754100
O901	O90	0.974400	0.450920	0.806700
O911	O91	0.815800	0.249960	0.171800
O921	O92	0.811600	0.300720	0.269100
O931	O93	0.896300	0.213420	0.303680
O941	O94	0.045100	0.187370	0.301800
O951	O95	0.864800	0.490410	0.005300
O961	O96	0.028100	0.457330	0.052200
