data_GUXLIU_clean_PM
_symmetry_space_group_name_H-M	'P1'
_cell_length_a	4.938700
_cell_length_b	8.185600
_cell_length_c	12.060000
_cell_angle_alpha	90.000000
_cell_angle_beta	90.000000
_cell_angle_gamma	92.045000
_symmetry_Int_Tables_number 1

loop_
_symmetry_equiv_pos_as_xyz
'x,y,z'

loop_
_atom_site_label
_atom_site_type_symbol
_atom_site_fract_x
_atom_site_fract_y
_atom_site_fract_z
Al11	Al1	0.754400	0.861800	0.250000
Al21	Al2	0.245600	0.138200	0.750000
Al31	Al3	0.500000	0.000000	0.500000
Al41	Al4	0.500000	0.000000	0.000000
P11	P1	0.991000	0.765900	0.482470
P21	P2	0.009000	0.234100	0.982470
P31	P3	0.009000	0.234100	0.517530
P41	P4	0.991000	0.765900	0.017530
H11	H1	0.696000	0.551000	0.528000
H21	H2	0.937000	0.565000	0.618000
H31	H3	0.304000	0.449000	0.028000
H41	H4	0.063000	0.435000	0.118000
H51	H5	0.304000	0.449000	0.472000
H61	H6	0.063000	0.435000	0.382000
H71	H7	0.696000	0.551000	0.972000
H81	H8	0.937000	0.565000	0.882000
C11	C1	0.918000	0.564400	0.531400
C21	C2	0.082000	0.435600	0.031400
C31	C3	0.082000	0.435600	0.468600
C41	C4	0.918000	0.564400	0.968600
O11	O1	0.797200	0.878200	0.541800
O21	O2	0.282000	0.807700	0.508300
O31	O3	0.946400	0.762900	0.357100
O41	O4	0.202800	0.121800	0.041800
O51	O5	0.718000	0.192300	0.008300
O61	O6	0.053600	0.237100	0.857100
O71	O7	0.202800	0.121800	0.458200
O81	O8	0.718000	0.192300	0.491700
O91	O9	0.053600	0.237100	0.642900
O101	O10	0.797200	0.878200	0.958200
O111	O11	0.282000	0.807700	0.991700
O121	O12	0.946400	0.762900	0.142900
F11	F1	0.557200	0.964200	0.352800
F21	F2	0.442800	0.035800	0.852800
F31	F3	0.442800	0.035800	0.647200
F41	F4	0.557200	0.964200	0.147200
