data_GUXQAR_clean_PM
_symmetry_space_group_name_H-M	'P1'
_cell_length_a	6.375800
_cell_length_b	6.884000
_cell_length_c	9.025400
_cell_angle_alpha	69.010000
_cell_angle_beta	85.197000
_cell_angle_gamma	79.452000
_symmetry_Int_Tables_number 1

loop_
_symmetry_equiv_pos_as_xyz
'x,y,z'

loop_
_atom_site_label
_atom_site_type_symbol
_atom_site_fract_x
_atom_site_fract_y
_atom_site_fract_z
V11	V1	0.000000	0.500000	0.500000
V21	V2	0.000000	0.000000	0.500000
H11	H1	0.824400	0.608600	0.994300
H21	H2	0.065700	0.837400	0.316600
H31	H3	0.175600	0.391400	0.005700
H41	H4	0.934300	0.162600	0.683400
C11	C1	0.396100	0.543900	0.858600
C21	C2	0.267700	0.618800	0.711300
C31	C3	0.594000	0.606400	0.855700
C41	C4	0.717400	0.685900	0.703100
C51	C5	0.694500	0.564100	0.996600
C61	C6	0.603900	0.456100	0.141400
C71	C7	0.732300	0.381200	0.288700
C81	C8	0.406000	0.393600	0.144300
C91	C9	0.282600	0.314100	0.296900
C101	C10	0.305500	0.435900	0.003400
O11	O1	0.010700	0.798900	0.392400
O21	O2	0.806700	0.842700	0.679100
O31	O3	0.174600	0.488700	0.684800
O41	O4	0.252000	0.813000	0.631000
O51	O5	0.731700	0.577900	0.614400
O61	O6	0.989300	0.201100	0.607600
O71	O7	0.193300	0.157300	0.320900
O81	O8	0.825400	0.511300	0.315200
O91	O9	0.748000	0.187000	0.369000
O101	O10	0.268300	0.422100	0.385600
