data_HABREJ_clean_PM
_symmetry_space_group_name_H-M	'P1'
_cell_length_a	13.058400
_cell_length_b	13.058400
_cell_length_c	53.731000
_cell_angle_alpha	90.000000
_cell_angle_beta	90.000000
_cell_angle_gamma	90.000000
_symmetry_Int_Tables_number 1

loop_
_symmetry_equiv_pos_as_xyz
'x,y,z'

loop_
_atom_site_label
_atom_site_type_symbol
_atom_site_fract_x
_atom_site_fract_y
_atom_site_fract_z
Zn11	Zn1	0.157640	0.126350	0.884620
Zn21	Zn2	0.325660	0.058920	0.684850
Zn31	Zn3	0.842360	0.873650	0.384620
Zn41	Zn4	0.674340	0.941080	0.184850
Zn51	Zn5	0.373650	0.657640	0.134620
Zn61	Zn6	0.441080	0.825660	0.934850
Zn71	Zn7	0.626350	0.342360	0.634620
Zn81	Zn8	0.558920	0.174340	0.434850
Zn91	Zn9	0.342360	0.626350	0.365380
Zn101	Zn10	0.174340	0.558920	0.565150
Zn111	Zn11	0.657640	0.373650	0.865380
Zn121	Zn12	0.825660	0.441080	0.065150
Zn131	Zn13	0.126350	0.157640	0.115380
Zn141	Zn14	0.058920	0.325660	0.315150
Zn151	Zn15	0.873650	0.842360	0.615380
Zn161	Zn16	0.941080	0.674340	0.815150
B11	B1	0.262800	0.530900	0.871900
B21	B2	0.737200	0.469100	0.371900
B31	B3	0.969100	0.762800	0.121900
B41	B4	0.030900	0.237200	0.621900
B51	B5	0.237200	0.030900	0.378100
B61	B6	0.762800	0.969100	0.878100
B71	B7	0.530900	0.262800	0.128100
B81	B8	0.469100	0.737200	0.628100
H11	H1	0.060400	0.544200	0.852300
H21	H2	0.313800	0.702000	0.838500
H31	H3	0.175000	0.771200	0.813300
H41	H4	0.278400	0.315200	0.870600
H51	H5	0.015400	0.320100	0.902500
H61	H6	0.058600	0.493800	0.895600
H71	H7	0.463800	0.478200	0.887200
H81	H8	0.321600	0.456500	0.822800
H91	H9	0.486800	0.382900	0.818100
H101	H10	0.339000	0.964100	0.889500
H111	H11	0.322400	0.003800	0.961000
H121	H12	0.212500	0.125800	0.941400
H131	H13	0.358200	0.722500	0.884000
H141	H14	0.356300	0.609200	0.951600
H151	H15	0.267300	0.491800	0.924800
H161	H16	0.355200	0.186900	0.803900
H171	H17	0.360400	0.160900	0.761800
H181	H18	0.131600	0.962200	0.766600
H191	H19	0.124700	0.985000	0.810100
H201	H20	0.939600	0.455800	0.352300
H211	H21	0.686200	0.298000	0.338500
H221	H22	0.825000	0.228800	0.313300
H231	H23	0.721600	0.684800	0.370600
H241	H24	0.984600	0.679900	0.402500
H251	H25	0.941400	0.506200	0.395600
H261	H26	0.536200	0.521800	0.387200
H271	H27	0.678400	0.543500	0.322800
H281	H28	0.513200	0.617100	0.318100
H291	H29	0.661000	0.035900	0.389500
H301	H30	0.677600	0.996200	0.461000
H311	H31	0.787500	0.874200	0.441400
H321	H32	0.641800	0.277500	0.384000
H331	H33	0.643700	0.390800	0.451600
H341	H34	0.732700	0.508200	0.424800
H351	H35	0.644800	0.813100	0.303900
H361	H36	0.639600	0.839100	0.261800
H371	H37	0.868400	0.037800	0.266600
H381	H38	0.875300	0.015000	0.310100
H391	H39	0.955800	0.560400	0.102300
H401	H40	0.798000	0.813800	0.088500
H411	H41	0.728800	0.675000	0.063300
H421	H42	0.184800	0.778400	0.120600
H431	H43	0.179900	0.515400	0.152500
H441	H44	0.006200	0.558600	0.145600
H451	H45	0.021800	0.963800	0.137200
H461	H46	0.043500	0.821600	0.072800
H471	H47	0.117100	0.986800	0.068100
H481	H48	0.535900	0.839000	0.139500
H491	H49	0.496200	0.822400	0.211000
H501	H50	0.374200	0.712500	0.191400
H511	H51	0.777500	0.858200	0.134000
H521	H52	0.890800	0.856300	0.201600
H531	H53	0.008200	0.767300	0.174800
H541	H54	0.313100	0.855200	0.053900
H551	H55	0.339100	0.860400	0.011800
H561	H56	0.537800	0.631600	0.016600
H571	H57	0.515000	0.624700	0.060100
H581	H58	0.044200	0.439600	0.602300
H591	H59	0.202000	0.186200	0.588500
H601	H60	0.271200	0.325000	0.563300
H611	H61	0.815200	0.221600	0.620600
H621	H62	0.820100	0.484600	0.652500
H631	H63	0.993800	0.441400	0.645600
H641	H64	0.978200	0.036200	0.637200
H651	H65	0.956500	0.178400	0.572800
H661	H66	0.882900	0.013200	0.568100
H671	H67	0.464100	0.161000	0.639500
H681	H68	0.503800	0.177600	0.711000
H691	H69	0.625800	0.287500	0.691400
H701	H70	0.222500	0.141800	0.634000
H711	H71	0.109200	0.143700	0.701600
H721	H72	0.991800	0.232700	0.674800
H731	H73	0.686900	0.144800	0.553900
H741	H74	0.660900	0.139600	0.511800
H751	H75	0.462200	0.368400	0.516600
H761	H76	0.485000	0.375300	0.560100
H771	H77	0.439600	0.044200	0.397700
H781	H78	0.186200	0.202000	0.411500
H791	H79	0.325000	0.271200	0.436700
H801	H80	0.221600	0.815200	0.379400
H811	H81	0.484600	0.820100	0.347500
H821	H82	0.441400	0.993800	0.354400
H831	H83	0.036200	0.978200	0.362800
H841	H84	0.178400	0.956500	0.427200
H851	H85	0.013200	0.882900	0.431900
H861	H86	0.161000	0.464100	0.360500
H871	H87	0.177600	0.503800	0.289000
H881	H88	0.287500	0.625800	0.308600
H891	H89	0.141800	0.222500	0.366000
H901	H90	0.143700	0.109200	0.298400
H911	H91	0.232700	0.991800	0.325200
H921	H92	0.144800	0.686900	0.446100
H931	H93	0.139600	0.660900	0.488200
H941	H94	0.368400	0.462200	0.483400
H951	H95	0.375300	0.485000	0.439900
H961	H96	0.560400	0.955800	0.897700
H971	H97	0.813800	0.798000	0.911500
H981	H98	0.675000	0.728800	0.936700
H991	H99	0.778400	0.184800	0.879400
H1001	H100	0.515400	0.179900	0.847500
H1011	H101	0.558600	0.006200	0.854400
H1021	H102	0.963800	0.021800	0.862800
H1031	H103	0.821600	0.043500	0.927200
H1041	H104	0.986800	0.117100	0.931900
H1051	H105	0.839000	0.535900	0.860500
H1061	H106	0.822400	0.496200	0.789000
H1071	H107	0.712500	0.374200	0.808600
H1081	H108	0.858200	0.777500	0.866000
H1091	H109	0.856300	0.890800	0.798400
H1101	H110	0.767300	0.008200	0.825200
H1111	H111	0.855200	0.313100	0.946100
H1121	H112	0.860400	0.339100	0.988200
H1131	H113	0.631600	0.537800	0.983400
H1141	H114	0.624700	0.515000	0.939900
H1151	H115	0.544200	0.060400	0.147700
H1161	H116	0.702000	0.313800	0.161500
H1171	H117	0.771200	0.175000	0.186700
H1181	H118	0.315200	0.278400	0.129400
H1191	H119	0.320100	0.015400	0.097500
H1201	H120	0.493800	0.058600	0.104400
H1211	H121	0.478200	0.463800	0.112800
H1221	H122	0.456500	0.321600	0.177200
H1231	H123	0.382900	0.486800	0.181900
H1241	H124	0.964100	0.339000	0.110500
H1251	H125	0.003800	0.322400	0.039000
H1261	H126	0.125800	0.212500	0.058600
H1271	H127	0.722500	0.358200	0.116000
H1281	H128	0.609200	0.356300	0.048400
H1291	H129	0.491800	0.267300	0.075200
H1301	H130	0.186900	0.355200	0.196100
H1311	H131	0.160900	0.360400	0.238200
H1321	H132	0.962200	0.131600	0.233400
H1331	H133	0.985000	0.124700	0.189900
H1341	H134	0.455800	0.939600	0.647700
H1351	H135	0.298000	0.686200	0.661500
H1361	H136	0.228800	0.825000	0.686700
H1371	H137	0.684800	0.721600	0.629400
H1381	H138	0.679900	0.984600	0.597500
H1391	H139	0.506200	0.941400	0.604400
H1401	H140	0.521800	0.536200	0.612800
H1411	H141	0.543500	0.678400	0.677200
H1421	H142	0.617100	0.513200	0.681900
H1431	H143	0.035900	0.661000	0.610500
H1441	H144	0.996200	0.677600	0.539000
H1451	H145	0.874200	0.787500	0.558600
H1461	H146	0.277500	0.641800	0.616000
H1471	H147	0.390800	0.643700	0.548400
H1481	H148	0.508200	0.732700	0.575200
H1491	H149	0.813100	0.644800	0.696100
H1501	H150	0.839100	0.639600	0.738200
H1511	H151	0.037800	0.868400	0.733400
H1521	H152	0.015000	0.875300	0.689900
C11	C1	0.106600	0.591000	0.845600
C21	C2	0.246400	0.679000	0.838200
C31	C3	0.169900	0.715900	0.824100
C41	C4	0.218000	0.339400	0.877600
C51	C5	0.075400	0.342400	0.894900
C61	C6	0.098400	0.437500	0.891200
C71	C7	0.449800	0.464900	0.870600
C81	C8	0.371300	0.453000	0.835100
C91	C9	0.461400	0.412100	0.832600
C101	C10	0.321200	0.988500	0.905200
C111	C11	0.312600	0.010000	0.944000
C121	C12	0.251800	0.077000	0.933200
C131	C13	0.344600	0.679600	0.897400
C141	C14	0.344300	0.617800	0.934700
C151	C15	0.296000	0.553700	0.919800
C161	C16	0.230200	0.110900	0.838700
C171	C17	0.237100	0.093500	0.811200
C181	C18	0.309000	0.141900	0.796600
C191	C19	0.313700	0.124700	0.771500
C201	C20	0.249100	0.053300	0.760400
C211	C21	0.177900	0.006200	0.774300
C221	C22	0.171200	0.021600	0.800500
C231	C23	0.256600	0.031100	0.732700
C241	C24	0.893400	0.409000	0.345600
C251	C25	0.753600	0.321000	0.338200
C261	C26	0.830100	0.284100	0.324100
C271	C27	0.782000	0.660600	0.377600
C281	C28	0.924600	0.657600	0.394900
C291	C29	0.901600	0.562500	0.391200
C301	C30	0.550200	0.535100	0.370600
C311	C31	0.628700	0.547000	0.335100
C321	C32	0.538600	0.587900	0.332600
C331	C33	0.678800	0.011500	0.405200
C341	C34	0.687400	0.990000	0.444000
C351	C35	0.748200	0.923000	0.433200
C361	C36	0.655400	0.320400	0.397400
C371	C37	0.655700	0.382200	0.434700
C381	C38	0.704000	0.446300	0.419800
C391	C39	0.769800	0.889100	0.338700
C401	C40	0.762900	0.906500	0.311200
C411	C41	0.691000	0.858100	0.296600
C421	C42	0.686300	0.875300	0.271500
C431	C43	0.750900	0.946700	0.260400
C441	C44	0.822100	0.993800	0.274300
C451	C45	0.828800	0.978400	0.300500
C461	C46	0.743400	0.968900	0.232700
C471	C47	0.909000	0.606600	0.095600
C481	C48	0.821000	0.746400	0.088200
C491	C49	0.784100	0.669900	0.074100
C501	C50	0.160600	0.718000	0.127600
C511	C51	0.157600	0.575400	0.144900
C521	C52	0.062500	0.598400	0.141200
C531	C53	0.035100	0.949800	0.120600
C541	C54	0.047000	0.871300	0.085100
C551	C55	0.087900	0.961400	0.082600
C561	C56	0.511500	0.821200	0.155200
C571	C57	0.490000	0.812600	0.194000
C581	C58	0.423000	0.751800	0.183200
C591	C59	0.820400	0.844600	0.147400
C601	C60	0.882200	0.844300	0.184700
C611	C61	0.946300	0.796000	0.169800
C621	C62	0.389100	0.730200	0.088700
C631	C63	0.406500	0.737100	0.061200
C641	C64	0.358100	0.809000	0.046600
C651	C65	0.375300	0.813700	0.021500
C661	C66	0.446700	0.749100	0.010400
C671	C67	0.493800	0.677900	0.024300
C681	C68	0.478400	0.671200	0.050500
C691	C69	0.468900	0.756600	0.982700
C701	C70	0.091000	0.393400	0.595600
C711	C71	0.179000	0.253600	0.588200
C721	C72	0.215900	0.330100	0.574100
C731	C73	0.839400	0.282000	0.627600
C741	C74	0.842400	0.424600	0.644900
C751	C75	0.937500	0.401600	0.641200
C761	C76	0.964900	0.050200	0.620600
C771	C77	0.953000	0.128700	0.585100
C781	C78	0.912100	0.038600	0.582600
C791	C79	0.488500	0.178800	0.655200
C801	C80	0.510000	0.187400	0.694000
C811	C81	0.577000	0.248200	0.683200
C821	C82	0.179600	0.155400	0.647400
C831	C83	0.117800	0.155700	0.684700
C841	C84	0.053700	0.204000	0.669800
C851	C85	0.610900	0.269800	0.588700
C861	C86	0.593500	0.262900	0.561200
C871	C87	0.641900	0.191000	0.546600
C881	C88	0.624700	0.186300	0.521500
C891	C89	0.553300	0.250900	0.510400
C901	C90	0.506200	0.322100	0.524300
C911	C91	0.521600	0.328800	0.550500
C921	C92	0.531100	0.243400	0.482700
C931	C93	0.393400	0.091000	0.404400
C941	C94	0.253600	0.179000	0.411800
C951	C95	0.330100	0.215900	0.425900
C961	C96	0.282000	0.839400	0.372400
C971	C97	0.424600	0.842400	0.355100
C981	C98	0.401600	0.937500	0.358800
C991	C99	0.050200	0.964900	0.379400
C1001	C100	0.128700	0.953000	0.414900
C1011	C101	0.038600	0.912100	0.417400
C1021	C102	0.178800	0.488500	0.344800
C1031	C103	0.187400	0.510000	0.306000
C1041	C104	0.248200	0.577000	0.316800
C1051	C105	0.155400	0.179600	0.352600
C1061	C106	0.155700	0.117800	0.315300
C1071	C107	0.204000	0.053700	0.330200
C1081	C108	0.269800	0.610900	0.411300
C1091	C109	0.262900	0.593500	0.438800
C1101	C110	0.191000	0.641900	0.453400
C1111	C111	0.186300	0.624700	0.478500
C1121	C112	0.250900	0.553300	0.489600
C1131	C113	0.322100	0.506200	0.475700
C1141	C114	0.328800	0.521600	0.449500
C1151	C115	0.243400	0.531100	0.517300
C1161	C116	0.606600	0.909000	0.904400
C1171	C117	0.746400	0.821000	0.911800
C1181	C118	0.669900	0.784100	0.925900
C1191	C119	0.718000	0.160600	0.872400
C1201	C120	0.575400	0.157600	0.855100
C1211	C121	0.598400	0.062500	0.858800
C1221	C122	0.949800	0.035100	0.879400
C1231	C123	0.871300	0.047000	0.914900
C1241	C124	0.961400	0.087900	0.917400
C1251	C125	0.821200	0.511500	0.844800
C1261	C126	0.812600	0.490000	0.806000
C1271	C127	0.751800	0.423000	0.816800
C1281	C128	0.844600	0.820400	0.852600
C1291	C129	0.844300	0.882200	0.815300
C1301	C130	0.796000	0.946300	0.830200
C1311	C131	0.730200	0.389100	0.911300
C1321	C132	0.737100	0.406500	0.938800
C1331	C133	0.809000	0.358100	0.953400
C1341	C134	0.813700	0.375300	0.978500
C1351	C135	0.749100	0.446700	0.989600
C1361	C136	0.677900	0.493800	0.975700
C1371	C137	0.671200	0.478400	0.949500
C1381	C138	0.756600	0.468900	0.017300
C1391	C139	0.591000	0.106600	0.154400
C1401	C140	0.679000	0.246400	0.161800
C1411	C141	0.715900	0.169900	0.175900
C1421	C142	0.339400	0.218000	0.122400
C1431	C143	0.342400	0.075400	0.105100
C1441	C144	0.437500	0.098400	0.108800
C1451	C145	0.464900	0.449800	0.129400
C1461	C146	0.453000	0.371300	0.164900
C1471	C147	0.412100	0.461400	0.167400
C1481	C148	0.988500	0.321200	0.094800
C1491	C149	0.010000	0.312600	0.056000
C1501	C150	0.077000	0.251800	0.066800
C1511	C151	0.679600	0.344600	0.102600
C1521	C152	0.617800	0.344300	0.065300
C1531	C153	0.553700	0.296000	0.080200
C1541	C154	0.110900	0.230200	0.161300
C1551	C155	0.093500	0.237100	0.188800
C1561	C156	0.141900	0.309000	0.203400
C1571	C157	0.124700	0.313700	0.228500
C1581	C158	0.053300	0.249100	0.239600
C1591	C159	0.006200	0.177900	0.225700
C1601	C160	0.021600	0.171200	0.199500
C1611	C161	0.031100	0.256600	0.267300
C1621	C162	0.409000	0.893400	0.654400
C1631	C163	0.321000	0.753600	0.661800
C1641	C164	0.284100	0.830100	0.675900
C1651	C165	0.660600	0.782000	0.622400
C1661	C166	0.657600	0.924600	0.605100
C1671	C167	0.562500	0.901600	0.608800
C1681	C168	0.535100	0.550200	0.629400
C1691	C169	0.547000	0.628700	0.664900
C1701	C170	0.587900	0.538600	0.667400
C1711	C171	0.011500	0.678800	0.594800
C1721	C172	0.990000	0.687400	0.556000
C1731	C173	0.923000	0.748200	0.566800
C1741	C174	0.320400	0.655400	0.602600
C1751	C175	0.382200	0.655700	0.565300
C1761	C176	0.446300	0.704000	0.580200
C1771	C177	0.889100	0.769800	0.661300
C1781	C178	0.906500	0.762900	0.688800
C1791	C179	0.858100	0.691000	0.703400
C1801	C180	0.875300	0.686300	0.728500
C1811	C181	0.946700	0.750900	0.739600
C1821	C182	0.993800	0.822100	0.725700
C1831	C183	0.978400	0.828800	0.699500
C1841	C184	0.968900	0.743400	0.767300
N11	N1	0.204300	0.598500	0.852180
N21	N2	0.083600	0.659900	0.828170
N31	N3	0.194000	0.440300	0.879640
N41	N4	0.147100	0.281200	0.886500
N51	N5	0.360700	0.490500	0.859190
N61	N6	0.514500	0.418900	0.855330
N71	N7	0.359700	0.950300	0.926080
N81	N8	0.255600	0.063800	0.908490
N91	N9	0.294100	0.591100	0.895550
N101	N10	0.373000	0.699200	0.920450
N111	N11	0.795700	0.401500	0.352180
N121	N12	0.916400	0.340100	0.328170
N131	N13	0.806000	0.559700	0.379640
N141	N14	0.852900	0.718800	0.386500
N151	N15	0.639300	0.509500	0.359190
N161	N16	0.485500	0.581100	0.355330
N171	N17	0.640300	0.049700	0.426080
N181	N18	0.744400	0.936200	0.408490
N191	N19	0.705900	0.408900	0.395550
N201	N20	0.627000	0.300800	0.420450
N211	N21	0.901500	0.704300	0.102180
N221	N22	0.840100	0.583600	0.078170
N231	N23	0.059700	0.694000	0.129640
N241	N24	0.218800	0.647100	0.136500
N251	N25	0.009500	0.860700	0.109190
N261	N26	0.081100	0.014500	0.105330
N271	N27	0.549700	0.859700	0.176080
N281	N28	0.436200	0.755600	0.158490
N291	N29	0.908900	0.794100	0.145550
N301	N30	0.800800	0.873000	0.170450
N311	N31	0.098500	0.295700	0.602180
N321	N32	0.159900	0.416400	0.578170
N331	N33	0.940300	0.306000	0.629640
N341	N34	0.781200	0.352900	0.636500
N351	N35	0.990500	0.139300	0.609190
N361	N36	0.918900	0.985500	0.605330
N371	N37	0.450300	0.140300	0.676080
N381	N38	0.563800	0.244400	0.658490
N391	N39	0.091100	0.205900	0.645550
N401	N40	0.199200	0.127000	0.670450
N411	N41	0.295700	0.098500	0.397820
N421	N42	0.416400	0.159900	0.421830
N431	N43	0.306000	0.940300	0.370360
N441	N44	0.352900	0.781200	0.363500
N451	N45	0.139300	0.990500	0.390810
N461	N46	0.985500	0.918900	0.394670
N471	N47	0.140300	0.450300	0.323920
N481	N48	0.244400	0.563800	0.341510
N491	N49	0.205900	0.091100	0.354450
N501	N50	0.127000	0.199200	0.329550
N511	N51	0.704300	0.901500	0.897820
N521	N52	0.583600	0.840100	0.921830
N531	N53	0.694000	0.059700	0.870360
N541	N54	0.647100	0.218800	0.863500
N551	N55	0.860700	0.009500	0.890810
N561	N56	0.014500	0.081100	0.894670
N571	N57	0.859700	0.549700	0.823920
N581	N58	0.755600	0.436200	0.841510
N591	N59	0.794100	0.908900	0.854450
N601	N60	0.873000	0.800800	0.829550
N611	N61	0.598500	0.204300	0.147820
N621	N62	0.659900	0.083600	0.171830
N631	N63	0.440300	0.194000	0.120360
N641	N64	0.281200	0.147100	0.113500
N651	N65	0.490500	0.360700	0.140810
N661	N66	0.418900	0.514500	0.144670
N671	N67	0.950300	0.359700	0.073920
N681	N68	0.063800	0.255600	0.091510
N691	N69	0.591100	0.294100	0.104450
N701	N70	0.699200	0.373000	0.079550
N711	N71	0.401500	0.795700	0.647820
N721	N72	0.340100	0.916400	0.671830
N731	N73	0.559700	0.806000	0.620360
N741	N74	0.718800	0.852900	0.613500
N751	N75	0.509500	0.639300	0.640810
N761	N76	0.581100	0.485500	0.644670
N771	N77	0.049700	0.640300	0.573920
N781	N78	0.936200	0.744400	0.591510
N791	N79	0.408900	0.705900	0.604450
N801	N80	0.300800	0.627000	0.579550
O11	O1	0.324000	0.082200	0.720310
O21	O2	0.200300	0.970300	0.722970
O31	O3	0.152600	0.073900	0.850110
O41	O4	0.302500	0.159600	0.849440
O51	O5	0.676000	0.917800	0.220310
O61	O6	0.799700	0.029700	0.222970
O71	O7	0.847400	0.926100	0.350110
O81	O8	0.697500	0.840400	0.349440
O91	O9	0.417800	0.824000	0.970310
O101	O10	0.529700	0.700300	0.972970
O111	O11	0.426100	0.652600	0.100110
O121	O12	0.340400	0.802500	0.099440
O131	O13	0.582200	0.176000	0.470310
O141	O14	0.470300	0.299700	0.472970
O151	O15	0.573900	0.347400	0.600110
O161	O16	0.659600	0.197500	0.599440
O171	O17	0.176000	0.582200	0.529690
O181	O18	0.299700	0.470300	0.527030
O191	O19	0.347400	0.573900	0.399890
O201	O20	0.197500	0.659600	0.400560
O211	O21	0.824000	0.417800	0.029690
O221	O22	0.700300	0.529700	0.027030
O231	O23	0.652600	0.426100	0.899890
O241	O24	0.802500	0.340400	0.900560
O251	O25	0.082200	0.324000	0.279690
O261	O26	0.970300	0.200300	0.277030
O271	O27	0.073900	0.152600	0.149890
O281	O28	0.159600	0.302500	0.150560
O291	O29	0.917800	0.676000	0.779690
O301	O30	0.029700	0.799700	0.777030
O311	O31	0.926100	0.847400	0.649890
O321	O32	0.840400	0.697500	0.650560
