data_HABZEQ_clean_PM
_symmetry_space_group_name_H-M	'P1'
_cell_length_a	7.179500
_cell_length_b	11.484000
_cell_length_c	14.794000
_cell_angle_alpha	93.960000
_cell_angle_beta	90.000000
_cell_angle_gamma	90.000000
_symmetry_Int_Tables_number 1

loop_
_symmetry_equiv_pos_as_xyz
'x,y,z'

loop_
_atom_site_label
_atom_site_type_symbol
_atom_site_fract_x
_atom_site_fract_y
_atom_site_fract_z
Co11	Co1	0.424770	0.244060	0.857670
Co21	Co2	0.826360	0.822220	0.343140
Co31	Co3	0.590010	0.605760	0.198180
Co41	Co4	0.924770	0.755940	0.142330
Co51	Co5	0.326360	0.177780	0.656860
Co61	Co6	0.090010	0.394240	0.801820
H11	H1	0.565900	0.899000	0.933800
H21	H2	0.325900	0.793500	0.697500
H31	H3	0.341600	0.601300	0.736900
H41	H4	0.653800	0.350200	0.407300
H51	H5	0.706800	0.643700	0.567500
H61	H6	0.717500	0.534800	0.692600
H71	H7	0.065900	0.101000	0.066200
H81	H8	0.825900	0.206500	0.302500
H91	H9	0.841600	0.398700	0.263100
H101	H10	0.153800	0.649800	0.592700
H111	H11	0.206800	0.356300	0.432500
H121	H12	0.217500	0.465200	0.307400
C11	C1	0.465700	0.633900	0.859700
C21	C2	0.534900	0.725100	0.918400
C31	C3	0.520800	0.838800	0.894500
C41	C4	0.440200	0.865600	0.812300
C51	C5	0.376200	0.776700	0.753000
C61	C6	0.387000	0.661000	0.776600
C71	C7	0.493800	0.508800	0.882500
C81	C8	0.620500	0.707900	0.010800
C91	C9	0.422900	0.991500	0.790400
C101	C10	0.685000	0.375800	0.625800
C111	C11	0.662600	0.320500	0.540200
C121	C12	0.662800	0.387300	0.465000
C131	C13	0.676400	0.508000	0.474700
C141	C14	0.696800	0.562900	0.560300
C151	C15	0.702200	0.497600	0.635200
C161	C16	0.688900	0.316800	0.714000
C171	C17	0.645500	0.188600	0.520500
C181	C18	0.679500	0.581600	0.394500
C191	C19	0.965700	0.366100	0.140300
C201	C20	0.034900	0.274900	0.081600
C211	C21	0.020800	0.161200	0.105500
C221	C22	0.940200	0.134400	0.187700
C231	C23	0.876200	0.223300	0.247000
C241	C24	0.887000	0.339000	0.223400
C251	C25	0.993800	0.491200	0.117500
C261	C26	0.120500	0.292100	0.989200
C271	C27	0.922900	0.008500	0.209600
C281	C28	0.185000	0.624200	0.374200
C291	C29	0.162600	0.679500	0.459800
C301	C30	0.162800	0.612700	0.535000
C311	C31	0.176400	0.492000	0.525300
C321	C32	0.196800	0.437100	0.439700
C331	C33	0.202200	0.502400	0.364800
C341	C34	0.188900	0.683200	0.286000
C351	C35	0.145500	0.811400	0.479500
C361	C36	0.179500	0.418400	0.605500
O11	O1	0.727700	0.685300	0.409500
O21	O2	0.633200	0.532300	0.318020
O31	O3	0.760800	0.141900	0.466000
O41	O4	0.516500	0.132600	0.555600
O51	O5	0.558200	0.246800	0.730680
O61	O6	0.814100	0.342800	0.770500
O71	O7	0.439700	0.065100	0.857900
O81	O8	0.396100	0.013700	0.710390
O91	O9	0.522400	0.663800	0.068700
O101	O10	0.783100	0.747100	0.021840
O111	O11	0.632000	0.487500	0.929900
O121	O12	0.381000	0.430200	0.849670
O131	O13	0.191900	0.230900	0.773730
O141	O14	0.227700	0.314700	0.590500
O151	O15	0.133200	0.467700	0.681980
O161	O16	0.260800	0.858100	0.534000
O171	O17	0.016500	0.867400	0.444400
O181	O18	0.058200	0.753200	0.269320
O191	O19	0.314100	0.657200	0.229500
O201	O20	0.939700	0.934900	0.142100
O211	O21	0.896100	0.986300	0.289610
O221	O22	0.022400	0.336200	0.931300
O231	O23	0.283100	0.252900	0.978160
O241	O24	0.132000	0.512500	0.070100
O251	O25	0.881000	0.569800	0.150330
O261	O26	0.691900	0.769100	0.226270
