data_HADDOI_clean_PM
_symmetry_space_group_name_H-M	'P1'
_cell_length_a	20.896000
_cell_length_b	7.387200
_cell_length_c	31.834000
_cell_angle_alpha	90.000000
_cell_angle_beta	124.636000
_cell_angle_gamma	90.000000
_symmetry_Int_Tables_number 1

loop_
_symmetry_equiv_pos_as_xyz
'x,y,z'

loop_
_atom_site_label
_atom_site_type_symbol
_atom_site_fract_x
_atom_site_fract_y
_atom_site_fract_z
Zn11	Zn1	0.674470	0.446510	0.656020
Zn21	Zn2	0.677860	0.811210	0.590500
F11	F1	0.007100	0.307900	0.541300
F21	F2	0.073400	0.385800	0.620100
F31	F3	0.111700	0.166600	0.595300
F41	F4	0.904600	0.042000	0.512530
F51	F5	0.933700	0.831500	0.566820
F61	F6	0.011900	0.895800	0.545560
F71	F7	0.630000	0.397500	0.811500
F81	F8	0.551800	0.587900	0.809410
F91	F9	0.631400	0.445000	0.878200
F101	F10	0.770300	0.517300	0.842300
F111	F11	0.822300	0.713900	0.902360
F121	F12	0.781500	0.462300	0.912600
O11	O1	0.736900	0.590300	0.593400
O21	O2	0.726100	0.333600	0.626000
O31	O3	0.259100	0.644000	0.801000
O41	O4	0.254100	0.892300	0.839000
O51	O5	0.572500	0.108900	0.980940
O61	O6	0.697600	0.067900	0.044410
O71	O7	0.585600	0.113500	0.646800
O81	O8	0.679000	0.289300	0.706100
N11	N1	0.573800	0.548300	0.596400
N21	N2	0.577900	0.695700	0.574000
N31	N3	0.507100	0.751800	0.536800
C11	C1	0.756000	0.430600	0.608700
C21	C2	0.818600	0.346400	0.605000
C31	C3	0.847700	0.177600	0.625200
H11	H1	0.827500	0.111900	0.640000
C41	C4	0.907300	0.106100	0.623200
H21	H2	0.926900	0.992200	0.637100
C51	C5	0.938300	0.200200	0.601100
C61	C6	0.907600	0.369500	0.580200
H31	H3	0.927000	0.434700	0.564800
C71	C7	0.848000	0.441700	0.582300
H41	H4	0.827900	0.555200	0.568300
C81	C8	0.004000	0.108500	0.599800
C91	C9	0.049300	0.243100	0.588500
C101	C10	0.964100	0.968500	0.555900
C111	C11	0.064800	0.020100	0.652200
C121	C12	0.094600	0.846700	0.657700
H51	H5	0.077100	0.776700	0.628800
C131	C13	0.149300	0.777000	0.705000
H61	H6	0.168600	0.660900	0.707800
C141	C14	0.175800	0.878300	0.748400
C151	C15	0.147600	0.050700	0.743500
H71	H7	0.165900	0.121400	0.772400
C161	C16	0.092300	0.119400	0.695900
H81	H8	0.073100	0.235400	0.693300
C171	C17	0.234100	0.799800	0.800100
C181	C18	0.498200	0.508600	0.572200
H91	H9	0.477600	0.411600	0.579500
C191	C19	0.456500	0.635100	0.534900
H101	H10	0.402600	0.639600	0.512400
C201	C20	0.641200	0.059400	0.997900
C211	C21	0.657000	0.978800	0.961600
C221	C22	0.601900	0.989100	0.909000
H111	H11	0.556700	0.055900	0.896100
C231	C23	0.724300	0.880100	0.980000
H121	H12	0.762800	0.877000	0.014900
C241	C24	0.734800	0.785500	0.946500
H131	H13	0.779400	0.716400	0.959400
C251	C25	0.679800	0.792900	0.894500
C261	C26	0.613800	0.902200	0.876100
H141	H14	0.577800	0.915400	0.841100
C271	C27	0.684000	0.680100	0.855400
C281	C28	0.624200	0.525400	0.838200
C291	C29	0.765500	0.592600	0.878700
C301	C30	0.669200	0.800000	0.810900
C311	C31	0.623100	0.747800	0.759900
H151	H15	0.599600	0.634400	0.751300
C321	C32	0.611800	0.862900	0.721700
H161	H16	0.579500	0.826800	0.687700
C331	C33	0.647700	0.030000	0.733300
C341	C34	0.695400	0.081200	0.784100
H171	H17	0.720900	0.192200	0.792700
C351	C35	0.705500	0.969300	0.822000
H181	H18	0.737100	0.007200	0.855800
C361	C36	0.635800	0.151500	0.692000
Zn31	Zn3	0.325530	0.446510	0.843980
Zn41	Zn4	0.322140	0.811210	0.909500
F131	F13	0.992900	0.307900	0.958700
F141	F14	0.926600	0.385800	0.879900
F151	F15	0.888300	0.166600	0.904700
F161	F16	0.095400	0.042000	0.987470
F171	F17	0.066300	0.831500	0.933180
F181	F18	0.988100	0.895800	0.954440
F191	F19	0.370000	0.397500	0.688500
F201	F20	0.448200	0.587900	0.690590
F211	F21	0.368600	0.445000	0.621800
F221	F22	0.229700	0.517300	0.657700
F231	F23	0.177700	0.713900	0.597640
F241	F24	0.218500	0.462300	0.587400
O91	O9	0.263100	0.590300	0.906600
O101	O10	0.273900	0.333600	0.874000
O111	O11	0.740900	0.644000	0.699000
O121	O12	0.745900	0.892300	0.661000
O131	O13	0.427500	0.108900	0.519060
O141	O14	0.302400	0.067900	0.455590
O151	O15	0.414400	0.113500	0.853200
O161	O16	0.321000	0.289300	0.793900
N41	N4	0.426200	0.548300	0.903600
N51	N5	0.422100	0.695700	0.926000
N61	N6	0.492900	0.751800	0.963200
C371	C37	0.244000	0.430600	0.891300
C381	C38	0.181400	0.346400	0.895000
C391	C39	0.152300	0.177600	0.874800
H191	H19	0.172500	0.111900	0.860000
C401	C40	0.092700	0.106100	0.876800
H201	H20	0.073100	0.992200	0.862900
C411	C41	0.061700	0.200200	0.898900
C421	C42	0.092400	0.369500	0.919800
H211	H21	0.073000	0.434700	0.935200
C431	C43	0.152000	0.441700	0.917700
H221	H22	0.172100	0.555200	0.931700
C441	C44	0.996000	0.108500	0.900200
C451	C45	0.950700	0.243100	0.911500
C461	C46	0.035900	0.968500	0.944100
C471	C47	0.935200	0.020100	0.847800
C481	C48	0.905400	0.846700	0.842300
H231	H23	0.922900	0.776700	0.871200
C491	C49	0.850700	0.777000	0.795000
H241	H24	0.831400	0.660900	0.792200
C501	C50	0.824200	0.878300	0.751600
C511	C51	0.852400	0.050700	0.756500
H251	H25	0.834100	0.121400	0.727600
C521	C52	0.907700	0.119400	0.804100
H261	H26	0.926900	0.235400	0.806700
C531	C53	0.765900	0.799800	0.699900
C541	C54	0.501800	0.508600	0.927800
H271	H27	0.522400	0.411600	0.920500
C551	C55	0.543500	0.635100	0.965100
H281	H28	0.597400	0.639600	0.987600
C561	C56	0.358800	0.059400	0.502100
C571	C57	0.343000	0.978800	0.538400
C581	C58	0.398100	0.989100	0.591000
H291	H29	0.443300	0.055900	0.603900
C591	C59	0.275700	0.880100	0.520000
H301	H30	0.237200	0.877000	0.485100
C601	C60	0.265200	0.785500	0.553500
H311	H31	0.220600	0.716400	0.540600
C611	C61	0.320200	0.792900	0.605500
C621	C62	0.386200	0.902200	0.623900
H321	H32	0.422200	0.915400	0.658900
C631	C63	0.316000	0.680100	0.644600
C641	C64	0.375800	0.525400	0.661800
C651	C65	0.234500	0.592600	0.621300
C661	C66	0.330800	0.800000	0.689100
C671	C67	0.376900	0.747800	0.740100
H331	H33	0.400400	0.634400	0.748700
C681	C68	0.388200	0.862900	0.778300
H341	H34	0.420500	0.826800	0.812300
C691	C69	0.352300	0.030000	0.766700
C701	C70	0.304600	0.081200	0.715900
H351	H35	0.279100	0.192200	0.707300
C711	C71	0.294500	0.969300	0.678000
H361	H36	0.262900	0.007200	0.644200
C721	C72	0.364200	0.151500	0.808000
Zn51	Zn5	0.325530	0.553490	0.343980
Zn61	Zn6	0.322140	0.188790	0.409500
F251	F25	0.992900	0.692100	0.458700
F261	F26	0.926600	0.614200	0.379900
F271	F27	0.888300	0.833400	0.404700
F281	F28	0.095400	0.958000	0.487470
F291	F29	0.066300	0.168500	0.433180
F301	F30	0.988100	0.104200	0.454440
F311	F31	0.370000	0.602500	0.188500
F321	F32	0.448200	0.412100	0.190590
F331	F33	0.368600	0.555000	0.121800
F341	F34	0.229700	0.482700	0.157700
F351	F35	0.177700	0.286100	0.097640
F361	F36	0.218500	0.537700	0.087400
O171	O17	0.263100	0.409700	0.406600
O181	O18	0.273900	0.666400	0.374000
O191	O19	0.740900	0.356000	0.199000
O201	O20	0.745900	0.107700	0.161000
O211	O21	0.427500	0.891100	0.019060
O221	O22	0.302400	0.932100	0.955590
O231	O23	0.414400	0.886500	0.353200
O241	O24	0.321000	0.710700	0.293900
N71	N7	0.426200	0.451700	0.403600
N81	N8	0.422100	0.304300	0.426000
N91	N9	0.492900	0.248200	0.463200
C731	C73	0.244000	0.569400	0.391300
C741	C74	0.181400	0.653600	0.395000
C751	C75	0.152300	0.822400	0.374800
H371	H37	0.172500	0.888100	0.360000
C761	C76	0.092700	0.893900	0.376800
H381	H38	0.073100	0.007800	0.362900
C771	C77	0.061700	0.799800	0.398900
C781	C78	0.092400	0.630500	0.419800
H391	H39	0.073000	0.565300	0.435200
C791	C79	0.152000	0.558300	0.417700
H401	H40	0.172100	0.444800	0.431700
C801	C80	0.996000	0.891500	0.400200
C811	C81	0.950700	0.756900	0.411500
C821	C82	0.035900	0.031500	0.444100
C831	C83	0.935200	0.979900	0.347800
C841	C84	0.905400	0.153300	0.342300
H411	H41	0.922900	0.223300	0.371200
C851	C85	0.850700	0.223000	0.295000
H421	H42	0.831400	0.339100	0.292200
C861	C86	0.824200	0.121700	0.251600
C871	C87	0.852400	0.949300	0.256500
H431	H43	0.834100	0.878600	0.227600
C881	C88	0.907700	0.880600	0.304100
H441	H44	0.926900	0.764600	0.306700
C891	C89	0.765900	0.200200	0.199900
C901	C90	0.501800	0.491400	0.427800
H451	H45	0.522400	0.588400	0.420500
C911	C91	0.543500	0.364900	0.465100
H461	H46	0.597400	0.360400	0.487600
C921	C92	0.358800	0.940600	0.002100
C931	C93	0.343000	0.021200	0.038400
C941	C94	0.398100	0.010900	0.091000
H471	H47	0.443300	0.944100	0.103900
C951	C95	0.275700	0.119900	0.020000
H481	H48	0.237200	0.123000	0.985100
C961	C96	0.265200	0.214500	0.053500
H491	H49	0.220600	0.283600	0.040600
C971	C97	0.320200	0.207100	0.105500
C981	C98	0.386200	0.097800	0.123900
H501	H50	0.422200	0.084600	0.158900
C991	C99	0.316000	0.319900	0.144600
C1001	C100	0.375800	0.474600	0.161800
C1011	C101	0.234500	0.407400	0.121300
C1021	C102	0.330800	0.200000	0.189100
C1031	C103	0.376900	0.252200	0.240100
H511	H51	0.400400	0.365600	0.248700
C1041	C104	0.388200	0.137100	0.278300
H521	H52	0.420500	0.173200	0.312300
C1051	C105	0.352300	0.970000	0.266700
C1061	C106	0.304600	0.918800	0.215900
H531	H53	0.279100	0.807800	0.207300
C1071	C107	0.294500	0.030700	0.178000
H541	H54	0.262900	0.992800	0.144200
C1081	C108	0.364200	0.848500	0.308000
Zn71	Zn7	0.674470	0.553490	0.156020
Zn81	Zn8	0.677860	0.188790	0.090500
F371	F37	0.007100	0.692100	0.041300
F381	F38	0.073400	0.614200	0.120100
F391	F39	0.111700	0.833400	0.095300
F401	F40	0.904600	0.958000	0.012530
F411	F41	0.933700	0.168500	0.066820
F421	F42	0.011900	0.104200	0.045560
F431	F43	0.630000	0.602500	0.311500
F441	F44	0.551800	0.412100	0.309410
F451	F45	0.631400	0.555000	0.378200
F461	F46	0.770300	0.482700	0.342300
F471	F47	0.822300	0.286100	0.402360
F481	F48	0.781500	0.537700	0.412600
O251	O25	0.736900	0.409700	0.093400
O261	O26	0.726100	0.666400	0.126000
O271	O27	0.259100	0.356000	0.301000
O281	O28	0.254100	0.107700	0.339000
O291	O29	0.572500	0.891100	0.480940
O301	O30	0.697600	0.932100	0.544410
O311	O31	0.585600	0.886500	0.146800
O321	O32	0.679000	0.710700	0.206100
N101	N10	0.573800	0.451700	0.096400
N111	N11	0.577900	0.304300	0.074000
N121	N12	0.507100	0.248200	0.036800
C1091	C109	0.756000	0.569400	0.108700
C1101	C110	0.818600	0.653600	0.105000
C1111	C111	0.847700	0.822400	0.125200
H551	H55	0.827500	0.888100	0.140000
C1121	C112	0.907300	0.893900	0.123200
H561	H56	0.926900	0.007800	0.137100
C1131	C113	0.938300	0.799800	0.101100
C1141	C114	0.907600	0.630500	0.080200
H571	H57	0.927000	0.565300	0.064800
C1151	C115	0.848000	0.558300	0.082300
H581	H58	0.827900	0.444800	0.068300
C1161	C116	0.004000	0.891500	0.099800
C1171	C117	0.049300	0.756900	0.088500
C1181	C118	0.964100	0.031500	0.055900
C1191	C119	0.064800	0.979900	0.152200
C1201	C120	0.094600	0.153300	0.157700
H591	H59	0.077100	0.223300	0.128800
C1211	C121	0.149300	0.223000	0.205000
H601	H60	0.168600	0.339100	0.207800
C1221	C122	0.175800	0.121700	0.248400
C1231	C123	0.147600	0.949300	0.243500
H611	H61	0.165900	0.878600	0.272400
C1241	C124	0.092300	0.880600	0.195900
H621	H62	0.073100	0.764600	0.193300
C1251	C125	0.234100	0.200200	0.300100
C1261	C126	0.498200	0.491400	0.072200
H631	H63	0.477600	0.588400	0.079500
C1271	C127	0.456500	0.364900	0.034900
H641	H64	0.402600	0.360400	0.012400
C1281	C128	0.641200	0.940600	0.497900
C1291	C129	0.657000	0.021200	0.461600
C1301	C130	0.601900	0.010900	0.409000
H651	H65	0.556700	0.944100	0.396100
C1311	C131	0.724300	0.119900	0.480000
H661	H66	0.762800	0.123000	0.514900
C1321	C132	0.734800	0.214500	0.446500
H671	H67	0.779400	0.283600	0.459400
C1331	C133	0.679800	0.207100	0.394500
C1341	C134	0.613800	0.097800	0.376100
H681	H68	0.577800	0.084600	0.341100
C1351	C135	0.684000	0.319900	0.355400
C1361	C136	0.624200	0.474600	0.338200
C1371	C137	0.765500	0.407400	0.378700
C1381	C138	0.669200	0.200000	0.310900
C1391	C139	0.623100	0.252200	0.259900
H691	H69	0.599600	0.365600	0.251300
C1401	C140	0.611800	0.137100	0.221700
H701	H70	0.579500	0.173200	0.187700
C1411	C141	0.647700	0.970000	0.233300
C1421	C142	0.695400	0.918800	0.284100
H711	H71	0.720900	0.807800	0.292700
C1431	C143	0.705500	0.030700	0.322000
H721	H72	0.737100	0.992800	0.355800
C1441	C144	0.635800	0.848500	0.192000
Zn91	Zn9	0.500000	0.000000	0.500000
Zn101	Zn10	0.500000	0.000000	0.000000
