data_HADYAP_clean_PM
_symmetry_space_group_name_H-M	'P1'
_cell_length_a	8.296500
_cell_length_b	8.583300
_cell_length_c	9.876000
_cell_angle_alpha	96.564000
_cell_angle_beta	102.938000
_cell_angle_gamma	94.199000
_symmetry_Int_Tables_number 1

loop_
_symmetry_equiv_pos_as_xyz
'x,y,z'

loop_
_atom_site_label
_atom_site_type_symbol
_atom_site_fract_x
_atom_site_fract_y
_atom_site_fract_z
O11	O1	0.177200	0.695400	0.517700
O21	O2	0.313200	0.591200	0.368100
C11	C1	0.399400	0.856000	0.474500
C21	C2	0.288700	0.702800	0.451400
O31	O3	0.282800	0.778200	0.153600
O41	O4	0.173300	0.001600	0.191700
C31	C3	0.395900	0.950300	0.368000
C41	C4	0.275700	0.906500	0.226600
O51	O5	0.527900	0.667800	0.700400
C51	C5	0.502700	0.907700	0.607500
O61	O6	0.485600	0.875800	0.837500
C61	C6	0.504200	0.810200	0.726100
O71	O7	0.431400	0.621000	0.952500
U11	U1	0.420660	0.543450	0.165830
O81	O8	0.822800	0.304600	0.482300
O91	O9	0.686800	0.408800	0.631900
C71	C7	0.600600	0.144000	0.525500
C81	C8	0.711300	0.297200	0.548600
O101	O10	0.717200	0.221800	0.846400
O111	O11	0.826700	0.998400	0.808300
C91	C9	0.604100	0.049700	0.632000
C101	C10	0.724300	0.093500	0.773400
O121	O12	0.472100	0.332200	0.299600
C111	C11	0.497300	0.092300	0.392500
O131	O13	0.514400	0.124200	0.162500
C121	C12	0.495800	0.189800	0.273900
O141	O14	0.568600	0.379000	0.047500
U21	U2	0.579340	0.456550	0.834170
Co11	Co1	0.000000	0.500000	0.500000
Co21	Co2	0.000000	0.000000	0.000000
