data_HAFVOB_clean_PM
_symmetry_space_group_name_H-M	'P1'
_cell_length_a	9.505400
_cell_length_b	23.476000
_cell_length_c	27.629000
_cell_angle_alpha	90.000000
_cell_angle_beta	90.000000
_cell_angle_gamma	90.000000
_symmetry_Int_Tables_number 1

loop_
_symmetry_equiv_pos_as_xyz
'x,y,z'

loop_
_atom_site_label
_atom_site_type_symbol
_atom_site_fract_x
_atom_site_fract_y
_atom_site_fract_z
Ca11	Ca1	0.349280	0.701440	0.872080
Ca21	Ca2	0.650720	0.798560	0.872080
Ca31	Ca3	0.349280	0.298560	0.627920
Ca41	Ca4	0.650720	0.201440	0.627920
Ca51	Ca5	0.650720	0.298560	0.127920
Ca61	Ca6	0.349280	0.201440	0.127920
Ca71	Ca7	0.650720	0.701440	0.372080
Ca81	Ca8	0.349280	0.798560	0.372080
Ca91	Ca9	0.000000	0.750000	0.893300
Ca101	Ca10	0.000000	0.250000	0.606700
Ca111	Ca11	0.000000	0.250000	0.106700
Ca121	Ca12	0.000000	0.750000	0.393300
P11	P1	0.311600	0.083720	0.838900
P21	P2	0.688400	0.416280	0.838900
P31	P3	0.311600	0.916280	0.661100
P41	P4	0.688400	0.583720	0.661100
P51	P5	0.688400	0.916280	0.161100
P61	P6	0.311600	0.583720	0.161100
P71	P7	0.688400	0.083720	0.338900
P81	P8	0.311600	0.416280	0.338900
H11	H1	0.447900	0.993900	0.794000
H21	H2	0.453700	0.894300	0.799400
H31	H3	0.145300	0.899600	0.898500
H41	H4	0.149200	0.997400	0.897600
H51	H5	0.432900	0.129600	0.922500
H61	H6	0.359400	0.163500	0.997200
H71	H7	0.953400	0.133100	0.959500
H81	H8	0.031700	0.098800	0.885100
H91	H9	0.259000	0.177600	0.779200
H101	H10	0.090600	0.206800	0.723900
H111	H11	0.876600	0.060200	0.743800
H121	H12	0.054500	0.029200	0.798400
H131	H13	0.552100	0.506100	0.794000
H141	H14	0.546300	0.605700	0.799400
H151	H15	0.854700	0.600400	0.898500
H161	H16	0.850800	0.502600	0.897600
H171	H17	0.567100	0.370400	0.922500
H181	H18	0.640600	0.336500	0.997200
H191	H19	0.046600	0.366900	0.959500
H201	H20	0.968300	0.401200	0.885100
H211	H21	0.741000	0.322400	0.779200
H221	H22	0.909400	0.293200	0.723900
H231	H23	0.123400	0.439800	0.743800
H241	H24	0.945500	0.470800	0.798400
H251	H25	0.447900	0.006100	0.706000
H261	H26	0.453700	0.105700	0.700600
H271	H27	0.145300	0.100400	0.601500
H281	H28	0.149200	0.002600	0.602400
H291	H29	0.432900	0.870400	0.577500
H301	H30	0.359400	0.836500	0.502800
H311	H31	0.953400	0.866900	0.540500
H321	H32	0.031700	0.901200	0.614900
H331	H33	0.259000	0.822400	0.720800
H341	H34	0.090600	0.793200	0.776100
H351	H35	0.876600	0.939800	0.756200
H361	H36	0.054500	0.970800	0.701600
H371	H37	0.552100	0.493900	0.706000
H381	H38	0.546300	0.394300	0.700600
H391	H39	0.854700	0.399600	0.601500
H401	H40	0.850800	0.497400	0.602400
H411	H41	0.567100	0.629600	0.577500
H421	H42	0.640600	0.663500	0.502800
H431	H43	0.046600	0.633100	0.540500
H441	H44	0.968300	0.598800	0.614900
H451	H45	0.741000	0.677600	0.720800
H461	H46	0.909400	0.706800	0.776100
H471	H47	0.123400	0.560200	0.756200
H481	H48	0.945500	0.529200	0.701600
H491	H49	0.552100	0.006100	0.206000
H501	H50	0.546300	0.105700	0.200600
H511	H51	0.854700	0.100400	0.101500
H521	H52	0.850800	0.002600	0.102400
H531	H53	0.567100	0.870400	0.077500
H541	H54	0.640600	0.836500	0.002800
H551	H55	0.046600	0.866900	0.040500
H561	H56	0.968300	0.901200	0.114900
H571	H57	0.741000	0.822400	0.220800
H581	H58	0.909400	0.793200	0.276100
H591	H59	0.123400	0.939800	0.256200
H601	H60	0.945500	0.970800	0.201600
H611	H61	0.447900	0.493900	0.206000
H621	H62	0.453700	0.394300	0.200600
H631	H63	0.145300	0.399600	0.101500
H641	H64	0.149200	0.497400	0.102400
H651	H65	0.432900	0.629600	0.077500
H661	H66	0.359400	0.663500	0.002800
H671	H67	0.953400	0.633100	0.040500
H681	H68	0.031700	0.598800	0.114900
H691	H69	0.259000	0.677600	0.220800
H701	H70	0.090600	0.706800	0.276100
H711	H71	0.876600	0.560200	0.256200
H721	H72	0.054500	0.529200	0.201600
H731	H73	0.552100	0.993900	0.294000
H741	H74	0.546300	0.894300	0.299400
H751	H75	0.854700	0.899600	0.398500
H761	H76	0.850800	0.997400	0.397600
H771	H77	0.567100	0.129600	0.422500
H781	H78	0.640600	0.163500	0.497200
H791	H79	0.046600	0.133100	0.459500
H801	H80	0.968300	0.098800	0.385100
H811	H81	0.741000	0.177600	0.279200
H821	H82	0.909400	0.206800	0.223900
H831	H83	0.123400	0.060200	0.243800
H841	H84	0.945500	0.029200	0.298400
H851	H85	0.447900	0.506100	0.294000
H861	H86	0.453700	0.605700	0.299400
H871	H87	0.145300	0.600400	0.398500
H881	H88	0.149200	0.502600	0.397600
H891	H89	0.432900	0.370400	0.422500
H901	H90	0.359400	0.336500	0.497200
H911	H91	0.953400	0.366900	0.459500
H921	H92	0.031700	0.401200	0.385100
H931	H93	0.259000	0.322400	0.279200
H941	H94	0.090600	0.293200	0.223900
H951	H95	0.876600	0.439800	0.243800
H961	H96	0.054500	0.470800	0.298400
C11	C1	0.299100	0.006300	0.844580
C21	C2	0.387300	0.974900	0.816120
C31	C3	0.389900	0.915300	0.818890
C41	C4	0.299600	0.887300	0.850080
C51	C5	0.209700	0.918700	0.877800
C61	C6	0.209800	0.976700	0.876600
C71	C7	0.310800	0.824400	0.854900
C81	C8	0.238600	0.110000	0.896690
C91	C9	0.335400	0.130100	0.930100
C101	C10	0.291700	0.150900	0.974300
C111	C11	0.148000	0.153600	0.985710
C121	C12	0.051000	0.133000	0.952200
C131	C13	0.098500	0.112100	0.908100
C141	C14	0.099400	0.179500	0.031300
C151	C15	0.170900	0.100800	0.795340
C161	C16	0.181500	0.153400	0.772200
C171	C17	0.081300	0.170800	0.739350
C181	C18	0.968200	0.136700	0.728680
C191	C19	0.954900	0.083900	0.750700
C201	C20	0.060700	0.065900	0.784000
C211	C21	0.857600	0.157400	0.694590
C221	C22	0.700900	0.493700	0.844580
C231	C23	0.612700	0.525100	0.816120
C241	C24	0.610100	0.584700	0.818890
C251	C25	0.700400	0.612700	0.850080
C261	C26	0.790300	0.581300	0.877800
C271	C27	0.790200	0.523300	0.876600
C281	C28	0.689200	0.675600	0.854900
C291	C29	0.761400	0.390000	0.896690
C301	C30	0.664600	0.369900	0.930100
C311	C31	0.708300	0.349100	0.974300
C321	C32	0.852000	0.346400	0.985710
C331	C33	0.949000	0.367000	0.952200
C341	C34	0.901500	0.387900	0.908100
C351	C35	0.900600	0.320500	0.031300
C361	C36	0.829100	0.399200	0.795340
C371	C37	0.818500	0.346600	0.772200
C381	C38	0.918700	0.329200	0.739350
C391	C39	0.031800	0.363300	0.728680
C401	C40	0.045100	0.416100	0.750700
C411	C41	0.939300	0.434100	0.784000
C421	C42	0.142400	0.342600	0.694590
C431	C43	0.299100	0.993700	0.655420
C441	C44	0.387300	0.025100	0.683880
C451	C45	0.389900	0.084700	0.681110
C461	C46	0.299600	0.112700	0.649920
C471	C47	0.209700	0.081300	0.622200
C481	C48	0.209800	0.023300	0.623400
C491	C49	0.310800	0.175600	0.645100
C501	C50	0.238600	0.890000	0.603310
C511	C51	0.335400	0.869900	0.569900
C521	C52	0.291700	0.849100	0.525700
C531	C53	0.148000	0.846400	0.514290
C541	C54	0.051000	0.867000	0.547800
C551	C55	0.098500	0.887900	0.591900
C561	C56	0.099400	0.820500	0.468700
C571	C57	0.170900	0.899200	0.704660
C581	C58	0.181500	0.846600	0.727800
C591	C59	0.081300	0.829200	0.760650
C601	C60	0.968200	0.863300	0.771320
C611	C61	0.954900	0.916100	0.749300
C621	C62	0.060700	0.934100	0.716000
C631	C63	0.857600	0.842600	0.805410
C641	C64	0.700900	0.506300	0.655420
C651	C65	0.612700	0.474900	0.683880
C661	C66	0.610100	0.415300	0.681110
C671	C67	0.700400	0.387300	0.649920
C681	C68	0.790300	0.418700	0.622200
C691	C69	0.790200	0.476700	0.623400
C701	C70	0.689200	0.324400	0.645100
C711	C71	0.761400	0.610000	0.603310
C721	C72	0.664600	0.630100	0.569900
C731	C73	0.708300	0.650900	0.525700
C741	C74	0.852000	0.653600	0.514290
C751	C75	0.949000	0.633000	0.547800
C761	C76	0.901500	0.612100	0.591900
C771	C77	0.900600	0.679500	0.468700
C781	C78	0.829100	0.600800	0.704660
C791	C79	0.818500	0.653400	0.727800
C801	C80	0.918700	0.670800	0.760650
C811	C81	0.031800	0.636700	0.771320
C821	C82	0.045100	0.583900	0.749300
C831	C83	0.939300	0.565900	0.716000
C841	C84	0.142400	0.657400	0.805410
C851	C85	0.700900	0.993700	0.155420
C861	C86	0.612700	0.025100	0.183880
C871	C87	0.610100	0.084700	0.181110
C881	C88	0.700400	0.112700	0.149920
C891	C89	0.790300	0.081300	0.122200
C901	C90	0.790200	0.023300	0.123400
C911	C91	0.689200	0.175600	0.145100
C921	C92	0.761400	0.890000	0.103310
C931	C93	0.664600	0.869900	0.069900
C941	C94	0.708300	0.849100	0.025700
C951	C95	0.852000	0.846400	0.014290
C961	C96	0.949000	0.867000	0.047800
C971	C97	0.901500	0.887900	0.091900
C981	C98	0.900600	0.820500	0.968700
C991	C99	0.829100	0.899200	0.204660
C1001	C100	0.818500	0.846600	0.227800
C1011	C101	0.918700	0.829200	0.260650
C1021	C102	0.031800	0.863300	0.271320
C1031	C103	0.045100	0.916100	0.249300
C1041	C104	0.939300	0.934100	0.216000
C1051	C105	0.142400	0.842600	0.305410
C1061	C106	0.299100	0.506300	0.155420
C1071	C107	0.387300	0.474900	0.183880
C1081	C108	0.389900	0.415300	0.181110
C1091	C109	0.299600	0.387300	0.149920
C1101	C110	0.209700	0.418700	0.122200
C1111	C111	0.209800	0.476700	0.123400
C1121	C112	0.310800	0.324400	0.145100
C1131	C113	0.238600	0.610000	0.103310
C1141	C114	0.335400	0.630100	0.069900
C1151	C115	0.291700	0.650900	0.025700
C1161	C116	0.148000	0.653600	0.014290
C1171	C117	0.051000	0.633000	0.047800
C1181	C118	0.098500	0.612100	0.091900
C1191	C119	0.099400	0.679500	0.968700
C1201	C120	0.170900	0.600800	0.204660
C1211	C121	0.181500	0.653400	0.227800
C1221	C122	0.081300	0.670800	0.260650
C1231	C123	0.968200	0.636700	0.271320
C1241	C124	0.954900	0.583900	0.249300
C1251	C125	0.060700	0.565900	0.216000
C1261	C126	0.857600	0.657400	0.305410
C1271	C127	0.700900	0.006300	0.344580
C1281	C128	0.612700	0.974900	0.316120
C1291	C129	0.610100	0.915300	0.318890
C1301	C130	0.700400	0.887300	0.350080
C1311	C131	0.790300	0.918700	0.377800
C1321	C132	0.790200	0.976700	0.376600
C1331	C133	0.689200	0.824400	0.354900
C1341	C134	0.761400	0.110000	0.396690
C1351	C135	0.664600	0.130100	0.430100
C1361	C136	0.708300	0.150900	0.474300
C1371	C137	0.852000	0.153600	0.485710
C1381	C138	0.949000	0.133000	0.452200
C1391	C139	0.901500	0.112100	0.408100
C1401	C140	0.900600	0.179500	0.531300
C1411	C141	0.829100	0.100800	0.295340
C1421	C142	0.818500	0.153400	0.272200
C1431	C143	0.918700	0.170800	0.239350
C1441	C144	0.031800	0.136700	0.228680
C1451	C145	0.045100	0.083900	0.250700
C1461	C146	0.939300	0.065900	0.284000
C1471	C147	0.142400	0.157400	0.194590
C1481	C148	0.299100	0.493700	0.344580
C1491	C149	0.387300	0.525100	0.316120
C1501	C150	0.389900	0.584700	0.318890
C1511	C151	0.299600	0.612700	0.350080
C1521	C152	0.209700	0.581300	0.377800
C1531	C153	0.209800	0.523300	0.376600
C1541	C154	0.310800	0.675600	0.354900
C1551	C155	0.238600	0.390000	0.396690
C1561	C156	0.335400	0.369900	0.430100
C1571	C157	0.291700	0.349100	0.474300
C1581	C158	0.148000	0.346400	0.485710
C1591	C159	0.051000	0.367000	0.452200
C1601	C160	0.098500	0.387900	0.408100
C1611	C161	0.099400	0.320500	0.531300
C1621	C162	0.170900	0.399200	0.295340
C1631	C163	0.181500	0.346600	0.272200
C1641	C164	0.081300	0.329200	0.239350
C1651	C165	0.968200	0.363300	0.228680
C1661	C166	0.954900	0.416100	0.250700
C1671	C167	0.060700	0.434100	0.284000
C1681	C168	0.857600	0.342600	0.194590
O11	O1	0.214000	0.797790	0.876280
O21	O2	0.418100	0.799050	0.838770
O31	O3	0.969100	0.183600	0.039070
O41	O4	0.188800	0.197510	0.062190
O51	O5	0.887700	0.196550	0.665830
O61	O6	0.736500	0.136000	0.695050
O71	O7	0.786000	0.702210	0.876280
O81	O8	0.581900	0.700950	0.838770
O91	O9	0.030900	0.316400	0.039070
O101	O10	0.811200	0.302490	0.062190
O111	O11	0.112300	0.303450	0.665830
O121	O12	0.263500	0.364000	0.695050
O131	O13	0.214000	0.202210	0.623720
O141	O14	0.418100	0.200950	0.661230
O151	O15	0.969100	0.816400	0.460930
O161	O16	0.188800	0.802490	0.437810
O171	O17	0.887700	0.803450	0.834170
O181	O18	0.736500	0.864000	0.804950
O191	O19	0.786000	0.297790	0.623720
O201	O20	0.581900	0.299050	0.661230
O211	O21	0.030900	0.683600	0.460930
O221	O22	0.811200	0.697510	0.437810
O231	O23	0.112300	0.696550	0.834170
O241	O24	0.263500	0.636000	0.804950
O251	O25	0.786000	0.202210	0.123720
O261	O26	0.581900	0.200950	0.161230
O271	O27	0.030900	0.816400	0.960930
O281	O28	0.811200	0.802490	0.937810
O291	O29	0.112300	0.803450	0.334170
O301	O30	0.263500	0.864000	0.304950
O311	O31	0.214000	0.297790	0.123720
O321	O32	0.418100	0.299050	0.161230
O331	O33	0.969100	0.683600	0.960930
O341	O34	0.188800	0.697510	0.937810
O351	O35	0.887700	0.696550	0.334170
O361	O36	0.736500	0.636000	0.304950
O371	O37	0.786000	0.797790	0.376280
O381	O38	0.581900	0.799050	0.338770
O391	O39	0.030900	0.183600	0.539070
O401	O40	0.811200	0.197510	0.562190
O411	O41	0.112300	0.196550	0.165830
O421	O42	0.263500	0.136000	0.195050
O431	O43	0.214000	0.702210	0.376280
O441	O44	0.418100	0.700950	0.338770
O451	O45	0.969100	0.316400	0.539070
O461	O46	0.188800	0.302490	0.562190
O471	O47	0.887700	0.303450	0.165830
O481	O48	0.736500	0.364000	0.195050
O491	O49	0.500000	0.750000	0.933040
O501	O50	0.500000	0.250000	0.566960
O511	O51	0.500000	0.250000	0.066960
O521	O52	0.500000	0.750000	0.433040
