data_HAFWIW_clean_PM
_symmetry_space_group_name_H-M	'P1'
_cell_length_a	17.163700
_cell_length_b	17.163700
_cell_length_c	34.066500
_cell_angle_alpha	90.000000
_cell_angle_beta	90.000000
_cell_angle_gamma	90.000000
_symmetry_Int_Tables_number 1

loop_
_symmetry_equiv_pos_as_xyz
'x,y,z'

loop_
_atom_site_label
_atom_site_type_symbol
_atom_site_fract_x
_atom_site_fract_y
_atom_site_fract_z
C11	C1	0.365800	0.269300	0.165390
C21	C2	0.357000	0.218300	0.200160
C31	C3	0.347200	0.233600	0.240120
H11	H1	0.346100	0.281500	0.252800
C41	C4	0.339700	0.160800	0.255960
C51	C5	0.330300	0.129400	0.296700
N11	N1	0.355800	0.142200	0.193350
N21	N2	0.345500	0.105400	0.227630
O11	O1	0.370600	0.234200	0.132610
O21	O2	0.364700	0.340800	0.168250
O31	O3	0.329800	0.056600	0.298960
O41	O4	0.320800	0.175300	0.324940
Cu11	Cu1	0.370190	0.119860	0.136480
C61	C6	0.865800	0.769300	0.665390
C71	C7	0.857000	0.718300	0.700160
C81	C8	0.847200	0.733600	0.740120
H21	H2	0.846100	0.781500	0.752800
C91	C9	0.839700	0.660800	0.755960
C101	C10	0.830300	0.629400	0.796700
N31	N3	0.855800	0.642200	0.693350
N41	N4	0.845500	0.605400	0.727630
O51	O5	0.870600	0.734200	0.632610
O61	O6	0.864700	0.840800	0.668250
O71	O7	0.829800	0.556600	0.798960
O81	O8	0.820800	0.675300	0.824940
Cu21	Cu2	0.870190	0.619860	0.636480
C111	C11	0.134200	0.730700	0.665390
C121	C12	0.143000	0.781700	0.700160
C131	C13	0.152800	0.766400	0.740120
H31	H3	0.153900	0.718500	0.752800
C141	C14	0.160300	0.839200	0.755960
C151	C15	0.169700	0.870600	0.796700
N51	N5	0.144200	0.857800	0.693350
N61	N6	0.154500	0.894600	0.727630
O91	O9	0.129400	0.765800	0.632610
O101	O10	0.135300	0.659200	0.668250
O111	O11	0.170200	0.943400	0.798960
O121	O12	0.179200	0.824700	0.824940
Cu31	Cu3	0.129810	0.880140	0.636480
C161	C16	0.634200	0.230700	0.165390
C171	C17	0.643000	0.281700	0.200160
C181	C18	0.652800	0.266400	0.240120
H41	H4	0.653900	0.218500	0.252800
C191	C19	0.660300	0.339200	0.255960
C201	C20	0.669700	0.370600	0.296700
N71	N7	0.644200	0.357800	0.193350
N81	N8	0.654500	0.394600	0.227630
O131	O13	0.629400	0.265800	0.132610
O141	O14	0.635300	0.159200	0.168250
O151	O15	0.670200	0.443400	0.298960
O161	O16	0.679200	0.324700	0.324940
Cu41	Cu4	0.629810	0.380140	0.136480
C211	C21	0.134200	0.269300	0.834610
C221	C22	0.143000	0.218300	0.799840
C231	C23	0.152800	0.233600	0.759880
H51	H5	0.153900	0.281500	0.747200
C241	C24	0.160300	0.160800	0.744040
C251	C25	0.169700	0.129400	0.703300
N91	N9	0.144200	0.142200	0.806650
N101	N10	0.154500	0.105400	0.772370
O171	O17	0.129400	0.234200	0.867390
O181	O18	0.135300	0.340800	0.831750
O191	O19	0.170200	0.056600	0.701040
O201	O20	0.179200	0.175300	0.675060
Cu51	Cu5	0.129810	0.119860	0.863520
C261	C26	0.634200	0.769300	0.334610
C271	C27	0.643000	0.718300	0.299840
C281	C28	0.652800	0.733600	0.259880
H61	H6	0.653900	0.781500	0.247200
C291	C29	0.660300	0.660800	0.244040
C301	C30	0.669700	0.629400	0.203300
N111	N11	0.644200	0.642200	0.306650
N121	N12	0.654500	0.605400	0.272370
O211	O21	0.629400	0.734200	0.367390
O221	O22	0.635300	0.840800	0.331750
O231	O23	0.670200	0.556600	0.201040
O241	O24	0.679200	0.675300	0.175060
Cu61	Cu6	0.629810	0.619860	0.363520
C311	C31	0.365800	0.730700	0.334610
C321	C32	0.357000	0.781700	0.299840
C331	C33	0.347200	0.766400	0.259880
H71	H7	0.346100	0.718500	0.247200
C341	C34	0.339700	0.839200	0.244040
C351	C35	0.330300	0.870600	0.203300
N131	N13	0.355800	0.857800	0.306650
N141	N14	0.345500	0.894600	0.272370
O251	O25	0.370600	0.765800	0.367390
O261	O26	0.364700	0.659200	0.331750
O271	O27	0.329800	0.943400	0.201040
O281	O28	0.320800	0.824700	0.175060
Cu71	Cu7	0.370190	0.880140	0.363520
C361	C36	0.865800	0.230700	0.834610
C371	C37	0.857000	0.281700	0.799840
C381	C38	0.847200	0.266400	0.759880
H81	H8	0.846100	0.218500	0.747200
C391	C39	0.839700	0.339200	0.744040
C401	C40	0.830300	0.370600	0.703300
N151	N15	0.855800	0.357800	0.806650
N161	N16	0.845500	0.394600	0.772370
O291	O29	0.870600	0.265800	0.867390
O301	O30	0.864700	0.159200	0.831750
O311	O31	0.829800	0.443400	0.701040
O321	O32	0.820800	0.324700	0.675060
Cu81	Cu8	0.870190	0.380140	0.863520
C411	C41	0.019300	0.884200	0.584610
C421	C42	0.968300	0.893000	0.549840
C431	C43	0.983600	0.902800	0.509880
H91	H9	0.031500	0.903900	0.497200
C441	C44	0.910800	0.910300	0.494040
C451	C45	0.879400	0.919700	0.453300
N171	N17	0.892200	0.894200	0.556650
N181	N18	0.855400	0.904500	0.522370
O331	O33	0.984200	0.879400	0.617390
O341	O34	0.090800	0.885300	0.581750
O351	O35	0.806600	0.920200	0.451040
O361	O36	0.925300	0.929200	0.425060
Cu91	Cu9	0.869860	0.879810	0.613520
C461	C46	0.519300	0.384200	0.084610
C471	C47	0.468300	0.393000	0.049840
C481	C48	0.483600	0.402800	0.009880
H101	H10	0.531500	0.403900	0.997200
C491	C49	0.410800	0.410300	0.994040
C501	C50	0.379400	0.419700	0.953300
N191	N19	0.392200	0.394200	0.056650
N201	N20	0.355400	0.404500	0.022370
O371	O37	0.484200	0.379400	0.117390
O381	O38	0.590800	0.385300	0.081750
O391	O39	0.306600	0.420200	0.951040
O401	O40	0.425300	0.429200	0.925060
Cu101	Cu10	0.369860	0.379810	0.113520
C511	C51	0.480700	0.115800	0.084610
C521	C52	0.531700	0.107000	0.049840
C531	C53	0.516400	0.097200	0.009880
H111	H11	0.468500	0.096100	0.997200
C541	C54	0.589200	0.089700	0.994040
C551	C55	0.620600	0.080300	0.953300
N211	N21	0.607800	0.105800	0.056650
N221	N22	0.644600	0.095500	0.022370
O411	O41	0.515800	0.120600	0.117390
O421	O42	0.409200	0.114700	0.081750
O431	O43	0.693400	0.079800	0.951040
O441	O44	0.574700	0.070800	0.925060
Cu111	Cu11	0.630140	0.120190	0.113520
C561	C56	0.980700	0.615800	0.584610
C571	C57	0.031700	0.607000	0.549840
C581	C58	0.016400	0.597200	0.509880
H121	H12	0.968500	0.596100	0.497200
C591	C59	0.089200	0.589700	0.494040
C601	C60	0.120600	0.580300	0.453300
N231	N23	0.107800	0.605800	0.556650
N241	N24	0.144600	0.595500	0.522370
O451	O45	0.015800	0.620600	0.617390
O461	O46	0.909200	0.614700	0.581750
O471	O47	0.193400	0.579800	0.451040
O481	O48	0.074700	0.570800	0.425060
Cu121	Cu12	0.130140	0.620190	0.613520
C611	C61	0.480700	0.884200	0.415390
C621	C62	0.531700	0.893000	0.450160
C631	C63	0.516400	0.902800	0.490120
H131	H13	0.468500	0.903900	0.502800
C641	C64	0.589200	0.910300	0.505960
C651	C65	0.620600	0.919700	0.546700
N251	N25	0.607800	0.894200	0.443350
N261	N26	0.644600	0.904500	0.477630
O491	O49	0.515800	0.879400	0.382610
O501	O50	0.409200	0.885300	0.418250
O511	O51	0.693400	0.920200	0.548960
O521	O52	0.574700	0.929200	0.574940
Cu131	Cu13	0.630140	0.879810	0.386480
C661	C66	0.980700	0.384200	0.915390
C671	C67	0.031700	0.393000	0.950160
C681	C68	0.016400	0.402800	0.990120
H141	H14	0.968500	0.403900	0.002800
C691	C69	0.089200	0.410300	0.005960
C701	C70	0.120600	0.419700	0.046700
N271	N27	0.107800	0.394200	0.943350
N281	N28	0.144600	0.404500	0.977630
O531	O53	0.015800	0.379400	0.882610
O541	O54	0.909200	0.385300	0.918250
O551	O55	0.193400	0.420200	0.048960
O561	O56	0.074700	0.429200	0.074940
Cu141	Cu14	0.130140	0.379810	0.886480
C711	C71	0.019300	0.115800	0.915390
C721	C72	0.968300	0.107000	0.950160
C731	C73	0.983600	0.097200	0.990120
H151	H15	0.031500	0.096100	0.002800
C741	C74	0.910800	0.089700	0.005960
C751	C75	0.879400	0.080300	0.046700
N291	N29	0.892200	0.105800	0.943350
N301	N30	0.855400	0.095500	0.977630
O571	O57	0.984200	0.120600	0.882610
O581	O58	0.090800	0.114700	0.918250
O591	O59	0.806600	0.079800	0.048960
O601	O60	0.925300	0.070800	0.074940
Cu151	Cu15	0.869860	0.120190	0.886480
C761	C76	0.519300	0.615800	0.415390
C771	C77	0.468300	0.607000	0.450160
C781	C78	0.483600	0.597200	0.490120
H161	H16	0.531500	0.596100	0.502800
C791	C79	0.410800	0.589700	0.505960
C801	C80	0.379400	0.580300	0.546700
N311	N31	0.392200	0.605800	0.443350
N321	N32	0.355400	0.595500	0.477630
O611	O61	0.484200	0.620600	0.382610
O621	O62	0.590800	0.614700	0.418250
O631	O63	0.306600	0.579800	0.548960
O641	O64	0.425300	0.570800	0.574940
Cu161	Cu16	0.369860	0.620190	0.386480
Cu171	Cu17	0.348150	0.000000	0.250000
Cu181	Cu18	0.848150	0.500000	0.750000
Cu191	Cu19	0.151850	0.000000	0.750000
Cu201	Cu20	0.651850	0.500000	0.250000
Cu211	Cu21	0.750000	0.901850	0.500000
Cu221	Cu22	0.250000	0.401850	0.000000
Cu231	Cu23	0.750000	0.098150	0.000000
Cu241	Cu24	0.250000	0.598150	0.500000
C811	C81	0.980700	0.115800	0.415390
C821	C82	0.031700	0.107000	0.450160
C831	C83	0.016400	0.097200	0.490120
H171	H17	0.968500	0.096100	0.502800
C841	C84	0.089200	0.089700	0.505960
C851	C85	0.120600	0.080300	0.546700
N331	N33	0.107800	0.105800	0.443350
N341	N34	0.144600	0.095500	0.477630
O651	O65	0.015800	0.120600	0.382610
O661	O66	0.909200	0.114700	0.418250
O671	O67	0.193400	0.079800	0.548960
O681	O68	0.074700	0.070800	0.574940
Cu251	Cu25	0.130140	0.120190	0.386480
C861	C86	0.480700	0.615800	0.915390
C871	C87	0.531700	0.607000	0.950160
C881	C88	0.516400	0.597200	0.990120
H181	H18	0.468500	0.596100	0.002800
C891	C89	0.589200	0.589700	0.005960
C901	C90	0.620600	0.580300	0.046700
N351	N35	0.607800	0.605800	0.943350
N361	N36	0.644600	0.595500	0.977630
O691	O69	0.515800	0.620600	0.882610
O701	O70	0.409200	0.614700	0.918250
O711	O71	0.693400	0.579800	0.048960
O721	O72	0.574700	0.570800	0.074940
Cu261	Cu26	0.630140	0.620190	0.886480
C911	C91	0.519300	0.884200	0.915390
C921	C92	0.468300	0.893000	0.950160
C931	C93	0.483600	0.902800	0.990120
H191	H19	0.531500	0.903900	0.002800
C941	C94	0.410800	0.910300	0.005960
C951	C95	0.379400	0.919700	0.046700
N371	N37	0.392200	0.894200	0.943350
N381	N38	0.355400	0.904500	0.977630
O731	O73	0.484200	0.879400	0.882610
O741	O74	0.590800	0.885300	0.918250
O751	O75	0.306600	0.920200	0.048960
O761	O76	0.425300	0.929200	0.074940
Cu271	Cu27	0.369860	0.879810	0.886480
C961	C96	0.019300	0.384200	0.415390
C971	C97	0.968300	0.393000	0.450160
C981	C98	0.983600	0.402800	0.490120
H201	H20	0.031500	0.403900	0.502800
C991	C99	0.910800	0.410300	0.505960
C1001	C100	0.879400	0.419700	0.546700
N391	N39	0.892200	0.394200	0.443350
N401	N40	0.855400	0.404500	0.477630
O771	O77	0.984200	0.379400	0.382610
O781	O78	0.090800	0.385300	0.418250
O791	O79	0.806600	0.420200	0.548960
O801	O80	0.925300	0.429200	0.574940
Cu281	Cu28	0.869860	0.379810	0.386480
C1011	C101	0.519300	0.115800	0.584610
C1021	C102	0.468300	0.107000	0.549840
C1031	C103	0.483600	0.097200	0.509880
H211	H21	0.531500	0.096100	0.497200
C1041	C104	0.410800	0.089700	0.494040
C1051	C105	0.379400	0.080300	0.453300
N411	N41	0.392200	0.105800	0.556650
N421	N42	0.355400	0.095500	0.522370
O811	O81	0.484200	0.120600	0.617390
O821	O82	0.590800	0.114700	0.581750
O831	O83	0.306600	0.079800	0.451040
O841	O84	0.425300	0.070800	0.425060
Cu291	Cu29	0.369860	0.120190	0.613520
C1061	C106	0.019300	0.615800	0.084610
C1071	C107	0.968300	0.607000	0.049840
C1081	C108	0.983600	0.597200	0.009880
H221	H22	0.031500	0.596100	0.997200
C1091	C109	0.910800	0.589700	0.994040
C1101	C110	0.879400	0.580300	0.953300
N431	N43	0.892200	0.605800	0.056650
N441	N44	0.855400	0.595500	0.022370
O851	O85	0.984200	0.620600	0.117390
O861	O86	0.090800	0.614700	0.081750
O871	O87	0.806600	0.579800	0.951040
O881	O88	0.925300	0.570800	0.925060
Cu301	Cu30	0.869860	0.620190	0.113520
C1111	C111	0.980700	0.884200	0.084610
C1121	C112	0.031700	0.893000	0.049840
C1131	C113	0.016400	0.902800	0.009880
H231	H23	0.968500	0.903900	0.997200
C1141	C114	0.089200	0.910300	0.994040
C1151	C115	0.120600	0.919700	0.953300
N451	N45	0.107800	0.894200	0.056650
N461	N46	0.144600	0.904500	0.022370
O891	O89	0.015800	0.879400	0.117390
O901	O90	0.909200	0.885300	0.081750
O911	O91	0.193400	0.920200	0.951040
O921	O92	0.074700	0.929200	0.925060
Cu311	Cu31	0.130140	0.879810	0.113520
C1161	C116	0.480700	0.384200	0.584610
C1171	C117	0.531700	0.393000	0.549840
C1181	C118	0.516400	0.402800	0.509880
H241	H24	0.468500	0.403900	0.497200
C1191	C119	0.589200	0.410300	0.494040
C1201	C120	0.620600	0.419700	0.453300
N471	N47	0.607800	0.394200	0.556650
N481	N48	0.644600	0.404500	0.522370
O931	O93	0.515800	0.379400	0.617390
O941	O94	0.409200	0.385300	0.581750
O951	O95	0.693400	0.420200	0.451040
O961	O96	0.574700	0.429200	0.425060
Cu321	Cu32	0.630140	0.379810	0.613520
C1211	C121	0.634200	0.730700	0.834610
C1221	C122	0.643000	0.781700	0.799840
C1231	C123	0.652800	0.766400	0.759880
H251	H25	0.653900	0.718500	0.747200
C1241	C124	0.660300	0.839200	0.744040
C1251	C125	0.669700	0.870600	0.703300
N491	N49	0.644200	0.857800	0.806650
N501	N50	0.654500	0.894600	0.772370
O971	O97	0.629400	0.765800	0.867390
O981	O98	0.635300	0.659200	0.831750
O991	O99	0.670200	0.943400	0.701040
O1001	O100	0.679200	0.824700	0.675060
Cu331	Cu33	0.629810	0.880140	0.863520
C1261	C126	0.134200	0.230700	0.334610
C1271	C127	0.143000	0.281700	0.299840
C1281	C128	0.152800	0.266400	0.259880
H261	H26	0.153900	0.218500	0.247200
C1291	C129	0.160300	0.339200	0.244040
C1301	C130	0.169700	0.370600	0.203300
N511	N51	0.144200	0.357800	0.306650
N521	N52	0.154500	0.394600	0.272370
O1011	O101	0.129400	0.265800	0.367390
O1021	O102	0.135300	0.159200	0.331750
O1031	O103	0.170200	0.443400	0.201040
O1041	O104	0.179200	0.324700	0.175060
Cu341	Cu34	0.129810	0.380140	0.363520
C1311	C131	0.865800	0.269300	0.334610
C1321	C132	0.857000	0.218300	0.299840
C1331	C133	0.847200	0.233600	0.259880
H271	H27	0.846100	0.281500	0.247200
C1341	C134	0.839700	0.160800	0.244040
C1351	C135	0.830300	0.129400	0.203300
N531	N53	0.855800	0.142200	0.306650
N541	N54	0.845500	0.105400	0.272370
O1051	O105	0.870600	0.234200	0.367390
O1061	O106	0.864700	0.340800	0.331750
O1071	O107	0.829800	0.056600	0.201040
O1081	O108	0.820800	0.175300	0.175060
Cu351	Cu35	0.870190	0.119860	0.363520
C1361	C136	0.365800	0.769300	0.834610
C1371	C137	0.357000	0.718300	0.799840
C1381	C138	0.347200	0.733600	0.759880
H281	H28	0.346100	0.781500	0.747200
C1391	C139	0.339700	0.660800	0.744040
C1401	C140	0.330300	0.629400	0.703300
N551	N55	0.355800	0.642200	0.806650
N561	N56	0.345500	0.605400	0.772370
O1091	O109	0.370600	0.734200	0.867390
O1101	O110	0.364700	0.840800	0.831750
O1111	O111	0.329800	0.556600	0.701040
O1121	O112	0.320800	0.675300	0.675060
Cu361	Cu36	0.370190	0.619860	0.863520
C1411	C141	0.865800	0.730700	0.165390
C1421	C142	0.857000	0.781700	0.200160
C1431	C143	0.847200	0.766400	0.240120
H291	H29	0.846100	0.718500	0.252800
C1441	C144	0.839700	0.839200	0.255960
C1451	C145	0.830300	0.870600	0.296700
N571	N57	0.855800	0.857800	0.193350
N581	N58	0.845500	0.894600	0.227630
O1131	O113	0.870600	0.765800	0.132610
O1141	O114	0.864700	0.659200	0.168250
O1151	O115	0.829800	0.943400	0.298960
O1161	O116	0.820800	0.824700	0.324940
Cu371	Cu37	0.870190	0.880140	0.136480
C1461	C146	0.365800	0.230700	0.665390
C1471	C147	0.357000	0.281700	0.700160
C1481	C148	0.347200	0.266400	0.740120
H301	H30	0.346100	0.218500	0.752800
C1491	C149	0.339700	0.339200	0.755960
C1501	C150	0.330300	0.370600	0.796700
N591	N59	0.355800	0.357800	0.693350
N601	N60	0.345500	0.394600	0.727630
O1171	O117	0.370600	0.265800	0.632610
O1181	O118	0.364700	0.159200	0.668250
O1191	O119	0.329800	0.443400	0.798960
O1201	O120	0.320800	0.324700	0.824940
Cu381	Cu38	0.370190	0.380140	0.636480
C1511	C151	0.634200	0.269300	0.665390
C1521	C152	0.643000	0.218300	0.700160
C1531	C153	0.652800	0.233600	0.740120
H311	H31	0.653900	0.281500	0.752800
C1541	C154	0.660300	0.160800	0.755960
C1551	C155	0.669700	0.129400	0.796700
N611	N61	0.644200	0.142200	0.693350
N621	N62	0.654500	0.105400	0.727630
O1211	O121	0.629400	0.234200	0.632610
O1221	O122	0.635300	0.340800	0.668250
O1231	O123	0.670200	0.056600	0.798960
O1241	O124	0.679200	0.175300	0.824940
Cu391	Cu39	0.629810	0.119860	0.636480
C1561	C156	0.134200	0.769300	0.165390
C1571	C157	0.143000	0.718300	0.200160
C1581	C158	0.152800	0.733600	0.240120
H321	H32	0.153900	0.781500	0.252800
C1591	C159	0.160300	0.660800	0.255960
C1601	C160	0.169700	0.629400	0.296700
N631	N63	0.144200	0.642200	0.193350
N641	N64	0.154500	0.605400	0.227630
O1251	O125	0.129400	0.734200	0.132610
O1261	O126	0.135300	0.840800	0.168250
O1271	O127	0.170200	0.556600	0.298960
O1281	O128	0.179200	0.675300	0.324940
Cu401	Cu40	0.129810	0.619860	0.136480
Cu411	Cu41	0.250000	0.098150	0.500000
Cu421	Cu42	0.750000	0.598150	0.000000
Cu431	Cu43	0.250000	0.901850	0.000000
Cu441	Cu44	0.750000	0.401850	0.500000
Cu451	Cu45	0.651850	0.000000	0.750000
Cu461	Cu46	0.151850	0.500000	0.250000
Cu471	Cu47	0.848150	0.000000	0.250000
Cu481	Cu48	0.348150	0.500000	0.750000
