data_HAHCUR_clean_PM
_symmetry_space_group_name_H-M	'P1'
_cell_length_a	19.750000
_cell_length_b	22.194700
_cell_length_c	11.633400
_cell_angle_alpha	90.000000
_cell_angle_beta	116.797000
_cell_angle_gamma	90.000000
_symmetry_Int_Tables_number 1

loop_
_symmetry_equiv_pos_as_xyz
'x,y,z'

loop_
_atom_site_label
_atom_site_type_symbol
_atom_site_fract_x
_atom_site_fract_y
_atom_site_fract_z
Ni11	Ni1	0.187300	0.120670	0.883510
O11	O1	0.188290	0.120790	0.699000
O21	O2	0.266290	0.177000	0.860200
O31	O3	0.264180	0.050310	0.935000
O41	O4	0.114170	0.050050	0.859700
N11	N1	0.217530	0.138190	0.072800
N21	N2	0.359100	0.208580	0.527700
N31	N3	0.596120	0.320940	0.811900
C11	C1	0.172200	0.129000	0.128200
H11	H1	0.123900	0.113700	0.078300
C21	C2	0.194000	0.141200	0.256700
H21	H2	0.160600	0.134300	0.291400
C31	C3	0.266600	0.164100	0.334300
C41	C4	0.312400	0.174300	0.274900
H31	H3	0.360700	0.190400	0.321400
C51	C5	0.286100	0.160400	0.146100
H41	H4	0.318200	0.167000	0.108500
C61	C6	0.293800	0.178000	0.472500
C71	C7	0.254500	0.159600	0.540800
H51	H5	0.209300	0.138200	0.500200
C81	C8	0.284300	0.174100	0.670200
C91	C9	0.352500	0.204700	0.728400
H61	H6	0.373900	0.214200	0.815500
C101	C10	0.388900	0.221100	0.654100
C111	C11	0.461200	0.254300	0.709500
C121	C12	0.519700	0.241700	0.830400
H71	H7	0.514400	0.210800	0.880000
C131	C13	0.585400	0.275000	0.876500
H81	H8	0.624400	0.265100	0.956700
C141	C14	0.539600	0.333300	0.694100
H91	H9	0.546000	0.364900	0.647500
C151	C15	0.472600	0.301000	0.639500
H101	H10	0.435500	0.310300	0.557100
C161	C16	0.243600	0.155930	0.747700
Ni21	Ni2	0.687300	0.620670	0.883510
O51	O5	0.688290	0.620790	0.699000
O61	O6	0.766290	0.677000	0.860200
O71	O7	0.764180	0.550310	0.935000
O81	O8	0.614170	0.550050	0.859700
N41	N4	0.717530	0.638190	0.072800
N51	N5	0.859100	0.708580	0.527700
N61	N6	0.096120	0.820940	0.811900
C171	C17	0.672200	0.629000	0.128200
H111	H11	0.623900	0.613700	0.078300
C181	C18	0.694000	0.641200	0.256700
H121	H12	0.660600	0.634300	0.291400
C191	C19	0.766600	0.664100	0.334300
C201	C20	0.812400	0.674300	0.274900
H131	H13	0.860700	0.690400	0.321400
C211	C21	0.786100	0.660400	0.146100
H141	H14	0.818200	0.667000	0.108500
C221	C22	0.793800	0.678000	0.472500
C231	C23	0.754500	0.659600	0.540800
H151	H15	0.709300	0.638200	0.500200
C241	C24	0.784300	0.674100	0.670200
C251	C25	0.852500	0.704700	0.728400
H161	H16	0.873900	0.714200	0.815500
C261	C26	0.888900	0.721100	0.654100
C271	C27	0.961200	0.754300	0.709500
C281	C28	0.019700	0.741700	0.830400
H171	H17	0.014400	0.710800	0.880000
C291	C29	0.085400	0.775000	0.876500
H181	H18	0.124400	0.765100	0.956700
C301	C30	0.039600	0.833300	0.694100
H191	H19	0.046000	0.864900	0.647500
C311	C31	0.972600	0.801000	0.639500
H201	H20	0.935500	0.810300	0.557100
C321	C32	0.743600	0.655930	0.747700
Ni31	Ni3	0.187300	0.879330	0.883510
O91	O9	0.188290	0.879210	0.699000
O101	O10	0.266290	0.823000	0.860200
O111	O11	0.264180	0.949690	0.935000
O121	O12	0.114170	0.949950	0.859700
N71	N7	0.217530	0.861810	0.072800
N81	N8	0.359100	0.791420	0.527700
N91	N9	0.596120	0.679060	0.811900
C331	C33	0.172200	0.871000	0.128200
H211	H21	0.123900	0.886300	0.078300
C341	C34	0.194000	0.858800	0.256700
H221	H22	0.160600	0.865700	0.291400
C351	C35	0.266600	0.835900	0.334300
C361	C36	0.312400	0.825700	0.274900
H231	H23	0.360700	0.809600	0.321400
C371	C37	0.286100	0.839600	0.146100
H241	H24	0.318200	0.833000	0.108500
C381	C38	0.293800	0.822000	0.472500
C391	C39	0.254500	0.840400	0.540800
H251	H25	0.209300	0.861800	0.500200
C401	C40	0.284300	0.825900	0.670200
C411	C41	0.352500	0.795300	0.728400
H261	H26	0.373900	0.785800	0.815500
C421	C42	0.388900	0.778900	0.654100
C431	C43	0.461200	0.745700	0.709500
C441	C44	0.519700	0.758300	0.830400
H271	H27	0.514400	0.789200	0.880000
C451	C45	0.585400	0.725000	0.876500
H281	H28	0.624400	0.734900	0.956700
C461	C46	0.539600	0.666700	0.694100
H291	H29	0.546000	0.635100	0.647500
C471	C47	0.472600	0.699000	0.639500
H301	H30	0.435500	0.689700	0.557100
C481	C48	0.243600	0.844070	0.747700
Ni41	Ni4	0.687300	0.379330	0.883510
O131	O13	0.688290	0.379210	0.699000
O141	O14	0.766290	0.323000	0.860200
O151	O15	0.764180	0.449690	0.935000
O161	O16	0.614170	0.449950	0.859700
N101	N10	0.717530	0.361810	0.072800
N111	N11	0.859100	0.291420	0.527700
N121	N12	0.096120	0.179060	0.811900
C491	C49	0.672200	0.371000	0.128200
H311	H31	0.623900	0.386300	0.078300
C501	C50	0.694000	0.358800	0.256700
H321	H32	0.660600	0.365700	0.291400
C511	C51	0.766600	0.335900	0.334300
C521	C52	0.812400	0.325700	0.274900
H331	H33	0.860700	0.309600	0.321400
C531	C53	0.786100	0.339600	0.146100
H341	H34	0.818200	0.333000	0.108500
C541	C54	0.793800	0.322000	0.472500
C551	C55	0.754500	0.340400	0.540800
H351	H35	0.709300	0.361800	0.500200
C561	C56	0.784300	0.325900	0.670200
C571	C57	0.852500	0.295300	0.728400
H361	H36	0.873900	0.285800	0.815500
C581	C58	0.888900	0.278900	0.654100
C591	C59	0.961200	0.245700	0.709500
C601	C60	0.019700	0.258300	0.830400
H371	H37	0.014400	0.289200	0.880000
C611	C61	0.085400	0.225000	0.876500
H381	H38	0.124400	0.234900	0.956700
C621	C62	0.039600	0.166700	0.694100
H391	H39	0.046000	0.135100	0.647500
C631	C63	0.972600	0.199000	0.639500
H401	H40	0.935500	0.189700	0.557100
C641	C64	0.743600	0.344070	0.747700
C651	C65	0.146100	0.000000	0.875800
C661	C66	0.233200	0.000000	0.919500
C671	C67	0.646100	0.500000	0.875800
C681	C68	0.733200	0.500000	0.919500
Ni51	Ni5	0.812700	0.120670	0.116490
O171	O17	0.811710	0.120790	0.301000
O181	O18	0.733710	0.177000	0.139800
O191	O19	0.735820	0.050310	0.065000
O201	O20	0.885830	0.050050	0.140300
N131	N13	0.782470	0.138190	0.927200
N141	N14	0.640900	0.208580	0.472300
N151	N15	0.403880	0.320940	0.188100
C691	C69	0.827800	0.129000	0.871800
H411	H41	0.876100	0.113700	0.921700
C701	C70	0.806000	0.141200	0.743300
H421	H42	0.839400	0.134300	0.708600
C711	C71	0.733400	0.164100	0.665700
C721	C72	0.687600	0.174300	0.725100
H431	H43	0.639300	0.190400	0.678600
C731	C73	0.713900	0.160400	0.853900
H441	H44	0.681800	0.167000	0.891500
C741	C74	0.706200	0.178000	0.527500
C751	C75	0.745500	0.159600	0.459200
H451	H45	0.790700	0.138200	0.499800
C761	C76	0.715700	0.174100	0.329800
C771	C77	0.647500	0.204700	0.271600
H461	H46	0.626100	0.214200	0.184500
C781	C78	0.611100	0.221100	0.345900
C791	C79	0.538800	0.254300	0.290500
C801	C80	0.480300	0.241700	0.169600
H471	H47	0.485600	0.210800	0.120000
C811	C81	0.414600	0.275000	0.123500
H481	H48	0.375600	0.265100	0.043300
C821	C82	0.460400	0.333300	0.305900
H491	H49	0.454000	0.364900	0.352500
C831	C83	0.527400	0.301000	0.360500
H501	H50	0.564500	0.310300	0.442900
C841	C84	0.756400	0.155930	0.252300
Ni61	Ni6	0.312700	0.620670	0.116490
O211	O21	0.311710	0.620790	0.301000
O221	O22	0.233710	0.677000	0.139800
O231	O23	0.235820	0.550310	0.065000
O241	O24	0.385830	0.550050	0.140300
N161	N16	0.282470	0.638190	0.927200
N171	N17	0.140900	0.708580	0.472300
N181	N18	0.903880	0.820940	0.188100
C851	C85	0.327800	0.629000	0.871800
H511	H51	0.376100	0.613700	0.921700
C861	C86	0.306000	0.641200	0.743300
H521	H52	0.339400	0.634300	0.708600
C871	C87	0.233400	0.664100	0.665700
C881	C88	0.187600	0.674300	0.725100
H531	H53	0.139300	0.690400	0.678600
C891	C89	0.213900	0.660400	0.853900
H541	H54	0.181800	0.667000	0.891500
C901	C90	0.206200	0.678000	0.527500
C911	C91	0.245500	0.659600	0.459200
H551	H55	0.290700	0.638200	0.499800
C921	C92	0.215700	0.674100	0.329800
C931	C93	0.147500	0.704700	0.271600
H561	H56	0.126100	0.714200	0.184500
C941	C94	0.111100	0.721100	0.345900
C951	C95	0.038800	0.754300	0.290500
C961	C96	0.980300	0.741700	0.169600
H571	H57	0.985600	0.710800	0.120000
C971	C97	0.914600	0.775000	0.123500
H581	H58	0.875600	0.765100	0.043300
C981	C98	0.960400	0.833300	0.305900
H591	H59	0.954000	0.864900	0.352500
C991	C99	0.027400	0.801000	0.360500
H601	H60	0.064500	0.810300	0.442900
C1001	C100	0.256400	0.655930	0.252300
Ni71	Ni7	0.812700	0.879330	0.116490
O251	O25	0.811710	0.879210	0.301000
O261	O26	0.733710	0.823000	0.139800
O271	O27	0.735820	0.949690	0.065000
O281	O28	0.885830	0.949950	0.140300
N191	N19	0.782470	0.861810	0.927200
N201	N20	0.640900	0.791420	0.472300
N211	N21	0.403880	0.679060	0.188100
C1011	C101	0.827800	0.871000	0.871800
H611	H61	0.876100	0.886300	0.921700
C1021	C102	0.806000	0.858800	0.743300
H621	H62	0.839400	0.865700	0.708600
C1031	C103	0.733400	0.835900	0.665700
C1041	C104	0.687600	0.825700	0.725100
H631	H63	0.639300	0.809600	0.678600
C1051	C105	0.713900	0.839600	0.853900
H641	H64	0.681800	0.833000	0.891500
C1061	C106	0.706200	0.822000	0.527500
C1071	C107	0.745500	0.840400	0.459200
H651	H65	0.790700	0.861800	0.499800
C1081	C108	0.715700	0.825900	0.329800
C1091	C109	0.647500	0.795300	0.271600
H661	H66	0.626100	0.785800	0.184500
C1101	C110	0.611100	0.778900	0.345900
C1111	C111	0.538800	0.745700	0.290500
C1121	C112	0.480300	0.758300	0.169600
H671	H67	0.485600	0.789200	0.120000
C1131	C113	0.414600	0.725000	0.123500
H681	H68	0.375600	0.734900	0.043300
C1141	C114	0.460400	0.666700	0.305900
H691	H69	0.454000	0.635100	0.352500
C1151	C115	0.527400	0.699000	0.360500
H701	H70	0.564500	0.689700	0.442900
C1161	C116	0.756400	0.844070	0.252300
Ni81	Ni8	0.312700	0.379330	0.116490
O291	O29	0.311710	0.379210	0.301000
O301	O30	0.233710	0.323000	0.139800
O311	O31	0.235820	0.449690	0.065000
O321	O32	0.385830	0.449950	0.140300
N221	N22	0.282470	0.361810	0.927200
N231	N23	0.140900	0.291420	0.472300
N241	N24	0.903880	0.179060	0.188100
C1171	C117	0.327800	0.371000	0.871800
H711	H71	0.376100	0.386300	0.921700
C1181	C118	0.306000	0.358800	0.743300
H721	H72	0.339400	0.365700	0.708600
C1191	C119	0.233400	0.335900	0.665700
C1201	C120	0.187600	0.325700	0.725100
H731	H73	0.139300	0.309600	0.678600
C1211	C121	0.213900	0.339600	0.853900
H741	H74	0.181800	0.333000	0.891500
C1221	C122	0.206200	0.322000	0.527500
C1231	C123	0.245500	0.340400	0.459200
H751	H75	0.290700	0.361800	0.499800
C1241	C124	0.215700	0.325900	0.329800
C1251	C125	0.147500	0.295300	0.271600
H761	H76	0.126100	0.285800	0.184500
C1261	C126	0.111100	0.278900	0.345900
C1271	C127	0.038800	0.245700	0.290500
C1281	C128	0.980300	0.258300	0.169600
H771	H77	0.985600	0.289200	0.120000
C1291	C129	0.914600	0.225000	0.123500
H781	H78	0.875600	0.234900	0.043300
C1301	C130	0.960400	0.166700	0.305900
H791	H79	0.954000	0.135100	0.352500
C1311	C131	0.027400	0.199000	0.360500
H801	H80	0.064500	0.189700	0.442900
C1321	C132	0.256400	0.344070	0.252300
C1331	C133	0.853900	0.000000	0.124200
C1341	C134	0.766800	0.000000	0.080500
C1351	C135	0.353900	0.500000	0.124200
C1361	C136	0.266800	0.500000	0.080500
