data_HAJLUA_clean_PM
_symmetry_space_group_name_H-M	'P1'
_cell_length_a	10.986000
_cell_length_b	15.109400
_cell_length_c	15.109400
_cell_angle_alpha	65.676500
_cell_angle_beta	75.973800
_cell_angle_gamma	104.026000
_symmetry_Int_Tables_number 1

loop_
_symmetry_equiv_pos_as_xyz
'x,y,z'

loop_
_atom_site_label
_atom_site_type_symbol
_atom_site_fract_x
_atom_site_fract_y
_atom_site_fract_z
Fe11	Fe1	0.500000	0.500000	0.500000
H11	H1	0.233000	0.344800	0.532000
H21	H2	0.477400	0.687400	0.292000
H31	H3	0.351900	0.707100	0.269100
H41	H4	0.445400	0.676200	0.200700
H51	H5	0.034300	0.241700	0.529700
H61	H6	0.043900	0.275700	0.414300
H71	H7	0.955400	0.310000	0.481900
H81	H8	0.026300	0.711000	0.242400
H91	H9	0.159600	0.713400	0.263700
H101	H10	0.018000	0.628600	0.351700
H111	H11	0.135000	0.375200	0.144500
H121	H12	0.127800	0.330800	0.260300
H131	H13	0.262800	0.418600	0.166000
H141	H14	0.991000	0.628500	0.139500
H151	H15	0.767000	0.655200	0.468000
H161	H16	0.522600	0.312600	0.708000
H171	H17	0.648100	0.292900	0.730900
H181	H18	0.554600	0.323800	0.799300
H191	H19	0.965700	0.758300	0.470300
H201	H20	0.956100	0.724300	0.585700
H211	H21	0.044600	0.690000	0.518100
H221	H22	0.973700	0.289000	0.757600
H231	H23	0.840400	0.286600	0.736300
H241	H24	0.982000	0.371400	0.648300
H251	H25	0.865000	0.624800	0.855500
H261	H26	0.872200	0.669200	0.739700
H271	H27	0.737200	0.581400	0.834000
H281	H28	0.009000	0.371500	0.860500
C11	C1	0.275460	0.348820	0.735640
C21	C2	0.318900	0.552600	0.344700
C31	C3	0.202110	0.492420	0.339690
C41	C4	0.155800	0.393500	0.426500
C51	C5	0.406100	0.665800	0.270100
C61	C6	0.037000	0.296800	0.466600
C71	C7	0.083800	0.595800	0.236400
C81	C8	0.142290	0.522410	0.260240
C91	C9	0.119500	0.474600	0.199800
C101	C10	0.070800	0.668600	0.277100
C111	C11	0.165200	0.392500	0.192100
C121	C12	0.724540	0.651180	0.264360
C131	C13	0.681100	0.447400	0.655300
C141	C14	0.797890	0.507580	0.660310
C151	C15	0.844200	0.606500	0.573500
C161	C16	0.593900	0.334200	0.729900
C171	C17	0.963000	0.703200	0.533400
C181	C18	0.916200	0.404200	0.763600
C191	C19	0.857710	0.477590	0.739760
C201	C20	0.880500	0.525400	0.800200
C211	C21	0.929200	0.331400	0.722900
C221	C22	0.834800	0.607500	0.807900
S11	S1	0.184200	0.282470	0.860720
S21	S2	0.815800	0.717530	0.139280
N11	N1	0.343770	0.396340	0.647230
N21	N2	0.341730	0.493870	0.428380
N31	N3	0.241210	0.397840	0.475810
N41	N4	0.051030	0.515290	0.142300
N51	N5	0.032160	0.589340	0.166460
N61	N6	0.656230	0.603660	0.352770
N71	N7	0.658270	0.506130	0.571620
N81	N8	0.758790	0.602160	0.524190
N91	N9	0.948970	0.484710	0.857700
N101	N10	0.967840	0.410660	0.833540
Fe21	Fe2	0.000000	0.500000	0.000000
H291	H29	0.765000	0.532000	0.123200
H301	H30	0.769400	0.292000	0.020600
H311	H31	0.621000	0.269100	0.023800
H321	H32	0.646100	0.200700	0.123100
H331	H33	0.564000	0.529700	0.228600
H341	H34	0.458200	0.414300	0.310000
H351	H35	0.437300	0.481900	0.208100
H361	H36	0.268700	0.242400	0.046600
H371	H37	0.423300	0.263700	0.022900
H381	H38	0.369700	0.351700	0.019700
H391	H39	0.279500	0.144500	0.480300
H401	H40	0.388100	0.260300	0.408900
H411	H41	0.428800	0.166000	0.415400
H421	H42	0.130500	0.139500	0.232000
H431	H43	0.235000	0.468000	0.876800
H441	H44	0.230600	0.708000	0.979400
H451	H45	0.379000	0.730900	0.976200
H461	H46	0.353900	0.799300	0.876900
H471	H47	0.436000	0.470300	0.771400
H481	H48	0.541800	0.585700	0.690000
H491	H49	0.562700	0.518100	0.791900
H501	H50	0.731300	0.757600	0.953400
H511	H51	0.576700	0.736300	0.977100
H521	H52	0.630300	0.648300	0.980300
H531	H53	0.720500	0.855500	0.519700
H541	H54	0.611900	0.739700	0.591100
H551	H55	0.571200	0.834000	0.584600
H561	H56	0.869500	0.860500	0.768000
C231	C23	0.011100	0.735640	0.915540
C241	C24	0.663600	0.344700	0.102700
C251	C25	0.541800	0.339690	0.167890
C261	C26	0.582300	0.426500	0.180000
C271	C27	0.676200	0.270100	0.064100
C281	C28	0.503600	0.466600	0.236600
C291	C29	0.320200	0.236400	0.167800
C301	C30	0.402530	0.260240	0.217350
C311	C31	0.319300	0.199800	0.325600
C321	C32	0.347900	0.277100	0.054300
C331	C33	0.357300	0.192100	0.415400
C341	C34	0.988900	0.264360	0.084460
C351	C35	0.336400	0.655300	0.897300
C361	C36	0.458200	0.660310	0.832110
C371	C37	0.417700	0.573500	0.820000
C381	C38	0.323800	0.729900	0.935900
C391	C39	0.496400	0.533400	0.763400
C401	C40	0.679800	0.763600	0.832200
C411	C41	0.597470	0.739760	0.782650
C421	C42	0.680700	0.800200	0.674400
C431	C43	0.652100	0.722900	0.945700
C441	C44	0.642700	0.807900	0.584600
S31	S3	0.044920	0.860720	0.856810
S41	S4	0.955080	0.139280	0.143190
N111	N11	0.991000	0.647230	0.956430
N121	N12	0.770110	0.428380	0.077750
N131	N13	0.717020	0.475810	0.126350
N141	N14	0.193330	0.142300	0.342410
N151	N15	0.198620	0.166460	0.244200
N161	N16	0.009000	0.352770	0.043570
N171	N17	0.229890	0.571620	0.922250
N181	N18	0.282980	0.524190	0.873650
N191	N19	0.806670	0.857700	0.657590
N201	N20	0.801380	0.833540	0.755800
Fe31	Fe3	0.000000	0.000000	0.500000
H571	H57	0.888200	0.123200	0.344800
H581	H58	0.790000	0.020600	0.687400
H591	H59	0.644800	0.023800	0.707100
H601	H60	0.769200	0.123100	0.676200
H611	H61	0.792600	0.228600	0.241700
H621	H62	0.768200	0.310000	0.275700
H631	H63	0.645400	0.208100	0.310000
H641	H64	0.315300	0.046600	0.711000
H651	H65	0.446200	0.022900	0.713400
H661	H66	0.389400	0.019700	0.628600
H671	H67	0.759800	0.480300	0.375200
H681	H68	0.797000	0.408900	0.330800
H691	H69	0.844200	0.415400	0.418600
H701	H70	0.362500	0.232000	0.628500
H711	H71	0.111800	0.876800	0.655200
H721	H72	0.210000	0.979400	0.312600
H731	H73	0.355200	0.976200	0.292900
H741	H74	0.230800	0.876900	0.323800
H751	H75	0.207400	0.771400	0.758300
H761	H76	0.231800	0.690000	0.724300
H771	H77	0.354600	0.791900	0.690000
H781	H78	0.684700	0.953400	0.289000
H791	H79	0.553800	0.977100	0.286600
H801	H80	0.610600	0.980300	0.371400
H811	H81	0.240200	0.519700	0.624800
H821	H82	0.203000	0.591100	0.669200
H831	H83	0.155800	0.584600	0.581400
H841	H84	0.637500	0.768000	0.371500
C451	C45	0.926640	0.915540	0.348820
C461	C46	0.766300	0.102700	0.552600
C471	C47	0.709690	0.167890	0.492420
C481	C48	0.762300	0.180000	0.393500
C491	C49	0.740300	0.064100	0.665800
C501	C50	0.740200	0.236600	0.296800
C511	C51	0.488000	0.167800	0.595800
C521	C52	0.619880	0.217350	0.522410
C531	C53	0.644900	0.325600	0.474600
C541	C54	0.402200	0.054300	0.668600
C551	C55	0.772700	0.415400	0.392500
C561	C56	0.073360	0.084460	0.651180
C571	C57	0.233700	0.897300	0.447400
C581	C58	0.290310	0.832110	0.507580
C591	C59	0.237700	0.820000	0.606500
C601	C60	0.259700	0.935900	0.334200
C611	C61	0.259800	0.763400	0.703200
C621	C62	0.512000	0.832200	0.404200
C631	C63	0.380120	0.782650	0.477590
C641	C64	0.355100	0.674400	0.525400
C651	C65	0.597800	0.945700	0.331400
C661	C66	0.227300	0.584600	0.607500
S51	S5	0.901730	0.856810	0.282470
S61	S6	0.098270	0.143190	0.717530
N211	N21	0.947430	0.956430	0.396340
N221	N22	0.847860	0.077750	0.493870
N231	N23	0.843370	0.126350	0.397840
N241	N24	0.535740	0.342410	0.515290
N251	N25	0.442820	0.244200	0.589340
N261	N26	0.052570	0.043570	0.603660
N271	N27	0.152140	0.922250	0.506130
N281	N28	0.156630	0.873650	0.602160
N291	N29	0.464260	0.657590	0.484710
N301	N30	0.557180	0.755800	0.410660
