data_HAJMEL_clean_PM
_symmetry_space_group_name_H-M	'P1'
_cell_length_a	11.021500
_cell_length_b	15.148600
_cell_length_c	15.148600
_cell_angle_alpha	65.683500
_cell_angle_beta	75.964700
_cell_angle_gamma	104.035000
_symmetry_Int_Tables_number 1

loop_
_symmetry_equiv_pos_as_xyz
'x,y,z'

loop_
_atom_site_label
_atom_site_type_symbol
_atom_site_fract_x
_atom_site_fract_y
_atom_site_fract_z
Fe11	Fe1	0.500000	0.500000	0.500000
H11	H1	0.477000	0.687200	0.291800
H21	H2	0.352100	0.707200	0.268600
H31	H3	0.445200	0.676100	0.200600
H41	H4	0.034500	0.241600	0.528700
H51	H5	0.044900	0.275800	0.413500
H61	H6	0.955600	0.309400	0.481000
H71	H7	0.026600	0.711200	0.241700
H81	H8	0.159700	0.713900	0.262400
H91	H9	0.018600	0.629500	0.350500
H101	H10	0.135400	0.375400	0.145000
H111	H11	0.127900	0.331300	0.260500
H121	H12	0.262700	0.419000	0.166400
H131	H13	0.990900	0.628100	0.139400
H141	H14	0.523000	0.312800	0.708200
H151	H15	0.647900	0.292800	0.731400
H161	H16	0.554800	0.323900	0.799400
H171	H17	0.965500	0.758400	0.471300
H181	H18	0.955100	0.724200	0.586500
H191	H19	0.044400	0.690600	0.519000
H201	H20	0.973400	0.288800	0.758300
H211	H21	0.840300	0.286100	0.737600
H221	H22	0.981400	0.370500	0.649500
H231	H23	0.864600	0.624600	0.855000
H241	H24	0.872100	0.668700	0.739500
H251	H25	0.737300	0.581000	0.833600
H261	H26	0.009100	0.371900	0.860600
C11	C1	0.276090	0.349230	0.735960
C21	C2	0.318580	0.552690	0.344550
C31	C3	0.202020	0.492320	0.339860
C41	C4	0.155740	0.393880	0.426160
C51	C5	0.405900	0.665800	0.269800
C61	C6	0.037200	0.296600	0.465800
C71	C7	0.083600	0.595600	0.235900
C81	C8	0.141550	0.522650	0.260300
C91	C9	0.119400	0.475090	0.199690
C101	C10	0.071000	0.669000	0.276300
C111	C11	0.165400	0.392900	0.192200
C121	C12	0.723910	0.650770	0.264040
C131	C13	0.681420	0.447310	0.655450
C141	C14	0.797980	0.507680	0.660140
C151	C15	0.844260	0.606120	0.573840
C161	C16	0.594100	0.334200	0.730200
C171	C17	0.962800	0.703400	0.534200
C181	C18	0.916400	0.404400	0.764100
C191	C19	0.858450	0.477350	0.739700
C201	C20	0.880600	0.524910	0.800310
C211	C21	0.929000	0.331000	0.723700
C221	C22	0.834600	0.607100	0.807800
S11	S1	0.184520	0.282800	0.860630
S21	S2	0.815480	0.717200	0.139370
N11	N1	0.343250	0.396240	0.646590
N21	N2	0.341620	0.493960	0.428200
N31	N3	0.241240	0.397970	0.476150
N41	N4	0.050550	0.515230	0.142180
N51	N5	0.031970	0.589170	0.166260
N61	N6	0.656750	0.603760	0.353410
N71	N7	0.658380	0.506040	0.571800
N81	N8	0.758760	0.602030	0.523850
N91	N9	0.949450	0.484770	0.857820
N101	N10	0.968030	0.410830	0.833740
Fe21	Fe2	0.000000	0.500000	0.000000
H271	H27	0.768800	0.291800	0.021000
H281	H28	0.620700	0.268600	0.024200
H291	H29	0.645800	0.200600	0.123300
H301	H30	0.563200	0.528700	0.229700
H311	H31	0.458400	0.413500	0.310700
H321	H32	0.436600	0.481000	0.209600
H331	H33	0.268300	0.241700	0.047100
H341	H34	0.422100	0.262400	0.023700
H351	H35	0.369100	0.350500	0.020000
H361	H36	0.280400	0.145000	0.479600
H371	H37	0.388400	0.260500	0.408200
H381	H38	0.429100	0.166400	0.414600
H391	H39	0.130300	0.139400	0.232500
H401	H40	0.231200	0.708200	0.979000
H411	H41	0.379300	0.731400	0.975800
H421	H42	0.354200	0.799400	0.876700
H431	H43	0.436800	0.471300	0.770300
H441	H44	0.541600	0.586500	0.689300
H451	H45	0.563400	0.519000	0.790400
H461	H46	0.731700	0.758300	0.952900
H471	H47	0.577900	0.737600	0.976300
H481	H48	0.630900	0.649500	0.980000
H491	H49	0.719600	0.855000	0.520400
H501	H50	0.611600	0.739500	0.591800
H511	H51	0.570900	0.833600	0.585400
H521	H52	0.869700	0.860600	0.767500
C231	C23	0.012050	0.735960	0.914810
C241	C24	0.663130	0.344550	0.102760
C251	C25	0.541880	0.339860	0.167820
C261	C26	0.581900	0.426160	0.179960
C271	C27	0.675700	0.269800	0.064400
C281	C28	0.503000	0.465800	0.237600
C291	C29	0.319500	0.235900	0.168500
C301	C30	0.401850	0.260300	0.217050
C311	C31	0.319090	0.199690	0.325220
C321	C32	0.347300	0.276300	0.054700
C331	C33	0.357600	0.192200	0.414900
C341	C34	0.987950	0.264040	0.085190
C351	C35	0.336870	0.655450	0.897240
C361	C36	0.458120	0.660140	0.832180
C371	C37	0.418100	0.573840	0.820040
C381	C38	0.324300	0.730200	0.935600
C391	C39	0.497000	0.534200	0.762400
C401	C40	0.680500	0.764100	0.831500
C411	C41	0.598150	0.739700	0.782950
C421	C42	0.680910	0.800310	0.674780
C431	C43	0.652700	0.723700	0.945300
C441	C44	0.642400	0.807800	0.585100
S31	S3	0.045150	0.860630	0.856570
S41	S4	0.954850	0.139370	0.143430
N111	N11	0.989840	0.646590	0.957170
N121	N12	0.769820	0.428200	0.077840
N131	N13	0.717390	0.476150	0.125880
N141	N14	0.192730	0.142180	0.342590
N151	N15	0.198230	0.166260	0.244570
N161	N16	0.010160	0.353410	0.042830
N171	N17	0.230180	0.571800	0.922160
N181	N18	0.282610	0.523850	0.874120
N191	N19	0.807270	0.857820	0.657410
N201	N20	0.801770	0.833740	0.755430
Fe31	Fe3	0.000000	0.000000	0.500000
H531	H53	0.789800	0.021000	0.687200
H541	H54	0.644900	0.024200	0.707200
H551	H55	0.769100	0.123300	0.676100
H561	H56	0.792900	0.229700	0.241600
H571	H57	0.769100	0.310700	0.275800
H581	H58	0.646200	0.209600	0.309400
H591	H59	0.315400	0.047100	0.711200
H601	H60	0.445800	0.023700	0.713900
H611	H61	0.389100	0.020000	0.629500
H621	H62	0.760000	0.479600	0.375400
H631	H63	0.796600	0.408200	0.331300
H641	H64	0.843700	0.414600	0.419000
H651	H65	0.362800	0.232500	0.628100
H661	H66	0.210200	0.979000	0.312800
H671	H67	0.355100	0.975800	0.292800
H681	H68	0.230900	0.876700	0.323900
H691	H69	0.207100	0.770300	0.758400
H701	H70	0.230900	0.689300	0.724200
H711	H71	0.353800	0.790400	0.690600
H721	H72	0.684600	0.952900	0.288800
H731	H73	0.554200	0.976300	0.286100
H741	H74	0.610900	0.980000	0.370500
H751	H75	0.240000	0.520400	0.624600
H761	H76	0.203400	0.591800	0.668700
H771	H77	0.156300	0.585400	0.581000
H781	H78	0.637200	0.767500	0.371900
C451	C45	0.926860	0.914810	0.349230
C461	C46	0.765890	0.102760	0.552690
C471	C47	0.709700	0.167820	0.492320
C481	C48	0.761860	0.179960	0.393880
C491	C49	0.740100	0.064400	0.665800
C501	C50	0.740600	0.237600	0.296600
C511	C51	0.488000	0.168500	0.595600
C521	C52	0.618900	0.217050	0.522650
C531	C53	0.644310	0.325220	0.475090
C541	C54	0.402000	0.054700	0.669000
C551	C55	0.772500	0.414900	0.392900
C561	C56	0.073140	0.085190	0.650770
C571	C57	0.234110	0.897240	0.447310
C581	C58	0.290300	0.832180	0.507680
C591	C59	0.238140	0.820040	0.606120
C601	C60	0.259900	0.935600	0.334200
C611	C61	0.259400	0.762400	0.703400
C621	C62	0.512000	0.831500	0.404400
C631	C63	0.381100	0.782950	0.477350
C641	C64	0.355690	0.674780	0.524910
C651	C65	0.598000	0.945300	0.331000
C661	C66	0.227500	0.585100	0.607100
S51	S5	0.901720	0.856570	0.282800
S61	S6	0.098280	0.143430	0.717200
N211	N21	0.947010	0.957170	0.396240
N221	N22	0.847660	0.077840	0.493960
N231	N23	0.843270	0.125880	0.397970
N241	N24	0.535320	0.342590	0.515230
N251	N25	0.442800	0.244570	0.589170
N261	N26	0.052990	0.042830	0.603760
N271	N27	0.152340	0.922160	0.506040
N281	N28	0.156730	0.874120	0.602030
N291	N29	0.464680	0.657410	0.484770
N301	N30	0.557200	0.755430	0.410830
