data_HAKSIY_clean_PM
_symmetry_space_group_name_H-M	'P1'
_cell_length_a	13.857000
_cell_length_b	13.857000
_cell_length_c	17.925000
_cell_angle_alpha	90.000000
_cell_angle_beta	90.000000
_cell_angle_gamma	120.000000
_symmetry_Int_Tables_number 1

loop_
_symmetry_equiv_pos_as_xyz
'x,y,z'

loop_
_atom_site_label
_atom_site_type_symbol
_atom_site_fract_x
_atom_site_fract_y
_atom_site_fract_z
O11	O1	0.649700	0.505900	0.332400
C11	C1	0.598700	0.569800	0.466000
H11	H1	0.666100	0.618800	0.443300
O21	O2	0.494100	0.143800	0.332400
C21	C2	0.430200	0.028900	0.466000
H21	H2	0.381200	0.047300	0.443300
O31	O3	0.856200	0.350300	0.332400
C31	C3	0.971100	0.401300	0.466000
H31	H3	0.952700	0.333900	0.443300
O41	O4	0.350300	0.494100	0.832400
C41	C4	0.401300	0.430200	0.966000
H41	H4	0.333900	0.381200	0.943300
O51	O5	0.505900	0.856200	0.832400
C51	C5	0.569800	0.971100	0.966000
H51	H5	0.618800	0.952700	0.943300
O61	O6	0.143800	0.649700	0.832400
C61	C6	0.028900	0.598700	0.966000
H61	H6	0.047300	0.666100	0.943300
O71	O7	0.505900	0.649700	0.667600
C71	C7	0.569800	0.598700	0.534000
H71	H7	0.618800	0.666100	0.556700
O81	O8	0.143800	0.494100	0.667600
C81	C8	0.028900	0.430200	0.534000
H81	H8	0.047300	0.381200	0.556700
O91	O9	0.350300	0.856200	0.667600
C91	C9	0.401300	0.971100	0.534000
H91	H9	0.333900	0.952700	0.556700
O101	O10	0.494100	0.350300	0.167600
C101	C10	0.430200	0.401300	0.034000
H101	H10	0.381200	0.333900	0.056700
O111	O11	0.856200	0.505900	0.167600
C111	C11	0.971100	0.569800	0.034000
H111	H11	0.952700	0.618800	0.056700
O121	O12	0.649700	0.143800	0.167600
C121	C12	0.598700	0.028900	0.034000
H121	H12	0.666100	0.047300	0.056700
O131	O13	0.350300	0.494100	0.667600
C131	C13	0.401300	0.430200	0.534000
H131	H13	0.333900	0.381200	0.556700
O141	O14	0.505900	0.856200	0.667600
C141	C14	0.569800	0.971100	0.534000
H141	H14	0.618800	0.952700	0.556700
O151	O15	0.143800	0.649700	0.667600
C151	C15	0.028900	0.598700	0.534000
H151	H15	0.047300	0.666100	0.556700
O161	O16	0.649700	0.505900	0.167600
C161	C16	0.598700	0.569800	0.034000
H161	H16	0.666100	0.618800	0.056700
O171	O17	0.494100	0.143800	0.167600
C171	C17	0.430200	0.028900	0.034000
H171	H17	0.381200	0.047300	0.056700
O181	O18	0.856200	0.350300	0.167600
C181	C18	0.971100	0.401300	0.034000
H181	H18	0.952700	0.333900	0.056700
O191	O19	0.494100	0.350300	0.332400
C191	C19	0.430200	0.401300	0.466000
H191	H19	0.381200	0.333900	0.443300
O201	O20	0.856200	0.505900	0.332400
C201	C20	0.971100	0.569800	0.466000
H201	H20	0.952700	0.618800	0.443300
O211	O21	0.649700	0.143800	0.332400
C211	C21	0.598700	0.028900	0.466000
H211	H21	0.666100	0.047300	0.443300
O221	O22	0.505900	0.649700	0.832400
C221	C22	0.569800	0.598700	0.966000
H221	H22	0.618800	0.666100	0.943300
O231	O23	0.143800	0.494100	0.832400
C231	C23	0.028900	0.430200	0.966000
H231	H23	0.047300	0.381200	0.943300
O241	O24	0.350300	0.856200	0.832400
C241	C24	0.401300	0.971100	0.966000
H241	H24	0.333900	0.952700	0.943300
Fe11	Fe1	0.746700	0.493400	0.250000
N11	N1	0.837050	0.674100	0.250000
Fe21	Fe2	0.506600	0.253300	0.250000
N21	N2	0.325900	0.162950	0.250000
Fe31	Fe3	0.746700	0.253300	0.250000
N31	N3	0.837050	0.162950	0.250000
Fe41	Fe4	0.253300	0.506600	0.750000
N41	N4	0.162950	0.325900	0.750000
Fe51	Fe5	0.493400	0.746700	0.750000
N51	N5	0.674100	0.837050	0.750000
Fe61	Fe6	0.253300	0.746700	0.750000
N61	N6	0.162950	0.837050	0.750000
O251	O25	0.666670	0.333330	0.250000
O261	O26	0.333330	0.666670	0.750000
C251	C25	0.561600	0.438400	0.359100
C261	C26	0.528900	0.471100	0.433100
C271	C27	0.561600	0.123200	0.359100
C281	C28	0.528900	0.057800	0.433100
C291	C29	0.876800	0.438400	0.359100
C301	C30	0.942200	0.471100	0.433100
C311	C31	0.438400	0.561600	0.859100
C321	C32	0.471100	0.528900	0.933100
C331	C33	0.438400	0.876800	0.859100
C341	C34	0.471100	0.942200	0.933100
C351	C35	0.123200	0.561600	0.859100
C361	C36	0.057800	0.528900	0.933100
C371	C37	0.438400	0.561600	0.640900
C381	C38	0.471100	0.528900	0.566900
C391	C39	0.123200	0.561600	0.640900
C401	C40	0.057800	0.528900	0.566900
C411	C41	0.438400	0.876800	0.640900
C421	C42	0.471100	0.942200	0.566900
C431	C43	0.561600	0.438400	0.140900
C441	C44	0.528900	0.471100	0.066900
C451	C45	0.876800	0.438400	0.140900
C461	C46	0.942200	0.471100	0.066900
C471	C47	0.561600	0.123200	0.140900
C481	C48	0.528900	0.057800	0.066900
C491	C49	0.870600	0.741200	0.306100
N71	N7	0.927300	0.854600	0.291000
H251	H25	0.857350	0.714700	0.354900
C501	C50	0.258800	0.129400	0.306100
N81	N8	0.145400	0.072700	0.291000
H261	H26	0.285300	0.142650	0.354900
C511	C51	0.870600	0.129400	0.306100
N91	N9	0.927300	0.072700	0.291000
H271	H27	0.857350	0.142650	0.354900
C521	C52	0.129400	0.258800	0.806100
N101	N10	0.072700	0.145400	0.791000
H281	H28	0.142650	0.285300	0.854900
C531	C53	0.741200	0.870600	0.806100
N111	N11	0.854600	0.927300	0.791000
H291	H29	0.714700	0.857350	0.854900
C541	C54	0.129400	0.870600	0.806100
N121	N12	0.072700	0.927300	0.791000
H301	H30	0.142650	0.857350	0.854900
C551	C55	0.741200	0.870600	0.693900
N131	N13	0.854600	0.927300	0.709000
H311	H31	0.714700	0.857350	0.645100
C561	C56	0.129400	0.258800	0.693900
N141	N14	0.072700	0.145400	0.709000
H321	H32	0.142650	0.285300	0.645100
C571	C57	0.129400	0.870600	0.693900
N151	N15	0.072700	0.927300	0.709000
H331	H33	0.142650	0.857350	0.645100
C581	C58	0.258800	0.129400	0.193900
N161	N16	0.145400	0.072700	0.209000
H341	H34	0.285300	0.142650	0.145100
C591	C59	0.870600	0.741200	0.193900
N171	N17	0.927300	0.854600	0.209000
H351	H35	0.857350	0.714700	0.145100
C601	C60	0.870600	0.129400	0.193900
N181	N18	0.927300	0.072700	0.209000
H361	H36	0.857350	0.142650	0.145100
Mg11	Mg1	0.000000	0.000000	0.355200
Mg21	Mg2	0.000000	0.000000	0.855200
Mg31	Mg3	0.000000	0.000000	0.644800
Mg41	Mg4	0.000000	0.000000	0.144800
