data_HAKSOE_clean_PM
_symmetry_space_group_name_H-M	'P1'
_cell_length_a	13.873000
_cell_length_b	13.873000
_cell_length_c	18.455000
_cell_angle_alpha	90.000000
_cell_angle_beta	90.000000
_cell_angle_gamma	120.000000
_symmetry_Int_Tables_number 1

loop_
_symmetry_equiv_pos_as_xyz
'x,y,z'

loop_
_atom_site_label
_atom_site_type_symbol
_atom_site_fract_x
_atom_site_fract_y
_atom_site_fract_z
O11	O1	0.348900	0.487900	0.336300
C11	C1	0.396600	0.425400	0.466100
H11	H1	0.328700	0.377700	0.444200
O21	O2	0.512100	0.861000	0.336300
C21	C2	0.574600	0.971200	0.466100
H21	H2	0.622300	0.951000	0.444200
O31	O3	0.139000	0.651100	0.336300
C31	C3	0.028800	0.603400	0.466100
H31	H3	0.049000	0.671300	0.444200
O41	O4	0.651100	0.512100	0.836300
C41	C4	0.603400	0.574600	0.966100
H41	H4	0.671300	0.622300	0.944200
O51	O5	0.487900	0.139000	0.836300
C51	C5	0.425400	0.028800	0.966100
H51	H5	0.377700	0.049000	0.944200
O61	O6	0.861000	0.348900	0.836300
C61	C6	0.971200	0.396600	0.966100
H61	H6	0.951000	0.328700	0.944200
O71	O7	0.487900	0.348900	0.663700
C71	C7	0.425400	0.396600	0.533900
H71	H7	0.377700	0.328700	0.555800
O81	O8	0.861000	0.512100	0.663700
C81	C8	0.971200	0.574600	0.533900
H81	H8	0.951000	0.622300	0.555800
O91	O9	0.651100	0.139000	0.663700
C91	C9	0.603400	0.028800	0.533900
H91	H9	0.671300	0.049000	0.555800
O101	O10	0.512100	0.651100	0.163700
C101	C10	0.574600	0.603400	0.033900
H101	H10	0.622300	0.671300	0.055800
O111	O11	0.139000	0.487900	0.163700
C111	C11	0.028800	0.425400	0.033900
H111	H11	0.049000	0.377700	0.055800
O121	O12	0.348900	0.861000	0.163700
C121	C12	0.396600	0.971200	0.033900
H121	H12	0.328700	0.951000	0.055800
O131	O13	0.651100	0.512100	0.663700
C131	C13	0.603400	0.574600	0.533900
H131	H13	0.671300	0.622300	0.555800
O141	O14	0.487900	0.139000	0.663700
C141	C14	0.425400	0.028800	0.533900
H141	H14	0.377700	0.049000	0.555800
O151	O15	0.861000	0.348900	0.663700
C151	C15	0.971200	0.396600	0.533900
H151	H15	0.951000	0.328700	0.555800
O161	O16	0.348900	0.487900	0.163700
C161	C16	0.396600	0.425400	0.033900
H161	H16	0.328700	0.377700	0.055800
O171	O17	0.512100	0.861000	0.163700
C171	C17	0.574600	0.971200	0.033900
H171	H17	0.622300	0.951000	0.055800
O181	O18	0.139000	0.651100	0.163700
C181	C18	0.028800	0.603400	0.033900
H181	H18	0.049000	0.671300	0.055800
O191	O19	0.512100	0.651100	0.336300
C191	C19	0.574600	0.603400	0.466100
H191	H19	0.622300	0.671300	0.444200
O201	O20	0.139000	0.487900	0.336300
C201	C20	0.028800	0.425400	0.466100
H201	H20	0.049000	0.377700	0.444200
O211	O21	0.348900	0.861000	0.336300
C211	C21	0.396600	0.971200	0.466100
H211	H21	0.328700	0.951000	0.444200
O221	O22	0.487900	0.348900	0.836300
C221	C22	0.425400	0.396600	0.966100
H221	H22	0.377700	0.328700	0.944200
O231	O23	0.861000	0.512100	0.836300
C231	C23	0.971200	0.574600	0.966100
H231	H23	0.951000	0.622300	0.944200
O241	O24	0.651100	0.139000	0.836300
C241	C24	0.603400	0.028800	0.966100
H241	H24	0.671300	0.049000	0.944200
In11	In1	0.248770	0.497540	0.250000
N11	N1	0.158300	0.316600	0.250000
In21	In2	0.502460	0.751230	0.250000
N21	N2	0.683400	0.841700	0.250000
In31	In3	0.248770	0.751230	0.250000
N31	N3	0.158300	0.841700	0.250000
In41	In4	0.751230	0.502460	0.750000
N41	N4	0.841700	0.683400	0.750000
In51	In5	0.497540	0.248770	0.750000
N51	N5	0.316600	0.158300	0.750000
In61	In6	0.751230	0.248770	0.750000
N61	N6	0.841700	0.158300	0.750000
O251	O25	0.333330	0.666670	0.250000
O261	O26	0.666670	0.333330	0.750000
C251	C25	0.124500	0.249000	0.198000
N71	N7	0.074000	0.148000	0.213300
H251	H25	0.136450	0.272900	0.150400
C261	C26	0.751000	0.875500	0.198000
N81	N8	0.852000	0.926000	0.213300
H261	H26	0.727100	0.863550	0.150400
C271	C27	0.124500	0.875500	0.198000
N91	N9	0.074000	0.926000	0.213300
H271	H27	0.136450	0.863550	0.150400
C281	C28	0.875500	0.751000	0.698000
N101	N10	0.926000	0.852000	0.713300
H281	H28	0.863550	0.727100	0.650400
C291	C29	0.249000	0.124500	0.698000
N111	N11	0.148000	0.074000	0.713300
H291	H29	0.272900	0.136450	0.650400
C301	C30	0.875500	0.124500	0.698000
N121	N12	0.926000	0.074000	0.713300
H301	H30	0.863550	0.136450	0.650400
C311	C31	0.249000	0.124500	0.802000
N131	N13	0.148000	0.074000	0.786700
H311	H31	0.272900	0.136450	0.849600
C321	C32	0.875500	0.751000	0.802000
N141	N14	0.926000	0.852000	0.786700
H321	H32	0.863550	0.727100	0.849600
C331	C33	0.875500	0.124500	0.802000
N151	N15	0.926000	0.074000	0.786700
H331	H33	0.863550	0.136450	0.849600
C341	C34	0.751000	0.875500	0.302000
N161	N16	0.852000	0.926000	0.286700
H341	H34	0.727100	0.863550	0.349600
C351	C35	0.124500	0.249000	0.302000
N171	N17	0.074000	0.148000	0.286700
H351	H35	0.136450	0.272900	0.349600
C361	C36	0.124500	0.875500	0.302000
N181	N18	0.074000	0.926000	0.286700
H361	H36	0.136450	0.863550	0.349600
C371	C37	0.441400	0.558600	0.362400
C381	C38	0.472700	0.527300	0.432800
C391	C39	0.441400	0.882800	0.362400
C401	C40	0.472700	0.945400	0.432800
C411	C41	0.117200	0.558600	0.362400
C421	C42	0.054600	0.527300	0.432800
C431	C43	0.558600	0.441400	0.862400
C441	C44	0.527300	0.472700	0.932800
C451	C45	0.558600	0.117200	0.862400
C461	C46	0.527300	0.054600	0.932800
C471	C47	0.882800	0.441400	0.862400
C481	C48	0.945400	0.472700	0.932800
C491	C49	0.558600	0.441400	0.637600
C501	C50	0.527300	0.472700	0.567200
C511	C51	0.882800	0.441400	0.637600
C521	C52	0.945400	0.472700	0.567200
C531	C53	0.558600	0.117200	0.637600
C541	C54	0.527300	0.054600	0.567200
C551	C55	0.441400	0.558600	0.137600
C561	C56	0.472700	0.527300	0.067200
C571	C57	0.117200	0.558600	0.137600
C581	C58	0.054600	0.527300	0.067200
C591	C59	0.441400	0.882800	0.137600
C601	C60	0.472700	0.945400	0.067200
In71	In7	0.000000	0.000000	0.133900
In81	In8	0.000000	0.000000	0.633900
In91	In9	0.000000	0.000000	0.866100
In101	In10	0.000000	0.000000	0.366100
