data_HAKSAQ_clean_PM
_symmetry_space_group_name_H-M	'P1'
_cell_length_a	13.810000
_cell_length_b	13.810000
_cell_length_c	18.330000
_cell_angle_alpha	90.000000
_cell_angle_beta	90.000000
_cell_angle_gamma	120.000000
_symmetry_Int_Tables_number 1

loop_
_symmetry_equiv_pos_as_xyz
'x,y,z'

loop_
_atom_site_label
_atom_site_type_symbol
_atom_site_fract_x
_atom_site_fract_y
_atom_site_fract_z
O11	O1	0.649000	0.136500	0.664500
C11	C1	0.599100	0.026000	0.533600
H11	H1	0.665400	0.042100	0.556700
O21	O2	0.863500	0.512500	0.664500
C21	C2	0.974000	0.573100	0.533600
H21	H2	0.957900	0.623300	0.556700
O31	O3	0.487500	0.351000	0.664500
C31	C3	0.426900	0.400900	0.533600
H31	H3	0.376700	0.334600	0.556700
O41	O4	0.351000	0.863500	0.164500
C41	C4	0.400900	0.974000	0.033600
H41	H4	0.334600	0.957900	0.056700
O51	O5	0.136500	0.487500	0.164500
C51	C5	0.026000	0.426900	0.033600
H51	H5	0.042100	0.376700	0.056700
O61	O6	0.512500	0.649000	0.164500
C61	C6	0.573100	0.599100	0.033600
H61	H6	0.623300	0.665400	0.056700
O71	O7	0.136500	0.649000	0.335500
C71	C7	0.026000	0.599100	0.466400
H71	H7	0.042100	0.665400	0.443300
O81	O8	0.512500	0.863500	0.335500
C81	C8	0.573100	0.974000	0.466400
H81	H8	0.623300	0.957900	0.443300
O91	O9	0.351000	0.487500	0.335500
C91	C9	0.400900	0.426900	0.466400
H91	H9	0.334600	0.376700	0.443300
O101	O10	0.863500	0.351000	0.835500
C101	C10	0.974000	0.400900	0.966400
H101	H10	0.957900	0.334600	0.943300
O111	O11	0.487500	0.136500	0.835500
C111	C11	0.426900	0.026000	0.966400
H111	H11	0.376700	0.042100	0.943300
O121	O12	0.649000	0.512500	0.835500
C121	C12	0.599100	0.573100	0.966400
H121	H12	0.665400	0.623300	0.943300
O131	O13	0.351000	0.863500	0.335500
C131	C13	0.400900	0.974000	0.466400
H131	H13	0.334600	0.957900	0.443300
O141	O14	0.136500	0.487500	0.335500
C141	C14	0.026000	0.426900	0.466400
H141	H14	0.042100	0.376700	0.443300
O151	O15	0.512500	0.649000	0.335500
C151	C15	0.573100	0.599100	0.466400
H151	H15	0.623300	0.665400	0.443300
O161	O16	0.649000	0.136500	0.835500
C161	C16	0.599100	0.026000	0.966400
H161	H16	0.665400	0.042100	0.943300
O171	O17	0.863500	0.512500	0.835500
C171	C17	0.974000	0.573100	0.966400
H171	H17	0.957900	0.623300	0.943300
O181	O18	0.487500	0.351000	0.835500
C181	C18	0.426900	0.400900	0.966400
H181	H18	0.376700	0.334600	0.943300
O191	O19	0.863500	0.351000	0.664500
C191	C19	0.974000	0.400900	0.533600
H191	H19	0.957900	0.334600	0.556700
O201	O20	0.487500	0.136500	0.664500
C201	C20	0.426900	0.026000	0.533600
H201	H20	0.376700	0.042100	0.556700
O211	O21	0.649000	0.512500	0.664500
C211	C21	0.599100	0.573100	0.533600
H211	H21	0.665400	0.623300	0.556700
O221	O22	0.136500	0.649000	0.164500
C221	C22	0.026000	0.599100	0.033600
H221	H22	0.042100	0.665400	0.056700
O231	O23	0.512500	0.863500	0.164500
C231	C23	0.573100	0.974000	0.033600
H231	H23	0.623300	0.957900	0.056700
O241	O24	0.351000	0.487500	0.164500
C241	C24	0.400900	0.426900	0.033600
H241	H24	0.334600	0.376700	0.056700
In11	In1	0.751190	0.248810	0.750000
N11	N1	0.840800	0.159200	0.750000
In21	In2	0.751190	0.502380	0.750000
N21	N2	0.840800	0.681600	0.750000
In31	In3	0.497620	0.248810	0.750000
N31	N3	0.318400	0.159200	0.750000
In41	In4	0.248810	0.751190	0.250000
N41	N4	0.159200	0.840800	0.250000
In51	In5	0.248810	0.497620	0.250000
N51	N5	0.159200	0.318400	0.250000
In61	In6	0.502380	0.751190	0.250000
N61	N6	0.681600	0.840800	0.250000
O251	O25	0.666670	0.333330	0.750000
O261	O26	0.333330	0.666670	0.250000
C251	C25	0.557100	0.114200	0.637800
C261	C26	0.527000	0.054000	0.566300
C271	C27	0.885800	0.442900	0.637800
C281	C28	0.946000	0.473000	0.566300
C291	C29	0.557100	0.442900	0.637800
C301	C30	0.527000	0.473000	0.566300
C311	C31	0.442900	0.885800	0.137800
C321	C32	0.473000	0.946000	0.066300
C331	C33	0.114200	0.557100	0.137800
C341	C34	0.054000	0.527000	0.066300
C351	C35	0.442900	0.557100	0.137800
C361	C36	0.473000	0.527000	0.066300
C371	C37	0.114200	0.557100	0.362200
C381	C38	0.054000	0.527000	0.433700
C391	C39	0.442900	0.885800	0.362200
C401	C40	0.473000	0.946000	0.433700
C411	C41	0.442900	0.557100	0.362200
C421	C42	0.473000	0.527000	0.433700
C431	C43	0.885800	0.442900	0.862200
C441	C44	0.946000	0.473000	0.933700
C451	C45	0.557100	0.114200	0.862200
C461	C46	0.527000	0.054000	0.933700
C471	C47	0.557100	0.442900	0.862200
C481	C48	0.527000	0.473000	0.933700
C491	C49	0.873600	0.126400	0.696200
N71	N7	0.927300	0.072700	0.712400
H251	H25	0.860800	0.139200	0.648300
C501	C50	0.873600	0.747200	0.696200
N81	N8	0.927300	0.854600	0.712400
H261	H26	0.860800	0.721600	0.648300
C511	C51	0.252800	0.126400	0.696200
N91	N9	0.145400	0.072700	0.712400
H271	H27	0.278400	0.139200	0.648300
C521	C52	0.126400	0.873600	0.196200
N101	N10	0.072700	0.927300	0.212400
H281	H28	0.139200	0.860800	0.148300
C531	C53	0.126400	0.252800	0.196200
N111	N11	0.072700	0.145400	0.212400
H291	H29	0.139200	0.278400	0.148300
C541	C54	0.747200	0.873600	0.196200
N121	N12	0.854600	0.927300	0.212400
H301	H30	0.721600	0.860800	0.148300
C551	C55	0.126400	0.873600	0.303800
N131	N13	0.072700	0.927300	0.287600
H311	H31	0.139200	0.860800	0.351700
C561	C56	0.747200	0.873600	0.303800
N141	N14	0.854600	0.927300	0.287600
H321	H32	0.721600	0.860800	0.351700
C571	C57	0.126400	0.252800	0.303800
N151	N15	0.072700	0.145400	0.287600
H331	H33	0.139200	0.278400	0.351700
C581	C58	0.873600	0.126400	0.803800
N161	N16	0.927300	0.072700	0.787600
H341	H34	0.860800	0.139200	0.851700
C591	C59	0.252800	0.126400	0.803800
N171	N17	0.145400	0.072700	0.787600
H351	H35	0.278400	0.139200	0.851700
C601	C60	0.873600	0.747200	0.803800
N181	N18	0.927300	0.854600	0.787600
H361	H36	0.860800	0.721600	0.851700
