data_HAKVUN_clean_PM
_symmetry_space_group_name_H-M	'P1'
_cell_length_a	13.636000
_cell_length_b	13.636000
_cell_length_c	14.922200
_cell_angle_alpha	90.000000
_cell_angle_beta	90.000000
_cell_angle_gamma	120.000000
_symmetry_Int_Tables_number 1

loop_
_symmetry_equiv_pos_as_xyz
'x,y,z'

loop_
_atom_site_label
_atom_site_type_symbol
_atom_site_fract_x
_atom_site_fract_y
_atom_site_fract_z
O11	O1	0.885600	0.397800	0.646900
O21	O2	0.771800	0.208700	0.651500
C11	C1	0.928800	0.281900	0.557700
C21	C2	0.854700	0.296800	0.624300
C31	C3	0.933200	0.182900	0.554900
H11	H1	0.886600	0.124700	0.593700
O31	O3	0.602200	0.487800	0.646900
O41	O4	0.791300	0.563100	0.651500
C41	C4	0.718100	0.646900	0.557700
C51	C5	0.703200	0.557900	0.624300
C61	C6	0.817100	0.750300	0.554900
H21	H2	0.875300	0.761900	0.593700
O51	O5	0.512200	0.114400	0.646900
O61	O6	0.436900	0.228200	0.651500
C71	C7	0.353100	0.071200	0.557700
C81	C8	0.442100	0.145300	0.624300
C91	C9	0.249700	0.066800	0.554900
H31	H3	0.238100	0.113400	0.593700
O71	O7	0.885600	0.397800	0.853100
O81	O8	0.771800	0.208700	0.848500
C101	C10	0.928800	0.281900	0.942300
C111	C11	0.854700	0.296800	0.875700
C121	C12	0.933200	0.182900	0.945100
H41	H4	0.886600	0.124700	0.906300
O91	O9	0.602200	0.487800	0.853100
O101	O10	0.791300	0.563100	0.848500
C131	C13	0.718100	0.646900	0.942300
C141	C14	0.703200	0.557900	0.875700
C151	C15	0.817100	0.750300	0.945100
H51	H5	0.875300	0.761900	0.906300
O111	O11	0.512200	0.114400	0.853100
O121	O12	0.436900	0.228200	0.848500
C161	C16	0.353100	0.071200	0.942300
C171	C17	0.442100	0.145300	0.875700
C181	C18	0.249700	0.066800	0.945100
H61	H6	0.238100	0.113400	0.906300
O131	O13	0.397800	0.885600	0.353100
O141	O14	0.208700	0.771800	0.348500
C191	C19	0.281900	0.928800	0.442300
C201	C20	0.296800	0.854700	0.375700
C211	C21	0.182900	0.933200	0.445100
H71	H7	0.124700	0.886600	0.406300
O151	O15	0.487800	0.602200	0.353100
O161	O16	0.563100	0.791300	0.348500
C221	C22	0.646900	0.718100	0.442300
C231	C23	0.557900	0.703200	0.375700
C241	C24	0.750300	0.817100	0.445100
H81	H8	0.761900	0.875300	0.406300
O171	O17	0.114400	0.512200	0.353100
O181	O18	0.228200	0.436900	0.348500
C251	C25	0.071200	0.353100	0.442300
C261	C26	0.145300	0.442100	0.375700
C271	C27	0.066800	0.249700	0.445100
H91	H9	0.113400	0.238100	0.406300
O191	O19	0.397800	0.885600	0.146900
O201	O20	0.208700	0.771800	0.151500
C281	C28	0.281900	0.928800	0.057700
C291	C29	0.296800	0.854700	0.124300
C301	C30	0.182900	0.933200	0.054900
H101	H10	0.124700	0.886600	0.093700
O211	O21	0.487800	0.602200	0.146900
O221	O22	0.563100	0.791300	0.151500
C311	C31	0.646900	0.718100	0.057700
C321	C32	0.557900	0.703200	0.124300
C331	C33	0.750300	0.817100	0.054900
H111	H11	0.761900	0.875300	0.093700
O231	O23	0.114400	0.512200	0.146900
O241	O24	0.228200	0.436900	0.151500
C341	C34	0.071200	0.353100	0.057700
C351	C35	0.145300	0.442100	0.124300
C361	C36	0.066800	0.249700	0.054900
H121	H12	0.113400	0.238100	0.093700
In11	In1	0.641270	0.172670	0.750000
In21	In2	0.827330	0.468600	0.750000
In31	In3	0.531400	0.358730	0.750000
In41	In4	0.172670	0.641270	0.250000
In51	In5	0.468600	0.827330	0.250000
In61	In6	0.358730	0.531400	0.250000
O251	O25	0.666670	0.333330	0.750000
O261	O26	0.333330	0.666670	0.250000
C371	C37	0.000000	0.371000	0.500000
H131	H13	0.000000	0.439200	0.500000
N11	N1	0.000000	0.166000	0.500000
C381	C38	0.629000	0.629000	0.500000
H141	H14	0.560800	0.560800	0.500000
N21	N2	0.834000	0.834000	0.500000
C391	C39	0.371000	0.000000	0.500000
H151	H15	0.439200	0.000000	0.500000
N31	N3	0.166000	0.000000	0.500000
C401	C40	0.000000	0.371000	0.000000
H161	H16	0.000000	0.439200	0.000000
N41	N4	0.000000	0.166000	0.000000
C411	C41	0.629000	0.629000	0.000000
H171	H17	0.560800	0.560800	0.000000
N51	N5	0.834000	0.834000	0.000000
C421	C42	0.371000	0.000000	0.000000
H181	H18	0.439200	0.000000	0.000000
N61	N6	0.166000	0.000000	0.000000
Ag11	Ag1	0.000000	0.000000	0.500000
Ag21	Ag2	0.000000	0.000000	0.000000
