data_HAKWUM_clean_PM
_symmetry_space_group_name_H-M	'P1'
_cell_length_a	5.043200
_cell_length_b	7.246800
_cell_length_c	8.349900
_cell_angle_alpha	107.489000
_cell_angle_beta	92.444000
_cell_angle_gamma	109.338000
_symmetry_Int_Tables_number 1

loop_
_symmetry_equiv_pos_as_xyz
'x,y,z'

loop_
_atom_site_label
_atom_site_type_symbol
_atom_site_fract_x
_atom_site_fract_y
_atom_site_fract_z
Ga11	Ga1	0.000000	0.500000	0.000000
Ga21	Ga2	0.500000	0.000000	0.000000
P11	P1	0.512700	0.546370	0.776030
P21	P2	0.487300	0.453630	0.223970
H11	H1	0.219600	0.479000	0.529800
H21	H2	0.343000	0.302600	0.508400
H31	H3	0.780400	0.521000	0.470200
H41	H4	0.657000	0.697400	0.491600
C11	C1	0.391600	0.451700	0.550300
C21	C2	0.608400	0.548300	0.449700
O11	O1	0.269000	0.433600	0.855700
O21	O2	0.593100	0.781400	0.836800
O31	O3	0.774400	0.490300	0.799500
O41	O4	0.731000	0.566400	0.144300
O51	O5	0.406900	0.218600	0.163200
O61	O6	0.225600	0.509700	0.200500
F11	F1	0.194700	0.797200	0.058900
F21	F2	0.805300	0.202800	0.941100
