data_HAMRIY_clean_PM
_symmetry_space_group_name_H-M	'P1'
_cell_length_a	13.323800
_cell_length_b	13.323800
_cell_length_c	14.336800
_cell_angle_alpha	90.000000
_cell_angle_beta	90.000000
_cell_angle_gamma	120.000000
_symmetry_Int_Tables_number 1

loop_
_symmetry_equiv_pos_as_xyz
'x,y,z'

loop_
_atom_site_label
_atom_site_type_symbol
_atom_site_fract_x
_atom_site_fract_y
_atom_site_fract_z
Ho11	Ho1	0.666670	0.333340	0.167340
Ho21	Ho2	0.333330	0.666660	0.332660
Ho31	Ho3	0.333330	0.666660	0.832660
Ho41	Ho4	0.666670	0.333340	0.667340
Cu11	Cu1	0.500000	0.000000	0.000000
Cu21	Cu2	0.500000	0.500000	0.000000
Cu31	Cu3	0.000000	0.500000	0.000000
Cu41	Cu4	0.500000	0.000000	0.500000
Cu51	Cu5	0.000000	0.500000	0.500000
Cu61	Cu6	0.500000	0.500000	0.500000
H11	H1	0.650000	0.977000	0.921000
H21	H2	0.820600	0.139500	0.979400
H31	H3	0.746500	0.041000	0.051300
H41	H4	0.686200	0.085100	0.805500
H51	H5	0.733500	0.193800	0.870900
H61	H6	0.327000	0.350000	0.921000
H71	H7	0.318900	0.179400	0.979400
H81	H8	0.294500	0.253500	0.051300
H91	H9	0.398900	0.313800	0.805500
H101	H10	0.460300	0.266500	0.870900
H111	H11	0.023000	0.673000	0.921000
H121	H12	0.860500	0.681100	0.979400
H131	H13	0.959000	0.705500	0.051300
H141	H14	0.914900	0.601100	0.805500
H151	H15	0.806200	0.539700	0.870900
H161	H16	0.673000	0.023000	0.579000
H171	H17	0.681100	0.860500	0.520600
H181	H18	0.705500	0.959000	0.448700
H191	H19	0.601100	0.914900	0.694500
H201	H20	0.539700	0.806200	0.629100
H211	H21	0.977000	0.650000	0.579000
H221	H22	0.139500	0.820600	0.520600
H231	H23	0.041000	0.746500	0.448700
H241	H24	0.085100	0.686200	0.694500
H251	H25	0.193800	0.733500	0.629100
H261	H26	0.350000	0.327000	0.579000
H271	H27	0.179400	0.318900	0.520600
H281	H28	0.253500	0.294500	0.448700
H291	H29	0.313800	0.398900	0.694500
H301	H30	0.266500	0.460300	0.629100
H311	H31	0.350000	0.023000	0.079000
H321	H32	0.179400	0.860500	0.020600
H331	H33	0.253500	0.959000	0.948700
H341	H34	0.313800	0.914900	0.194500
H351	H35	0.266500	0.806200	0.129100
H361	H36	0.673000	0.650000	0.079000
H371	H37	0.681100	0.820600	0.020600
H381	H38	0.705500	0.746500	0.948700
H391	H39	0.601100	0.686200	0.194500
H401	H40	0.539700	0.733500	0.129100
H411	H41	0.977000	0.327000	0.079000
H421	H42	0.139500	0.318900	0.020600
H431	H43	0.041000	0.294500	0.948700
H441	H44	0.085100	0.398900	0.194500
H451	H45	0.193800	0.460300	0.129100
H461	H46	0.327000	0.977000	0.421000
H471	H47	0.318900	0.139500	0.479400
H481	H48	0.294500	0.041000	0.551300
H491	H49	0.398900	0.085100	0.305500
H501	H50	0.460300	0.193800	0.370900
H511	H51	0.023000	0.350000	0.421000
H521	H52	0.860500	0.179400	0.479400
H531	H53	0.959000	0.253500	0.551300
H541	H54	0.914900	0.313800	0.305500
H551	H55	0.806200	0.266500	0.370900
H561	H56	0.650000	0.673000	0.421000
H571	H57	0.820600	0.681100	0.479400
H581	H58	0.746500	0.705500	0.551300
H591	H59	0.686200	0.601100	0.305500
H601	H60	0.733500	0.539700	0.370900
C11	C1	0.731600	0.185000	0.069700
C21	C2	0.746500	0.099600	0.011200
C31	C3	0.668200	0.116900	0.859600
C41	C4	0.563000	0.126200	0.839300
C51	C5	0.453400	0.268400	0.069700
C61	C6	0.353100	0.253500	0.011200
C71	C7	0.448700	0.331800	0.859600
C81	C8	0.563200	0.437000	0.839300
C91	C9	0.815000	0.546600	0.069700
C101	C10	0.900400	0.646900	0.011200
C111	C11	0.883100	0.551300	0.859600
C121	C12	0.873800	0.436800	0.839300
C131	C13	0.546600	0.815000	0.430300
C141	C14	0.646900	0.900400	0.488800
C151	C15	0.551300	0.883100	0.640400
C161	C16	0.436800	0.873800	0.660700
C171	C17	0.185000	0.731600	0.430300
C181	C18	0.099600	0.746500	0.488800
C191	C19	0.116900	0.668200	0.640400
C201	C20	0.126200	0.563000	0.660700
C211	C21	0.268400	0.453400	0.430300
C221	C22	0.253500	0.353100	0.488800
C231	C23	0.331800	0.448700	0.640400
C241	C24	0.437000	0.563200	0.660700
C251	C25	0.268400	0.815000	0.930300
C261	C26	0.253500	0.900400	0.988800
C271	C27	0.331800	0.883100	0.140400
C281	C28	0.437000	0.873800	0.160700
C291	C29	0.546600	0.731600	0.930300
C301	C30	0.646900	0.746500	0.988800
C311	C31	0.551300	0.668200	0.140400
C321	C32	0.436800	0.563000	0.160700
C331	C33	0.185000	0.453400	0.930300
C341	C34	0.099600	0.353100	0.988800
C351	C35	0.116900	0.448700	0.140400
C361	C36	0.126200	0.563200	0.160700
C371	C37	0.453400	0.185000	0.569700
C381	C38	0.353100	0.099600	0.511200
C391	C39	0.448700	0.116900	0.359600
C401	C40	0.563200	0.126200	0.339300
C411	C41	0.815000	0.268400	0.569700
C421	C42	0.900400	0.253500	0.511200
C431	C43	0.883100	0.331800	0.359600
C441	C44	0.873800	0.437000	0.339300
C451	C45	0.731600	0.546600	0.569700
C461	C46	0.746500	0.646900	0.511200
C471	C47	0.668200	0.551300	0.359600
C481	C48	0.563000	0.436800	0.339300
N11	N1	0.652400	0.042900	0.941200
N21	N2	0.390500	0.347600	0.941200
N31	N3	0.957100	0.609500	0.941200
N41	N4	0.609500	0.957100	0.558800
N51	N5	0.042900	0.652400	0.558800
N61	N6	0.347600	0.390500	0.558800
N71	N7	0.347600	0.957100	0.058800
N81	N8	0.609500	0.652400	0.058800
N91	N9	0.042900	0.390500	0.058800
N101	N10	0.390500	0.042900	0.441200
N111	N11	0.957100	0.347600	0.441200
N121	N12	0.652400	0.609500	0.441200
O11	O1	0.639400	0.189500	0.059400
O21	O2	0.806800	0.246100	0.128200
O31	O3	0.565600	0.185200	0.770600
O41	O4	0.475800	0.073800	0.891100
O51	O5	0.550100	0.360600	0.059400
O61	O6	0.439300	0.193200	0.128200
O71	O7	0.619600	0.434400	0.770600
O81	O8	0.598000	0.524200	0.891100
O91	O9	0.810500	0.449900	0.059400
O101	O10	0.753900	0.560700	0.128200
O111	O11	0.814800	0.380400	0.770600
O121	O12	0.926200	0.402000	0.891100
O131	O13	0.449900	0.810500	0.440600
O141	O14	0.560700	0.753900	0.371800
O151	O15	0.380400	0.814800	0.729400
O161	O16	0.402000	0.926200	0.608900
O171	O17	0.189500	0.639400	0.440600
O181	O18	0.246100	0.806800	0.371800
O191	O19	0.185200	0.565600	0.729400
O201	O20	0.073800	0.475800	0.608900
O211	O21	0.360600	0.550100	0.440600
O221	O22	0.193200	0.439300	0.371800
O231	O23	0.434400	0.619600	0.729400
O241	O24	0.524200	0.598000	0.608900
O251	O25	0.360600	0.810500	0.940600
O261	O26	0.193200	0.753900	0.871800
O271	O27	0.434400	0.814800	0.229400
O281	O28	0.524200	0.926200	0.108900
O291	O29	0.449900	0.639400	0.940600
O301	O30	0.560700	0.806800	0.871800
O311	O31	0.380400	0.565600	0.229400
O321	O32	0.402000	0.475800	0.108900
O331	O33	0.189500	0.550100	0.940600
O341	O34	0.246100	0.439300	0.871800
O351	O35	0.185200	0.619600	0.229400
O361	O36	0.073800	0.598000	0.108900
O371	O37	0.550100	0.189500	0.559400
O381	O38	0.439300	0.246100	0.628200
O391	O39	0.619600	0.185200	0.270600
O401	O40	0.598000	0.073800	0.391100
O411	O41	0.810500	0.360600	0.559400
O421	O42	0.753900	0.193200	0.628200
O431	O43	0.814800	0.434400	0.270600
O441	O44	0.926200	0.524200	0.391100
O451	O45	0.639400	0.449900	0.559400
O461	O46	0.806800	0.560700	0.628200
O471	O47	0.565600	0.380400	0.270600
O481	O48	0.475800	0.402000	0.391100
