data_HAPGIR_clean_PM
_symmetry_space_group_name_H-M	'P1'
_cell_length_a	14.208000
_cell_length_b	14.095000
_cell_length_c	15.117000
_cell_angle_alpha	90.000000
_cell_angle_beta	105.310000
_cell_angle_gamma	90.000000
_symmetry_Int_Tables_number 1

loop_
_symmetry_equiv_pos_as_xyz
'x,y,z'

loop_
_atom_site_label
_atom_site_type_symbol
_atom_site_fract_x
_atom_site_fract_y
_atom_site_fract_z
Mn11	Mn1	0.669750	0.854960	0.159560
Mn21	Mn2	0.752030	0.024150	0.016570
O11	O1	0.641100	0.927200	0.027100
H11	H1	0.644000	0.894000	0.981000
O21	O2	0.840900	0.002200	0.922900
O31	O3	0.725600	0.897600	0.860300
O41	O4	0.162700	0.635300	0.412000
O51	O5	0.012800	0.633900	0.435600
O61	O6	0.449200	0.578400	0.375400
O71	O7	0.332400	0.491700	0.278500
C11	C1	0.440200	0.769800	0.163200
C21	C2	0.346500	0.790700	0.108900
C31	C3	0.265600	0.734600	0.110600
H21	H2	0.202200	0.748200	0.072800
C41	C4	0.282400	0.659200	0.169500
H31	H3	0.230100	0.617500	0.170300
C51	C5	0.376400	0.641400	0.229800
C61	C6	0.456600	0.695600	0.227100
H41	H4	0.519500	0.683300	0.266400
C71	C7	0.386700	0.563600	0.300000
C81	C8	0.922600	0.828500	0.218600
C91	C9	0.994600	0.864300	0.178700
C101	C10	0.092400	0.836700	0.209700
H51	H5	0.140800	0.861200	0.183000
C111	C11	0.115300	0.772500	0.280600
H61	H6	0.180800	0.751400	0.302500
C121	C12	0.043700	0.736700	0.322100
C131	C13	0.946700	0.763900	0.292200
H71	H7	0.898800	0.740100	0.319900
C141	C14	0.075300	0.663000	0.396000
C151	C15	0.802000	0.939400	0.862700
H81	H8	0.834500	0.924300	0.817100
N11	N1	0.353700	0.869500	0.058100
N21	N2	0.448100	0.891800	0.079700
N31	N3	0.503400	0.834500	0.141500
N41	N4	0.835100	0.867400	0.171600
N51	N5	0.854800	0.924200	0.108700
N61	N6	0.949400	0.923900	0.110200
Mn31	Mn3	0.330250	0.354960	0.340440
Mn41	Mn4	0.247970	0.524150	0.483430
O81	O8	0.358900	0.427200	0.472900
H91	H9	0.356000	0.394000	0.519000
O91	O9	0.159100	0.502200	0.577100
O101	O10	0.274400	0.397600	0.639700
O111	O11	0.837300	0.135300	0.088000
O121	O12	0.987200	0.133900	0.064400
O131	O13	0.550800	0.078400	0.124600
O141	O14	0.667600	0.991700	0.221500
C161	C16	0.559800	0.269800	0.336800
C171	C17	0.653500	0.290700	0.391100
C181	C18	0.734400	0.234600	0.389400
H101	H10	0.797800	0.248200	0.427200
C191	C19	0.717600	0.159200	0.330500
H111	H11	0.769900	0.117500	0.329700
C201	C20	0.623600	0.141400	0.270200
C211	C21	0.543400	0.195600	0.272900
H121	H12	0.480500	0.183300	0.233600
C221	C22	0.613300	0.063600	0.200000
C231	C23	0.077400	0.328500	0.281400
C241	C24	0.005400	0.364300	0.321300
C251	C25	0.907600	0.336700	0.290300
H131	H13	0.859200	0.361200	0.317000
C261	C26	0.884700	0.272500	0.219400
H141	H14	0.819200	0.251400	0.197500
C271	C27	0.956300	0.236700	0.177900
C281	C28	0.053300	0.263900	0.207800
H151	H15	0.101200	0.240100	0.180100
C291	C29	0.924700	0.163000	0.104000
C301	C30	0.198000	0.439400	0.637300
H161	H16	0.165500	0.424300	0.682900
N71	N7	0.646300	0.369500	0.441900
N81	N8	0.551900	0.391800	0.420300
N91	N9	0.496600	0.334500	0.358500
N101	N10	0.164900	0.367400	0.328400
N111	N11	0.145200	0.424200	0.391300
N121	N12	0.050600	0.423900	0.389800
Mn51	Mn5	0.330250	0.145040	0.840440
Mn61	Mn6	0.247970	0.975850	0.983430
O151	O15	0.358900	0.072800	0.972900
H171	H17	0.356000	0.106000	0.019000
O161	O16	0.159100	0.997800	0.077100
O171	O17	0.274400	0.102400	0.139700
O181	O18	0.837300	0.364700	0.588000
O191	O19	0.987200	0.366100	0.564400
O201	O20	0.550800	0.421600	0.624600
O211	O21	0.667600	0.508300	0.721500
C311	C31	0.559800	0.230200	0.836800
C321	C32	0.653500	0.209300	0.891100
C331	C33	0.734400	0.265400	0.889400
H181	H18	0.797800	0.251800	0.927200
C341	C34	0.717600	0.340800	0.830500
H191	H19	0.769900	0.382500	0.829700
C351	C35	0.623600	0.358600	0.770200
C361	C36	0.543400	0.304400	0.772900
H201	H20	0.480500	0.316700	0.733600
C371	C37	0.613300	0.436400	0.700000
C381	C38	0.077400	0.171500	0.781400
C391	C39	0.005400	0.135700	0.821300
C401	C40	0.907600	0.163300	0.790300
H211	H21	0.859200	0.138800	0.817000
C411	C41	0.884700	0.227500	0.719400
H221	H22	0.819200	0.248600	0.697500
C421	C42	0.956300	0.263300	0.677900
C431	C43	0.053300	0.236100	0.707800
H231	H23	0.101200	0.259900	0.680100
C441	C44	0.924700	0.337000	0.604000
C451	C45	0.198000	0.060600	0.137300
H241	H24	0.165500	0.075700	0.182900
N131	N13	0.646300	0.130500	0.941900
N141	N14	0.551900	0.108200	0.920300
N151	N15	0.496600	0.165500	0.858500
N161	N16	0.164900	0.132600	0.828400
N171	N17	0.145200	0.075800	0.891300
N181	N18	0.050600	0.076100	0.889800
Mn71	Mn7	0.669750	0.645040	0.659560
Mn81	Mn8	0.752030	0.475850	0.516570
O221	O22	0.641100	0.572800	0.527100
H251	H25	0.644000	0.606000	0.481000
O231	O23	0.840900	0.497800	0.422900
O241	O24	0.725600	0.602400	0.360300
O251	O25	0.162700	0.864700	0.912000
O261	O26	0.012800	0.866100	0.935600
O271	O27	0.449200	0.921600	0.875400
O281	O28	0.332400	0.008300	0.778500
C461	C46	0.440200	0.730200	0.663200
C471	C47	0.346500	0.709300	0.608900
C481	C48	0.265600	0.765400	0.610600
H261	H26	0.202200	0.751800	0.572800
C491	C49	0.282400	0.840800	0.669500
H271	H27	0.230100	0.882500	0.670300
C501	C50	0.376400	0.858600	0.729800
C511	C51	0.456600	0.804400	0.727100
H281	H28	0.519500	0.816700	0.766400
C521	C52	0.386700	0.936400	0.800000
C531	C53	0.922600	0.671500	0.718600
C541	C54	0.994600	0.635700	0.678700
C551	C55	0.092400	0.663300	0.709700
H291	H29	0.140800	0.638800	0.683000
C561	C56	0.115300	0.727500	0.780600
H301	H30	0.180800	0.748600	0.802500
C571	C57	0.043700	0.763300	0.822100
C581	C58	0.946700	0.736100	0.792200
H311	H31	0.898800	0.759900	0.819900
C591	C59	0.075300	0.837000	0.896000
C601	C60	0.802000	0.560600	0.362700
H321	H32	0.834500	0.575700	0.317100
N191	N19	0.353700	0.630500	0.558100
N201	N20	0.448100	0.608200	0.579700
N211	N21	0.503400	0.665500	0.641500
N221	N22	0.835100	0.632600	0.671600
N231	N23	0.854800	0.575800	0.608700
N241	N24	0.949400	0.576100	0.610200
Mn91	Mn9	0.500000	0.000000	0.000000
Mn101	Mn10	0.500000	0.500000	0.500000
Mn111	Mn11	0.000000	0.000000	0.000000
Mn121	Mn12	0.000000	0.500000	0.500000
