data_HAPPAS_clean_PM
_symmetry_space_group_name_H-M	'P1'
_cell_length_a	21.617000
_cell_length_b	8.237800
_cell_length_c	23.158000
_cell_angle_alpha	90.000000
_cell_angle_beta	99.426000
_cell_angle_gamma	90.000000
_symmetry_Int_Tables_number 1

loop_
_symmetry_equiv_pos_as_xyz
'x,y,z'

loop_
_atom_site_label
_atom_site_type_symbol
_atom_site_fract_x
_atom_site_fract_y
_atom_site_fract_z
C11	C1	0.172300	0.785100	0.178000
C21	C2	0.049200	0.992400	0.070200
C31	C3	0.092400	0.883000	0.097500
H11	H1	0.098800	0.786300	0.078600
C41	C4	0.259700	0.703100	0.358800
C51	C5	0.263000	0.502800	0.438800
H21	H2	0.236200	0.438900	0.412700
C61	C6	0.325400	0.539100	0.533100
H31	H3	0.341600	0.498200	0.569900
C71	C7	0.126900	0.913200	0.152600
C81	C8	0.281600	0.652200	0.421500
C91	C9	0.284000	0.446900	0.495200
C101	C10	0.043200	0.140300	0.095200
H41	H4	0.016500	0.218600	0.075900
C111	C11	0.322500	0.751400	0.459600
C121	C12	0.343700	0.693900	0.517000
H51	H5	0.369500	0.758300	0.543900
C131	C13	0.077900	0.171800	0.150100
H61	H6	0.071400	0.269100	0.168600
C141	C14	0.121700	0.063700	0.178300
Lu11	Lu1	0.247900	0.536930	0.228550
N11	N1	0.018100	0.948300	0.012900
N21	N2	0.264600	0.301000	0.518400
O11	O1	0.237900	0.587900	0.322100
O21	O2	0.154600	0.104300	0.229400
O31	O3	0.212200	0.809300	0.224900
O41	O4	0.168400	0.643800	0.155300
O51	O5	0.270700	0.849300	0.345000
O61	O6	0.339900	0.899000	0.445900
C151	C15	0.672300	0.285100	0.178000
C161	C16	0.549200	0.492400	0.070200
C171	C17	0.592400	0.383000	0.097500
H71	H7	0.598800	0.286300	0.078600
C181	C18	0.759700	0.203100	0.358800
C191	C19	0.763000	0.002800	0.438800
H81	H8	0.736200	0.938900	0.412700
C201	C20	0.825400	0.039100	0.533100
H91	H9	0.841600	0.998200	0.569900
C211	C21	0.626900	0.413200	0.152600
C221	C22	0.781600	0.152200	0.421500
C231	C23	0.784000	0.946900	0.495200
C241	C24	0.543200	0.640300	0.095200
H101	H10	0.516500	0.718600	0.075900
C251	C25	0.822500	0.251400	0.459600
C261	C26	0.843700	0.193900	0.517000
H111	H11	0.869500	0.258300	0.543900
C271	C27	0.577900	0.671800	0.150100
H121	H12	0.571400	0.769100	0.168600
C281	C28	0.621700	0.563700	0.178300
Lu21	Lu2	0.747900	0.036930	0.228550
N31	N3	0.518100	0.448300	0.012900
N41	N4	0.764600	0.801000	0.518400
O71	O7	0.737900	0.087900	0.322100
O81	O8	0.654600	0.604300	0.229400
O91	O9	0.712200	0.309300	0.224900
O101	O10	0.668400	0.143800	0.155300
O111	O11	0.770700	0.349300	0.345000
O121	O12	0.839900	0.399000	0.445900
C291	C29	0.827700	0.785100	0.322000
C301	C30	0.950800	0.992400	0.429800
C311	C31	0.907600	0.883000	0.402500
H131	H13	0.901200	0.786300	0.421400
C321	C32	0.740300	0.703100	0.141200
C331	C33	0.737000	0.502800	0.061200
H141	H14	0.763800	0.438900	0.087300
C341	C34	0.674600	0.539100	0.966900
H151	H15	0.658400	0.498200	0.930100
C351	C35	0.873100	0.913200	0.347400
C361	C36	0.718400	0.652200	0.078500
C371	C37	0.716000	0.446900	0.004800
C381	C38	0.956800	0.140300	0.404800
H161	H16	0.983500	0.218600	0.424100
C391	C39	0.677500	0.751400	0.040400
C401	C40	0.656300	0.693900	0.983000
H171	H17	0.630500	0.758300	0.956100
C411	C41	0.922100	0.171800	0.349900
H181	H18	0.928600	0.269100	0.331400
C421	C42	0.878300	0.063700	0.321700
Lu31	Lu3	0.752100	0.536930	0.271450
N51	N5	0.981900	0.948300	0.487100
N61	N6	0.735400	0.301000	0.981600
O131	O13	0.762100	0.587900	0.177900
O141	O14	0.845400	0.104300	0.270600
O151	O15	0.787800	0.809300	0.275100
O161	O16	0.831600	0.643800	0.344700
O171	O17	0.729300	0.849300	0.155000
O181	O18	0.660100	0.899000	0.054100
C431	C43	0.327700	0.285100	0.322000
C441	C44	0.450800	0.492400	0.429800
C451	C45	0.407600	0.383000	0.402500
H191	H19	0.401200	0.286300	0.421400
C461	C46	0.240300	0.203100	0.141200
C471	C47	0.237000	0.002800	0.061200
H201	H20	0.263800	0.938900	0.087300
C481	C48	0.174600	0.039100	0.966900
H211	H21	0.158400	0.998200	0.930100
C491	C49	0.373100	0.413200	0.347400
C501	C50	0.218400	0.152200	0.078500
C511	C51	0.216000	0.946900	0.004800
C521	C52	0.456800	0.640300	0.404800
H221	H22	0.483500	0.718600	0.424100
C531	C53	0.177500	0.251400	0.040400
C541	C54	0.156300	0.193900	0.983000
H231	H23	0.130500	0.258300	0.956100
C551	C55	0.422100	0.671800	0.349900
H241	H24	0.428600	0.769100	0.331400
C561	C56	0.378300	0.563700	0.321700
Lu41	Lu4	0.252100	0.036930	0.271450
N71	N7	0.481900	0.448300	0.487100
N81	N8	0.235400	0.801000	0.981600
O191	O19	0.262100	0.087900	0.177900
O201	O20	0.345400	0.604300	0.270600
O211	O21	0.287800	0.309300	0.275100
O221	O22	0.331600	0.143800	0.344700
O231	O23	0.229300	0.349300	0.155000
O241	O24	0.160100	0.399000	0.054100
C571	C57	0.827700	0.214900	0.822000
C581	C58	0.950800	0.007600	0.929800
C591	C59	0.907600	0.117000	0.902500
H251	H25	0.901200	0.213700	0.921400
C601	C60	0.740300	0.296900	0.641200
C611	C61	0.737000	0.497200	0.561200
H261	H26	0.763800	0.561100	0.587300
C621	C62	0.674600	0.460900	0.466900
H271	H27	0.658400	0.501800	0.430100
C631	C63	0.873100	0.086800	0.847400
C641	C64	0.718400	0.347800	0.578500
C651	C65	0.716000	0.553100	0.504800
C661	C66	0.956800	0.859700	0.904800
H281	H28	0.983500	0.781400	0.924100
C671	C67	0.677500	0.248600	0.540400
C681	C68	0.656300	0.306100	0.483000
H291	H29	0.630500	0.241700	0.456100
C691	C69	0.922100	0.828200	0.849900
H301	H30	0.928600	0.730900	0.831400
C701	C70	0.878300	0.936300	0.821700
Lu51	Lu5	0.752100	0.463070	0.771450
N91	N9	0.981900	0.051700	0.987100
N101	N10	0.735400	0.699000	0.481600
O251	O25	0.762100	0.412100	0.677900
O261	O26	0.845400	0.895700	0.770600
O271	O27	0.787800	0.190700	0.775100
O281	O28	0.831600	0.356200	0.844700
O291	O29	0.729300	0.150700	0.655000
O301	O30	0.660100	0.101000	0.554100
C711	C71	0.327700	0.714900	0.822000
C721	C72	0.450800	0.507600	0.929800
C731	C73	0.407600	0.617000	0.902500
H311	H31	0.401200	0.713700	0.921400
C741	C74	0.240300	0.796900	0.641200
C751	C75	0.237000	0.997200	0.561200
H321	H32	0.263800	0.061100	0.587300
C761	C76	0.174600	0.960900	0.466900
H331	H33	0.158400	0.001800	0.430100
C771	C77	0.373100	0.586800	0.847400
C781	C78	0.218400	0.847800	0.578500
C791	C79	0.216000	0.053100	0.504800
C801	C80	0.456800	0.359700	0.904800
H341	H34	0.483500	0.281400	0.924100
C811	C81	0.177500	0.748600	0.540400
C821	C82	0.156300	0.806100	0.483000
H351	H35	0.130500	0.741700	0.456100
C831	C83	0.422100	0.328200	0.849900
H361	H36	0.428600	0.230900	0.831400
C841	C84	0.378300	0.436300	0.821700
Lu61	Lu6	0.252100	0.963070	0.771450
N111	N11	0.481900	0.551700	0.987100
N121	N12	0.235400	0.199000	0.481600
O311	O31	0.262100	0.912100	0.677900
O321	O32	0.345400	0.395700	0.770600
O331	O33	0.287800	0.690700	0.775100
O341	O34	0.331600	0.856200	0.844700
O351	O35	0.229300	0.650700	0.655000
O361	O36	0.160100	0.601000	0.554100
C851	C85	0.172300	0.214900	0.678000
C861	C86	0.049200	0.007600	0.570200
C871	C87	0.092400	0.117000	0.597500
H371	H37	0.098800	0.213700	0.578600
C881	C88	0.259700	0.296900	0.858800
C891	C89	0.263000	0.497200	0.938800
H381	H38	0.236200	0.561100	0.912700
C901	C90	0.325400	0.460900	0.033100
H391	H39	0.341600	0.501800	0.069900
C911	C91	0.126900	0.086800	0.652600
C921	C92	0.281600	0.347800	0.921500
C931	C93	0.284000	0.553100	0.995200
C941	C94	0.043200	0.859700	0.595200
H401	H40	0.016500	0.781400	0.575900
C951	C95	0.322500	0.248600	0.959600
C961	C96	0.343700	0.306100	0.017000
H411	H41	0.369500	0.241700	0.043900
C971	C97	0.077900	0.828200	0.650100
H421	H42	0.071400	0.730900	0.668600
C981	C98	0.121700	0.936300	0.678300
Lu71	Lu7	0.247900	0.463070	0.728550
N131	N13	0.018100	0.051700	0.512900
N141	N14	0.264600	0.699000	0.018400
O371	O37	0.237900	0.412100	0.822100
O381	O38	0.154600	0.895700	0.729400
O391	O39	0.212200	0.190700	0.724900
O401	O40	0.168400	0.356200	0.655300
O411	O41	0.270700	0.150700	0.845000
O421	O42	0.339900	0.101000	0.945900
C991	C99	0.672300	0.714900	0.678000
C1001	C100	0.549200	0.507600	0.570200
C1011	C101	0.592400	0.617000	0.597500
H431	H43	0.598800	0.713700	0.578600
C1021	C102	0.759700	0.796900	0.858800
C1031	C103	0.763000	0.997200	0.938800
H441	H44	0.736200	0.061100	0.912700
C1041	C104	0.825400	0.960900	0.033100
H451	H45	0.841600	0.001800	0.069900
C1051	C105	0.626900	0.586800	0.652600
C1061	C106	0.781600	0.847800	0.921500
C1071	C107	0.784000	0.053100	0.995200
C1081	C108	0.543200	0.359700	0.595200
H461	H46	0.516500	0.281400	0.575900
C1091	C109	0.822500	0.748600	0.959600
C1101	C110	0.843700	0.806100	0.017000
H471	H47	0.869500	0.741700	0.043900
C1111	C111	0.577900	0.328200	0.650100
H481	H48	0.571400	0.230900	0.668600
C1121	C112	0.621700	0.436300	0.678300
Lu81	Lu8	0.747900	0.963070	0.728550
N151	N15	0.518100	0.551700	0.512900
N161	N16	0.764600	0.199000	0.018400
O431	O43	0.737900	0.912100	0.822100
O441	O44	0.654600	0.395700	0.729400
O451	O45	0.712200	0.690700	0.724900
O461	O46	0.668400	0.856200	0.655300
O471	O47	0.770700	0.650700	0.845000
O481	O48	0.839900	0.601000	0.945900
