data_HAPVEB_clean_PM
_symmetry_space_group_name_H-M	'P1'
_cell_length_a	11.628000
_cell_length_b	15.578000
_cell_length_c	13.065000
_cell_angle_alpha	90.000000
_cell_angle_beta	90.000000
_cell_angle_gamma	90.000000
_symmetry_Int_Tables_number 1

loop_
_symmetry_equiv_pos_as_xyz
'x,y,z'

loop_
_atom_site_label
_atom_site_type_symbol
_atom_site_fract_x
_atom_site_fract_y
_atom_site_fract_z
Nd11	Nd1	0.750000	0.714300	0.060140
Nd21	Nd2	0.250000	0.785700	0.560140
Nd31	Nd3	0.250000	0.285700	0.939860
Nd41	Nd4	0.750000	0.214300	0.439860
U11	U1	0.750000	0.753930	0.340560
U21	U2	0.250000	0.746070	0.840560
U31	U3	0.250000	0.246070	0.659440
U41	U4	0.750000	0.253930	0.159440
U51	U5	0.000000	0.000000	0.000000
U61	U6	0.000000	0.500000	0.500000
U71	U7	0.500000	0.000000	0.000000
U81	U8	0.500000	0.500000	0.500000
C11	C1	0.870500	0.769500	0.717000
C21	C2	0.001200	0.766200	0.717100
C31	C3	0.810100	0.809400	0.795300
C41	C4	0.873000	0.854400	0.881100
C51	C5	0.874800	0.673200	0.563600
C61	C6	0.809800	0.728600	0.638300
C71	C7	0.129500	0.730500	0.217000
C81	C8	0.998800	0.733800	0.217100
C91	C9	0.189900	0.690600	0.295300
C101	C10	0.127000	0.645600	0.381100
C111	C11	0.125200	0.826800	0.063600
C121	C12	0.190200	0.771400	0.138300
C131	C13	0.370500	0.230500	0.283000
C141	C14	0.501200	0.233800	0.282900
C151	C15	0.310100	0.190600	0.204700
C161	C16	0.373000	0.145600	0.118900
C171	C17	0.374800	0.326800	0.436400
C181	C18	0.309800	0.271400	0.361700
C191	C19	0.629500	0.269500	0.783000
C201	C20	0.498800	0.266200	0.782900
C211	C21	0.689900	0.309400	0.704700
C221	C22	0.627000	0.354400	0.618900
C231	C23	0.625200	0.173200	0.936400
C241	C24	0.690200	0.228600	0.861700
C251	C25	0.129500	0.230500	0.283000
C261	C26	0.998800	0.233800	0.282900
C271	C27	0.189900	0.190600	0.204700
C281	C28	0.127000	0.145600	0.118900
C291	C29	0.125200	0.326800	0.436400
C301	C30	0.190200	0.271400	0.361700
C311	C31	0.870500	0.269500	0.783000
C321	C32	0.001200	0.266200	0.782900
C331	C33	0.810100	0.309400	0.704700
C341	C34	0.873000	0.354400	0.618900
C351	C35	0.874800	0.173200	0.936400
C361	C36	0.809800	0.228600	0.861700
C371	C37	0.629500	0.769500	0.717000
C381	C38	0.498800	0.766200	0.717100
C391	C39	0.689900	0.809400	0.795300
C401	C40	0.627000	0.854400	0.881100
C411	C41	0.625200	0.673200	0.563600
C421	C42	0.690200	0.728600	0.638300
C431	C43	0.370500	0.730500	0.217000
C441	C44	0.501200	0.733800	0.217100
C451	C45	0.310100	0.690600	0.295300
C461	C46	0.373000	0.645600	0.381100
C471	C47	0.374800	0.826800	0.063600
C481	C48	0.309800	0.771400	0.138300
O11	O1	0.926100	0.922400	0.857800
O21	O2	0.869500	0.825100	0.969000
O31	O3	0.930300	0.612800	0.603700
O41	O4	0.868200	0.685400	0.469900
O51	O5	0.047000	0.738000	0.798600
O61	O6	0.052100	0.791100	0.638800
O71	O7	0.073900	0.577600	0.357800
O81	O8	0.130500	0.674900	0.469000
O91	O9	0.069700	0.887200	0.103700
O101	O10	0.131800	0.814600	0.969900
O111	O11	0.953000	0.762000	0.298600
O121	O12	0.947900	0.708900	0.138800
O131	O13	0.426100	0.077600	0.142200
O141	O14	0.369500	0.174900	0.031000
O151	O15	0.430300	0.387200	0.396300
O161	O16	0.368200	0.314600	0.530100
O171	O17	0.547000	0.262000	0.201400
O181	O18	0.552100	0.208900	0.361200
O191	O19	0.573900	0.422400	0.642200
O201	O20	0.630500	0.325100	0.531000
O211	O21	0.569700	0.112800	0.896300
O221	O22	0.631800	0.185400	0.030100
O231	O23	0.453000	0.238000	0.701400
O241	O24	0.447900	0.291100	0.861200
O251	O25	0.073900	0.077600	0.142200
O261	O26	0.130500	0.174900	0.031000
O271	O27	0.069700	0.387200	0.396300
O281	O28	0.131800	0.314600	0.530100
O291	O29	0.953000	0.262000	0.201400
O301	O30	0.947900	0.208900	0.361200
O311	O31	0.926100	0.422400	0.642200
O321	O32	0.869500	0.325100	0.531000
O331	O33	0.930300	0.112800	0.896300
O341	O34	0.868200	0.185400	0.030100
O351	O35	0.047000	0.238000	0.701400
O361	O36	0.052100	0.291100	0.861200
O371	O37	0.573900	0.922400	0.857800
O381	O38	0.630500	0.825100	0.969000
O391	O39	0.569700	0.612800	0.603700
O401	O40	0.631800	0.685400	0.469900
O411	O41	0.453000	0.738000	0.798600
O421	O42	0.447900	0.791100	0.638800
O431	O43	0.426100	0.577600	0.357800
O441	O44	0.369500	0.674900	0.469000
O451	O45	0.430300	0.887200	0.103700
O461	O46	0.368200	0.814600	0.969900
O471	O47	0.547000	0.762000	0.298600
O481	O48	0.552100	0.708900	0.138800
O491	O49	0.750000	0.659700	0.263700
O501	O50	0.750000	0.822600	0.188400
O511	O51	0.250000	0.840300	0.763700
O521	O52	0.250000	0.677400	0.688400
O531	O53	0.250000	0.340300	0.736300
O541	O54	0.250000	0.177400	0.811600
O551	O55	0.750000	0.159700	0.236300
O561	O56	0.750000	0.322600	0.311600
