data_HARGUC_clean_PM
_symmetry_space_group_name_H-M	'P1'
_cell_length_a	10.923000
_cell_length_b	15.424000
_cell_length_c	15.037000
_cell_angle_alpha	90.000000
_cell_angle_beta	105.670000
_cell_angle_gamma	90.000000
_symmetry_Int_Tables_number 1

loop_
_symmetry_equiv_pos_as_xyz
'x,y,z'

loop_
_atom_site_label
_atom_site_type_symbol
_atom_site_fract_x
_atom_site_fract_y
_atom_site_fract_z
Bi11	Bi1	0.529170	0.349600	0.032540
Bi21	Bi2	0.042590	0.535250	0.155420
K11	K1	0.781000	0.190700	0.725400
O11	O1	0.026000	0.376000	0.159000
O21	O2	0.921000	0.438000	0.029000
O31	O3	0.520000	0.213000	0.947000
O41	O4	0.573000	0.080000	0.921000
O51	O5	0.627000	0.384000	0.917000
O61	O6	0.764000	0.321000	0.852000
O71	O7	0.718000	0.303000	0.079000
O81	O8	0.618000	0.498000	0.079000
O91	O9	0.604000	0.407000	0.188000
O101	O10	0.036000	0.746000	0.366000
O111	O11	0.067000	0.658000	0.261000
O121	O12	0.873000	0.620000	0.084000
O131	O13	0.722000	0.695000	0.123000
O141	O14	0.900000	0.507300	0.222400
C11	C1	0.958000	0.372000	0.080000
C21	C2	0.916000	0.282000	0.042000
C31	C3	0.771000	0.276000	0.008000
C41	C4	0.741000	0.178000	0.985000
C51	C5	0.604000	0.156000	0.950000
C61	C6	0.722000	0.330000	0.923000
C71	C7	0.636000	0.481000	0.162000
C81	C8	0.693000	0.549000	0.235000
C91	C9	0.822000	0.581000	0.227000
C101	C10	0.879000	0.636000	0.312000
C111	C11	0.000000	0.684000	0.312000
C121	C12	0.803000	0.636000	0.138000
Bi31	Bi3	0.970830	0.849600	0.467460
Bi41	Bi4	0.457410	0.035250	0.344580
K21	K2	0.719000	0.690700	0.774600
O151	O15	0.474000	0.876000	0.341000
O161	O16	0.579000	0.938000	0.471000
O171	O17	0.980000	0.713000	0.553000
O181	O18	0.927000	0.580000	0.579000
O191	O19	0.873000	0.884000	0.583000
O201	O20	0.736000	0.821000	0.648000
O211	O21	0.782000	0.803000	0.421000
O221	O22	0.882000	0.998000	0.421000
O231	O23	0.896000	0.907000	0.312000
O241	O24	0.464000	0.246000	0.134000
O251	O25	0.433000	0.158000	0.239000
O261	O26	0.627000	0.120000	0.416000
O271	O27	0.778000	0.195000	0.377000
O281	O28	0.600000	0.007300	0.277600
C131	C13	0.542000	0.872000	0.420000
C141	C14	0.584000	0.782000	0.458000
C151	C15	0.729000	0.776000	0.492000
C161	C16	0.759000	0.678000	0.515000
C171	C17	0.896000	0.656000	0.550000
C181	C18	0.778000	0.830000	0.577000
C191	C19	0.864000	0.981000	0.338000
C201	C20	0.807000	0.049000	0.265000
C211	C21	0.678000	0.081000	0.273000
C221	C22	0.621000	0.136000	0.188000
C231	C23	0.500000	0.184000	0.188000
C241	C24	0.697000	0.136000	0.362000
Bi51	Bi5	0.470830	0.650400	0.967460
Bi61	Bi6	0.957410	0.464750	0.844580
K31	K3	0.219000	0.809300	0.274600
O291	O29	0.974000	0.624000	0.841000
O301	O30	0.079000	0.562000	0.971000
O311	O31	0.480000	0.787000	0.053000
O321	O32	0.427000	0.920000	0.079000
O331	O33	0.373000	0.616000	0.083000
O341	O34	0.236000	0.679000	0.148000
O351	O35	0.282000	0.697000	0.921000
O361	O36	0.382000	0.502000	0.921000
O371	O37	0.396000	0.593000	0.812000
O381	O38	0.964000	0.254000	0.634000
O391	O39	0.933000	0.342000	0.739000
O401	O40	0.127000	0.380000	0.916000
O411	O41	0.278000	0.305000	0.877000
O421	O42	0.100000	0.492700	0.777600
C251	C25	0.042000	0.628000	0.920000
C261	C26	0.084000	0.718000	0.958000
C271	C27	0.229000	0.724000	0.992000
C281	C28	0.259000	0.822000	0.015000
C291	C29	0.396000	0.844000	0.050000
C301	C30	0.278000	0.670000	0.077000
C311	C31	0.364000	0.519000	0.838000
C321	C32	0.307000	0.451000	0.765000
C331	C33	0.178000	0.419000	0.773000
C341	C34	0.121000	0.364000	0.688000
C351	C35	0.000000	0.316000	0.688000
C361	C36	0.197000	0.364000	0.862000
Bi71	Bi7	0.029170	0.150400	0.532540
Bi81	Bi8	0.542590	0.964750	0.655420
K41	K4	0.281000	0.309300	0.225400
O431	O43	0.526000	0.124000	0.659000
O441	O44	0.421000	0.062000	0.529000
O451	O45	0.020000	0.287000	0.447000
O461	O46	0.073000	0.420000	0.421000
O471	O47	0.127000	0.116000	0.417000
O481	O48	0.264000	0.179000	0.352000
O491	O49	0.218000	0.197000	0.579000
O501	O50	0.118000	0.002000	0.579000
O511	O51	0.104000	0.093000	0.688000
O521	O52	0.536000	0.754000	0.866000
O531	O53	0.567000	0.842000	0.761000
O541	O54	0.373000	0.880000	0.584000
O551	O55	0.222000	0.805000	0.623000
O561	O56	0.400000	0.992700	0.722400
C371	C37	0.458000	0.128000	0.580000
C381	C38	0.416000	0.218000	0.542000
C391	C39	0.271000	0.224000	0.508000
C401	C40	0.241000	0.322000	0.485000
C411	C41	0.104000	0.344000	0.450000
C421	C42	0.222000	0.170000	0.423000
C431	C43	0.136000	0.019000	0.662000
C441	C44	0.193000	0.951000	0.735000
C451	C45	0.322000	0.919000	0.727000
C461	C46	0.379000	0.864000	0.812000
C471	C47	0.500000	0.816000	0.812000
C481	C48	0.303000	0.864000	0.638000
