data_HARNAR_clean_PM
_symmetry_space_group_name_H-M	'P1'
_cell_length_a	12.393700
_cell_length_b	17.299200
_cell_length_c	19.330000
_cell_angle_alpha	90.000000
_cell_angle_beta	90.000000
_cell_angle_gamma	95.750000
_symmetry_Int_Tables_number 1

loop_
_symmetry_equiv_pos_as_xyz
'x,y,z'

loop_
_atom_site_label
_atom_site_type_symbol
_atom_site_fract_x
_atom_site_fract_y
_atom_site_fract_z
Ag11	Ag1	0.216840	0.016690	0.301610
Ag21	Ag2	0.252340	0.004090	0.454170
Ag31	Ag3	0.749830	0.506690	0.498180
Ag41	Ag4	0.283160	0.483310	0.801610
Ag51	Ag5	0.247660	0.495910	0.954170
Ag61	Ag6	0.750170	0.993310	0.998180
Ag71	Ag7	0.783160	0.983310	0.698390
Ag81	Ag8	0.747660	0.995910	0.545830
Ag91	Ag9	0.250170	0.493310	0.501820
Ag101	Ag10	0.716840	0.516690	0.198390
Ag111	Ag11	0.752340	0.504090	0.045830
Ag121	Ag12	0.249830	0.006690	0.001820
Ag131	Ag13	0.500000	0.500000	0.500000
Ag141	Ag14	0.000000	0.000000	0.000000
Ag151	Ag15	0.000000	0.500000	0.500000
Ag161	Ag16	0.500000	0.000000	0.000000
H11	H1	0.449400	0.983000	0.278000
H21	H2	0.550600	0.882600	0.254400
H31	H3	0.293400	0.731000	0.302100
H41	H4	0.196200	0.835600	0.324500
H51	H5	0.631900	0.103000	0.477900
H61	H6	0.608600	0.197200	0.569300
H71	H7	0.760300	0.218600	0.487300
H81	H8	0.725400	0.249600	0.379200
H91	H9	0.537000	0.261600	0.345300
H101	H10	0.597400	0.133600	0.369800
H111	H11	0.467000	0.279500	0.548600
H121	H12	0.430500	0.310300	0.434800
H131	H13	0.744400	0.686200	0.241800
H141	H14	0.648100	0.787200	0.274300
H151	H15	0.369600	0.649300	0.240000
H161	H16	0.475100	0.550500	0.208000
H171	H17	0.865600	0.906700	0.460400
H181	H18	0.873100	0.794300	0.383200
H191	H19	0.736600	0.794600	0.475800
H201	H20	0.787300	0.780800	0.585300
H211	H21	0.980000	0.775400	0.608400
H221	H22	0.921400	0.897900	0.569000
H231	H23	0.017100	0.716500	0.407500
H241	H24	0.070000	0.705900	0.522800
H251	H25	0.050600	0.517000	0.778000
H261	H26	0.949400	0.617400	0.754400
H271	H27	0.206600	0.769000	0.802100
H281	H28	0.303800	0.664400	0.824500
H291	H29	0.868100	0.397000	0.977900
H301	H30	0.891400	0.302800	0.069300
H311	H31	0.739700	0.281400	0.987300
H321	H32	0.774600	0.250400	0.879200
H331	H33	0.963000	0.238400	0.845300
H341	H34	0.902600	0.366400	0.869800
H351	H35	0.033000	0.220500	0.048600
H361	H36	0.069500	0.189700	0.934800
H371	H37	0.755600	0.813800	0.741800
H381	H38	0.851900	0.712800	0.774300
H391	H39	0.130400	0.850700	0.740000
H401	H40	0.024900	0.949500	0.708000
H411	H41	0.634400	0.593300	0.960400
H421	H42	0.626900	0.705700	0.883200
H431	H43	0.763400	0.705400	0.975800
H441	H44	0.712700	0.719200	0.085300
H451	H45	0.520000	0.724600	0.108400
H461	H46	0.578600	0.602100	0.069000
H471	H47	0.482900	0.783500	0.907500
H481	H48	0.430000	0.794100	0.022800
H491	H49	0.550600	0.017000	0.722000
H501	H50	0.449400	0.117400	0.745600
H511	H51	0.706600	0.269000	0.697900
H521	H52	0.803800	0.164400	0.675500
H531	H53	0.368100	0.897000	0.522100
H541	H54	0.391400	0.802800	0.430700
H551	H55	0.239700	0.781400	0.512700
H561	H56	0.274600	0.750400	0.620800
H571	H57	0.463000	0.738400	0.654700
H581	H58	0.402600	0.866400	0.630200
H591	H59	0.533000	0.720500	0.451400
H601	H60	0.569500	0.689700	0.565200
H611	H61	0.255600	0.313800	0.758200
H621	H62	0.351900	0.212800	0.725700
H631	H63	0.630400	0.350700	0.760000
H641	H64	0.524900	0.449500	0.792000
H651	H65	0.134400	0.093300	0.539600
H661	H66	0.126900	0.205700	0.616800
H671	H67	0.263400	0.205400	0.524200
H681	H68	0.212700	0.219200	0.414700
H691	H69	0.020000	0.224600	0.391600
H701	H70	0.078600	0.102100	0.431000
H711	H71	0.982900	0.283500	0.592500
H721	H72	0.930000	0.294100	0.477200
H731	H73	0.949400	0.483000	0.222000
H741	H74	0.050600	0.382600	0.245600
H751	H75	0.793400	0.231000	0.197900
H761	H76	0.696200	0.335600	0.175500
H771	H77	0.131900	0.603000	0.022100
H781	H78	0.108600	0.697200	0.930700
H791	H79	0.260300	0.718600	0.012700
H801	H80	0.225400	0.749600	0.120800
H811	H81	0.037000	0.761600	0.154700
H821	H82	0.097400	0.633600	0.130200
H831	H83	0.967000	0.779500	0.951400
H841	H84	0.930500	0.810300	0.065200
H851	H85	0.244400	0.186200	0.258200
H861	H86	0.148100	0.287200	0.225700
H871	H87	0.869600	0.149300	0.260000
H881	H88	0.975100	0.050500	0.292000
H891	H89	0.365600	0.406700	0.039600
H901	H90	0.373100	0.294300	0.116800
H911	H91	0.236600	0.294600	0.024200
H921	H92	0.287300	0.280800	0.914700
H931	H93	0.480000	0.275400	0.891600
H941	H94	0.421400	0.397900	0.931000
H951	H95	0.517100	0.216500	0.092500
H961	H96	0.570000	0.205900	0.977200
C11	C1	0.416700	0.931300	0.282800
C21	C2	0.477300	0.871600	0.268700
C31	C3	0.433200	0.795600	0.275000
C41	C4	0.326700	0.782500	0.296500
C51	C5	0.269500	0.845400	0.309900
C61	C6	0.467300	0.089700	0.499600
C71	C7	0.570100	0.135900	0.476300
C81	C8	0.596600	0.209600	0.519500
C91	C9	0.699600	0.252500	0.486100
C101	C10	0.734800	0.329600	0.519400
C111	C11	0.696900	0.361800	0.410100
C121	C12	0.675000	0.273400	0.411500
C131	C13	0.556200	0.245800	0.393200
C141	C14	0.545700	0.156600	0.401700
C151	C15	0.432000	0.118200	0.390100
C161	C16	0.506100	0.261300	0.510600
C171	C17	0.486100	0.278700	0.446800
C181	C18	0.667400	0.678500	0.241500
C191	C19	0.610600	0.739100	0.260400
C201	C20	0.498500	0.730200	0.259100
C211	C21	0.446500	0.658200	0.240300
C221	C22	0.510500	0.599300	0.221700
C231	C23	0.026200	0.915900	0.426700
C241	C24	0.928000	0.874300	0.462600
C251	C25	0.893800	0.792100	0.433100
C261	C26	0.796500	0.760100	0.478800
C271	C27	0.755700	0.677100	0.458400
C281	C28	0.815500	0.665000	0.566700
C291	C29	0.832600	0.752000	0.553300
C301	C30	0.953300	0.781700	0.560100
C311	C31	0.965300	0.867100	0.537900
C321	C32	0.081200	0.902800	0.536400
C331	C33	0.984200	0.742100	0.444300
C341	C34	0.014100	0.736400	0.509000
C351	C35	0.083300	0.568700	0.782800
C361	C36	0.022700	0.628400	0.768700
C371	C37	0.066800	0.704400	0.775000
C381	C38	0.173300	0.717500	0.796500
C391	C39	0.230500	0.654600	0.809900
C401	C40	0.032700	0.410300	0.999600
C411	C41	0.929900	0.364100	0.976300
C421	C42	0.903400	0.290400	0.019500
C431	C43	0.800400	0.247500	0.986100
C441	C44	0.765200	0.170400	0.019400
C451	C45	0.803100	0.138200	0.910100
C461	C46	0.825000	0.226600	0.911500
C471	C47	0.943800	0.254200	0.893200
C481	C48	0.954300	0.343400	0.901700
C491	C49	0.068000	0.381800	0.890100
C501	C50	0.993900	0.238700	0.010600
C511	C51	0.013900	0.221300	0.946800
C521	C52	0.832600	0.821500	0.741500
C531	C53	0.889400	0.760900	0.760400
C541	C54	0.001500	0.769800	0.759100
C551	C55	0.053500	0.841800	0.740300
C561	C56	0.989500	0.900700	0.721700
C571	C57	0.473800	0.584100	0.926700
C581	C58	0.572000	0.625700	0.962600
C591	C59	0.606200	0.707900	0.933100
C601	C60	0.703500	0.739900	0.978800
C611	C61	0.744300	0.822900	0.958400
C621	C62	0.684500	0.835000	0.066700
C631	C63	0.667400	0.748000	0.053300
C641	C64	0.546700	0.718300	0.060100
C651	C65	0.534700	0.632900	0.037900
C661	C66	0.418800	0.597200	0.036400
C671	C67	0.515800	0.757900	0.944300
C681	C68	0.485900	0.763600	0.009000
C691	C69	0.583300	0.068700	0.717200
C701	C70	0.522700	0.128400	0.731300
C711	C71	0.566800	0.204400	0.725000
C721	C72	0.673300	0.217500	0.703500
C731	C73	0.730500	0.154600	0.690100
C741	C74	0.532700	0.910300	0.500400
C751	C75	0.429900	0.864100	0.523700
C761	C76	0.403400	0.790400	0.480500
C771	C77	0.300400	0.747500	0.513900
C781	C78	0.265200	0.670400	0.480600
C791	C79	0.303100	0.638200	0.589900
C801	C80	0.325000	0.726600	0.588500
C811	C81	0.443800	0.754200	0.606800
C821	C82	0.454300	0.843400	0.598300
C831	C83	0.568000	0.881800	0.609900
C841	C84	0.493900	0.738700	0.489400
C851	C85	0.513900	0.721300	0.553200
C861	C86	0.332600	0.321500	0.758500
C871	C87	0.389400	0.260900	0.739600
C881	C88	0.501500	0.269800	0.740900
C891	C89	0.553500	0.341800	0.759700
C901	C90	0.489500	0.400700	0.778300
C911	C91	0.973800	0.084100	0.573300
C921	C92	0.072000	0.125700	0.537400
C931	C93	0.106200	0.207900	0.566900
C941	C94	0.203500	0.239900	0.521200
C951	C95	0.244300	0.322900	0.541600
C961	C96	0.184500	0.335000	0.433300
C971	C97	0.167400	0.248000	0.446700
C981	C98	0.046700	0.218300	0.439900
C991	C99	0.034700	0.132900	0.462100
C1001	C100	0.918800	0.097200	0.463600
C1011	C101	0.015800	0.257900	0.555700
C1021	C102	0.985900	0.263600	0.491000
C1031	C103	0.916700	0.431300	0.217200
C1041	C104	0.977300	0.371600	0.231300
C1051	C105	0.933200	0.295600	0.225000
C1061	C106	0.826700	0.282500	0.203500
C1071	C107	0.769500	0.345400	0.190100
C1081	C108	0.967300	0.589700	0.000400
C1091	C109	0.070100	0.635900	0.023700
C1101	C110	0.096600	0.709600	0.980500
C1111	C111	0.199600	0.752500	0.013900
C1121	C112	0.234800	0.829600	0.980600
C1131	C113	0.196900	0.861800	0.089900
C1141	C114	0.175000	0.773400	0.088500
C1151	C115	0.056200	0.745800	0.106800
C1161	C116	0.045700	0.656600	0.098300
C1171	C117	0.932000	0.618200	0.109900
C1181	C118	0.006100	0.761300	0.989400
C1191	C119	0.986100	0.778700	0.053200
C1201	C120	0.167400	0.178500	0.258500
C1211	C121	0.110600	0.239100	0.239600
C1221	C122	0.998500	0.230200	0.240900
C1231	C123	0.946500	0.158200	0.259700
C1241	C124	0.010500	0.099300	0.278300
C1251	C125	0.526200	0.415900	0.073300
C1261	C126	0.428000	0.374300	0.037400
C1271	C127	0.393800	0.292100	0.066900
C1281	C128	0.296500	0.260100	0.021200
C1291	C129	0.255700	0.177100	0.041600
C1301	C130	0.315500	0.165000	0.933300
C1311	C131	0.332600	0.252000	0.946700
C1321	C132	0.453300	0.281700	0.939900
C1331	C133	0.465300	0.367100	0.962100
C1341	C134	0.581200	0.402800	0.963600
C1351	C135	0.484200	0.242100	0.055700
C1361	C136	0.514100	0.236400	0.991000
N11	N1	0.312000	0.919800	0.303400
N21	N2	0.392500	0.080300	0.447400
N31	N3	0.729300	0.389700	0.473000
N41	N4	0.618900	0.608300	0.222400
N51	N5	0.109200	0.933000	0.472700
N61	N6	0.769500	0.627000	0.510800
N71	N7	0.188000	0.580200	0.803400
N81	N8	0.107500	0.419700	0.947400
N91	N9	0.770700	0.110300	0.973000
N101	N10	0.881100	0.891700	0.722400
N111	N11	0.390800	0.567000	0.972700
N121	N12	0.730500	0.873000	0.010800
N131	N13	0.688000	0.080200	0.696600
N141	N14	0.607500	0.919700	0.552600
N151	N15	0.270700	0.610300	0.527000
N161	N16	0.381100	0.391700	0.777600
N171	N17	0.890800	0.067000	0.527300
N181	N18	0.230500	0.373000	0.489200
N191	N19	0.812000	0.419800	0.196600
N201	N20	0.892500	0.580300	0.052600
N211	N21	0.229300	0.889700	0.027000
N221	N22	0.118900	0.108300	0.277600
N231	N23	0.609200	0.433000	0.027300
N241	N24	0.269500	0.127000	0.989200
O11	O1	0.681100	0.401600	0.359000
O21	O2	0.765400	0.338900	0.578600
O31	O3	0.452800	0.062000	0.557500
O41	O4	0.382900	0.121300	0.335300
O51	O5	0.142900	0.904800	0.585800
O61	O6	0.031400	0.933900	0.365500
O71	O7	0.718000	0.658100	0.401600
O81	O8	0.840800	0.634500	0.620600
O91	O9	0.818900	0.098400	0.859000
O101	O10	0.734600	0.161100	0.078600
O111	O11	0.047200	0.438000	0.057500
O121	O12	0.117100	0.378700	0.835300
O131	O13	0.357100	0.595200	0.085800
O141	O14	0.468600	0.566100	0.865500
O151	O15	0.782000	0.841900	0.901600
O161	O16	0.659200	0.865500	0.120600
O171	O17	0.318900	0.598400	0.641000
O181	O18	0.234600	0.661100	0.421400
O191	O19	0.547200	0.938000	0.442500
O201	O20	0.617100	0.878700	0.664700
O211	O21	0.857100	0.095200	0.414200
O221	O22	0.968600	0.066100	0.634500
O231	O23	0.282000	0.341900	0.598400
O241	O24	0.159200	0.365500	0.379400
O251	O25	0.181100	0.901600	0.141000
O261	O26	0.265400	0.838900	0.921400
O271	O27	0.952800	0.562000	0.942500
O281	O28	0.882900	0.621300	0.164700
O291	O29	0.642900	0.404800	0.914200
O301	O30	0.531400	0.433900	0.134500
O311	O31	0.218000	0.158100	0.098400
O321	O32	0.340800	0.134500	0.879400
