data_HATZOS_clean_PM
_symmetry_space_group_name_H-M	'P1'
_cell_length_a	10.235500
_cell_length_b	10.235500
_cell_length_c	28.105000
_cell_angle_alpha	90.000000
_cell_angle_beta	90.000000
_cell_angle_gamma	90.000000
_symmetry_Int_Tables_number 1

loop_
_symmetry_equiv_pos_as_xyz
'x,y,z'

loop_
_atom_site_label
_atom_site_type_symbol
_atom_site_fract_x
_atom_site_fract_y
_atom_site_fract_z
Ag11	Ag1	0.606140	0.196790	0.233600
N11	N1	0.810600	0.036200	0.023030
N21	N2	0.751900	0.043900	0.220320
O11	O1	0.787700	0.259600	0.165500
C11	C1	0.792200	0.046000	0.069880
H11	H1	0.739300	0.984600	0.084900
C21	C2	0.848500	0.143600	0.097070
C31	C3	0.929100	0.233600	0.075720
H21	H2	0.966700	0.300800	0.093300
C41	C4	0.952900	0.221700	0.027300
H31	H3	0.008800	0.279600	0.011900
C51	C5	0.892800	0.123400	0.002470
H41	H4	0.909100	0.116200	0.970000
C61	C6	0.815100	0.155100	0.148510
C71	C7	0.821400	0.036600	0.179660
C81	C8	0.903000	0.934300	0.169660
H51	H5	0.945900	0.930200	0.140500
C91	C9	0.921400	0.836400	0.203420
H61	H6	0.977600	0.766800	0.197700
C101	C10	0.854100	0.846100	0.245110
H71	H7	0.866100	0.783600	0.268800
C111	C11	0.768500	0.948000	0.252350
H81	H8	0.720500	0.950400	0.280400
Ag21	Ag2	0.393860	0.803210	0.733600
N31	N3	0.189400	0.963800	0.523030
N41	N4	0.248100	0.956100	0.720320
O21	O2	0.212300	0.740400	0.665500
C121	C12	0.207800	0.954000	0.569880
H91	H9	0.260700	0.015400	0.584900
C131	C13	0.151500	0.856400	0.597070
C141	C14	0.070900	0.766400	0.575720
H101	H10	0.033300	0.699200	0.593300
C151	C15	0.047100	0.778300	0.527300
H111	H11	0.991200	0.720400	0.511900
C161	C16	0.107200	0.876600	0.502470
H121	H12	0.090900	0.883800	0.470000
C171	C17	0.184900	0.844900	0.648510
C181	C18	0.178600	0.963400	0.679660
C191	C19	0.097000	0.065700	0.669660
H131	H13	0.054100	0.069800	0.640500
C201	C20	0.078600	0.163600	0.703420
H141	H14	0.022400	0.233200	0.697700
C211	C21	0.145900	0.153900	0.745110
H151	H15	0.133900	0.216400	0.768800
C221	C22	0.231500	0.052000	0.752350
H161	H16	0.279500	0.049600	0.780400
Ag31	Ag3	0.303210	0.106140	0.483600
N51	N5	0.463800	0.310600	0.273030
N61	N6	0.456100	0.251900	0.470320
O31	O3	0.240400	0.287700	0.415500
C231	C23	0.454000	0.292200	0.319880
H171	H17	0.515400	0.239300	0.334900
C241	C24	0.356400	0.348500	0.347070
C251	C25	0.266400	0.429100	0.325720
H181	H18	0.199200	0.466700	0.343300
C261	C26	0.278300	0.452900	0.277300
H191	H19	0.220400	0.508800	0.261900
C271	C27	0.376600	0.392800	0.252470
H201	H20	0.383800	0.409100	0.220000
C281	C28	0.344900	0.315100	0.398510
C291	C29	0.463400	0.321400	0.429660
C301	C30	0.565700	0.403000	0.419660
H211	H21	0.569800	0.445900	0.390500
C311	C31	0.663600	0.421400	0.453420
H221	H22	0.733200	0.477600	0.447700
C321	C32	0.653900	0.354100	0.495110
H231	H23	0.716400	0.366100	0.518800
C331	C33	0.552000	0.268500	0.502350
H241	H24	0.549600	0.220500	0.530400
Ag41	Ag4	0.696790	0.893860	0.983600
N71	N7	0.536200	0.689400	0.773030
N81	N8	0.543900	0.748100	0.970320
O41	O4	0.759600	0.712300	0.915500
C341	C34	0.546000	0.707800	0.819880
H251	H25	0.484600	0.760700	0.834900
C351	C35	0.643600	0.651500	0.847070
C361	C36	0.733600	0.570900	0.825720
H261	H26	0.800800	0.533300	0.843300
C371	C37	0.721700	0.547100	0.777300
H271	H27	0.779600	0.491200	0.761900
C381	C38	0.623400	0.607200	0.752470
H281	H28	0.616200	0.590900	0.720000
C391	C39	0.655100	0.684900	0.898510
C401	C40	0.536600	0.678600	0.929660
C411	C41	0.434300	0.597000	0.919660
H291	H29	0.430200	0.554100	0.890500
C421	C42	0.336400	0.578600	0.953420
H301	H30	0.266800	0.522400	0.947700
C431	C43	0.346100	0.645900	0.995110
H311	H31	0.283600	0.633900	0.018800
C441	C44	0.448000	0.731500	0.002350
H321	H32	0.450400	0.779500	0.030400
Ag51	Ag5	0.893860	0.696790	0.016400
N91	N9	0.689400	0.536200	0.226970
N101	N10	0.748100	0.543900	0.029680
O51	O5	0.712300	0.759600	0.084500
C451	C45	0.707800	0.546000	0.180120
H331	H33	0.760700	0.484600	0.165100
C461	C46	0.651500	0.643600	0.152930
C471	C47	0.570900	0.733600	0.174280
H341	H34	0.533300	0.800800	0.156700
C481	C48	0.547100	0.721700	0.222700
H351	H35	0.491200	0.779600	0.238100
C491	C49	0.607200	0.623400	0.247530
H361	H36	0.590900	0.616200	0.280000
C501	C50	0.684900	0.655100	0.101490
C511	C51	0.678600	0.536600	0.070340
C521	C52	0.597000	0.434300	0.080340
H371	H37	0.554100	0.430200	0.109500
C531	C53	0.578600	0.336400	0.046580
H381	H38	0.522400	0.266800	0.052300
C541	C54	0.645900	0.346100	0.004890
H391	H39	0.633900	0.283600	0.981200
C551	C55	0.731500	0.448000	0.997650
H401	H40	0.779500	0.450400	0.969600
Ag61	Ag6	0.106140	0.303210	0.516400
N111	N11	0.310600	0.463800	0.726970
N121	N12	0.251900	0.456100	0.529680
O61	O6	0.287700	0.240400	0.584500
C561	C56	0.292200	0.454000	0.680120
H411	H41	0.239300	0.515400	0.665100
C571	C57	0.348500	0.356400	0.652930
C581	C58	0.429100	0.266400	0.674280
H421	H42	0.466700	0.199200	0.656700
C591	C59	0.452900	0.278300	0.722700
H431	H43	0.508800	0.220400	0.738100
C601	C60	0.392800	0.376600	0.747530
H441	H44	0.409100	0.383800	0.780000
C611	C61	0.315100	0.344900	0.601490
C621	C62	0.321400	0.463400	0.570340
C631	C63	0.403000	0.565700	0.580340
H451	H45	0.445900	0.569800	0.609500
C641	C64	0.421400	0.663600	0.546580
H461	H46	0.477600	0.733200	0.552300
C651	C65	0.354100	0.653900	0.504890
H471	H47	0.366100	0.716400	0.481200
C661	C66	0.268500	0.552000	0.497650
H481	H48	0.220500	0.549600	0.469600
Ag71	Ag7	0.196790	0.606140	0.766400
N131	N13	0.036200	0.810600	0.976970
N141	N14	0.043900	0.751900	0.779680
O71	O7	0.259600	0.787700	0.834500
C671	C67	0.046000	0.792200	0.930120
H491	H49	0.984600	0.739300	0.915100
C681	C68	0.143600	0.848500	0.902930
C691	C69	0.233600	0.929100	0.924280
H501	H50	0.300800	0.966700	0.906700
C701	C70	0.221700	0.952900	0.972700
H511	H51	0.279600	0.008800	0.988100
C711	C71	0.123400	0.892800	0.997530
H521	H52	0.116200	0.909100	0.030000
C721	C72	0.155100	0.815100	0.851490
C731	C73	0.036600	0.821400	0.820340
C741	C74	0.934300	0.903000	0.830340
H531	H53	0.930200	0.945900	0.859500
C751	C75	0.836400	0.921400	0.796580
H541	H54	0.766800	0.977600	0.802300
C761	C76	0.846100	0.854100	0.754890
H551	H55	0.783600	0.866100	0.731200
C771	C77	0.948000	0.768500	0.747650
H561	H56	0.950400	0.720500	0.719600
Ag81	Ag8	0.803210	0.393860	0.266400
N151	N15	0.963800	0.189400	0.476970
N161	N16	0.956100	0.248100	0.279680
O81	O8	0.740400	0.212300	0.334500
C781	C78	0.954000	0.207800	0.430120
H571	H57	0.015400	0.260700	0.415100
C791	C79	0.856400	0.151500	0.402930
C801	C80	0.766400	0.070900	0.424280
H581	H58	0.699200	0.033300	0.406700
C811	C81	0.778300	0.047100	0.472700
H591	H59	0.720400	0.991200	0.488100
C821	C82	0.876600	0.107200	0.497530
H601	H60	0.883800	0.090900	0.530000
C831	C83	0.844900	0.184900	0.351490
C841	C84	0.963400	0.178600	0.320340
C851	C85	0.065700	0.097000	0.330340
H611	H61	0.069800	0.054100	0.359500
C861	C86	0.163600	0.078600	0.296580
H621	H62	0.233200	0.022400	0.302300
C871	C87	0.153900	0.145900	0.254890
H631	H63	0.216400	0.133900	0.231200
C881	C88	0.052000	0.231500	0.247650
H641	H64	0.049600	0.279500	0.219600
