data_HAVZIP_clean_PM
_symmetry_space_group_name_H-M	'P1'
_cell_length_a	15.131600
_cell_length_b	24.736900
_cell_length_c	15.361300
_cell_angle_alpha	90.000000
_cell_angle_beta	110.847000
_cell_angle_gamma	90.000000
_symmetry_Int_Tables_number 1

loop_
_symmetry_equiv_pos_as_xyz
'x,y,z'

loop_
_atom_site_label
_atom_site_type_symbol
_atom_site_fract_x
_atom_site_fract_y
_atom_site_fract_z
Co11	Co1	0.897880	0.520650	0.110140
N11	N1	0.942600	0.521300	0.262500
O11	O1	0.039500	0.509100	0.122200
N21	N2	0.747800	0.514500	0.071700
N31	N3	0.898400	0.606000	0.111600
O21	O2	0.118700	0.484100	0.029700
C11	C1	0.023800	0.471400	0.400100
H11	H1	0.060800	0.441800	0.428100
C21	C2	0.992800	0.505800	0.451200
C31	C3	0.044100	0.498300	0.043600
C41	C4	0.595700	0.521000	0.958400
H21	H2	0.560100	0.529700	0.897000
C51	C5	0.551900	0.501900	0.015000
C61	C6	0.001100	0.480200	0.310000
H31	H3	0.026100	0.457300	0.276700
C71	C7	0.903000	0.722000	0.116000
C81	C8	0.710600	0.497900	0.134700
H41	H4	0.747900	0.491700	0.196700
C91	C9	0.937600	0.549000	0.407800
H51	H5	0.913000	0.572300	0.441000
C101	C10	0.687600	0.527400	0.988900
H61	H6	0.712900	0.542600	0.947500
C111	C11	0.918800	0.557500	0.310900
H71	H7	0.889400	0.589200	0.282500
C121	C12	0.611600	0.490400	0.101400
H81	H8	0.585400	0.476300	0.142800
C131	C13	0.975000	0.632600	0.146500
H91	H9	0.030800	0.612900	0.170300
C141	C14	0.982700	0.691100	0.152300
H101	H10	0.041400	0.707400	0.180500
C151	C15	0.821700	0.691900	0.081300
H111	H11	0.763900	0.709800	0.059000
C161	C16	0.822200	0.635700	0.078000
H121	H12	0.764700	0.618100	0.050200
Co21	Co2	0.102120	0.020650	0.889860
N41	N4	0.057400	0.021300	0.737500
O31	O3	0.960500	0.009100	0.877800
N51	N5	0.252200	0.014500	0.928300
N61	N6	0.101600	0.106000	0.888400
O41	O4	0.881300	0.984100	0.970300
C171	C17	0.976200	0.971400	0.599900
H131	H13	0.939200	0.941800	0.571900
C181	C18	0.007200	0.005800	0.548800
C191	C19	0.955900	0.998300	0.956400
C201	C20	0.404300	0.021000	0.041600
H141	H14	0.439900	0.029700	0.103000
C211	C21	0.448100	0.001900	0.985000
C221	C22	0.998900	0.980200	0.690000
H151	H15	0.973900	0.957300	0.723300
C231	C23	0.097000	0.222000	0.884000
C241	C24	0.289400	0.997900	0.865300
H161	H16	0.252100	0.991700	0.803300
C251	C25	0.062400	0.049000	0.592200
H171	H17	0.087000	0.072300	0.559000
C261	C26	0.312400	0.027400	0.011100
H181	H18	0.287100	0.042600	0.052500
C271	C27	0.081200	0.057500	0.689100
H191	H19	0.110600	0.089200	0.717500
C281	C28	0.388400	0.990400	0.898600
H201	H20	0.414600	0.976300	0.857200
C291	C29	0.025000	0.132600	0.853500
H211	H21	0.969200	0.112900	0.829700
C301	C30	0.017300	0.191100	0.847700
H221	H22	0.958600	0.207400	0.819500
C311	C31	0.178300	0.191900	0.918700
H231	H23	0.236100	0.209800	0.941000
C321	C32	0.177800	0.135700	0.922000
H241	H24	0.235300	0.118100	0.949800
Co31	Co3	0.102120	0.479350	0.889860
N71	N7	0.057400	0.478700	0.737500
O51	O5	0.960500	0.490900	0.877800
N81	N8	0.252200	0.485500	0.928300
N91	N9	0.101600	0.394000	0.888400
O61	O6	0.881300	0.515900	0.970300
C331	C33	0.976200	0.528600	0.599900
H251	H25	0.939200	0.558200	0.571900
C341	C34	0.007200	0.494200	0.548800
C351	C35	0.955900	0.501700	0.956400
C361	C36	0.404300	0.479000	0.041600
H261	H26	0.439900	0.470300	0.103000
C371	C37	0.448100	0.498100	0.985000
C381	C38	0.998900	0.519800	0.690000
H271	H27	0.973900	0.542700	0.723300
C391	C39	0.097000	0.278000	0.884000
C401	C40	0.289400	0.502100	0.865300
H281	H28	0.252100	0.508300	0.803300
C411	C41	0.062400	0.451000	0.592200
H291	H29	0.087000	0.427700	0.559000
C421	C42	0.312400	0.472600	0.011100
H301	H30	0.287100	0.457400	0.052500
C431	C43	0.081200	0.442500	0.689100
H311	H31	0.110600	0.410800	0.717500
C441	C44	0.388400	0.509600	0.898600
H321	H32	0.414600	0.523700	0.857200
C451	C45	0.025000	0.367400	0.853500
H331	H33	0.969200	0.387100	0.829700
C461	C46	0.017300	0.308900	0.847700
H341	H34	0.958600	0.292600	0.819500
C471	C47	0.178300	0.308100	0.918700
H351	H35	0.236100	0.290200	0.941000
C481	C48	0.177800	0.364300	0.922000
H361	H36	0.235300	0.381900	0.949800
Co41	Co4	0.897880	0.979350	0.110140
N101	N10	0.942600	0.978700	0.262500
O71	O7	0.039500	0.990900	0.122200
N111	N11	0.747800	0.985500	0.071700
N121	N12	0.898400	0.894000	0.111600
O81	O8	0.118700	0.015900	0.029700
C491	C49	0.023800	0.028600	0.400100
H371	H37	0.060800	0.058200	0.428100
C501	C50	0.992800	0.994200	0.451200
C511	C51	0.044100	0.001700	0.043600
C521	C52	0.595700	0.979000	0.958400
H381	H38	0.560100	0.970300	0.897000
C531	C53	0.551900	0.998100	0.015000
C541	C54	0.001100	0.019800	0.310000
H391	H39	0.026100	0.042700	0.276700
C551	C55	0.903000	0.778000	0.116000
C561	C56	0.710600	0.002100	0.134700
H401	H40	0.747900	0.008300	0.196700
C571	C57	0.937600	0.951000	0.407800
H411	H41	0.913000	0.927700	0.441000
C581	C58	0.687600	0.972600	0.988900
H421	H42	0.712900	0.957400	0.947500
C591	C59	0.918800	0.942500	0.310900
H431	H43	0.889400	0.910800	0.282500
C601	C60	0.611600	0.009600	0.101400
H441	H44	0.585400	0.023700	0.142800
C611	C61	0.975000	0.867400	0.146500
H451	H45	0.030800	0.887100	0.170300
C621	C62	0.982700	0.808900	0.152300
H461	H46	0.041400	0.792600	0.180500
C631	C63	0.821700	0.808100	0.081300
H471	H47	0.763900	0.790200	0.059000
C641	C64	0.822200	0.864300	0.078000
H481	H48	0.764700	0.881900	0.050200
