data_HAWZEM_clean_PM
_symmetry_space_group_name_H-M	'P1'
_cell_length_a	11.675500
_cell_length_b	12.252100
_cell_length_c	12.494800
_cell_angle_alpha	90.000000
_cell_angle_beta	117.046000
_cell_angle_gamma	90.000000
_symmetry_Int_Tables_number 1

loop_
_symmetry_equiv_pos_as_xyz
'x,y,z'

loop_
_atom_site_label
_atom_site_type_symbol
_atom_site_fract_x
_atom_site_fract_y
_atom_site_fract_z
Cu11	Cu1	0.178800	0.964380	0.467380
Cu21	Cu2	0.321200	0.464380	0.032620
H11	H1	0.111900	0.757400	0.147600
H21	H2	0.132100	0.619300	0.034300
H31	H3	0.500700	0.599800	0.242600
H41	H4	0.492000	0.743400	0.355200
H51	H5	0.388100	0.257400	0.352400
H61	H6	0.367900	0.119300	0.465700
H71	H7	0.999300	0.099800	0.257400
H81	H8	0.008000	0.243400	0.144800
H91	H9	0.027200	0.204600	0.743500
H101	H10	0.099700	0.341600	0.883200
H111	H11	0.383900	0.172200	0.784800
H121	H12	0.447500	0.307700	0.928100
H131	H13	0.472800	0.704600	0.756500
H141	H14	0.400300	0.841600	0.616800
H151	H15	0.116100	0.672200	0.715200
H161	H16	0.052500	0.807700	0.571900
C11	C1	0.293300	0.850900	0.351500
C21	C2	0.192100	0.726700	0.168300
C31	C3	0.205000	0.643300	0.101400
C41	C4	0.301100	0.764800	0.267900
C51	C5	0.421700	0.632500	0.222800
C61	C6	0.416800	0.717700	0.292000
C71	C7	0.206700	0.350900	0.148500
C81	C8	0.307900	0.226700	0.331700
C91	C9	0.295000	0.143300	0.398600
C101	C10	0.198900	0.264800	0.232100
C111	C11	0.078300	0.132500	0.277200
C121	C12	0.083200	0.217700	0.208000
C131	C13	0.148500	0.085800	0.649800
C141	C14	0.197900	0.173100	0.746100
C151	C15	0.113400	0.224700	0.778600
C161	C16	0.158300	0.306400	0.863800
C171	C17	0.323500	0.205300	0.803500
C181	C18	0.361400	0.287300	0.889800
C191	C19	0.351500	0.585800	0.850200
C201	C20	0.302100	0.673100	0.753900
C211	C21	0.386600	0.724700	0.721400
C221	C22	0.341700	0.806400	0.636200
C231	C23	0.176500	0.705300	0.696500
C241	C24	0.138600	0.787300	0.610200
N11	N1	0.317500	0.594900	0.128200
N21	N2	0.182500	0.094900	0.371800
N31	N3	0.279600	0.337300	0.919300
N41	N4	0.220400	0.837300	0.580700
O11	O1	0.181340	0.867130	0.342040
O21	O2	0.392500	0.895200	0.424500
O31	O3	0.318660	0.367130	0.157960
O41	O4	0.107500	0.395200	0.075500
O51	O5	0.043500	0.043600	0.624200
O61	O6	0.222300	0.064070	0.603300
O71	O7	0.456500	0.543600	0.875800
O81	O8	0.277700	0.564070	0.896700
Cu31	Cu3	0.821200	0.035620	0.532620
Cu41	Cu4	0.678800	0.535620	0.967380
H171	H17	0.972800	0.795400	0.256500
H181	H18	0.900300	0.658400	0.116800
H191	H19	0.616100	0.827800	0.215200
H201	H20	0.552500	0.692300	0.071900
H211	H21	0.527200	0.295400	0.243500
H221	H22	0.599700	0.158400	0.383200
H231	H23	0.883900	0.327800	0.284800
H241	H24	0.947500	0.192300	0.428100
H251	H25	0.888100	0.242600	0.852400
H261	H26	0.867900	0.380700	0.965700
H271	H27	0.499300	0.400200	0.757400
H281	H28	0.508000	0.256600	0.644800
H291	H29	0.611900	0.742600	0.647600
H301	H30	0.632100	0.880700	0.534300
H311	H31	0.000700	0.900200	0.742600
H321	H32	0.992000	0.756600	0.855200
C251	C25	0.851500	0.914200	0.350200
C261	C26	0.802100	0.826900	0.253900
C271	C27	0.886600	0.775300	0.221400
C281	C28	0.841700	0.693600	0.136200
C291	C29	0.676500	0.794700	0.196500
C301	C30	0.638600	0.712700	0.110200
C311	C31	0.648500	0.414200	0.149800
C321	C32	0.697900	0.326900	0.246100
C331	C33	0.613400	0.275300	0.278600
C341	C34	0.658300	0.193600	0.363800
C351	C35	0.823500	0.294700	0.303500
C361	C36	0.861400	0.212700	0.389800
C371	C37	0.706700	0.149100	0.648500
C381	C38	0.807900	0.273300	0.831700
C391	C39	0.795000	0.356700	0.898600
C401	C40	0.698900	0.235200	0.732100
C411	C41	0.578300	0.367500	0.777200
C421	C42	0.583200	0.282300	0.708000
C431	C43	0.793300	0.649100	0.851500
C441	C44	0.692100	0.773300	0.668300
C451	C45	0.705000	0.856700	0.601400
C461	C46	0.801100	0.735200	0.767900
C471	C47	0.921700	0.867500	0.722800
C481	C48	0.916800	0.782300	0.792000
N51	N5	0.720400	0.662700	0.080700
N61	N6	0.779600	0.162700	0.419300
N71	N7	0.682500	0.405100	0.871800
N81	N8	0.817500	0.905100	0.628200
O91	O9	0.956500	0.956400	0.375800
O101	O10	0.777700	0.935930	0.396700
O111	O11	0.543500	0.456400	0.124200
O121	O12	0.722300	0.435930	0.103300
O131	O13	0.818660	0.132870	0.657960
O141	O14	0.607500	0.104800	0.575500
O151	O15	0.681340	0.632870	0.842040
O161	O16	0.892500	0.604800	0.924500
