data_HAZGOF06_clean_h_PM
_symmetry_space_group_name_H-M	'P1'
_cell_length_a	8.725500
_cell_length_b	11.244800
_cell_length_c	17.724500
_cell_angle_alpha	84.520100
_cell_angle_beta	75.750800
_cell_angle_gamma	67.171300
_symmetry_Int_Tables_number 1

loop_
_symmetry_equiv_pos_as_xyz
'x,y,z'

loop_
_atom_site_label
_atom_site_type_symbol
_atom_site_fract_x
_atom_site_fract_y
_atom_site_fract_z
Sc11	Sc1	0.614280	0.750000	0.271440
Sc21	Sc2	0.135720	0.750000	0.228560
Sc31	Sc3	0.385720	0.250000	0.728560
Sc41	Sc4	0.864280	0.250000	0.771440
C11	C1	0.451870	0.318260	0.249820
C21	C2	0.893750	0.640560	0.365940
C31	C3	0.954560	0.564200	0.436280
C41	C4	0.830990	0.529640	0.490780
C51	C5	0.115300	0.538680	0.443720
C61	C6	0.798310	0.181740	0.249820
C71	C7	0.240310	0.859440	0.365940
C81	C8	0.109160	0.935800	0.436280
C91	C9	0.178230	0.970360	0.490780
C101	C10	0.940980	0.961320	0.443720
C111	C11	0.729870	0.318260	0.250180
C121	C12	0.965690	0.640560	0.134060
C131	C13	0.981240	0.564200	0.063720
C141	C14	0.139370	0.529640	0.009220
C151	C15	0.846020	0.538680	0.056280
C161	C16	0.519950	0.181740	0.250180
C171	C17	0.400250	0.859440	0.134060
C181	C18	0.455040	0.935800	0.063720
C191	C19	0.351410	0.970360	0.009220
C201	C20	0.597700	0.961320	0.056280
C211	C21	0.548130	0.681740	0.750180
C221	C22	0.106250	0.359440	0.634060
C231	C23	0.045440	0.435800	0.563720
C241	C24	0.169010	0.470360	0.509220
C251	C25	0.884700	0.461320	0.556280
C261	C26	0.201690	0.818260	0.750180
C271	C27	0.759690	0.140560	0.634060
C281	C28	0.890840	0.064200	0.563720
C291	C29	0.821770	0.029640	0.509220
C301	C30	0.059020	0.038680	0.556280
C311	C31	0.270130	0.681740	0.749820
C321	C32	0.034310	0.359440	0.865940
C331	C33	0.018760	0.435800	0.936280
C341	C34	0.860630	0.470360	0.990780
C351	C35	0.153980	0.461320	0.943720
C361	C36	0.480050	0.818260	0.749820
C371	C37	0.599750	0.140560	0.865940
C381	C38	0.544960	0.064200	0.936280
C391	C39	0.648590	0.029640	0.990780
C401	C40	0.402300	0.038680	0.943720
C411	C41	0.486660	0.526680	0.250000
C421	C42	0.559450	0.381100	0.250000
C431	C43	0.763340	0.973320	0.250000
C441	C44	0.690550	0.118900	0.250000
C451	C45	0.513340	0.473320	0.750000
C461	C46	0.440550	0.618900	0.750000
C471	C47	0.236660	0.026680	0.750000
C481	C48	0.309450	0.881100	0.750000
O11	O1	0.566400	0.583360	0.270640
O21	O2	0.748320	0.669200	0.359160
O31	O3	0.002890	0.669640	0.315880
O41	O4	0.662960	0.916640	0.270640
O51	O5	0.392520	0.830800	0.359160
O61	O6	0.181230	0.830360	0.315880
O71	O7	0.350240	0.583360	0.229360
O81	O8	0.082480	0.669200	0.140840
O91	O9	0.827470	0.669640	0.184120
O101	O10	0.920400	0.916640	0.229360
O111	O11	0.276680	0.830800	0.140840
O121	O12	0.488410	0.830360	0.184120
O131	O13	0.433600	0.416640	0.729360
O141	O14	0.251680	0.330800	0.640840
O151	O15	0.997110	0.330360	0.684120
O161	O16	0.337040	0.083360	0.729360
O171	O17	0.607480	0.169200	0.640840
O181	O18	0.818770	0.169640	0.684120
O191	O19	0.649760	0.416640	0.770640
O201	O20	0.917520	0.330800	0.859160
O211	O21	0.172530	0.330360	0.815880
O221	O22	0.079600	0.083360	0.770640
O231	O23	0.723320	0.169200	0.859160
O241	O24	0.511590	0.169640	0.815880
H11	H1	0.311440	0.373260	0.249390
H21	H2	0.697830	0.557280	0.480070
H31	H3	0.205490	0.572560	0.397100
H41	H4	0.939170	0.126740	0.249390
H51	H5	0.322090	0.942720	0.480070
H61	H6	0.897410	0.927440	0.397100
H71	H7	0.815310	0.373260	0.250610
H81	H8	0.244880	0.557280	0.019930
H91	H9	0.721950	0.572560	0.102900
H101	H10	0.434090	0.126740	0.250610
H111	H11	0.235190	0.942720	0.019930
H121	H12	0.675150	0.927440	0.102900
H131	H13	0.688560	0.626740	0.750610
H141	H14	0.304750	0.446540	0.515470
H151	H15	0.794510	0.427440	0.602900
H161	H16	0.060830	0.873260	0.750610
H171	H17	0.677910	0.057280	0.519930
H181	H18	0.104070	0.072080	0.602530
H191	H19	0.184690	0.626740	0.749390
H201	H20	0.755120	0.442720	0.980070
H211	H21	0.278680	0.427920	0.897470
H221	H22	0.565910	0.873260	0.749390
H231	H23	0.766760	0.053460	0.984530
H241	H24	0.323850	0.072080	0.897470
