data_HAZGOF05_clean_h_PM
_symmetry_space_group_name_H-M	'P1'
_cell_length_a	8.734600
_cell_length_b	11.248900
_cell_length_c	17.722900
_cell_angle_alpha	84.510200
_cell_angle_beta	75.734500
_cell_angle_gamma	67.155100
_symmetry_Int_Tables_number 1

loop_
_symmetry_equiv_pos_as_xyz
'x,y,z'

loop_
_atom_site_label
_atom_site_type_symbol
_atom_site_fract_x
_atom_site_fract_y
_atom_site_fract_z
Sc11	Sc1	0.364270	0.250000	0.271460
Sc21	Sc2	0.885730	0.250000	0.228540
Sc31	Sc3	0.635730	0.750000	0.728540
Sc41	Sc4	0.114270	0.750000	0.771460
C11	C1	0.769150	0.680540	0.249360
C21	C2	0.533310	0.359480	0.366500
C31	C3	0.520620	0.437460	0.438500
C41	C4	0.356620	0.469460	0.489900
C51	C5	0.656500	0.460740	0.443660
C61	C6	0.981490	0.819460	0.249360
C71	C7	0.100190	0.140520	0.366500
C81	C8	0.040880	0.062540	0.438500
C91	C9	0.153480	0.030540	0.489900
C101	C10	0.899840	0.039260	0.443660
C111	C11	0.050310	0.680540	0.250640
C121	C12	0.607210	0.359480	0.133500
C131	C13	0.541920	0.437460	0.061500
C141	C14	0.673920	0.469460	0.010100
C151	C15	0.382760	0.460740	0.056340
C161	C16	0.699050	0.819460	0.250640
C171	C17	0.259290	0.140520	0.133500
C181	C18	0.396580	0.062540	0.061500
C191	C19	0.315980	0.030540	0.010100
C201	C20	0.560900	0.039260	0.056340
C211	C21	0.230850	0.319460	0.750640
C221	C22	0.466690	0.640520	0.633500
C231	C23	0.479380	0.562540	0.561500
C241	C24	0.643380	0.530540	0.510100
C251	C25	0.343500	0.539260	0.556340
C261	C26	0.018510	0.180540	0.750640
C271	C27	0.899810	0.859480	0.633500
C281	C28	0.959120	0.937460	0.561500
C291	C29	0.846520	0.969460	0.510100
C301	C30	0.100160	0.960740	0.556340
C311	C31	0.949690	0.319460	0.749360
C321	C32	0.392790	0.640520	0.866500
C331	C33	0.458080	0.562540	0.938500
C341	C34	0.326080	0.530540	0.989900
C351	C35	0.617240	0.539260	0.943660
C361	C36	0.300950	0.180540	0.749360
C371	C37	0.740710	0.859480	0.866500
C381	C38	0.603420	0.937460	0.938500
C391	C39	0.684020	0.969460	0.989900
C401	C40	0.439100	0.960740	0.943660
C411	C41	0.013640	0.472720	0.250000
C421	C42	0.939220	0.621560	0.250000
C431	C43	0.736360	0.027280	0.250000
C441	C44	0.810780	0.878440	0.250000
C451	C45	0.986360	0.527280	0.750000
C461	C46	0.060780	0.378440	0.750000
C471	C47	0.263640	0.972720	0.750000
C481	C48	0.189220	0.121560	0.750000
O11	O1	0.150990	0.416140	0.270780
O21	O2	0.416870	0.330760	0.359360
O31	O3	0.672330	0.329960	0.315780
O41	O4	0.578230	0.083860	0.270780
O51	O5	0.223770	0.169240	0.359360
O61	O6	0.011890	0.170040	0.315780
O71	O7	0.932870	0.416140	0.229220
O81	O8	0.752370	0.330760	0.140640
O91	O9	0.497710	0.329960	0.184220
O101	O10	0.837910	0.083860	0.229220
O111	O11	0.106990	0.169240	0.140640
O121	O12	0.318070	0.170040	0.184220
O131	O13	0.849010	0.583860	0.729220
O141	O14	0.583130	0.669240	0.640640
O151	O15	0.327670	0.670040	0.684220
O161	O16	0.421770	0.916140	0.729220
O171	O17	0.776230	0.830760	0.640640
O181	O18	0.988110	0.829960	0.684220
O191	O19	0.067130	0.583860	0.770780
O201	O20	0.247630	0.669240	0.859360
O211	O21	0.502290	0.670040	0.815780
O221	O22	0.162090	0.916140	0.770780
O231	O23	0.893010	0.830760	0.859360
O241	O24	0.681930	0.829960	0.815780
H11	H1	0.684340	0.625590	0.247900
H21	H2	0.256950	0.439310	0.475160
H31	H3	0.778570	0.425370	0.396010
H41	H4	0.067760	0.874410	0.247900
H51	H5	0.267890	0.060690	0.475160
H61	H6	0.825420	0.074630	0.396000
H71	H7	0.190070	0.625590	0.252100
H81	H8	0.803750	0.439310	0.024840
H91	H9	0.296050	0.425370	0.104000
H101	H10	0.557830	0.874410	0.252100
H111	H11	0.171410	0.060690	0.024840
H121	H12	0.599950	0.074630	0.104000
H131	H13	0.315660	0.374410	0.752100
H141	H14	0.743050	0.560690	0.524840
H151	H15	0.221430	0.574630	0.603990
H161	H16	0.932240	0.125590	0.752100
H171	H17	0.727600	0.946970	0.515960
H181	H18	0.177550	0.926750	0.602950
H191	H19	0.809930	0.374410	0.747900
H201	H20	0.196250	0.560690	0.975160
H211	H21	0.707250	0.573250	0.897050
H221	H22	0.442170	0.125590	0.747900
H231	H23	0.828590	0.939310	0.975160
H241	H24	0.400050	0.925370	0.896000
