data_HAZGOF03_clean_h_PM
_symmetry_space_group_name_H-M	'P1'
_cell_length_a	8.752900
_cell_length_b	11.262600
_cell_length_c	17.727600
_cell_angle_alpha	84.495100
_cell_angle_beta	75.707600
_cell_angle_gamma	67.134000
_symmetry_Int_Tables_number 1

loop_
_symmetry_equiv_pos_as_xyz
'x,y,z'

loop_
_atom_site_label
_atom_site_type_symbol
_atom_site_fract_x
_atom_site_fract_y
_atom_site_fract_z
Sc11	Sc1	0.635780	0.250000	0.728440
Sc21	Sc2	0.114220	0.250000	0.771560
Sc31	Sc3	0.364220	0.750000	0.271560
Sc41	Sc4	0.885780	0.750000	0.228440
C11	C1	0.021170	0.683080	0.749220
C21	C2	0.905620	0.359080	0.630280
C31	C3	0.952650	0.433800	0.564500
C41	C4	0.859410	0.466340	0.507380
C51	C5	0.097640	0.461100	0.555780
C61	C6	0.229610	0.816920	0.749220
C71	C7	0.464100	0.140920	0.630280
C81	C8	0.482850	0.066200	0.564500
C91	C9	0.633210	0.033660	0.507380
C101	C10	0.346580	0.038900	0.555780
C111	C11	0.295750	0.683080	0.750780
C121	C12	0.735300	0.359080	0.869720
C131	C13	0.613550	0.433800	0.935500
C141	C14	0.674250	0.466340	0.992620
C151	C15	0.441260	0.461100	0.944220
C161	C16	0.953470	0.816920	0.750780
C171	C17	0.394980	0.140920	0.869720
C181	C18	0.450950	0.066200	0.935500
C191	C19	0.333130	0.033660	0.992620
C201	C20	0.614520	0.038900	0.944220
C211	C21	0.978830	0.316920	0.250780
C221	C22	0.094380	0.640920	0.369720
C231	C23	0.047350	0.566200	0.435500
C241	C24	0.140590	0.533660	0.492620
C251	C25	0.902360	0.538900	0.444220
C261	C26	0.770390	0.183080	0.250780
C271	C27	0.535900	0.859080	0.369720
C281	C28	0.517150	0.933800	0.435500
C291	C29	0.366790	0.966340	0.492620
C301	C30	0.653420	0.961100	0.444220
C311	C31	0.704250	0.316920	0.249220
C321	C32	0.264700	0.640920	0.130280
C331	C33	0.386450	0.566200	0.064500
C341	C34	0.325750	0.533660	0.007380
C351	C35	0.558740	0.538900	0.055780
C361	C36	0.046530	0.183080	0.249220
C371	C37	0.605020	0.859080	0.130280
C381	C38	0.549050	0.933800	0.064500
C391	C39	0.666870	0.966340	0.007380
C401	C40	0.385480	0.961100	0.055780
C411	C41	0.261010	0.477980	0.750000
C421	C42	0.191620	0.616760	0.750000
C431	C43	0.988990	0.022020	0.750000
C441	C44	0.058380	0.883240	0.750000
C451	C45	0.738990	0.522020	0.250000
C461	C46	0.808380	0.383240	0.250000
C471	C47	0.011010	0.977980	0.250000
C481	C48	0.941620	0.116760	0.250000
O11	O1	0.420460	0.416400	0.729080
O21	O2	0.775820	0.330380	0.639980
O31	O3	0.985430	0.332560	0.684380
O41	O4	0.850460	0.083600	0.729080
O51	O5	0.584200	0.169620	0.639980
O61	O6	0.330190	0.167440	0.684380
O71	O7	0.163140	0.416400	0.770920
O81	O8	0.893800	0.330380	0.860020
O91	O9	0.682010	0.332560	0.815620
O101	O10	0.065940	0.083600	0.770920
O111	O11	0.246180	0.169620	0.860020
O121	O12	0.502370	0.167440	0.815620
O131	O13	0.579540	0.583600	0.270920
O141	O14	0.224180	0.669620	0.360020
O151	O15	0.014570	0.667440	0.315620
O161	O16	0.149540	0.916400	0.270920
O171	O17	0.415800	0.830380	0.360020
O181	O18	0.669810	0.832560	0.315620
O191	O19	0.836860	0.583600	0.229080
O201	O20	0.106200	0.669620	0.139980
O211	O21	0.317990	0.667440	0.184380
O221	O22	0.934060	0.916400	0.229080
O231	O23	0.753820	0.830380	0.139980
O241	O24	0.497630	0.832560	0.184380
H11	H1	0.936800	0.628200	0.747310
H21	H2	0.749370	0.433370	0.512910
H31	H3	0.179840	0.423910	0.600320
H41	H4	0.315890	0.871800	0.747310
H51	H5	0.737720	0.066630	0.512910
H61	H6	0.219830	0.076090	0.600320
H71	H7	0.435000	0.628210	0.752690
H81	H8	0.817260	0.433370	0.987090
H91	H9	0.396250	0.423910	0.899680
H101	H10	0.812310	0.871790	0.752690
H111	H11	0.195650	0.066630	0.987090
H121	H12	0.704070	0.076090	0.899680
H131	H13	0.063200	0.371800	0.252690
H141	H14	0.250630	0.566630	0.487090
H151	H15	0.818980	0.575470	0.400130
H161	H16	0.684110	0.128200	0.252690
H171	H17	0.260900	0.934220	0.488060
H181	H18	0.780900	0.924530	0.400130
H191	H19	0.565000	0.371790	0.247310
H201	H20	0.182740	0.566630	0.012910
H211	H21	0.605560	0.575470	0.099870
H221	H22	0.187690	0.128210	0.247310
H231	H23	0.804350	0.933370	0.012910
H241	H24	0.294570	0.924530	0.099870
