data_HAZGOF08_clean_h_PM
_symmetry_space_group_name_H-M	'P1'
_cell_length_a	8.704700
_cell_length_b	11.236600
_cell_length_c	17.729300
_cell_angle_alpha	84.543700
_cell_angle_beta	75.789600
_cell_angle_gamma	67.211000
_symmetry_Int_Tables_number 1

loop_
_symmetry_equiv_pos_as_xyz
'x,y,z'

loop_
_atom_site_label
_atom_site_type_symbol
_atom_site_fract_x
_atom_site_fract_y
_atom_site_fract_z
Sc11	Sc1	0.635730	0.250000	0.728540
Sc21	Sc2	0.114270	0.250000	0.771460
Sc31	Sc3	0.364270	0.750000	0.271460
Sc41	Sc4	0.885730	0.750000	0.228540
C11	C1	0.019560	0.682380	0.750380
C21	C2	0.900770	0.359700	0.632960
C31	C3	0.952570	0.435180	0.564080
C41	C4	0.854970	0.468140	0.508520
C51	C5	0.098420	0.459700	0.555060
C61	C6	0.230060	0.817620	0.750380
C71	C7	0.466270	0.140300	0.632960
C81	C8	0.483350	0.064820	0.564080
C91	C9	0.636510	0.031860	0.508520
C101	C10	0.346520	0.040300	0.555060
C111	C11	0.298060	0.682380	0.749620
C121	C12	0.739530	0.359700	0.867040
C131	C13	0.612250	0.435180	0.935920
C141	C14	0.676890	0.468140	0.991480
C151	C15	0.441880	0.459700	0.944940
C161	C16	0.952320	0.817620	0.749620
C171	C17	0.393430	0.140300	0.867040
C181	C18	0.451830	0.064820	0.935920
C191	C19	0.331630	0.031860	0.991480
C201	C20	0.613180	0.040300	0.944940
C211	C21	0.980440	0.317620	0.249620
C221	C22	0.099230	0.640300	0.367040
C231	C23	0.047430	0.564820	0.435920
C241	C24	0.145030	0.531860	0.491480
C251	C25	0.901580	0.540300	0.444940
C261	C26	0.769940	0.182380	0.249620
C271	C27	0.533730	0.859700	0.367040
C281	C28	0.516650	0.935180	0.435920
C291	C29	0.363490	0.968140	0.491480
C301	C30	0.653480	0.959700	0.444940
C311	C31	0.701940	0.317620	0.250380
C321	C32	0.260470	0.640300	0.132960
C331	C33	0.387750	0.564820	0.064080
C341	C34	0.323110	0.531860	0.008520
C351	C35	0.558120	0.540300	0.055060
C361	C36	0.047680	0.182380	0.250380
C371	C37	0.606570	0.859700	0.132960
C381	C38	0.548170	0.935180	0.064080
C391	C39	0.668370	0.968140	0.008520
C401	C40	0.386820	0.959700	0.055060
C411	C41	0.262340	0.475320	0.750000
C421	C42	0.191150	0.617700	0.750000
C431	C43	0.987660	0.024680	0.750000
C441	C44	0.058850	0.882300	0.750000
C451	C45	0.737660	0.524680	0.250000
C461	C46	0.808850	0.382300	0.250000
C471	C47	0.012340	0.975320	0.250000
C481	C48	0.941150	0.117700	0.250000
O11	O1	0.420440	0.416440	0.729080
O21	O2	0.777690	0.330920	0.641700
O31	O3	0.986530	0.331400	0.684340
O41	O4	0.850480	0.083560	0.729080
O51	O5	0.580610	0.169080	0.641700
O61	O6	0.329130	0.168600	0.684340
O71	O7	0.163120	0.416440	0.770920
O81	O8	0.891390	0.330920	0.858300
O91	O9	0.682070	0.331400	0.815660
O101	O10	0.065960	0.083560	0.770920
O111	O11	0.250310	0.169080	0.858300
O121	O12	0.502270	0.168600	0.815660
O131	O13	0.579560	0.583560	0.270920
O141	O14	0.222310	0.669080	0.358300
O151	O15	0.013470	0.668600	0.315660
O161	O16	0.149520	0.916440	0.270920
O171	O17	0.419390	0.830920	0.358300
O181	O18	0.670870	0.831400	0.315660
O191	O19	0.836880	0.583560	0.229080
O201	O20	0.108610	0.669080	0.141700
O211	O21	0.317930	0.668600	0.184340
O221	O22	0.934040	0.916440	0.229080
O231	O23	0.749690	0.830920	0.141700
O241	O24	0.497730	0.831400	0.184340
H11	H1	0.933200	0.627370	0.751300
H21	H2	0.742610	0.436350	0.516050
H31	H3	0.181430	0.421210	0.599410
H41	H4	0.315510	0.872630	0.751300
H51	H5	0.741340	0.063650	0.516050
H61	H6	0.219160	0.078790	0.599410
H71	H7	0.439430	0.627370	0.748700
H81	H8	0.821050	0.436350	0.983950
H91	H9	0.397360	0.421210	0.900590
H101	H10	0.811860	0.872630	0.748700
H111	H11	0.195000	0.063650	0.983950
H121	H12	0.702050	0.078790	0.900590
H131	H13	0.066800	0.372630	0.248700
H141	H14	0.257390	0.563650	0.483950
H151	H15	0.818570	0.578790	0.400590
H161	H16	0.684490	0.127370	0.248700
H171	H17	0.254310	0.939020	0.486980
H181	H18	0.780990	0.921340	0.400680
H191	H19	0.560570	0.372630	0.251300
H201	H20	0.178950	0.563650	0.016050
H211	H21	0.603010	0.578660	0.099320
H221	H22	0.188140	0.127370	0.251300
H231	H23	0.805000	0.936350	0.016050
H241	H24	0.297670	0.921340	0.099320
