data_HAZGOF_clean_PM
_symmetry_space_group_name_H-M	'P1'
_cell_length_a	8.743300
_cell_length_b	11.256000
_cell_length_c	17.730600
_cell_angle_alpha	84.505000
_cell_angle_beta	75.726000
_cell_angle_gamma	67.146200
_symmetry_Int_Tables_number 1

loop_
_symmetry_equiv_pos_as_xyz
'x,y,z'

loop_
_atom_site_label
_atom_site_type_symbol
_atom_site_fract_x
_atom_site_fract_y
_atom_site_fract_z
Sc11	Sc1	0.635680	0.750000	0.728640
Sc21	Sc2	0.114320	0.750000	0.771360
Sc31	Sc3	0.364320	0.250000	0.271360
Sc41	Sc4	0.885680	0.250000	0.228640
H11	H1	0.220500	0.550800	0.982200
H21	H2	0.683800	0.571800	0.908600
H31	H3	0.845100	0.362200	0.749600
H41	H4	0.797300	0.949200	0.982200
H51	H5	0.407600	0.928200	0.908600
H61	H6	0.405300	0.137800	0.749600
H71	H7	0.728700	0.550800	0.517800
H81	H8	0.244400	0.571800	0.591400
H91	H9	0.292700	0.362200	0.750400
H101	H10	0.753500	0.949200	0.517800
H111	H11	0.164200	0.928200	0.591400
H121	H12	0.956900	0.137800	0.750400
H131	H13	0.779500	0.449200	0.017800
H141	H14	0.316200	0.428200	0.091400
H151	H15	0.154900	0.637800	0.250400
H161	H16	0.202700	0.050800	0.017800
H171	H17	0.592400	0.071800	0.091400
H181	H18	0.594700	0.862200	0.250400
H191	H19	0.271300	0.449200	0.482200
H201	H20	0.755600	0.428200	0.408600
H211	H21	0.707300	0.637800	0.249600
H221	H22	0.246500	0.050800	0.482200
H231	H23	0.835800	0.071800	0.408600
H241	H24	0.043100	0.862200	0.249600
C11	C1	0.956290	0.316600	0.749020
C21	C2	0.449300	0.567140	0.935040
C31	C3	0.395790	0.639440	0.864600
C41	C4	0.611960	0.538920	0.944560
C51	C5	0.337380	0.528300	0.990540
C61	C6	0.294690	0.183400	0.749020
C71	C7	0.615660	0.932860	0.935040
C81	C8	0.739610	0.860560	0.864600
C91	C9	0.443480	0.961080	0.944560
C101	C10	0.672080	0.971700	0.990540
C111	C11	0.227110	0.316600	0.750980
C121	C12	0.483560	0.567140	0.564960
C131	C13	0.464770	0.639440	0.635400
C141	C14	0.349120	0.538920	0.555440
C151	C15	0.634320	0.528300	0.509460
C161	C16	0.021910	0.183400	0.750980
C171	C17	0.951480	0.932860	0.564960
C181	C18	0.899830	0.860560	0.635400
C191	C19	0.095440	0.961080	0.555440
C201	C20	0.856220	0.971700	0.509460
C211	C21	0.043710	0.683400	0.250980
C221	C22	0.550700	0.432860	0.064960
C231	C23	0.604210	0.360560	0.135400
C241	C24	0.388040	0.461080	0.055440
C251	C25	0.662620	0.471700	0.009460
C261	C26	0.705310	0.816600	0.250980
C271	C27	0.384340	0.067140	0.064960
C281	C28	0.260390	0.139440	0.135400
C291	C29	0.556520	0.038920	0.055440
C301	C30	0.327920	0.028300	0.009460
C311	C31	0.772890	0.683400	0.249020
C321	C32	0.516440	0.432860	0.435040
C331	C33	0.535230	0.360560	0.364600
C341	C34	0.650880	0.461080	0.444560
C351	C35	0.365680	0.471700	0.490540
C361	C36	0.978090	0.816600	0.249020
C371	C37	0.048520	0.067140	0.435040
C381	C38	0.100170	0.139440	0.364600
C391	C39	0.904560	0.038920	0.444560
C401	C40	0.143780	0.028300	0.490540
C411	C41	0.986430	0.527140	0.750000
C421	C42	0.058100	0.383800	0.750000
C431	C43	0.263570	0.972860	0.750000
C441	C44	0.191900	0.116200	0.750000
C451	C45	0.013570	0.472860	0.250000
C461	C46	0.941900	0.616200	0.250000
C471	C47	0.736430	0.027140	0.250000
C481	C48	0.808100	0.883800	0.250000
O11	O1	0.848770	0.583620	0.729380
O21	O2	0.503620	0.668500	0.814860
O31	O3	0.245970	0.666640	0.858920
O41	O4	0.421850	0.916380	0.729380
O51	O5	0.681520	0.831500	0.814860
O61	O6	0.895110	0.833360	0.858920
O71	O7	0.067610	0.583620	0.770620
O81	O8	0.327880	0.668500	0.685140
O91	O9	0.587390	0.666640	0.641080
O101	O10	0.161770	0.916380	0.770620
O111	O11	0.986980	0.831500	0.685140
O121	O12	0.771530	0.833360	0.641080
O131	O13	0.151230	0.416380	0.270620
O141	O14	0.496380	0.331500	0.185140
O151	O15	0.754030	0.333360	0.141080
O161	O16	0.578150	0.083620	0.270620
O171	O17	0.318480	0.168500	0.185140
O181	O18	0.104890	0.166640	0.141080
O191	O19	0.932390	0.416380	0.229380
O201	O20	0.672120	0.331500	0.314860
O211	O21	0.412610	0.333360	0.358920
O221	O22	0.838230	0.083620	0.229380
O231	O23	0.013020	0.168500	0.314860
O241	O24	0.228470	0.166640	0.358920
