data_HAZGOF02_clean_h_PM
_symmetry_space_group_name_H-M	'P1'
_cell_length_a	8.754700
_cell_length_b	11.169700
_cell_length_c	17.735900
_cell_angle_alpha	95.246800
_cell_angle_beta	104.289000
_cell_angle_gamma	68.252500
_symmetry_Int_Tables_number 1

loop_
_symmetry_equiv_pos_as_xyz
'x,y,z'

loop_
_atom_site_label
_atom_site_type_symbol
_atom_site_fract_x
_atom_site_fract_y
_atom_site_fract_z
Sc11	Sc1	0.365560	0.250000	0.731120
Sc21	Sc2	0.634440	0.750000	0.268880
Sc31	Sc3	0.886690	0.250000	0.773380
Sc41	Sc4	0.113310	0.750000	0.226620
C11	C1	0.024400	0.476520	0.752600
C21	C2	0.949200	0.616310	0.753600
C31	C3	0.045000	0.689800	0.749200
C41	C4	0.778400	0.676400	0.753200
C51	C5	0.259190	0.140100	0.870580
C61	C6	0.387850	0.063100	0.933700
C71	C7	0.558480	0.043100	0.945560
C81	C8	0.327500	0.030500	0.991400
C91	C9	0.544370	0.359800	0.633940
C101	C10	0.516880	0.435500	0.566360
C111	C11	0.369770	0.462500	0.507940
C121	C12	0.649010	0.469500	0.557620
C131	C13	0.728200	0.023480	0.752600
C141	C14	0.804400	0.883690	0.753600
C151	C15	0.704200	0.810200	0.749200
C161	C16	0.974800	0.823600	0.753200
C171	C17	0.611390	0.359900	0.870580
C181	C18	0.545850	0.436900	0.933700
C191	C19	0.387080	0.456900	0.945560
C201	C20	0.663900	0.469500	0.991400
C211	C21	0.089570	0.140200	0.633940
C221	C22	0.049480	0.064500	0.566360
C231	C23	0.138170	0.037500	0.507940
C241	C24	0.908610	0.030500	0.557620
C251	C25	0.975600	0.523480	0.247400
C261	C26	0.050800	0.383690	0.246400
C271	C27	0.955000	0.310200	0.250800
C281	C28	0.221600	0.323600	0.246800
C291	C29	0.740810	0.859900	0.129420
C301	C30	0.612150	0.936900	0.066300
C311	C31	0.441520	0.956900	0.054440
C321	C32	0.672500	0.969500	0.008600
C331	C33	0.455630	0.640200	0.366060
C341	C34	0.483120	0.564500	0.433640
C351	C35	0.630230	0.537500	0.492060
C361	C36	0.350990	0.530500	0.442380
C371	C37	0.271800	0.976520	0.247400
C381	C38	0.195600	0.116310	0.246400
C391	C39	0.295800	0.189800	0.250800
C401	C40	0.025200	0.176400	0.246800
C411	C41	0.388610	0.640100	0.129420
C421	C42	0.454150	0.563100	0.066300
C431	C43	0.612920	0.543100	0.054440
C441	C44	0.336100	0.530500	0.008600
C451	C45	0.910430	0.859800	0.366060
C461	C46	0.950520	0.935500	0.433640
C471	C47	0.861830	0.962500	0.492060
C481	C48	0.091390	0.969500	0.442380
O11	O1	0.162460	0.422300	0.730520
O21	O2	0.950000	0.410800	0.773600
O31	O3	0.309310	0.176300	0.819020
O41	O4	0.102280	0.164500	0.861360
O51	O5	0.428540	0.323800	0.643480
O61	O6	0.677870	0.343700	0.686940
O71	O7	0.568060	0.077700	0.730520
O81	O8	0.823600	0.089200	0.773600
O91	O9	0.509710	0.323700	0.819020
O101	O10	0.759080	0.335500	0.861360
O111	O11	0.214940	0.176200	0.643480
O121	O12	0.009070	0.156300	0.686940
O131	O13	0.837540	0.577700	0.269480
O141	O14	0.050000	0.589200	0.226400
O151	O15	0.690690	0.823700	0.180980
O161	O16	0.897720	0.835500	0.138640
O171	O17	0.571460	0.676200	0.356520
O181	O18	0.322130	0.656300	0.313060
O191	O19	0.431940	0.922300	0.269480
O201	O20	0.176400	0.910800	0.226400
O211	O21	0.490290	0.676300	0.180980
O221	O22	0.240920	0.664500	0.138640
O231	O23	0.785060	0.823800	0.356520
O241	O24	0.990930	0.843700	0.313060
H11	H1	0.180460	0.640390	0.742340
H21	H2	0.699740	0.616050	0.756140
H31	H3	0.603690	0.086900	0.903780
H41	H4	0.185630	0.064130	0.986710
H51	H5	0.265270	0.428880	0.513970
H61	H6	0.772200	0.441600	0.604140
H71	H7	0.561890	0.859610	0.742340
H81	H8	0.056790	0.883640	0.756140
H91	H9	0.300090	0.413100	0.903780
H101	H10	0.801080	0.435870	0.986710
H111	H11	0.248690	0.071120	0.513970
H121	H12	0.831940	0.058400	0.604140
H131	H13	0.819540	0.359610	0.257660
H141	H14	0.300260	0.383950	0.243860
H151	H15	0.396310	0.913100	0.096220
H161	H16	0.814110	0.936370	0.012720
H171	H17	0.735150	0.570880	0.486350
H181	H18	0.227800	0.558400	0.395860
H191	H19	0.438110	0.140390	0.257660
H201	H20	0.943590	0.116050	0.243860
H211	H21	0.701030	0.586400	0.095820
H221	H22	0.198920	0.564130	0.013290
H231	H23	0.751310	0.928880	0.486030
H241	H24	0.168470	0.941820	0.396030
