data_HAZNIH_clean_PM
_symmetry_space_group_name_H-M	'P1'
_cell_length_a	15.395900
_cell_length_b	17.377500
_cell_length_c	15.054300
_cell_angle_alpha	90.000000
_cell_angle_beta	120.420000
_cell_angle_gamma	90.000000
_symmetry_Int_Tables_number 1

loop_
_symmetry_equiv_pos_as_xyz
'x,y,z'

loop_
_atom_site_label
_atom_site_type_symbol
_atom_site_fract_x
_atom_site_fract_y
_atom_site_fract_z
Cd11	Cd1	0.866110	0.632710	0.714300
Br11	Br1	0.536980	0.598950	0.129810
Br21	Br2	0.137920	0.632540	0.307960
O11	O1	0.904700	0.492800	0.571700
O21	O2	0.784400	0.576300	0.550000
O31	O3	0.949000	0.670500	0.882600
O41	O4	0.076200	0.713800	0.865600
H11	H1	0.026300	0.529300	0.806300
N11	N1	0.781300	0.455400	0.264700
N21	N2	0.238700	0.779400	0.166900
C11	C1	0.819300	0.468600	0.364800
H21	H2	0.877900	0.443000	0.411600
C21	C2	0.698000	0.493200	0.197200
H31	H3	0.670500	0.484400	0.127000
C31	C3	0.652500	0.544700	0.229600
C41	C4	0.690600	0.559600	0.333400
H41	H4	0.660400	0.595200	0.355500
C51	C5	0.775400	0.519200	0.402400
C61	C6	0.825700	0.530600	0.518300
C71	C7	0.176100	0.765600	0.066400
H51	H5	0.185700	0.792200	0.018400
C81	C8	0.224500	0.740500	0.235100
H61	H6	0.267700	0.749500	0.305000
C91	C9	0.148300	0.687900	0.205300
C101	C10	0.082000	0.674400	0.102700
H71	H7	0.028500	0.640300	0.081700
C111	C11	0.097600	0.713400	0.031500
C121	C12	0.035200	0.697800	0.916600
Cd21	Cd2	0.366110	0.132710	0.714300
Br31	Br3	0.036980	0.098950	0.129810
Br41	Br4	0.637920	0.132540	0.307960
O51	O5	0.404700	0.992800	0.571700
O61	O6	0.284400	0.076300	0.550000
O71	O7	0.449000	0.170500	0.882600
O81	O8	0.576200	0.213800	0.865600
H81	H8	0.526300	0.029300	0.806300
N31	N3	0.281300	0.955400	0.264700
N41	N4	0.738700	0.279400	0.166900
C131	C13	0.319300	0.968600	0.364800
H91	H9	0.377900	0.943000	0.411600
C141	C14	0.198000	0.993200	0.197200
H101	H10	0.170500	0.984400	0.127000
C151	C15	0.152500	0.044700	0.229600
C161	C16	0.190600	0.059600	0.333400
H111	H11	0.160400	0.095200	0.355500
C171	C17	0.275400	0.019200	0.402400
C181	C18	0.325700	0.030600	0.518300
C191	C19	0.676100	0.265600	0.066400
H121	H12	0.685700	0.292200	0.018400
C201	C20	0.724500	0.240500	0.235100
H131	H13	0.767700	0.249500	0.305000
C211	C21	0.648300	0.187900	0.205300
C221	C22	0.582000	0.174400	0.102700
H141	H14	0.528500	0.140300	0.081700
C231	C23	0.597600	0.213400	0.031500
C241	C24	0.535200	0.197800	0.916600
Cd31	Cd3	0.133890	0.632710	0.785700
Br51	Br5	0.463020	0.598950	0.370190
Br61	Br6	0.862080	0.632540	0.192040
O91	O9	0.095300	0.492800	0.928300
O101	O10	0.215600	0.576300	0.950000
O111	O11	0.051000	0.670500	0.617400
O121	O12	0.923800	0.713800	0.634400
H151	H15	0.973700	0.529300	0.693700
N51	N5	0.218700	0.455400	0.235300
N61	N6	0.761300	0.779400	0.333100
C251	C25	0.180700	0.468600	0.135200
H161	H16	0.122100	0.443000	0.088400
C261	C26	0.302000	0.493200	0.302800
H171	H17	0.329500	0.484400	0.373000
C271	C27	0.347500	0.544700	0.270400
C281	C28	0.309400	0.559600	0.166600
H181	H18	0.339600	0.595200	0.144500
C291	C29	0.224600	0.519200	0.097600
C301	C30	0.174300	0.530600	0.981700
C311	C31	0.823900	0.765600	0.433600
H191	H19	0.814300	0.792200	0.481600
C321	C32	0.775500	0.740500	0.264900
H201	H20	0.732300	0.749500	0.195000
C331	C33	0.851700	0.687900	0.294700
C341	C34	0.918000	0.674400	0.397300
H211	H21	0.971500	0.640300	0.418300
C351	C35	0.902400	0.713400	0.468500
C361	C36	0.964800	0.697800	0.583400
Cd41	Cd4	0.633890	0.132710	0.785700
Br71	Br7	0.963020	0.098950	0.370190
Br81	Br8	0.362080	0.132540	0.192040
O131	O13	0.595300	0.992800	0.928300
O141	O14	0.715600	0.076300	0.950000
O151	O15	0.551000	0.170500	0.617400
O161	O16	0.423800	0.213800	0.634400
H221	H22	0.473700	0.029300	0.693700
N71	N7	0.718700	0.955400	0.235300
N81	N8	0.261300	0.279400	0.333100
C371	C37	0.680700	0.968600	0.135200
H231	H23	0.622100	0.943000	0.088400
C381	C38	0.802000	0.993200	0.302800
H241	H24	0.829500	0.984400	0.373000
C391	C39	0.847500	0.044700	0.270400
C401	C40	0.809400	0.059600	0.166600
H251	H25	0.839600	0.095200	0.144500
C411	C41	0.724600	0.019200	0.097600
C421	C42	0.674300	0.030600	0.981700
C431	C43	0.323900	0.265600	0.433600
H261	H26	0.314300	0.292200	0.481600
C441	C44	0.275500	0.240500	0.264900
H271	H27	0.232300	0.249500	0.195000
C451	C45	0.351700	0.187900	0.294700
C461	C46	0.418000	0.174400	0.397300
H281	H28	0.471500	0.140300	0.418300
C471	C47	0.402400	0.213400	0.468500
C481	C48	0.464800	0.197800	0.583400
Cd51	Cd5	0.133890	0.367290	0.285700
Br91	Br9	0.463020	0.401050	0.870190
Br101	Br10	0.862080	0.367460	0.692040
O171	O17	0.095300	0.507200	0.428300
O181	O18	0.215600	0.423700	0.450000
O191	O19	0.051000	0.329500	0.117400
O201	O20	0.923800	0.286200	0.134400
H291	H29	0.973700	0.470700	0.193700
N91	N9	0.218700	0.544600	0.735300
N101	N10	0.761300	0.220600	0.833100
C491	C49	0.180700	0.531400	0.635200
H301	H30	0.122100	0.557000	0.588400
C501	C50	0.302000	0.506800	0.802800
H311	H31	0.329500	0.515600	0.873000
C511	C51	0.347500	0.455300	0.770400
C521	C52	0.309400	0.440400	0.666600
H321	H32	0.339600	0.404800	0.644500
C531	C53	0.224600	0.480800	0.597600
C541	C54	0.174300	0.469400	0.481700
C551	C55	0.823900	0.234400	0.933600
H331	H33	0.814300	0.207800	0.981600
C561	C56	0.775500	0.259500	0.764900
H341	H34	0.732300	0.250500	0.695000
C571	C57	0.851700	0.312100	0.794700
C581	C58	0.918000	0.325600	0.897300
H351	H35	0.971500	0.359700	0.918300
C591	C59	0.902400	0.286600	0.968500
C601	C60	0.964800	0.302200	0.083400
Cd61	Cd6	0.633890	0.867290	0.285700
Br111	Br11	0.963020	0.901050	0.870190
Br121	Br12	0.362080	0.867460	0.692040
O211	O21	0.595300	0.007200	0.428300
O221	O22	0.715600	0.923700	0.450000
O231	O23	0.551000	0.829500	0.117400
O241	O24	0.423800	0.786200	0.134400
H361	H36	0.473700	0.970700	0.193700
N111	N11	0.718700	0.044600	0.735300
N121	N12	0.261300	0.720600	0.833100
C611	C61	0.680700	0.031400	0.635200
H371	H37	0.622100	0.057000	0.588400
C621	C62	0.802000	0.006800	0.802800
H381	H38	0.829500	0.015600	0.873000
C631	C63	0.847500	0.955300	0.770400
C641	C64	0.809400	0.940400	0.666600
H391	H39	0.839600	0.904800	0.644500
C651	C65	0.724600	0.980800	0.597600
C661	C66	0.674300	0.969400	0.481700
C671	C67	0.323900	0.734400	0.933600
H401	H40	0.314300	0.707800	0.981600
C681	C68	0.275500	0.759500	0.764900
H411	H41	0.232300	0.750500	0.695000
C691	C69	0.351700	0.812100	0.794700
C701	C70	0.418000	0.825600	0.897300
H421	H42	0.471500	0.859700	0.918300
C711	C71	0.402400	0.786600	0.968500
C721	C72	0.464800	0.802200	0.083400
Cd71	Cd7	0.866110	0.367290	0.214300
Br131	Br13	0.536980	0.401050	0.629810
Br141	Br14	0.137920	0.367460	0.807960
O251	O25	0.904700	0.507200	0.071700
O261	O26	0.784400	0.423700	0.050000
O271	O27	0.949000	0.329500	0.382600
O281	O28	0.076200	0.286200	0.365600
H431	H43	0.026300	0.470700	0.306300
N131	N13	0.781300	0.544600	0.764700
N141	N14	0.238700	0.220600	0.666900
C731	C73	0.819300	0.531400	0.864800
H441	H44	0.877900	0.557000	0.911600
C741	C74	0.698000	0.506800	0.697200
H451	H45	0.670500	0.515600	0.627000
C751	C75	0.652500	0.455300	0.729600
C761	C76	0.690600	0.440400	0.833400
H461	H46	0.660400	0.404800	0.855500
C771	C77	0.775400	0.480800	0.902400
C781	C78	0.825700	0.469400	0.018300
C791	C79	0.176100	0.234400	0.566400
H471	H47	0.185700	0.207800	0.518400
C801	C80	0.224500	0.259500	0.735100
H481	H48	0.267700	0.250500	0.805000
C811	C81	0.148300	0.312100	0.705300
C821	C82	0.082000	0.325600	0.602700
H491	H49	0.028500	0.359700	0.581700
C831	C83	0.097600	0.286600	0.531500
C841	C84	0.035200	0.302200	0.416600
Cd81	Cd8	0.366110	0.867290	0.214300
Br151	Br15	0.036980	0.901050	0.629810
Br161	Br16	0.637920	0.867460	0.807960
O291	O29	0.404700	0.007200	0.071700
O301	O30	0.284400	0.923700	0.050000
O311	O31	0.449000	0.829500	0.382600
O321	O32	0.576200	0.786200	0.365600
H501	H50	0.526300	0.970700	0.306300
N151	N15	0.281300	0.044600	0.764700
N161	N16	0.738700	0.720600	0.666900
C851	C85	0.319300	0.031400	0.864800
H511	H51	0.377900	0.057000	0.911600
C861	C86	0.198000	0.006800	0.697200
H521	H52	0.170500	0.015600	0.627000
C871	C87	0.152500	0.955300	0.729600
C881	C88	0.190600	0.940400	0.833400
H531	H53	0.160400	0.904800	0.855500
C891	C89	0.275400	0.980800	0.902400
C901	C90	0.325700	0.969400	0.018300
C911	C91	0.676100	0.734400	0.566400
H541	H54	0.685700	0.707800	0.518400
C921	C92	0.724500	0.759500	0.735100
H551	H55	0.767700	0.750500	0.805000
C931	C93	0.648300	0.812100	0.705300
C941	C94	0.582000	0.825600	0.602700
H561	H56	0.528500	0.859700	0.581700
C951	C95	0.597600	0.786600	0.531500
C961	C96	0.535200	0.802200	0.416600
O331	O33	0.000000	0.554200	0.750000
O341	O34	0.500000	0.054200	0.750000
O351	O35	0.000000	0.445800	0.250000
O361	O36	0.500000	0.945800	0.250000
