data_HAZSIL_clean_PM
_symmetry_space_group_name_H-M	'P1'
_cell_length_a	9.540300
_cell_length_b	9.540300
_cell_length_c	26.608100
_cell_angle_alpha	82.890000
_cell_angle_beta	82.889900
_cell_angle_gamma	108.034000
_symmetry_Int_Tables_number 1

loop_
_symmetry_equiv_pos_as_xyz
'x,y,z'

loop_
_atom_site_label
_atom_site_type_symbol
_atom_site_fract_x
_atom_site_fract_y
_atom_site_fract_z
Cu11	Cu1	0.366830	0.430110	0.211940
Cu21	Cu2	0.302710	0.963010	0.232740
Cu31	Cu3	0.642050	0.578770	0.788060
Cu41	Cu4	0.195750	0.535450	0.767260
Cu51	Cu5	0.828770	0.392050	0.288060
Cu61	Cu6	0.785450	0.945750	0.267260
Cu71	Cu7	0.680110	0.116830	0.711940
Cu81	Cu8	0.213010	0.052710	0.732740
P11	P1	0.593260	0.608920	0.269420
P21	P2	0.624300	0.183200	0.234700
P31	P3	0.878340	0.862680	0.730580
P41	P4	0.417900	0.859000	0.765300
P51	P5	0.112680	0.628340	0.230580
P61	P6	0.109000	0.167900	0.265300
P71	P7	0.858920	0.343260	0.769420
P81	P8	0.433200	0.374300	0.734700
H11	H1	0.399100	0.292500	0.291600
H21	H2	0.930500	0.616500	0.178800
H31	H3	0.047800	0.547600	0.154800
H41	H4	0.776800	0.311400	0.156800
H51	H5	0.707100	0.419100	0.183200
H61	H6	0.727100	0.508300	0.380600
H71	H7	0.708600	0.458800	0.468400
H81	H8	0.553500	0.279700	0.546400
H91	H9	0.530300	0.224900	0.633400
H101	H10	0.584100	0.690700	0.708400
H111	H11	0.795300	0.109300	0.821200
H121	H12	0.702400	0.202600	0.845200
H131	H13	0.468200	0.933600	0.843200
H141	H14	0.602300	0.890300	0.816800
H151	H15	0.888900	0.107700	0.619400
H161	H16	0.927200	0.177000	0.531600
H171	H17	0.826100	0.099900	0.453600
H181	H18	0.858300	0.163700	0.366600
H191	H19	0.940700	0.334100	0.208400
H201	H20	0.359300	0.545300	0.321200
H211	H21	0.452600	0.452400	0.345200
H221	H22	0.183600	0.218200	0.343200
H231	H23	0.140300	0.352300	0.316800
H241	H24	0.357700	0.638900	0.119400
H251	H25	0.427000	0.677200	0.031600
H261	H26	0.349900	0.576100	0.953600
H271	H27	0.413700	0.608300	0.866600
H281	H28	0.542500	0.149100	0.791600
H291	H29	0.866500	0.680500	0.678800
H301	H30	0.797600	0.797800	0.654800
H311	H31	0.561400	0.526800	0.656800
H321	H32	0.669100	0.457100	0.683200
H331	H33	0.758300	0.477100	0.880600
H341	H34	0.708800	0.458600	0.968400
H351	H35	0.529700	0.303500	0.046400
H361	H36	0.474900	0.280300	0.133400
C11	C1	0.426000	0.489200	0.313400
C21	C2	0.752100	0.341700	0.189400
C31	C3	0.751700	0.427300	0.395200
C41	C4	0.736200	0.395600	0.448200
C51	C5	0.761660	0.271060	0.470880
C61	C6	0.624500	0.246900	0.560600
C71	C7	0.610700	0.213700	0.612800
C81	C8	0.802600	0.739400	0.686600
C91	C9	0.531100	0.941500	0.810600
C101	C10	0.822500	0.146900	0.604800
C111	C11	0.843800	0.184400	0.551800
C121	C12	0.741940	0.232540	0.529120
C131	C13	0.807500	0.185100	0.439400
C141	C14	0.826500	0.223500	0.387200
C151	C15	0.989400	0.552600	0.186600
C161	C16	0.191500	0.281100	0.310600
C171	C17	0.396900	0.572500	0.104800
C181	C18	0.434400	0.593800	0.051800
C191	C19	0.482540	0.491940	0.029120
C201	C20	0.435100	0.557500	0.939400
C211	C21	0.473500	0.576500	0.887200
C221	C22	0.739200	0.176000	0.813400
C231	C23	0.591700	0.502100	0.689400
C241	C24	0.677300	0.501700	0.895200
C251	C25	0.645600	0.486200	0.948200
C261	C26	0.521060	0.511660	0.970880
C271	C27	0.496900	0.374500	0.060600
C281	C28	0.463700	0.360700	0.112800
N11	N1	0.349510	0.359910	0.288180
N21	N2	0.800060	0.346060	0.364680
N31	N3	0.648090	0.637690	0.711820
N41	N4	0.710740	0.164740	0.635320
N51	N5	0.887690	0.398090	0.211820
N61	N6	0.414740	0.460740	0.135320
N71	N7	0.609910	0.099510	0.788180
N81	N8	0.596060	0.550060	0.864680
O11	O1	0.728490	0.573290	0.282620
O21	O2	0.025350	0.543150	0.283700
O31	O3	0.131630	0.794830	0.223540
O41	O4	0.677490	0.048890	0.229220
O51	O5	0.465770	0.153970	0.223260
O61	O6	0.639210	0.231810	0.286780
O71	O7	0.855910	0.011110	0.717380
O81	O8	0.826850	0.309050	0.716300
O91	O9	0.018370	0.355170	0.776460
O101	O10	0.278110	0.906710	0.770780
O111	O11	0.377230	0.689030	0.776740
O121	O12	0.518590	0.925990	0.713220
O131	O13	0.261110	0.605910	0.217380
O141	O14	0.559050	0.576850	0.216300
O151	O15	0.605170	0.768370	0.276460
O161	O16	0.156710	0.028110	0.270780
O171	O17	0.939030	0.127230	0.276740
O181	O18	0.175990	0.268590	0.213220
O191	O19	0.823290	0.478490	0.782620
O201	O20	0.793150	0.775350	0.783700
O211	O21	0.044830	0.881630	0.723540
O221	O22	0.298890	0.427490	0.729220
O231	O23	0.403970	0.215770	0.723260
O241	O24	0.481810	0.389210	0.786780
