data_HEBKEG_clean_PM
_symmetry_space_group_name_H-M	'P1'
_cell_length_a	5.875100
_cell_length_b	15.067000
_cell_length_c	16.416000
_cell_angle_alpha	90.000000
_cell_angle_beta	90.000000
_cell_angle_gamma	90.000000
_symmetry_Int_Tables_number 1

loop_
_symmetry_equiv_pos_as_xyz
'x,y,z'

loop_
_atom_site_label
_atom_site_type_symbol
_atom_site_fract_x
_atom_site_fract_y
_atom_site_fract_z
Cd11	Cd1	0.387000	0.588590	0.963660
Cd21	Cd2	0.113000	0.411410	0.463660
Cd31	Cd3	0.613000	0.088590	0.536340
Cd41	Cd4	0.887000	0.911410	0.036340
H11	H1	0.470800	0.387100	0.246100
H21	H2	0.652000	0.370600	0.369200
H31	H3	0.177100	0.505100	0.292200
H41	H4	0.011900	0.526600	0.167400
H51	H5	0.786700	0.554600	0.048600
H61	H6	0.435300	0.470000	0.123700
H71	H7	0.637300	0.424900	0.077600
H81	H8	0.742300	0.638700	0.162700
H91	H9	0.381900	0.708300	0.182700
H101	H10	0.368500	0.605400	0.196500
H111	H11	0.190000	0.690000	0.071000
H121	H12	0.029200	0.612900	0.746100
H131	H13	0.848000	0.629400	0.869200
H141	H14	0.322900	0.494900	0.792200
H151	H15	0.488100	0.473400	0.667400
H161	H16	0.713300	0.445400	0.548600
H171	H17	0.064700	0.530000	0.623700
H181	H18	0.862700	0.575100	0.577600
H191	H19	0.757700	0.361300	0.662700
H201	H20	0.118100	0.291700	0.682700
H211	H21	0.131500	0.394600	0.696500
H221	H22	0.310000	0.310000	0.571000
H231	H23	0.529200	0.887100	0.253900
H241	H24	0.348000	0.870600	0.130800
H251	H25	0.822900	0.005100	0.207800
H261	H26	0.988100	0.026600	0.332600
H271	H27	0.213300	0.054600	0.451400
H281	H28	0.564700	0.970000	0.376300
H291	H29	0.362700	0.924900	0.422400
H301	H30	0.257700	0.138700	0.337300
H311	H31	0.618100	0.208300	0.317300
H321	H32	0.631500	0.105400	0.303500
H331	H33	0.810000	0.190000	0.429000
H341	H34	0.970800	0.112900	0.753900
H351	H35	0.152000	0.129400	0.630800
H361	H36	0.677100	0.994900	0.707800
H371	H37	0.511900	0.973400	0.832600
H381	H38	0.286700	0.945400	0.951400
H391	H39	0.935300	0.030000	0.876300
H401	H40	0.137300	0.075100	0.922400
H411	H41	0.242300	0.861300	0.837300
H421	H42	0.881900	0.791700	0.817300
H431	H43	0.868500	0.894600	0.803500
H441	H44	0.690000	0.810000	0.929000
C11	C1	0.613500	0.412300	0.254300
C21	C2	0.719000	0.460100	0.192700
C31	C3	0.723800	0.402700	0.328200
C41	C4	0.032700	0.481900	0.282900
C51	C5	0.935200	0.495000	0.207600
C61	C6	0.597700	0.473600	0.113600
C71	C7	0.629000	0.640500	0.118900
C81	C8	0.392500	0.651100	0.155800
C91	C9	0.678700	0.719600	0.063200
C101	C10	0.886500	0.587700	0.754300
C111	C11	0.781000	0.539900	0.692700
C121	C12	0.776200	0.597300	0.828200
C131	C13	0.467300	0.518100	0.782900
C141	C14	0.564800	0.505000	0.707600
C151	C15	0.902300	0.526400	0.613600
C161	C16	0.871000	0.359500	0.618900
C171	C17	0.107500	0.348900	0.655800
C181	C18	0.821300	0.280400	0.563200
C191	C19	0.386500	0.912300	0.245700
C201	C20	0.281000	0.960100	0.307300
C211	C21	0.276200	0.902700	0.171800
C221	C22	0.967300	0.981900	0.217100
C231	C23	0.064800	0.995000	0.292400
C241	C24	0.402300	0.973600	0.386400
C251	C25	0.371000	0.140500	0.381100
C261	C26	0.607500	0.151100	0.344200
C271	C27	0.321300	0.219600	0.436800
C281	C28	0.113500	0.087700	0.745700
C291	C29	0.219000	0.039900	0.807300
C301	C30	0.223800	0.097300	0.671800
C311	C31	0.532700	0.018100	0.717100
C321	C32	0.435200	0.005000	0.792400
C331	C33	0.097700	0.026400	0.886400
C341	C34	0.129000	0.859500	0.881100
C351	C35	0.892500	0.848900	0.844200
C361	C36	0.178700	0.780400	0.936800
N11	N1	0.931100	0.437600	0.343300
N21	N2	0.644300	0.557900	0.070200
N31	N3	0.568900	0.562400	0.843300
N41	N4	0.855700	0.442100	0.570200
N51	N5	0.068900	0.937600	0.156700
N61	N6	0.355700	0.057900	0.429800
N71	N7	0.431100	0.062400	0.656700
N81	N8	0.144300	0.942100	0.929800
Cl11	Cl1	0.099100	0.469160	0.967410
Cl21	Cl2	0.400900	0.530840	0.467410
Cl31	Cl3	0.900900	0.969160	0.532590
Cl41	Cl4	0.599100	0.030840	0.032590
O11	O1	0.663600	0.707400	0.987620
O21	O2	0.219500	0.644800	0.094600
O31	O3	0.718100	0.791700	0.097640
O41	O4	0.836400	0.292600	0.487620
O51	O5	0.280500	0.355200	0.594600
O61	O6	0.781900	0.208300	0.597640
O71	O7	0.336400	0.207400	0.512380
O81	O8	0.780500	0.144800	0.405400
O91	O9	0.281900	0.291700	0.402360
O101	O10	0.163600	0.792600	0.012380
O111	O11	0.719500	0.855200	0.905400
O121	O12	0.218100	0.708300	0.902360
