data_HEBNIN_clean_PM
_symmetry_space_group_name_H-M	'P1'
_cell_length_a	9.711100
_cell_length_b	16.738700
_cell_length_c	18.022600
_cell_angle_alpha	90.000000
_cell_angle_beta	90.290000
_cell_angle_gamma	90.000000
_symmetry_Int_Tables_number 1

loop_
_symmetry_equiv_pos_as_xyz
'x,y,z'

loop_
_atom_site_label
_atom_site_type_symbol
_atom_site_fract_x
_atom_site_fract_y
_atom_site_fract_z
U11	U1	0.888080	0.714090	0.503300
U21	U2	0.399740	0.709510	0.787840
P11	P1	0.586900	0.649180	0.611290
P21	P2	0.523200	0.687190	0.451710
P31	P3	0.020800	0.749010	0.809970
P41	P4	0.089900	0.649970	0.674640
O11	O1	0.674000	0.713200	0.445700
O21	O2	0.017600	0.694300	0.614500
O31	O3	0.926900	0.751400	0.875900
O41	O4	0.731900	0.682100	0.601900
O51	O5	0.531300	0.664700	0.688600
O61	O6	0.430700	0.741500	0.405400
O71	O7	0.233400	0.679700	0.692100
O81	O8	0.172900	0.750100	0.829000
O91	O9	0.574800	0.562800	0.590500
O101	O10	0.102000	0.559300	0.655000
H11	H1	0.043000	0.547500	0.624200
O111	O11	0.502000	0.600600	0.434300
O121	O12	0.993000	0.819900	0.754900
H21	H2	0.910300	0.829900	0.754000
O131	O13	0.338300	0.682800	0.558400
H31	H3	0.324700	0.672400	0.602200
O141	O14	0.844200	0.651600	0.738500
H41	H4	0.835200	0.621900	0.702600
C11	C1	0.478200	0.708100	0.549000
C21	C2	0.487500	0.797700	0.565100
H51	H5	0.421600	0.825700	0.535000
H61	H6	0.578500	0.816400	0.553900
H71	H7	0.468300	0.807100	0.616600
C31	C3	0.986500	0.655300	0.759500
C41	C4	0.017600	0.586400	0.812700
H81	H8	0.961600	0.591500	0.856100
H91	H9	0.113100	0.587900	0.826700
H101	H10	0.997800	0.536500	0.788500
U31	U3	0.111920	0.214090	0.996700
U41	U4	0.600260	0.209510	0.712160
P51	P5	0.413100	0.149180	0.888710
P61	P6	0.476800	0.187190	0.048290
P71	P7	0.979200	0.249010	0.690030
P81	P8	0.910100	0.149970	0.825360
O151	O15	0.326000	0.213200	0.054300
O161	O16	0.982400	0.194300	0.885500
O171	O17	0.073100	0.251400	0.624100
O181	O18	0.268100	0.182100	0.898100
O191	O19	0.468700	0.164700	0.811400
O201	O20	0.569300	0.241500	0.094600
O211	O21	0.766600	0.179700	0.807900
O221	O22	0.827100	0.250100	0.671000
O231	O23	0.425200	0.062800	0.909500
O241	O24	0.898000	0.059300	0.845000
H111	H11	0.957000	0.047500	0.875800
O251	O25	0.498000	0.100600	0.065700
O261	O26	0.007000	0.319900	0.745100
H121	H12	0.089700	0.329900	0.746000
O271	O27	0.661700	0.182800	0.941600
H131	H13	0.675300	0.172400	0.897800
O281	O28	0.155800	0.151600	0.761500
H141	H14	0.164800	0.121900	0.797400
C51	C5	0.521800	0.208100	0.951000
C61	C6	0.512500	0.297700	0.934900
H151	H15	0.578400	0.325700	0.965000
H161	H16	0.421500	0.316400	0.946100
H171	H17	0.531700	0.307100	0.883400
C71	C7	0.013500	0.155300	0.740500
C81	C8	0.982400	0.086400	0.687300
H181	H18	0.038400	0.091500	0.643900
H191	H19	0.886900	0.087900	0.673300
H201	H20	0.002200	0.036500	0.711500
U51	U5	0.111920	0.285910	0.496700
U61	U6	0.600260	0.290490	0.212160
P91	P9	0.413100	0.350820	0.388710
P101	P10	0.476800	0.312810	0.548290
P111	P11	0.979200	0.250990	0.190030
P121	P12	0.910100	0.350030	0.325360
O291	O29	0.326000	0.286800	0.554300
O301	O30	0.982400	0.305700	0.385500
O311	O31	0.073100	0.248600	0.124100
O321	O32	0.268100	0.317900	0.398100
O331	O33	0.468700	0.335300	0.311400
O341	O34	0.569300	0.258500	0.594600
O351	O35	0.766600	0.320300	0.307900
O361	O36	0.827100	0.249900	0.171000
O371	O37	0.425200	0.437200	0.409500
O381	O38	0.898000	0.440700	0.345000
H211	H21	0.957000	0.452500	0.375800
O391	O39	0.498000	0.399400	0.565700
O401	O40	0.007000	0.180100	0.245100
H221	H22	0.089700	0.170100	0.246000
O411	O41	0.661700	0.317200	0.441600
H231	H23	0.675300	0.327600	0.397800
O421	O42	0.155800	0.348400	0.261500
H241	H24	0.164800	0.378100	0.297400
C91	C9	0.521800	0.291900	0.451000
C101	C10	0.512500	0.202300	0.434900
H251	H25	0.578400	0.174300	0.465000
H261	H26	0.421500	0.183600	0.446100
H271	H27	0.531700	0.192900	0.383400
C111	C11	0.013500	0.344700	0.240500
C121	C12	0.982400	0.413600	0.187300
H281	H28	0.038400	0.408500	0.143900
H291	H29	0.886900	0.412100	0.173300
H301	H30	0.002200	0.463500	0.211500
U71	U7	0.888080	0.785910	0.003300
U81	U8	0.399740	0.790490	0.287840
P131	P13	0.586900	0.850820	0.111290
P141	P14	0.523200	0.812810	0.951710
P151	P15	0.020800	0.750990	0.309970
P161	P16	0.089900	0.850030	0.174640
O431	O43	0.674000	0.786800	0.945700
O441	O44	0.017600	0.805700	0.114500
O451	O45	0.926900	0.748600	0.375900
O461	O46	0.731900	0.817900	0.101900
O471	O47	0.531300	0.835300	0.188600
O481	O48	0.430700	0.758500	0.905400
O491	O49	0.233400	0.820300	0.192100
O501	O50	0.172900	0.749900	0.329000
O511	O51	0.574800	0.937200	0.090500
O521	O52	0.102000	0.940700	0.155000
H311	H31	0.043000	0.952500	0.124200
O531	O53	0.502000	0.899400	0.934300
O541	O54	0.993000	0.680100	0.254900
H321	H32	0.910300	0.670100	0.254000
O551	O55	0.338300	0.817200	0.058400
H331	H33	0.324700	0.827600	0.102200
O561	O56	0.844200	0.848400	0.238500
H341	H34	0.835200	0.878100	0.202600
C131	C13	0.478200	0.791900	0.049000
C141	C14	0.487500	0.702300	0.065100
H351	H35	0.421600	0.674300	0.035000
H361	H36	0.578500	0.683600	0.053900
H371	H37	0.468300	0.692900	0.116600
C151	C15	0.986500	0.844700	0.259500
C161	C16	0.017600	0.913600	0.312700
H381	H38	0.961600	0.908500	0.356100
H391	H39	0.113100	0.912100	0.326700
H401	H40	0.997800	0.963500	0.288500
Zn11	Zn1	0.500000	0.500000	0.500000
Zn21	Zn2	0.500000	0.000000	0.000000
