data_HEBTAL_clean_PM
_symmetry_space_group_name_H-M	'P1'
_cell_length_a	7.335200
_cell_length_b	11.320000
_cell_length_c	17.676000
_cell_angle_alpha	90.000000
_cell_angle_beta	90.120000
_cell_angle_gamma	90.000000
_symmetry_Int_Tables_number 1

loop_
_symmetry_equiv_pos_as_xyz
'x,y,z'

loop_
_atom_site_label
_atom_site_type_symbol
_atom_site_fract_x
_atom_site_fract_y
_atom_site_fract_z
Co11	Co1	0.000000	0.500000	0.000000
Co21	Co2	0.000000	0.000000	0.500000
Co31	Co3	0.500000	0.500000	0.000000
Co41	Co4	0.500000	0.000000	0.500000
H11	H1	0.709400	0.475300	0.732900
H21	H2	0.924800	0.699500	0.582300
H31	H3	0.961000	0.492200	0.808500
H41	H4	0.692000	0.583200	0.617700
H51	H5	0.506000	0.795100	0.677100
H61	H6	0.521000	0.690100	0.792000
H71	H7	0.290600	0.975300	0.767100
H81	H8	0.075200	0.199500	0.917700
H91	H9	0.039000	0.992200	0.691500
H101	H10	0.308000	0.083200	0.882300
H111	H11	0.494000	0.295100	0.822900
H121	H12	0.479000	0.190100	0.708000
H131	H13	0.290600	0.524700	0.267100
H141	H14	0.075200	0.300500	0.417700
H151	H15	0.039000	0.507800	0.191500
H161	H16	0.308000	0.416800	0.382300
H171	H17	0.494000	0.204900	0.322900
H181	H18	0.479000	0.309900	0.208000
H191	H19	0.709400	0.024700	0.232900
H201	H20	0.924800	0.800500	0.082300
H211	H21	0.961000	0.007800	0.308500
H221	H22	0.692000	0.916800	0.117700
H231	H23	0.506000	0.704900	0.177100
H241	H24	0.521000	0.809900	0.292000
C11	C1	0.263330	0.621970	0.789130
C21	C2	0.400600	0.745850	0.693270
C31	C3	0.092590	0.673390	0.673460
C41	C4	0.244340	0.744770	0.650720
C51	C5	0.101960	0.610310	0.743550
C61	C6	0.273490	0.574570	0.869230
C71	C7	0.233940	0.828530	0.584140
C81	C8	0.409300	0.684170	0.762540
C91	C9	0.804900	0.524320	0.718420
C101	C10	0.933600	0.659040	0.627960
C111	C11	0.954900	0.535000	0.763650
C121	C12	0.794300	0.587360	0.649850
C131	C13	0.736670	0.121970	0.710870
C141	C14	0.599400	0.245850	0.806730
C151	C15	0.907410	0.173390	0.826540
C161	C16	0.755660	0.244770	0.849280
C171	C17	0.898040	0.110310	0.756450
C181	C18	0.726510	0.074570	0.630770
C191	C19	0.766060	0.328530	0.915860
C201	C20	0.590700	0.184170	0.737460
C211	C21	0.195100	0.024320	0.781580
C221	C22	0.066400	0.159040	0.872040
C231	C23	0.045100	0.035000	0.736350
C241	C24	0.205700	0.087360	0.850150
C251	C25	0.736670	0.378030	0.210870
C261	C26	0.599400	0.254150	0.306730
C271	C27	0.907410	0.326610	0.326540
C281	C28	0.755660	0.255230	0.349280
C291	C29	0.898040	0.389690	0.256450
C301	C30	0.726510	0.425430	0.130770
C311	C31	0.766060	0.171470	0.415860
C321	C32	0.590700	0.315830	0.237460
C331	C33	0.195100	0.475680	0.281580
C341	C34	0.066400	0.340960	0.372040
C351	C35	0.045100	0.465000	0.236350
C361	C36	0.205700	0.412640	0.350150
C371	C37	0.263330	0.878030	0.289130
C381	C38	0.400600	0.754150	0.193270
C391	C39	0.092590	0.826610	0.173460
C401	C40	0.244340	0.755230	0.150720
C411	C41	0.101960	0.889690	0.243550
C421	C42	0.273490	0.925430	0.369230
C431	C43	0.233940	0.671470	0.084140
C441	C44	0.409300	0.815830	0.262540
C451	C45	0.804900	0.975680	0.218420
C461	C46	0.933600	0.840960	0.127960
C471	C47	0.954900	0.965000	0.263650
C481	C48	0.794300	0.912640	0.149850
O11	O1	0.130340	0.580550	0.908030
O21	O2	0.377800	0.847500	0.547480
O31	O3	0.082300	0.876010	0.572900
O41	O4	0.425770	0.538640	0.891760
O51	O5	0.869660	0.080550	0.591970
O61	O6	0.622200	0.347500	0.952520
O71	O7	0.917700	0.376010	0.927100
O81	O8	0.574230	0.038640	0.608240
O91	O9	0.869660	0.419450	0.091970
O101	O10	0.622200	0.152500	0.452520
O111	O11	0.917700	0.123990	0.427100
O121	O12	0.574230	0.461360	0.108240
O131	O13	0.130340	0.919450	0.408030
O141	O14	0.377800	0.652500	0.047480
O151	O15	0.082300	0.623990	0.072900
O161	O16	0.425770	0.961360	0.391760
