data_HEDBOJ_clean_PM
_symmetry_space_group_name_H-M	'P1'
_cell_length_a	8.318800
_cell_length_b	15.852300
_cell_length_c	21.588400
_cell_angle_alpha	90.000000
_cell_angle_beta	90.000000
_cell_angle_gamma	90.000000
_symmetry_Int_Tables_number 1

loop_
_symmetry_equiv_pos_as_xyz
'x,y,z'

loop_
_atom_site_label
_atom_site_type_symbol
_atom_site_fract_x
_atom_site_fract_y
_atom_site_fract_z
Ce11	Ce1	0.145180	0.156770	0.727530
Ce21	Ce2	0.854820	0.843230	0.227530
Ce31	Ce3	0.354820	0.656770	0.727530
Ce41	Ce4	0.645180	0.343230	0.227530
U11	U1	0.977750	0.643970	0.976200
U21	U2	0.984670	0.365910	0.971830
U31	U3	0.022250	0.356030	0.476200
U41	U4	0.015330	0.634090	0.471830
U51	U5	0.522250	0.143970	0.976200
U61	U6	0.515330	0.865910	0.971830
U71	U7	0.477750	0.856030	0.476200
U81	U8	0.484670	0.134090	0.471830
C11	C1	0.017900	0.187400	0.978200
C21	C2	0.020000	0.092300	0.981700
C31	C3	0.014600	0.916400	0.979000
C41	C4	0.010200	0.821500	0.981700
C51	C5	0.189000	0.913000	0.883900
C61	C6	0.199600	0.091000	0.884800
C71	C7	0.834800	0.095300	0.075300
C81	C8	0.101000	0.959700	0.935200
C91	C9	0.923400	0.960700	0.024400
C101	C10	0.106800	0.046900	0.935800
C111	C11	0.929500	0.049600	0.024500
C121	C12	0.824400	0.915700	0.072600
C131	C13	0.982100	0.812600	0.478200
C141	C14	0.980000	0.907700	0.481700
C151	C15	0.985400	0.083600	0.479000
C161	C16	0.989800	0.178500	0.481700
C171	C17	0.811000	0.087000	0.383900
C181	C18	0.800400	0.909000	0.384800
C191	C19	0.165200	0.904700	0.575300
C201	C20	0.899000	0.040300	0.435200
C211	C21	0.076600	0.039300	0.524400
C221	C22	0.893200	0.953100	0.435800
C231	C23	0.070500	0.950400	0.524500
C241	C24	0.175600	0.084300	0.572600
C251	C25	0.482100	0.687400	0.978200
C261	C26	0.480000	0.592300	0.981700
C271	C27	0.485400	0.416400	0.979000
C281	C28	0.489800	0.321500	0.981700
C291	C29	0.311000	0.413000	0.883900
C301	C30	0.300400	0.591000	0.884800
C311	C31	0.665200	0.595300	0.075300
C321	C32	0.399000	0.459700	0.935200
C331	C33	0.576600	0.460700	0.024400
C341	C34	0.393200	0.546900	0.935800
C351	C35	0.570500	0.549600	0.024500
C361	C36	0.675600	0.415700	0.072600
C371	C37	0.517900	0.312600	0.478200
C381	C38	0.520000	0.407700	0.481700
C391	C39	0.514600	0.583600	0.479000
C401	C40	0.510200	0.678500	0.481700
C411	C41	0.689000	0.587000	0.383900
C421	C42	0.699600	0.409000	0.384800
C431	C43	0.334800	0.404700	0.575300
C441	C44	0.601000	0.540300	0.435200
C451	C45	0.423400	0.539300	0.524400
C461	C46	0.606800	0.453100	0.435800
C471	C47	0.429500	0.450400	0.524500
C481	C48	0.324400	0.584300	0.572600
O11	O1	0.955000	0.227300	0.022900
O21	O2	0.077000	0.225300	0.933500
O31	O3	0.940800	0.783500	0.024100
O41	O4	0.334000	0.894500	0.890500
O51	O5	0.111600	0.900900	0.834200
O61	O6	0.342300	0.117000	0.893900
O71	O7	0.132200	0.093100	0.833300
O81	O8	0.882200	0.908000	0.125400
O91	O9	0.683100	0.892000	0.058100
O101	O10	0.922300	0.504900	0.952700
O111	O11	0.690700	0.116000	0.062500
O121	O12	0.898600	0.108200	0.124800
O131	O13	0.080600	0.781400	0.938600
O141	O14	0.045000	0.772700	0.522900
O151	O15	0.923000	0.774700	0.433500
O161	O16	0.059200	0.216500	0.524100
O171	O17	0.666000	0.105500	0.390500
O181	O18	0.888400	0.099100	0.334200
O191	O19	0.657700	0.883000	0.393900
O201	O20	0.867800	0.906900	0.333300
O211	O21	0.117800	0.092000	0.625400
O221	O22	0.316900	0.108000	0.558100
O231	O23	0.077700	0.495100	0.452700
O241	O24	0.309300	0.884000	0.562500
O251	O25	0.101400	0.891800	0.624800
O261	O26	0.919400	0.218600	0.438600
O271	O27	0.545000	0.727300	0.022900
O281	O28	0.423000	0.725300	0.933500
O291	O29	0.559200	0.283500	0.024100
O301	O30	0.166000	0.394500	0.890500
O311	O31	0.388400	0.400900	0.834200
O321	O32	0.157700	0.617000	0.893900
O331	O33	0.367800	0.593100	0.833300
O341	O34	0.617800	0.408000	0.125400
O351	O35	0.816900	0.392000	0.058100
O361	O36	0.577700	0.004900	0.952700
O371	O37	0.809300	0.616000	0.062500
O381	O38	0.601400	0.608200	0.124800
O391	O39	0.419400	0.281400	0.938600
O401	O40	0.455000	0.272700	0.522900
O411	O41	0.577000	0.274700	0.433500
O421	O42	0.440800	0.716500	0.524100
O431	O43	0.834000	0.605500	0.390500
O441	O44	0.611600	0.599100	0.334200
O451	O45	0.842300	0.383000	0.393900
O461	O46	0.632200	0.406900	0.333300
O471	O47	0.382200	0.592000	0.625400
O481	O48	0.183100	0.608000	0.558100
O491	O49	0.422300	0.995100	0.452700
O501	O50	0.190700	0.384000	0.562500
O511	O51	0.398600	0.391800	0.624800
O521	O52	0.580600	0.718600	0.438600
