data_HEDCIE_clean_PM
_symmetry_space_group_name_H-M	'P1'
_cell_length_a	15.919000
_cell_length_b	18.330700
_cell_length_c	20.087000
_cell_angle_alpha	65.484200
_cell_angle_beta	66.656100
_cell_angle_gamma	64.264600
_symmetry_Int_Tables_number 1

loop_
_symmetry_equiv_pos_as_xyz
'x,y,z'

loop_
_atom_site_label
_atom_site_type_symbol
_atom_site_fract_x
_atom_site_fract_y
_atom_site_fract_z
Cu11	Cu1	0.943850	0.052790	0.541510
Cu21	Cu2	0.487670	0.573650	0.445250
Cu31	Cu3	0.538150	0.447210	0.958490
Cu41	Cu4	0.506570	0.926350	0.054750
Cu51	Cu5	0.056150	0.947210	0.458490
Cu61	Cu6	0.512330	0.426350	0.554750
Cu71	Cu7	0.461850	0.552790	0.041510
Cu81	Cu8	0.493430	0.073650	0.945250
H11	H1	0.373300	0.165500	0.249300
H21	H2	0.579600	0.243500	0.367300
H31	H3	0.271200	0.085000	0.302200
H41	H4	0.752600	0.072400	0.251000
H51	H5	0.583700	0.978800	0.215800
H61	H6	0.875300	0.028300	0.314500
H71	H7	0.392100	0.312200	0.482200
H81	H8	0.354500	0.246200	0.425000
H91	H9	0.531500	0.211200	0.060600
H101	H10	0.093100	0.231100	0.438900
H111	H11	0.543900	0.268300	0.137500
H121	H12	0.394800	0.430100	0.227500
H131	H13	0.607400	0.035800	0.290200
H141	H14	0.437300	0.494700	0.284300
H151	H15	0.919300	0.181300	0.732100
H161	H16	0.702800	0.200900	0.427900
H171	H17	0.189300	0.316900	0.383300
H181	H18	0.983800	0.094500	0.658100
H191	H19	0.754100	0.198800	0.582600
H201	H20	0.673700	0.272300	0.674100
H211	H21	0.788100	0.334500	0.250700
H221	H22	0.190400	0.256500	0.132700
H231	H23	0.658400	0.415000	0.197800
H241	H24	0.076000	0.427600	0.249000
H251	H25	0.778300	0.521200	0.284200
H261	H26	0.218100	0.471700	0.185500
H271	H27	0.186500	0.187800	0.017800
H281	H28	0.025700	0.253800	0.075000
H291	H29	0.803300	0.288800	0.439400
H301	H30	0.763100	0.268900	0.061100
H311	H31	0.949700	0.231700	0.362500
H321	H32	0.052400	0.069900	0.272500
H331	H33	0.933400	0.464200	0.209800
H341	H34	0.216300	0.005300	0.215700
H351	H35	0.832700	0.318700	0.767900
H361	H36	0.331600	0.299100	0.072100
H371	H37	0.889500	0.183100	0.116700
H381	H38	0.736400	0.405500	0.841900
H391	H39	0.535500	0.301200	0.917400
H401	H40	0.620100	0.227700	0.825900
H411	H41	0.626700	0.834500	0.750700
H421	H42	0.420400	0.756500	0.632700
H431	H43	0.728800	0.915000	0.697800
H441	H44	0.247400	0.927600	0.749000
H451	H45	0.416300	0.021200	0.784200
H461	H46	0.124700	0.971700	0.685500
H471	H47	0.607900	0.687800	0.517800
H481	H48	0.645500	0.753800	0.575000
H491	H49	0.468500	0.788800	0.939400
H501	H50	0.906900	0.768900	0.561100
H511	H51	0.456100	0.731700	0.862500
H521	H52	0.605200	0.569900	0.772500
H531	H53	0.392600	0.964200	0.709800
H541	H54	0.562700	0.505300	0.715700
H551	H55	0.080700	0.818700	0.267900
H561	H56	0.297200	0.799100	0.572100
H571	H57	0.810700	0.683100	0.616700
H581	H58	0.016200	0.905500	0.341900
H591	H59	0.245900	0.801200	0.417400
H601	H60	0.326300	0.727700	0.325900
H611	H61	0.211900	0.665500	0.749300
H621	H62	0.809600	0.743500	0.867300
H631	H63	0.341600	0.585000	0.802200
H641	H64	0.924000	0.572400	0.751000
H651	H65	0.221700	0.478800	0.715800
H661	H66	0.781900	0.528300	0.814500
H671	H67	0.813500	0.812200	0.982200
H681	H68	0.974300	0.746200	0.925000
H691	H69	0.196700	0.711200	0.560600
H701	H70	0.236900	0.731100	0.938900
H711	H71	0.050300	0.768300	0.637500
H721	H72	0.947600	0.930100	0.727500
H731	H73	0.066600	0.535800	0.790200
H741	H74	0.783700	0.994700	0.784300
H751	H75	0.167300	0.681300	0.232100
H761	H76	0.668400	0.700900	0.927900
H771	H77	0.110500	0.816900	0.883300
H781	H78	0.263600	0.594500	0.158100
H791	H79	0.464500	0.698800	0.082600
H801	H80	0.379900	0.772300	0.174100
C11	C1	0.873300	0.078400	0.422200
C21	C2	0.109000	0.093700	0.415900
C31	C3	0.172200	0.148800	0.377000
C41	C4	0.443500	0.451200	0.427200
C51	C5	0.318000	0.178700	0.287900
C61	C6	0.637900	0.201100	0.356500
C71	C7	0.554600	0.089600	0.129000
C81	C8	0.256200	0.130000	0.319600
C91	C9	0.784300	0.227400	0.721600
C101	C10	0.537600	0.053400	0.082800
C111	C11	0.742100	0.097700	0.286500
C121	C12	0.577800	0.035900	0.199500
C131	C13	0.816600	0.070600	0.325000
C141	C14	0.392300	0.336100	0.431300
C151	C15	0.373900	0.331800	0.317800
C161	C16	0.299000	0.245700	0.312300
C171	C17	0.582500	0.157300	0.220500
C181	C18	0.370600	0.295500	0.396900
C191	C19	0.544900	0.176400	0.106800
C201	C20	0.414200	0.411600	0.390400
C211	C21	0.149200	0.218300	0.400700
C221	C22	0.555000	0.210500	0.151900
C231	C23	0.795400	0.111500	0.379100
C241	C24	0.395400	0.405800	0.278200
C251	C25	0.591900	0.070600	0.244600
C261	C26	0.657100	0.160200	0.303000
C271	C27	0.419100	0.446500	0.312700
C281	C28	0.881000	0.180600	0.707600
C291	C29	0.712400	0.174400	0.393600
C301	C30	0.207800	0.268900	0.368900
C311	C31	0.922000	0.133200	0.658600
C321	C32	0.786500	0.191500	0.615700
C331	C33	0.737300	0.236600	0.671400
C341	C34	0.373900	0.421600	0.077800
C351	C35	0.618600	0.406300	0.084100
C361	C36	0.698000	0.351200	0.123000
C371	C37	0.321900	0.048800	0.072800
C381	C38	0.784600	0.321300	0.212100
C391	C39	0.195500	0.298900	0.143500
C401	C40	0.773200	0.410400	0.371000
C411	C41	0.705800	0.370000	0.180400
C421	C42	0.733300	0.272600	0.778400
C431	C43	0.673800	0.446600	0.417200
C441	C44	0.126300	0.402300	0.213500
C451	C45	0.813200	0.464100	0.300500
C461	C46	0.212200	0.429400	0.175000
C471	C47	0.159700	0.163900	0.068700
C481	C48	0.023500	0.168200	0.182200
C491	C49	0.857000	0.254300	0.187700
C501	C50	0.960300	0.342700	0.279500
C511	C51	0.063000	0.204500	0.103100
C521	C52	0.828100	0.323600	0.393200
C531	C53	0.216200	0.088400	0.109600
C541	C54	0.768200	0.281700	0.099300
C551	C55	0.917400	0.289500	0.348100
C561	C56	0.286000	0.388500	0.120900
C571	C57	0.079400	0.094200	0.221800
C581	C58	0.907100	0.429400	0.255400
C591	C59	0.120300	0.339800	0.197000
C601	C60	0.178300	0.053500	0.187300
C611	C61	0.769200	0.319400	0.792400
C621	C62	0.280400	0.325600	0.106400
C631	C63	0.845600	0.231100	0.131100
C641	C64	0.713800	0.366800	0.841400
C651	C65	0.593700	0.308500	0.884300
C661	C66	0.645300	0.263400	0.828600
C671	C67	0.126700	0.921600	0.577800
C681	C68	0.891000	0.906300	0.584100
C691	C69	0.827800	0.851200	0.623000
C701	C70	0.556500	0.548800	0.572800
C711	C71	0.682000	0.821300	0.712100
C721	C72	0.362100	0.798900	0.643500
C731	C73	0.445400	0.910400	0.871000
C741	C74	0.743800	0.870000	0.680400
C751	C75	0.215700	0.772600	0.278400
C761	C76	0.462400	0.946600	0.917200
C771	C77	0.257900	0.902300	0.713500
C781	C78	0.422200	0.964100	0.800500
C791	C79	0.183400	0.929400	0.675000
C801	C80	0.607700	0.663900	0.568700
C811	C81	0.626100	0.668200	0.682200
C821	C82	0.701000	0.754300	0.687700
C831	C83	0.417500	0.842700	0.779500
C841	C84	0.629400	0.704500	0.603100
C851	C85	0.455100	0.823600	0.893200
C861	C86	0.585800	0.588400	0.609600
C871	C87	0.850800	0.781700	0.599300
C881	C88	0.445000	0.789500	0.848100
C891	C89	0.204600	0.888500	0.620900
C901	C90	0.604600	0.594200	0.721800
C911	C91	0.408100	0.929400	0.755400
C921	C92	0.342900	0.839800	0.697000
C931	C93	0.580900	0.553500	0.687300
C941	C94	0.119000	0.819400	0.292400
C951	C95	0.287600	0.825600	0.606400
C961	C96	0.792200	0.731100	0.631100
C971	C97	0.078000	0.866800	0.341400
C981	C98	0.213500	0.808500	0.384300
C991	C99	0.262700	0.763400	0.328600
C1001	C100	0.626100	0.578400	0.922200
C1011	C101	0.381400	0.593700	0.915900
C1021	C102	0.302000	0.648800	0.877000
C1031	C103	0.678100	0.951200	0.927200
C1041	C104	0.215400	0.678700	0.787900
C1051	C105	0.804500	0.701100	0.856500
C1061	C106	0.226800	0.589600	0.629000
C1071	C107	0.294200	0.630000	0.819600
C1081	C108	0.266700	0.727400	0.221600
C1091	C109	0.326200	0.553400	0.582800
C1101	C110	0.873700	0.597700	0.786500
C1111	C111	0.186800	0.535900	0.699500
C1121	C112	0.787800	0.570600	0.825000
C1131	C113	0.840300	0.836100	0.931300
C1141	C114	0.976500	0.831800	0.817800
C1151	C115	0.143000	0.745700	0.812300
C1161	C116	0.039700	0.657300	0.720500
C1171	C117	0.937000	0.795500	0.896900
C1181	C118	0.171900	0.676400	0.606800
C1191	C119	0.783800	0.911600	0.890400
C1201	C120	0.231800	0.718300	0.900700
C1211	C121	0.082600	0.710500	0.651900
C1221	C122	0.714000	0.611500	0.879100
C1231	C123	0.920600	0.905800	0.778200
C1241	C124	0.092900	0.570600	0.744600
C1251	C125	0.879700	0.660200	0.803000
C1261	C126	0.821700	0.946500	0.812700
C1271	C127	0.230800	0.680600	0.207600
C1281	C128	0.719600	0.674400	0.893600
C1291	C129	0.154400	0.768900	0.868900
C1301	C130	0.286200	0.633200	0.158600
C1311	C131	0.406300	0.691500	0.115700
C1321	C132	0.354700	0.736600	0.171400
N11	N1	0.876200	0.140000	0.610200
N21	N2	0.626400	0.360000	0.889800
N31	N3	0.123800	0.860000	0.389800
N41	N4	0.373600	0.640000	0.110200
O11	O1	0.853400	0.110300	0.473500
O21	O2	0.952800	0.020100	0.402300
O31	O3	0.033500	0.116900	0.467900
O41	O4	0.133900	0.027100	0.396300
O51	O5	0.444200	0.525400	0.398000
O61	O6	0.537600	0.978900	0.107100
O71	O7	0.524800	0.105300	0.014500
O81	O8	0.360400	0.293900	0.279300
O91	O9	0.461500	0.402500	0.492500
O101	O10	0.586200	0.196500	0.264700
O111	O11	0.437200	0.389700	0.026500
O121	O12	0.375200	0.479900	0.097700
O131	O13	0.618300	0.383100	0.032100
O141	O14	0.557300	0.472900	0.103700
O151	O15	0.367600	0.974600	0.102000
O161	O16	0.623600	0.521100	0.392900
O171	O17	0.644600	0.394700	0.485500
O181	O18	0.933600	0.206100	0.220700
O191	O19	0.356500	0.097500	0.007500
O201	O20	0.047400	0.303500	0.235300
O211	O21	0.146600	0.889700	0.526500
O221	O22	0.047200	0.979900	0.597700
O231	O23	0.966500	0.883100	0.532100
O241	O24	0.866100	0.972900	0.603700
O251	O25	0.555800	0.474600	0.602000
O261	O26	0.462400	0.021100	0.892900
O271	O27	0.475200	0.894700	0.985500
O281	O28	0.639600	0.706100	0.720700
O291	O29	0.538500	0.597500	0.507500
O301	O30	0.413800	0.803500	0.735300
O311	O31	0.562800	0.610300	0.973500
O321	O32	0.624800	0.520100	0.902300
O331	O33	0.381700	0.616900	0.967900
O341	O34	0.442700	0.527100	0.896300
O351	O35	0.632400	0.025400	0.898000
O361	O36	0.376400	0.478900	0.607100
O371	O37	0.355400	0.605300	0.514500
O381	O38	0.066400	0.793900	0.779300
O391	O39	0.643500	0.902500	0.992500
O401	O40	0.952600	0.696500	0.764700
