data_HEDCAW_clean_PM
_symmetry_space_group_name_H-M	'P1'
_cell_length_a	15.808500
_cell_length_b	15.808500
_cell_length_c	21.020700
_cell_angle_alpha	85.286100
_cell_angle_beta	85.286100
_cell_angle_gamma	60.571200
_symmetry_Int_Tables_number 1

loop_
_symmetry_equiv_pos_as_xyz
'x,y,z'

loop_
_atom_site_label
_atom_site_type_symbol
_atom_site_fract_x
_atom_site_fract_y
_atom_site_fract_z
Zn11	Zn1	0.435330	0.957730	0.007410
Zn21	Zn2	0.008500	0.002180	0.680840
Zn31	Zn3	0.042270	0.564670	0.492590
Zn41	Zn4	0.997820	0.991500	0.819160
Zn51	Zn5	0.564670	0.042270	0.992590
Zn61	Zn6	0.991500	0.997820	0.319160
Zn71	Zn7	0.957730	0.435330	0.507410
Zn81	Zn8	0.002180	0.008500	0.180840
H11	H1	0.105900	0.284500	0.813700
H21	H2	0.935200	0.455000	0.678900
H31	H3	0.121200	0.529600	0.849400
H41	H4	0.603800	0.726800	0.885300
H51	H5	0.227900	0.151300	0.868900
H61	H6	0.044900	0.706300	0.659300
H71	H7	0.395000	0.267400	0.855700
H81	H8	0.863200	0.448000	0.869100
H91	H9	0.891000	0.701800	0.805700
H101	H10	0.905200	0.287600	0.861300
H111	H11	0.096200	0.685000	0.846100
H121	H12	0.963400	0.295000	0.674400
H131	H13	0.066300	0.551300	0.664300
H141	H14	0.780700	0.835900	0.855200
H151	H15	0.286800	0.398600	0.795100
H161	H16	0.706700	0.594900	0.828500
H171	H17	0.715500	0.894100	0.686300
H181	H18	0.545000	0.064800	0.821100
H191	H19	0.470400	0.878800	0.650600
H201	H20	0.273200	0.396200	0.614700
H211	H21	0.848700	0.772100	0.631100
H221	H22	0.293700	0.955100	0.840700
H231	H23	0.732600	0.605000	0.644300
H241	H24	0.552000	0.136800	0.630900
H251	H25	0.298200	0.109000	0.694300
H261	H26	0.712400	0.094800	0.638700
H271	H27	0.315000	0.903800	0.653900
H281	H28	0.705000	0.036600	0.825600
H291	H29	0.448700	0.933700	0.835700
H301	H30	0.164100	0.219300	0.644800
H311	H31	0.601400	0.713200	0.704900
H321	H32	0.405100	0.293300	0.671500
H331	H33	0.894100	0.715500	0.186300
H341	H34	0.064800	0.545000	0.321100
H351	H35	0.878800	0.470400	0.150600
H361	H36	0.396200	0.273200	0.114700
H371	H37	0.772100	0.848700	0.131100
H381	H38	0.955100	0.293700	0.340700
H391	H39	0.605000	0.732600	0.144300
H401	H40	0.136800	0.552000	0.130900
H411	H41	0.109000	0.298200	0.194300
H421	H42	0.094800	0.712400	0.138700
H431	H43	0.903800	0.315000	0.153900
H441	H44	0.036600	0.705000	0.325600
H451	H45	0.933700	0.448700	0.335700
H461	H46	0.219300	0.164100	0.144800
H471	H47	0.713200	0.601400	0.204900
H481	H48	0.293300	0.405100	0.171500
H491	H49	0.284500	0.105900	0.313700
H501	H50	0.455000	0.935200	0.178900
H511	H51	0.529600	0.121200	0.349400
H521	H52	0.726800	0.603800	0.385300
H531	H53	0.151300	0.227900	0.368900
H541	H54	0.706300	0.044900	0.159300
H551	H55	0.267400	0.395000	0.355700
H561	H56	0.448000	0.863200	0.369100
H571	H57	0.701800	0.891000	0.305700
H581	H58	0.287600	0.905200	0.361300
H591	H59	0.685000	0.096200	0.346100
H601	H60	0.295000	0.963400	0.174400
H611	H61	0.551300	0.066300	0.164300
H621	H62	0.835900	0.780700	0.355200
H631	H63	0.398600	0.286800	0.295100
H641	H64	0.594900	0.706700	0.328500
C11	C1	0.894100	0.467900	0.771600
C21	C2	0.064500	0.719700	0.750800
C31	C3	0.164200	0.281600	0.821800
C41	C4	0.932700	0.278900	0.769400
C51	C5	0.925800	0.422600	0.715400
C61	C6	0.108400	0.565400	0.810600
C71	C7	0.662500	0.721300	0.868800
C81	C8	0.237700	0.203900	0.856900
C91	C9	0.060000	0.671200	0.698300
C101	C10	0.335900	0.271700	0.848000
C111	C11	0.884000	0.418000	0.830300
C121	C12	0.832100	0.706500	0.821200
C131	C13	0.907300	0.323300	0.824400
C141	C14	0.090900	0.659700	0.809100
C151	C15	0.682300	0.792300	0.879200
C161	C16	0.944200	0.326400	0.712700
C171	C17	0.107700	0.522300	0.756800
C181	C18	0.813500	0.632500	0.811800
C191	C19	0.317600	0.198000	0.874300
C201	C20	0.045700	0.818300	0.742200
C211	C21	0.076100	0.576900	0.699500
C221	C22	0.188900	0.356100	0.799600
C231	C23	0.387800	0.118400	0.917000
C241	C24	0.767700	0.785100	0.852100
C251	C25	0.271800	0.350800	0.811100
C261	C26	0.723700	0.641900	0.835500
C271	C27	0.614400	0.873200	0.923100
C281	C28	0.957300	0.176700	0.771300
C291	C29	0.532100	0.105900	0.728400
C301	C30	0.280300	0.935500	0.749200
C311	C31	0.718400	0.835800	0.678200
C321	C32	0.721100	0.067300	0.730600
C331	C33	0.577400	0.074200	0.784600
C341	C34	0.434600	0.891600	0.689400
C351	C35	0.278700	0.337500	0.631200
C361	C36	0.796100	0.762300	0.643100
C371	C37	0.328800	0.940000	0.801700
C381	C38	0.728300	0.664100	0.652000
C391	C39	0.582000	0.116000	0.669700
C401	C40	0.293500	0.167900	0.678800
C411	C41	0.676700	0.092700	0.675600
C421	C42	0.340300	0.909100	0.690900
C431	C43	0.207700	0.317700	0.620800
C441	C44	0.673600	0.055800	0.787300
C451	C45	0.477700	0.892300	0.743200
C461	C46	0.367500	0.186500	0.688200
C471	C47	0.802000	0.682400	0.625700
C481	C48	0.181700	0.954300	0.757800
C491	C49	0.423100	0.923900	0.800500
C501	C50	0.643900	0.811100	0.700400
C511	C51	0.881600	0.612200	0.583000
C521	C52	0.214900	0.232300	0.647900
C531	C53	0.649200	0.728200	0.688900
C541	C54	0.358100	0.276300	0.664500
C551	C55	0.126800	0.385600	0.576900
C561	C56	0.823300	0.042700	0.728700
C571	C57	0.105900	0.532100	0.228400
C581	C58	0.935500	0.280300	0.249200
C591	C59	0.835800	0.718400	0.178200
C601	C60	0.067300	0.721100	0.230600
C611	C61	0.074200	0.577400	0.284600
C621	C62	0.891600	0.434600	0.189400
C631	C63	0.337500	0.278700	0.131200
C641	C64	0.762300	0.796100	0.143100
C651	C65	0.940000	0.328800	0.301700
C661	C66	0.664100	0.728300	0.152000
C671	C67	0.116000	0.582000	0.169700
C681	C68	0.167900	0.293500	0.178800
C691	C69	0.092700	0.676700	0.175600
C701	C70	0.909100	0.340300	0.190900
C711	C71	0.317700	0.207700	0.120800
C721	C72	0.055800	0.673600	0.287300
C731	C73	0.892300	0.477700	0.243200
C741	C74	0.186500	0.367500	0.188200
C751	C75	0.682400	0.802000	0.125700
C761	C76	0.954300	0.181700	0.257800
C771	C77	0.923900	0.423100	0.300500
C781	C78	0.811100	0.643900	0.200400
C791	C79	0.612200	0.881600	0.083000
C801	C80	0.232300	0.214900	0.147900
C811	C81	0.728200	0.649200	0.188900
C821	C82	0.276300	0.358100	0.164500
C831	C83	0.385600	0.126800	0.076900
C841	C84	0.042700	0.823300	0.228700
C851	C85	0.467900	0.894100	0.271600
C861	C86	0.719700	0.064500	0.250800
C871	C87	0.281600	0.164200	0.321800
C881	C88	0.278900	0.932700	0.269400
C891	C89	0.422600	0.925800	0.215400
C901	C90	0.565400	0.108400	0.310600
C911	C91	0.721300	0.662500	0.368800
C921	C92	0.203900	0.237700	0.356900
C931	C93	0.671200	0.060000	0.198300
C941	C94	0.271700	0.335900	0.348000
C951	C95	0.418000	0.884000	0.330300
C961	C96	0.706500	0.832100	0.321200
C971	C97	0.323300	0.907300	0.324400
C981	C98	0.659700	0.090900	0.309100
C991	C99	0.792300	0.682300	0.379200
C1001	C100	0.326400	0.944200	0.212700
C1011	C101	0.522300	0.107700	0.256800
C1021	C102	0.632500	0.813500	0.311800
C1031	C103	0.198000	0.317600	0.374300
C1041	C104	0.818300	0.045700	0.242200
C1051	C105	0.576900	0.076100	0.199500
C1061	C106	0.356100	0.188900	0.299600
C1071	C107	0.118400	0.387800	0.417000
C1081	C108	0.785100	0.767700	0.352100
C1091	C109	0.350800	0.271800	0.311100
C1101	C110	0.641900	0.723700	0.335500
C1111	C111	0.873200	0.614400	0.423100
C1121	C112	0.176700	0.957300	0.271300
O11	O1	0.536500	0.870300	0.939900
O21	O2	0.357500	0.058300	0.938000
O31	O3	0.634300	0.930700	0.931500
O41	O4	0.456800	0.118600	0.930500
O51	O5	0.882500	0.557500	0.772600
O61	O6	0.120400	0.430200	0.761700
O71	O7	0.031100	0.864300	0.691900
O81	O8	0.045600	0.857200	0.799400
O91	O9	0.948900	0.132500	0.818400
O101	O10	0.978800	0.136200	0.713600
O111	O11	0.129700	0.463500	0.560100
O121	O12	0.941700	0.642500	0.562000
O131	O13	0.069300	0.365700	0.568500
O141	O14	0.881400	0.543200	0.569500
O151	O15	0.442500	0.117500	0.727400
O161	O16	0.569800	0.879600	0.738300
O171	O17	0.135700	0.968900	0.808100
O181	O18	0.142800	0.954400	0.700600
O191	O19	0.867500	0.051100	0.681600
O201	O20	0.863800	0.021200	0.786400
O211	O21	0.463500	0.129700	0.060100
O221	O22	0.642500	0.941700	0.062000
O231	O23	0.365700	0.069300	0.068500
O241	O24	0.543200	0.881400	0.069500
O251	O25	0.117500	0.442500	0.227400
O261	O26	0.879600	0.569800	0.238300
O271	O27	0.968900	0.135700	0.308100
O281	O28	0.954400	0.142800	0.200600
O291	O29	0.051100	0.867500	0.181600
O301	O30	0.021200	0.863800	0.286400
O311	O31	0.870300	0.536500	0.439900
O321	O32	0.058300	0.357500	0.438000
O331	O33	0.930700	0.634300	0.431500
O341	O34	0.118600	0.456800	0.430500
O351	O35	0.557500	0.882500	0.272600
O361	O36	0.430200	0.120400	0.261700
O371	O37	0.864300	0.031100	0.191900
O381	O38	0.857200	0.045600	0.299400
O391	O39	0.132500	0.948900	0.318400
O401	O40	0.136200	0.978800	0.213600
