data_HEDCEA_clean_PM
_symmetry_space_group_name_H-M	'P1'
_cell_length_a	11.064400
_cell_length_b	16.775800
_cell_length_c	22.431700
_cell_angle_alpha	90.000000
_cell_angle_beta	90.000000
_cell_angle_gamma	90.000000
_symmetry_Int_Tables_number 1

loop_
_symmetry_equiv_pos_as_xyz
'x,y,z'

loop_
_atom_site_label
_atom_site_type_symbol
_atom_site_fract_x
_atom_site_fract_y
_atom_site_fract_z
Zn11	Zn1	0.093740	0.059030	0.508760
Zn21	Zn2	0.906260	0.440970	0.508760
Zn31	Zn3	0.093740	0.940970	0.991240
Zn41	Zn4	0.906260	0.559030	0.991240
Zn51	Zn5	0.906260	0.940970	0.491240
Zn61	Zn6	0.093740	0.559030	0.491240
Zn71	Zn7	0.906260	0.059030	0.008760
Zn81	Zn8	0.093740	0.440970	0.008760
H11	H1	0.329700	0.302700	0.563300
H21	H2	0.419500	0.570000	0.778700
H31	H3	0.197800	0.654100	0.637600
H41	H4	0.158200	0.732200	0.757900
H51	H5	0.411500	0.829800	0.694200
H61	H6	0.055500	0.677500	0.837400
H71	H7	0.523700	0.127200	0.491200
H81	H8	0.350300	0.054300	0.484800
H91	H9	0.313800	0.917300	0.629500
H101	H10	0.316800	0.515800	0.857700
H111	H11	0.160200	0.222900	0.555500
H121	H12	0.100100	0.740700	0.574500
H131	H13	0.670300	0.197300	0.563300
H141	H14	0.580500	0.930000	0.778700
H151	H15	0.802200	0.845900	0.637600
H161	H16	0.841800	0.767800	0.757900
H171	H17	0.588500	0.670200	0.694200
H181	H18	0.944500	0.822500	0.837400
H191	H19	0.476300	0.372800	0.491200
H201	H20	0.649700	0.445700	0.484800
H211	H21	0.686200	0.582700	0.629500
H221	H22	0.683200	0.984200	0.857700
H231	H23	0.839800	0.277100	0.555500
H241	H24	0.899900	0.759300	0.574500
H251	H25	0.329700	0.697300	0.936700
H261	H26	0.419500	0.430000	0.721300
H271	H27	0.197800	0.345900	0.862400
H281	H28	0.158200	0.267800	0.742100
H291	H29	0.411500	0.170200	0.805800
H301	H30	0.055500	0.322500	0.662600
H311	H31	0.523700	0.872800	0.008800
H321	H32	0.350300	0.945700	0.015200
H331	H33	0.313800	0.082700	0.870500
H341	H34	0.316800	0.484200	0.642300
H351	H35	0.160200	0.777100	0.944500
H361	H36	0.100100	0.259300	0.925500
H371	H37	0.670300	0.802700	0.936700
H381	H38	0.580500	0.070000	0.721300
H391	H39	0.802200	0.154100	0.862400
H401	H40	0.841800	0.232200	0.742100
H411	H41	0.588500	0.329800	0.805800
H421	H42	0.944500	0.177500	0.662600
H431	H43	0.476300	0.627200	0.008800
H441	H44	0.649700	0.554300	0.015200
H451	H45	0.686200	0.417300	0.870500
H461	H46	0.683200	0.015800	0.642300
H471	H47	0.839800	0.722900	0.944500
H481	H48	0.899900	0.240700	0.925500
H491	H49	0.670300	0.697300	0.436700
H501	H50	0.580500	0.430000	0.221300
H511	H51	0.802200	0.345900	0.362400
H521	H52	0.841800	0.267800	0.242100
H531	H53	0.588500	0.170200	0.305800
H541	H54	0.944500	0.322500	0.162600
H551	H55	0.476300	0.872800	0.508800
H561	H56	0.649700	0.945700	0.515200
H571	H57	0.686200	0.082700	0.370500
H581	H58	0.683200	0.484200	0.142300
H591	H59	0.839800	0.777100	0.444500
H601	H60	0.899900	0.259300	0.425500
H611	H61	0.329700	0.802700	0.436700
H621	H62	0.419500	0.070000	0.221300
H631	H63	0.197800	0.154100	0.362400
H641	H64	0.158200	0.232200	0.242100
H651	H65	0.411500	0.329800	0.305800
H661	H66	0.055500	0.177500	0.162600
H671	H67	0.523700	0.627200	0.508800
H681	H68	0.350300	0.554300	0.515200
H691	H69	0.313800	0.417300	0.370500
H701	H70	0.316800	0.015800	0.142300
H711	H71	0.160200	0.722900	0.444500
H721	H72	0.100100	0.240700	0.425500
H731	H73	0.670300	0.302700	0.063300
H741	H74	0.580500	0.570000	0.278700
H751	H75	0.802200	0.654100	0.137600
H761	H76	0.841800	0.732200	0.257900
H771	H77	0.588500	0.829800	0.194200
H781	H78	0.944500	0.677500	0.337400
H791	H79	0.476300	0.127200	0.991200
H801	H80	0.649700	0.054300	0.984800
H811	H81	0.686200	0.917300	0.129500
H821	H82	0.683200	0.515800	0.357700
H831	H83	0.839800	0.222900	0.055500
H841	H84	0.899900	0.740700	0.074500
H851	H85	0.329700	0.197300	0.063300
H861	H86	0.419500	0.930000	0.278700
H871	H87	0.197800	0.845900	0.137600
H881	H88	0.158200	0.767800	0.257900
H891	H89	0.411500	0.670200	0.194200
H901	H90	0.055500	0.822500	0.337400
H911	H91	0.523700	0.372800	0.991200
H921	H92	0.350300	0.445700	0.984800
H931	H93	0.313800	0.582700	0.129500
H941	H94	0.316800	0.984200	0.357700
H951	H95	0.160200	0.277100	0.055500
H961	H96	0.100100	0.759300	0.074500
C11	C1	0.336200	0.251900	0.546900
C21	C2	0.346000	0.591800	0.790500
C31	C3	0.219300	0.707700	0.636900
C41	C4	0.189900	0.688600	0.778200
C51	C5	0.347300	0.812400	0.670700
C61	C6	0.104700	0.555100	0.906100
C71	C7	0.299600	0.655800	0.761000
C81	C8	0.128900	0.655500	0.825500
C91	C9	0.450800	0.148500	0.504300
C101	C10	0.346300	0.105200	0.501200
C111	C11	0.288500	0.864500	0.632000
C121	C12	0.123900	0.897000	0.559700
C131	C13	0.308700	0.735200	0.673500
C141	C14	0.174500	0.590300	0.855900
C151	C15	0.193700	0.839000	0.597500
C161	C16	0.284300	0.559300	0.837700
C171	C17	0.445300	0.225100	0.527500
C181	C18	0.234300	0.203600	0.542400
C191	C19	0.161400	0.759300	0.599200
C201	C20	0.663800	0.248100	0.546900
C211	C21	0.654000	0.908200	0.790500
C221	C22	0.780700	0.792300	0.636900
C231	C23	0.810100	0.811400	0.778200
C241	C24	0.652700	0.687600	0.670700
C251	C25	0.895300	0.944900	0.906100
C261	C26	0.700400	0.844200	0.761000
C271	C27	0.871100	0.844500	0.825500
C281	C28	0.549200	0.351500	0.504300
C291	C29	0.653700	0.394800	0.501200
C301	C30	0.711500	0.635500	0.632000
C311	C31	0.876100	0.603000	0.559700
C321	C32	0.691300	0.764800	0.673500
C331	C33	0.825500	0.909700	0.855900
C341	C34	0.806300	0.661000	0.597500
C351	C35	0.715700	0.940700	0.837700
C361	C36	0.554700	0.274900	0.527500
C371	C37	0.765700	0.296400	0.542400
C381	C38	0.838600	0.740700	0.599200
C391	C39	0.336200	0.748100	0.953100
C401	C40	0.346000	0.408200	0.709500
C411	C41	0.219300	0.292300	0.863100
C421	C42	0.189900	0.311400	0.721800
C431	C43	0.347300	0.187600	0.829300
C441	C44	0.104700	0.444900	0.593900
C451	C45	0.299600	0.344200	0.739000
C461	C46	0.128900	0.344500	0.674500
C471	C47	0.450800	0.851500	0.995700
C481	C48	0.346300	0.894800	0.998800
C491	C49	0.288500	0.135500	0.868000
C501	C50	0.123900	0.103000	0.940300
C511	C51	0.308700	0.264800	0.826500
C521	C52	0.174500	0.409700	0.644100
C531	C53	0.193700	0.161000	0.902500
C541	C54	0.284300	0.440700	0.662300
C551	C55	0.445300	0.774900	0.972500
C561	C56	0.234300	0.796400	0.957600
C571	C57	0.161400	0.240700	0.900800
C581	C58	0.663800	0.751900	0.953100
C591	C59	0.654000	0.091800	0.709500
C601	C60	0.780700	0.207700	0.863100
C611	C61	0.810100	0.188600	0.721800
C621	C62	0.652700	0.312400	0.829300
C631	C63	0.895300	0.055100	0.593900
C641	C64	0.700400	0.155800	0.739000
C651	C65	0.871100	0.155500	0.674500
C661	C66	0.549200	0.648500	0.995700
C671	C67	0.653700	0.605200	0.998800
C681	C68	0.711500	0.364500	0.868000
C691	C69	0.876100	0.397000	0.940300
C701	C70	0.691300	0.235200	0.826500
C711	C71	0.825500	0.090300	0.644100
C721	C72	0.806300	0.339000	0.902500
C731	C73	0.715700	0.059300	0.662300
C741	C74	0.554700	0.725100	0.972500
C751	C75	0.765700	0.703600	0.957600
C761	C76	0.838600	0.259300	0.900800
C771	C77	0.663800	0.748100	0.453100
C781	C78	0.654000	0.408200	0.209500
C791	C79	0.780700	0.292300	0.363100
C801	C80	0.810100	0.311400	0.221800
C811	C81	0.652700	0.187600	0.329300
C821	C82	0.895300	0.444900	0.093900
C831	C83	0.700400	0.344200	0.239000
C841	C84	0.871100	0.344500	0.174500
C851	C85	0.549200	0.851500	0.495700
C861	C86	0.653700	0.894800	0.498800
C871	C87	0.711500	0.135500	0.368000
C881	C88	0.876100	0.103000	0.440300
C891	C89	0.691300	0.264800	0.326500
C901	C90	0.825500	0.409700	0.144100
C911	C91	0.806300	0.161000	0.402500
C921	C92	0.715700	0.440700	0.162300
C931	C93	0.554700	0.774900	0.472500
C941	C94	0.765700	0.796400	0.457600
C951	C95	0.838600	0.240700	0.400800
C961	C96	0.336200	0.751900	0.453100
C971	C97	0.346000	0.091800	0.209500
C981	C98	0.219300	0.207700	0.363100
C991	C99	0.189900	0.188600	0.221800
C1001	C100	0.347300	0.312400	0.329300
C1011	C101	0.104700	0.055100	0.093900
C1021	C102	0.299600	0.155800	0.239000
C1031	C103	0.128900	0.155500	0.174500
C1041	C104	0.450800	0.648500	0.495700
C1051	C105	0.346300	0.605200	0.498800
C1061	C106	0.288500	0.364500	0.368000
C1071	C107	0.123900	0.397000	0.440300
C1081	C108	0.308700	0.235200	0.326500
C1091	C109	0.174500	0.090300	0.144100
C1101	C110	0.193700	0.339000	0.402500
C1111	C111	0.284300	0.059300	0.162300
C1121	C112	0.445300	0.725100	0.472500
C1131	C113	0.234300	0.703600	0.457600
C1141	C114	0.161400	0.259300	0.400800
C1151	C115	0.663800	0.251900	0.046900
C1161	C116	0.654000	0.591800	0.290500
C1171	C117	0.780700	0.707700	0.136900
C1181	C118	0.810100	0.688600	0.278200
C1191	C119	0.652700	0.812400	0.170700
C1201	C120	0.895300	0.555100	0.406100
C1211	C121	0.700400	0.655800	0.261000
C1221	C122	0.871100	0.655500	0.325500
C1231	C123	0.549200	0.148500	0.004300
C1241	C124	0.653700	0.105200	0.001200
C1251	C125	0.711500	0.864500	0.132000
C1261	C126	0.876100	0.897000	0.059700
C1271	C127	0.691300	0.735200	0.173500
C1281	C128	0.825500	0.590300	0.355900
C1291	C129	0.806300	0.839000	0.097500
C1301	C130	0.715700	0.559300	0.337700
C1311	C131	0.554700	0.225100	0.027500
C1321	C132	0.765700	0.203600	0.042400
C1331	C133	0.838600	0.759300	0.099200
C1341	C134	0.336200	0.248100	0.046900
C1351	C135	0.346000	0.908200	0.290500
C1361	C136	0.219300	0.792300	0.136900
C1371	C137	0.189900	0.811400	0.278200
C1381	C138	0.347300	0.687600	0.170700
C1391	C139	0.104700	0.944900	0.406100
C1401	C140	0.299600	0.844200	0.261000
C1411	C141	0.128900	0.844500	0.325500
C1421	C142	0.450800	0.351500	0.004300
C1431	C143	0.346300	0.394800	0.001200
C1441	C144	0.288500	0.635500	0.132000
C1451	C145	0.123900	0.603000	0.059700
C1461	C146	0.308700	0.764800	0.173500
C1471	C147	0.174500	0.909700	0.355900
C1481	C148	0.193700	0.661000	0.097500
C1491	C149	0.284300	0.940700	0.337700
C1501	C150	0.445300	0.274900	0.027500
C1511	C151	0.234300	0.296400	0.042400
C1521	C152	0.161400	0.740700	0.099200
N11	N1	0.240200	0.130700	0.519900
N21	N2	0.759800	0.369300	0.519900
N31	N3	0.240200	0.869300	0.980100
N41	N4	0.759800	0.630700	0.980100
N51	N5	0.759800	0.869300	0.480100
N61	N6	0.240200	0.630700	0.480100
N71	N7	0.759800	0.130700	0.019900
N81	N8	0.240200	0.369300	0.019900
O11	O1	0.150000	0.495500	0.932200
O21	O2	0.167000	0.965200	0.553300
O31	O3	0.006100	0.586400	0.918940
O41	O4	0.025200	0.873600	0.538580
O51	O5	0.366300	0.684700	0.713900
O61	O6	0.850000	0.004500	0.932200
O71	O7	0.833000	0.534800	0.553300
O81	O8	0.993900	0.913600	0.918940
O91	O9	0.974800	0.626400	0.538580
O101	O10	0.633700	0.815300	0.713900
O111	O11	0.150000	0.504500	0.567800
O121	O12	0.167000	0.034800	0.946700
O131	O13	0.006100	0.413600	0.581060
O141	O14	0.025200	0.126400	0.961420
O151	O15	0.366300	0.315300	0.786100
O161	O16	0.850000	0.995500	0.567800
O171	O17	0.833000	0.465200	0.946700
O181	O18	0.993900	0.086400	0.581060
O191	O19	0.974800	0.373600	0.961420
O201	O20	0.633700	0.184700	0.786100
O211	O21	0.850000	0.504500	0.067800
O221	O22	0.833000	0.034800	0.446700
O231	O23	0.993900	0.413600	0.081060
O241	O24	0.974800	0.126400	0.461420
O251	O25	0.633700	0.315300	0.286100
O261	O26	0.150000	0.995500	0.067800
O271	O27	0.167000	0.465200	0.446700
O281	O28	0.006100	0.086400	0.081060
O291	O29	0.025200	0.373600	0.461420
O301	O30	0.366300	0.184700	0.286100
O311	O31	0.850000	0.495500	0.432200
O321	O32	0.833000	0.965200	0.053300
O331	O33	0.993900	0.586400	0.418940
O341	O34	0.974800	0.873600	0.038580
O351	O35	0.633700	0.684700	0.213900
O361	O36	0.150000	0.004500	0.432200
O371	O37	0.167000	0.534800	0.053300
O381	O38	0.006100	0.913600	0.418940
O391	O39	0.025200	0.626400	0.038580
O401	O40	0.366300	0.815300	0.213900
