data_HEDGUS_clean_PM
_symmetry_space_group_name_H-M	'P1'
_cell_length_a	4.693000
_cell_length_b	11.096000
_cell_length_c	19.849000
_cell_angle_alpha	90.000000
_cell_angle_beta	90.000000
_cell_angle_gamma	96.900000
_symmetry_Int_Tables_number 1

loop_
_symmetry_equiv_pos_as_xyz
'x,y,z'

loop_
_atom_site_label
_atom_site_type_symbol
_atom_site_fract_x
_atom_site_fract_y
_atom_site_fract_z
Cu11	Cu1	0.280000	0.935800	0.839350
Cu21	Cu2	0.720000	0.564200	0.339350
Cu31	Cu3	0.720000	0.064200	0.160650
Cu41	Cu4	0.280000	0.435800	0.660650
H11	H1	0.239500	0.897200	0.586600
H21	H2	0.419600	0.991500	0.686400
H31	H3	0.562800	0.822400	0.949200
H41	H4	0.247400	0.132900	0.945800
H51	H5	0.760500	0.602800	0.086600
H61	H6	0.580400	0.508500	0.186400
H71	H7	0.437200	0.677600	0.449200
H81	H8	0.752600	0.367100	0.445800
H91	H9	0.760500	0.102800	0.413400
H101	H10	0.580400	0.008500	0.313600
H111	H11	0.437200	0.177600	0.050800
H121	H12	0.752600	0.867100	0.054200
H131	H13	0.239500	0.397200	0.913400
H141	H14	0.419600	0.491500	0.813600
H151	H15	0.562800	0.322400	0.550800
H161	H16	0.247400	0.632900	0.554200
C11	C1	0.038000	0.763000	0.748900
C21	C2	0.931000	0.708000	0.690400
C31	C3	0.182000	0.860000	0.630200
C41	C4	0.289000	0.919000	0.687600
C51	C5	0.979000	0.712000	0.819900
C61	C6	0.743000	0.590000	0.684100
C71	C7	0.535000	0.899000	0.968600
C81	C8	0.353000	0.077000	0.967200
C91	C9	0.962000	0.737000	0.248900
C101	C10	0.069000	0.792000	0.190400
C111	C11	0.818000	0.640000	0.130200
C121	C12	0.711000	0.581000	0.187600
C131	C13	0.021000	0.788000	0.319900
C141	C14	0.257000	0.910000	0.184100
C151	C15	0.465000	0.601000	0.468600
C161	C16	0.647000	0.423000	0.467200
C171	C17	0.962000	0.237000	0.251100
C181	C18	0.069000	0.292000	0.309600
C191	C19	0.818000	0.140000	0.369800
C201	C20	0.711000	0.081000	0.312400
C211	C21	0.021000	0.288000	0.180100
C221	C22	0.257000	0.410000	0.315900
C231	C23	0.465000	0.101000	0.031400
C241	C24	0.647000	0.923000	0.032800
C251	C25	0.038000	0.263000	0.751100
C261	C26	0.931000	0.208000	0.809600
C271	C27	0.182000	0.360000	0.869800
C281	C28	0.289000	0.419000	0.812400
C291	C29	0.979000	0.212000	0.680100
C301	C30	0.743000	0.090000	0.815900
C311	C31	0.535000	0.399000	0.531400
C321	C32	0.353000	0.577000	0.532800
N11	N1	0.212000	0.867400	0.747400
N21	N2	0.006000	0.758000	0.631400
N31	N3	0.395000	0.975000	0.936600
N41	N4	0.788000	0.632600	0.247400
N51	N5	0.994000	0.742000	0.131400
N61	N6	0.605000	0.525000	0.436600
N71	N7	0.788000	0.132600	0.252600
N81	N8	0.994000	0.242000	0.368600
N91	N9	0.605000	0.025000	0.063400
N101	N10	0.212000	0.367400	0.752600
N111	N11	0.006000	0.258000	0.868600
N121	N12	0.395000	0.475000	0.563400
O11	O1	0.104000	0.774500	0.865100
O21	O2	0.838000	0.613100	0.826600
O31	O3	0.479000	0.593700	0.690300
O41	O4	0.852000	0.498300	0.668500
O51	O5	0.896000	0.725500	0.365100
O61	O6	0.162000	0.886900	0.326600
O71	O7	0.521000	0.906300	0.190300
O81	O8	0.148000	0.001700	0.168500
O91	O9	0.896000	0.225500	0.134900
O101	O10	0.162000	0.386900	0.173400
O111	O11	0.521000	0.406300	0.309700
O121	O12	0.148000	0.501700	0.331500
O131	O13	0.104000	0.274500	0.634900
O141	O14	0.838000	0.113100	0.673400
O151	O15	0.479000	0.093700	0.809700
O161	O16	0.852000	0.998300	0.831500
