data_HEFDON_clean_PM
_symmetry_space_group_name_H-M	'P1'
_cell_length_a	9.944500
_cell_length_b	18.539100
_cell_length_c	20.288900
_cell_angle_alpha	88.904000
_cell_angle_beta	83.648000
_cell_angle_gamma	86.713000
_symmetry_Int_Tables_number 1

loop_
_symmetry_equiv_pos_as_xyz
'x,y,z'

loop_
_atom_site_label
_atom_site_type_symbol
_atom_site_fract_x
_atom_site_fract_y
_atom_site_fract_z
Ba11	Ba1	0.042700	0.241900	0.576380
Cd11	Cd1	0.612890	0.453050	0.038870
Cd21	Cd2	0.899340	0.958760	0.455620
C11	C1	0.015600	0.114900	0.415700
C21	C2	0.035300	0.167900	0.358800
C31	C3	0.114100	0.227200	0.363100
H11	H1	0.156300	0.234300	0.402000
C41	C4	0.130400	0.275600	0.310500
H21	H2	0.184600	0.315700	0.313600
C51	C5	0.068500	0.266400	0.253100
C61	C6	0.993000	0.206200	0.248800
H31	H3	0.953600	0.198300	0.209200
C71	C7	0.974300	0.157600	0.301200
H41	H4	0.920200	0.117500	0.298000
C81	C8	0.080400	0.318800	0.197400
C91	C9	0.206600	0.346200	0.175000
H51	H5	0.283700	0.332200	0.197000
C101	C10	0.219900	0.393600	0.120900
C111	C11	0.108400	0.416200	0.089300
H61	H6	0.116600	0.449100	0.052900
C121	C12	0.982900	0.389200	0.112400
C131	C13	0.971100	0.341500	0.164600
H71	H7	0.885000	0.323400	0.178600
C141	C14	0.858400	0.415000	0.079300
C151	C15	0.357500	0.416100	0.093000
C161	C16	0.528300	0.397800	0.904300
C171	C17	0.534700	0.340700	0.851600
C181	C18	0.453600	0.348500	0.802700
H81	H8	0.392000	0.389600	0.802200
C191	C19	0.458200	0.297000	0.752300
H91	H9	0.401500	0.303900	0.717700
C201	C20	0.545800	0.236100	0.753300
C211	C21	0.622700	0.226900	0.805100
H101	H10	0.680200	0.184500	0.807600
C221	C22	0.617900	0.278400	0.853800
H111	H11	0.672400	0.271000	0.889300
C231	C23	0.552600	0.183300	0.699600
C241	C24	0.435400	0.163500	0.674900
H121	H12	0.350200	0.185600	0.691600
C251	C25	0.442000	0.110800	0.625300
C261	C26	0.565600	0.079500	0.599300
H131	H13	0.569800	0.044000	0.565900
C271	C27	0.684200	0.100600	0.622600
C281	C28	0.677300	0.151200	0.672900
H141	H14	0.758300	0.164100	0.689400
C291	C29	0.819100	0.070600	0.590100
C301	C30	0.315500	0.087300	0.598400
O11	O1	0.929700	0.067700	0.410400
O21	O2	0.081200	0.123000	0.463100
O31	O3	0.763000	0.371800	0.082500
O41	O4	0.853900	0.474100	0.051600
O51	O5	0.364800	0.451200	0.038900
O61	O6	0.458900	0.396000	0.120200
O71	O7	0.611200	0.387600	0.947800
O81	O8	0.441600	0.447800	0.899700
O91	O9	0.923200	0.094400	0.606200
O101	O10	0.817300	0.022500	0.550200
O111	O11	0.320600	0.033400	0.567100
O121	O12	0.210700	0.125600	0.609900
Ba21	Ba2	0.957300	0.758100	0.423620
Cd31	Cd3	0.387110	0.546950	0.961130
Cd41	Cd4	0.100660	0.041240	0.544380
C311	C31	0.984400	0.885100	0.584300
C321	C32	0.964700	0.832100	0.641200
C331	C33	0.885900	0.772800	0.636900
H151	H15	0.843700	0.765700	0.598000
C341	C34	0.869600	0.724400	0.689500
H161	H16	0.815400	0.684300	0.686400
C351	C35	0.931500	0.733600	0.746900
C361	C36	0.007000	0.793800	0.751200
H171	H17	0.046400	0.801700	0.790800
C371	C37	0.025700	0.842400	0.698800
H181	H18	0.079800	0.882500	0.702000
C381	C38	0.919600	0.681200	0.802600
C391	C39	0.793400	0.653800	0.825000
H191	H19	0.716300	0.667800	0.803000
C401	C40	0.780100	0.606400	0.879100
C411	C41	0.891600	0.583800	0.910700
H201	H20	0.883400	0.550900	0.947100
C421	C42	0.017100	0.610800	0.887600
C431	C43	0.028900	0.658500	0.835400
H211	H21	0.115000	0.676600	0.821400
C441	C44	0.141600	0.585000	0.920700
C451	C45	0.642500	0.583900	0.907000
C461	C46	0.471700	0.602200	0.095700
C471	C47	0.465300	0.659300	0.148400
C481	C48	0.546400	0.651500	0.197300
H221	H22	0.608000	0.610400	0.197800
C491	C49	0.541800	0.703000	0.247700
H231	H23	0.598500	0.696100	0.282300
C501	C50	0.454200	0.763900	0.246700
C511	C51	0.377300	0.773100	0.194900
H241	H24	0.319800	0.815500	0.192400
C521	C52	0.382100	0.721600	0.146200
H251	H25	0.327600	0.729000	0.110700
C531	C53	0.447400	0.816700	0.300400
C541	C54	0.564600	0.836500	0.325100
H261	H26	0.649800	0.814400	0.308400
C551	C55	0.558000	0.889200	0.374700
C561	C56	0.434400	0.920500	0.400700
H271	H27	0.430200	0.956000	0.434100
C571	C57	0.315800	0.899400	0.377400
C581	C58	0.322700	0.848800	0.327100
H281	H28	0.241700	0.835900	0.310600
C591	C59	0.180900	0.929400	0.409900
C601	C60	0.684500	0.912700	0.401600
O131	O13	0.070300	0.932300	0.589600
O141	O14	0.918800	0.877000	0.536900
O151	O15	0.237000	0.628200	0.917500
O161	O16	0.146100	0.525900	0.948400
O171	O17	0.635200	0.548800	0.961100
O181	O18	0.541100	0.604000	0.879800
O191	O19	0.388800	0.612400	0.052200
O201	O20	0.558400	0.552200	0.100300
O211	O21	0.076800	0.905600	0.393800
O221	O22	0.182700	0.977500	0.449800
O231	O23	0.679400	0.966600	0.432900
O241	O24	0.789300	0.874400	0.390100
Cd51	Cd5	0.412840	0.971020	0.019040
C611	C61	0.041700	0.604600	0.095500
H291	H29	0.007400	0.560000	0.080400
H301	H30	0.136000	0.608600	0.076500
H311	H31	0.037000	0.603700	0.144100
C621	C62	0.832500	0.659600	0.060600
H321	H32	0.797200	0.613000	0.062800
C631	C63	0.754800	0.719200	0.043900
H331	H33	0.665200	0.712900	0.033800
C641	C64	0.801500	0.788000	0.041000
C651	C65	0.934100	0.793300	0.055400
H341	H34	0.972100	0.839200	0.055200
C661	C66	0.007100	0.734300	0.069500
H351	H35	0.098800	0.738600	0.077100
C671	C67	0.670400	0.898800	0.083200
C681	C68	0.705600	0.884200	0.149300
H361	H36	0.759400	0.844200	0.163600
C691	C69	0.647100	0.938600	0.186300
H371	H37	0.651900	0.944200	0.232400
C701	C70	0.575000	0.987500	0.144200
C711	C71	0.711100	0.852800	0.026600
C721	C72	0.679500	0.862100	0.961700
C731	C73	0.726300	0.816400	0.906900
H381	H38	0.787500	0.775200	0.908100
C741	C74	0.668600	0.841800	0.853600
H391	H39	0.678900	0.821100	0.810700
C751	C75	0.587300	0.907100	0.874100
C761	C76	0.494500	0.049800	0.164300
C771	C77	0.495500	0.069200	0.234900
C781	C78	0.375200	0.074900	0.279500
H401	H40	0.289900	0.067300	0.264700
C791	C79	0.383900	0.091500	0.344900
H411	H41	0.303200	0.096700	0.374500
C801	C80	0.502900	0.117100	0.437400
H421	H42	0.455000	0.080500	0.464800
H431	H43	0.458000	0.164800	0.446600
H441	H44	0.596900	0.117000	0.447700
C811	C81	0.617000	0.096500	0.325900
H451	H45	0.700800	0.104200	0.342300
C821	C82	0.614800	0.081500	0.261000
H461	H46	0.697500	0.079500	0.232500
Cl11	Cl1	0.220000	0.899100	0.067200
N11	N1	0.592300	0.915600	0.940400
N21	N2	0.597000	0.961500	0.080200
N31	N3	0.956900	0.668400	0.073500
N41	N4	0.501300	0.100500	0.367200
Cd61	Cd6	0.587160	0.028980	0.980960
C831	C83	0.958300	0.395400	0.904500
H471	H47	0.992600	0.440000	0.919600
H481	H48	0.864000	0.391400	0.923500
H491	H49	0.963000	0.396300	0.855900
C841	C84	0.167500	0.340400	0.939400
H501	H50	0.202800	0.387000	0.937200
C851	C85	0.245200	0.280800	0.956100
H511	H51	0.334800	0.287100	0.966200
C861	C86	0.198500	0.212000	0.959000
C871	C87	0.065900	0.206700	0.944600
H521	H52	0.027900	0.160800	0.944800
C881	C88	0.992900	0.265700	0.930500
H531	H53	0.901200	0.261400	0.922900
C891	C89	0.329600	0.101200	0.916800
C901	C90	0.294400	0.115800	0.850700
H541	H54	0.240600	0.155800	0.836400
C911	C91	0.352900	0.061400	0.813700
H551	H55	0.348100	0.055800	0.767600
C921	C92	0.425000	0.012500	0.855800
C931	C93	0.288900	0.147200	0.973400
C941	C94	0.320500	0.137900	0.038300
C951	C95	0.273700	0.183600	0.093100
H561	H56	0.212500	0.224800	0.091900
C961	C96	0.331400	0.158200	0.146400
H571	H57	0.321100	0.178900	0.189300
C971	C97	0.412700	0.092900	0.125900
C981	C98	0.505500	0.950200	0.835700
C991	C99	0.504500	0.930800	0.765100
C1001	C100	0.624800	0.925100	0.720500
H581	H58	0.710100	0.932700	0.735300
C1011	C101	0.616100	0.908500	0.655100
H591	H59	0.696800	0.903300	0.625500
C1021	C102	0.497100	0.882900	0.562600
H601	H60	0.545000	0.919500	0.535200
H611	H61	0.542000	0.835200	0.553400
H621	H62	0.403100	0.883000	0.552300
C1031	C103	0.383000	0.903500	0.674100
H631	H63	0.299200	0.895800	0.657700
C1041	C104	0.385200	0.918500	0.739000
H641	H64	0.302500	0.920500	0.767500
Cl21	Cl2	0.780000	0.100900	0.932800
N51	N5	0.407700	0.084400	0.059600
N61	N6	0.403000	0.038500	0.919800
N71	N7	0.043100	0.331600	0.926500
N81	N8	0.498700	0.899500	0.632800
