data_HEGNUD_clean_PM
_symmetry_space_group_name_H-M	'P1'
_cell_length_a	23.716000
_cell_length_b	23.716000
_cell_length_c	13.447000
_cell_angle_alpha	90.000000
_cell_angle_beta	90.000000
_cell_angle_gamma	120.000000
_symmetry_Int_Tables_number 1

loop_
_symmetry_equiv_pos_as_xyz
'x,y,z'

loop_
_atom_site_label
_atom_site_type_symbol
_atom_site_fract_x
_atom_site_fract_y
_atom_site_fract_z
Ga11	Ga1	0.360080	0.092960	0.120550
Cr11	Cr1	0.350010	0.242700	0.914760
P11	P1	0.418770	0.236050	0.119160
P21	P2	0.326720	0.987060	0.277880
O11	O1	0.366990	0.210280	0.037100
O21	O2	0.421780	0.175160	0.156400
O31	O3	0.391100	0.259070	0.206100
O41	O4	0.484010	0.289000	0.090200
O51	O5	0.374970	0.044500	0.212200
O61	O6	0.367260	0.959010	0.326100
O71	O7	0.271660	0.935100	0.218400
O81	O8	0.300310	0.010930	0.360900
N11	N1	0.444400	0.275300	0.869200
N21	N2	0.332500	0.157100	0.850900
N31	N3	0.251300	0.188800	0.940500
C11	C1	0.447100	0.218000	0.829900
C21	C2	0.384700	0.171900	0.780600
C31	C3	0.265000	0.122400	0.816600
C41	C4	0.224100	0.121300	0.902600
H11	H1	0.477000	0.295700	0.925200
H21	H2	0.457100	0.303200	0.821100
H31	H3	0.330300	0.123600	0.896800
H41	H4	0.228700	0.200800	0.911800
H51	H5	0.247000	0.193600	0.017700
H61	H6	0.449000	0.191500	0.889200
H71	H7	0.487200	0.236400	0.799500
H81	H8	0.381900	0.130700	0.751900
H91	H9	0.383600	0.196900	0.725200
H101	H10	0.253600	0.078300	0.806600
H111	H11	0.261400	0.147600	0.759600
H121	H12	0.180200	0.105500	0.878000
H131	H13	0.229800	0.101200	0.954000
Ga21	Ga2	0.242700	0.892690	0.085240
Ga31	Ga3	0.026750	0.426290	0.453880
Cr21	Cr2	0.016680	0.576030	0.248090
P31	P3	0.085440	0.569380	0.452490
P41	P4	0.993390	0.320390	0.611210
O91	O9	0.033660	0.543610	0.370430
O101	O10	0.088450	0.508490	0.489730
O111	O11	0.057770	0.592400	0.539430
O121	O12	0.150680	0.622330	0.423530
O131	O13	0.041640	0.377830	0.545530
O141	O14	0.033930	0.292340	0.659430
O151	O15	0.938330	0.268430	0.551730
O161	O16	0.966980	0.344260	0.694230
N41	N4	0.111070	0.608630	0.202530
N51	N5	0.999170	0.490430	0.184230
N61	N6	0.917970	0.522130	0.273830
C51	C5	0.113770	0.551330	0.163230
C61	C6	0.051370	0.505230	0.113930
C71	C7	0.931670	0.455730	0.149930
C81	C8	0.890770	0.454630	0.235930
H141	H14	0.143670	0.629030	0.258530
H151	H15	0.123770	0.636530	0.154430
H161	H16	0.996970	0.456930	0.230130
H171	H17	0.895370	0.534130	0.245130
H181	H18	0.913670	0.526930	0.351030
H191	H19	0.115670	0.524830	0.222530
H201	H20	0.153870	0.569730	0.132830
H211	H21	0.048570	0.464030	0.085230
H221	H22	0.050270	0.530230	0.058530
H231	H23	0.920270	0.411630	0.139930
H241	H24	0.928070	0.480930	0.092930
H251	H25	0.846870	0.438830	0.211330
H261	H26	0.896470	0.434530	0.287330
Ga41	Ga4	0.909370	0.226020	0.418570
Ga51	Ga5	0.693410	0.759630	0.787220
Cr31	Cr3	0.683340	0.909370	0.581430
P51	P5	0.752100	0.902720	0.785830
P61	P6	0.660050	0.653730	0.944550
O171	O17	0.700320	0.876950	0.703770
O181	O18	0.755110	0.841830	0.823070
O191	O19	0.724430	0.925740	0.872770
O201	O20	0.817340	0.955670	0.756870
O211	O21	0.708300	0.711170	0.878870
O221	O22	0.700590	0.625680	0.992770
O231	O23	0.604990	0.601770	0.885070
O241	O24	0.633640	0.677600	0.027570
N71	N7	0.777730	0.941970	0.535870
N81	N8	0.665830	0.823770	0.517570
N91	N9	0.584630	0.855470	0.607170
C91	C9	0.780430	0.884670	0.496570
C101	C10	0.718030	0.838570	0.447270
C111	C11	0.598330	0.789070	0.483270
C121	C12	0.557430	0.787970	0.569270
H271	H27	0.810330	0.962370	0.591870
H281	H28	0.790430	0.969870	0.487770
H291	H29	0.663630	0.790270	0.563470
H301	H30	0.562030	0.867470	0.578470
H311	H31	0.580330	0.860270	0.684370
H321	H32	0.782330	0.858170	0.555870
H331	H33	0.820530	0.903070	0.466170
H341	H34	0.715230	0.797370	0.418570
H351	H35	0.716930	0.863570	0.391870
H361	H36	0.586930	0.744970	0.473270
H371	H37	0.594730	0.814270	0.426270
H381	H38	0.513530	0.772170	0.544670
H391	H39	0.563130	0.767870	0.620670
Ga61	Ga6	0.576030	0.559360	0.751910
Ga71	Ga7	0.907040	0.267120	0.120550
Cr41	Cr4	0.757300	0.107310	0.914760
P71	P7	0.763950	0.182720	0.119160
P81	P8	0.012940	0.339660	0.277880
O251	O25	0.789720	0.156710	0.037100
O261	O26	0.824840	0.246620	0.156400
O271	O27	0.740930	0.132030	0.206100
O281	O28	0.711000	0.195010	0.090200
O291	O29	0.955500	0.330470	0.212200
O301	O30	0.040990	0.408250	0.326100
O311	O31	0.064900	0.336560	0.218400
O321	O32	0.989070	0.289380	0.360900
N101	N10	0.724700	0.169100	0.869200
N111	N11	0.842900	0.175400	0.850900
N121	N12	0.811200	0.062500	0.940500
C131	C13	0.782000	0.229100	0.829900
C141	C14	0.828100	0.212800	0.780600
C151	C15	0.877600	0.142600	0.816600
C161	C16	0.878700	0.102800	0.902600
H401	H40	0.704300	0.181300	0.925200
H411	H41	0.696800	0.153900	0.821100
H421	H42	0.876400	0.206700	0.896800
H431	H43	0.799200	0.027900	0.911800
H441	H44	0.806400	0.053400	0.017700
H451	H45	0.808500	0.257500	0.889200
H461	H46	0.763600	0.250800	0.799500
H471	H47	0.869300	0.251200	0.751900
H481	H48	0.803100	0.186700	0.725200
H491	H49	0.921700	0.175300	0.806600
H501	H50	0.852400	0.113800	0.759600
H511	H51	0.894500	0.074700	0.878000
H521	H52	0.898800	0.128600	0.954000
Ga81	Ga8	0.107310	0.350010	0.085240
Ga91	Ga9	0.573710	0.600450	0.453880
Cr51	Cr5	0.423970	0.440640	0.248090
P91	P9	0.430620	0.516050	0.452490
P101	P10	0.679610	0.672990	0.611210
O331	O33	0.456390	0.490040	0.370430
O341	O34	0.491510	0.579950	0.489730
O351	O35	0.407600	0.465360	0.539430
O361	O36	0.377670	0.528340	0.423530
O371	O37	0.622170	0.663800	0.545530
O381	O38	0.707660	0.741580	0.659430
O391	O39	0.731570	0.669890	0.551730
O401	O40	0.655740	0.622710	0.694230
N131	N13	0.391370	0.502430	0.202530
N141	N14	0.509570	0.508730	0.184230
N151	N15	0.477870	0.395830	0.273830
C171	C17	0.448670	0.562430	0.163230
C181	C18	0.494770	0.546130	0.113930
C191	C19	0.544270	0.475930	0.149930
C201	C20	0.545370	0.436130	0.235930
H531	H53	0.370970	0.514630	0.258530
H541	H54	0.363470	0.487230	0.154430
H551	H55	0.543070	0.540030	0.230130
H561	H56	0.465870	0.361230	0.245130
H571	H57	0.473070	0.386730	0.351030
H581	H58	0.475170	0.590830	0.222530
H591	H59	0.430270	0.584130	0.132830
H601	H60	0.535970	0.584530	0.085230
H611	H61	0.469770	0.520030	0.058530
H621	H62	0.588370	0.508630	0.139930
H631	H63	0.519070	0.447130	0.092930
H641	H64	0.561170	0.408030	0.211330
H651	H65	0.565470	0.461930	0.287330
Ga101	Ga10	0.773980	0.683340	0.418570
Ga111	Ga11	0.240370	0.933790	0.787220
Cr61	Cr6	0.090630	0.773980	0.581430
P111	P11	0.097280	0.849390	0.785830
P121	P12	0.346270	0.006330	0.944550
O411	O41	0.123050	0.823380	0.703770
O421	O42	0.158170	0.913290	0.823070
O431	O43	0.074260	0.798700	0.872770
O441	O44	0.044330	0.861680	0.756870
O451	O45	0.288830	0.997140	0.878870
O461	O46	0.374320	0.074920	0.992770
O471	O47	0.398230	0.003230	0.885070
O481	O48	0.322400	0.956050	0.027570
N161	N16	0.058030	0.835770	0.535870
N171	N17	0.176230	0.842070	0.517570
N181	N18	0.144530	0.729170	0.607170
C211	C21	0.115330	0.895770	0.496570
C221	C22	0.161430	0.879470	0.447270
C231	C23	0.210930	0.809270	0.483270
C241	C24	0.212030	0.769470	0.569270
H661	H66	0.037630	0.847970	0.591870
H671	H67	0.030130	0.820570	0.487770
H681	H68	0.209730	0.873370	0.563470
H691	H69	0.132530	0.694570	0.578470
H701	H70	0.139730	0.720070	0.684370
H711	H71	0.141830	0.924170	0.555870
H721	H72	0.096930	0.917470	0.466170
H731	H73	0.202630	0.917870	0.418570
H741	H74	0.136430	0.853370	0.391870
H751	H75	0.255030	0.841970	0.473270
H761	H76	0.185730	0.780470	0.426270
H771	H77	0.227830	0.741370	0.544670
H781	H78	0.232130	0.795270	0.620670
Ga121	Ga12	0.440640	0.016680	0.751910
Ga131	Ga13	0.732880	0.639920	0.120550
Cr71	Cr7	0.892690	0.649990	0.914760
P131	P13	0.817280	0.581230	0.119160
P141	P14	0.660340	0.673280	0.277880
O491	O49	0.843290	0.633010	0.037100
O501	O50	0.753380	0.578220	0.156400
O511	O51	0.867970	0.608900	0.206100
O521	O52	0.804990	0.515990	0.090200
O531	O53	0.669530	0.625030	0.212200
O541	O54	0.591750	0.632740	0.326100
O551	O55	0.663440	0.728340	0.218400
O561	O56	0.710620	0.699690	0.360900
N191	N19	0.830900	0.555600	0.869200
N201	N20	0.824600	0.667500	0.850900
N211	N21	0.937500	0.748700	0.940500
C251	C25	0.770900	0.552900	0.829900
C261	C26	0.787200	0.615300	0.780600
C271	C27	0.857400	0.735000	0.816600
C281	C28	0.897200	0.775900	0.902600
H791	H79	0.818700	0.523000	0.925200
H801	H80	0.846100	0.542900	0.821100
H811	H81	0.793300	0.669700	0.896800
H821	H82	0.972100	0.771300	0.911800
H831	H83	0.946600	0.753000	0.017700
H841	H84	0.742500	0.551000	0.889200
H851	H85	0.749200	0.512800	0.799500
H861	H86	0.748800	0.618100	0.751900
H871	H87	0.813300	0.616400	0.725200
H881	H88	0.824700	0.746400	0.806600
H891	H89	0.886200	0.738600	0.759600
H901	H90	0.925300	0.819800	0.878000
H911	H91	0.871400	0.770200	0.954000
Ga141	Ga14	0.649990	0.757300	0.085240
Ga151	Ga15	0.399550	0.973250	0.453880
Cr81	Cr8	0.559360	0.983320	0.248090
P151	P15	0.483950	0.914560	0.452490
P161	P16	0.327010	0.006610	0.611210
O571	O57	0.509960	0.966340	0.370430
O581	O58	0.420050	0.911550	0.489730
O591	O59	0.534640	0.942230	0.539430
O601	O60	0.471660	0.849320	0.423530
O611	O61	0.336200	0.958360	0.545530
O621	O62	0.258420	0.966070	0.659430
O631	O63	0.330110	0.061670	0.551730
O641	O64	0.377290	0.033020	0.694230
N221	N22	0.497570	0.888930	0.202530
N231	N23	0.491270	0.000830	0.184230
N241	N24	0.604170	0.082030	0.273830
C291	C29	0.437570	0.886230	0.163230
C301	C30	0.453870	0.948630	0.113930
C311	C31	0.524070	0.068330	0.149930
C321	C32	0.563870	0.109230	0.235930
H921	H92	0.485370	0.856330	0.258530
H931	H93	0.512770	0.876230	0.154430
H941	H94	0.459970	0.003030	0.230130
H951	H95	0.638770	0.104630	0.245130
H961	H96	0.613270	0.086330	0.351030
H971	H97	0.409170	0.884330	0.222530
H981	H98	0.415870	0.846130	0.132830
H991	H99	0.415470	0.951430	0.085230
H1001	H100	0.479970	0.949730	0.058530
H1011	H101	0.491370	0.079730	0.139930
H1021	H102	0.552870	0.071930	0.092930
H1031	H103	0.591970	0.153130	0.211330
H1041	H104	0.538070	0.103530	0.287330
Ga161	Ga16	0.316660	0.090630	0.418570
Ga171	Ga17	0.066210	0.306590	0.787220
Cr91	Cr9	0.226020	0.316660	0.581430
P171	P17	0.150610	0.247900	0.785830
P181	P18	0.993670	0.339950	0.944550
O651	O65	0.176620	0.299680	0.703770
O661	O66	0.086710	0.244890	0.823070
O671	O67	0.201300	0.275570	0.872770
O681	O68	0.138320	0.182660	0.756870
O691	O69	0.002860	0.291700	0.878870
O701	O70	0.925080	0.299410	0.992770
O711	O71	0.996770	0.395010	0.885070
O721	O72	0.043950	0.366360	0.027570
N251	N25	0.164230	0.222270	0.535870
N261	N26	0.157930	0.334170	0.517570
N271	N27	0.270830	0.415370	0.607170
C331	C33	0.104230	0.219570	0.496570
C341	C34	0.120530	0.281970	0.447270
C351	C35	0.190730	0.401670	0.483270
C361	C36	0.230530	0.442570	0.569270
H1051	H105	0.152030	0.189670	0.591870
H1061	H106	0.179430	0.209570	0.487770
H1071	H107	0.126630	0.336370	0.563470
H1081	H108	0.305430	0.437970	0.578470
H1091	H109	0.279930	0.419670	0.684370
H1101	H110	0.075830	0.217670	0.555870
H1111	H111	0.082530	0.179470	0.466170
H1121	H112	0.082130	0.284770	0.418570
H1131	H113	0.146630	0.283070	0.391870
H1141	H114	0.158030	0.413070	0.473270
H1151	H115	0.219530	0.405270	0.426270
H1161	H116	0.258630	0.486470	0.544670
H1171	H117	0.204730	0.436870	0.620670
Ga181	Ga18	0.983320	0.423970	0.751910
Ga191	Ga19	0.639920	0.907040	0.879450
P191	P19	0.581230	0.763950	0.880840
P201	P20	0.673280	0.012940	0.722120
O731	O73	0.633010	0.789720	0.962900
O741	O74	0.578220	0.824840	0.843600
O751	O75	0.608900	0.740930	0.793900
O761	O76	0.515990	0.711000	0.909800
O771	O77	0.625030	0.955500	0.787800
O781	O78	0.632740	0.040990	0.673900
O791	O79	0.728340	0.064900	0.781600
O801	O80	0.699690	0.989070	0.639100
N281	N28	0.555600	0.724700	0.130800
N291	N29	0.667500	0.842900	0.149100
N301	N30	0.748700	0.811200	0.059500
C371	C37	0.552900	0.782000	0.170100
C381	C38	0.615300	0.828100	0.219400
C391	C39	0.735000	0.877600	0.183400
C401	C40	0.775900	0.878700	0.097400
H1181	H118	0.523000	0.704300	0.074800
H1191	H119	0.542900	0.696800	0.178900
H1201	H120	0.669700	0.876400	0.103200
H1211	H121	0.771300	0.799200	0.088200
H1221	H122	0.753000	0.806400	0.982300
H1231	H123	0.551000	0.808500	0.110800
H1241	H124	0.512800	0.763600	0.200500
H1251	H125	0.618100	0.869300	0.248100
H1261	H126	0.616400	0.803100	0.274800
H1271	H127	0.746400	0.921700	0.193400
H1281	H128	0.738600	0.852400	0.240400
H1291	H129	0.819800	0.894500	0.122000
H1301	H130	0.770200	0.898800	0.046000
Ga201	Ga20	0.306590	0.240370	0.212780
P211	P21	0.247900	0.097280	0.214170
P221	P22	0.339950	0.346270	0.055450
O811	O81	0.299680	0.123050	0.296230
O821	O82	0.244890	0.158170	0.176930
O831	O83	0.275570	0.074260	0.127230
O841	O84	0.182660	0.044330	0.243130
O851	O85	0.291700	0.288830	0.121130
O861	O86	0.299410	0.374320	0.007230
O871	O87	0.395010	0.398230	0.114930
O881	O88	0.366360	0.322400	0.972430
N311	N31	0.222270	0.058030	0.464130
N321	N32	0.334170	0.176230	0.482430
N331	N33	0.415370	0.144530	0.392830
C411	C41	0.219570	0.115330	0.503430
C421	C42	0.281970	0.161430	0.552730
C431	C43	0.401670	0.210930	0.516730
C441	C44	0.442570	0.212030	0.430730
H1311	H131	0.189670	0.037630	0.408130
H1321	H132	0.209570	0.030130	0.512230
H1331	H133	0.336370	0.209730	0.436530
H1341	H134	0.437970	0.132530	0.421530
H1351	H135	0.419670	0.139730	0.315630
H1361	H136	0.217670	0.141830	0.444130
H1371	H137	0.179470	0.096930	0.533830
H1381	H138	0.284770	0.202630	0.581430
H1391	H139	0.283070	0.136430	0.608130
H1401	H140	0.413070	0.255030	0.526730
H1411	H141	0.405270	0.185730	0.573730
H1421	H142	0.486470	0.227830	0.455330
H1431	H143	0.436870	0.232130	0.379330
Ga211	Ga21	0.973250	0.573710	0.546120
P231	P23	0.914560	0.430620	0.547510
P241	P24	0.006610	0.679610	0.388790
O891	O89	0.966340	0.456390	0.629570
O901	O90	0.911550	0.491510	0.510270
O911	O91	0.942230	0.407600	0.460570
O921	O92	0.849320	0.377670	0.576470
O931	O93	0.958360	0.622170	0.454470
O941	O94	0.966070	0.707660	0.340570
O951	O95	0.061670	0.731570	0.448270
O961	O96	0.033020	0.655740	0.305770
N341	N34	0.888930	0.391370	0.797470
N351	N35	0.000830	0.509570	0.815770
N361	N36	0.082030	0.477870	0.726170
C451	C45	0.886230	0.448670	0.836770
C461	C46	0.948630	0.494770	0.886070
C471	C47	0.068330	0.544270	0.850070
C481	C48	0.109230	0.545370	0.764070
H1441	H144	0.856330	0.370970	0.741470
H1451	H145	0.876230	0.363470	0.845570
H1461	H146	0.003030	0.543070	0.769870
H1471	H147	0.104630	0.465870	0.754870
H1481	H148	0.086330	0.473070	0.648970
H1491	H149	0.884330	0.475170	0.777470
H1501	H150	0.846130	0.430270	0.867170
H1511	H151	0.951430	0.535970	0.914770
H1521	H152	0.949730	0.469770	0.941470
H1531	H153	0.079730	0.588370	0.860070
H1541	H154	0.071930	0.519070	0.907070
H1551	H155	0.153130	0.561170	0.788670
H1561	H156	0.103530	0.565470	0.712670
Ga221	Ga22	0.092960	0.732880	0.879450
P251	P25	0.236050	0.817280	0.880840
P261	P26	0.987060	0.660340	0.722120
O971	O97	0.210280	0.843290	0.962900
O981	O98	0.175160	0.753380	0.843600
O991	O99	0.259070	0.867970	0.793900
O1001	O100	0.289000	0.804990	0.909800
O1011	O101	0.044500	0.669530	0.787800
O1021	O102	0.959010	0.591750	0.673900
O1031	O103	0.935100	0.663440	0.781600
O1041	O104	0.010930	0.710620	0.639100
N371	N37	0.275300	0.830900	0.130800
N381	N38	0.157100	0.824600	0.149100
N391	N39	0.188800	0.937500	0.059500
C491	C49	0.218000	0.770900	0.170100
C501	C50	0.171900	0.787200	0.219400
C511	C51	0.122400	0.857400	0.183400
C521	C52	0.121300	0.897200	0.097400
H1571	H157	0.295700	0.818700	0.074800
H1581	H158	0.303200	0.846100	0.178900
H1591	H159	0.123600	0.793300	0.103200
H1601	H160	0.200800	0.972100	0.088200
H1611	H161	0.193600	0.946600	0.982300
H1621	H162	0.191500	0.742500	0.110800
H1631	H163	0.236400	0.749200	0.200500
H1641	H164	0.130700	0.748800	0.248100
H1651	H165	0.196900	0.813300	0.274800
H1661	H166	0.078300	0.824700	0.193400
H1671	H167	0.147600	0.886200	0.240400
H1681	H168	0.105500	0.925300	0.122000
H1691	H169	0.101200	0.871400	0.046000
Ga231	Ga23	0.759630	0.066210	0.212780
P271	P27	0.902720	0.150610	0.214170
P281	P28	0.653730	0.993670	0.055450
O1051	O105	0.876950	0.176620	0.296230
O1061	O106	0.841830	0.086710	0.176930
O1071	O107	0.925740	0.201300	0.127230
O1081	O108	0.955670	0.138320	0.243130
O1091	O109	0.711170	0.002860	0.121130
O1101	O110	0.625680	0.925080	0.007230
O1111	O111	0.601770	0.996770	0.114930
O1121	O112	0.677600	0.043950	0.972430
N401	N40	0.941970	0.164230	0.464130
N411	N41	0.823770	0.157930	0.482430
N421	N42	0.855470	0.270830	0.392830
C531	C53	0.884670	0.104230	0.503430
C541	C54	0.838570	0.120530	0.552730
C551	C55	0.789070	0.190730	0.516730
C561	C56	0.787970	0.230530	0.430730
H1701	H170	0.962370	0.152030	0.408130
H1711	H171	0.969870	0.179430	0.512230
H1721	H172	0.790270	0.126630	0.436530
H1731	H173	0.867470	0.305430	0.421530
H1741	H174	0.860270	0.279930	0.315630
H1751	H175	0.858170	0.075830	0.444130
H1761	H176	0.903070	0.082530	0.533830
H1771	H177	0.797370	0.082130	0.581430
H1781	H178	0.863570	0.146630	0.608130
H1791	H179	0.744970	0.158030	0.526730
H1801	H180	0.814270	0.219530	0.573730
H1811	H181	0.772170	0.258630	0.455330
H1821	H182	0.767870	0.204730	0.379330
Ga241	Ga24	0.426290	0.399550	0.546120
P291	P29	0.569380	0.483950	0.547510
P301	P30	0.320390	0.327010	0.388790
O1131	O113	0.543610	0.509960	0.629570
O1141	O114	0.508490	0.420050	0.510270
O1151	O115	0.592400	0.534640	0.460570
O1161	O116	0.622330	0.471660	0.576470
O1171	O117	0.377830	0.336200	0.454470
O1181	O118	0.292340	0.258420	0.340570
O1191	O119	0.268430	0.330110	0.448270
O1201	O120	0.344260	0.377290	0.305770
N431	N43	0.608630	0.497570	0.797470
N441	N44	0.490430	0.491270	0.815770
N451	N45	0.522130	0.604170	0.726170
C571	C57	0.551330	0.437570	0.836770
C581	C58	0.505230	0.453870	0.886070
C591	C59	0.455730	0.524070	0.850070
C601	C60	0.454630	0.563870	0.764070
H1831	H183	0.629030	0.485370	0.741470
H1841	H184	0.636530	0.512770	0.845570
H1851	H185	0.456930	0.459970	0.769870
H1861	H186	0.534130	0.638770	0.754870
H1871	H187	0.526930	0.613270	0.648970
H1881	H188	0.524830	0.409170	0.777470
H1891	H189	0.569730	0.415870	0.867170
H1901	H190	0.464030	0.415470	0.914770
H1911	H191	0.530230	0.479970	0.941470
H1921	H192	0.411630	0.491370	0.860070
H1931	H193	0.480930	0.552870	0.907070
H1941	H194	0.438830	0.591970	0.788670
H1951	H195	0.434530	0.538070	0.712670
Ga251	Ga25	0.267120	0.360080	0.879450
P311	P31	0.182720	0.418770	0.880840
P321	P32	0.339660	0.326720	0.722120
O1211	O121	0.156710	0.366990	0.962900
O1221	O122	0.246620	0.421780	0.843600
O1231	O123	0.132030	0.391100	0.793900
O1241	O124	0.195010	0.484010	0.909800
O1251	O125	0.330470	0.374970	0.787800
O1261	O126	0.408250	0.367260	0.673900
O1271	O127	0.336560	0.271660	0.781600
O1281	O128	0.289380	0.300310	0.639100
N461	N46	0.169100	0.444400	0.130800
N471	N47	0.175400	0.332500	0.149100
N481	N48	0.062500	0.251300	0.059500
C611	C61	0.229100	0.447100	0.170100
C621	C62	0.212800	0.384700	0.219400
C631	C63	0.142600	0.265000	0.183400
C641	C64	0.102800	0.224100	0.097400
H1961	H196	0.181300	0.477000	0.074800
H1971	H197	0.153900	0.457100	0.178900
H1981	H198	0.206700	0.330300	0.103200
H1991	H199	0.027900	0.228700	0.088200
H2001	H200	0.053400	0.247000	0.982300
H2011	H201	0.257500	0.449000	0.110800
H2021	H202	0.250800	0.487200	0.200500
H2031	H203	0.251200	0.381900	0.248100
H2041	H204	0.186700	0.383600	0.274800
H2051	H205	0.175300	0.253600	0.193400
H2061	H206	0.113800	0.261400	0.240400
H2071	H207	0.074700	0.180200	0.122000
H2081	H208	0.128600	0.229800	0.046000
Ga261	Ga26	0.933790	0.693410	0.212780
P331	P33	0.849390	0.752100	0.214170
P341	P34	0.006330	0.660050	0.055450
O1291	O129	0.823380	0.700320	0.296230
O1301	O130	0.913290	0.755110	0.176930
O1311	O131	0.798700	0.724430	0.127230
O1321	O132	0.861680	0.817340	0.243130
O1331	O133	0.997140	0.708300	0.121130
O1341	O134	0.074920	0.700590	0.007230
O1351	O135	0.003230	0.604990	0.114930
O1361	O136	0.956050	0.633640	0.972430
N491	N49	0.835770	0.777730	0.464130
N501	N50	0.842070	0.665830	0.482430
N511	N51	0.729170	0.584630	0.392830
C651	C65	0.895770	0.780430	0.503430
C661	C66	0.879470	0.718030	0.552730
C671	C67	0.809270	0.598330	0.516730
C681	C68	0.769470	0.557430	0.430730
H2091	H209	0.847970	0.810330	0.408130
H2101	H210	0.820570	0.790430	0.512230
H2111	H211	0.873370	0.663630	0.436530
H2121	H212	0.694570	0.562030	0.421530
H2131	H213	0.720070	0.580330	0.315630
H2141	H214	0.924170	0.782330	0.444130
H2151	H215	0.917470	0.820530	0.533830
H2161	H216	0.917870	0.715230	0.581430
H2171	H217	0.853370	0.716930	0.608130
H2181	H218	0.841970	0.586930	0.526730
H2191	H219	0.780470	0.594730	0.573730
H2201	H220	0.741370	0.513530	0.455330
H2211	H221	0.795270	0.563130	0.379330
Ga271	Ga27	0.600450	0.026750	0.546120
P351	P35	0.516050	0.085440	0.547510
P361	P36	0.672990	0.993390	0.388790
O1371	O137	0.490040	0.033660	0.629570
O1381	O138	0.579950	0.088450	0.510270
O1391	O139	0.465360	0.057770	0.460570
O1401	O140	0.528340	0.150680	0.576470
O1411	O141	0.663800	0.041640	0.454470
O1421	O142	0.741580	0.033930	0.340570
O1431	O143	0.669890	0.938330	0.448270
O1441	O144	0.622710	0.966980	0.305770
N521	N52	0.502430	0.111070	0.797470
N531	N53	0.508730	0.999170	0.815770
N541	N54	0.395830	0.917970	0.726170
C691	C69	0.562430	0.113770	0.836770
C701	C70	0.546130	0.051370	0.886070
C711	C71	0.475930	0.931670	0.850070
C721	C72	0.436130	0.890770	0.764070
H2221	H222	0.514630	0.143670	0.741470
H2231	H223	0.487230	0.123770	0.845570
H2241	H224	0.540030	0.996970	0.769870
H2251	H225	0.361230	0.895370	0.754870
H2261	H226	0.386730	0.913670	0.648970
H2271	H227	0.590830	0.115670	0.777470
H2281	H228	0.584130	0.153870	0.867170
H2291	H229	0.584530	0.048570	0.914770
H2301	H230	0.520030	0.050270	0.941470
H2311	H231	0.508630	0.920270	0.860070
H2321	H232	0.447130	0.928070	0.907070
H2331	H233	0.408030	0.846870	0.788670
H2341	H234	0.461930	0.896470	0.712670
