data_HEGNAJ_clean_PM
_symmetry_space_group_name_H-M	'P1'
_cell_length_a	23.742200
_cell_length_b	23.742200
_cell_length_c	13.488800
_cell_angle_alpha	90.000000
_cell_angle_beta	90.000000
_cell_angle_gamma	120.000000
_symmetry_Int_Tables_number 1

loop_
_symmetry_equiv_pos_as_xyz
'x,y,z'

loop_
_atom_site_label
_atom_site_type_symbol
_atom_site_fract_x
_atom_site_fract_y
_atom_site_fract_z
Co11	Co1	0.360390	0.093030	0.119980
Cr11	Cr1	0.349810	0.242770	0.915420
P11	P1	0.418760	0.236190	0.119490
P21	P2	0.326810	0.986960	0.277120
O11	O1	0.367190	0.210180	0.037400
O21	O2	0.422340	0.175780	0.156400
O31	O3	0.391500	0.259460	0.206500
O41	O4	0.484140	0.289690	0.089300
O51	O5	0.375310	0.044500	0.211600
O61	O6	0.367050	0.958630	0.325000
O71	O7	0.271520	0.935160	0.217300
O81	O8	0.300270	0.010600	0.360000
N11	N1	0.444400	0.275510	0.869300
N21	N2	0.332600	0.156560	0.851100
N31	N3	0.250820	0.188560	0.941300
C11	C1	0.447300	0.218200	0.830400
C21	C2	0.385000	0.173000	0.779800
C31	C3	0.264800	0.122300	0.816900
C41	C4	0.223700	0.121000	0.903700
H11	H1	0.455600	0.305000	0.820200
H21	H2	0.472500	0.292700	0.920600
H31	H3	0.328000	0.126000	0.893900
H41	H4	0.235400	0.210200	0.916200
H51	H5	0.237000	0.182000	0.005100
H61	H6	0.452900	0.193500	0.889100
H71	H7	0.484000	0.238000	0.787800
H81	H8	0.378400	0.193900	0.723600
H91	H9	0.389900	0.137600	0.746100
H101	H10	0.254600	0.147800	0.764300
H111	H11	0.258100	0.080200	0.795600
H121	H12	0.180400	0.107300	0.874100
H131	H13	0.228000	0.097200	0.961800
Ga11	Ga1	0.306280	0.240300	0.213350
Ga21	Ga2	0.242770	0.892960	0.084580
Co21	Co2	0.027060	0.426360	0.453310
Cr21	Cr2	0.016480	0.576100	0.248750
P31	P3	0.085430	0.569520	0.452820
P41	P4	0.993480	0.320290	0.610450
O91	O9	0.033860	0.543510	0.370730
O101	O10	0.089010	0.509110	0.489730
O111	O11	0.058170	0.592790	0.539830
O121	O12	0.150810	0.623020	0.422630
O131	O13	0.041980	0.377830	0.544930
O141	O14	0.033720	0.291960	0.658330
O151	O15	0.938190	0.268490	0.550630
O161	O16	0.966940	0.343930	0.693330
N41	N4	0.111070	0.608840	0.202630
N51	N5	0.999270	0.489890	0.184430
N61	N6	0.917490	0.521890	0.274630
C51	C5	0.113970	0.551530	0.163730
C61	C6	0.051670	0.506330	0.113130
C71	C7	0.931470	0.455630	0.150230
C81	C8	0.890370	0.454330	0.237030
H141	H14	0.122270	0.638330	0.153530
H151	H15	0.139170	0.626030	0.253930
H161	H16	0.994670	0.459330	0.227230
H171	H17	0.902070	0.543530	0.249530
H181	H18	0.903670	0.515330	0.338430
H191	H19	0.119570	0.526830	0.222430
H201	H20	0.150670	0.571330	0.121130
H211	H21	0.045070	0.527230	0.056930
H221	H22	0.056570	0.470930	0.079430
H231	H23	0.921270	0.481130	0.097630
H241	H24	0.924770	0.413530	0.128930
H251	H25	0.847070	0.440630	0.207430
H261	H26	0.894670	0.430530	0.295130
Ga31	Ga3	0.972940	0.573640	0.546690
Ga41	Ga4	0.909440	0.226290	0.417910
Co31	Co3	0.693720	0.759700	0.786650
Cr31	Cr3	0.683140	0.909440	0.582090
P51	P5	0.752090	0.902860	0.786160
P61	P6	0.660140	0.653630	0.943790
O171	O17	0.700520	0.876850	0.704070
O181	O18	0.755670	0.842450	0.823070
O191	O19	0.724830	0.926130	0.873170
O201	O20	0.817470	0.956360	0.755970
O211	O21	0.708640	0.711170	0.878270
O221	O22	0.700380	0.625300	0.991670
O231	O23	0.604850	0.601830	0.883970
O241	O24	0.633600	0.677270	0.026670
N71	N7	0.777730	0.942180	0.535970
N81	N8	0.665930	0.823230	0.517770
N91	N9	0.584150	0.855230	0.607970
C91	C9	0.780630	0.884870	0.497070
C101	C10	0.718330	0.839670	0.446470
C111	C11	0.598130	0.788970	0.483570
C121	C12	0.557030	0.787670	0.570370
H271	H27	0.788930	0.971670	0.486870
H281	H28	0.805830	0.959370	0.587270
H291	H29	0.661330	0.792670	0.560570
H301	H30	0.568730	0.876870	0.582870
H311	H31	0.570330	0.848670	0.671770
H321	H32	0.786230	0.860170	0.555770
H331	H33	0.817330	0.904670	0.454470
H341	H34	0.711730	0.860570	0.390270
H351	H35	0.723230	0.804270	0.412770
H361	H36	0.587930	0.814470	0.430970
H371	H37	0.591430	0.746870	0.462270
H381	H38	0.513730	0.773970	0.540770
H391	H39	0.561330	0.763870	0.628470
Ga51	Ga5	0.639610	0.906970	0.880020
Ga61	Ga6	0.576100	0.559630	0.751250
Co41	Co4	0.906970	0.267360	0.119980
Cr41	Cr4	0.757230	0.107040	0.915420
P71	P7	0.763810	0.182570	0.119490
P81	P8	0.013040	0.339850	0.277120
O251	O25	0.789820	0.157010	0.037400
O261	O26	0.824220	0.246560	0.156400
O271	O27	0.740540	0.132040	0.206500
O281	O28	0.710310	0.194450	0.089300
O291	O29	0.955500	0.330810	0.211600
O301	O30	0.041370	0.408420	0.325000
O311	O31	0.064840	0.336360	0.217300
O321	O32	0.989400	0.289670	0.360000
N101	N10	0.724490	0.168890	0.869300
N111	N11	0.843440	0.176040	0.851100
N121	N12	0.811440	0.062260	0.941300
C131	C13	0.781800	0.229100	0.830400
C141	C14	0.827000	0.212000	0.779800
C151	C15	0.877700	0.142500	0.816900
C161	C16	0.879000	0.102700	0.903700
H401	H40	0.695000	0.150600	0.820200
H411	H41	0.707300	0.179800	0.920600
H421	H42	0.874000	0.202000	0.893900
H431	H43	0.789800	0.025200	0.916200
H441	H44	0.818000	0.055000	0.005100
H451	H45	0.806500	0.259400	0.889100
H461	H46	0.762000	0.246000	0.787800
H471	H47	0.806100	0.184500	0.723600
H481	H48	0.862400	0.252300	0.746100
H491	H49	0.852200	0.106800	0.764300
H501	H50	0.919800	0.177900	0.795600
H511	H51	0.892700	0.073100	0.874100
H521	H52	0.902800	0.130800	0.961800
Ga71	Ga7	0.759700	0.065970	0.213350
Ga81	Ga8	0.107040	0.349810	0.084580
Co51	Co5	0.573640	0.600690	0.453310
Cr51	Cr5	0.423900	0.440370	0.248750
P91	P9	0.430480	0.515900	0.452820
P101	P10	0.679710	0.673180	0.610450
O331	O33	0.456490	0.490340	0.370730
O341	O34	0.490890	0.579890	0.489730
O351	O35	0.407210	0.465370	0.539830
O361	O36	0.376980	0.527780	0.422630
O371	O37	0.622170	0.664140	0.544930
O381	O38	0.708040	0.741750	0.658330
O391	O39	0.731510	0.669690	0.550630
O401	O40	0.656070	0.623000	0.693330
N131	N13	0.391160	0.502220	0.202630
N141	N14	0.510110	0.509370	0.184430
N151	N15	0.478110	0.395590	0.274630
C171	C17	0.448470	0.562430	0.163730
C181	C18	0.493670	0.545330	0.113130
C191	C19	0.544370	0.475830	0.150230
C201	C20	0.545670	0.436030	0.237030
H531	H53	0.361670	0.483930	0.153530
H541	H54	0.373970	0.513130	0.253930
H551	H55	0.540670	0.535330	0.227230
H561	H56	0.456470	0.358530	0.249530
H571	H57	0.484670	0.388330	0.338430
H581	H58	0.473170	0.592730	0.222430
H591	H59	0.428670	0.579330	0.121130
H601	H60	0.472770	0.517830	0.056930
H611	H61	0.529070	0.585630	0.079430
H621	H62	0.518870	0.440130	0.097630
H631	H63	0.586470	0.511230	0.128930
H641	H64	0.559370	0.406430	0.207430
H651	H65	0.569470	0.464130	0.295130
Ga91	Ga9	0.426360	0.399310	0.546690
Ga101	Ga10	0.773710	0.683140	0.417910
Co61	Co6	0.240300	0.934030	0.786650
Cr61	Cr6	0.090560	0.773710	0.582090
P111	P11	0.097140	0.849240	0.786160
P121	P12	0.346370	0.006520	0.943790
O411	O41	0.123150	0.823680	0.704070
O421	O42	0.157550	0.913230	0.823070
O431	O43	0.073870	0.798710	0.873170
O441	O44	0.043640	0.861120	0.755970
O451	O45	0.288830	0.997480	0.878270
O461	O46	0.374700	0.075090	0.991670
O471	O47	0.398170	0.003030	0.883970
O481	O48	0.322730	0.956340	0.026670
N161	N16	0.057820	0.835560	0.535970
N171	N17	0.176770	0.842710	0.517770
N181	N18	0.144770	0.728930	0.607970
C211	C21	0.115130	0.895770	0.497070
C221	C22	0.160330	0.878670	0.446470
C231	C23	0.211030	0.809170	0.483570
C241	C24	0.212330	0.769370	0.570370
H661	H66	0.028330	0.817270	0.486870
H671	H67	0.040630	0.846470	0.587270
H681	H68	0.207330	0.868670	0.560570
H691	H69	0.123130	0.691870	0.582870
H701	H70	0.151330	0.721670	0.671770
H711	H71	0.139830	0.926070	0.555770
H721	H72	0.095330	0.912670	0.454470
H731	H73	0.139430	0.851170	0.390270
H741	H74	0.195730	0.918970	0.412770
H751	H75	0.185530	0.773470	0.430970
H761	H76	0.253130	0.844570	0.462270
H771	H77	0.226030	0.739770	0.540770
H781	H78	0.236130	0.797470	0.628470
Ga111	Ga11	0.093030	0.732640	0.880020
Ga121	Ga12	0.440370	0.016480	0.751250
Co71	Co7	0.732640	0.639610	0.119980
Cr71	Cr7	0.892960	0.650190	0.915420
P131	P13	0.817430	0.581240	0.119490
P141	P14	0.660150	0.673190	0.277120
O491	O49	0.842990	0.632810	0.037400
O501	O50	0.753440	0.577660	0.156400
O511	O51	0.867960	0.608500	0.206500
O521	O52	0.805550	0.515860	0.089300
O531	O53	0.669190	0.624690	0.211600
O541	O54	0.591580	0.632950	0.325000
O551	O55	0.663640	0.728480	0.217300
O561	O56	0.710330	0.699730	0.360000
N191	N19	0.831110	0.555600	0.869300
N201	N20	0.823960	0.667400	0.851100
N211	N21	0.937740	0.749180	0.941300
C251	C25	0.770900	0.552700	0.830400
C261	C26	0.788000	0.615000	0.779800
C271	C27	0.857500	0.735200	0.816900
C281	C28	0.897300	0.776300	0.903700
H791	H79	0.849400	0.544400	0.820200
H801	H80	0.820200	0.527500	0.920600
H811	H81	0.798000	0.672000	0.893900
H821	H82	0.974800	0.764600	0.916200
H831	H83	0.945000	0.763000	0.005100
H841	H84	0.740600	0.547100	0.889100
H851	H85	0.754000	0.516000	0.787800
H861	H86	0.815500	0.621600	0.723600
H871	H87	0.747700	0.610100	0.746100
H881	H88	0.893200	0.745400	0.764300
H891	H89	0.822100	0.741900	0.795600
H901	H90	0.926900	0.819600	0.874100
H911	H91	0.869200	0.772000	0.961800
Ga131	Ga13	0.934030	0.693720	0.213350
Ga141	Ga14	0.650190	0.757230	0.084580
Co81	Co8	0.399310	0.972940	0.453310
Cr81	Cr8	0.559630	0.983520	0.248750
P151	P15	0.484100	0.914570	0.452820
P161	P16	0.326820	0.006520	0.610450
O571	O57	0.509660	0.966140	0.370730
O581	O58	0.420110	0.910990	0.489730
O591	O59	0.534630	0.941830	0.539830
O601	O60	0.472220	0.849190	0.422630
O611	O61	0.335860	0.958020	0.544930
O621	O62	0.258250	0.966280	0.658330
O631	O63	0.330310	0.061810	0.550630
O641	O64	0.377000	0.033060	0.693330
N221	N22	0.497780	0.888930	0.202630
N231	N23	0.490630	0.000730	0.184430
N241	N24	0.604410	0.082510	0.274630
C291	C29	0.437570	0.886030	0.163730
C301	C30	0.454670	0.948330	0.113130
C311	C31	0.524170	0.068530	0.150230
C321	C32	0.563970	0.109630	0.237030
H921	H92	0.516070	0.877730	0.153530
H931	H93	0.486870	0.860830	0.253930
H941	H94	0.464670	0.005330	0.227230
H951	H95	0.641470	0.097930	0.249530
H961	H96	0.611670	0.096330	0.338430
H971	H97	0.407270	0.880430	0.222430
H981	H98	0.420670	0.849330	0.121130
H991	H99	0.482170	0.954930	0.056930
H1001	H100	0.414370	0.943430	0.079430
H1011	H101	0.559870	0.078730	0.097630
H1021	H102	0.488770	0.075230	0.128930
H1031	H103	0.593570	0.152930	0.207430
H1041	H104	0.535870	0.105330	0.295130
Ga151	Ga15	0.600690	0.027060	0.546690
Ga161	Ga16	0.316860	0.090560	0.417910
Co91	Co9	0.065970	0.306280	0.786650
Cr91	Cr9	0.226290	0.316860	0.582090
P171	P17	0.150760	0.247910	0.786160
P181	P18	0.993480	0.339860	0.943790
O651	O65	0.176320	0.299480	0.704070
O661	O66	0.086770	0.244330	0.823070
O671	O67	0.201290	0.275170	0.873170
O681	O68	0.138880	0.182530	0.755970
O691	O69	0.002520	0.291360	0.878270
O701	O70	0.924910	0.299620	0.991670
O711	O71	0.996970	0.395150	0.883970
O721	O72	0.043660	0.366400	0.026670
N251	N25	0.164440	0.222270	0.535970
N261	N26	0.157290	0.334070	0.517770
N271	N27	0.271070	0.415850	0.607970
C331	C33	0.104230	0.219370	0.497070
C341	C34	0.121330	0.281670	0.446470
C351	C35	0.190830	0.401870	0.483570
C361	C36	0.230630	0.442970	0.570370
H1051	H105	0.182730	0.211070	0.486870
H1061	H106	0.153530	0.194170	0.587270
H1071	H107	0.131330	0.338670	0.560570
H1081	H108	0.308130	0.431270	0.582870
H1091	H109	0.278330	0.429670	0.671770
H1101	H110	0.073930	0.213770	0.555770
H1111	H111	0.087330	0.182670	0.454470
H1121	H112	0.148830	0.288270	0.390270
H1131	H113	0.081030	0.276770	0.412770
H1141	H114	0.226530	0.412070	0.430970
H1151	H115	0.155430	0.408570	0.462270
H1161	H116	0.260230	0.486270	0.540770
H1171	H117	0.202530	0.438670	0.628470
Ga171	Ga17	0.267360	0.360390	0.880020
Ga181	Ga18	0.983520	0.423900	0.751250
P191	P19	0.581240	0.763810	0.880510
P201	P20	0.673190	0.013040	0.722880
O731	O73	0.632810	0.789820	0.962600
O741	O74	0.577660	0.824220	0.843600
O751	O75	0.608500	0.740540	0.793500
O761	O76	0.515860	0.710310	0.910700
O771	O77	0.624690	0.955500	0.788400
O781	O78	0.632950	0.041370	0.675000
O791	O79	0.728480	0.064840	0.782700
O801	O80	0.699730	0.989400	0.640000
N281	N28	0.555600	0.724490	0.130700
N291	N29	0.667400	0.843440	0.148900
N301	N30	0.749180	0.811440	0.058700
C371	C37	0.552700	0.781800	0.169600
C381	C38	0.615000	0.827000	0.220200
C391	C39	0.735200	0.877700	0.183100
C401	C40	0.776300	0.879000	0.096300
H1181	H118	0.544400	0.695000	0.179800
H1191	H119	0.527500	0.707300	0.079400
H1201	H120	0.672000	0.874000	0.106100
H1211	H121	0.764600	0.789800	0.083800
H1221	H122	0.763000	0.818000	0.994900
H1231	H123	0.547100	0.806500	0.110900
H1241	H124	0.516000	0.762000	0.212200
H1251	H125	0.621600	0.806100	0.276400
H1261	H126	0.610100	0.862400	0.253900
H1271	H127	0.745400	0.852200	0.235700
H1281	H128	0.741900	0.919800	0.204400
H1291	H129	0.819600	0.892700	0.125900
H1301	H130	0.772000	0.902800	0.038200
P211	P21	0.247910	0.097140	0.213840
P221	P22	0.339860	0.346370	0.056210
O811	O81	0.299480	0.123150	0.295930
O821	O82	0.244330	0.157550	0.176930
O831	O83	0.275170	0.073870	0.126830
O841	O84	0.182530	0.043640	0.244030
O851	O85	0.291360	0.288830	0.121730
O861	O86	0.299620	0.374700	0.008330
O871	O87	0.395150	0.398170	0.116030
O881	O88	0.366400	0.322730	0.973330
N311	N31	0.222270	0.057820	0.464030
N321	N32	0.334070	0.176770	0.482230
N331	N33	0.415850	0.144770	0.392030
C411	C41	0.219370	0.115130	0.502930
C421	C42	0.281670	0.160330	0.553530
C431	C43	0.401870	0.211030	0.516430
C441	C44	0.442970	0.212330	0.429630
H1311	H131	0.211070	0.028330	0.513130
H1321	H132	0.194170	0.040630	0.412730
H1331	H133	0.338670	0.207330	0.439430
H1341	H134	0.431270	0.123130	0.417130
H1351	H135	0.429670	0.151330	0.328230
H1361	H136	0.213770	0.139830	0.444230
H1371	H137	0.182670	0.095330	0.545530
H1381	H138	0.288270	0.139430	0.609730
H1391	H139	0.276770	0.195730	0.587230
H1401	H140	0.412070	0.185530	0.569030
H1411	H141	0.408570	0.253130	0.537730
H1421	H142	0.486270	0.226030	0.459230
H1431	H143	0.438670	0.236130	0.371530
P231	P23	0.914570	0.430480	0.547180
P241	P24	0.006520	0.679710	0.389550
O891	O89	0.966140	0.456490	0.629270
O901	O90	0.910990	0.490890	0.510270
O911	O91	0.941830	0.407210	0.460170
O921	O92	0.849190	0.376980	0.577370
O931	O93	0.958020	0.622170	0.455070
O941	O94	0.966280	0.708040	0.341670
O951	O95	0.061810	0.731510	0.449370
O961	O96	0.033060	0.656070	0.306670
N341	N34	0.888930	0.391160	0.797370
N351	N35	0.000730	0.510110	0.815570
N361	N36	0.082510	0.478110	0.725370
C451	C45	0.886030	0.448470	0.836270
C461	C46	0.948330	0.493670	0.886870
C471	C47	0.068530	0.544370	0.849770
C481	C48	0.109630	0.545670	0.762970
H1441	H144	0.877730	0.361670	0.846470
H1451	H145	0.860830	0.373970	0.746070
H1461	H146	0.005330	0.540670	0.772770
H1471	H147	0.097930	0.456470	0.750470
H1481	H148	0.096330	0.484670	0.661570
H1491	H149	0.880430	0.473170	0.777570
H1501	H150	0.849330	0.428670	0.878870
H1511	H151	0.954930	0.472770	0.943070
H1521	H152	0.943430	0.529070	0.920570
H1531	H153	0.078730	0.518870	0.902370
H1541	H154	0.075230	0.586470	0.871070
H1551	H155	0.152930	0.559370	0.792570
H1561	H156	0.105330	0.569470	0.704870
P251	P25	0.236190	0.817430	0.880510
P261	P26	0.986960	0.660150	0.722880
O971	O97	0.210180	0.842990	0.962600
O981	O98	0.175780	0.753440	0.843600
O991	O99	0.259460	0.867960	0.793500
O1001	O100	0.289690	0.805550	0.910700
O1011	O101	0.044500	0.669190	0.788400
O1021	O102	0.958630	0.591580	0.675000
O1031	O103	0.935160	0.663640	0.782700
O1041	O104	0.010600	0.710330	0.640000
N371	N37	0.275510	0.831110	0.130700
N381	N38	0.156560	0.823960	0.148900
N391	N39	0.188560	0.937740	0.058700
C491	C49	0.218200	0.770900	0.169600
C501	C50	0.173000	0.788000	0.220200
C511	C51	0.122300	0.857500	0.183100
C521	C52	0.121000	0.897300	0.096300
H1571	H157	0.305000	0.849400	0.179800
H1581	H158	0.292700	0.820200	0.079400
H1591	H159	0.126000	0.798000	0.106100
H1601	H160	0.210200	0.974800	0.083800
H1611	H161	0.182000	0.945000	0.994900
H1621	H162	0.193500	0.740600	0.110900
H1631	H163	0.238000	0.754000	0.212200
H1641	H164	0.193900	0.815500	0.276400
H1651	H165	0.137600	0.747700	0.253900
H1661	H166	0.147800	0.893200	0.235700
H1671	H167	0.080200	0.822100	0.204400
H1681	H168	0.107300	0.926900	0.125900
H1691	H169	0.097200	0.869200	0.038200
P271	P27	0.902860	0.150760	0.213840
P281	P28	0.653630	0.993480	0.056210
O1051	O105	0.876850	0.176320	0.295930
O1061	O106	0.842450	0.086770	0.176930
O1071	O107	0.926130	0.201290	0.126830
O1081	O108	0.956360	0.138880	0.244030
O1091	O109	0.711170	0.002520	0.121730
O1101	O110	0.625300	0.924910	0.008330
O1111	O111	0.601830	0.996970	0.116030
O1121	O112	0.677270	0.043660	0.973330
N401	N40	0.942180	0.164440	0.464030
N411	N41	0.823230	0.157290	0.482230
N421	N42	0.855230	0.271070	0.392030
C531	C53	0.884870	0.104230	0.502930
C541	C54	0.839670	0.121330	0.553530
C551	C55	0.788970	0.190830	0.516430
C561	C56	0.787670	0.230630	0.429630
H1701	H170	0.971670	0.182730	0.513130
H1711	H171	0.959370	0.153530	0.412730
H1721	H172	0.792670	0.131330	0.439430
H1731	H173	0.876870	0.308130	0.417130
H1741	H174	0.848670	0.278330	0.328230
H1751	H175	0.860170	0.073930	0.444230
H1761	H176	0.904670	0.087330	0.545530
H1771	H177	0.860570	0.148830	0.609730
H1781	H178	0.804270	0.081030	0.587230
H1791	H179	0.814470	0.226530	0.569030
H1801	H180	0.746870	0.155430	0.537730
H1811	H181	0.773970	0.260230	0.459230
H1821	H182	0.763870	0.202530	0.371530
P291	P29	0.569520	0.484100	0.547180
P301	P30	0.320290	0.326820	0.389550
O1131	O113	0.543510	0.509660	0.629270
O1141	O114	0.509110	0.420110	0.510270
O1151	O115	0.592790	0.534630	0.460170
O1161	O116	0.623020	0.472220	0.577370
O1171	O117	0.377830	0.335860	0.455070
O1181	O118	0.291960	0.258250	0.341670
O1191	O119	0.268490	0.330310	0.449370
O1201	O120	0.343930	0.377000	0.306670
N431	N43	0.608840	0.497780	0.797370
N441	N44	0.489890	0.490630	0.815570
N451	N45	0.521890	0.604410	0.725370
C571	C57	0.551530	0.437570	0.836270
C581	C58	0.506330	0.454670	0.886870
C591	C59	0.455630	0.524170	0.849770
C601	C60	0.454330	0.563970	0.762970
H1831	H183	0.638330	0.516070	0.846470
H1841	H184	0.626030	0.486870	0.746070
H1851	H185	0.459330	0.464670	0.772770
H1861	H186	0.543530	0.641470	0.750470
H1871	H187	0.515330	0.611670	0.661570
H1881	H188	0.526830	0.407270	0.777570
H1891	H189	0.571330	0.420670	0.878870
H1901	H190	0.527230	0.482170	0.943070
H1911	H191	0.470930	0.414370	0.920570
H1921	H192	0.481130	0.559870	0.902370
H1931	H193	0.413530	0.488770	0.871070
H1941	H194	0.440630	0.593570	0.792570
H1951	H195	0.430530	0.535870	0.704870
P311	P31	0.182570	0.418760	0.880510
P321	P32	0.339850	0.326810	0.722880
O1211	O121	0.157010	0.367190	0.962600
O1221	O122	0.246560	0.422340	0.843600
O1231	O123	0.132040	0.391500	0.793500
O1241	O124	0.194450	0.484140	0.910700
O1251	O125	0.330810	0.375310	0.788400
O1261	O126	0.408420	0.367050	0.675000
O1271	O127	0.336360	0.271520	0.782700
O1281	O128	0.289670	0.300270	0.640000
N461	N46	0.168890	0.444400	0.130700
N471	N47	0.176040	0.332600	0.148900
N481	N48	0.062260	0.250820	0.058700
C611	C61	0.229100	0.447300	0.169600
C621	C62	0.212000	0.385000	0.220200
C631	C63	0.142500	0.264800	0.183100
C641	C64	0.102700	0.223700	0.096300
H1961	H196	0.150600	0.455600	0.179800
H1971	H197	0.179800	0.472500	0.079400
H1981	H198	0.202000	0.328000	0.106100
H1991	H199	0.025200	0.235400	0.083800
H2001	H200	0.055000	0.237000	0.994900
H2011	H201	0.259400	0.452900	0.110900
H2021	H202	0.246000	0.484000	0.212200
H2031	H203	0.184500	0.378400	0.276400
H2041	H204	0.252300	0.389900	0.253900
H2051	H205	0.106800	0.254600	0.235700
H2061	H206	0.177900	0.258100	0.204400
H2071	H207	0.073100	0.180400	0.125900
H2081	H208	0.130800	0.228000	0.038200
P331	P33	0.849240	0.752090	0.213840
P341	P34	0.006520	0.660140	0.056210
O1291	O129	0.823680	0.700520	0.295930
O1301	O130	0.913230	0.755670	0.176930
O1311	O131	0.798710	0.724830	0.126830
O1321	O132	0.861120	0.817470	0.244030
O1331	O133	0.997480	0.708640	0.121730
O1341	O134	0.075090	0.700380	0.008330
O1351	O135	0.003030	0.604850	0.116030
O1361	O136	0.956340	0.633600	0.973330
N491	N49	0.835560	0.777730	0.464030
N501	N50	0.842710	0.665930	0.482230
N511	N51	0.728930	0.584150	0.392030
C651	C65	0.895770	0.780630	0.502930
C661	C66	0.878670	0.718330	0.553530
C671	C67	0.809170	0.598130	0.516430
C681	C68	0.769370	0.557030	0.429630
H2091	H209	0.817270	0.788930	0.513130
H2101	H210	0.846470	0.805830	0.412730
H2111	H211	0.868670	0.661330	0.439430
H2121	H212	0.691870	0.568730	0.417130
H2131	H213	0.721670	0.570330	0.328230
H2141	H214	0.926070	0.786230	0.444230
H2151	H215	0.912670	0.817330	0.545530
H2161	H216	0.851170	0.711730	0.609730
H2171	H217	0.918970	0.723230	0.587230
H2181	H218	0.773470	0.587930	0.569030
H2191	H219	0.844570	0.591430	0.537730
H2201	H220	0.739770	0.513730	0.459230
H2211	H221	0.797470	0.561330	0.371530
P351	P35	0.515900	0.085430	0.547180
P361	P36	0.673180	0.993480	0.389550
O1371	O137	0.490340	0.033860	0.629270
O1381	O138	0.579890	0.089010	0.510270
O1391	O139	0.465370	0.058170	0.460170
O1401	O140	0.527780	0.150810	0.577370
O1411	O141	0.664140	0.041980	0.455070
O1421	O142	0.741750	0.033720	0.341670
O1431	O143	0.669690	0.938190	0.449370
O1441	O144	0.623000	0.966940	0.306670
N521	N52	0.502220	0.111070	0.797370
N531	N53	0.509370	0.999270	0.815570
N541	N54	0.395590	0.917490	0.725370
C691	C69	0.562430	0.113970	0.836270
C701	C70	0.545330	0.051670	0.886870
C711	C71	0.475830	0.931470	0.849770
C721	C72	0.436030	0.890370	0.762970
H2221	H222	0.483930	0.122270	0.846470
H2231	H223	0.513130	0.139170	0.746070
H2241	H224	0.535330	0.994670	0.772770
H2251	H225	0.358530	0.902070	0.750470
H2261	H226	0.388330	0.903670	0.661570
H2271	H227	0.592730	0.119570	0.777570
H2281	H228	0.579330	0.150670	0.878870
H2291	H229	0.517830	0.045070	0.943070
H2301	H230	0.585630	0.056570	0.920570
H2311	H231	0.440130	0.921270	0.902370
H2321	H232	0.511230	0.924770	0.871070
H2331	H233	0.406430	0.847070	0.792570
H2341	H234	0.464130	0.894670	0.704870
