data_HEGPAL_clean_PM
_symmetry_space_group_name_H-M	'P1'
_cell_length_a	23.740000
_cell_length_b	23.740000
_cell_length_c	13.485100
_cell_angle_alpha	90.000000
_cell_angle_beta	90.000000
_cell_angle_gamma	120.000000
_symmetry_Int_Tables_number 1

loop_
_symmetry_equiv_pos_as_xyz
'x,y,z'

loop_
_atom_site_label
_atom_site_type_symbol
_atom_site_fract_x
_atom_site_fract_y
_atom_site_fract_z
Co11	Co1	0.360390	0.093080	0.119980
Ga11	Ga1	0.349720	0.242830	0.915440
P11	P1	0.418760	0.236210	0.119500
P21	P2	0.326800	0.986970	0.277250
O11	O1	0.367130	0.210280	0.037780
O21	O2	0.422240	0.175690	0.156280
O31	O3	0.391440	0.259110	0.206800
O41	O4	0.484010	0.289680	0.089200
O51	O5	0.375230	0.044690	0.212100
O61	O6	0.367090	0.958820	0.325260
O71	O7	0.271610	0.935290	0.217660
O81	O8	0.300320	0.010650	0.360390
N11	N1	0.444360	0.275770	0.869300
N21	N2	0.332400	0.156630	0.851300
N31	N3	0.250990	0.188880	0.941200
C11	C1	0.447300	0.218600	0.831100
C21	C2	0.384900	0.173000	0.779700
C31	C3	0.265000	0.123000	0.816800
C41	C4	0.223700	0.121400	0.902900
H11	H1	0.451100	0.298600	0.813300
H21	H2	0.473400	0.290800	0.921700
H31	H3	0.332800	0.127300	0.895500
H41	H4	0.246100	0.191000	0.007700
H51	H5	0.229900	0.203400	0.908300
H61	H6	0.453700	0.193300	0.890500
H71	H7	0.473200	0.234900	0.785800
H81	H8	0.382800	0.198600	0.724300
H91	H9	0.377500	0.128600	0.756300
H101	H10	0.260800	0.147800	0.757200
H111	H11	0.247300	0.077200	0.804500
H121	H12	0.230700	0.100100	0.957000
H131	H13	0.175800	0.100100	0.867900
Ga21	Ga2	0.306280	0.240250	0.213350
Co21	Co2	0.027060	0.426410	0.453310
Ga31	Ga3	0.016390	0.576160	0.248770
P31	P3	0.085430	0.569540	0.452830
P41	P4	0.993470	0.320300	0.610580
O91	O9	0.033800	0.543610	0.371110
O101	O10	0.088910	0.509020	0.489610
O111	O11	0.058110	0.592440	0.540130
O121	O12	0.150680	0.623010	0.422530
O131	O13	0.041900	0.378020	0.545430
O141	O14	0.033760	0.292150	0.658590
O151	O15	0.938280	0.268620	0.550990
O161	O16	0.966990	0.343980	0.693720
N41	N4	0.111030	0.609100	0.202630
N51	N5	0.999070	0.489960	0.184630
N61	N6	0.917660	0.522210	0.274530
C51	C5	0.113970	0.551930	0.164430
C61	C6	0.051570	0.506330	0.113030
C71	C7	0.931670	0.456330	0.150130
C81	C8	0.890370	0.454730	0.236230
H141	H14	0.117770	0.631930	0.146630
H151	H15	0.140070	0.624130	0.255030
H161	H16	0.999470	0.460630	0.228830
H171	H17	0.912770	0.524330	0.341030
H181	H18	0.896570	0.536730	0.241630
H191	H19	0.120370	0.526630	0.223830
H201	H20	0.139870	0.568230	0.119130
H211	H21	0.049470	0.531930	0.057630
H221	H22	0.044170	0.461930	0.089630
H231	H23	0.927470	0.481130	0.090530
H241	H24	0.913970	0.410530	0.137830
H251	H25	0.897370	0.433430	0.290330
H261	H26	0.842470	0.433430	0.201230
Ga41	Ga4	0.972940	0.573590	0.546690
Co31	Co3	0.693720	0.759750	0.786650
Ga51	Ga5	0.683050	0.909500	0.582110
P51	P5	0.752090	0.902880	0.786170
P61	P6	0.660130	0.653640	0.943920
O171	O17	0.700460	0.876950	0.704450
O181	O18	0.755570	0.842360	0.822950
O191	O19	0.724770	0.925780	0.873470
O201	O20	0.817340	0.956350	0.755870
O211	O21	0.708560	0.711360	0.878770
O221	O22	0.700420	0.625490	0.991930
O231	O23	0.604940	0.601960	0.884330
O241	O24	0.633650	0.677320	0.027060
N71	N7	0.777690	0.942440	0.535970
N81	N8	0.665730	0.823300	0.517970
N91	N9	0.584320	0.855550	0.607870
C91	C9	0.780630	0.885270	0.497770
C101	C10	0.718230	0.839670	0.446370
C111	C11	0.598330	0.789670	0.483470
C121	C12	0.557030	0.788070	0.569570
H271	H27	0.784430	0.965270	0.479970
H281	H28	0.806730	0.957470	0.588370
H291	H29	0.666130	0.793970	0.562170
H301	H30	0.579430	0.857670	0.674370
H311	H31	0.563230	0.870070	0.574970
H321	H32	0.787030	0.859970	0.557170
H331	H33	0.806530	0.901570	0.452470
H341	H34	0.716130	0.865270	0.390970
H351	H35	0.710830	0.795270	0.422970
H361	H36	0.594130	0.814470	0.423870
H371	H37	0.580630	0.743870	0.471170
H381	H38	0.564030	0.766770	0.623670
H391	H39	0.509130	0.766770	0.534570
Ga61	Ga6	0.639610	0.906920	0.880020
Co41	Co4	0.906920	0.267310	0.119980
Ga71	Ga7	0.757170	0.106890	0.915440
P71	P7	0.763790	0.182550	0.119500
P81	P8	0.013030	0.339830	0.277250
O251	O25	0.789720	0.156850	0.037780
O261	O26	0.824310	0.246550	0.156280
O271	O27	0.740890	0.132330	0.206800
O281	O28	0.710320	0.194330	0.089200
O291	O29	0.955310	0.330540	0.212100
O301	O30	0.041180	0.408270	0.325260
O311	O31	0.064710	0.336320	0.217660
O321	O32	0.989350	0.289670	0.360390
N101	N10	0.724230	0.168590	0.869300
N111	N11	0.843370	0.175770	0.851300
N121	N12	0.811120	0.062110	0.941200
C131	C13	0.781400	0.228700	0.831100
C141	C14	0.827000	0.211900	0.779700
C151	C15	0.877000	0.142000	0.816800
C161	C16	0.878600	0.102300	0.902900
H401	H40	0.701400	0.152500	0.813300
H411	H41	0.709200	0.182600	0.921700
H421	H42	0.872700	0.205500	0.895500
H431	H43	0.809000	0.055100	0.007700
H441	H44	0.796600	0.026500	0.908300
H451	H45	0.806700	0.260400	0.890500
H461	H46	0.765100	0.238300	0.785800
H471	H47	0.801400	0.184200	0.724300
H481	H48	0.871400	0.248900	0.756300
H491	H49	0.852200	0.113000	0.757200
H501	H50	0.922800	0.170100	0.804500
H511	H51	0.899900	0.130600	0.957000
H521	H52	0.899900	0.075700	0.867900
Ga81	Ga8	0.759750	0.066020	0.213350
Co51	Co5	0.573590	0.600640	0.453310
Ga91	Ga9	0.423840	0.440220	0.248770
P91	P9	0.430460	0.515880	0.452830
P101	P10	0.679700	0.673160	0.610580
O331	O33	0.456390	0.490180	0.371110
O341	O34	0.490980	0.579880	0.489610
O351	O35	0.407560	0.465660	0.540130
O361	O36	0.376990	0.527660	0.422530
O371	O37	0.621980	0.663870	0.545430
O381	O38	0.707850	0.741600	0.658590
O391	O39	0.731380	0.669650	0.550990
O401	O40	0.656020	0.623000	0.693720
N131	N13	0.390900	0.501920	0.202630
N141	N14	0.510040	0.509100	0.184630
N151	N15	0.477790	0.395440	0.274530
C171	C17	0.448070	0.562030	0.164430
C181	C18	0.493670	0.545230	0.113030
C191	C19	0.543670	0.475330	0.150130
C201	C20	0.545270	0.435630	0.236230
H531	H53	0.368070	0.485830	0.146630
H541	H54	0.375870	0.515930	0.255030
H551	H55	0.539370	0.538830	0.228830
H561	H56	0.475670	0.388430	0.341030
H571	H57	0.463270	0.359830	0.241630
H581	H58	0.473370	0.593730	0.223830
H591	H59	0.431770	0.571630	0.119130
H601	H60	0.468070	0.517530	0.057630
H611	H61	0.538070	0.582230	0.089630
H621	H62	0.518870	0.446330	0.090530
H631	H63	0.589470	0.503430	0.137830
H641	H64	0.566570	0.463930	0.290330
H651	H65	0.566570	0.409030	0.201230
Ga101	Ga10	0.426410	0.399360	0.546690
Co61	Co6	0.240250	0.933980	0.786650
Ga111	Ga11	0.090500	0.773560	0.582110
P111	P11	0.097120	0.849220	0.786170
P121	P12	0.346360	0.006500	0.943920
O411	O41	0.123050	0.823520	0.704450
O421	O42	0.157640	0.913220	0.822950
O431	O43	0.074220	0.799000	0.873470
O441	O44	0.043650	0.861000	0.755870
O451	O45	0.288640	0.997210	0.878770
O461	O46	0.374510	0.074940	0.991930
O471	O47	0.398040	0.002990	0.884330
O481	O48	0.322680	0.956340	0.027060
N161	N16	0.057560	0.835260	0.535970
N171	N17	0.176700	0.842440	0.517970
N181	N18	0.144450	0.728780	0.607870
C211	C21	0.114730	0.895370	0.497770
C221	C22	0.160330	0.878570	0.446370
C231	C23	0.210330	0.808670	0.483470
C241	C24	0.211930	0.768970	0.569570
H661	H66	0.034730	0.819170	0.479970
H671	H67	0.042530	0.849270	0.588370
H681	H68	0.206030	0.872170	0.562170
H691	H69	0.142330	0.721770	0.674370
H701	H70	0.129930	0.693170	0.574970
H711	H71	0.140030	0.927070	0.557170
H721	H72	0.098430	0.904970	0.452470
H731	H73	0.134730	0.850870	0.390970
H741	H74	0.204730	0.915570	0.422970
H751	H75	0.185530	0.779670	0.423870
H761	H76	0.256130	0.836770	0.471170
H771	H77	0.233230	0.797270	0.623670
H781	H78	0.233230	0.742370	0.534570
Ga121	Ga12	0.093080	0.732690	0.880020
Co71	Co7	0.732690	0.639610	0.119980
Ga131	Ga13	0.893110	0.650280	0.915440
P131	P13	0.817450	0.581240	0.119500
P141	P14	0.660170	0.673200	0.277250
O491	O49	0.843150	0.632870	0.037780
O501	O50	0.753450	0.577760	0.156280
O511	O51	0.867670	0.608560	0.206800
O521	O52	0.805670	0.515990	0.089200
O531	O53	0.669460	0.624770	0.212100
O541	O54	0.591730	0.632910	0.325260
O551	O55	0.663680	0.728390	0.217660
O561	O56	0.710330	0.699680	0.360390
N191	N19	0.831410	0.555640	0.869300
N201	N20	0.824230	0.667600	0.851300
N211	N21	0.937890	0.749010	0.941200
C251	C25	0.771300	0.552700	0.831100
C261	C26	0.788100	0.615100	0.779700
C271	C27	0.858000	0.735000	0.816800
C281	C28	0.897700	0.776300	0.902900
H791	H79	0.847500	0.548900	0.813300
H801	H80	0.817400	0.526600	0.921700
H811	H81	0.794500	0.667200	0.895500
H821	H82	0.944900	0.753900	0.007700
H831	H83	0.973500	0.770100	0.908300
H841	H84	0.739600	0.546300	0.890500
H851	H85	0.761700	0.526800	0.785800
H861	H86	0.815800	0.617200	0.724300
H871	H87	0.751100	0.622500	0.756300
H881	H88	0.887000	0.739200	0.757200
H891	H89	0.829900	0.752700	0.804500
H901	H90	0.869400	0.769300	0.957000
H911	H91	0.924300	0.824200	0.867900
Ga141	Ga14	0.933980	0.693720	0.213350
Co81	Co8	0.399360	0.972940	0.453310
Ga151	Ga15	0.559780	0.983610	0.248770
P151	P15	0.484120	0.914570	0.452830
P161	P16	0.326840	0.006530	0.610580
O571	O57	0.509820	0.966200	0.371110
O581	O58	0.420120	0.911090	0.489610
O591	O59	0.534340	0.941890	0.540130
O601	O60	0.472340	0.849320	0.422530
O611	O61	0.336130	0.958100	0.545430
O621	O62	0.258400	0.966240	0.658590
O631	O63	0.330350	0.061720	0.550990
O641	O64	0.377000	0.033010	0.693720
N221	N22	0.498080	0.888970	0.202630
N231	N23	0.490900	0.000930	0.184630
N241	N24	0.604560	0.082340	0.274530
C291	C29	0.437970	0.886030	0.164430
C301	C30	0.454770	0.948430	0.113030
C311	C31	0.524670	0.068330	0.150130
C321	C32	0.564370	0.109630	0.236230
H921	H92	0.514170	0.882230	0.146630
H931	H93	0.484070	0.859930	0.255030
H941	H94	0.461170	0.000530	0.228830
H951	H95	0.611570	0.087230	0.341030
H961	H96	0.640170	0.103430	0.241630
H971	H97	0.406270	0.879630	0.223830
H981	H98	0.428370	0.860130	0.119130
H991	H99	0.482470	0.950530	0.057630
H1001	H100	0.417770	0.955830	0.089630
H1011	H101	0.553670	0.072530	0.090530
H1021	H102	0.496570	0.086030	0.137830
H1031	H103	0.536070	0.102630	0.290330
H1041	H104	0.590970	0.157530	0.201230
Ga161	Ga16	0.600640	0.027060	0.546690
Co91	Co9	0.066020	0.306280	0.786650
Ga171	Ga17	0.226440	0.316950	0.582110
P171	P17	0.150780	0.247910	0.786170
P181	P18	0.993500	0.339870	0.943920
O651	O65	0.176480	0.299540	0.704450
O661	O66	0.086780	0.244430	0.822950
O671	O67	0.201000	0.275230	0.873470
O681	O68	0.139000	0.182660	0.755870
O691	O69	0.002790	0.291440	0.878770
O701	O70	0.925060	0.299580	0.991930
O711	O71	0.997010	0.395060	0.884330
O721	O72	0.043660	0.366350	0.027060
N251	N25	0.164740	0.222310	0.535970
N261	N26	0.157560	0.334270	0.517970
N271	N27	0.271220	0.415680	0.607870
C331	C33	0.104630	0.219370	0.497770
C341	C34	0.121430	0.281770	0.446370
C351	C35	0.191330	0.401670	0.483470
C361	C36	0.231030	0.442970	0.569570
H1051	H105	0.180830	0.215570	0.479970
H1061	H106	0.150730	0.193270	0.588370
H1071	H107	0.127830	0.333870	0.562170
H1081	H108	0.278230	0.420570	0.674370
H1091	H109	0.306830	0.436770	0.574970
H1101	H110	0.072930	0.212970	0.557170
H1111	H111	0.095030	0.193470	0.452470
H1121	H112	0.149130	0.283870	0.390970
H1131	H113	0.084430	0.289170	0.422970
H1141	H114	0.220330	0.405870	0.423870
H1151	H115	0.163230	0.419370	0.471170
H1161	H116	0.202730	0.435970	0.623670
H1171	H117	0.257630	0.490870	0.534570
Ga181	Ga18	0.267310	0.360390	0.880020
Ga191	Ga19	0.650280	0.757170	0.084560
P191	P19	0.581240	0.763790	0.880500
P201	P20	0.673200	0.013030	0.722750
O731	O73	0.632870	0.789720	0.962220
O741	O74	0.577760	0.824310	0.843720
O751	O75	0.608560	0.740890	0.793200
O761	O76	0.515990	0.710320	0.910800
O771	O77	0.624770	0.955310	0.787900
O781	O78	0.632910	0.041180	0.674740
O791	O79	0.728390	0.064710	0.782340
O801	O80	0.699680	0.989350	0.639610
N281	N28	0.555640	0.724230	0.130700
N291	N29	0.667600	0.843370	0.148700
N301	N30	0.749010	0.811120	0.058800
C371	C37	0.552700	0.781400	0.168900
C381	C38	0.615100	0.827000	0.220300
C391	C39	0.735000	0.877000	0.183200
C401	C40	0.776300	0.878600	0.097100
H1181	H118	0.548900	0.701400	0.186700
H1191	H119	0.526600	0.709200	0.078300
H1201	H120	0.667200	0.872700	0.104500
H1211	H121	0.753900	0.809000	0.992300
H1221	H122	0.770100	0.796600	0.091700
H1231	H123	0.546300	0.806700	0.109500
H1241	H124	0.526800	0.765100	0.214200
H1251	H125	0.617200	0.801400	0.275700
H1261	H126	0.622500	0.871400	0.243700
H1271	H127	0.739200	0.852200	0.242800
H1281	H128	0.752700	0.922800	0.195500
H1291	H129	0.769300	0.899900	0.043000
H1301	H130	0.824200	0.899900	0.132100
Ga201	Ga20	0.316950	0.090500	0.417890
P211	P21	0.247910	0.097120	0.213830
P221	P22	0.339870	0.346360	0.056080
O811	O81	0.299540	0.123050	0.295550
O821	O82	0.244430	0.157640	0.177050
O831	O83	0.275230	0.074220	0.126530
O841	O84	0.182660	0.043650	0.244130
O851	O85	0.291440	0.288640	0.121230
O861	O86	0.299580	0.374510	0.008070
O871	O87	0.395060	0.398040	0.115670
O881	O88	0.366350	0.322680	0.972940
N311	N31	0.222310	0.057560	0.464030
N321	N32	0.334270	0.176700	0.482030
N331	N33	0.415680	0.144450	0.392130
C411	C41	0.219370	0.114730	0.502230
C421	C42	0.281770	0.160330	0.553630
C431	C43	0.401670	0.210330	0.516530
C441	C44	0.442970	0.211930	0.430430
H1311	H131	0.215570	0.034730	0.520030
H1321	H132	0.193270	0.042530	0.411630
H1331	H133	0.333870	0.206030	0.437830
H1341	H134	0.420570	0.142330	0.325630
H1351	H135	0.436770	0.129930	0.425030
H1361	H136	0.212970	0.140030	0.442830
H1371	H137	0.193470	0.098430	0.547530
H1381	H138	0.283870	0.134730	0.609030
H1391	H139	0.289170	0.204730	0.577030
H1401	H140	0.405870	0.185530	0.576130
H1411	H141	0.419370	0.256130	0.528830
H1421	H142	0.435970	0.233230	0.376330
H1431	H143	0.490870	0.233230	0.465430
Ga211	Ga21	0.983610	0.423840	0.751230
P231	P23	0.914570	0.430460	0.547170
P241	P24	0.006530	0.679700	0.389420
O891	O89	0.966200	0.456390	0.628890
O901	O90	0.911090	0.490980	0.510390
O911	O91	0.941890	0.407560	0.459870
O921	O92	0.849320	0.376990	0.577470
O931	O93	0.958100	0.621980	0.454570
O941	O94	0.966240	0.707850	0.341410
O951	O95	0.061720	0.731380	0.449010
O961	O96	0.033010	0.656020	0.306280
N341	N34	0.888970	0.390900	0.797370
N351	N35	0.000930	0.510040	0.815370
N361	N36	0.082340	0.477790	0.725470
C451	C45	0.886030	0.448070	0.835570
C461	C46	0.948430	0.493670	0.886970
C471	C47	0.068330	0.543670	0.849870
C481	C48	0.109630	0.545270	0.763770
H1441	H144	0.882230	0.368070	0.853370
H1451	H145	0.859930	0.375870	0.744970
H1461	H146	0.000530	0.539370	0.771170
H1471	H147	0.087230	0.475670	0.658970
H1481	H148	0.103430	0.463270	0.758370
H1491	H149	0.879630	0.473370	0.776170
H1501	H150	0.860130	0.431770	0.880870
H1511	H151	0.950530	0.468070	0.942370
H1521	H152	0.955830	0.538070	0.910370
H1531	H153	0.072530	0.518870	0.909470
H1541	H154	0.086030	0.589470	0.862170
H1551	H155	0.102630	0.566570	0.709670
H1561	H156	0.157530	0.566570	0.798770
Ga221	Ga22	0.242830	0.893110	0.084560
P251	P25	0.236210	0.817450	0.880500
P261	P26	0.986970	0.660170	0.722750
O971	O97	0.210280	0.843150	0.962220
O981	O98	0.175690	0.753450	0.843720
O991	O99	0.259110	0.867670	0.793200
O1001	O100	0.289680	0.805670	0.910800
O1011	O101	0.044690	0.669460	0.787900
O1021	O102	0.958820	0.591730	0.674740
O1031	O103	0.935290	0.663680	0.782340
O1041	O104	0.010650	0.710330	0.639610
N371	N37	0.275770	0.831410	0.130700
N381	N38	0.156630	0.824230	0.148700
N391	N39	0.188880	0.937890	0.058800
C491	C49	0.218600	0.771300	0.168900
C501	C50	0.173000	0.788100	0.220300
C511	C51	0.123000	0.858000	0.183200
C521	C52	0.121400	0.897700	0.097100
H1571	H157	0.298600	0.847500	0.186700
H1581	H158	0.290800	0.817400	0.078300
H1591	H159	0.127300	0.794500	0.104500
H1601	H160	0.191000	0.944900	0.992300
H1611	H161	0.203400	0.973500	0.091700
H1621	H162	0.193300	0.739600	0.109500
H1631	H163	0.234900	0.761700	0.214200
H1641	H164	0.198600	0.815800	0.275700
H1651	H165	0.128600	0.751100	0.243700
H1661	H166	0.147800	0.887000	0.242800
H1671	H167	0.077200	0.829900	0.195500
H1681	H168	0.100100	0.869400	0.043000
H1691	H169	0.100100	0.924300	0.132100
Ga231	Ga23	0.909500	0.226440	0.417890
P271	P27	0.902880	0.150780	0.213830
P281	P28	0.653640	0.993500	0.056080
O1051	O105	0.876950	0.176480	0.295550
O1061	O106	0.842360	0.086780	0.177050
O1071	O107	0.925780	0.201000	0.126530
O1081	O108	0.956350	0.139000	0.244130
O1091	O109	0.711360	0.002790	0.121230
O1101	O110	0.625490	0.925060	0.008070
O1111	O111	0.601960	0.997010	0.115670
O1121	O112	0.677320	0.043660	0.972940
N401	N40	0.942440	0.164740	0.464030
N411	N41	0.823300	0.157560	0.482030
N421	N42	0.855550	0.271220	0.392130
C531	C53	0.885270	0.104630	0.502230
C541	C54	0.839670	0.121430	0.553630
C551	C55	0.789670	0.191330	0.516530
C561	C56	0.788070	0.231030	0.430430
H1701	H170	0.965270	0.180830	0.520030
H1711	H171	0.957470	0.150730	0.411630
H1721	H172	0.793970	0.127830	0.437830
H1731	H173	0.857670	0.278230	0.325630
H1741	H174	0.870070	0.306830	0.425030
H1751	H175	0.859970	0.072930	0.442830
H1761	H176	0.901570	0.095030	0.547530
H1771	H177	0.865270	0.149130	0.609030
H1781	H178	0.795270	0.084430	0.577030
H1791	H179	0.814470	0.220330	0.576130
H1801	H180	0.743870	0.163230	0.528830
H1811	H181	0.766770	0.202730	0.376330
H1821	H182	0.766770	0.257630	0.465430
Ga241	Ga24	0.576160	0.559780	0.751230
P291	P29	0.569540	0.484120	0.547170
P301	P30	0.320300	0.326840	0.389420
O1131	O113	0.543610	0.509820	0.628890
O1141	O114	0.509020	0.420120	0.510390
O1151	O115	0.592440	0.534340	0.459870
O1161	O116	0.623010	0.472340	0.577470
O1171	O117	0.378020	0.336130	0.454570
O1181	O118	0.292150	0.258400	0.341410
O1191	O119	0.268620	0.330350	0.449010
O1201	O120	0.343980	0.377000	0.306280
N431	N43	0.609100	0.498080	0.797370
N441	N44	0.489960	0.490900	0.815370
N451	N45	0.522210	0.604560	0.725470
C571	C57	0.551930	0.437970	0.835570
C581	C58	0.506330	0.454770	0.886970
C591	C59	0.456330	0.524670	0.849870
C601	C60	0.454730	0.564370	0.763770
H1831	H183	0.631930	0.514170	0.853370
H1841	H184	0.624130	0.484070	0.744970
H1851	H185	0.460630	0.461170	0.771170
H1861	H186	0.524330	0.611570	0.658970
H1871	H187	0.536730	0.640170	0.758370
H1881	H188	0.526630	0.406270	0.776170
H1891	H189	0.568230	0.428370	0.880870
H1901	H190	0.531930	0.482470	0.942370
H1911	H191	0.461930	0.417770	0.910370
H1921	H192	0.481130	0.553670	0.909470
H1931	H193	0.410530	0.496570	0.862170
H1941	H194	0.433430	0.536070	0.709670
H1951	H195	0.433430	0.590970	0.798770
Ga251	Ga25	0.106890	0.349720	0.084560
P311	P31	0.182550	0.418760	0.880500
P321	P32	0.339830	0.326800	0.722750
O1211	O121	0.156850	0.367130	0.962220
O1221	O122	0.246550	0.422240	0.843720
O1231	O123	0.132330	0.391440	0.793200
O1241	O124	0.194330	0.484010	0.910800
O1251	O125	0.330540	0.375230	0.787900
O1261	O126	0.408270	0.367090	0.674740
O1271	O127	0.336320	0.271610	0.782340
O1281	O128	0.289670	0.300320	0.639610
N461	N46	0.168590	0.444360	0.130700
N471	N47	0.175770	0.332400	0.148700
N481	N48	0.062110	0.250990	0.058800
C611	C61	0.228700	0.447300	0.168900
C621	C62	0.211900	0.384900	0.220300
C631	C63	0.142000	0.265000	0.183200
C641	C64	0.102300	0.223700	0.097100
H1961	H196	0.152500	0.451100	0.186700
H1971	H197	0.182600	0.473400	0.078300
H1981	H198	0.205500	0.332800	0.104500
H1991	H199	0.055100	0.246100	0.992300
H2001	H200	0.026500	0.229900	0.091700
H2011	H201	0.260400	0.453700	0.109500
H2021	H202	0.238300	0.473200	0.214200
H2031	H203	0.184200	0.382800	0.275700
H2041	H204	0.248900	0.377500	0.243700
H2051	H205	0.113000	0.260800	0.242800
H2061	H206	0.170100	0.247300	0.195500
H2071	H207	0.130600	0.230700	0.043000
H2081	H208	0.075700	0.175800	0.132100
Ga261	Ga26	0.773560	0.683050	0.417890
P331	P33	0.849220	0.752090	0.213830
P341	P34	0.006500	0.660130	0.056080
O1291	O129	0.823520	0.700460	0.295550
O1301	O130	0.913220	0.755570	0.177050
O1311	O131	0.799000	0.724770	0.126530
O1321	O132	0.861000	0.817340	0.244130
O1331	O133	0.997210	0.708560	0.121230
O1341	O134	0.074940	0.700420	0.008070
O1351	O135	0.002990	0.604940	0.115670
O1361	O136	0.956340	0.633650	0.972940
N491	N49	0.835260	0.777690	0.464030
N501	N50	0.842440	0.665730	0.482030
N511	N51	0.728780	0.584320	0.392130
C651	C65	0.895370	0.780630	0.502230
C661	C66	0.878570	0.718230	0.553630
C671	C67	0.808670	0.598330	0.516530
C681	C68	0.768970	0.557030	0.430430
H2091	H209	0.819170	0.784430	0.520030
H2101	H210	0.849270	0.806730	0.411630
H2111	H211	0.872170	0.666130	0.437830
H2121	H212	0.721770	0.579430	0.325630
H2131	H213	0.693170	0.563230	0.425030
H2141	H214	0.927070	0.787030	0.442830
H2151	H215	0.904970	0.806530	0.547530
H2161	H216	0.850870	0.716130	0.609030
H2171	H217	0.915570	0.710830	0.577030
H2181	H218	0.779670	0.594130	0.576130
H2191	H219	0.836770	0.580630	0.528830
H2201	H220	0.797270	0.564030	0.376330
H2211	H221	0.742370	0.509130	0.465430
Ga271	Ga27	0.440220	0.016390	0.751230
P351	P35	0.515880	0.085430	0.547170
P361	P36	0.673160	0.993470	0.389420
O1371	O137	0.490180	0.033800	0.628890
O1381	O138	0.579880	0.088910	0.510390
O1391	O139	0.465660	0.058110	0.459870
O1401	O140	0.527660	0.150680	0.577470
O1411	O141	0.663870	0.041900	0.454570
O1421	O142	0.741600	0.033760	0.341410
O1431	O143	0.669650	0.938280	0.449010
O1441	O144	0.623000	0.966990	0.306280
N521	N52	0.501920	0.111030	0.797370
N531	N53	0.509100	0.999070	0.815370
N541	N54	0.395440	0.917660	0.725470
C691	C69	0.562030	0.113970	0.835570
C701	C70	0.545230	0.051570	0.886970
C711	C71	0.475330	0.931670	0.849870
C721	C72	0.435630	0.890370	0.763770
H2221	H222	0.485830	0.117770	0.853370
H2231	H223	0.515930	0.140070	0.744970
H2241	H224	0.538830	0.999470	0.771170
H2251	H225	0.388430	0.912770	0.658970
H2261	H226	0.359830	0.896570	0.758370
H2271	H227	0.593730	0.120370	0.776170
H2281	H228	0.571630	0.139870	0.880870
H2291	H229	0.517530	0.049470	0.942370
H2301	H230	0.582230	0.044170	0.910370
H2311	H231	0.446330	0.927470	0.909470
H2321	H232	0.503430	0.913970	0.862170
H2331	H233	0.463930	0.897370	0.709670
H2341	H234	0.409030	0.842470	0.798770
