data_HEKTAU_clean_PM
_symmetry_space_group_name_H-M	'P1'
_cell_length_a	11.392000
_cell_length_b	15.568400
_cell_length_c	17.668500
_cell_angle_alpha	82.415200
_cell_angle_beta	71.193000
_cell_angle_gamma	68.538900
_symmetry_Int_Tables_number 1

loop_
_symmetry_equiv_pos_as_xyz
'x,y,z'

loop_
_atom_site_label
_atom_site_type_symbol
_atom_site_fract_x
_atom_site_fract_y
_atom_site_fract_z
Cd11	Cd1	0.150410	0.085870	0.544350
Cd21	Cd2	0.219370	0.585870	0.044350
H11	H1	0.509700	0.213700	0.378700
H21	H2	0.594500	0.334400	0.338000
H31	H3	0.276300	0.501300	0.498700
H41	H4	0.191500	0.380800	0.532400
H51	H5	0.683300	0.434700	0.318100
H61	H6	0.844600	0.445100	0.202900
H71	H7	0.043300	0.446900	0.113100
H81	H8	0.021100	0.665600	0.212800
H91	H9	0.819400	0.672200	0.304800
H101	H10	0.340700	0.606600	0.453200
H111	H11	0.554000	0.811100	0.389700
H121	H12	0.439700	0.953500	0.448700
H131	H13	0.120700	0.888900	0.542300
H141	H14	0.227400	0.742900	0.488900
H151	H15	0.897900	0.713700	0.878700
H161	H16	0.733100	0.834400	0.838000
H171	H17	0.723700	0.001300	0.998700
H181	H18	0.895300	0.880800	0.032400
H191	H19	0.563900	0.934700	0.818100
H201	H20	0.507400	0.945100	0.702900
H211	H21	0.396700	0.946900	0.613100
H221	H22	0.100500	0.165600	0.712800
H231	H23	0.203600	0.172200	0.804800
H241	H24	0.599500	0.106600	0.953200
H251	H25	0.245200	0.311100	0.889700
H261	H26	0.158100	0.453500	0.948700
H271	H27	0.448100	0.388900	0.042300
H281	H28	0.540800	0.242900	0.988900
C11	C1	0.289100	0.207800	0.484400
C21	C2	0.340500	0.287200	0.459200
C31	C3	0.461000	0.272800	0.402200
C41	C4	0.512400	0.344900	0.378700
C51	C5	0.446100	0.430300	0.413500
C61	C6	0.324400	0.443700	0.472700
C71	C7	0.274800	0.370900	0.493100
C81	C8	0.503000	0.506700	0.390500
C91	C9	0.628200	0.494100	0.339500
C101	C10	0.674100	0.568100	0.319500
C111	C11	0.807600	0.558800	0.263600
C121	C12	0.877500	0.492200	0.205800
C131	C13	0.996100	0.494000	0.151800
C141	C14	0.982900	0.621600	0.209800
C151	C15	0.863300	0.625300	0.265700
C161	C16	0.428600	0.594600	0.419200
C171	C17	0.479200	0.665600	0.399400
C181	C18	0.405500	0.759600	0.433000
C191	C19	0.464600	0.824900	0.421700
C201	C20	0.395100	0.910500	0.456700
C211	C21	0.210700	0.872500	0.511100
C221	C22	0.273500	0.785100	0.479300
C231	C23	0.018700	0.707800	0.984400
C241	C24	0.913100	0.787200	0.959200
C251	C25	0.864000	0.772800	0.902200
C261	C26	0.764000	0.844900	0.878700
C271	C27	0.710100	0.930300	0.913500
C281	C28	0.759200	0.943700	0.972700
C291	C29	0.861200	0.870900	0.993100
C301	C30	0.599800	0.006700	0.890500
C311	C31	0.538200	0.994100	0.839500
C321	C32	0.438300	0.068100	0.819500
C331	C33	0.370000	0.058800	0.763600
C341	C34	0.424500	0.992200	0.705800
C351	C35	0.358100	0.994000	0.651800
C361	C36	0.185700	0.121600	0.709800
C371	C37	0.245700	0.125300	0.765700
C381	C38	0.557600	0.094600	0.919200
C391	C39	0.455800	0.165600	0.899400
C401	C40	0.401900	0.259600	0.933000
C411	C41	0.288800	0.324900	0.921700
C421	C42	0.237700	0.410500	0.956700
C431	C43	0.405700	0.372500	0.011100
C441	C44	0.462100	0.285100	0.979300
N11	N1	0.600200	0.653000	0.349400
N21	N2	0.046800	0.558700	0.151700
N31	N3	0.270300	0.935500	0.500300
N41	N4	0.397400	0.153000	0.849400
N51	N5	0.242800	0.058700	0.651700
N61	N6	0.293900	0.435500	0.000300
O11	O1	0.357900	0.128300	0.463500
O21	O2	0.168300	0.230000	0.529800
O31	O3	0.050300	0.628300	0.963500
O41	O4	0.071900	0.730000	0.029800
Cd31	Cd3	0.780630	0.414130	0.955650
Cd41	Cd4	0.849590	0.914130	0.455650
H291	H29	0.102100	0.286300	0.121300
H301	H30	0.266900	0.165600	0.162000
H311	H31	0.276300	0.998700	0.001300
H321	H32	0.104700	0.119200	0.967600
H331	H33	0.436100	0.065300	0.181900
H341	H34	0.492600	0.054900	0.297100
H351	H35	0.603300	0.053100	0.386900
H361	H36	0.899500	0.834400	0.287200
H371	H37	0.796400	0.827800	0.195200
H381	H38	0.400500	0.893400	0.046800
H391	H39	0.754800	0.688900	0.110300
H401	H40	0.841900	0.546500	0.051300
H411	H41	0.551900	0.611100	0.957700
H421	H42	0.459200	0.757100	0.011100
H431	H43	0.490300	0.786300	0.621300
H441	H44	0.405500	0.665600	0.662000
H451	H45	0.723700	0.498700	0.501300
H461	H46	0.808500	0.619200	0.467600
H471	H47	0.316700	0.565300	0.681900
H481	H48	0.155400	0.554900	0.797100
H491	H49	0.956700	0.553100	0.886900
H501	H50	0.978900	0.334400	0.787200
H511	H51	0.180600	0.327800	0.695200
H521	H52	0.659300	0.393400	0.546800
H531	H53	0.446000	0.188900	0.610300
H541	H54	0.560300	0.046500	0.551300
H551	H55	0.879300	0.111100	0.457700
H561	H56	0.772600	0.257100	0.511100
C451	C45	0.981300	0.292200	0.015600
C461	C46	0.086900	0.212800	0.040800
C471	C47	0.136000	0.227200	0.097800
C481	C48	0.236000	0.155100	0.121300
C491	C49	0.289900	0.069700	0.086500
C501	C50	0.240800	0.056300	0.027300
C511	C51	0.138800	0.129100	0.006900
C521	C52	0.400200	0.993300	0.109500
C531	C53	0.461800	0.005900	0.160500
C541	C54	0.561700	0.931900	0.180500
C551	C55	0.630000	0.941200	0.236400
C561	C56	0.575500	0.007800	0.294200
C571	C57	0.641900	0.006000	0.348200
C581	C58	0.814300	0.878400	0.290200
C591	C59	0.754300	0.874700	0.234300
C601	C60	0.442400	0.905400	0.080800
C611	C61	0.544200	0.834400	0.100600
C621	C62	0.598100	0.740400	0.067000
C631	C63	0.711200	0.675100	0.078300
C641	C64	0.762300	0.589500	0.043300
C651	C65	0.594300	0.627500	0.988900
C661	C66	0.537900	0.714900	0.020700
C671	C67	0.710900	0.792200	0.515600
C681	C68	0.659500	0.712800	0.540800
C691	C69	0.539000	0.727200	0.597800
C701	C70	0.487600	0.655100	0.621300
C711	C71	0.553900	0.569700	0.586500
C721	C72	0.675600	0.556300	0.527300
C731	C73	0.725200	0.629100	0.506900
C741	C74	0.497000	0.493300	0.609500
C751	C75	0.371800	0.505900	0.660500
C761	C76	0.325900	0.431900	0.680500
C771	C77	0.192400	0.441200	0.736400
C781	C78	0.122500	0.507800	0.794200
C791	C79	0.003900	0.506000	0.848200
C801	C80	0.017100	0.378400	0.790200
C811	C81	0.136700	0.374700	0.734300
C821	C82	0.571400	0.405400	0.580800
C831	C83	0.520800	0.334400	0.600600
C841	C84	0.594500	0.240400	0.567000
C851	C85	0.535400	0.175100	0.578300
C861	C86	0.604900	0.089500	0.543300
C871	C87	0.789300	0.127500	0.488900
C881	C88	0.726500	0.214900	0.520700
N71	N7	0.602600	0.847000	0.150600
N81	N8	0.757200	0.941300	0.348300
N91	N9	0.706100	0.564500	0.999700
N101	N10	0.399800	0.347000	0.650600
N111	N11	0.953200	0.441300	0.848300
N121	N12	0.729700	0.064500	0.499700
O51	O5	0.949700	0.371700	0.036500
O61	O6	0.928100	0.270000	0.970200
O71	O7	0.642100	0.871700	0.536500
O81	O8	0.831700	0.770000	0.470200
