data_HEKTUO01_clean_PM
_symmetry_space_group_name_H-M	'P1'
_cell_length_a	20.040700
_cell_length_b	10.067400
_cell_length_c	18.927300
_cell_angle_alpha	90.000000
_cell_angle_beta	101.300000
_cell_angle_gamma	90.000000
_symmetry_Int_Tables_number 1

loop_
_symmetry_equiv_pos_as_xyz
'x,y,z'

loop_
_atom_site_label
_atom_site_type_symbol
_atom_site_fract_x
_atom_site_fract_y
_atom_site_fract_z
Cd11	Cd1	0.905190	0.949380	0.973800
O11	O1	0.791740	0.890300	0.921290
O21	O2	0.850080	0.000200	0.857390
O31	O3	0.004260	0.918500	0.933730
O41	O4	0.897490	0.159300	0.008330
O51	O5	0.934940	0.776000	0.041250
C11	C1	0.794750	0.951600	0.864920
O61	O6	0.653070	0.861900	0.992280
C21	C2	0.733560	0.968800	0.806640
C31	C3	0.734340	0.057200	0.750980
C41	C4	0.674500	0.899900	0.807900
H11	H1	0.773900	0.104200	0.749200
C51	C5	0.676810	0.077100	0.697480
C61	C6	0.617100	0.919400	0.755200
H21	H2	0.673200	0.839400	0.844800
H31	H3	0.678500	0.136000	0.660100
C71	C7	0.617040	0.009600	0.699620
H41	H4	0.577800	0.871400	0.756900
C81	C8	0.554060	0.032700	0.645220
C91	C9	0.534700	0.161600	0.622810
C101	C10	0.512080	0.927900	0.616140
H51	H5	0.562700	0.232600	0.640600
C111	C11	0.474100	0.185300	0.574200
C121	C12	0.451260	0.951500	0.568690
H61	H6	0.525100	0.841100	0.628800
C131	C13	0.432080	0.080200	0.548110
C141	C14	0.454590	0.323500	0.547940
C151	C15	0.406900	0.836800	0.536480
H71	H7	0.390900	0.095800	0.516800
Cd21	Cd2	0.405190	0.449380	0.973800
O71	O7	0.291740	0.390300	0.921290
O81	O8	0.350080	0.500200	0.857390
O91	O9	0.504260	0.418500	0.933730
O101	O10	0.397490	0.659300	0.008330
O111	O11	0.434940	0.276000	0.041250
C161	C16	0.294750	0.451600	0.864920
O121	O12	0.153070	0.361900	0.992280
C171	C17	0.233560	0.468800	0.806640
C181	C18	0.234340	0.557200	0.750980
C191	C19	0.174500	0.399900	0.807900
H81	H8	0.273900	0.604200	0.749200
C201	C20	0.176810	0.577100	0.697480
C211	C21	0.117100	0.419400	0.755200
H91	H9	0.173200	0.339400	0.844800
H101	H10	0.178500	0.636000	0.660100
C221	C22	0.117040	0.509600	0.699620
H111	H11	0.077800	0.371400	0.756900
C231	C23	0.054060	0.532700	0.645220
C241	C24	0.034700	0.661600	0.622810
C251	C25	0.012080	0.427900	0.616140
H121	H12	0.062700	0.732600	0.640600
C261	C26	0.974100	0.685300	0.574200
C271	C27	0.951260	0.451500	0.568690
H131	H13	0.025100	0.341100	0.628800
C281	C28	0.932080	0.580200	0.548110
C291	C29	0.954590	0.823500	0.547940
C301	C30	0.906900	0.336800	0.536480
H141	H14	0.890900	0.595800	0.516800
Cd31	Cd3	0.094810	0.949380	0.526200
O131	O13	0.208260	0.890300	0.578710
O141	O14	0.149920	0.000200	0.642610
O151	O15	0.995740	0.918500	0.566270
O161	O16	0.102510	0.159300	0.491670
O171	O17	0.065060	0.776000	0.458750
C311	C31	0.205250	0.951600	0.635080
O181	O18	0.346930	0.861900	0.507720
C321	C32	0.266440	0.968800	0.693360
C331	C33	0.265660	0.057200	0.749020
C341	C34	0.325500	0.899900	0.692100
H151	H15	0.226100	0.104200	0.750800
C351	C35	0.323190	0.077100	0.802520
C361	C36	0.382900	0.919400	0.744800
H161	H16	0.326800	0.839400	0.655200
H171	H17	0.321500	0.136000	0.839900
C371	C37	0.382960	0.009600	0.800380
H181	H18	0.422200	0.871400	0.743100
C381	C38	0.445940	0.032700	0.854780
C391	C39	0.465300	0.161600	0.877190
C401	C40	0.487920	0.927900	0.883860
H191	H19	0.437300	0.232600	0.859400
C411	C41	0.525900	0.185300	0.925800
C421	C42	0.548740	0.951500	0.931310
H201	H20	0.474900	0.841100	0.871200
C431	C43	0.567920	0.080200	0.951890
C441	C44	0.545410	0.323500	0.952060
C451	C45	0.593100	0.836800	0.963520
H211	H21	0.609100	0.095800	0.983200
Cd41	Cd4	0.594810	0.449380	0.526200
O191	O19	0.708260	0.390300	0.578710
O201	O20	0.649920	0.500200	0.642610
O211	O21	0.495740	0.418500	0.566270
O221	O22	0.602510	0.659300	0.491670
O231	O23	0.565060	0.276000	0.458750
C461	C46	0.705250	0.451600	0.635080
O241	O24	0.846930	0.361900	0.507720
C471	C47	0.766440	0.468800	0.693360
C481	C48	0.765660	0.557200	0.749020
C491	C49	0.825500	0.399900	0.692100
H221	H22	0.726100	0.604200	0.750800
C501	C50	0.823190	0.577100	0.802520
C511	C51	0.882900	0.419400	0.744800
H231	H23	0.826800	0.339400	0.655200
H241	H24	0.821500	0.636000	0.839900
C521	C52	0.882960	0.509600	0.800380
H251	H25	0.922200	0.371400	0.743100
C531	C53	0.945940	0.532700	0.854780
C541	C54	0.965300	0.661600	0.877190
C551	C55	0.987920	0.427900	0.883860
H261	H26	0.937300	0.732600	0.859400
C561	C56	0.025900	0.685300	0.925800
C571	C57	0.048740	0.451500	0.931310
H271	H27	0.974900	0.341100	0.871200
C581	C58	0.067920	0.580200	0.951890
C591	C59	0.045410	0.823500	0.952060
C601	C60	0.093100	0.336800	0.963520
H281	H28	0.109100	0.595800	0.983200
Cd51	Cd5	0.094810	0.050620	0.026200
O251	O25	0.208260	0.109700	0.078710
O261	O26	0.149920	0.999800	0.142610
O271	O27	0.995740	0.081500	0.066270
O281	O28	0.102510	0.840700	0.991670
O291	O29	0.065060	0.224000	0.958750
C611	C61	0.205250	0.048400	0.135080
O301	O30	0.346930	0.138100	0.007720
C621	C62	0.266440	0.031200	0.193360
C631	C63	0.265660	0.942800	0.249020
C641	C64	0.325500	0.100100	0.192100
H291	H29	0.226100	0.895800	0.250800
C651	C65	0.323190	0.922900	0.302520
C661	C66	0.382900	0.080600	0.244800
H301	H30	0.326800	0.160600	0.155200
H311	H31	0.321500	0.864000	0.339900
C671	C67	0.382960	0.990400	0.300380
H321	H32	0.422200	0.128600	0.243100
C681	C68	0.445940	0.967300	0.354780
C691	C69	0.465300	0.838400	0.377190
C701	C70	0.487920	0.072100	0.383860
H331	H33	0.437300	0.767400	0.359400
C711	C71	0.525900	0.814700	0.425800
C721	C72	0.548740	0.048500	0.431310
H341	H34	0.474900	0.158900	0.371200
C731	C73	0.567920	0.919800	0.451890
C741	C74	0.545410	0.676500	0.452060
C751	C75	0.593100	0.163200	0.463520
H351	H35	0.609100	0.904200	0.483200
Cd61	Cd6	0.594810	0.550620	0.026200
O311	O31	0.708260	0.609700	0.078710
O321	O32	0.649920	0.499800	0.142610
O331	O33	0.495740	0.581500	0.066270
O341	O34	0.602510	0.340700	0.991670
O351	O35	0.565060	0.724000	0.958750
C761	C76	0.705250	0.548400	0.135080
O361	O36	0.846930	0.638100	0.007720
C771	C77	0.766440	0.531200	0.193360
C781	C78	0.765660	0.442800	0.249020
C791	C79	0.825500	0.600100	0.192100
H361	H36	0.726100	0.395800	0.250800
C801	C80	0.823190	0.422900	0.302520
C811	C81	0.882900	0.580600	0.244800
H371	H37	0.826800	0.660600	0.155200
H381	H38	0.821500	0.364000	0.339900
C821	C82	0.882960	0.490400	0.300380
H391	H39	0.922200	0.628600	0.243100
C831	C83	0.945940	0.467300	0.354780
C841	C84	0.965300	0.338400	0.377190
C851	C85	0.987920	0.572100	0.383860
H401	H40	0.937300	0.267400	0.359400
C861	C86	0.025900	0.314700	0.425800
C871	C87	0.048740	0.548500	0.431310
H411	H41	0.974900	0.658900	0.371200
C881	C88	0.067920	0.419800	0.451890
C891	C89	0.045410	0.176500	0.452060
C901	C90	0.093100	0.663200	0.463520
H421	H42	0.109100	0.404200	0.483200
Cd71	Cd7	0.905190	0.050620	0.473800
O371	O37	0.791740	0.109700	0.421290
O381	O38	0.850080	0.999800	0.357390
O391	O39	0.004260	0.081500	0.433730
O401	O40	0.897490	0.840700	0.508330
O411	O41	0.934940	0.224000	0.541250
C911	C91	0.794750	0.048400	0.364920
O421	O42	0.653070	0.138100	0.492280
C921	C92	0.733560	0.031200	0.306640
C931	C93	0.734340	0.942800	0.250980
C941	C94	0.674500	0.100100	0.307900
H431	H43	0.773900	0.895800	0.249200
C951	C95	0.676810	0.922900	0.197480
C961	C96	0.617100	0.080600	0.255200
H441	H44	0.673200	0.160600	0.344800
H451	H45	0.678500	0.864000	0.160100
C971	C97	0.617040	0.990400	0.199620
H461	H46	0.577800	0.128600	0.256900
C981	C98	0.554060	0.967300	0.145220
C991	C99	0.534700	0.838400	0.122810
C1001	C100	0.512080	0.072100	0.116140
H471	H47	0.562700	0.767400	0.140600
C1011	C101	0.474100	0.814700	0.074200
C1021	C102	0.451260	0.048500	0.068690
H481	H48	0.525100	0.158900	0.128800
C1031	C103	0.432080	0.919800	0.048110
C1041	C104	0.454590	0.676500	0.047940
C1051	C105	0.406900	0.163200	0.036480
H491	H49	0.390900	0.904200	0.016800
Cd81	Cd8	0.405190	0.550620	0.473800
O431	O43	0.291740	0.609700	0.421290
O441	O44	0.350080	0.499800	0.357390
O451	O45	0.504260	0.581500	0.433730
O461	O46	0.397490	0.340700	0.508330
O471	O47	0.434940	0.724000	0.541250
C1061	C106	0.294750	0.548400	0.364920
O481	O48	0.153070	0.638100	0.492280
C1071	C107	0.233560	0.531200	0.306640
C1081	C108	0.234340	0.442800	0.250980
C1091	C109	0.174500	0.600100	0.307900
H501	H50	0.273900	0.395800	0.249200
C1101	C110	0.176810	0.422900	0.197480
C1111	C111	0.117100	0.580600	0.255200
H511	H51	0.173200	0.660600	0.344800
H521	H52	0.178500	0.364000	0.160100
C1121	C112	0.117040	0.490400	0.199620
H531	H53	0.077800	0.628600	0.256900
C1131	C113	0.054060	0.467300	0.145220
C1141	C114	0.034700	0.338400	0.122810
C1151	C115	0.012080	0.572100	0.116140
H541	H54	0.062700	0.267400	0.140600
C1161	C116	0.974100	0.314700	0.074200
C1171	C117	0.951260	0.548500	0.068690
H551	H55	0.025100	0.658900	0.128800
C1181	C118	0.932080	0.419800	0.048110
C1191	C119	0.954590	0.176500	0.047940
C1201	C120	0.906900	0.663200	0.036480
H561	H56	0.890900	0.404200	0.016800
Cd91	Cd9	0.750000	0.750000	0.000000
Cd101	Cd10	0.250000	0.250000	0.000000
Cd111	Cd11	0.250000	0.750000	0.500000
Cd121	Cd12	0.750000	0.250000	0.500000
