data_HELCUY_clean_PM
_symmetry_space_group_name_H-M	'P1'
_cell_length_a	5.580700
_cell_length_b	13.793000
_cell_length_c	24.064000
_cell_angle_alpha	90.000000
_cell_angle_beta	95.910000
_cell_angle_gamma	90.000000
_symmetry_Int_Tables_number 1

loop_
_symmetry_equiv_pos_as_xyz
'x,y,z'

loop_
_atom_site_label
_atom_site_type_symbol
_atom_site_fract_x
_atom_site_fract_y
_atom_site_fract_z
Zn11	Zn1	0.998290	0.576220	0.550170
Zn21	Zn2	0.691060	0.752770	0.494110
Zn31	Zn3	0.001710	0.076220	0.949830
Zn41	Zn4	0.308940	0.252770	0.005890
Zn51	Zn5	0.001710	0.423780	0.449830
Zn61	Zn6	0.308940	0.247230	0.505890
Zn71	Zn7	0.998290	0.923780	0.050170
Zn81	Zn8	0.691060	0.747230	0.994110
Zn91	Zn9	0.500000	0.500000	0.500000
Zn101	Zn10	0.500000	0.000000	0.000000
H11	H1	0.719600	0.513200	0.688100
H21	H2	0.647800	0.474900	0.745500
H31	H3	0.501700	0.367700	0.674600
H41	H4	0.282900	0.414500	0.700900
H51	H5	0.469000	0.890200	0.677900
H61	H6	0.522700	0.821100	0.629100
H71	H7	0.229900	0.930100	0.596600
H81	H8	0.070500	0.901100	0.643700
H91	H9	0.834000	0.717300	0.779800
H101	H10	0.923600	0.617600	0.805500
H111	H11	0.206500	0.703200	0.867800
H121	H12	0.089400	0.800500	0.844600
H131	H13	0.280400	0.013200	0.811900
H141	H14	0.352200	0.974900	0.754500
H151	H15	0.498300	0.867700	0.825400
H161	H16	0.717100	0.914500	0.799100
H171	H17	0.531000	0.390200	0.822100
H181	H18	0.477300	0.321100	0.870900
H191	H19	0.770100	0.430100	0.903400
H201	H20	0.929500	0.401100	0.856300
H211	H21	0.166000	0.217300	0.720200
H221	H22	0.076400	0.117600	0.694500
H231	H23	0.793500	0.203200	0.632200
H241	H24	0.910600	0.300500	0.655400
H251	H25	0.280400	0.486800	0.311900
H261	H26	0.352200	0.525100	0.254500
H271	H27	0.498300	0.632300	0.325400
H281	H28	0.717100	0.585500	0.299100
H291	H29	0.531000	0.109800	0.322100
H301	H30	0.477300	0.178900	0.370900
H311	H31	0.770100	0.069900	0.403400
H321	H32	0.929500	0.098900	0.356300
H331	H33	0.166000	0.282700	0.220200
H341	H34	0.076400	0.382400	0.194500
H351	H35	0.793500	0.296800	0.132200
H361	H36	0.910600	0.199500	0.155400
H371	H37	0.719600	0.986800	0.188100
H381	H38	0.647800	0.025100	0.245500
H391	H39	0.501700	0.132300	0.174600
H401	H40	0.282900	0.085500	0.200900
H411	H41	0.469000	0.609800	0.177900
H421	H42	0.522700	0.678900	0.129100
H431	H43	0.229900	0.569900	0.096600
H441	H44	0.070500	0.598900	0.143700
H451	H45	0.834000	0.782700	0.279800
H461	H46	0.923600	0.882400	0.305500
H471	H47	0.206500	0.796800	0.367800
H481	H48	0.089400	0.699500	0.344600
C11	C1	0.491900	0.670100	0.681610
C21	C2	0.191200	0.761000	0.726900
C31	C3	0.300100	0.596700	0.758450
C41	C4	0.584800	0.501300	0.709600
C51	C5	0.415800	0.427900	0.679030
C61	C6	0.319000	0.466200	0.622200
C71	C7	0.402600	0.838300	0.653800
C81	C8	0.181800	0.876100	0.618800
C91	C9	0.049600	0.803200	0.580000
C101	C10	0.973200	0.683200	0.797700
C111	C11	0.870600	0.725300	0.892700
C121	C12	0.057500	0.732800	0.851700
C131	C13	0.508100	0.170100	0.818390
C141	C14	0.808800	0.261000	0.773100
C151	C15	0.699900	0.096700	0.741550
C161	C16	0.415200	0.001300	0.790400
C171	C17	0.584200	0.927900	0.820970
C181	C18	0.681000	0.966200	0.877800
C191	C19	0.597400	0.338300	0.846200
C201	C20	0.818200	0.376100	0.881200
C211	C21	0.950400	0.303200	0.920000
C221	C22	0.026800	0.183200	0.702300
C231	C23	0.129400	0.225300	0.607300
C241	C24	0.942500	0.232800	0.648300
C251	C25	0.508100	0.329900	0.318390
C261	C26	0.808800	0.239000	0.273100
C271	C27	0.699900	0.403300	0.241550
C281	C28	0.415200	0.498700	0.290400
C291	C29	0.584200	0.572100	0.320970
C301	C30	0.681000	0.533800	0.377800
C311	C31	0.597400	0.161700	0.346200
C321	C32	0.818200	0.123900	0.381200
C331	C33	0.950400	0.196800	0.420000
C341	C34	0.026800	0.316800	0.202300
C351	C35	0.129400	0.274700	0.107300
C361	C36	0.942500	0.267200	0.148300
C371	C37	0.491900	0.829900	0.181610
C381	C38	0.191200	0.739000	0.226900
C391	C39	0.300100	0.903300	0.258450
C401	C40	0.584800	0.998700	0.209600
C411	C41	0.415800	0.072100	0.179030
C421	C42	0.319000	0.033800	0.122200
C431	C43	0.402600	0.661700	0.153800
C441	C44	0.181800	0.623900	0.118800
C451	C45	0.049600	0.696800	0.080000
C461	C46	0.973200	0.816800	0.297700
C471	C47	0.870600	0.774700	0.392700
C481	C48	0.057500	0.767200	0.351700
N11	N1	0.360300	0.753300	0.688900
N21	N2	0.161500	0.679700	0.759050
N31	N3	0.460200	0.594200	0.718360
N41	N4	0.639700	0.253300	0.811100
N51	N5	0.838500	0.179700	0.740950
N61	N6	0.539800	0.094200	0.781640
N71	N7	0.639700	0.246700	0.311100
N81	N8	0.838500	0.320300	0.240950
N91	N9	0.539800	0.405800	0.281640
N101	N10	0.360300	0.746700	0.188900
N111	N11	0.161500	0.820300	0.259050
N121	N12	0.460200	0.905800	0.218360
O11	O1	0.284800	0.529900	0.790950
O21	O2	0.637600	0.664300	0.647420
O31	O3	0.079300	0.834500	0.732850
O41	O4	0.132600	0.720100	0.574810
O51	O5	0.854900	0.835300	0.554010
O61	O6	0.132000	0.519400	0.621050
O71	O7	0.830200	0.440300	0.516300
O81	O8	0.661600	0.628700	0.533930
O91	O9	0.941000	0.756200	0.942840
O101	O10	0.429900	0.446600	0.581190
O111	O11	0.669000	0.694200	0.879280
O121	O12	0.715200	0.029900	0.709050
O131	O13	0.362400	0.164300	0.852580
O141	O14	0.920700	0.334500	0.767150
O151	O15	0.867400	0.220100	0.925190
O161	O16	0.145100	0.335300	0.945990
O171	O17	0.868000	0.019400	0.878950
O181	O18	0.169800	0.940300	0.983700
O191	O19	0.338400	0.128700	0.966070
O201	O20	0.059000	0.256200	0.557160
O211	O21	0.570100	0.946600	0.918810
O221	O22	0.331000	0.194200	0.620720
O231	O23	0.715200	0.470100	0.209050
O241	O24	0.362400	0.335700	0.352580
O251	O25	0.920700	0.165500	0.267150
O261	O26	0.867400	0.279900	0.425190
O271	O27	0.145100	0.164700	0.445990
O281	O28	0.868000	0.480600	0.378950
O291	O29	0.169800	0.559700	0.483700
O301	O30	0.338400	0.371300	0.466070
O311	O31	0.059000	0.243800	0.057160
O321	O32	0.570100	0.553400	0.418810
O331	O33	0.331000	0.305800	0.120720
O341	O34	0.284800	0.970100	0.290950
O351	O35	0.637600	0.835700	0.147420
O361	O36	0.079300	0.665500	0.232850
O371	O37	0.132600	0.779900	0.074810
O381	O38	0.854900	0.664700	0.054010
O391	O39	0.132000	0.980600	0.121050
O401	O40	0.830200	0.059700	0.016300
O411	O41	0.661600	0.871300	0.033930
O421	O42	0.941000	0.743800	0.442840
O431	O43	0.429900	0.053400	0.081190
O441	O44	0.669000	0.805800	0.379280
