data_HELDOT_clean_PM
_symmetry_space_group_name_H-M	'P1'
_cell_length_a	13.143000
_cell_length_b	25.472000
_cell_length_c	25.472000
_cell_angle_alpha	120.000000
_cell_angle_beta	90.000000
_cell_angle_gamma	90.000000
_symmetry_Int_Tables_number 1

loop_
_symmetry_equiv_pos_as_xyz
'x,y,z'

loop_
_atom_site_label
_atom_site_type_symbol
_atom_site_fract_x
_atom_site_fract_y
_atom_site_fract_z
Co11	Co1	0.808810	0.610900	0.887450
Co21	Co2	0.142140	0.276550	0.389100
Co31	Co3	0.475480	0.112550	0.723450
Co41	Co4	0.191190	0.723450	0.112550
Co51	Co5	0.857860	0.887450	0.610900
Co61	Co6	0.524520	0.389100	0.276550
Co71	Co7	0.000000	0.684760	0.000000
Co81	Co8	0.333330	0.315240	0.315240
Co91	Co9	0.666670	0.000000	0.684760
H11	H1	0.590400	0.759800	0.015800
H21	H2	0.530400	0.839400	0.109100
H31	H3	0.761000	0.805600	0.193500
H41	H4	0.821600	0.730700	0.101100
H51	H5	0.797300	0.871500	0.439400
H61	H6	0.756000	0.877700	0.354700
H71	H7	0.490900	0.960600	0.435800
H81	H8	0.539700	0.958000	0.521800
H91	H9	0.289900	0.130100	0.370500
H101	H10	0.370900	0.044600	0.356500
H111	H11	0.543800	0.041200	0.223500
H121	H12	0.456200	0.125300	0.233800
H131	H13	0.656400	0.845100	0.271800
H141	H14	0.522600	0.007100	0.374600
H151	H15	0.541100	0.935000	0.192200
H161	H16	0.923730	0.256000	0.240200
H171	H17	0.863730	0.269700	0.160600
H181	H18	0.094330	0.387900	0.194400
H191	H19	0.154930	0.370400	0.269300
H201	H20	0.130630	0.567900	0.128500
H211	H21	0.089330	0.477000	0.122300
H221	H22	0.824230	0.475200	0.039400
H231	H23	0.873030	0.563800	0.042000
H241	H24	0.623230	0.240400	0.869900
H251	H25	0.704230	0.311900	0.955400
H261	H26	0.877130	0.182300	0.958800
H271	H27	0.789530	0.108500	0.874700
H281	H28	0.989730	0.426700	0.154900
H291	H29	0.855930	0.367500	0.992900
H301	H30	0.874430	0.257200	0.065000
H311	H31	0.257070	0.984200	0.744000
H321	H32	0.197070	0.890900	0.730300
H331	H33	0.427670	0.806500	0.612100
H341	H34	0.488270	0.898900	0.629600
H351	H35	0.463970	0.560600	0.432100
H361	H36	0.422670	0.645300	0.523000
H371	H37	0.157570	0.564200	0.524800
H381	H38	0.206370	0.478200	0.436200
H391	H39	0.956570	0.629500	0.759600
H401	H40	0.037570	0.643500	0.688100
H411	H41	0.210470	0.776500	0.817700
H421	H42	0.122870	0.766200	0.891500
H431	H43	0.323070	0.728200	0.573300
H441	H44	0.189270	0.625400	0.632500
H451	H45	0.207770	0.807800	0.742800
H461	H46	0.409600	0.744000	0.984200
H471	H47	0.469600	0.730300	0.890900
H481	H48	0.239000	0.612100	0.806500
H491	H49	0.178400	0.629600	0.898900
H501	H50	0.202700	0.432100	0.560600
H511	H51	0.244000	0.523000	0.645300
H521	H52	0.509100	0.524800	0.564200
H531	H53	0.460300	0.436200	0.478200
H541	H54	0.710100	0.759600	0.629500
H551	H55	0.629100	0.688100	0.643500
H561	H56	0.456200	0.817700	0.776500
H571	H57	0.543800	0.891500	0.766200
H581	H58	0.343600	0.573300	0.728200
H591	H59	0.477400	0.632500	0.625400
H601	H60	0.458900	0.742800	0.807800
H611	H61	0.076270	0.015800	0.759800
H621	H62	0.136270	0.109100	0.839400
H631	H63	0.905670	0.193500	0.805600
H641	H64	0.845070	0.101100	0.730700
H651	H65	0.869370	0.439400	0.871500
H661	H66	0.910670	0.354700	0.877700
H671	H67	0.175770	0.435800	0.960600
H681	H68	0.126970	0.521800	0.958000
H691	H69	0.376770	0.370500	0.130100
H701	H70	0.295770	0.356500	0.044600
H711	H71	0.122870	0.223500	0.041200
H721	H72	0.210470	0.233800	0.125300
H731	H73	0.010270	0.271800	0.845100
H741	H74	0.144070	0.374600	0.007100
H751	H75	0.125570	0.192200	0.935000
H761	H76	0.742930	0.240200	0.256000
H771	H77	0.802930	0.160600	0.269700
H781	H78	0.572330	0.194400	0.387900
H791	H79	0.511730	0.269300	0.370400
H801	H80	0.536030	0.128500	0.567900
H811	H81	0.577330	0.122300	0.477000
H821	H82	0.842430	0.039400	0.475200
H831	H83	0.793630	0.042000	0.563800
H841	H84	0.043430	0.869900	0.240400
H851	H85	0.962430	0.955400	0.311900
H861	H86	0.789530	0.958800	0.182300
H871	H87	0.877130	0.874700	0.108500
H881	H88	0.676930	0.154900	0.426700
H891	H89	0.810730	0.992900	0.367500
H901	H90	0.792230	0.065000	0.257200
C11	C1	0.752900	0.691200	0.990100
C21	C2	0.711200	0.739500	0.049500
C31	C3	0.626300	0.770100	0.052100
C41	C4	0.589500	0.817500	0.108200
C51	C5	0.639300	0.832000	0.161500
C61	C6	0.726500	0.797500	0.157400
C71	C7	0.762200	0.752700	0.102700
C81	C8	0.706900	0.915000	0.546600
C91	C9	0.673900	0.915600	0.490200
C101	C10	0.735800	0.891000	0.439100
C111	C11	0.711100	0.893800	0.388400
C121	C12	0.617900	0.920800	0.386400
C131	C13	0.554700	0.943400	0.436400
C141	C14	0.583600	0.941300	0.487600
C151	C15	0.311500	0.194000	0.313900
C161	C16	0.367100	0.136800	0.302800
C171	C17	0.340900	0.111700	0.340300
C181	C18	0.390000	0.061300	0.332000
C191	C19	0.466600	0.032900	0.289600
C201	C20	0.491300	0.058900	0.253000
C211	C21	0.440100	0.109600	0.259700
C221	C22	0.605600	0.881600	0.219800
C231	C23	0.623100	0.879600	0.274700
C241	C24	0.593100	0.926000	0.332000
C251	C25	0.543200	0.975100	0.335900
C261	C26	0.554600	0.932100	0.227300
C271	C27	0.521500	0.979200	0.283200
C281	C28	0.086230	0.298900	0.308800
C291	C29	0.044530	0.310000	0.260500
C301	C30	0.959630	0.282000	0.229900
C311	C31	0.922830	0.290700	0.182500
C321	C32	0.972630	0.329500	0.168000
C331	C33	0.059830	0.359900	0.202500
C341	C34	0.095530	0.350000	0.247300
C351	C35	0.040230	0.631600	0.085000
C361	C36	0.007230	0.574600	0.084400
C371	C37	0.069130	0.548100	0.109000
C381	C38	0.044430	0.494600	0.106200
C391	C39	0.951230	0.465600	0.079200
C401	C40	0.888030	0.493000	0.056600
C411	C41	0.916930	0.546300	0.058700
C421	C42	0.644830	0.119900	0.806000
C431	C43	0.700430	0.166000	0.863200
C441	C44	0.674230	0.228600	0.888300
C451	C45	0.723330	0.270700	0.938700
C461	C46	0.799930	0.256700	0.967100
C471	C47	0.824630	0.194100	0.941100
C481	C48	0.773430	0.150100	0.890400
C491	C49	0.938930	0.338200	0.118400
C501	C50	0.956430	0.395100	0.120400
C511	C51	0.926430	0.406000	0.074000
C521	C52	0.876530	0.360800	0.024900
C531	C53	0.887930	0.295200	0.067900
C541	C54	0.854830	0.304000	0.020800
C551	C55	0.419570	0.009900	0.701100
C561	C56	0.377870	0.950500	0.690000
C571	C57	0.292970	0.947900	0.718000
C581	C58	0.256170	0.891800	0.709300
C591	C59	0.305970	0.838500	0.670500
C601	C60	0.393170	0.842600	0.640100
C611	C61	0.428870	0.897300	0.650000
C621	C62	0.373570	0.453400	0.368400
C631	C63	0.340570	0.509800	0.425400
C641	C64	0.402470	0.560900	0.451900
C651	C65	0.377770	0.611600	0.505400
C661	C66	0.284570	0.613600	0.534400
C671	C67	0.221370	0.563600	0.507000
C681	C68	0.250270	0.512400	0.453700
C691	C69	0.978170	0.686100	0.880100
C701	C70	0.033770	0.697200	0.834000
C711	C71	0.007570	0.659700	0.771400
C721	C72	0.056670	0.668000	0.729300
C731	C73	0.133270	0.710400	0.743300
C741	C74	0.157970	0.747000	0.805900
C751	C75	0.106770	0.740300	0.849900
C761	C76	0.272270	0.780200	0.661800
C771	C77	0.289770	0.725300	0.604900
C781	C78	0.259770	0.668000	0.594000
C791	C79	0.209870	0.664100	0.639200
C801	C80	0.221270	0.772700	0.704800
C811	C81	0.188170	0.716800	0.696000
C821	C82	0.247100	0.701100	0.009900
C831	C83	0.288800	0.690000	0.950500
C841	C84	0.373700	0.718000	0.947900
C851	C85	0.410500	0.709300	0.891800
C861	C86	0.360700	0.670500	0.838500
C871	C87	0.273500	0.640100	0.842600
C881	C88	0.237800	0.650000	0.897300
C891	C89	0.293100	0.368400	0.453400
C901	C90	0.326100	0.425400	0.509800
C911	C91	0.264200	0.451900	0.560900
C921	C92	0.288900	0.505400	0.611600
C931	C93	0.382100	0.534400	0.613600
C941	C94	0.445300	0.507000	0.563600
C951	C95	0.416400	0.453700	0.512400
C961	C96	0.688500	0.880100	0.686100
C971	C97	0.632900	0.834000	0.697200
C981	C98	0.659100	0.771400	0.659700
C991	C99	0.610000	0.729300	0.668000
C1001	C100	0.533400	0.743300	0.710400
C1011	C101	0.508700	0.805900	0.747000
C1021	C102	0.559900	0.849900	0.740300
C1031	C103	0.394400	0.661800	0.780200
C1041	C104	0.376900	0.604900	0.725300
C1051	C105	0.406900	0.594000	0.668000
C1061	C106	0.456800	0.639200	0.664100
C1071	C107	0.445400	0.704800	0.772700
C1081	C108	0.478500	0.696000	0.716800
C1091	C109	0.913770	0.990100	0.691200
C1101	C110	0.955470	0.049500	0.739500
C1111	C111	0.040370	0.052100	0.770100
C1121	C112	0.077170	0.108200	0.817500
C1131	C113	0.027370	0.161500	0.832000
C1141	C114	0.940170	0.157400	0.797500
C1151	C115	0.904470	0.102700	0.752700
C1161	C116	0.959770	0.546600	0.915000
C1171	C117	0.992770	0.490200	0.915600
C1181	C118	0.930870	0.439100	0.891000
C1191	C119	0.955570	0.388400	0.893800
C1201	C120	0.048770	0.386400	0.920800
C1211	C121	0.111970	0.436400	0.943400
C1221	C122	0.083070	0.487600	0.941300
C1231	C123	0.355170	0.313900	0.194000
C1241	C124	0.299570	0.302800	0.136800
C1251	C125	0.325770	0.340300	0.111700
C1261	C126	0.276670	0.332000	0.061300
C1271	C127	0.200070	0.289600	0.032900
C1281	C128	0.175370	0.253000	0.058900
C1291	C129	0.226570	0.259700	0.109600
C1301	C130	0.061070	0.219800	0.881600
C1311	C131	0.043570	0.274700	0.879600
C1321	C132	0.073570	0.332000	0.926000
C1331	C133	0.123470	0.335900	0.975100
C1341	C134	0.112070	0.227300	0.932100
C1351	C135	0.145170	0.283200	0.979200
C1361	C136	0.580430	0.308800	0.298900
C1371	C137	0.622130	0.260500	0.310000
C1381	C138	0.707030	0.229900	0.282000
C1391	C139	0.743830	0.182500	0.290700
C1401	C140	0.694030	0.168000	0.329500
C1411	C141	0.606830	0.202500	0.359900
C1421	C142	0.571130	0.247300	0.350000
C1431	C143	0.626430	0.085000	0.631600
C1441	C144	0.659430	0.084400	0.574600
C1451	C145	0.597530	0.109000	0.548100
C1461	C146	0.622230	0.106200	0.494600
C1471	C147	0.715430	0.079200	0.465600
C1481	C148	0.778630	0.056600	0.493000
C1491	C149	0.749730	0.058700	0.546300
C1501	C150	0.021830	0.806000	0.119900
C1511	C151	0.966230	0.863200	0.166000
C1521	C152	0.992430	0.888300	0.228600
C1531	C153	0.943330	0.938700	0.270700
C1541	C154	0.866730	0.967100	0.256700
C1551	C155	0.842030	0.941100	0.194100
C1561	C156	0.893230	0.890400	0.150100
C1571	C157	0.727730	0.118400	0.338200
C1581	C158	0.710230	0.120400	0.395100
C1591	C159	0.740230	0.074000	0.406000
C1601	C160	0.790130	0.024900	0.360800
C1611	C161	0.778730	0.067900	0.295200
C1621	C162	0.811830	0.020800	0.304000
O11	O1	0.695900	0.666900	0.943100
O21	O2	0.842600	0.672920	0.985530
O31	O3	0.795400	0.892600	0.543320
O41	O4	0.649100	0.935820	0.590500
O51	O5	0.236000	0.207320	0.347250
O61	O6	0.349200	0.222920	0.290890
O71	O7	0.029230	0.276200	0.333100
O81	O8	0.175930	0.312610	0.327080
O91	O9	0.128730	0.650720	0.107400
O101	O10	0.982430	0.654680	0.064180
O111	O11	0.569330	0.139930	0.792680
O121	O12	0.682530	0.067970	0.777080
O131	O13	0.362570	0.056900	0.723800
O141	O14	0.509270	0.014470	0.687390
O151	O15	0.462070	0.456680	0.349280
O161	O16	0.315770	0.409500	0.345320
O171	O17	0.902670	0.652750	0.860070
O181	O18	0.015870	0.709110	0.932030
O191	O19	0.304100	0.723800	0.056900
O201	O20	0.157400	0.687390	0.014470
O211	O21	0.204600	0.349280	0.456680
O221	O22	0.350900	0.345320	0.409500
O231	O23	0.764000	0.860070	0.652750
O241	O24	0.650800	0.932030	0.709110
O251	O25	0.970770	0.943100	0.666900
O261	O26	0.824070	0.985530	0.672920
O271	O27	0.871270	0.543320	0.892600
O281	O28	0.017570	0.590500	0.935820
O291	O29	0.430670	0.347250	0.207320
O301	O30	0.317470	0.290890	0.222920
O311	O31	0.637430	0.333100	0.276200
O321	O32	0.490730	0.327080	0.312610
O331	O33	0.537930	0.107400	0.650720
O341	O34	0.684230	0.064180	0.654680
O351	O35	0.097330	0.792680	0.139930
O361	O36	0.984130	0.777080	0.067970
