data_HEMVEB_clean_PM
_symmetry_space_group_name_H-M	'P1'
_cell_length_a	14.895200
_cell_length_b	9.713300
_cell_length_c	13.687800
_cell_angle_alpha	90.000000
_cell_angle_beta	90.000000
_cell_angle_gamma	90.000000
_symmetry_Int_Tables_number 1

loop_
_symmetry_equiv_pos_as_xyz
'x,y,z'

loop_
_atom_site_label
_atom_site_type_symbol
_atom_site_fract_x
_atom_site_fract_y
_atom_site_fract_z
O11	O1	0.085410	0.304040	0.369390
O21	O2	0.108160	0.142010	0.656940
O31	O3	0.585410	0.804040	0.369390
O41	O4	0.608160	0.642010	0.656940
O51	O5	0.914590	0.695960	0.869390
O61	O6	0.891840	0.857990	0.156940
O71	O7	0.414590	0.195960	0.869390
O81	O8	0.391840	0.357990	0.156940
O91	O9	0.914590	0.304040	0.130610
O101	O10	0.891840	0.142010	0.843060
O111	O11	0.414590	0.804040	0.130610
O121	O12	0.391840	0.642010	0.843060
O131	O13	0.085410	0.695960	0.630610
O141	O14	0.108160	0.857990	0.343060
O151	O15	0.585410	0.195960	0.630610
O161	O16	0.608160	0.357990	0.343060
O171	O17	0.914590	0.695960	0.630610
O181	O18	0.891840	0.857990	0.343060
O191	O19	0.414590	0.195960	0.630610
O201	O20	0.391840	0.357990	0.343060
O211	O21	0.085410	0.304040	0.130610
O221	O22	0.108160	0.142010	0.843060
O231	O23	0.585410	0.804040	0.130610
O241	O24	0.608160	0.642010	0.843060
O251	O25	0.085410	0.695960	0.869390
O261	O26	0.108160	0.857990	0.156940
O271	O27	0.585410	0.195960	0.869390
O281	O28	0.608160	0.357990	0.156940
O291	O29	0.914590	0.304040	0.369390
O301	O30	0.891840	0.142010	0.656940
O311	O31	0.414590	0.804040	0.369390
O321	O32	0.391840	0.642010	0.656940
Co11	Co1	0.000000	0.049400	0.612470
P11	P1	0.000000	0.274690	0.427560
O331	O33	0.000000	0.125700	0.465540
O341	O34	0.000000	0.371300	0.518250
Co21	Co2	0.500000	0.549400	0.612470
P21	P2	0.500000	0.774690	0.427560
O351	O35	0.500000	0.625700	0.465540
O361	O36	0.500000	0.871300	0.518250
Co31	Co3	0.000000	0.950600	0.112470
P31	P3	0.000000	0.725310	0.927560
O371	O37	0.000000	0.874300	0.965540
O381	O38	0.000000	0.628700	0.018250
Co41	Co4	0.500000	0.450600	0.112470
P41	P4	0.500000	0.225310	0.927560
O391	O39	0.500000	0.374300	0.965540
O401	O40	0.500000	0.128700	0.018250
Co51	Co5	0.000000	0.049400	0.887530
P51	P5	0.000000	0.274690	0.072440
O411	O41	0.000000	0.125700	0.034460
O421	O42	0.000000	0.371300	0.981750
Co61	Co6	0.500000	0.549400	0.887530
P61	P6	0.500000	0.774690	0.072440
O431	O43	0.500000	0.625700	0.034460
O441	O44	0.500000	0.871300	0.981750
Co71	Co7	0.000000	0.950600	0.387530
P71	P7	0.000000	0.725310	0.572440
O451	O45	0.000000	0.874300	0.534460
O461	O46	0.000000	0.628700	0.481750
Co81	Co8	0.500000	0.450600	0.387530
P81	P8	0.500000	0.225310	0.572440
O471	O47	0.500000	0.374300	0.534460
O481	O48	0.500000	0.128700	0.481750
Co91	Co9	0.129050	0.214510	0.250000
Co101	Co10	0.629050	0.714510	0.250000
Co111	Co11	0.870950	0.785490	0.750000
Co121	Co12	0.370950	0.285490	0.750000
Co131	Co13	0.870950	0.214510	0.250000
Co141	Co14	0.370950	0.714510	0.250000
Co151	Co15	0.129050	0.785490	0.750000
Co161	Co16	0.629050	0.285490	0.750000
P91	P9	0.162760	0.112570	0.750000
O491	O49	0.193290	0.960900	0.750000
O501	O50	0.245140	0.203900	0.750000
P101	P10	0.662760	0.612570	0.750000
O511	O51	0.693290	0.460900	0.750000
O521	O52	0.745140	0.703900	0.750000
P111	P11	0.837240	0.887430	0.250000
O531	O53	0.806710	0.039100	0.250000
O541	O54	0.754860	0.796100	0.250000
P121	P12	0.337240	0.387430	0.250000
O551	O55	0.306710	0.539100	0.250000
O561	O56	0.254860	0.296100	0.250000
P131	P13	0.837240	0.112570	0.750000
O571	O57	0.806710	0.960900	0.750000
O581	O58	0.754860	0.203900	0.750000
P141	P14	0.337240	0.612570	0.750000
O591	O59	0.306710	0.460900	0.750000
O601	O60	0.254860	0.703900	0.750000
P151	P15	0.162760	0.887430	0.250000
O611	O61	0.193290	0.039100	0.250000
O621	O62	0.245140	0.796100	0.250000
P161	P16	0.662760	0.387430	0.250000
O631	O63	0.693290	0.539100	0.250000
O641	O64	0.745140	0.296100	0.250000
