data_HEXNUU_clean_PM
_symmetry_space_group_name_H-M	'P1'
_cell_length_a	17.268000
_cell_length_b	15.465000
_cell_length_c	17.929000
_cell_angle_alpha	90.000000
_cell_angle_beta	90.000000
_cell_angle_gamma	90.000000
_symmetry_Int_Tables_number 1

loop_
_symmetry_equiv_pos_as_xyz
'x,y,z'

loop_
_atom_site_label
_atom_site_type_symbol
_atom_site_fract_x
_atom_site_fract_y
_atom_site_fract_z
C11	C1	0.787800	0.030700	0.895000
H11	H1	0.808800	0.976400	0.904300
C21	C2	0.810600	0.073300	0.831300
H21	H2	0.845600	0.047700	0.798500
C31	C3	0.780400	0.156100	0.816400
C41	C4	0.729500	0.191100	0.869100
H31	H3	0.709100	0.246200	0.862600
C51	C5	0.710100	0.142600	0.930900
H41	H4	0.676100	0.166900	0.965300
C61	C6	0.679400	0.371900	0.679700
H51	H5	0.630400	0.395300	0.686900
C71	C7	0.701600	0.304800	0.725100
H61	H6	0.668300	0.283600	0.761500
C81	C8	0.775500	0.269000	0.715430
C91	C9	0.823000	0.306000	0.660900
H71	H7	0.873100	0.285600	0.654000
C101	C10	0.795300	0.372300	0.617700
H81	H8	0.827600	0.395200	0.581100
C111	C11	0.818800	0.918100	0.151940
H91	H9	0.791000	0.953500	0.184200
C121	C12	0.886200	0.882000	0.177400
H101	H10	0.903400	0.893700	0.225500
C131	C13	0.929400	0.827100	0.130500
C141	C14	0.898700	0.811700	0.058800
H111	H11	0.924000	0.774900	0.025800
C151	C15	0.831000	0.851900	0.038400
H121	H12	0.812100	0.841500	0.990700
C161	C16	0.116600	0.695400	0.009800
H131	H13	0.130900	0.707600	0.960900
C171	C17	0.070100	0.754300	0.046200
H141	H14	0.054800	0.805100	0.022600
C181	C18	0.046600	0.736500	0.118500
C191	C19	0.075600	0.662600	0.152100
H151	H15	0.063700	0.650200	0.201500
C201	C20	0.122400	0.607300	0.111300
H161	H16	0.140800	0.557600	0.134400
N11	N1	0.737070	0.062730	0.944820
N21	N2	0.804430	0.197000	0.752400
H171	H17	0.844400	0.174100	0.731700
N31	N3	0.723680	0.406100	0.625520
N41	N4	0.790290	0.905370	0.082540
N51	N5	0.995410	0.789800	0.157860
H181	H18	0.006500	0.800100	0.203800
N61	N6	0.142490	0.622000	0.040080
Cd11	Cd1	0.682980	0.984330	0.044440
C211	C21	0.287800	0.469300	0.105000
H191	H19	0.308800	0.523600	0.095700
C221	C22	0.310600	0.426700	0.168700
H201	H20	0.345600	0.452300	0.201500
C231	C23	0.280400	0.343900	0.183600
C241	C24	0.229500	0.308900	0.130900
H211	H21	0.209100	0.253800	0.137400
C251	C25	0.210100	0.357400	0.069100
H221	H22	0.176100	0.333100	0.034700
C261	C26	0.179400	0.128100	0.320300
H231	H23	0.130400	0.104700	0.313100
C271	C27	0.201600	0.195200	0.274900
H241	H24	0.168300	0.216400	0.238500
C281	C28	0.275500	0.231000	0.284570
C291	C29	0.323000	0.194000	0.339100
H251	H25	0.373100	0.214400	0.346000
C301	C30	0.295300	0.127700	0.382300
H261	H26	0.327600	0.104800	0.418900
C311	C31	0.318800	0.581900	0.848060
H271	H27	0.291000	0.546500	0.815800
C321	C32	0.386200	0.618000	0.822600
H281	H28	0.403400	0.606300	0.774500
C331	C33	0.429400	0.672900	0.869500
C341	C34	0.398700	0.688300	0.941200
H291	H29	0.424000	0.725100	0.974200
C351	C35	0.331000	0.648100	0.961600
H301	H30	0.312100	0.658500	0.009300
C361	C36	0.616600	0.804600	0.990200
H311	H31	0.630900	0.792400	0.039100
C371	C37	0.570100	0.745700	0.953800
H321	H32	0.554800	0.694900	0.977400
C381	C38	0.546600	0.763500	0.881500
C391	C39	0.575600	0.837400	0.847900
H331	H33	0.563700	0.849800	0.798500
C401	C40	0.622400	0.892700	0.888700
H341	H34	0.640800	0.942400	0.865600
N71	N7	0.237070	0.437270	0.055180
N81	N8	0.304430	0.303000	0.247600
H351	H35	0.344400	0.325900	0.268300
N91	N9	0.223680	0.093900	0.374480
N101	N10	0.290290	0.594630	0.917460
N111	N11	0.495410	0.710200	0.842140
H361	H36	0.506500	0.699900	0.796200
N121	N12	0.642490	0.878000	0.959920
Cd21	Cd2	0.182980	0.515670	0.955570
C411	C41	0.287800	0.030700	0.605000
H371	H37	0.308800	0.976400	0.595700
C421	C42	0.310600	0.073300	0.668700
H381	H38	0.345600	0.047700	0.701500
C431	C43	0.280400	0.156100	0.683600
C441	C44	0.229500	0.191100	0.630900
H391	H39	0.209100	0.246200	0.637400
C451	C45	0.210100	0.142600	0.569100
H401	H40	0.176100	0.166900	0.534700
C461	C46	0.179400	0.371900	0.820300
H411	H41	0.130400	0.395300	0.813100
C471	C47	0.201600	0.304800	0.774900
H421	H42	0.168300	0.283600	0.738500
C481	C48	0.275500	0.269000	0.784570
C491	C49	0.323000	0.306000	0.839100
H431	H43	0.373100	0.285600	0.846000
C501	C50	0.295300	0.372300	0.882300
H441	H44	0.327600	0.395200	0.918900
C511	C51	0.318800	0.918100	0.348060
H451	H45	0.291000	0.953500	0.315800
C521	C52	0.386200	0.882000	0.322600
H461	H46	0.403400	0.893700	0.274500
C531	C53	0.429400	0.827100	0.369500
C541	C54	0.398700	0.811700	0.441200
H471	H47	0.424000	0.774900	0.474200
C551	C55	0.331000	0.851900	0.461600
H481	H48	0.312100	0.841500	0.509300
C561	C56	0.616600	0.695400	0.490200
H491	H49	0.630900	0.707600	0.539100
C571	C57	0.570100	0.754300	0.453800
H501	H50	0.554800	0.805100	0.477400
C581	C58	0.546600	0.736500	0.381500
C591	C59	0.575600	0.662600	0.347900
H511	H51	0.563700	0.650200	0.298500
C601	C60	0.622400	0.607300	0.388700
H521	H52	0.640800	0.557600	0.365600
N131	N13	0.237070	0.062730	0.555180
N141	N14	0.304430	0.197000	0.747600
H531	H53	0.344400	0.174100	0.768300
N151	N15	0.223680	0.406100	0.874480
N161	N16	0.290290	0.905370	0.417460
N171	N17	0.495410	0.789800	0.342140
H541	H54	0.506500	0.800100	0.296200
N181	N18	0.642490	0.622000	0.459920
Cd31	Cd3	0.182980	0.984330	0.455570
C611	C61	0.787800	0.469300	0.395000
H551	H55	0.808800	0.523600	0.404300
C621	C62	0.810600	0.426700	0.331300
H561	H56	0.845600	0.452300	0.298500
C631	C63	0.780400	0.343900	0.316400
C641	C64	0.729500	0.308900	0.369100
H571	H57	0.709100	0.253800	0.362600
C651	C65	0.710100	0.357400	0.430900
H581	H58	0.676100	0.333100	0.465300
C661	C66	0.679400	0.128100	0.179700
H591	H59	0.630400	0.104700	0.186900
C671	C67	0.701600	0.195200	0.225100
H601	H60	0.668300	0.216400	0.261500
C681	C68	0.775500	0.231000	0.215430
C691	C69	0.823000	0.194000	0.160900
H611	H61	0.873100	0.214400	0.154000
C701	C70	0.795300	0.127700	0.117700
H621	H62	0.827600	0.104800	0.081100
C711	C71	0.818800	0.581900	0.651940
H631	H63	0.791000	0.546500	0.684200
C721	C72	0.886200	0.618000	0.677400
H641	H64	0.903400	0.606300	0.725500
C731	C73	0.929400	0.672900	0.630500
C741	C74	0.898700	0.688300	0.558800
H651	H65	0.924000	0.725100	0.525800
C751	C75	0.831000	0.648100	0.538400
H661	H66	0.812100	0.658500	0.490700
C761	C76	0.116600	0.804600	0.509800
H671	H67	0.130900	0.792400	0.460900
C771	C77	0.070100	0.745700	0.546200
H681	H68	0.054800	0.694900	0.522600
C781	C78	0.046600	0.763500	0.618500
C791	C79	0.075600	0.837400	0.652100
H691	H69	0.063700	0.849800	0.701500
C801	C80	0.122400	0.892700	0.611300
H701	H70	0.140800	0.942400	0.634400
N191	N19	0.737070	0.437270	0.444820
N201	N20	0.804430	0.303000	0.252400
H711	H71	0.844400	0.325900	0.231700
N211	N21	0.723680	0.093900	0.125520
N221	N22	0.790290	0.594630	0.582540
N231	N23	0.995410	0.710200	0.657860
H721	H72	0.006500	0.699900	0.703800
N241	N24	0.142490	0.878000	0.540080
Cd41	Cd4	0.682980	0.515670	0.544440
C811	C81	0.712200	0.969300	0.395000
H731	H73	0.691200	0.023600	0.404300
C821	C82	0.689400	0.926700	0.331300
H741	H74	0.654400	0.952300	0.298500
C831	C83	0.719600	0.843900	0.316400
C841	C84	0.770500	0.808900	0.369100
H751	H75	0.790900	0.753800	0.362600
C851	C85	0.789900	0.857400	0.430900
H761	H76	0.823900	0.833100	0.465300
C861	C86	0.820600	0.628100	0.179700
H771	H77	0.869600	0.604700	0.186900
C871	C87	0.798400	0.695200	0.225100
H781	H78	0.831700	0.716400	0.261500
C881	C88	0.724500	0.731000	0.215430
C891	C89	0.677000	0.694000	0.160900
H791	H79	0.626900	0.714400	0.154000
C901	C90	0.704700	0.627700	0.117700
H801	H80	0.672400	0.604800	0.081100
C911	C91	0.681200	0.081900	0.651940
H811	H81	0.709000	0.046500	0.684200
C921	C92	0.613800	0.118000	0.677400
H821	H82	0.596600	0.106300	0.725500
C931	C93	0.570600	0.172900	0.630500
C941	C94	0.601300	0.188300	0.558800
H831	H83	0.576000	0.225100	0.525800
C951	C95	0.669000	0.148100	0.538400
H841	H84	0.687900	0.158500	0.490700
C961	C96	0.383400	0.304600	0.509800
H851	H85	0.369100	0.292400	0.460900
C971	C97	0.429900	0.245700	0.546200
H861	H86	0.445200	0.194900	0.522600
C981	C98	0.453400	0.263500	0.618500
C991	C99	0.424400	0.337400	0.652100
H871	H87	0.436300	0.349800	0.701500
C1001	C100	0.377600	0.392700	0.611300
H881	H88	0.359200	0.442400	0.634400
N251	N25	0.762930	0.937270	0.444820
N261	N26	0.695570	0.803000	0.252400
H891	H89	0.655600	0.825900	0.231700
N271	N27	0.776320	0.593900	0.125520
N281	N28	0.709710	0.094630	0.582540
N291	N29	0.504590	0.210200	0.657860
H901	H90	0.493500	0.199900	0.703800
N301	N30	0.357510	0.378000	0.540080
Cd51	Cd5	0.817020	0.015670	0.544440
C1011	C101	0.212200	0.530700	0.605000
H911	H91	0.191200	0.476400	0.595700
C1021	C102	0.189400	0.573300	0.668700
H921	H92	0.154400	0.547700	0.701500
C1031	C103	0.219600	0.656100	0.683600
C1041	C104	0.270500	0.691100	0.630900
H931	H93	0.290900	0.746200	0.637400
C1051	C105	0.289900	0.642600	0.569100
H941	H94	0.323900	0.666900	0.534700
C1061	C106	0.320600	0.871900	0.820300
H951	H95	0.369600	0.895300	0.813100
C1071	C107	0.298400	0.804800	0.774900
H961	H96	0.331700	0.783600	0.738500
C1081	C108	0.224500	0.769000	0.784570
C1091	C109	0.177000	0.806000	0.839100
H971	H97	0.126900	0.785600	0.846000
C1101	C110	0.204700	0.872300	0.882300
H981	H98	0.172400	0.895200	0.918900
C1111	C111	0.181200	0.418100	0.348060
H991	H99	0.209000	0.453500	0.315800
C1121	C112	0.113800	0.382000	0.322600
H1001	H100	0.096600	0.393700	0.274500
C1131	C113	0.070600	0.327100	0.369500
C1141	C114	0.101300	0.311700	0.441200
H1011	H101	0.076000	0.274900	0.474200
C1151	C115	0.169000	0.351900	0.461600
H1021	H102	0.187900	0.341500	0.509300
C1161	C116	0.883400	0.195400	0.490200
H1031	H103	0.869100	0.207600	0.539100
C1171	C117	0.929900	0.254300	0.453800
H1041	H104	0.945200	0.305100	0.477400
C1181	C118	0.953400	0.236500	0.381500
C1191	C119	0.924400	0.162600	0.347900
H1051	H105	0.936300	0.150200	0.298500
C1201	C120	0.877600	0.107300	0.388700
H1061	H106	0.859200	0.057600	0.365600
N311	N31	0.262930	0.562730	0.555180
N321	N32	0.195570	0.697000	0.747600
H1071	H107	0.155600	0.674100	0.768300
N331	N33	0.276320	0.906100	0.874480
N341	N34	0.209710	0.405370	0.417460
N351	N35	0.004590	0.289800	0.342140
H1081	H108	0.993500	0.300100	0.296200
N361	N36	0.857510	0.122000	0.459920
Cd61	Cd6	0.317020	0.484330	0.455570
C1211	C121	0.212200	0.969300	0.105000
H1091	H109	0.191200	0.023600	0.095700
C1221	C122	0.189400	0.926700	0.168700
H1101	H110	0.154400	0.952300	0.201500
C1231	C123	0.219600	0.843900	0.183600
C1241	C124	0.270500	0.808900	0.130900
H1111	H111	0.290900	0.753800	0.137400
C1251	C125	0.289900	0.857400	0.069100
H1121	H112	0.323900	0.833100	0.034700
C1261	C126	0.320600	0.628100	0.320300
H1131	H113	0.369600	0.604700	0.313100
C1271	C127	0.298400	0.695200	0.274900
H1141	H114	0.331700	0.716400	0.238500
C1281	C128	0.224500	0.731000	0.284570
C1291	C129	0.177000	0.694000	0.339100
H1151	H115	0.126900	0.714400	0.346000
C1301	C130	0.204700	0.627700	0.382300
H1161	H116	0.172400	0.604800	0.418900
C1311	C131	0.181200	0.081900	0.848060
H1171	H117	0.209000	0.046500	0.815800
C1321	C132	0.113800	0.118000	0.822600
H1181	H118	0.096600	0.106300	0.774500
C1331	C133	0.070600	0.172900	0.869500
C1341	C134	0.101300	0.188300	0.941200
H1191	H119	0.076000	0.225100	0.974200
C1351	C135	0.169000	0.148100	0.961600
H1201	H120	0.187900	0.158500	0.009300
C1361	C136	0.883400	0.304600	0.990200
H1211	H121	0.869100	0.292400	0.039100
C1371	C137	0.929900	0.245700	0.953800
H1221	H122	0.945200	0.194900	0.977400
C1381	C138	0.953400	0.263500	0.881500
C1391	C139	0.924400	0.337400	0.847900
H1231	H123	0.936300	0.349800	0.798500
C1401	C140	0.877600	0.392700	0.888700
H1241	H124	0.859200	0.442400	0.865600
N371	N37	0.262930	0.937270	0.055180
N381	N38	0.195570	0.803000	0.247600
H1251	H125	0.155600	0.825900	0.268300
N391	N39	0.276320	0.593900	0.374480
N401	N40	0.209710	0.094630	0.917460
N411	N41	0.004590	0.210200	0.842140
H1261	H126	0.993500	0.199900	0.796200
N421	N42	0.857510	0.378000	0.959920
Cd71	Cd7	0.317020	0.015670	0.955570
C1411	C141	0.712200	0.530700	0.895000
H1271	H127	0.691200	0.476400	0.904300
C1421	C142	0.689400	0.573300	0.831300
H1281	H128	0.654400	0.547700	0.798500
C1431	C143	0.719600	0.656100	0.816400
C1441	C144	0.770500	0.691100	0.869100
H1291	H129	0.790900	0.746200	0.862600
C1451	C145	0.789900	0.642600	0.930900
H1301	H130	0.823900	0.666900	0.965300
C1461	C146	0.820600	0.871900	0.679700
H1311	H131	0.869600	0.895300	0.686900
C1471	C147	0.798400	0.804800	0.725100
H1321	H132	0.831700	0.783600	0.761500
C1481	C148	0.724500	0.769000	0.715430
C1491	C149	0.677000	0.806000	0.660900
H1331	H133	0.626900	0.785600	0.654000
C1501	C150	0.704700	0.872300	0.617700
H1341	H134	0.672400	0.895200	0.581100
C1511	C151	0.681200	0.418100	0.151940
H1351	H135	0.709000	0.453500	0.184200
C1521	C152	0.613800	0.382000	0.177400
H1361	H136	0.596600	0.393700	0.225500
C1531	C153	0.570600	0.327100	0.130500
C1541	C154	0.601300	0.311700	0.058800
H1371	H137	0.576000	0.274900	0.025800
C1551	C155	0.669000	0.351900	0.038400
H1381	H138	0.687900	0.341500	0.990700
C1561	C156	0.383400	0.195400	0.009800
H1391	H139	0.369100	0.207600	0.960900
C1571	C157	0.429900	0.254300	0.046200
H1401	H140	0.445200	0.305100	0.022600
C1581	C158	0.453400	0.236500	0.118500
C1591	C159	0.424400	0.162600	0.152100
H1411	H141	0.436300	0.150200	0.201500
C1601	C160	0.377600	0.107300	0.111300
H1421	H142	0.359200	0.057600	0.134400
N431	N43	0.762930	0.562730	0.944820
N441	N44	0.695570	0.697000	0.752400
H1431	H143	0.655600	0.674100	0.731700
N451	N45	0.776320	0.906100	0.625520
N461	N46	0.709710	0.405370	0.082540
N471	N47	0.504590	0.289800	0.157860
H1441	H144	0.493500	0.300100	0.203800
N481	N48	0.357510	0.122000	0.040080
Cd81	Cd8	0.817020	0.484330	0.044440
