data_HEXVEM_clean_PM
_symmetry_space_group_name_H-M	'P1'
_cell_length_a	35.085800
_cell_length_b	35.085800
_cell_length_c	35.085800
_cell_angle_alpha	60.000000
_cell_angle_beta	60.000000
_cell_angle_gamma	60.000000
_symmetry_Int_Tables_number 1

loop_
_symmetry_equiv_pos_as_xyz
'x,y,z'

loop_
_atom_site_label
_atom_site_type_symbol
_atom_site_fract_x
_atom_site_fract_y
_atom_site_fract_z
Cu11	Cu1	0.509930	0.036370	0.490070
Cu21	Cu2	0.036370	0.509930	0.963630
Cu31	Cu3	0.490070	0.963630	0.509930
Cu41	Cu4	0.963630	0.490070	0.036370
Cu51	Cu5	0.509930	0.490070	0.963630
Cu61	Cu6	0.036370	0.963630	0.490070
Cu71	Cu7	0.490070	0.509930	0.036370
Cu81	Cu8	0.963630	0.036370	0.509930
Cu91	Cu9	0.509930	0.963630	0.036370
Cu101	Cu10	0.036370	0.490070	0.509930
Cu111	Cu11	0.490070	0.036370	0.963630
Cu121	Cu12	0.963630	0.509930	0.490070
H11	H1	0.510300	0.062300	0.227300
H21	H2	0.526700	0.117300	0.270700
H31	H3	0.531500	0.090900	0.341900
H41	H4	0.495600	0.986000	0.378400
H51	H5	0.491800	0.009600	0.306400
H61	H6	0.062300	0.510300	0.200100
H71	H7	0.117300	0.526700	0.085300
H81	H8	0.090900	0.531500	0.035700
H91	H9	0.986000	0.495600	0.140000
H101	H10	0.009600	0.491800	0.192200
H111	H11	0.227300	0.200100	0.510300
H121	H12	0.270700	0.085300	0.526700
H131	H13	0.341900	0.035700	0.531500
H141	H14	0.378400	0.140000	0.495600
H151	H15	0.306400	0.192200	0.491800
H161	H16	0.200100	0.227300	0.062300
H171	H17	0.085300	0.270700	0.117300
H181	H18	0.035700	0.341900	0.090900
H191	H19	0.140000	0.378400	0.986000
H201	H20	0.192200	0.306400	0.009600
H211	H21	0.510300	0.227300	0.200100
H221	H22	0.526700	0.270700	0.085300
H231	H23	0.531500	0.341900	0.035700
H241	H24	0.495600	0.378400	0.140000
H251	H25	0.491800	0.306400	0.192200
H261	H26	0.062300	0.200100	0.227300
H271	H27	0.117300	0.085300	0.270700
H281	H28	0.090900	0.035700	0.341900
H291	H29	0.986000	0.140000	0.378400
H301	H30	0.009600	0.192200	0.306400
H311	H31	0.227300	0.510300	0.062300
H321	H32	0.270700	0.526700	0.117300
H331	H33	0.341900	0.531500	0.090900
H341	H34	0.378400	0.495600	0.986000
H351	H35	0.306400	0.491800	0.009600
H361	H36	0.200100	0.062300	0.510300
H371	H37	0.085300	0.117300	0.526700
H381	H38	0.035700	0.090900	0.531500
H391	H39	0.140000	0.986000	0.495600
H401	H40	0.192200	0.009600	0.491800
H411	H41	0.510300	0.200100	0.062300
H421	H42	0.526700	0.085300	0.117300
H431	H43	0.531500	0.035700	0.090900
H441	H44	0.495600	0.140000	0.986000
H451	H45	0.491800	0.192200	0.009600
H461	H46	0.062300	0.227300	0.510300
H471	H47	0.117300	0.270700	0.526700
H481	H48	0.090900	0.341900	0.531500
H491	H49	0.986000	0.378400	0.495600
H501	H50	0.009600	0.306400	0.491800
H511	H51	0.227300	0.062300	0.200100
H521	H52	0.270700	0.117300	0.085300
H531	H53	0.341900	0.090900	0.035700
H541	H54	0.378400	0.986000	0.140000
H551	H55	0.306400	0.009600	0.192200
H561	H56	0.200100	0.510300	0.227300
H571	H57	0.085300	0.526700	0.270700
H581	H58	0.035700	0.531500	0.341900
H591	H59	0.140000	0.495600	0.378400
H601	H60	0.192200	0.491800	0.306400
H611	H61	0.489700	0.937700	0.772700
H621	H62	0.473300	0.882700	0.729300
H631	H63	0.468500	0.909100	0.658100
H641	H64	0.504400	0.014000	0.621600
H651	H65	0.508200	0.990400	0.693600
H661	H66	0.937700	0.489700	0.799900
H671	H67	0.882700	0.473300	0.914700
H681	H68	0.909100	0.468500	0.964300
H691	H69	0.014000	0.504400	0.860000
H701	H70	0.990400	0.508200	0.807800
H711	H71	0.772700	0.799900	0.489700
H721	H72	0.729300	0.914700	0.473300
H731	H73	0.658100	0.964300	0.468500
H741	H74	0.621600	0.860000	0.504400
H751	H75	0.693600	0.807800	0.508200
H761	H76	0.799900	0.772700	0.937700
H771	H77	0.914700	0.729300	0.882700
H781	H78	0.964300	0.658100	0.909100
H791	H79	0.860000	0.621600	0.014000
H801	H80	0.807800	0.693600	0.990400
H811	H81	0.489700	0.772700	0.799900
H821	H82	0.473300	0.729300	0.914700
H831	H83	0.468500	0.658100	0.964300
H841	H84	0.504400	0.621600	0.860000
H851	H85	0.508200	0.693600	0.807800
H861	H86	0.937700	0.799900	0.772700
H871	H87	0.882700	0.914700	0.729300
H881	H88	0.909100	0.964300	0.658100
H891	H89	0.014000	0.860000	0.621600
H901	H90	0.990400	0.807800	0.693600
H911	H91	0.772700	0.489700	0.937700
H921	H92	0.729300	0.473300	0.882700
H931	H93	0.658100	0.468500	0.909100
H941	H94	0.621600	0.504400	0.014000
H951	H95	0.693600	0.508200	0.990400
H961	H96	0.799900	0.937700	0.489700
H971	H97	0.914700	0.882700	0.473300
H981	H98	0.964300	0.909100	0.468500
H991	H99	0.860000	0.014000	0.504400
H1001	H100	0.807800	0.990400	0.508200
H1011	H101	0.489700	0.799900	0.937700
H1021	H102	0.473300	0.914700	0.882700
H1031	H103	0.468500	0.964300	0.909100
H1041	H104	0.504400	0.860000	0.014000
H1051	H105	0.508200	0.807800	0.990400
H1061	H106	0.937700	0.772700	0.489700
H1071	H107	0.882700	0.729300	0.473300
H1081	H108	0.909100	0.658100	0.468500
H1091	H109	0.014000	0.621600	0.504400
H1101	H110	0.990400	0.693600	0.508200
H1111	H111	0.772700	0.937700	0.799900
H1121	H112	0.729300	0.882700	0.914700
H1131	H113	0.658100	0.909100	0.964300
H1141	H114	0.621600	0.014000	0.860000
H1151	H115	0.693600	0.990400	0.807800
H1161	H116	0.799900	0.489700	0.772700
H1171	H117	0.914700	0.473300	0.729300
H1181	H118	0.964300	0.468500	0.658100
H1191	H119	0.860000	0.504400	0.621600
H1201	H120	0.807800	0.508200	0.693600
C11	C1	0.506800	0.124600	0.196400
C21	C2	0.508800	0.067200	0.279800
C31	C3	0.520000	0.089800	0.292600
C41	C4	0.522100	0.074500	0.335500
C51	C5	0.510700	0.035100	0.371100
C61	C6	0.501500	0.013900	0.356500
C71	C7	0.499400	0.027400	0.313000
C81	C8	0.511900	0.024300	0.416700
C91	C9	0.124600	0.506800	0.172200
C101	C10	0.067200	0.508800	0.144200
C111	C11	0.089800	0.520000	0.097600
C121	C12	0.074500	0.522100	0.067900
C131	C13	0.035100	0.510700	0.083100
C141	C14	0.013900	0.501500	0.128100
C151	C15	0.027400	0.499400	0.160200
C161	C16	0.024300	0.511900	0.047100
C171	C17	0.196400	0.172200	0.506800
C181	C18	0.279800	0.144200	0.508800
C191	C19	0.292600	0.097600	0.520000
C201	C20	0.335500	0.067900	0.522100
C211	C21	0.371100	0.083100	0.510700
C221	C22	0.356500	0.128100	0.501500
C231	C23	0.313000	0.160200	0.499400
C241	C24	0.416700	0.047100	0.511900
C251	C25	0.172200	0.196400	0.124600
C261	C26	0.144200	0.279800	0.067200
C271	C27	0.097600	0.292600	0.089800
C281	C28	0.067900	0.335500	0.074500
C291	C29	0.083100	0.371100	0.035100
C301	C30	0.128100	0.356500	0.013900
C311	C31	0.160200	0.313000	0.027400
C321	C32	0.047100	0.416700	0.024300
C331	C33	0.506800	0.196400	0.172200
C341	C34	0.508800	0.279800	0.144200
C351	C35	0.520000	0.292600	0.097600
C361	C36	0.522100	0.335500	0.067900
C371	C37	0.510700	0.371100	0.083100
C381	C38	0.501500	0.356500	0.128100
C391	C39	0.499400	0.313000	0.160200
C401	C40	0.511900	0.416700	0.047100
C411	C41	0.124600	0.172200	0.196400
C421	C42	0.067200	0.144200	0.279800
C431	C43	0.089800	0.097600	0.292600
C441	C44	0.074500	0.067900	0.335500
C451	C45	0.035100	0.083100	0.371100
C461	C46	0.013900	0.128100	0.356500
C471	C47	0.027400	0.160200	0.313000
C481	C48	0.024300	0.047100	0.416700
C491	C49	0.196400	0.506800	0.124600
C501	C50	0.279800	0.508800	0.067200
C511	C51	0.292600	0.520000	0.089800
C521	C52	0.335500	0.522100	0.074500
C531	C53	0.371100	0.510700	0.035100
C541	C54	0.356500	0.501500	0.013900
C551	C55	0.313000	0.499400	0.027400
C561	C56	0.416700	0.511900	0.024300
C571	C57	0.172200	0.124600	0.506800
C581	C58	0.144200	0.067200	0.508800
C591	C59	0.097600	0.089800	0.520000
C601	C60	0.067900	0.074500	0.522100
C611	C61	0.083100	0.035100	0.510700
C621	C62	0.128100	0.013900	0.501500
C631	C63	0.160200	0.027400	0.499400
C641	C64	0.047100	0.024300	0.511900
C651	C65	0.506800	0.172200	0.124600
C661	C66	0.508800	0.144200	0.067200
C671	C67	0.520000	0.097600	0.089800
C681	C68	0.522100	0.067900	0.074500
C691	C69	0.510700	0.083100	0.035100
C701	C70	0.501500	0.128100	0.013900
C711	C71	0.499400	0.160200	0.027400
C721	C72	0.511900	0.047100	0.024300
C731	C73	0.124600	0.196400	0.506800
C741	C74	0.067200	0.279800	0.508800
C751	C75	0.089800	0.292600	0.520000
C761	C76	0.074500	0.335500	0.522100
C771	C77	0.035100	0.371100	0.510700
C781	C78	0.013900	0.356500	0.501500
C791	C79	0.027400	0.313000	0.499400
C801	C80	0.024300	0.416700	0.511900
C811	C81	0.196400	0.124600	0.172200
C821	C82	0.279800	0.067200	0.144200
C831	C83	0.292600	0.089800	0.097600
C841	C84	0.335500	0.074500	0.067900
C851	C85	0.371100	0.035100	0.083100
C861	C86	0.356500	0.013900	0.128100
C871	C87	0.313000	0.027400	0.160200
C881	C88	0.416700	0.024300	0.047100
C891	C89	0.172200	0.506800	0.196400
C901	C90	0.144200	0.508800	0.279800
C911	C91	0.097600	0.520000	0.292600
C921	C92	0.067900	0.522100	0.335500
C931	C93	0.083100	0.510700	0.371100
C941	C94	0.128100	0.501500	0.356500
C951	C95	0.160200	0.499400	0.313000
C961	C96	0.047100	0.511900	0.416700
C971	C97	0.493200	0.875400	0.803600
C981	C98	0.491200	0.932800	0.720200
C991	C99	0.480000	0.910200	0.707400
C1001	C100	0.477900	0.925500	0.664500
C1011	C101	0.489300	0.964900	0.628900
C1021	C102	0.498500	0.986100	0.643500
C1031	C103	0.500600	0.972600	0.687000
C1041	C104	0.488100	0.975700	0.583300
C1051	C105	0.875400	0.493200	0.827800
C1061	C106	0.932800	0.491200	0.855800
C1071	C107	0.910200	0.480000	0.902400
C1081	C108	0.925500	0.477900	0.932100
C1091	C109	0.964900	0.489300	0.916900
C1101	C110	0.986100	0.498500	0.871900
C1111	C111	0.972600	0.500600	0.839800
C1121	C112	0.975700	0.488100	0.952900
C1131	C113	0.803600	0.827800	0.493200
C1141	C114	0.720200	0.855800	0.491200
C1151	C115	0.707400	0.902400	0.480000
C1161	C116	0.664500	0.932100	0.477900
C1171	C117	0.628900	0.916900	0.489300
C1181	C118	0.643500	0.871900	0.498500
C1191	C119	0.687000	0.839800	0.500600
C1201	C120	0.583300	0.952900	0.488100
C1211	C121	0.827800	0.803600	0.875400
C1221	C122	0.855800	0.720200	0.932800
C1231	C123	0.902400	0.707400	0.910200
C1241	C124	0.932100	0.664500	0.925500
C1251	C125	0.916900	0.628900	0.964900
C1261	C126	0.871900	0.643500	0.986100
C1271	C127	0.839800	0.687000	0.972600
C1281	C128	0.952900	0.583300	0.975700
C1291	C129	0.493200	0.803600	0.827800
C1301	C130	0.491200	0.720200	0.855800
C1311	C131	0.480000	0.707400	0.902400
C1321	C132	0.477900	0.664500	0.932100
C1331	C133	0.489300	0.628900	0.916900
C1341	C134	0.498500	0.643500	0.871900
C1351	C135	0.500600	0.687000	0.839800
C1361	C136	0.488100	0.583300	0.952900
C1371	C137	0.875400	0.827800	0.803600
C1381	C138	0.932800	0.855800	0.720200
C1391	C139	0.910200	0.902400	0.707400
C1401	C140	0.925500	0.932100	0.664500
C1411	C141	0.964900	0.916900	0.628900
C1421	C142	0.986100	0.871900	0.643500
C1431	C143	0.972600	0.839800	0.687000
C1441	C144	0.975700	0.952900	0.583300
C1451	C145	0.803600	0.493200	0.875400
C1461	C146	0.720200	0.491200	0.932800
C1471	C147	0.707400	0.480000	0.910200
C1481	C148	0.664500	0.477900	0.925500
C1491	C149	0.628900	0.489300	0.964900
C1501	C150	0.643500	0.498500	0.986100
C1511	C151	0.687000	0.500600	0.972600
C1521	C152	0.583300	0.488100	0.975700
C1531	C153	0.827800	0.875400	0.493200
C1541	C154	0.855800	0.932800	0.491200
C1551	C155	0.902400	0.910200	0.480000
C1561	C156	0.932100	0.925500	0.477900
C1571	C157	0.916900	0.964900	0.489300
C1581	C158	0.871900	0.986100	0.498500
C1591	C159	0.839800	0.972600	0.500600
C1601	C160	0.952900	0.975700	0.488100
C1611	C161	0.493200	0.827800	0.875400
C1621	C162	0.491200	0.855800	0.932800
C1631	C163	0.480000	0.902400	0.910200
C1641	C164	0.477900	0.932100	0.925500
C1651	C165	0.489300	0.916900	0.964900
C1661	C166	0.498500	0.871900	0.986100
C1671	C167	0.500600	0.839800	0.972600
C1681	C168	0.488100	0.952900	0.975700
C1691	C169	0.875400	0.803600	0.493200
C1701	C170	0.932800	0.720200	0.491200
C1711	C171	0.910200	0.707400	0.480000
C1721	C172	0.925500	0.664500	0.477900
C1731	C173	0.964900	0.628900	0.489300
C1741	C174	0.986100	0.643500	0.498500
C1751	C175	0.972600	0.687000	0.500600
C1761	C176	0.975700	0.583300	0.488100
C1771	C177	0.803600	0.875400	0.827800
C1781	C178	0.720200	0.932800	0.855800
C1791	C179	0.707400	0.910200	0.902400
C1801	C180	0.664500	0.925500	0.932100
C1811	C181	0.628900	0.964900	0.916900
C1821	C182	0.643500	0.986100	0.871900
C1831	C183	0.687000	0.972600	0.839800
C1841	C184	0.583300	0.975700	0.952900
C1851	C185	0.827800	0.493200	0.803600
C1861	C186	0.855800	0.491200	0.720200
C1871	C187	0.902400	0.480000	0.707400
C1881	C188	0.932100	0.477900	0.664500
C1891	C189	0.916900	0.489300	0.628900
C1901	C190	0.871900	0.498500	0.643500
C1911	C191	0.839800	0.500600	0.687000
C1921	C192	0.952900	0.488100	0.583300
N11	N1	0.508200	0.157200	0.208600
N21	N2	0.508800	0.084200	0.233600
N31	N3	0.157200	0.508200	0.126000
N41	N4	0.084200	0.508800	0.173400
N51	N5	0.208600	0.126000	0.508200
N61	N6	0.233600	0.173400	0.508800
N71	N7	0.126000	0.208600	0.157200
N81	N8	0.173400	0.233600	0.084200
N91	N9	0.508200	0.208600	0.126000
N101	N10	0.508800	0.233600	0.173400
N111	N11	0.157200	0.126000	0.208600
N121	N12	0.084200	0.173400	0.233600
N131	N13	0.208600	0.508200	0.157200
N141	N14	0.233600	0.508800	0.084200
N151	N15	0.126000	0.157200	0.508200
N161	N16	0.173400	0.084200	0.508800
N171	N17	0.508200	0.126000	0.157200
N181	N18	0.508800	0.173400	0.084200
N191	N19	0.157200	0.208600	0.508200
N201	N20	0.084200	0.233600	0.508800
N211	N21	0.208600	0.157200	0.126000
N221	N22	0.233600	0.084200	0.173400
N231	N23	0.126000	0.508200	0.208600
N241	N24	0.173400	0.508800	0.233600
N251	N25	0.491800	0.842800	0.791400
N261	N26	0.491200	0.915800	0.766400
N271	N27	0.842800	0.491800	0.874000
N281	N28	0.915800	0.491200	0.826600
N291	N29	0.791400	0.874000	0.491800
N301	N30	0.766400	0.826600	0.491200
N311	N31	0.874000	0.791400	0.842800
N321	N32	0.826600	0.766400	0.915800
N331	N33	0.491800	0.791400	0.874000
N341	N34	0.491200	0.766400	0.826600
N351	N35	0.842800	0.874000	0.791400
N361	N36	0.915800	0.826600	0.766400
N371	N37	0.791400	0.491800	0.842800
N381	N38	0.766400	0.491200	0.915800
N391	N39	0.874000	0.842800	0.491800
N401	N40	0.826600	0.915800	0.491200
N411	N41	0.491800	0.874000	0.842800
N421	N42	0.491200	0.826600	0.915800
N431	N43	0.842800	0.791400	0.491800
N441	N44	0.915800	0.766400	0.491200
N451	N45	0.791400	0.842800	0.874000
N461	N46	0.766400	0.915800	0.826600
N471	N47	0.874000	0.491800	0.791400
N481	N48	0.826600	0.491200	0.766400
O11	O1	0.523550	0.045610	0.424230
O21	O2	0.495830	0.984350	0.449190
O31	O3	0.045610	0.523550	0.006610
O41	O4	0.984350	0.495830	0.070630
O51	O5	0.424230	0.006610	0.523550
O61	O6	0.449190	0.070630	0.495830
O71	O7	0.006610	0.424230	0.045610
O81	O8	0.070630	0.449190	0.984350
O91	O9	0.523550	0.424230	0.006610
O101	O10	0.495830	0.449190	0.070630
O111	O11	0.045610	0.006610	0.424230
O121	O12	0.984350	0.070630	0.449190
O131	O13	0.424230	0.523550	0.045610
O141	O14	0.449190	0.495830	0.984350
O151	O15	0.006610	0.045610	0.523550
O161	O16	0.070630	0.984350	0.495830
O171	O17	0.523550	0.006610	0.045610
O181	O18	0.495830	0.070630	0.984350
O191	O19	0.045610	0.424230	0.523550
O201	O20	0.984350	0.449190	0.495830
O211	O21	0.424230	0.045610	0.006610
O221	O22	0.449190	0.984350	0.070630
O231	O23	0.006610	0.523550	0.424230
O241	O24	0.070630	0.495830	0.449190
O251	O25	0.476450	0.954390	0.575770
O261	O26	0.504170	0.015650	0.550810
O271	O27	0.954390	0.476450	0.993390
O281	O28	0.015650	0.504170	0.929370
O291	O29	0.575770	0.993390	0.476450
O301	O30	0.550810	0.929370	0.504170
O311	O31	0.993390	0.575770	0.954390
O321	O32	0.929370	0.550810	0.015650
O331	O33	0.476450	0.575770	0.993390
O341	O34	0.504170	0.550810	0.929370
O351	O35	0.954390	0.993390	0.575770
O361	O36	0.015650	0.929370	0.550810
O371	O37	0.575770	0.476450	0.954390
O381	O38	0.550810	0.504170	0.015650
O391	O39	0.993390	0.954390	0.476450
O401	O40	0.929370	0.015650	0.504170
O411	O41	0.476450	0.993390	0.954390
O421	O42	0.504170	0.929370	0.015650
O431	O43	0.954390	0.575770	0.476450
O441	O44	0.015650	0.550810	0.504170
O451	O45	0.575770	0.954390	0.993390
O461	O46	0.550810	0.015650	0.929370
O471	O47	0.993390	0.476450	0.575770
O481	O48	0.929370	0.504170	0.550810
