data_HEYFUM_clean_PM
_symmetry_space_group_name_H-M	'P1'
_cell_length_a	5.251500
_cell_length_b	15.197300
_cell_length_c	17.570100
_cell_angle_alpha	90.000000
_cell_angle_beta	91.459000
_cell_angle_gamma	90.000000
_symmetry_Int_Tables_number 1

loop_
_symmetry_equiv_pos_as_xyz
'x,y,z'

loop_
_atom_site_label
_atom_site_type_symbol
_atom_site_fract_x
_atom_site_fract_y
_atom_site_fract_z
Zn11	Zn1	0.197700	0.403500	0.459000
Zn21	Zn2	0.106500	0.255800	0.186400
Zn31	Zn3	0.293500	0.100700	0.488200
Zn41	Zn4	0.790100	0.231800	0.448800
P11	P1	0.278200	0.240700	0.358500
P21	P2	0.282000	0.613800	0.441800
P31	P3	0.277400	0.409000	0.084300
O11	O1	0.234000	0.338300	0.364900
O21	O2	0.177900	0.523000	0.424600
O31	O3	0.565900	0.618300	0.457700
O41	O4	0.139800	0.649300	0.512200
O51	O5	0.168900	0.204100	0.283900
O61	O6	0.214600	0.374400	0.163300
O71	O7	0.211500	0.672100	0.373700
O81	O8	0.180200	0.502400	0.078100
O91	O9	0.134600	0.353400	0.022100
O101	O10	0.564200	0.400400	0.072600
O111	O11	0.135500	0.194700	0.425400
O121	O12	0.557500	0.213700	0.366200
Zn51	Zn5	0.302300	0.903500	0.041000
Zn61	Zn6	0.393500	0.755800	0.313600
Zn71	Zn7	0.206500	0.600700	0.011800
Zn81	Zn8	0.709900	0.731800	0.051200
P41	P4	0.221800	0.740700	0.141500
P51	P5	0.218000	0.113800	0.058200
P61	P6	0.222600	0.909000	0.415700
O131	O13	0.266000	0.838300	0.135100
O141	O14	0.322100	0.023000	0.075400
O151	O15	0.934100	0.118300	0.042300
O161	O16	0.360200	0.149300	0.987800
O171	O17	0.331100	0.704100	0.216100
O181	O18	0.285400	0.874400	0.336700
O191	O19	0.288500	0.172100	0.126300
O201	O20	0.319800	0.002400	0.421900
O211	O21	0.365400	0.853400	0.477900
O221	O22	0.935800	0.900400	0.427400
O231	O23	0.364500	0.694700	0.074600
O241	O24	0.942500	0.713700	0.133800
Zn91	Zn9	0.802300	0.596500	0.541000
Zn101	Zn10	0.893500	0.744200	0.813600
Zn111	Zn11	0.706500	0.899300	0.511800
Zn121	Zn12	0.209900	0.768200	0.551200
P71	P7	0.721800	0.759300	0.641500
P81	P8	0.718000	0.386200	0.558200
P91	P9	0.722600	0.591000	0.915700
O251	O25	0.766000	0.661700	0.635100
O261	O26	0.822100	0.477000	0.575400
O271	O27	0.434100	0.381700	0.542300
O281	O28	0.860200	0.350700	0.487800
O291	O29	0.831100	0.795900	0.716100
O301	O30	0.785400	0.625600	0.836700
O311	O31	0.788500	0.327900	0.626300
O321	O32	0.819800	0.497600	0.921900
O331	O33	0.865400	0.646600	0.977900
O341	O34	0.435800	0.599600	0.927400
O351	O35	0.864500	0.805300	0.574600
O361	O36	0.442500	0.786300	0.633800
Zn131	Zn13	0.697700	0.096500	0.959000
Zn141	Zn14	0.606500	0.244200	0.686400
Zn151	Zn15	0.793500	0.399300	0.988200
Zn161	Zn16	0.290100	0.268200	0.948800
P101	P10	0.778200	0.259300	0.858500
P111	P11	0.782000	0.886200	0.941800
P121	P12	0.777400	0.091000	0.584300
O371	O37	0.734000	0.161700	0.864900
O381	O38	0.677900	0.977000	0.924600
O391	O39	0.065900	0.881700	0.957700
O401	O40	0.639800	0.850700	0.012200
O411	O41	0.668900	0.295900	0.783900
O421	O42	0.714600	0.125600	0.663300
O431	O43	0.711500	0.827900	0.873700
O441	O44	0.680200	0.997600	0.578100
O451	O45	0.634600	0.146600	0.522100
O461	O46	0.064200	0.099600	0.572600
O471	O47	0.635500	0.305300	0.925400
O481	O48	0.057500	0.286300	0.866200
