data_HEZKIH_clean_PM
_symmetry_space_group_name_H-M	'P1'
_cell_length_a	13.075700
_cell_length_b	14.115700
_cell_length_c	16.663100
_cell_angle_alpha	66.602000
_cell_angle_beta	87.138000
_cell_angle_gamma	89.757000
_symmetry_Int_Tables_number 1

loop_
_symmetry_equiv_pos_as_xyz
'x,y,z'

loop_
_atom_site_label
_atom_site_type_symbol
_atom_site_fract_x
_atom_site_fract_y
_atom_site_fract_z
Zn11	Zn1	0.235220	0.833700	0.417930
Zn21	Zn2	0.902830	0.461070	0.281740
Zn31	Zn3	0.747080	0.589920	0.128950
Zn41	Zn4	0.408180	0.959170	0.257230
H11	H1	0.087200	0.731100	0.245500
H21	H2	0.986900	0.817500	0.000300
H31	H3	0.221900	0.974600	0.044600
H41	H4	0.170500	0.097000	0.914700
H51	H5	0.250500	0.023800	0.891100
H61	H6	0.088900	0.118700	0.776400
H71	H7	0.171100	0.227800	0.262900
H81	H8	0.120900	0.276600	0.486300
H91	H9	0.310300	0.049100	0.483100
H101	H10	0.227500	0.257800	0.607500
H111	H11	0.124700	0.188400	0.627400
H121	H12	0.297200	0.114100	0.736100
H131	H13	0.579300	0.683000	0.302600
H141	H14	0.725300	0.473300	0.506500
H151	H15	0.490800	0.637400	0.552200
H161	H16	0.697700	0.376900	0.651700
H171	H17	0.769000	0.475500	0.636800
H181	H18	0.647000	0.367800	0.797400
H191	H19	0.828500	0.481500	0.760500
H201	H20	0.766700	0.472800	0.907000
H211	H21	0.855600	0.393000	0.909800
H221	H22	0.805000	0.401100	0.046900
H231	H23	0.681100	0.188300	0.275600
H241	H24	0.617000	0.174500	0.045200
C11	C1	0.231600	0.874300	0.217000
C21	C2	0.951200	0.671600	0.160000
C31	C3	0.162200	0.856400	0.154200
C41	C4	0.091500	0.775900	0.185200
C51	C5	0.026200	0.761100	0.127200
C61	C6	0.032400	0.826800	0.039400
C71	C7	0.105600	0.906800	0.008300
C81	C8	0.171200	0.921100	0.065600
C91	C9	0.179500	0.049400	0.884500
C101	C10	0.158200	0.102900	0.790300
C111	C11	0.300500	0.075000	0.316000
C121	C12	0.054900	0.341400	0.324300
C131	C13	0.247700	0.130000	0.366700
C141	C14	0.182200	0.209600	0.323000
C151	C15	0.132800	0.262500	0.368600
C161	C16	0.152900	0.239200	0.455900
C171	C17	0.220800	0.160000	0.498000
C181	C18	0.266400	0.104500	0.453700
C191	C19	0.200100	0.186100	0.631400
C201	C20	0.227600	0.130400	0.724100
C211	C21	0.446300	0.755700	0.388800
C221	C22	0.725800	0.544300	0.331900
C231	C23	0.524100	0.672700	0.423000
C241	C24	0.586700	0.648200	0.363800
C251	C25	0.659900	0.572400	0.395400
C261	C26	0.673800	0.523600	0.485200
C271	C27	0.611600	0.549600	0.542800
C281	C28	0.535200	0.622400	0.512000
C291	C29	0.704000	0.439100	0.664800
C301	C30	0.702300	0.409200	0.761700
C311	C31	0.775600	0.438700	0.798700
C321	C32	0.784300	0.412300	0.893500
C331	C33	0.711500	0.294700	0.031500
C341	C34	0.762200	0.342100	0.077400
C351	C35	0.750000	0.302700	0.168400
C361	C36	0.688200	0.215600	0.213500
C371	C37	0.637200	0.168900	0.167300
C381	C38	0.650200	0.207800	0.076600
C391	C39	0.800500	0.353800	0.218800
C401	C40	0.562200	0.081700	0.213900
O11	O1	0.301100	0.942400	0.182910
O21	O2	0.215000	0.822300	0.297300
O31	O3	0.968000	0.599900	0.232590
O41	O4	0.879100	0.674000	0.112590
O51	O5	0.107700	0.965200	0.920120
O61	O6	0.324800	0.979540	0.356260
O71	O7	0.323200	0.122900	0.237000
O81	O8	0.999600	0.376000	0.372010
O91	O9	0.043200	0.370600	0.244380
O101	O10	0.244700	0.129900	0.583300
O111	O11	0.464800	0.820900	0.310920
O121	O12	0.370300	0.754600	0.437710
O131	O13	0.798400	0.483000	0.362860
O141	O14	0.705000	0.581500	0.253360
O151	O15	0.618200	0.506100	0.632360
O161	O16	0.716200	0.328000	0.942390
O171	O17	0.833190	0.448550	0.178130
O181	O18	0.812300	0.307200	0.298490
O191	O19	0.516500	0.043500	0.168400
O201	O20	0.543100	0.051900	0.294300
Zn51	Zn5	0.764780	0.166300	0.582070
Zn61	Zn6	0.097170	0.538930	0.718260
Zn71	Zn7	0.252920	0.410080	0.871050
Zn81	Zn8	0.591820	0.040830	0.742770
H251	H25	0.912800	0.268900	0.754500
H261	H26	0.013100	0.182500	0.999700
H271	H27	0.778100	0.025400	0.955400
H281	H28	0.829500	0.903000	0.085300
H291	H29	0.749500	0.976200	0.108900
H301	H30	0.911100	0.881300	0.223600
H311	H31	0.828900	0.772200	0.737100
H321	H32	0.879100	0.723400	0.513700
H331	H33	0.689700	0.950900	0.516900
H341	H34	0.772500	0.742200	0.392500
H351	H35	0.875300	0.811600	0.372600
H361	H36	0.702800	0.885900	0.263900
H371	H37	0.420700	0.317000	0.697400
H381	H38	0.274700	0.526700	0.493500
H391	H39	0.509200	0.362600	0.447800
H401	H40	0.302300	0.623100	0.348300
H411	H41	0.231000	0.524500	0.363200
H421	H42	0.353000	0.632200	0.202600
H431	H43	0.171500	0.518500	0.239500
H441	H44	0.233300	0.527200	0.093000
H451	H45	0.144400	0.607000	0.090200
H461	H46	0.195000	0.598900	0.953100
H471	H47	0.318900	0.811700	0.724400
H481	H48	0.383000	0.825500	0.954800
C411	C41	0.768400	0.125700	0.783000
C421	C42	0.048800	0.328400	0.840000
C431	C43	0.837800	0.143600	0.845800
C441	C44	0.908500	0.224100	0.814800
C451	C45	0.973800	0.238900	0.872800
C461	C46	0.967600	0.173200	0.960600
C471	C47	0.894400	0.093200	0.991700
C481	C48	0.828800	0.078900	0.934400
C491	C49	0.820500	0.950600	0.115500
C501	C50	0.841800	0.897100	0.209700
C511	C51	0.699500	0.925000	0.684000
C521	C52	0.945100	0.658600	0.675700
C531	C53	0.752300	0.870000	0.633300
C541	C54	0.817800	0.790400	0.677000
C551	C55	0.867200	0.737500	0.631400
C561	C56	0.847100	0.760800	0.544100
C571	C57	0.779200	0.840000	0.502000
C581	C58	0.733600	0.895500	0.546300
C591	C59	0.799900	0.813900	0.368600
C601	C60	0.772400	0.869600	0.275900
C611	C61	0.553700	0.244300	0.611200
C621	C62	0.274200	0.455700	0.668100
C631	C63	0.475900	0.327300	0.577000
C641	C64	0.413300	0.351800	0.636200
C651	C65	0.340100	0.427600	0.604600
C661	C66	0.326200	0.476400	0.514800
C671	C67	0.388400	0.450400	0.457200
C681	C68	0.464800	0.377600	0.488000
C691	C69	0.296000	0.560900	0.335200
C701	C70	0.297700	0.590800	0.238300
C711	C71	0.224400	0.561300	0.201300
C721	C72	0.215700	0.587700	0.106500
C731	C73	0.288500	0.705300	0.968500
C741	C74	0.237800	0.657900	0.922600
C751	C75	0.250000	0.697300	0.831600
C761	C76	0.311800	0.784400	0.786500
C771	C77	0.362800	0.831100	0.832700
C781	C78	0.349800	0.792200	0.923400
C791	C79	0.199500	0.646200	0.781200
C801	C80	0.437800	0.918300	0.786100
O211	O21	0.698900	0.057600	0.817090
O221	O22	0.785000	0.177700	0.702700
O231	O23	0.032000	0.400100	0.767410
O241	O24	0.120900	0.326000	0.887410
O251	O25	0.892300	0.034800	0.079880
O261	O26	0.675200	0.020460	0.643740
O271	O27	0.676800	0.877100	0.763000
O281	O28	0.000400	0.624000	0.627990
O291	O29	0.956800	0.629400	0.755620
O301	O30	0.755300	0.870100	0.416700
O311	O31	0.535200	0.179100	0.689080
O321	O32	0.629700	0.245400	0.562290
O331	O33	0.201600	0.517000	0.637140
O341	O34	0.295000	0.418500	0.746640
O351	O35	0.381800	0.493900	0.367640
O361	O36	0.283800	0.672000	0.057610
O371	O37	0.166810	0.551450	0.821870
O381	O38	0.187700	0.692800	0.701510
O391	O39	0.483500	0.956500	0.831600
O401	O40	0.456900	0.948100	0.705700
