data_HIDBON_clean_PM
_symmetry_space_group_name_H-M	'P1'
_cell_length_a	9.399300
_cell_length_b	10.278300
_cell_length_c	17.551600
_cell_angle_alpha	103.055000
_cell_angle_beta	90.000000
_cell_angle_gamma	90.000000
_symmetry_Int_Tables_number 1

loop_
_symmetry_equiv_pos_as_xyz
'x,y,z'

loop_
_atom_site_label
_atom_site_type_symbol
_atom_site_fract_x
_atom_site_fract_y
_atom_site_fract_z
Cd11	Cd1	0.161050	0.225950	0.750200
Cd21	Cd2	0.661050	0.774050	0.749800
Cd31	Cd3	0.838950	0.774050	0.249800
Cd41	Cd4	0.338950	0.225950	0.250200
H11	H1	0.134300	0.846700	0.636200
H21	H2	0.122400	0.761800	0.501800
H31	H3	0.325000	0.747500	0.426000
H41	H4	0.553500	0.907700	0.617400
H51	H5	0.541100	0.738700	0.350500
H61	H6	0.908000	0.872300	0.441100
H71	H7	0.279600	0.407600	0.014600
H81	H8	0.591700	0.488600	0.876300
H91	H9	0.739600	0.896800	0.543700
H101	H10	0.634300	0.153300	0.863800
H111	H11	0.622400	0.238200	0.998200
H121	H12	0.825000	0.252500	0.074000
H131	H13	0.053500	0.092300	0.882600
H141	H14	0.041100	0.261300	0.149500
H151	H15	0.408000	0.127700	0.058900
H161	H16	0.779600	0.592400	0.485400
H171	H17	0.091700	0.511400	0.623700
H181	H18	0.239600	0.103200	0.956300
H191	H19	0.865700	0.153300	0.363800
H201	H20	0.877600	0.238200	0.498200
H211	H21	0.675000	0.252500	0.574000
H221	H22	0.446500	0.092300	0.382600
H231	H23	0.458900	0.261300	0.649500
H241	H24	0.092000	0.127700	0.558900
H251	H25	0.720400	0.592400	0.985400
H261	H26	0.408300	0.511400	0.123700
H271	H27	0.260400	0.103200	0.456300
H281	H28	0.365700	0.846700	0.136200
H291	H29	0.377600	0.761800	0.001800
H301	H30	0.175000	0.747500	0.926000
H311	H31	0.946500	0.907700	0.117400
H321	H32	0.958900	0.738700	0.850500
H331	H33	0.592000	0.872300	0.941100
H341	H34	0.220400	0.407600	0.514600
H351	H35	0.908300	0.488600	0.376300
H361	H36	0.760400	0.896800	0.043700
C11	C1	0.345100	0.885100	0.640030
C21	C2	0.215900	0.841800	0.605770
C31	C3	0.209100	0.790600	0.525160
C41	C4	0.330700	0.782400	0.479600
C51	C5	0.461600	0.826000	0.513550
C61	C6	0.467100	0.877700	0.593980
C71	C7	0.356200	0.933000	0.725640
C81	C8	0.589400	0.818100	0.465350
C91	C9	0.610900	0.775100	0.386610
C101	C10	0.812600	0.848000	0.435750
C111	C11	0.368000	0.444700	0.008710
C121	C12	0.422800	0.437800	0.934140
C131	C13	0.554700	0.493200	0.925970
C141	C14	0.339700	0.368100	0.863470
C151	C15	0.845100	0.114900	0.859970
C161	C16	0.715900	0.158200	0.894230
C171	C17	0.709100	0.209400	0.974840
C181	C18	0.830700	0.217600	0.020400
C191	C19	0.961600	0.174000	0.986450
C201	C20	0.967100	0.122300	0.906020
C211	C21	0.856200	0.067000	0.774360
C221	C22	0.089400	0.181900	0.034650
C231	C23	0.110900	0.224900	0.113390
C241	C24	0.312600	0.152000	0.064250
C251	C25	0.868000	0.555300	0.491290
C261	C26	0.922800	0.562200	0.565860
C271	C27	0.054700	0.506800	0.574030
C281	C28	0.839700	0.631900	0.636530
C291	C29	0.654900	0.114900	0.359970
C301	C30	0.784100	0.158200	0.394230
C311	C31	0.790900	0.209400	0.474840
C321	C32	0.669300	0.217600	0.520400
C331	C33	0.538400	0.174000	0.486450
C341	C34	0.532900	0.122300	0.406020
C351	C35	0.643800	0.067000	0.274360
C361	C36	0.410600	0.181900	0.534650
C371	C37	0.389100	0.224900	0.613390
C381	C38	0.187400	0.152000	0.564250
C391	C39	0.632000	0.555300	0.991290
C401	C40	0.577200	0.562200	0.065860
C411	C41	0.445300	0.506800	0.074030
C421	C42	0.660300	0.631900	0.136530
C431	C43	0.154900	0.885100	0.140030
C441	C44	0.284100	0.841800	0.105770
C451	C45	0.290900	0.790600	0.025160
C461	C46	0.169300	0.782400	0.979600
C471	C47	0.038400	0.826000	0.013550
C481	C48	0.032900	0.877700	0.093980
C491	C49	0.143800	0.933000	0.225640
C501	C50	0.910600	0.818100	0.965350
C511	C51	0.889100	0.775100	0.886610
C521	C52	0.687400	0.848000	0.935750
C531	C53	0.132000	0.444700	0.508710
C541	C54	0.077200	0.437800	0.434140
C551	C55	0.945300	0.493200	0.425970
C561	C56	0.160300	0.368100	0.363470
N11	N1	0.451100	0.884900	0.769340
N21	N2	0.421300	0.944700	0.844510
N31	N3	0.314900	0.024300	0.845190
N41	N4	0.271000	0.020400	0.770790
N51	N5	0.720400	0.863800	0.495230
N61	N6	0.751100	0.793500	0.368510
N71	N7	0.951100	0.115100	0.730660
N81	N8	0.921300	0.055300	0.655490
N91	N9	0.814900	0.975700	0.654810
N101	N10	0.771000	0.979600	0.729210
N111	N11	0.220400	0.136200	0.004770
N121	N12	0.251100	0.206500	0.131490
N131	N13	0.548900	0.115100	0.230660
N141	N14	0.578700	0.055300	0.155490
N151	N15	0.685100	0.975700	0.154810
N161	N16	0.729000	0.979600	0.229210
N171	N17	0.279600	0.136200	0.504770
N181	N18	0.248900	0.206500	0.631490
N191	N19	0.048900	0.884900	0.269340
N201	N20	0.078700	0.944700	0.344510
N211	N21	0.185100	0.024300	0.345190
N221	N22	0.229000	0.020400	0.270790
N231	N23	0.779600	0.863800	0.995230
N241	N24	0.748900	0.793500	0.868510
O11	O1	0.218400	0.322600	0.873950
O21	O2	0.389900	0.359500	0.797440
O31	O3	0.718400	0.677400	0.626050
O41	O4	0.889900	0.640500	0.702560
O51	O5	0.781600	0.677400	0.126050
O61	O6	0.610100	0.640500	0.202560
O71	O7	0.281600	0.322600	0.373950
O81	O8	0.110100	0.359500	0.297440
