data_HIFTOG_clean_PM
_symmetry_space_group_name_H-M	'P1'
_cell_length_a	18.366600
_cell_length_b	18.366600
_cell_length_c	18.366600
_cell_angle_alpha	60.055400
_cell_angle_beta	60.055400
_cell_angle_gamma	60.055400
_symmetry_Int_Tables_number 1

loop_
_symmetry_equiv_pos_as_xyz
'x,y,z'

loop_
_atom_site_label
_atom_site_type_symbol
_atom_site_fract_x
_atom_site_fract_y
_atom_site_fract_z
Zn11	Zn1	0.610470	0.784240	0.610470
Zn21	Zn2	0.197400	0.023470	0.197400
Zn31	Zn3	0.610470	0.610470	0.784240
Zn41	Zn4	0.197400	0.197410	0.023470
Zn51	Zn5	0.784240	0.610470	0.610470
Zn61	Zn6	0.023470	0.197410	0.197400
Zn71	Zn7	0.610110	0.610110	0.610110
Zn81	Zn8	0.197540	0.197540	0.197540
H11	H1	0.356900	0.839600	0.057300
H21	H2	0.446200	0.750900	0.968200
H31	H3	0.057300	0.356900	0.839600
H41	H4	0.968200	0.446200	0.750900
H51	H5	0.839600	0.057300	0.356900
H61	H6	0.750900	0.968200	0.446200
H71	H7	0.839600	0.356900	0.057300
H81	H8	0.750900	0.446200	0.968200
H91	H9	0.356900	0.057300	0.839600
H101	H10	0.446200	0.968200	0.750900
H111	H11	0.057300	0.839600	0.356900
H121	H12	0.968200	0.750900	0.446200
H131	H13	0.359400	0.056200	0.359400
H141	H14	0.448000	0.968100	0.448000
H151	H15	0.359200	0.840000	0.359200
H161	H16	0.448200	0.750800	0.448200
H171	H17	0.359400	0.359400	0.056200
H181	H18	0.448000	0.448000	0.968100
H191	H19	0.359200	0.359200	0.840000
H201	H20	0.448200	0.448200	0.750800
H211	H21	0.056200	0.359400	0.359400
H221	H22	0.968100	0.448000	0.448000
H231	H23	0.840000	0.359200	0.359200
H241	H24	0.750800	0.448200	0.448200
C11	C1	0.375410	0.865910	0.995710
C21	C2	0.429150	0.812650	0.941950
C31	C3	0.995710	0.375410	0.865910
C41	C4	0.941950	0.429150	0.812650
C51	C5	0.865910	0.995710	0.375410
C61	C6	0.812650	0.941950	0.429150
C71	C7	0.865910	0.375410	0.995710
C81	C8	0.812650	0.429150	0.941950
C91	C9	0.375410	0.995710	0.865910
C101	C10	0.429150	0.941950	0.812650
C111	C11	0.995710	0.865910	0.375410
C121	C12	0.941950	0.812650	0.429150
C131	C13	0.291810	0.016330	0.291810
C141	C14	0.350130	0.957410	0.350130
C151	C15	0.377030	0.994630	0.377030
C161	C16	0.430560	0.941360	0.430560
C171	C17	0.377000	0.866200	0.377000
C181	C18	0.430480	0.812580	0.430480
C191	C19	0.457820	0.850690	0.457820
C201	C20	0.515560	0.792120	0.515560
C211	C21	0.291810	0.291810	0.016330
C221	C22	0.350130	0.350130	0.957410
C231	C23	0.377030	0.377030	0.994630
C241	C24	0.430560	0.430560	0.941360
C251	C25	0.377000	0.377000	0.866200
C261	C26	0.430480	0.430480	0.812580
C271	C27	0.457820	0.457820	0.850690
C281	C28	0.515560	0.515560	0.792120
C291	C29	0.016330	0.291810	0.291810
C301	C30	0.957410	0.350130	0.350130
C311	C31	0.994630	0.377030	0.377030
C321	C32	0.941360	0.430560	0.430560
C331	C33	0.866200	0.377000	0.377000
C341	C34	0.812580	0.430480	0.430480
C351	C35	0.850690	0.457820	0.457820
C361	C36	0.792120	0.515560	0.515560
C371	C37	0.291700	0.015850	0.015850
C381	C38	0.349190	0.957990	0.957990
C391	C39	0.457580	0.850080	0.850080
C401	C40	0.515830	0.791820	0.791820
C411	C41	0.015850	0.291700	0.015850
C421	C42	0.957990	0.349190	0.957990
C431	C43	0.850080	0.457580	0.850080
C441	C44	0.791820	0.515830	0.791820
C451	C45	0.015850	0.015850	0.291700
C461	C46	0.957990	0.957990	0.349190
C471	C47	0.850080	0.850080	0.457580
C481	C48	0.791820	0.791820	0.515830
O11	O1	0.538310	0.830710	0.709010
O21	O2	0.269750	0.977250	0.098150
O31	O3	0.709010	0.538310	0.830710
O41	O4	0.098150	0.269750	0.977250
O51	O5	0.830710	0.709010	0.538310
O61	O6	0.977250	0.098150	0.269750
O71	O7	0.830710	0.538310	0.709010
O81	O8	0.977250	0.269750	0.098150
O91	O9	0.538310	0.709010	0.830710
O101	O10	0.269750	0.098150	0.977250
O111	O11	0.709010	0.830710	0.538310
O121	O12	0.098150	0.977250	0.269750
O131	O13	0.537760	0.830970	0.537760
O141	O14	0.537510	0.709730	0.537510
O151	O15	0.270190	0.098150	0.270190
O161	O16	0.269970	0.977180	0.269970
O171	O17	0.537760	0.537760	0.830970
O181	O18	0.537510	0.537510	0.709730
O191	O19	0.270190	0.270190	0.098150
O201	O20	0.269970	0.269970	0.977180
O211	O21	0.830970	0.537760	0.537760
O221	O22	0.709730	0.537510	0.537510
O231	O23	0.098150	0.270190	0.270190
O241	O24	0.977180	0.269970	0.269970
O251	O25	0.653680	0.653680	0.653680
O261	O26	0.154330	0.154330	0.154330
Zn91	Zn9	0.215760	0.389530	0.389530
Zn101	Zn10	0.976530	0.802590	0.802590
Zn111	Zn11	0.389530	0.389530	0.215760
Zn121	Zn12	0.802590	0.802600	0.976530
Zn131	Zn13	0.389530	0.215760	0.389530
Zn141	Zn14	0.802590	0.976530	0.802590
Zn151	Zn15	0.389890	0.389890	0.389890
Zn161	Zn16	0.802460	0.802460	0.802460
H251	H25	0.160400	0.643100	0.942700
H261	H26	0.249100	0.553800	0.031800
H271	H27	0.643100	0.942700	0.160400
H281	H28	0.553800	0.031800	0.249100
H291	H29	0.942700	0.160400	0.643100
H301	H30	0.031800	0.249100	0.553800
H311	H31	0.643100	0.160400	0.942700
H321	H32	0.553800	0.249100	0.031800
H331	H33	0.942700	0.643100	0.160400
H341	H34	0.031800	0.553800	0.249100
H351	H35	0.160400	0.942700	0.643100
H361	H36	0.249100	0.031800	0.553800
H371	H37	0.943800	0.640600	0.640600
H381	H38	0.031900	0.552000	0.552000
H391	H39	0.160000	0.640800	0.640800
H401	H40	0.249200	0.551800	0.551800
H411	H41	0.640600	0.640600	0.943800
H421	H42	0.552000	0.552000	0.031900
H431	H43	0.640800	0.640800	0.160000
H441	H44	0.551800	0.551800	0.249200
H451	H45	0.640600	0.943800	0.640600
H461	H46	0.552000	0.031900	0.552000
H471	H47	0.640800	0.160000	0.640800
H481	H48	0.551800	0.249200	0.551800
C491	C49	0.134090	0.624590	0.004290
C501	C50	0.187350	0.570850	0.058050
C511	C51	0.624590	0.004290	0.134090
C521	C52	0.570850	0.058050	0.187350
C531	C53	0.004290	0.134090	0.624590
C541	C54	0.058050	0.187350	0.570850
C551	C55	0.624590	0.134090	0.004290
C561	C56	0.570850	0.187350	0.058050
C571	C57	0.004290	0.624590	0.134090
C581	C58	0.058050	0.570850	0.187350
C591	C59	0.134090	0.004290	0.624590
C601	C60	0.187350	0.058050	0.570850
C611	C61	0.983670	0.708190	0.708190
C621	C62	0.042590	0.649870	0.649870
C631	C63	0.005370	0.622970	0.622970
C641	C64	0.058640	0.569440	0.569440
C651	C65	0.133800	0.623000	0.623000
C661	C66	0.187420	0.569520	0.569520
C671	C67	0.149310	0.542180	0.542180
C681	C68	0.207880	0.484440	0.484440
C691	C69	0.708190	0.708190	0.983670
C701	C70	0.649870	0.649870	0.042590
C711	C71	0.622970	0.622970	0.005370
C721	C72	0.569440	0.569440	0.058640
C731	C73	0.623000	0.623000	0.133800
C741	C74	0.569520	0.569520	0.187420
C751	C75	0.542180	0.542180	0.149310
C761	C76	0.484440	0.484440	0.207880
C771	C77	0.708190	0.983670	0.708190
C781	C78	0.649870	0.042590	0.649870
C791	C79	0.622970	0.005370	0.622970
C801	C80	0.569440	0.058640	0.569440
C811	C81	0.623000	0.133800	0.623000
C821	C82	0.569520	0.187420	0.569520
C831	C83	0.542180	0.149310	0.542180
C841	C84	0.484440	0.207880	0.484440
C851	C85	0.984150	0.708300	0.984150
C861	C86	0.042010	0.650810	0.042010
C871	C87	0.149920	0.542420	0.149920
C881	C88	0.208180	0.484170	0.208180
C891	C89	0.708300	0.984150	0.984150
C901	C90	0.650810	0.042010	0.042010
C911	C91	0.542420	0.149920	0.149920
C921	C92	0.484170	0.208180	0.208180
C931	C93	0.984150	0.984150	0.708300
C941	C94	0.042010	0.042010	0.650810
C951	C95	0.149920	0.149920	0.542420
C961	C96	0.208180	0.208180	0.484170
O271	O27	0.169290	0.461690	0.290990
O281	O28	0.022750	0.730250	0.901850
O291	O29	0.461690	0.290990	0.169290
O301	O30	0.730250	0.901850	0.022750
O311	O31	0.290990	0.169290	0.461690
O321	O32	0.901850	0.022750	0.730250
O331	O33	0.461690	0.169290	0.290990
O341	O34	0.730250	0.022750	0.901850
O351	O35	0.290990	0.461690	0.169290
O361	O36	0.901850	0.730250	0.022750
O371	O37	0.169290	0.290990	0.461690
O381	O38	0.022750	0.901850	0.730250
O391	O39	0.169030	0.462240	0.462240
O401	O40	0.290270	0.462490	0.462490
O411	O41	0.901850	0.729810	0.729810
O421	O42	0.022820	0.730030	0.730030
O431	O43	0.462240	0.462240	0.169030
O441	O44	0.462490	0.462490	0.290270
O451	O45	0.729810	0.729810	0.901850
O461	O46	0.730030	0.730030	0.022820
O471	O47	0.462240	0.169030	0.462240
O481	O48	0.462490	0.290270	0.462490
O491	O49	0.729810	0.901850	0.729810
O501	O50	0.730030	0.022820	0.730030
O511	O51	0.346320	0.346320	0.346320
O521	O52	0.845670	0.845670	0.845670
