data_HIHFOV_clean_PM
_symmetry_space_group_name_H-M	'P1'
_cell_length_a	9.653500
_cell_length_b	12.913200
_cell_length_c	17.207200
_cell_angle_alpha	105.774000
_cell_angle_beta	90.000000
_cell_angle_gamma	111.949000
_symmetry_Int_Tables_number 1

loop_
_symmetry_equiv_pos_as_xyz
'x,y,z'

loop_
_atom_site_label
_atom_site_type_symbol
_atom_site_fract_x
_atom_site_fract_y
_atom_site_fract_z
Ni11	Ni1	0.082610	0.055120	0.610390
Ni21	Ni2	0.972510	0.055120	0.110390
H11	H1	0.166100	0.985800	0.763100
H21	H2	0.202700	0.805600	0.764600
H31	H3	0.157100	0.681600	0.621300
H41	H4	0.048600	0.745600	0.336200
H51	H5	0.021800	0.908400	0.297000
H61	H6	0.025200	0.057200	0.426500
H71	H7	0.313500	0.706400	0.478700
H81	H8	0.309900	0.524800	0.408600
H91	H9	0.859700	0.398200	0.367300
H101	H10	0.864100	0.582000	0.431900
H111	H11	0.920800	0.268800	0.245500
H121	H12	0.201400	0.134000	0.290800
H131	H13	0.260700	0.317800	0.399100
H141	H14	0.405900	0.041800	0.616400
H151	H15	0.653500	0.208200	0.636700
H161	H16	0.602100	0.378600	0.626400
H171	H17	0.096500	0.436000	0.560600
H181	H18	0.829300	0.299400	0.522600
H191	H19	0.812200	0.110600	0.542900
H201	H20	0.493000	0.433800	0.508000
H211	H21	0.633200	0.629400	0.522100
H221	H22	0.448200	0.720600	0.725600
H231	H23	0.300200	0.525600	0.708200
H241	H24	0.844900	0.805400	0.598600
H251	H25	0.742800	0.079000	0.676400
H261	H26	0.519300	0.908800	0.680300
H271	H27	0.819700	0.985800	0.263100
H281	H28	0.602900	0.805600	0.264600
H291	H29	0.524500	0.681600	0.121300
H301	H30	0.697000	0.745600	0.836200
H311	H31	0.886600	0.908400	0.797000
H321	H32	0.032000	0.057200	0.926500
H331	H33	0.392900	0.706400	0.978700
H341	H34	0.214900	0.524800	0.908600
H351	H35	0.538500	0.398200	0.867300
H361	H36	0.717900	0.582000	0.931900
H371	H37	0.348000	0.268800	0.745500
H381	H38	0.932600	0.134000	0.790800
H391	H39	0.057100	0.317800	0.899100
H401	H40	0.635900	0.041800	0.116400
H411	H41	0.554700	0.208200	0.136700
H421	H42	0.776500	0.378600	0.126400
H431	H43	0.339500	0.436000	0.060600
H441	H44	0.470100	0.299400	0.022600
H451	H45	0.298400	0.110600	0.042900
H461	H46	0.940800	0.433800	0.008000
H471	H47	0.996200	0.629400	0.022100
H481	H48	0.272400	0.720600	0.225600
H491	H49	0.225400	0.525600	0.208200
H501	H50	0.960500	0.805400	0.098600
H511	H51	0.336200	0.079000	0.176400
H521	H52	0.389500	0.908800	0.180300
C11	C1	0.158460	0.925320	0.716990
C21	C2	0.178230	0.823260	0.718850
C31	C3	0.154080	0.755360	0.639740
C41	C4	0.123760	0.819040	0.591230
C51	C5	0.090480	0.781800	0.506300
C61	C6	0.059660	0.843920	0.458150
C71	C7	0.046850	0.813900	0.371360
C81	C8	0.031440	0.903080	0.349430
C91	C9	0.033520	0.986840	0.423790
C101	C10	0.089380	0.663940	0.461990
C111	C11	0.222520	0.645240	0.455370
C121	C12	0.220370	0.536140	0.414240
C131	C13	0.085320	0.444300	0.381630
C141	C14	0.950760	0.460540	0.388710
C151	C15	0.953730	0.570460	0.428070
C161	C16	0.998340	0.257860	0.269660
C171	C17	0.152450	0.184700	0.294700
C181	C18	0.185570	0.286140	0.355560
C191	C19	0.418760	0.116260	0.614800
C201	C20	0.559870	0.210000	0.626770
C211	C21	0.531460	0.303860	0.620910
C221	C22	0.372090	0.264640	0.604800
C231	C23	0.291190	0.332960	0.597850
C241	C24	0.134900	0.294840	0.583500
C251	C25	0.055620	0.358680	0.561100
C261	C26	0.908140	0.283720	0.540540
C271	C27	0.900520	0.176980	0.552260
C281	C28	0.382360	0.459300	0.606790
C291	C29	0.482860	0.491120	0.551240
C301	C30	0.568180	0.608300	0.560100
C311	C31	0.555990	0.693280	0.625570
C321	C32	0.456170	0.663100	0.681720
C331	C33	0.368640	0.546220	0.671550
C341	C34	0.792690	0.853060	0.618070
C351	C35	0.735560	0.002240	0.660930
C361	C36	0.610620	0.908420	0.663320
C371	C37	0.766860	0.925320	0.216990
C381	C38	0.645030	0.823260	0.218850
C391	C39	0.601280	0.755360	0.139740
C401	C40	0.695280	0.819040	0.091230
C411	C41	0.691320	0.781800	0.006300
C421	C42	0.784260	0.843920	0.958150
C431	C43	0.767050	0.813900	0.871360
C441	C44	0.871640	0.903080	0.849430
C451	C45	0.953320	0.986840	0.923790
C461	C46	0.574560	0.663940	0.961990
C471	C47	0.422720	0.645240	0.955370
C481	C48	0.315770	0.536140	0.914240
C491	C49	0.358980	0.444300	0.881630
C501	C50	0.509780	0.460540	0.888710
C511	C51	0.616730	0.570460	0.928070
C521	C52	0.259520	0.257860	0.769660
C531	C53	0.032250	0.184700	0.794700
C541	C54	0.100570	0.286140	0.855560
C551	C55	0.697500	0.116260	0.114800
C561	C56	0.650130	0.210000	0.126770
C571	C57	0.772400	0.303860	0.120910
C581	C58	0.892550	0.264640	0.104800
C591	C59	0.041770	0.332960	0.097850
C601	C60	0.159940	0.294840	0.083500
C611	C61	0.303060	0.358680	0.061100
C621	C62	0.375580	0.283720	0.040540
C631	C63	0.276460	0.176980	0.052260
C641	C64	0.076940	0.459300	0.106790
C651	C65	0.008260	0.491120	0.051240
C661	C66	0.040120	0.608300	0.060100
C671	C67	0.137290	0.693280	0.125570
C681	C68	0.206930	0.663100	0.181720
C691	C69	0.177580	0.546220	0.171550
C701	C70	0.060370	0.853060	0.118070
C711	C71	0.266680	0.002240	0.160930
C721	C72	0.297800	0.908420	0.163320
N11	N1	0.127670	0.925180	0.641670
N21	N2	0.048740	0.953060	0.488830
N31	N3	0.085000	0.332220	0.339360
N41	N4	0.036460	0.167760	0.239830
N51	N5	0.306460	0.147480	0.601010
N61	N6	0.033400	0.182320	0.578090
N71	N7	0.648200	0.813440	0.635310
N81	N8	0.849830	0.967560	0.632340
N91	N9	0.797510	0.925180	0.141670
N101	N10	0.904320	0.953060	0.988830
N111	N11	0.247220	0.332220	0.839360
N121	N12	0.131300	0.167760	0.739830
N131	N13	0.841020	0.147480	0.101010
N141	N14	0.148920	0.182320	0.078090
N151	N15	0.165240	0.813440	0.135310
N161	N16	0.117730	0.967560	0.132340
