data_HIHGUC_clean_PM
_symmetry_space_group_name_H-M	'P1'
_cell_length_a	16.284500
_cell_length_b	16.284500
_cell_length_c	27.639000
_cell_angle_alpha	85.563600
_cell_angle_beta	85.563600
_cell_angle_gamma	71.753300
_symmetry_Int_Tables_number 1

loop_
_symmetry_equiv_pos_as_xyz
'x,y,z'

loop_
_atom_site_label
_atom_site_type_symbol
_atom_site_fract_x
_atom_site_fract_y
_atom_site_fract_z
Cd11	Cd1	0.337850	0.911270	0.189040
Cd21	Cd2	0.088730	0.662150	0.310960
Cd31	Cd3	0.662150	0.088730	0.810960
Cd41	Cd4	0.911270	0.337850	0.689040
H11	H1	0.287900	0.702700	0.078900
H21	H2	0.285000	0.647000	0.005200
H31	H3	0.407400	0.812600	0.942700
H41	H4	0.404900	0.867100	0.018000
H51	H5	0.248800	0.650000	0.928600
H61	H6	0.341300	0.581700	0.921900
H71	H7	0.372300	0.634300	0.794300
H81	H8	0.400900	0.680300	0.835100
H91	H9	0.517200	0.631200	0.775900
H101	H10	0.645800	0.570800	0.734800
H111	H11	0.682600	0.351200	0.818100
H121	H12	0.550000	0.410200	0.857400
H131	H13	0.253700	0.776100	0.848200
H141	H14	0.225500	0.732700	0.806100
H151	H15	0.124600	0.873000	0.803400
H161	H16	0.988500	0.971100	0.788100
H171	H17	0.871000	0.846800	0.882600
H181	H18	0.008200	0.747200	0.900100
H191	H19	0.302100	0.512900	0.854300
H201	H20	0.207100	0.572100	0.867400
H211	H21	0.172000	0.610200	0.717700
H221	H22	0.085900	0.541900	0.683900
H231	H23	0.100100	0.383500	0.806700
H241	H24	0.192700	0.453300	0.837600
H251	H25	0.808500	0.498900	0.724200
H261	H26	0.748300	0.933700	0.835600
H271	H27	0.297300	0.712100	0.421100
H281	H28	0.353000	0.715000	0.494800
H291	H29	0.187400	0.592600	0.557300
H301	H30	0.132900	0.595100	0.482000
H311	H31	0.350000	0.751200	0.571400
H321	H32	0.418300	0.658700	0.578100
H331	H33	0.365700	0.627700	0.705700
H341	H34	0.319700	0.599100	0.664900
H351	H35	0.368800	0.482800	0.724100
H361	H36	0.429200	0.354200	0.765200
H371	H37	0.648800	0.317400	0.681900
H381	H38	0.589800	0.450000	0.642600
H391	H39	0.223900	0.746300	0.651800
H401	H40	0.267300	0.774500	0.693900
H411	H41	0.127000	0.875400	0.696600
H421	H42	0.028900	0.011500	0.711900
H431	H43	0.153200	0.129000	0.617400
H441	H44	0.252800	0.991800	0.599900
H451	H45	0.487100	0.697900	0.645700
H461	H46	0.427900	0.792900	0.632600
H471	H47	0.389800	0.828000	0.782300
H481	H48	0.458100	0.914100	0.816100
H491	H49	0.616500	0.899900	0.693300
H501	H50	0.546700	0.807300	0.662400
H511	H51	0.501100	0.191500	0.775800
H521	H52	0.066300	0.251700	0.664400
H531	H53	0.712100	0.297300	0.921100
H541	H54	0.715000	0.353000	0.994800
H551	H55	0.592600	0.187400	0.057300
H561	H56	0.595100	0.132900	0.982000
H571	H57	0.751200	0.350000	0.071400
H581	H58	0.658700	0.418300	0.078100
H591	H59	0.627700	0.365700	0.205700
H601	H60	0.599100	0.319700	0.164900
H611	H61	0.482800	0.368800	0.224100
H621	H62	0.354200	0.429200	0.265200
H631	H63	0.317400	0.648800	0.181900
H641	H64	0.450000	0.589800	0.142600
H651	H65	0.746300	0.223900	0.151800
H661	H66	0.774500	0.267300	0.193900
H671	H67	0.875400	0.127000	0.196600
H681	H68	0.011500	0.028900	0.211900
H691	H69	0.129000	0.153200	0.117400
H701	H70	0.991800	0.252800	0.099900
H711	H71	0.697900	0.487100	0.145700
H721	H72	0.792900	0.427900	0.132600
H731	H73	0.828000	0.389800	0.282300
H741	H74	0.914100	0.458100	0.316100
H751	H75	0.899900	0.616500	0.193300
H761	H76	0.807300	0.546700	0.162400
H771	H77	0.191500	0.501100	0.275800
H781	H78	0.251700	0.066300	0.164400
H791	H79	0.702700	0.287900	0.578900
H801	H80	0.647000	0.285000	0.505200
H811	H81	0.812600	0.407400	0.442700
H821	H82	0.867100	0.404900	0.518000
H831	H83	0.650000	0.248800	0.428600
H841	H84	0.581700	0.341300	0.421900
H851	H85	0.634300	0.372300	0.294300
H861	H86	0.680300	0.400900	0.335100
H871	H87	0.631200	0.517200	0.275900
H881	H88	0.570800	0.645800	0.234800
H891	H89	0.351200	0.682600	0.318100
H901	H90	0.410200	0.550000	0.357400
H911	H91	0.776100	0.253700	0.348200
H921	H92	0.732700	0.225500	0.306100
H931	H93	0.873000	0.124600	0.303400
H941	H94	0.971100	0.988500	0.288100
H951	H95	0.846800	0.871000	0.382600
H961	H96	0.747200	0.008200	0.400100
H971	H97	0.512900	0.302100	0.354300
H981	H98	0.572100	0.207100	0.367400
H991	H99	0.610200	0.172000	0.217700
H1001	H100	0.541900	0.085900	0.183900
H1011	H101	0.383500	0.100100	0.306700
H1021	H102	0.453300	0.192700	0.337600
H1031	H103	0.498900	0.808500	0.224200
H1041	H104	0.933700	0.748300	0.335600
C11	C1	0.342500	0.826900	0.103800
C21	C2	0.343900	0.790700	0.056500
C31	C3	0.310700	0.725900	0.051200
C41	C4	0.308600	0.691600	0.007100
C51	C5	0.343100	0.726300	0.966000
C61	C6	0.381600	0.791200	0.970000
C71	C7	0.380500	0.823100	0.015200
C81	C8	0.304760	0.638360	0.910950
C91	C9	0.294400	0.642000	0.857030
C101	C10	0.379600	0.633000	0.828890
C111	C11	0.519100	0.524300	0.820000
C121	C12	0.549900	0.574300	0.783600
C131	C13	0.627000	0.539000	0.760100
C141	C14	0.679600	0.455000	0.773100
C151	C15	0.649200	0.407400	0.809400
C161	C16	0.569700	0.442500	0.832600
C171	C17	0.764000	0.415200	0.744200
C181	C18	0.231900	0.729700	0.840800
C191	C19	0.078900	0.801500	0.853000
C201	C20	0.074900	0.866500	0.819900
C211	C21	0.992200	0.925000	0.810800
C221	C22	0.918300	0.917300	0.833400
C231	C23	0.921400	0.852800	0.866500
C241	C24	0.004600	0.792600	0.877000
C251	C25	0.835900	0.982100	0.819500
C261	C26	0.259600	0.568600	0.847350
C271	C27	0.189300	0.534100	0.781200
C281	C28	0.158000	0.564200	0.734500
C291	C29	0.106800	0.524000	0.714600
C301	C30	0.086600	0.456600	0.741200
C311	C31	0.115700	0.427500	0.788700
C321	C32	0.170500	0.470500	0.807200
C331	C33	0.023900	0.412500	0.722100
C341	C34	0.173100	0.657500	0.396200
C351	C35	0.209300	0.656100	0.443500
C361	C36	0.274100	0.689300	0.448800
C371	C37	0.308400	0.691400	0.492900
C381	C38	0.273700	0.656900	0.534000
C391	C39	0.208800	0.618400	0.530000
C401	C40	0.176900	0.619500	0.484800
C411	C41	0.361640	0.695240	0.589050
C421	C42	0.358000	0.705600	0.642970
C431	C43	0.367000	0.620400	0.671110
C441	C44	0.475700	0.480900	0.680000
C451	C45	0.425700	0.450100	0.716400
C461	C46	0.461000	0.373000	0.739900
C471	C47	0.545000	0.320400	0.726900
C481	C48	0.592600	0.350800	0.690600
C491	C49	0.557500	0.430300	0.667400
C501	C50	0.584800	0.236000	0.755800
C511	C51	0.270300	0.768100	0.659200
C521	C52	0.198500	0.921100	0.647000
C531	C53	0.133500	0.925100	0.680100
C541	C54	0.075000	0.007800	0.689200
C551	C55	0.082700	0.081700	0.666600
C561	C56	0.147200	0.078600	0.633500
C571	C57	0.207400	0.995400	0.623000
C581	C58	0.017900	0.164100	0.680500
C591	C59	0.431400	0.740400	0.652650
C601	C60	0.465900	0.810700	0.718800
C611	C61	0.435800	0.842000	0.765500
C621	C62	0.476000	0.893200	0.785400
C631	C63	0.543400	0.913400	0.758800
C641	C64	0.572500	0.884300	0.711300
C651	C65	0.529500	0.829500	0.692800
C661	C66	0.587500	0.976100	0.777900
C671	C67	0.657500	0.173100	0.896200
C681	C68	0.656100	0.209300	0.943500
C691	C69	0.689300	0.274100	0.948800
C701	C70	0.691400	0.308400	0.992900
C711	C71	0.656900	0.273700	0.034000
C721	C72	0.618400	0.208800	0.030000
C731	C73	0.619500	0.176900	0.984800
C741	C74	0.695240	0.361640	0.089050
C751	C75	0.705600	0.358000	0.142970
C761	C76	0.620400	0.367000	0.171110
C771	C77	0.480900	0.475700	0.180000
C781	C78	0.450100	0.425700	0.216400
C791	C79	0.373000	0.461000	0.239900
C801	C80	0.320400	0.545000	0.226900
C811	C81	0.350800	0.592600	0.190600
C821	C82	0.430300	0.557500	0.167400
C831	C83	0.236000	0.584800	0.255800
C841	C84	0.768100	0.270300	0.159200
C851	C85	0.921100	0.198500	0.147000
C861	C86	0.925100	0.133500	0.180100
C871	C87	0.007800	0.075000	0.189200
C881	C88	0.081700	0.082700	0.166600
C891	C89	0.078600	0.147200	0.133500
C901	C90	0.995400	0.207400	0.123000
C911	C91	0.164100	0.017900	0.180500
C921	C92	0.740400	0.431400	0.152650
C931	C93	0.810700	0.465900	0.218800
C941	C94	0.842000	0.435800	0.265500
C951	C95	0.893200	0.476000	0.285400
C961	C96	0.913400	0.543400	0.258800
C971	C97	0.884300	0.572500	0.211300
C981	C98	0.829500	0.529500	0.192800
C991	C99	0.976100	0.587500	0.277900
C1001	C100	0.826900	0.342500	0.603800
C1011	C101	0.790700	0.343900	0.556500
C1021	C102	0.725900	0.310700	0.551200
C1031	C103	0.691600	0.308600	0.507100
C1041	C104	0.726300	0.343100	0.466000
C1051	C105	0.791200	0.381600	0.470000
C1061	C106	0.823100	0.380500	0.515200
C1071	C107	0.638360	0.304760	0.410950
C1081	C108	0.642000	0.294400	0.357030
C1091	C109	0.633000	0.379600	0.328890
C1101	C110	0.524300	0.519100	0.320000
C1111	C111	0.574300	0.549900	0.283600
C1121	C112	0.539000	0.627000	0.260100
C1131	C113	0.455000	0.679600	0.273100
C1141	C114	0.407400	0.649200	0.309400
C1151	C115	0.442500	0.569700	0.332600
C1161	C116	0.415200	0.764000	0.244200
C1171	C117	0.729700	0.231900	0.340800
C1181	C118	0.801500	0.078900	0.353000
C1191	C119	0.866500	0.074900	0.319900
C1201	C120	0.925000	0.992200	0.310800
C1211	C121	0.917300	0.918300	0.333400
C1221	C122	0.852800	0.921400	0.366500
C1231	C123	0.792600	0.004600	0.377000
C1241	C124	0.982100	0.835900	0.319500
C1251	C125	0.568600	0.259600	0.347350
C1261	C126	0.534100	0.189300	0.281200
C1271	C127	0.564200	0.158000	0.234500
C1281	C128	0.524000	0.106800	0.214600
C1291	C129	0.456600	0.086600	0.241200
C1301	C130	0.427500	0.115700	0.288700
C1311	C131	0.470500	0.170500	0.307200
C1321	C132	0.412500	0.023900	0.222100
O11	O1	0.385360	0.878560	0.107810
O21	O2	0.296140	0.807740	0.138690
O31	O3	0.343670	0.703270	0.918990
O41	O4	0.439010	0.552610	0.844340
O51	O5	0.805120	0.337920	0.753570
O61	O6	0.788640	0.461120	0.710380
O71	O7	0.152000	0.737400	0.866330
O81	O8	0.769010	0.972210	0.846100
O91	O9	0.826680	0.038280	0.789540
O101	O10	0.241500	0.580100	0.795660
O111	O11	0.002000	0.358600	0.749000
O121	O12	0.998910	0.435910	0.680400
O131	O13	0.121440	0.614640	0.392190
O141	O14	0.192260	0.703860	0.361310
O151	O15	0.296730	0.656330	0.581010
O161	O16	0.447390	0.560990	0.655660
O171	O17	0.662080	0.194880	0.746430
O181	O18	0.538880	0.211360	0.789620
O191	O19	0.262600	0.848000	0.633670
O201	O20	0.027790	0.230990	0.653900
O211	O21	0.961720	0.173320	0.710460
O221	O22	0.419900	0.758500	0.704340
O231	O23	0.641400	0.998000	0.751000
O241	O24	0.564090	0.001090	0.819600
O251	O25	0.614640	0.121440	0.892190
O261	O26	0.703860	0.192260	0.861310
O271	O27	0.656330	0.296730	0.081010
O281	O28	0.560990	0.447390	0.155660
O291	O29	0.194880	0.662080	0.246430
O301	O30	0.211360	0.538880	0.289620
O311	O31	0.848000	0.262600	0.133670
O321	O32	0.230990	0.027790	0.153900
O331	O33	0.173320	0.961720	0.210460
O341	O34	0.758500	0.419900	0.204340
O351	O35	0.998000	0.641400	0.251000
O361	O36	0.001090	0.564090	0.319600
O371	O37	0.878560	0.385360	0.607810
O381	O38	0.807740	0.296140	0.638690
O391	O39	0.703270	0.343670	0.418990
O401	O40	0.552610	0.439010	0.344340
O411	O41	0.337920	0.805120	0.253570
O421	O42	0.461120	0.788640	0.210380
O431	O43	0.737400	0.152000	0.366330
O441	O44	0.972210	0.769010	0.346100
O451	O45	0.038280	0.826680	0.289540
O461	O46	0.580100	0.241500	0.295660
O471	O47	0.358600	0.002000	0.249000
O481	O48	0.435910	0.998910	0.180400
