data_HIWKEE_clean_PM
_symmetry_space_group_name_H-M	'P1'
_cell_length_a	10.947000
_cell_length_b	17.908000
_cell_length_c	19.308000
_cell_angle_alpha	63.446000
_cell_angle_beta	75.227000
_cell_angle_gamma	73.788000
_symmetry_Int_Tables_number 1

loop_
_symmetry_equiv_pos_as_xyz
'x,y,z'

loop_
_atom_site_label
_atom_site_type_symbol
_atom_site_fract_x
_atom_site_fract_y
_atom_site_fract_z
Mn11	Mn1	0.507970	0.742450	0.252040
Mn21	Mn2	0.833740	0.193170	0.420580
Mn31	Mn3	0.244610	0.312540	0.060990
Mn41	Mn4	0.492030	0.257550	0.747960
Mn51	Mn5	0.166260	0.806830	0.579420
Mn61	Mn6	0.755390	0.687460	0.939010
Mn71	Mn7	0.000000	0.000000	0.000000
Mn81	Mn8	0.000000	0.500000	0.500000
Nb11	Nb1	0.103950	0.004170	0.267140
Nb21	Nb2	0.938040	0.505100	0.221810
Nb31	Nb3	0.896050	0.995830	0.732860
Nb41	Nb4	0.061960	0.494900	0.778190
H11	H1	0.900400	0.833200	0.037300
H21	H2	0.740600	0.757500	0.109900
H31	H3	0.593500	0.918400	0.207300
H41	H4	0.755600	0.992900	0.136000
H51	H5	0.400600	0.579500	0.294800
H61	H6	0.229300	0.512300	0.362500
H71	H7	0.106300	0.665500	0.468400
H81	H8	0.273300	0.735600	0.397800
H91	H9	0.870700	0.983600	0.491200
H101	H10	0.799500	0.881300	0.482400
H111	H11	0.510400	0.046400	0.388300
H121	H12	0.580000	0.150900	0.397100
H131	H13	0.180500	0.230000	0.245500
H141	H14	0.235500	0.209900	0.358900
H151	H15	0.534300	0.312200	0.242700
H161	H16	0.476400	0.334500	0.126600
H171	H17	0.099600	0.166800	0.962700
H181	H18	0.259400	0.242500	0.890100
H191	H19	0.406500	0.081600	0.792700
H201	H20	0.244400	0.007100	0.864000
H211	H21	0.599400	0.420500	0.705200
H221	H22	0.770700	0.487700	0.637500
H231	H23	0.893700	0.334500	0.531600
H241	H24	0.726700	0.264400	0.602200
H251	H25	0.129300	0.016400	0.508800
H261	H26	0.200500	0.118700	0.517600
H271	H27	0.489600	0.953600	0.611700
H281	H28	0.420000	0.849100	0.602900
H291	H29	0.819500	0.770000	0.754500
H301	H30	0.764500	0.790100	0.641100
H311	H31	0.465700	0.687800	0.757300
H321	H32	0.523600	0.665500	0.873400
C11	C1	0.075100	0.006360	0.154090
C21	C2	0.267500	0.904480	0.246960
C31	C3	0.287300	0.022400	0.285700
C41	C4	0.043100	0.085000	0.335580
C51	C5	0.142600	0.130550	0.172220
C61	C6	0.003100	0.897300	0.298600
C71	C7	0.899000	0.072300	0.251750
C81	C8	0.120600	0.914920	0.393490
C91	C9	0.037700	0.432400	0.146490
C101	C10	0.750300	0.584930	0.251210
C111	C11	0.880500	0.595990	0.102780
C121	C12	0.933800	0.372990	0.317430
C131	C13	0.950200	0.504010	0.336290
C141	C14	0.780500	0.454910	0.210300
C151	C15	0.991900	0.628300	0.194360
C161	C16	0.150900	0.478900	0.225100
C171	C17	0.838900	0.851300	0.072600
C181	C18	0.741800	0.805810	0.116220
C191	C19	0.656400	0.899400	0.173100
C201	C20	0.754200	0.944500	0.129900
C211	C21	0.340400	0.598600	0.329900
C221	C22	0.237800	0.557500	0.371300
C231	C23	0.165700	0.647000	0.432600
C241	C24	0.266800	0.689200	0.390200
C251	C25	0.796500	0.998400	0.469300
C261	C26	0.753000	0.936700	0.464000
C271	C27	0.585300	0.032200	0.409500
C281	C28	0.627500	0.095700	0.414500
C291	C29	0.254100	0.247700	0.243300
C301	C30	0.287000	0.235300	0.311800
C311	C31	0.460500	0.295000	0.244200
C321	C32	0.425600	0.308200	0.173800
C331	C33	0.924900	0.993640	0.845910
C341	C34	0.732500	0.095520	0.753040
C351	C35	0.712700	0.977600	0.714300
C361	C36	0.956900	0.915000	0.664420
C371	C37	0.857400	0.869450	0.827780
C381	C38	0.996900	0.102700	0.701400
C391	C39	0.101000	0.927700	0.748250
C401	C40	0.879400	0.085080	0.606510
C411	C41	0.962300	0.567600	0.853510
C421	C42	0.249700	0.415070	0.748790
C431	C43	0.119500	0.404010	0.897220
C441	C44	0.066200	0.627010	0.682570
C451	C45	0.049800	0.495990	0.663710
C461	C46	0.219500	0.545090	0.789700
C471	C47	0.008100	0.371700	0.805640
C481	C48	0.849100	0.521100	0.774900
C491	C49	0.161100	0.148700	0.927400
C501	C50	0.258200	0.194190	0.883780
C511	C51	0.343600	0.100600	0.826900
C521	C52	0.245800	0.055500	0.870100
C531	C53	0.659600	0.401400	0.670100
C541	C54	0.762200	0.442500	0.628700
C551	C55	0.834300	0.353000	0.567400
C561	C56	0.733200	0.310800	0.609800
C571	C57	0.203500	0.001600	0.530700
C581	C58	0.247000	0.063300	0.536000
C591	C59	0.414700	0.967800	0.590500
C601	C60	0.372500	0.904300	0.585500
C611	C61	0.745900	0.752300	0.756700
C621	C62	0.713000	0.764700	0.688200
C631	C63	0.539500	0.705000	0.755800
C641	C64	0.574400	0.691800	0.826200
N11	N1	0.054400	0.005730	0.099050
N21	N2	0.353600	0.853140	0.239780
N31	N3	0.381600	0.029800	0.294800
N41	N4	0.006100	0.123480	0.373390
N51	N5	0.164600	0.194950	0.125320
N61	N6	0.957000	0.842000	0.310800
N71	N7	0.797300	0.110300	0.240900
N81	N8	0.127500	0.871150	0.458140
N91	N9	0.091600	0.394580	0.109210
N101	N10	0.656500	0.629820	0.260760
N111	N11	0.841100	0.642240	0.045830
N121	N12	0.914500	0.309170	0.367820
N131	N13	0.958400	0.501460	0.395480
N141	N14	0.698900	0.427400	0.208200
N151	N15	0.019100	0.689700	0.186200
N161	N16	0.257400	0.474800	0.224000
N171	N17	0.846500	0.920170	0.079740
N181	N18	0.650500	0.829210	0.166750
N191	N19	0.354800	0.664670	0.338990
N201	N20	0.151400	0.581340	0.423460
N211	N21	0.734300	0.079330	0.443560
N221	N22	0.647600	0.952200	0.433800
N231	N23	0.322500	0.284190	0.173210
N241	N24	0.390300	0.258700	0.312400
N251	N25	0.945600	0.994270	0.900950
N261	N26	0.646400	0.146860	0.760220
N271	N27	0.618400	0.970200	0.705200
N281	N28	0.993900	0.876520	0.626610
N291	N29	0.835400	0.805050	0.874680
N301	N30	0.043000	0.158000	0.689200
N311	N31	0.202700	0.889700	0.759100
N321	N32	0.872500	0.128850	0.541860
N331	N33	0.908400	0.605420	0.890790
N341	N34	0.343500	0.370180	0.739240
N351	N35	0.158900	0.357760	0.954170
N361	N36	0.085500	0.690830	0.632180
N371	N37	0.041600	0.498540	0.604520
N381	N38	0.301100	0.572600	0.791800
N391	N39	0.980900	0.310300	0.813800
N401	N40	0.742600	0.525200	0.776000
N411	N41	0.153500	0.079830	0.920260
N421	N42	0.349500	0.170790	0.833250
N431	N43	0.645200	0.335330	0.661010
N441	N44	0.848600	0.418660	0.576540
N451	N45	0.265700	0.920670	0.556440
N461	N46	0.352400	0.047800	0.566200
N471	N47	0.677500	0.715810	0.826790
N481	N48	0.609700	0.741300	0.687600
