data_HIWLOO_clean_h_PM
_symmetry_space_group_name_H-M	'P1'
_cell_length_a	10.542900
_cell_length_b	11.634500
_cell_length_c	11.730300
_cell_angle_alpha	110.116000
_cell_angle_beta	100.445000
_cell_angle_gamma	104.339000
_symmetry_Int_Tables_number 1

loop_
_symmetry_equiv_pos_as_xyz
'x,y,z'

loop_
_atom_site_label
_atom_site_type_symbol
_atom_site_fract_x
_atom_site_fract_y
_atom_site_fract_z
In11	In1	0.046310	0.044620	0.794740
In21	In2	0.953690	0.955380	0.205260
In31	In3	0.500000	0.000000	0.000000
In41	In4	0.500000	0.000000	0.500000
P11	P1	0.193600	0.997400	0.049800
P21	P2	0.367600	0.097700	0.763500
P31	P3	0.845400	0.162100	0.633300
P41	P4	0.806400	0.002600	0.950200
P51	P5	0.632400	0.902300	0.236500
P61	P6	0.154600	0.837900	0.366700
C11	C1	0.872200	0.823200	0.521600
C21	C2	0.927700	0.735400	0.665200
C31	C3	0.810100	0.699500	0.423500
C41	C4	0.868600	0.608800	0.572000
C51	C5	0.806700	0.590300	0.445500
C61	C6	0.739200	0.458000	0.345400
C71	C7	0.635100	0.432900	0.235200
C81	C8	0.773000	0.352900	0.353100
C91	C9	0.570700	0.307700	0.144400
C101	C10	0.707200	0.228600	0.256000
C111	C11	0.568500	0.798500	0.604800
C121	C12	0.425400	0.691600	0.394200
C131	C13	0.570100	0.680800	0.607400
C141	C14	0.425700	0.572700	0.392700
C151	C15	0.499300	0.564500	0.500100
C161	C16	0.127800	0.176800	0.478400
C171	C17	0.072300	0.264600	0.334800
C181	C18	0.189900	0.300500	0.576500
C191	C19	0.131400	0.391200	0.428000
C201	C20	0.193300	0.409700	0.554500
C211	C21	0.260800	0.542000	0.654600
C221	C22	0.364900	0.567100	0.764800
C231	C23	0.227000	0.647100	0.646900
C241	C24	0.429300	0.692300	0.855600
C251	C25	0.292800	0.771400	0.744000
C261	C26	0.431500	0.201500	0.395200
C271	C27	0.574600	0.308400	0.605800
C281	C28	0.429900	0.319200	0.392600
C291	C29	0.574300	0.427300	0.607300
C301	C30	0.500700	0.435500	0.499900
N11	N1	0.930100	0.840800	0.641800
N21	N2	0.604400	0.205800	0.154100
N31	N3	0.495500	0.804500	0.499000
N41	N4	0.069900	0.159200	0.358200
N51	N5	0.395600	0.794200	0.845900
N61	N6	0.504500	0.195500	0.501000
O11	O1	0.121300	0.957700	0.911000
O21	O2	0.107600	0.932100	0.115300
O31	O3	0.327800	0.968500	0.067900
O41	O4	0.227300	0.150200	0.120300
O51	O5	0.211100	0.041000	0.706100
O61	O6	0.410700	0.081200	0.884800
O71	O7	0.435400	0.039900	0.666500
O81	O8	0.414100	0.250300	0.800600
O91	O9	0.959300	0.110700	0.664300
O101	O10	0.705300	0.078500	0.619900
O111	O11	0.845100	0.181200	0.506100
O121	O12	0.877000	0.301200	0.736800
O131	O13	0.878700	0.042300	0.089000
O141	O14	0.892400	0.067900	0.884700
O151	O15	0.672200	0.031500	0.932100
O161	O16	0.772700	0.849800	0.879700
O171	O17	0.788900	0.959000	0.293900
O181	O18	0.589300	0.918800	0.115200
O191	O19	0.564600	0.960100	0.333500
O201	O20	0.585900	0.749700	0.199400
O211	O21	0.040700	0.889300	0.335700
O221	O22	0.294700	0.921500	0.380100
O231	O23	0.154900	0.818800	0.493900
O241	O24	0.123000	0.698800	0.263200
H11	H1	0.875090	0.912820	0.501500
H21	H2	0.977270	0.753250	0.767330
H31	H3	0.761250	0.687970	0.323420
H41	H4	0.870530	0.523160	0.597780
H51	H5	0.605220	0.516320	0.222260
H61	H6	0.855340	0.367090	0.439320
H71	H7	0.485670	0.287020	0.057180
H81	H8	0.739560	0.143610	0.261290
H91	H9	0.628700	0.892900	0.691810
H101	H10	0.365490	0.697430	0.306310
H111	H11	0.629380	0.678070	0.697390
H121	H12	0.365790	0.480150	0.303660
H131	H13	0.124910	0.087180	0.498500
H141	H14	0.238750	0.312030	0.676580
H151	H15	0.394780	0.483680	0.777740
H161	H16	0.144660	0.632910	0.560680
H171	H17	0.514330	0.712980	0.942820
H181	H18	0.260440	0.856390	0.738710
H191	H19	0.371300	0.107100	0.308190
H201	H20	0.634510	0.302570	0.693690
H211	H21	0.370620	0.321930	0.302610
H221	H22	0.634210	0.519850	0.696340
H231	H23	0.022730	0.246750	0.232670
H241	H24	0.129470	0.476840	0.402220
