data_HIWLEG_clean_PM
_symmetry_space_group_name_H-M	'P1'
_cell_length_a	10.689700
_cell_length_b	8.485700
_cell_length_c	17.296500
_cell_angle_alpha	90.000000
_cell_angle_beta	90.000000
_cell_angle_gamma	90.000000
_symmetry_Int_Tables_number 1

loop_
_symmetry_equiv_pos_as_xyz
'x,y,z'

loop_
_atom_site_label
_atom_site_type_symbol
_atom_site_fract_x
_atom_site_fract_y
_atom_site_fract_z
Zn11	Zn1	0.869110	0.628850	0.300640
Zn21	Zn2	0.086280	0.350190	0.134990
P11	P1	0.146280	0.653670	0.235690
P21	P2	0.973200	0.534200	0.464650
P31	P3	0.807050	0.399570	0.161870
O11	O1	0.024700	0.718300	0.266000
O21	O2	0.255700	0.690300	0.288400
O31	O3	0.143500	0.478900	0.221000
O41	O4	0.917100	0.519300	0.544700
O51	O5	0.875000	0.577300	0.408200
O61	O6	0.043100	0.389700	0.442800
O71	O7	0.913100	0.281400	0.156200
O81	O8	0.796200	0.457500	0.244400
O91	O9	0.684500	0.338900	0.132200
H11	H1	0.161600	0.716700	0.159900
H21	H2	0.051600	0.621000	0.465100
H31	H3	0.823800	0.502900	0.121600
Zn31	Zn3	0.130890	0.371150	0.800640
Zn41	Zn4	0.913720	0.649810	0.634990
P41	P4	0.853720	0.346330	0.735690
P51	P5	0.026800	0.465800	0.964650
P61	P6	0.192950	0.600430	0.661870
O101	O10	0.975300	0.281700	0.766000
O111	O11	0.744300	0.309700	0.788400
O121	O12	0.856500	0.521100	0.721000
O131	O13	0.082900	0.480700	0.044700
O141	O14	0.125000	0.422700	0.908200
O151	O15	0.956900	0.610300	0.942800
O161	O16	0.086900	0.718600	0.656200
O171	O17	0.203800	0.542500	0.744400
O181	O18	0.315500	0.661100	0.632200
H41	H4	0.838400	0.283300	0.659900
H51	H5	0.948400	0.379000	0.965100
H61	H6	0.176200	0.497100	0.621600
Zn51	Zn5	0.369110	0.871150	0.300640
Zn61	Zn6	0.586280	0.149810	0.134990
P71	P7	0.646280	0.846330	0.235690
P81	P8	0.473200	0.965800	0.464650
P91	P9	0.307050	0.100430	0.161870
O191	O19	0.524700	0.781700	0.266000
O201	O20	0.755700	0.809700	0.288400
O211	O21	0.643500	0.021100	0.221000
O221	O22	0.417100	0.980700	0.544700
O231	O23	0.375000	0.922700	0.408200
O241	O24	0.543100	0.110300	0.442800
O251	O25	0.413100	0.218600	0.156200
O261	O26	0.296200	0.042500	0.244400
O271	O27	0.184500	0.161100	0.132200
H71	H7	0.661600	0.783300	0.159900
H81	H8	0.551600	0.879000	0.465100
H91	H9	0.323800	0.997100	0.121600
Zn71	Zn7	0.630890	0.128850	0.800640
Zn81	Zn8	0.413720	0.850190	0.634990
P101	P10	0.353720	0.153670	0.735690
P111	P11	0.526800	0.034200	0.964650
P121	P12	0.692950	0.899570	0.661870
O281	O28	0.475300	0.218300	0.766000
O291	O29	0.244300	0.190300	0.788400
O301	O30	0.356500	0.978900	0.721000
O311	O31	0.582900	0.019300	0.044700
O321	O32	0.625000	0.077300	0.908200
O331	O33	0.456900	0.889700	0.942800
O341	O34	0.586900	0.781400	0.656200
O351	O35	0.703800	0.957500	0.744400
O361	O36	0.815500	0.838900	0.632200
H101	H10	0.338400	0.216700	0.659900
H111	H11	0.448400	0.121000	0.965100
H121	H12	0.676200	0.002900	0.621600
