data_HIYGIH_clean_PM
_symmetry_space_group_name_H-M	'P1'
_cell_length_a	28.152700
_cell_length_b	28.152700
_cell_length_c	28.600200
_cell_angle_alpha	119.484000
_cell_angle_beta	119.484000
_cell_angle_gamma	90.000000
_symmetry_Int_Tables_number 1

loop_
_symmetry_equiv_pos_as_xyz
'x,y,z'

loop_
_atom_site_label
_atom_site_type_symbol
_atom_site_fract_x
_atom_site_fract_y
_atom_site_fract_z
Cu11	Cu1	0.069600	0.275230	0.000000
Cu21	Cu2	0.412410	0.317200	0.364260
Cu31	Cu3	0.964340	0.036180	0.273800
Cu41	Cu4	0.035660	0.963820	0.726200
Cu51	Cu5	0.952940	0.587590	0.635740
Cu61	Cu6	0.930400	0.724770	0.000000
Cu71	Cu7	0.909210	0.633140	0.000000
Cu81	Cu8	0.633140	0.090790	0.000000
Cu91	Cu9	0.090790	0.366860	0.000000
Cu101	Cu10	0.366860	0.909210	0.000000
Cu111	Cu11	0.309460	0.237620	0.273800
Cu121	Cu12	0.317200	0.951850	0.364260
Cu131	Cu13	0.762380	0.035660	0.726200
Cu141	Cu14	0.275230	0.930400	0.000000
Cu151	Cu15	0.951850	0.047060	0.364260
Cu161	Cu16	0.237620	0.964340	0.273800
Cu171	Cu17	0.963820	0.690540	0.726200
Cu181	Cu18	0.682800	0.048150	0.635740
Cu191	Cu19	0.036180	0.309460	0.273800
Cu201	Cu20	0.047060	0.412410	0.364260
Cu211	Cu21	0.048150	0.952940	0.635740
Cu221	Cu22	0.587590	0.682800	0.635740
Cu231	Cu23	0.724770	0.069600	0.000000
Cu241	Cu24	0.690540	0.762380	0.726200
H11	H1	0.378600	0.992900	0.832400
H21	H2	0.444400	0.112100	0.481200
H31	H3	0.127100	0.614900	0.697800
H41	H4	0.570700	0.082900	0.697800
H51	H5	0.614900	0.570700	0.697800
H61	H6	0.630900	0.555600	0.518800
H71	H7	0.160500	0.621400	0.167600
H81	H8	0.895000	0.714600	0.162000
H91	H9	0.890100	0.788700	0.296200
H101	H10	0.696300	0.082000	0.845400
H111	H11	0.992900	0.453800	0.832400
H121	H12	0.007100	0.546200	0.167600
H131	H13	0.763500	0.017200	0.259200
H141	H14	0.593900	0.492500	0.703800
H151	H15	0.758000	0.236500	0.740800
H161	H16	0.236600	0.303700	0.154600
H171	H17	0.354000	0.960900	0.875200
H181	H18	0.785700	0.673600	0.654000
H191	H19	0.982800	0.504300	0.740800
H201	H20	0.369100	0.444400	0.481200
H211	H21	0.017200	0.495700	0.259200
H221	H22	0.887900	0.963200	0.518800
H231	H23	0.733000	0.552600	0.838000
H241	H24	0.109900	0.805400	0.161800
H251	H25	0.019600	0.214300	0.346000
H261	H26	0.085700	0.646000	0.124800
H271	H27	0.763400	0.696300	0.845400
H281	H28	0.010700	0.377800	0.550200
H291	H29	0.039100	0.478800	0.124800
H301	H30	0.194600	0.948100	0.838200
H311	H31	0.646000	0.039100	0.124800
H321	H32	0.051900	0.356400	0.161800
H331	H33	0.963200	0.630900	0.518800
H341	H34	0.890100	0.194600	0.838200
H351	H35	0.788700	0.406100	0.296200
H361	H36	0.429300	0.917100	0.302200
H371	H37	0.714600	0.267000	0.162000
H381	H38	0.453800	0.839500	0.832400
H391	H39	0.507500	0.890100	0.296200
H401	H40	0.495700	0.242000	0.259200
H411	H41	0.539500	0.172400	0.550200
H421	H42	0.621400	0.007100	0.167600
H431	H43	0.149100	0.763400	0.845400
H441	H44	0.918000	0.850900	0.154600
H451	H45	0.622200	0.460500	0.449800
H461	H46	0.230100	0.479600	0.484000
H471	H47	0.746100	0.995600	0.516000
H481	H48	0.948100	0.643600	0.838200
H491	H49	0.492500	0.109900	0.703800
H501	H50	0.242000	0.763500	0.259200
H511	H51	0.960900	0.521200	0.875200
H521	H52	0.385100	0.429300	0.302200
H531	H53	0.253900	0.004400	0.484000
H541	H54	0.377800	0.539500	0.550200
H551	H55	0.478800	0.085700	0.124800
H561	H56	0.479600	0.253900	0.484000
H571	H57	0.872900	0.385100	0.302200
H581	H58	0.285400	0.733000	0.838000
H591	H59	0.267000	0.447400	0.162000
H601	H60	0.303700	0.918000	0.154600
H611	H61	0.211300	0.593900	0.703800
H621	H62	0.520400	0.746100	0.516000
H631	H63	0.447400	0.895000	0.162000
H641	H64	0.555600	0.887900	0.518800
H651	H65	0.673600	0.868300	0.654000
H661	H66	0.109900	0.211300	0.703800
H671	H67	0.036800	0.369100	0.481200
H681	H68	0.868300	0.980400	0.654000
H691	H69	0.805400	0.051900	0.161800
H701	H70	0.172400	0.010700	0.550200
H711	H71	0.082000	0.149100	0.845400
H721	H72	0.827600	0.989300	0.449800
H731	H73	0.839500	0.378600	0.832400
H741	H74	0.995600	0.769900	0.516000
H751	H75	0.356400	0.109900	0.161800
H761	H76	0.460500	0.827600	0.449800
H771	H77	0.914300	0.354000	0.875200
H781	H78	0.105000	0.285400	0.838000
H791	H79	0.552600	0.105000	0.838000
H801	H80	0.769900	0.520400	0.516000
H811	H81	0.082900	0.127100	0.697800
H821	H82	0.643600	0.890100	0.838200
H831	H83	0.917100	0.872900	0.302200
H841	H84	0.989300	0.622200	0.449800
H851	H85	0.546200	0.160500	0.167600
H861	H86	0.326400	0.131700	0.346000
H871	H87	0.521200	0.914300	0.875200
H881	H88	0.214300	0.326400	0.346000
H891	H89	0.850900	0.236600	0.154600
H901	H90	0.131700	0.019600	0.346000
H911	H91	0.236500	0.982800	0.740800
H921	H92	0.504300	0.758000	0.740800
H931	H93	0.004400	0.230100	0.484000
H941	H94	0.980400	0.785700	0.654000
H951	H95	0.406100	0.507500	0.296200
H961	H96	0.112100	0.036800	0.481200
C11	C1	0.144900	0.960100	0.742000
C21	C2	0.914100	0.277700	0.867000
C31	C3	0.636830	0.854630	0.616860
C41	C4	0.907000	0.739200	0.091600
C51	C5	0.109600	0.682600	0.146200
C61	C6	0.706300	0.401400	0.745200
C71	C7	0.129700	0.686400	0.769400
C81	C8	0.237770	0.363170	0.383140
C91	C9	0.061800	0.381900	0.085600
C101	C10	0.038900	0.343800	0.745200
C111	C11	0.134600	0.031200	0.464800
C121	C12	0.978600	0.691900	0.504000
C131	C13	0.218100	0.855100	0.258000
C141	C14	0.865400	0.968800	0.535200
C151	C15	0.976100	0.525800	0.772800
C161	C16	0.267600	0.640600	0.713600
C171	C17	0.917000	0.870300	0.230600
C181	C18	0.963400	0.536400	0.853800
C191	C19	0.123800	0.778200	0.169400
C201	C20	0.678600	0.659000	0.620200
C211	C21	0.793100	0.035000	0.216400
C221	C22	0.184600	0.352400	0.091600
C231	C23	0.332800	0.448100	0.239800
C241	C24	0.854630	0.980030	0.616860
C251	C25	0.379500	0.116300	0.412000
C261	C26	0.753000	0.023900	0.227200
C271	C27	0.573700	0.098300	0.819800
C281	C28	0.387300	0.227500	0.379200
C291	C29	0.215600	0.401200	0.409600
C301	C30	0.031200	0.330200	0.464800
C311	C31	0.423300	0.761900	0.768600
C321	C32	0.151700	0.387300	0.379200
C331	C33	0.023900	0.474200	0.227200
C341	C34	0.721500	0.573700	0.819800
C351	C35	0.835900	0.261200	0.175800
C361	C36	0.346500	0.573500	0.597800
C371	C37	0.991600	0.784400	0.590400
C381	C38	0.796700	0.247000	0.772800
C391	C39	0.598800	0.806000	0.590400
C401	C40	0.762230	0.636830	0.616860
C411	C41	0.398700	0.651900	0.348000
C421	C42	0.203300	0.753000	0.227200
C431	C43	0.098300	0.246100	0.819800
C441	C44	0.980300	0.611400	0.315800
C451	C45	0.085400	0.164100	0.824200
C461	C46	0.448100	0.907000	0.239800
C471	C47	0.036600	0.463600	0.146200
C481	C48	0.855100	0.039900	0.258000
C491	C49	0.360300	0.917000	0.230600
C501	C50	0.980030	0.762230	0.616860
C511	C51	0.341000	0.058400	0.379800
C521	C52	0.317400	0.963400	0.853800
C531	C53	0.618100	0.976200	0.914400
C541	C54	0.010200	0.247500	0.466000
C551	C55	0.277700	0.952900	0.867000
C561	C56	0.976200	0.296300	0.914400
C571	C57	0.227500	0.991900	0.379200
C581	C58	0.330200	0.433600	0.464800
C591	C59	0.296300	0.938200	0.914400
C601	C60	0.065300	0.662200	0.734000
C611	C61	0.525400	0.812100	0.504000
C621	C62	0.335500	0.704400	0.315800
C631	C63	0.006700	0.423300	0.768600
C641	C64	0.474200	0.203300	0.227200
C651	C65	0.667200	0.551900	0.760200
C661	C66	0.791700	0.332800	0.239800
C671	C67	0.008400	0.215600	0.409600
C681	C68	0.991900	0.151700	0.379200
C691	C69	0.576700	0.818600	0.783600
C701	C70	0.651900	0.949300	0.348000
C711	C71	0.343800	0.706300	0.745200
C721	C72	0.961200	0.678600	0.620200
C731	C73	0.381900	0.023800	0.085600
C741	C74	0.848300	0.612700	0.620800
C751	C75	0.914100	0.848500	0.263400
C761	C76	0.506900	0.832000	0.809400
C771	C77	0.573500	0.251300	0.597800
C781	C78	0.815400	0.647600	0.908400
C791	C79	0.363170	0.145370	0.383140
C801	C80	0.597100	0.781900	0.742000
C811	C81	0.876200	0.221800	0.830600
C821	C82	0.331300	0.928200	0.266000
C831	C83	0.777600	0.244000	0.151000
C841	C84	0.352400	0.907000	0.091600
C851	C85	0.206900	0.965000	0.783600
C861	C86	0.151500	0.650700	0.736600
C871	C87	0.883700	0.967500	0.588000
C881	C88	0.221800	0.954400	0.830600
C891	C89	0.952900	0.589300	0.867000
C901	C90	0.611400	0.335500	0.315800
C911	C91	0.391200	0.123800	0.169400
C921	C92	0.928200	0.934700	0.266000
C931	C93	0.696100	0.398700	0.348000
C941	C94	0.697500	0.022600	0.190600
C951	C95	0.781500	0.989800	0.534000
C961	C96	0.907000	0.791700	0.239800
C971	C97	0.993300	0.576700	0.231400
C981	C98	0.071800	0.065300	0.734000
C991	C99	0.965000	0.576700	0.783600
C1001	C100	0.938200	0.618100	0.914400
C1011	C101	0.222400	0.756000	0.849000
C1021	C102	0.303900	0.601300	0.652000
C1031	C103	0.093000	0.208300	0.760200
C1041	C104	0.218500	0.010200	0.466000
C1051	C105	0.536400	0.890400	0.853800
C1061	C106	0.145370	0.019970	0.383140
C1071	C107	0.954400	0.608800	0.830600
C1081	C108	0.639700	0.083000	0.769400
C1091	C109	0.848500	0.349300	0.263400
C1101	C110	0.626600	0.093000	0.849000
C1111	C111	0.073000	0.267600	0.713600
C1121	C112	0.008100	0.848300	0.620800
C1131	C113	0.566400	0.865400	0.535200
C1141	C114	0.832000	0.302500	0.809400
C1151	C115	0.181400	0.793100	0.216400
C1161	C116	0.302500	0.977400	0.809400
C1171	C117	0.359400	0.554000	0.286400
C1181	C118	0.653500	0.426500	0.402200
C1191	C119	0.247500	0.455800	0.466000
C1201	C120	0.703700	0.061800	0.085600
C1211	C121	0.772500	0.008100	0.620800
C1221	C122	0.038800	0.321400	0.379800
C1231	C123	0.045600	0.391200	0.169400
C1241	C124	0.589300	0.914100	0.867000
C1251	C125	0.313600	0.360300	0.230600
C1261	C126	0.968800	0.669800	0.535200
C1271	C127	0.650700	0.585100	0.736600
C1281	C128	0.414900	0.914100	0.263400
C1291	C129	0.260800	0.815400	0.908400
C1301	C130	0.544200	0.781500	0.534000
C1311	C131	0.960100	0.597100	0.742000
C1321	C132	0.784400	0.598800	0.590400
C1331	C133	0.660100	0.085400	0.824200
C1341	C134	0.426300	0.901700	0.180200
C1351	C135	0.423300	0.181400	0.216400
C1361	C136	0.164100	0.738800	0.824200
C1371	C137	0.293700	0.598600	0.254800
C1381	C138	0.934700	0.337800	0.266000
C1391	C139	0.401200	0.194000	0.409600
C1401	C140	0.021400	0.308100	0.496000
C1411	C141	0.058400	0.038800	0.379800
C1421	C142	0.023800	0.703700	0.085600
C1431	C143	0.039900	0.402900	0.258000
C1441	C144	0.455800	0.218500	0.466000
C1451	C145	0.949300	0.696100	0.348000
C1461	C146	0.554000	0.927000	0.286400
C1471	C147	0.890400	0.317400	0.853800
C1481	C148	0.446000	0.073000	0.713600
C1491	C149	0.321400	0.341000	0.379800
C1501	C150	0.339900	0.914600	0.175800
C1511	C151	0.620500	0.883700	0.588000
C1521	C152	0.493100	0.168000	0.190600
C1531	C153	0.901700	0.753900	0.180200
C1541	C154	0.732400	0.359400	0.286400
C1551	C155	0.907000	0.777600	0.151000
C1561	C156	0.656200	0.293700	0.254800
C1571	C157	0.608800	0.876200	0.830600
C1581	C158	0.401400	0.038900	0.745200
C1591	C159	0.247000	0.976100	0.772800
C1601	C160	0.295600	0.019700	0.684200
C1611	C161	0.753900	0.278500	0.180200
C1621	C162	0.738800	0.660100	0.824200
C1631	C163	0.047100	0.410700	0.133000
C1641	C164	0.194000	0.008400	0.409600
C1651	C165	0.388600	0.664500	0.684200
C1661	C166	0.085900	0.151500	0.736600
C1671	C167	0.640600	0.446000	0.713600
C1681	C168	0.426500	0.748700	0.402200
C1691	C169	0.525800	0.796700	0.772800
C1701	C170	0.752500	0.544200	0.534000
C1711	C171	0.337800	0.331300	0.266000
C1721	C172	0.806000	0.991600	0.590400
C1731	C173	0.116300	0.032500	0.412000
C1741	C174	0.870300	0.313600	0.230600
C1751	C175	0.691900	0.525400	0.504000
C1761	C176	0.756000	0.626600	0.849000
C1771	C177	0.781900	0.144900	0.742000
C1781	C178	0.585100	0.085900	0.736600
C1791	C179	0.598600	0.961100	0.254800
C1801	C180	0.576700	0.238100	0.231400
C1811	C181	0.295700	0.379500	0.412000
C1821	C182	0.093000	0.260800	0.908400
C1831	C183	0.778200	0.045600	0.169400
C1841	C184	0.722300	0.047100	0.133000
C1851	C185	0.977400	0.506900	0.809400
C1861	C186	0.818600	0.206900	0.783600
C1871	C187	0.187900	0.021400	0.496000
C1881	C188	0.748700	0.975700	0.402200
C1891	C189	0.659000	0.941600	0.620200
C1901	C190	0.024300	0.346500	0.597800
C1911	C191	0.246100	0.721500	0.819800
C1921	C192	0.019970	0.237770	0.383140
C1931	C193	0.961100	0.656200	0.254800
C1941	C194	0.989800	0.752500	0.534000
C1951	C195	0.345300	0.006700	0.768600
C1961	C196	0.410700	0.085900	0.133000
C1971	C197	0.022600	0.493100	0.190600
C1981	C198	0.093000	0.222400	0.849000
C1991	C199	0.686400	0.639700	0.769400
C2001	C200	0.975700	0.653500	0.402200
C2011	C201	0.927000	0.732400	0.286400
C2021	C202	0.019700	0.388600	0.684200
C2031	C203	0.402900	0.218100	0.258000
C2041	C204	0.032500	0.295700	0.412000
C2051	C205	0.463600	0.109600	0.146200
C2061	C206	0.682600	0.036600	0.146200
C2071	C207	0.085900	0.722300	0.133000
C2081	C208	0.664500	0.295600	0.684200
C2091	C209	0.261200	0.339900	0.175800
C2101	C210	0.168000	0.697500	0.190600
C2111	C211	0.812100	0.978600	0.504000
C2121	C212	0.083000	0.129700	0.769400
C2131	C213	0.244000	0.373400	0.151000
C2141	C214	0.704300	0.620500	0.588000
C2151	C215	0.647600	0.093000	0.908400
C2161	C216	0.373400	0.907000	0.151000
C2171	C217	0.278500	0.426300	0.180200
C2181	C218	0.551900	0.093000	0.760200
C2191	C219	0.050700	0.303900	0.652000
C2201	C220	0.208300	0.667200	0.760200
C2211	C221	0.914600	0.835900	0.175800
C2221	C222	0.433600	0.134600	0.464800
C2231	C223	0.612700	0.772500	0.620800
C2241	C224	0.668700	0.071800	0.734000
C2251	C225	0.941600	0.961200	0.620200
C2261	C226	0.238100	0.654700	0.231400
C2271	C227	0.349300	0.414900	0.263400
C2281	C228	0.035000	0.423300	0.216400
C2291	C229	0.474600	0.187900	0.496000
C2301	C230	0.251300	0.024300	0.597800
C2311	C231	0.601300	0.348100	0.652000
C2321	C232	0.761900	0.345300	0.768600
C2331	C233	0.704400	0.980300	0.315800
C2341	C234	0.967500	0.704300	0.588000
C2351	C235	0.669800	0.566400	0.535200
C2361	C236	0.739200	0.184600	0.091600
C2371	C237	0.308100	0.474600	0.496000
C2381	C238	0.654700	0.993300	0.231400
C2391	C239	0.348100	0.050700	0.652000
C2401	C240	0.662200	0.668700	0.734000
N11	N1	0.303400	0.558100	0.603000
N21	N2	0.044900	0.303400	0.603000
N31	N3	0.227700	0.629900	0.723400
N41	N4	0.629900	0.495700	0.723400
N51	N5	0.186800	0.654400	0.194200
N61	N6	0.460200	0.813200	0.805800
N71	N7	0.201500	0.018100	0.549400
N81	N8	0.927500	0.732900	0.336200
N91	N9	0.973700	0.617600	0.219400
N101	N10	0.398200	0.026300	0.780600
N111	N11	0.650900	0.961500	0.305800
N121	N12	0.038500	0.345100	0.694200
N131	N13	0.423900	0.715500	0.718400
N141	N14	0.002900	0.423900	0.718400
N151	N15	0.772300	0.370100	0.276600
N161	N16	0.955100	0.696600	0.397000
N171	N17	0.531300	0.201500	0.549400
N181	N18	0.349100	0.038500	0.694200
N191	N19	0.981900	0.652100	0.450600
N201	N20	0.986200	0.610700	0.362200
N211	N21	0.347900	0.531300	0.549400
N221	N22	0.389300	0.624000	0.637800
N231	N23	0.654400	0.007400	0.194200
N241	N24	0.732900	0.408700	0.336200
N251	N25	0.906500	0.772300	0.276600
N261	N26	0.624000	0.248500	0.637800
N271	N27	0.284500	0.705500	0.281600
N281	N28	0.798500	0.981900	0.450600
N291	N29	0.376000	0.751500	0.362200
N301	N30	0.299600	0.044900	0.603000
N311	N31	0.267100	0.591300	0.663800
N321	N32	0.448800	0.057400	0.753800
N331	N33	0.013800	0.389300	0.637800
N341	N34	0.468700	0.798500	0.450600
N351	N35	0.655700	0.349100	0.694200
N361	N36	0.696600	0.441900	0.397000
N371	N37	0.652100	0.468700	0.450600
N381	N38	0.504300	0.906500	0.276600
N391	N39	0.715500	0.294500	0.718400
N401	N40	0.695000	0.303600	0.246200
N411	N41	0.396700	0.072500	0.663800
N421	N42	0.495700	0.093500	0.723400
N431	N43	0.057400	0.305000	0.753800
N441	N44	0.696400	0.448800	0.753800
N451	N45	0.382400	0.754300	0.780600
N461	N46	0.018100	0.347900	0.549400
N471	N47	0.558100	0.299600	0.603000
N481	N48	0.601800	0.973700	0.219400
N491	N49	0.072500	0.267100	0.663800
N501	N50	0.603300	0.927500	0.336200
N511	N51	0.345600	0.992600	0.805800
N521	N52	0.942600	0.695000	0.246200
N531	N53	0.961500	0.654900	0.305800
N541	N54	0.441900	0.700400	0.397000
N551	N55	0.408700	0.603300	0.336200
N561	N56	0.705500	0.997100	0.281600
N571	N57	0.813200	0.345600	0.805800
N581	N58	0.294500	0.002900	0.718400
N591	N59	0.700400	0.955100	0.397000
N601	N60	0.551200	0.942600	0.246200
N611	N61	0.245700	0.601800	0.219400
N621	N62	0.305000	0.696400	0.753800
N631	N63	0.539800	0.186800	0.194200
N641	N64	0.007400	0.539800	0.194200
N651	N65	0.617600	0.245700	0.219400
N661	N66	0.751500	0.986200	0.362200
N671	N67	0.303600	0.551200	0.246200
N681	N68	0.610700	0.376000	0.362200
N691	N69	0.591300	0.396700	0.663800
N701	N70	0.754300	0.398200	0.780600
N711	N71	0.576100	0.284500	0.281600
N721	N72	0.093500	0.227700	0.723400
N731	N73	0.026300	0.382400	0.780600
N741	N74	0.654900	0.344300	0.305800
N751	N75	0.992600	0.460200	0.805800
N761	N76	0.344300	0.650900	0.305800
N771	N77	0.370100	0.504300	0.276600
N781	N78	0.997100	0.576100	0.281600
N791	N79	0.248500	0.013800	0.637800
N801	N80	0.345100	0.655700	0.694200
O11	O1	0.950590	0.624950	0.593460
O21	O2	0.049410	0.375050	0.406540
O31	O3	0.357130	0.031490	0.406540
O41	O4	0.942760	0.671700	0.933600
O51	O5	0.285700	0.292230	0.326600
O61	O6	0.924770	0.594570	0.934940
O71	O7	0.375050	0.357130	0.406540
O81	O8	0.804140	0.115250	0.766500
O91	O9	0.651250	0.804140	0.766500
O101	O10	0.130070	0.425860	0.402780
O111	O11	0.041240	0.434850	0.307180
O121	O12	0.036010	0.616610	0.685620
O131	O13	0.120550	0.337340	0.329480
O141	O14	0.738100	0.057240	0.066400
O151	O15	0.340370	0.924770	0.934940
O161	O16	0.734060	0.127670	0.692820
O171	O17	0.348750	0.195860	0.233500
O181	O18	0.990840	0.261900	0.933600
O191	O19	0.169340	0.381830	0.069460
O201	O20	0.099880	0.312370	0.930540
O211	O21	0.930990	0.963990	0.314380
O221	O22	0.312370	0.830660	0.930540
O231	O23	0.010170	0.340370	0.934940
O241	O24	0.115250	0.962360	0.766500
O251	O25	0.009160	0.738100	0.066400
O261	O26	0.687630	0.169340	0.069460
O271	O27	0.237510	0.848010	0.932620
O281	O28	0.594570	0.010170	0.934940
O291	O29	0.963990	0.383390	0.314380
O301	O30	0.968510	0.950590	0.593460
O311	O31	0.992140	0.120550	0.329480
O321	O32	0.848010	0.695110	0.932620
O331	O33	0.381830	0.900120	0.069460
O341	O34	0.023080	0.869930	0.597220
O351	O35	0.952510	0.298210	0.234220
O361	O36	0.989830	0.659630	0.065060
O371	O37	0.272710	0.976920	0.402780
O381	O38	0.915390	0.762490	0.067380
O391	O39	0.565150	0.734060	0.692820
O401	O40	0.075230	0.405430	0.065060
O411	O41	0.434850	0.265940	0.307180
O421	O42	0.872330	0.041240	0.307180
O431	O43	0.069010	0.036010	0.685620
O441	O44	0.618170	0.099880	0.930540
O451	O45	0.936010	0.952510	0.234220
O461	O46	0.884750	0.037640	0.233500
O471	O47	0.261900	0.942760	0.933600
O481	O48	0.900120	0.687630	0.069460
O491	O49	0.649610	0.069010	0.685620
O501	O50	0.007860	0.879450	0.670520
O511	O51	0.151990	0.304890	0.067380
O521	O52	0.671700	0.990840	0.933600
O531	O53	0.574140	0.727290	0.597220
O541	O54	0.962360	0.651250	0.766500
O551	O55	0.958760	0.565150	0.692820
O561	O56	0.727290	0.023080	0.597220
O571	O57	0.659630	0.075230	0.065060
O581	O58	0.127670	0.958760	0.692820
O591	O59	0.040900	0.034370	0.326600
O601	O60	0.791070	0.007860	0.670520
O611	O61	0.328300	0.009160	0.066400
O621	O62	0.304890	0.915390	0.067380
O631	O63	0.037640	0.348750	0.233500
O641	O64	0.031490	0.049410	0.406540
O651	O65	0.830660	0.618170	0.930540
O661	O66	0.762490	0.151990	0.067380
O671	O67	0.959100	0.965630	0.673400
O681	O68	0.195860	0.884750	0.233500
O691	O69	0.701790	0.718290	0.765780
O701	O70	0.714300	0.707770	0.673400
O711	O71	0.976920	0.130070	0.402780
O721	O72	0.662660	0.791070	0.670520
O731	O73	0.695110	0.084610	0.932620
O741	O74	0.869930	0.574140	0.597220
O751	O75	0.965630	0.714300	0.673400
O761	O76	0.624950	0.642870	0.593460
O771	O77	0.707770	0.959100	0.673400
O781	O78	0.208930	0.992140	0.329480
O791	O79	0.383390	0.350390	0.314380
O801	O80	0.281710	0.936010	0.234220
O811	O81	0.084610	0.237510	0.932620
O821	O82	0.063990	0.047490	0.765780
O831	O83	0.642870	0.968510	0.593460
O841	O84	0.298210	0.281710	0.234220
O851	O85	0.405430	0.989830	0.065060
O861	O86	0.879450	0.662660	0.670520
O871	O87	0.047490	0.701790	0.765780
O881	O88	0.350390	0.930990	0.314380
O891	O89	0.265940	0.872330	0.307180
O901	O90	0.057240	0.328300	0.066400
O911	O91	0.034370	0.285700	0.326600
O921	O92	0.292230	0.040900	0.326600
O931	O93	0.718290	0.063990	0.765780
O941	O94	0.616610	0.649610	0.685620
O951	O95	0.425860	0.272710	0.402780
O961	O96	0.337340	0.208930	0.329480
