data_HIYMAF_clean_PM
_symmetry_space_group_name_H-M	'P1'
_cell_length_a	14.352900
_cell_length_b	15.233900
_cell_length_c	33.408300
_cell_angle_alpha	90.000000
_cell_angle_beta	90.000000
_cell_angle_gamma	90.000000
_symmetry_Int_Tables_number 1

loop_
_symmetry_equiv_pos_as_xyz
'x,y,z'

loop_
_atom_site_label
_atom_site_type_symbol
_atom_site_fract_x
_atom_site_fract_y
_atom_site_fract_z
K11	K1	0.686350	0.283230	0.453970
K21	K2	0.691340	0.266250	0.643160
K31	K3	0.685710	0.257000	0.250000
K41	K4	0.814290	0.757000	0.250000
K51	K5	0.808660	0.766250	0.643160
K61	K6	0.308660	0.733750	0.356840
K71	K7	0.186350	0.216770	0.953970
K81	K8	0.686350	0.283230	0.046030
K91	K9	0.313650	0.716770	0.953970
K101	K10	0.191340	0.233750	0.356840
K111	K11	0.185710	0.243000	0.750000
K121	K12	0.813650	0.783230	0.046030
K131	K13	0.691340	0.266250	0.856840
K141	K14	0.808660	0.766250	0.856840
K151	K15	0.313650	0.716770	0.546030
K161	K16	0.813650	0.783230	0.453970
K171	K17	0.191340	0.233750	0.143160
K181	K18	0.314290	0.743000	0.750000
K191	K19	0.308660	0.733750	0.143160
K201	K20	0.186350	0.216770	0.546030
Dy11	Dy1	0.887520	0.297890	0.948990
Dy21	Dy2	0.887520	0.297890	0.551010
Dy31	Dy3	0.140150	0.679620	0.250000
Dy41	Dy4	0.870580	0.303880	0.349200
Dy51	Dy5	0.387520	0.202110	0.448990
Dy61	Dy6	0.359850	0.179620	0.250000
Dy71	Dy7	0.859850	0.320380	0.750000
Dy81	Dy8	0.640150	0.820380	0.750000
Dy91	Dy9	0.629420	0.803880	0.349200
Dy101	Dy10	0.870580	0.303880	0.150800
Dy111	Dy11	0.629420	0.803880	0.150800
Dy121	Dy12	0.612480	0.797890	0.551010
Dy131	Dy13	0.370580	0.196120	0.650800
Dy141	Dy14	0.370580	0.196120	0.849200
Dy151	Dy15	0.129420	0.696120	0.650800
Dy161	Dy16	0.612480	0.797890	0.948990
Dy171	Dy17	0.112480	0.702110	0.448990
Dy181	Dy18	0.112480	0.702110	0.051010
Dy191	Dy19	0.129420	0.696120	0.849200
Dy201	Dy20	0.387520	0.202110	0.051010
C11	C1	0.382100	0.125600	0.750000
C21	C2	0.560800	0.074900	0.250000
C31	C3	0.293700	0.797100	0.250000
C41	C4	0.162600	0.396500	0.050900
C51	C5	0.939200	0.574900	0.250000
C61	C6	0.720100	0.182400	0.352800
C71	C7	0.353200	0.888600	0.852490
C81	C8	0.239500	0.019400	0.855400
C91	C9	0.720100	0.182400	0.147200
C101	C10	0.171900	0.487700	0.449200
C111	C11	0.932100	0.566800	0.047700
C121	C12	0.171900	0.487700	0.050800
C131	C13	0.497600	0.910700	0.049900
C141	C14	0.146800	0.388600	0.647510
C151	C15	0.011200	0.501500	0.049100
C161	C16	0.497600	0.910700	0.450100
C171	C17	0.067900	0.433200	0.952300
C181	C18	0.493900	0.997900	0.250000
C191	C19	0.511200	0.998500	0.549100
C201	C20	0.509900	0.917300	0.851020
C211	C21	0.106800	0.622200	0.350200
C221	C22	0.779900	0.682400	0.352800
C231	C23	0.363200	0.872100	0.250000
C241	C24	0.589700	0.861600	0.450400
C251	C25	0.757400	0.668400	0.550000
C261	C26	0.502400	0.089300	0.549900
C271	C27	0.661300	0.039400	0.750000
C281	C28	0.511200	0.998500	0.950900
C291	C29	0.739500	0.480600	0.355400
C301	C30	0.762600	0.962700	0.950100
C311	C31	0.893200	0.377800	0.850200
C321	C32	0.838700	0.539400	0.750000
C331	C33	0.492300	0.007700	0.649840
C341	C34	0.997600	0.589300	0.549900
C351	C35	0.606800	0.877800	0.850200
C361	C36	0.007700	0.507700	0.649840
C371	C37	0.063800	0.419200	0.149400
C381	C38	0.393200	0.122200	0.350200
C391	C39	0.742600	0.168400	0.550000
C401	C40	0.432100	0.933200	0.547700
C411	C41	0.828100	0.512300	0.949200
C421	C42	0.779900	0.682400	0.147200
C431	C43	0.009900	0.582700	0.351020
C441	C44	0.067900	0.433200	0.547700
C451	C45	0.853200	0.611400	0.352490
C461	C46	0.567900	0.066800	0.047700
C471	C47	0.006100	0.497900	0.250000
C481	C48	0.257400	0.831600	0.050000
C491	C49	0.237400	0.037300	0.049900
C501	C50	0.490100	0.082700	0.148980
C511	C51	0.997600	0.589300	0.950100
C521	C52	0.279900	0.817600	0.647200
C531	C53	0.828100	0.512300	0.550800
C541	C54	0.002400	0.410700	0.450100
C551	C55	0.436200	0.919200	0.149400
C561	C56	0.018100	0.589500	0.750000
C571	C57	0.338700	0.960600	0.250000
C581	C58	0.334500	0.977700	0.852750
C591	C59	0.706300	0.202900	0.750000
C601	C60	0.518100	0.910500	0.250000
C611	C61	0.165500	0.477700	0.852750
C621	C62	0.334500	0.977700	0.647250
C631	C63	0.893200	0.377800	0.649800
C641	C64	0.488800	0.001500	0.049100
C651	C65	0.432100	0.933200	0.952300
C661	C66	0.990100	0.417300	0.851020
C671	C67	0.837400	0.603500	0.550900
C681	C68	0.589700	0.861600	0.049600
C691	C69	0.853200	0.611400	0.147510
C701	C70	0.009900	0.582700	0.148980
C711	C71	0.237400	0.037300	0.450100
C721	C72	0.136800	0.372100	0.250000
C731	C73	0.260500	0.519400	0.644600
C741	C74	0.162600	0.396500	0.449100
C751	C75	0.739700	0.504800	0.750000
C761	C76	0.834500	0.522300	0.147250
C771	C77	0.671900	0.012300	0.550800
C781	C78	0.988800	0.498500	0.950900
C791	C79	0.910300	0.361600	0.450400
C801	C80	0.617900	0.874400	0.250000
C811	C81	0.353200	0.888600	0.647510
C821	C82	0.002400	0.410700	0.049900
C831	C83	0.760500	0.980600	0.355400
C841	C84	0.239500	0.019400	0.644600
C851	C85	0.567900	0.066800	0.452300
C861	C86	0.507700	0.992300	0.350160
C871	C87	0.737400	0.462700	0.950100
C881	C88	0.662600	0.103500	0.550900
C891	C89	0.981900	0.410500	0.250000
C901	C90	0.260500	0.519400	0.855400
C911	C91	0.117900	0.625600	0.750000
C921	C92	0.646800	0.111400	0.147510
C931	C93	0.993900	0.502100	0.750000
C941	C94	0.737400	0.462700	0.549900
C951	C95	0.837400	0.603500	0.949100
C961	C96	0.490100	0.082700	0.351020
C971	C97	0.563800	0.080800	0.850600
C981	C98	0.439200	0.925100	0.750000
C991	C99	0.665500	0.022300	0.147250
C1001	C100	0.506100	0.002100	0.750000
C1011	C101	0.206300	0.297100	0.250000
C1021	C102	0.863200	0.627900	0.750000
C1031	C103	0.410300	0.138400	0.950400
C1041	C104	0.393200	0.122200	0.149800
C1051	C105	0.671900	0.012300	0.949200
C1061	C106	0.242600	0.331600	0.450000
C1071	C107	0.337400	0.896500	0.449100
C1081	C108	0.239700	0.995200	0.250000
C1091	C109	0.328100	0.987700	0.449200
C1101	C110	0.060800	0.425100	0.750000
C1111	C111	0.436200	0.919200	0.350600
C1121	C112	0.742600	0.168400	0.950000
C1131	C113	0.410300	0.138400	0.549600
C1141	C114	0.011200	0.501500	0.450900
C1151	C115	0.646800	0.111400	0.352490
C1161	C116	0.932100	0.566800	0.452300
C1171	C117	0.757400	0.668400	0.950000
C1181	C118	0.936200	0.580800	0.649400
C1191	C119	0.606800	0.877800	0.649800
C1201	C120	0.257400	0.831600	0.450000
C1211	C121	0.793700	0.702900	0.750000
C1221	C122	0.665500	0.022300	0.352750
C1231	C123	0.165500	0.477700	0.647250
C1241	C124	0.992300	0.492300	0.350160
C1251	C125	0.220100	0.317600	0.647200
C1261	C126	0.260300	0.495200	0.250000
C1271	C127	0.988800	0.498500	0.549100
C1281	C128	0.882100	0.374400	0.250000
C1291	C129	0.063800	0.419200	0.350600
C1301	C130	0.262600	0.537300	0.049900
C1311	C131	0.760500	0.980600	0.144600
C1321	C132	0.242600	0.331600	0.050000
C1331	C133	0.007700	0.507700	0.850160
C1341	C134	0.337400	0.896500	0.050900
C1351	C135	0.328100	0.987700	0.050800
C1361	C136	0.762600	0.962700	0.549900
C1371	C137	0.106800	0.622200	0.149800
C1381	C138	0.279900	0.817600	0.852800
C1391	C139	0.992300	0.492300	0.149840
C1401	C140	0.089700	0.638400	0.950400
C1411	C141	0.910300	0.361600	0.049600
C1421	C142	0.089700	0.638400	0.549600
C1431	C143	0.739500	0.480600	0.144600
C1441	C144	0.563800	0.080800	0.649400
C1451	C145	0.760300	0.004800	0.750000
C1461	C146	0.936200	0.580800	0.850600
C1471	C147	0.834500	0.522300	0.352750
C1481	C148	0.146800	0.388600	0.852490
C1491	C149	0.502400	0.089300	0.950100
C1501	C150	0.990100	0.417300	0.648980
C1511	C151	0.636800	0.127900	0.750000
C1521	C152	0.662600	0.103500	0.949100
C1531	C153	0.161300	0.460600	0.250000
C1541	C154	0.492300	0.007700	0.850160
C1551	C155	0.481900	0.089500	0.750000
C1561	C156	0.507700	0.992300	0.149840
C1571	C157	0.488800	0.001500	0.450900
C1581	C158	0.262600	0.537300	0.450100
C1591	C159	0.220100	0.317600	0.852800
C1601	C160	0.509900	0.917300	0.648980
N11	N1	0.047700	0.347000	0.250000
N21	N2	0.595600	0.961800	0.550260
N31	N3	0.904400	0.461800	0.949740
N41	N4	0.922000	0.641300	0.949740
N51	N5	0.078000	0.358700	0.050260
N61	N6	0.595600	0.961800	0.949740
N71	N7	0.403700	0.036000	0.648470
N81	N8	0.058200	0.359400	0.647820
N91	N9	0.903700	0.464000	0.148470
N101	N10	0.547700	0.153000	0.750000
N111	N11	0.941800	0.640600	0.352180
N121	N12	0.422000	0.858700	0.449740
N131	N13	0.922000	0.641300	0.550260
N141	N14	0.596300	0.964000	0.148470
N151	N15	0.403700	0.036000	0.851530
N161	N16	0.904200	0.478700	0.750000
N171	N17	0.441800	0.859400	0.647820
N181	N18	0.452300	0.847000	0.250000
N191	N19	0.941800	0.640600	0.147820
N201	N20	0.404400	0.038200	0.449740
N211	N21	0.903700	0.464000	0.351530
N221	N22	0.404200	0.021300	0.250000
N231	N23	0.095800	0.521300	0.250000
N241	N24	0.078000	0.358700	0.449740
N251	N25	0.096300	0.536000	0.851530
N261	N26	0.904400	0.461800	0.550260
N271	N27	0.578000	0.141300	0.949740
N281	N28	0.596300	0.964000	0.351530
N291	N29	0.095600	0.538200	0.050260
N301	N30	0.441800	0.859400	0.852180
N311	N31	0.558200	0.140600	0.147820
N321	N32	0.058200	0.359400	0.852180
N331	N33	0.096300	0.536000	0.648470
N341	N34	0.558200	0.140600	0.352180
N351	N35	0.095600	0.538200	0.449740
N361	N36	0.595800	0.978700	0.750000
N371	N37	0.404400	0.038200	0.050260
N381	N38	0.422000	0.858700	0.050260
N391	N39	0.578000	0.141300	0.550260
N401	N40	0.952300	0.653000	0.750000
O11	O1	0.855600	0.559400	0.250000
O21	O2	0.241600	0.283300	0.885140
O31	O3	0.245200	0.119600	0.049860
O41	O4	0.164500	0.994700	0.451200
O51	O5	0.335500	0.494700	0.048800
O61	O6	0.233100	0.267600	0.217550
O71	O7	0.733100	0.232400	0.782450
O81	O8	0.245900	0.794700	0.820380
O91	O9	0.646500	0.062000	0.646960
O101	O10	0.978100	0.650600	0.250000
O111	O11	0.329600	0.470400	0.857500
O121	O12	0.123600	0.658500	0.917580
O131	O13	0.377100	0.158500	0.516200
O141	O14	0.170400	0.970400	0.642500
O151	O15	0.267500	0.578500	0.250000
O161	O16	0.254100	0.294700	0.679620
O171	O17	0.346300	0.140300	0.783300
O181	O18	0.733100	0.232400	0.717550
O191	O19	0.648000	0.038600	0.046940
O201	O20	0.824000	0.055300	0.750000
O211	O21	0.648000	0.038600	0.453060
O221	O22	0.542700	0.147700	0.047860
O231	O23	0.623600	0.841500	0.082420
O241	O24	0.716200	0.686700	0.918060
O251	O25	0.352000	0.961400	0.546940
O261	O26	0.754800	0.880400	0.950140
O271	O27	0.335500	0.494700	0.451200
O281	O28	0.761700	0.897600	0.144650
O291	O29	0.741700	0.706200	0.981830
O301	O30	0.324000	0.444700	0.250000
O311	O31	0.148000	0.461400	0.953060
O321	O32	0.457300	0.852300	0.952140
O331	O33	0.758300	0.206200	0.981830
O341	O34	0.636900	0.848500	0.882490
O351	O35	0.478100	0.849400	0.750000
O361	O36	0.136900	0.651500	0.382490
O371	O37	0.970400	0.657600	0.650620
O381	O38	0.241600	0.283300	0.614860
O391	O39	0.738300	0.397600	0.144650
O401	O40	0.529600	0.157600	0.849380
O411	O41	0.029600	0.342400	0.150620
O421	O42	0.470400	0.842400	0.150620
O431	O43	0.123600	0.658500	0.582420
O441	O44	0.648000	0.873600	0.682650
O451	O45	0.254800	0.619600	0.049860
O461	O46	0.377100	0.158500	0.983800
O471	O47	0.042700	0.352300	0.547860
O481	O48	0.957300	0.647700	0.452140
O491	O49	0.876400	0.341500	0.082420
O501	O50	0.853500	0.562000	0.646960
O511	O51	0.241700	0.793800	0.018170
O521	O52	0.542700	0.147700	0.452140
O531	O53	0.238300	0.102400	0.855350
O541	O54	0.783800	0.186700	0.918060
O551	O55	0.153700	0.640300	0.783300
O561	O56	0.846300	0.359700	0.216700
O571	O57	0.329600	0.470400	0.642500
O581	O58	0.148000	0.626400	0.317350
O591	O59	0.238300	0.102400	0.644650
O601	O60	0.258400	0.783300	0.614860
O611	O61	0.754100	0.205300	0.179620
O621	O62	0.254800	0.619600	0.450140
O631	O63	0.352000	0.126400	0.317350
O641	O64	0.732500	0.421500	0.750000
O651	O65	0.283800	0.313300	0.081940
O661	O66	0.261700	0.602400	0.855350
O671	O67	0.521900	0.150600	0.250000
O681	O68	0.738300	0.397600	0.355350
O691	O69	0.876400	0.341500	0.417580
O701	O70	0.741700	0.706200	0.518170
O711	O71	0.745900	0.705300	0.320380
O721	O72	0.622900	0.841500	0.016200
O731	O73	0.352000	0.126400	0.182650
O741	O74	0.353500	0.938000	0.353040
O751	O75	0.258300	0.293800	0.018170
O761	O76	0.623600	0.841500	0.417580
O771	O77	0.835500	0.005300	0.548800
O781	O78	0.676000	0.555300	0.750000
O791	O79	0.648000	0.873600	0.817350
O801	O80	0.829600	0.029600	0.142500
O811	O81	0.261700	0.602400	0.644650
O821	O82	0.346300	0.140300	0.716700
O831	O83	0.758400	0.716700	0.385140
O841	O84	0.716200	0.686700	0.581940
O851	O85	0.783800	0.186700	0.581940
O861	O86	0.146500	0.438000	0.353040
O871	O87	0.355600	0.940600	0.750000
O881	O88	0.644400	0.059400	0.250000
O891	O89	0.353500	0.938000	0.146960
O901	O90	0.144400	0.440600	0.750000
O911	O91	0.164500	0.994700	0.048800
O921	O92	0.852000	0.373600	0.817350
O931	O93	0.863100	0.348500	0.617510
O941	O94	0.758400	0.716700	0.114860
O951	O95	0.352000	0.961400	0.953060
O961	O96	0.766900	0.732400	0.717550
O971	O97	0.146500	0.438000	0.146960
O981	O98	0.245900	0.794700	0.679620
O991	O99	0.846300	0.359700	0.283300
O1001	O100	0.470400	0.842400	0.349380
O1011	O101	0.636900	0.848500	0.617510
O1021	O102	0.216200	0.813300	0.418060
O1031	O103	0.363100	0.151500	0.117510
O1041	O104	0.176000	0.944700	0.250000
O1051	O105	0.852000	0.538600	0.453060
O1061	O106	0.754800	0.880400	0.549860
O1071	O107	0.970400	0.657600	0.849380
O1081	O108	0.741600	0.216700	0.114860
O1091	O109	0.153700	0.640300	0.716700
O1101	O110	0.363100	0.151500	0.382490
O1111	O111	0.376400	0.158500	0.582420
O1121	O112	0.877100	0.341500	0.483800
O1131	O113	0.758300	0.206200	0.518170
O1141	O114	0.767500	0.921500	0.750000
O1151	O115	0.245200	0.119600	0.450140
O1161	O116	0.766900	0.732400	0.782450
O1171	O117	0.761700	0.897600	0.355350
O1181	O118	0.853500	0.562000	0.853040
O1191	O119	0.376400	0.158500	0.917580
O1201	O120	0.754100	0.205300	0.320380
O1211	O121	0.877100	0.341500	0.016200
O1221	O122	0.457300	0.852300	0.547860
O1231	O123	0.829600	0.029600	0.357500
O1241	O124	0.835500	0.005300	0.951200
O1251	O125	0.664500	0.505300	0.951200
O1261	O126	0.021900	0.349400	0.750000
O1271	O127	0.664500	0.505300	0.548800
O1281	O128	0.863100	0.348500	0.882490
O1291	O129	0.957300	0.647700	0.047860
O1301	O130	0.148000	0.626400	0.182650
O1311	O131	0.283800	0.313300	0.418060
O1321	O132	0.042700	0.352300	0.952140
O1331	O133	0.266900	0.767600	0.282450
O1341	O134	0.745200	0.380400	0.950140
O1351	O135	0.741600	0.216700	0.385140
O1361	O136	0.653700	0.859700	0.216700
O1371	O137	0.254100	0.294700	0.820380
O1381	O138	0.258300	0.293800	0.481830
O1391	O139	0.653700	0.859700	0.283300
O1401	O140	0.122900	0.658500	0.516200
O1411	O141	0.745200	0.380400	0.549860
O1421	O142	0.170400	0.970400	0.857500
O1431	O143	0.529600	0.157600	0.650620
O1441	O144	0.745900	0.705300	0.179620
O1451	O145	0.266900	0.767600	0.217550
O1461	O146	0.122900	0.658500	0.983800
O1471	O147	0.233100	0.267600	0.282450
O1481	O148	0.136900	0.651500	0.117510
O1491	O149	0.852000	0.538600	0.046940
O1501	O150	0.232500	0.078500	0.250000
O1511	O151	0.241700	0.793800	0.481830
O1521	O152	0.852000	0.373600	0.682650
O1531	O153	0.258400	0.783300	0.885140
O1541	O154	0.646500	0.062000	0.853040
O1551	O155	0.622900	0.841500	0.483800
O1561	O156	0.216200	0.813300	0.081940
O1571	O157	0.670400	0.529600	0.357500
O1581	O158	0.029600	0.342400	0.349380
O1591	O159	0.148000	0.461400	0.546940
O1601	O160	0.670400	0.529600	0.142500
