data_HIYMEJ_clean_PM
_symmetry_space_group_name_H-M	'P1'
_cell_length_a	14.406800
_cell_length_b	15.064600
_cell_length_c	33.083400
_cell_angle_alpha	90.000000
_cell_angle_beta	90.000000
_cell_angle_gamma	90.000000
_symmetry_Int_Tables_number 1

loop_
_symmetry_equiv_pos_as_xyz
'x,y,z'

loop_
_atom_site_label
_atom_site_type_symbol
_atom_site_fract_x
_atom_site_fract_y
_atom_site_fract_z
Yb11	Yb1	0.138460	0.678060	0.250000
Yb21	Yb2	0.130560	0.694620	0.849760
Yb31	Yb3	0.888260	0.297730	0.551140
Yb41	Yb4	0.638460	0.821940	0.750000
Yb51	Yb5	0.630560	0.805380	0.150240
Yb61	Yb6	0.361540	0.178060	0.250000
Yb71	Yb7	0.130560	0.694620	0.650240
Yb81	Yb8	0.111740	0.702270	0.448860
Yb91	Yb9	0.611740	0.797730	0.948860
Yb101	Yb10	0.861540	0.321940	0.750000
Yb111	Yb11	0.111740	0.702270	0.051140
Yb121	Yb12	0.388260	0.202270	0.448860
Yb131	Yb13	0.388260	0.202270	0.051140
Yb141	Yb14	0.630560	0.805380	0.349760
Yb151	Yb15	0.869440	0.305380	0.150240
Yb161	Yb16	0.611740	0.797730	0.551140
Yb171	Yb17	0.869440	0.305380	0.349760
Yb181	Yb18	0.369440	0.194620	0.849760
Yb191	Yb19	0.888260	0.297730	0.948860
Yb201	Yb20	0.369440	0.194620	0.650240
K11	K1	0.185270	0.214030	0.545310
K21	K2	0.813900	0.755400	0.250000
K31	K3	0.814730	0.785970	0.454690
K41	K4	0.809320	0.768690	0.642520
K51	K5	0.690680	0.268690	0.642520
K61	K6	0.185270	0.214030	0.954690
K71	K7	0.186100	0.244600	0.750000
K81	K8	0.314730	0.714030	0.954690
K91	K9	0.685270	0.285970	0.045310
K101	K10	0.190680	0.231310	0.357480
K111	K11	0.686100	0.255400	0.250000
K121	K12	0.314730	0.714030	0.545310
K131	K13	0.190680	0.231310	0.142520
K141	K14	0.809320	0.768690	0.857480
K151	K15	0.814730	0.785970	0.045310
K161	K16	0.309320	0.731310	0.142520
K171	K17	0.313900	0.744600	0.750000
K181	K18	0.685270	0.285970	0.454690
K191	K19	0.690680	0.268690	0.857480
K201	K20	0.309320	0.731310	0.357480
C11	C1	0.332900	0.978200	0.647400
C21	C2	0.164600	0.397100	0.051000
C31	C3	0.495100	0.909900	0.049900
C41	C4	0.835400	0.602900	0.949000
C51	C5	0.487400	0.001300	0.450600
C61	C6	0.738000	0.459300	0.949700
C71	C7	0.512600	0.998700	0.549400
C81	C8	0.989900	0.491000	0.149900
C91	C9	0.066700	0.431700	0.548400
C101	C10	0.167100	0.478200	0.852600
C111	C11	0.260400	0.497000	0.250000
C121	C12	0.835400	0.602900	0.551000
C131	C13	0.066700	0.431700	0.951600
C141	C14	0.087300	0.639900	0.950300
C151	C15	0.014800	0.593600	0.750000
C161	C16	0.647500	0.112000	0.147000
C171	C17	0.510100	0.991000	0.149900
C181	C18	0.508700	0.917400	0.649200
C191	C19	0.992000	0.505100	0.750000
C201	C20	0.838300	0.539800	0.750000
C211	C21	0.737800	0.478900	0.144500
C221	C22	0.060900	0.416500	0.350600
C231	C23	0.778400	0.682500	0.353700
C241	C24	0.667100	0.021800	0.147400
C251	C25	0.221600	0.317500	0.853700
C261	C26	0.504900	0.090100	0.549900
C271	C27	0.587300	0.860100	0.450300
C281	C28	0.508000	0.005100	0.750000
C291	C29	0.489900	0.009000	0.649900
C301	C30	0.112900	0.631100	0.750000
C311	C31	0.985200	0.406400	0.250000
C321	C32	0.433300	0.931700	0.951600
C331	C33	0.605100	0.877600	0.850300
C341	C34	0.441000	0.926700	0.750000
C351	C35	0.412700	0.139900	0.549700
C361	C36	0.560900	0.083500	0.850600
C371	C37	0.912700	0.360100	0.049700
C381	C38	0.762000	0.959300	0.550300
C391	C39	0.664600	0.102900	0.949000
C401	C40	0.004900	0.409900	0.049900
C411	C41	0.559000	0.073300	0.250000
C421	C42	0.832900	0.521800	0.352600
C431	C43	0.492000	0.994900	0.250000
C441	C44	0.762200	0.978900	0.355500
C451	C45	0.711600	0.205200	0.750000
C461	C46	0.826900	0.511000	0.550700
C471	C47	0.755400	0.667600	0.549400
C481	C48	0.860000	0.631200	0.750000
C491	C49	0.762000	0.959300	0.949700
C501	C50	0.489900	0.009000	0.850100
C511	C51	0.941000	0.573300	0.250000
C521	C52	0.237800	0.021100	0.855500
C531	C53	0.788400	0.705200	0.750000
C541	C54	0.987400	0.498700	0.950600
C551	C55	0.991300	0.417400	0.850800
C561	C56	0.173100	0.489000	0.050700
C571	C57	0.237800	0.021100	0.644500
C581	C58	0.912700	0.360100	0.450300
C591	C59	0.060900	0.416500	0.149400
C601	C60	0.147500	0.388000	0.853000
C611	C61	0.491300	0.082600	0.350800
C621	C62	0.739600	0.503000	0.750000
C631	C63	0.010100	0.509000	0.649900
C641	C64	0.491300	0.082600	0.149200
C651	C65	0.495100	0.909900	0.450100
C661	C66	0.239600	0.997000	0.250000
C671	C67	0.508700	0.917400	0.850800
C681	C68	0.744600	0.167600	0.950600
C691	C69	0.147500	0.388000	0.647000
C701	C70	0.987400	0.498700	0.549400
C711	C71	0.352500	0.888000	0.853000
C721	C72	0.352500	0.888000	0.647000
C731	C73	0.008000	0.494900	0.250000
C741	C74	0.010100	0.509000	0.850100
C751	C75	0.933300	0.568300	0.048400
C761	C76	0.995100	0.590100	0.950100
C771	C77	0.514800	0.906400	0.250000
C781	C78	0.288400	0.794800	0.250000
C791	C79	0.504900	0.090100	0.950100
C801	C80	0.673100	0.011000	0.550700
C811	C81	0.673100	0.011000	0.949300
C821	C82	0.167100	0.478200	0.647400
C831	C83	0.278400	0.817500	0.646300
C841	C84	0.485200	0.093600	0.750000
C851	C85	0.661700	0.039800	0.750000
C861	C86	0.832900	0.521800	0.147400
C871	C87	0.244600	0.332400	0.049400
C881	C88	0.667100	0.021800	0.352600
C891	C89	0.335400	0.897100	0.051000
C901	C90	0.221600	0.317500	0.646300
C911	C91	0.164600	0.397100	0.449000
C921	C92	0.721600	0.182500	0.353700
C931	C93	0.105100	0.622400	0.350300
C941	C94	0.826900	0.511000	0.949300
C951	C95	0.255400	0.832400	0.049400
C961	C96	0.737800	0.478900	0.355500
C971	C97	0.664600	0.102900	0.551000
C981	C98	0.989900	0.491000	0.350100
C991	C99	0.852500	0.612000	0.147000
C1001	C100	0.004900	0.409900	0.450100
C1011	C101	0.744600	0.167600	0.549400
C1021	C102	0.510100	0.991000	0.350100
C1031	C103	0.262200	0.521100	0.644500
C1041	C104	0.278400	0.817500	0.853700
C1051	C105	0.211600	0.294800	0.250000
C1061	C106	0.640000	0.131200	0.750000
C1071	C107	0.087300	0.639900	0.549700
C1081	C108	0.262200	0.521100	0.855500
C1091	C109	0.140000	0.368800	0.250000
C1101	C110	0.991300	0.417400	0.649200
C1111	C111	0.439100	0.916500	0.149400
C1121	C112	0.338300	0.960200	0.250000
C1131	C113	0.605100	0.877600	0.649700
C1141	C114	0.326900	0.989000	0.050700
C1151	C115	0.566700	0.068300	0.451600
C1161	C116	0.008700	0.582600	0.149200
C1171	C117	0.721600	0.182500	0.146300
C1181	C118	0.387100	0.131100	0.750000
C1191	C119	0.394900	0.122400	0.350300
C1201	C120	0.933300	0.568300	0.451600
C1211	C121	0.433300	0.931700	0.548400
C1221	C122	0.939100	0.583500	0.649400
C1231	C123	0.262000	0.540700	0.449700
C1241	C124	0.105100	0.622400	0.149700
C1251	C125	0.894900	0.377600	0.850300
C1261	C126	0.008700	0.582600	0.350800
C1271	C127	0.762200	0.978900	0.144500
C1281	C128	0.587300	0.860100	0.049700
C1291	C129	0.262000	0.540700	0.050300
C1301	C130	0.412700	0.139900	0.950300
C1311	C131	0.394900	0.122400	0.149700
C1321	C132	0.512600	0.998700	0.950600
C1331	C133	0.335400	0.897100	0.449000
C1341	C134	0.439100	0.916500	0.350600
C1351	C135	0.012600	0.501300	0.450600
C1361	C136	0.894900	0.377600	0.649700
C1371	C137	0.852500	0.612000	0.353000
C1381	C138	0.566700	0.068300	0.048400
C1391	C139	0.238000	0.040700	0.050300
C1401	C140	0.238000	0.040700	0.449700
C1411	C141	0.326900	0.989000	0.449300
C1421	C142	0.173100	0.489000	0.449300
C1431	C143	0.360000	0.868800	0.250000
C1441	C144	0.939100	0.583500	0.850600
C1451	C145	0.778400	0.682500	0.146300
C1461	C146	0.560900	0.083500	0.649400
C1471	C147	0.255400	0.832400	0.450600
C1481	C148	0.612900	0.868900	0.250000
C1491	C149	0.332900	0.978200	0.852600
C1501	C150	0.995100	0.590100	0.549900
C1511	C151	0.755400	0.667600	0.950600
C1521	C152	0.487400	0.001300	0.049400
C1531	C153	0.647500	0.112000	0.353000
C1541	C154	0.887100	0.368900	0.250000
C1551	C155	0.161700	0.460200	0.250000
C1561	C156	0.738000	0.459300	0.550300
C1571	C157	0.244600	0.332400	0.450600
C1581	C158	0.059000	0.426700	0.750000
C1591	C159	0.012600	0.501300	0.049400
C1601	C160	0.760400	0.003000	0.750000
N11	N1	0.402300	0.020200	0.250000
N21	N2	0.903400	0.460400	0.550000
N31	N3	0.403400	0.039600	0.050000
N41	N4	0.560100	0.142100	0.351940
N51	N5	0.596600	0.960400	0.950000
N61	N6	0.097600	0.536800	0.851210
N71	N7	0.080300	0.358000	0.450000
N81	N8	0.939900	0.642100	0.351940
N91	N9	0.596600	0.960400	0.550000
N101	N10	0.403400	0.039600	0.450000
N111	N11	0.919700	0.642000	0.550000
N121	N12	0.550800	0.155900	0.750000
N131	N13	0.050800	0.344100	0.250000
N141	N14	0.419700	0.858000	0.450000
N151	N15	0.560100	0.142100	0.148060
N161	N16	0.419700	0.858000	0.050000
N171	N17	0.903400	0.460400	0.950000
N181	N18	0.402400	0.036800	0.851210
N191	N19	0.949200	0.655900	0.750000
N201	N20	0.060100	0.357900	0.648060
N211	N21	0.402400	0.036800	0.648790
N221	N22	0.439900	0.857900	0.851940
N231	N23	0.097600	0.536800	0.648790
N241	N24	0.939900	0.642100	0.148060
N251	N25	0.580300	0.142000	0.550000
N261	N26	0.096600	0.539600	0.450000
N271	N27	0.097700	0.520200	0.250000
N281	N28	0.919700	0.642000	0.950000
N291	N29	0.080300	0.358000	0.050000
N301	N30	0.449200	0.844100	0.250000
N311	N31	0.597600	0.963200	0.148790
N321	N32	0.096600	0.539600	0.050000
N331	N33	0.902300	0.479800	0.750000
N341	N34	0.902400	0.463200	0.351210
N351	N35	0.597600	0.963200	0.351210
N361	N36	0.597700	0.979800	0.750000
N371	N37	0.060100	0.357900	0.851940
N381	N38	0.580300	0.142000	0.950000
N391	N39	0.902400	0.463200	0.148790
N401	N40	0.439900	0.857900	0.648060
O11	O1	0.019800	0.350200	0.750000
O21	O2	0.262000	0.295900	0.483300
O31	O3	0.649700	0.854400	0.283500
O41	O4	0.745000	0.215000	0.113220
O51	O5	0.880000	0.340600	0.483930
O61	O6	0.238400	0.266600	0.282720
O71	O7	0.357300	0.934300	0.352300
O81	O8	0.353400	0.960100	0.547300
O91	O9	0.474900	0.839700	0.151100
O101	O10	0.762000	0.204100	0.516700
O111	O11	0.149700	0.645600	0.783500
O121	O12	0.121100	0.660200	0.917300
O131	O13	0.146600	0.460100	0.952700
O141	O14	0.857300	0.565700	0.647700
O151	O15	0.744100	0.708800	0.178760
O161	O16	0.974900	0.660300	0.651100
O171	O17	0.356500	0.942500	0.750000
O181	O18	0.649700	0.854400	0.216500
O191	O19	0.266300	0.581000	0.250000
O201	O20	0.350300	0.145600	0.716500
O211	O21	0.025100	0.339700	0.151100
O221	O22	0.755000	0.715000	0.386780
O231	O23	0.664000	0.500300	0.951300
O241	O24	0.974900	0.660300	0.848900
O251	O25	0.830700	0.027500	0.356700
O261	O26	0.255000	0.785000	0.886780
O271	O27	0.149700	0.645600	0.716500
O281	O28	0.357300	0.934300	0.147700
O291	O29	0.738300	0.394800	0.355410
O301	O30	0.853400	0.539900	0.452700
O311	O31	0.857300	0.565700	0.852300
O321	O32	0.646600	0.039900	0.047300
O331	O33	0.980200	0.649800	0.250000
O341	O34	0.353400	0.960100	0.952700
O351	O35	0.836000	0.000300	0.548700
O361	O36	0.285700	0.312400	0.081700
O371	O37	0.664000	0.500300	0.548700
O381	O38	0.142700	0.434300	0.352300
O391	O39	0.252800	0.624100	0.450500
O401	O40	0.380000	0.159400	0.983930
O411	O41	0.135700	0.651600	0.117210
O421	O42	0.745000	0.215000	0.386780
O431	O43	0.755900	0.208800	0.178760
O441	O44	0.646400	0.873400	0.683020
O451	O45	0.674300	0.552200	0.750000
O461	O46	0.959500	0.649400	0.048800
O471	O47	0.738400	0.233400	0.782720
O481	O48	0.238000	0.795900	0.016700
O491	O49	0.245000	0.285000	0.886780
O501	O50	0.330700	0.472500	0.856700
O511	O51	0.646600	0.039900	0.452700
O521	O52	0.761700	0.894800	0.355410
O531	O53	0.733700	0.419000	0.750000
O541	O54	0.519800	0.149800	0.250000
O551	O55	0.214300	0.812400	0.081700
O561	O56	0.850300	0.354400	0.283500
O571	O57	0.350300	0.145600	0.783500
O581	O58	0.761700	0.894800	0.144590
O591	O59	0.247200	0.124100	0.049500
O601	O60	0.714300	0.687600	0.581700
O611	O61	0.247200	0.124100	0.450500
O621	O62	0.255900	0.291200	0.678760
O631	O63	0.238400	0.266600	0.217280
O641	O64	0.540500	0.149400	0.451200
O651	O65	0.252800	0.624100	0.049500
O661	O66	0.214300	0.812400	0.418300
O671	O67	0.747200	0.375900	0.950500
O681	O68	0.755900	0.208800	0.321240
O691	O69	0.164000	0.999700	0.048700
O701	O70	0.245000	0.285000	0.613220
O711	O71	0.261700	0.605200	0.644590
O721	O72	0.525100	0.160300	0.848900
O731	O73	0.262000	0.295900	0.016700
O741	O74	0.853400	0.539900	0.047300
O751	O75	0.255900	0.291200	0.821240
O761	O76	0.620000	0.840600	0.483930
O771	O77	0.620000	0.840600	0.016070
O781	O78	0.146400	0.626600	0.183020
O791	O79	0.669300	0.527500	0.143300
O801	O80	0.121100	0.660200	0.582700
O811	O81	0.353600	0.126600	0.316980
O821	O82	0.853600	0.373400	0.816980
O831	O83	0.120000	0.659400	0.983930
O841	O84	0.174300	0.947800	0.250000
O851	O85	0.480200	0.850200	0.750000
O861	O86	0.261600	0.766600	0.217280
O871	O87	0.040500	0.350600	0.951200
O881	O88	0.643500	0.057500	0.250000
O891	O89	0.525100	0.160300	0.651100
O901	O90	0.169300	0.972500	0.643300
O911	O91	0.856500	0.557500	0.250000
O921	O92	0.378900	0.160200	0.582700
O931	O93	0.142700	0.434300	0.147700
O941	O94	0.880000	0.340600	0.016070
O951	O95	0.738000	0.704100	0.983300
O961	O96	0.785700	0.187600	0.581700
O971	O97	0.669300	0.527500	0.356700
O981	O98	0.325700	0.447800	0.250000
O991	O99	0.642700	0.065700	0.852300
O1001	O100	0.285700	0.312400	0.418300
O1011	O101	0.120000	0.659400	0.516070
O1021	O102	0.336000	0.499700	0.451300
O1031	O103	0.244100	0.791200	0.678760
O1041	O104	0.738000	0.704100	0.516700
O1051	O105	0.255000	0.785000	0.613220
O1061	O106	0.752800	0.875900	0.549500
O1071	O107	0.761600	0.733400	0.717280
O1081	O108	0.261600	0.766600	0.282720
O1091	O109	0.238300	0.105200	0.855410
O1101	O110	0.621100	0.839800	0.417300
O1111	O111	0.364300	0.151600	0.117210
O1121	O112	0.850300	0.354400	0.216500
O1131	O113	0.261700	0.605200	0.855410
O1141	O114	0.853600	0.373400	0.683020
O1151	O115	0.540500	0.149400	0.048800
O1161	O116	0.459500	0.850600	0.548800
O1171	O117	0.238300	0.105200	0.644590
O1181	O118	0.878900	0.339800	0.417300
O1191	O119	0.635700	0.848400	0.617210
O1201	O120	0.164000	0.999700	0.451300
O1211	O121	0.755000	0.715000	0.113220
O1221	O122	0.830700	0.027500	0.143300
O1231	O123	0.836000	0.000300	0.951300
O1241	O124	0.766300	0.919000	0.750000
O1251	O125	0.761600	0.733400	0.782720
O1261	O126	0.143500	0.442500	0.750000
O1271	O127	0.330700	0.472500	0.643300
O1281	O128	0.878900	0.339800	0.082700
O1291	O129	0.040500	0.350600	0.548800
O1301	O130	0.169300	0.972500	0.856700
O1311	O131	0.353600	0.126600	0.183020
O1321	O132	0.864300	0.348400	0.617210
O1331	O133	0.244100	0.791200	0.821240
O1341	O134	0.738300	0.394800	0.144590
O1351	O135	0.378900	0.160200	0.917300
O1361	O136	0.744100	0.708800	0.321240
O1371	O137	0.785700	0.187600	0.918300
O1381	O138	0.825700	0.052200	0.750000
O1391	O139	0.135700	0.651600	0.382790
O1401	O140	0.714300	0.687600	0.918300
O1411	O141	0.864300	0.348400	0.882790
O1421	O142	0.646400	0.873400	0.816980
O1431	O143	0.474900	0.839700	0.348900
O1441	O144	0.380000	0.159400	0.516070
O1451	O145	0.959500	0.649400	0.451200
O1461	O146	0.642700	0.065700	0.647700
O1471	O147	0.459500	0.850600	0.951200
O1481	O148	0.146400	0.626600	0.316980
O1491	O149	0.146600	0.460100	0.547300
O1501	O150	0.752800	0.875900	0.950500
O1511	O151	0.238000	0.795900	0.483300
O1521	O152	0.635700	0.848400	0.882790
O1531	O153	0.762000	0.204100	0.983300
O1541	O154	0.364300	0.151600	0.382790
O1551	O155	0.738400	0.233400	0.717280
O1561	O156	0.025100	0.339700	0.348900
O1571	O157	0.336000	0.499700	0.048700
O1581	O158	0.621100	0.839800	0.082700
O1591	O159	0.233700	0.081000	0.250000
O1601	O160	0.747200	0.375900	0.549500
