data_HIZQEN01_clean_PM
_symmetry_space_group_name_H-M	'P1'
_cell_length_a	7.440700
_cell_length_b	9.766000
_cell_length_c	9.850000
_cell_angle_alpha	118.297000
_cell_angle_beta	102.247000
_cell_angle_gamma	91.434000
_symmetry_Int_Tables_number 1

loop_
_symmetry_equiv_pos_as_xyz
'x,y,z'

loop_
_atom_site_label
_atom_site_type_symbol
_atom_site_fract_x
_atom_site_fract_y
_atom_site_fract_z
Cd11	Cd1	0.737900	0.973280	0.483970
O11	O1	0.732800	0.870000	0.671800
O21	O2	0.570600	0.056400	0.670300
O31	O3	0.022500	0.106000	0.673100
O41	O4	0.260500	0.272100	0.713500
C11	C1	0.627400	0.967500	0.729200
C21	C2	0.563100	0.984600	0.870200
C31	C3	0.460300	0.104700	0.943500
H11	H1	0.434500	0.175300	0.906200
C41	C4	0.396700	0.119000	0.071500
H21	H2	0.326900	0.198200	0.118500
C51	C5	0.115000	0.242600	0.746300
C61	C6	0.054300	0.374000	0.878200
C71	C7	0.865300	0.382900	0.872000
H31	H3	0.775500	0.304500	0.786800
C81	C8	0.187300	0.491500	0.007300
H41	H4	0.312900	0.485500	0.012300
Cd21	Cd2	0.262100	0.026720	0.516030
O51	O5	0.267200	0.130000	0.328200
O61	O6	0.429400	0.943600	0.329700
O71	O7	0.977500	0.894000	0.326900
O81	O8	0.739500	0.727900	0.286500
C91	C9	0.372600	0.032500	0.270800
C101	C10	0.436900	0.015400	0.129800
C111	C11	0.539700	0.895300	0.056500
H51	H5	0.565500	0.824700	0.093800
C121	C12	0.603300	0.881000	0.928500
H61	H6	0.673100	0.801800	0.881500
C131	C13	0.885000	0.757400	0.253700
C141	C14	0.945700	0.626000	0.121800
C151	C15	0.134700	0.617100	0.128000
H71	H7	0.224500	0.695500	0.213200
C161	C16	0.812700	0.508500	0.992700
H81	H8	0.687100	0.514500	0.987700
