data_HOBBEF_clean_PM
_symmetry_space_group_name_H-M	'P1'
_cell_length_a	10.652000
_cell_length_b	15.400000
_cell_length_c	10.924000
_cell_angle_alpha	90.000000
_cell_angle_beta	92.140000
_cell_angle_gamma	90.000000
_symmetry_Int_Tables_number 1

loop_
_symmetry_equiv_pos_as_xyz
'x,y,z'

loop_
_atom_site_label
_atom_site_type_symbol
_atom_site_fract_x
_atom_site_fract_y
_atom_site_fract_z
Ag11	Ag1	0.233200	0.732600	0.239300
N11	N1	0.804000	0.918200	0.808600
C11	C1	0.906200	0.913700	0.903800
C21	C2	0.966800	0.824400	0.911300
N21	N2	0.875800	0.753300	0.927900
C31	C3	0.804800	0.760600	0.041300
C41	C4	0.663600	0.751400	0.019000
N31	N3	0.611400	0.810200	0.924600
C51	C5	0.628600	0.903800	0.953200
C61	C6	0.685500	0.955600	0.850200
C71	C7	0.844500	0.960300	0.697300
C81	C8	0.867100	0.055400	0.717600
N41	N4	0.879600	0.127200	0.739500
C91	C9	0.934000	0.668300	0.915400
C101	C10	0.030300	0.653900	0.015600
N51	N5	0.100100	0.651500	0.096600
C111	C11	0.481200	0.789100	0.891000
C121	C12	0.400300	0.792800	0.998500
N61	N6	0.346500	0.794100	0.085300
H11	H1	0.971100	0.957400	0.885600
H21	H2	0.872000	0.928400	0.984300
H31	H3	0.029400	0.823700	0.980600
H41	H4	0.012200	0.813800	0.835300
H51	H5	0.834300	0.715100	0.099500
H61	H6	0.822800	0.817700	0.079700
H71	H7	0.621600	0.762700	0.096700
H81	H8	0.644500	0.690800	0.994400
H91	H9	0.546000	0.929300	0.971500
H101	H10	0.683700	0.909400	0.027800
H111	H11	0.701300	0.015800	0.878800
H121	H12	0.624100	0.958300	0.780000
H131	H13	0.922800	0.932600	0.670700
H141	H14	0.779300	0.952500	0.631300
H151	H15	0.868800	0.622600	0.918400
H161	H16	0.973900	0.664400	0.835200
H171	H17	0.449200	0.830600	0.828000
H181	H18	0.477200	0.730100	0.855100
N71	N7	0.304000	0.581800	0.308600
C131	C13	0.406200	0.586300	0.403800
C141	C14	0.466800	0.675600	0.411300
N81	N8	0.375800	0.746700	0.427900
C151	C15	0.304800	0.739400	0.541300
C161	C16	0.163600	0.748600	0.519000
N91	N9	0.111400	0.689800	0.424600
C171	C17	0.128600	0.596200	0.453200
C181	C18	0.185500	0.544400	0.350200
C191	C19	0.344500	0.539700	0.197300
C201	C20	0.367100	0.444600	0.217600
N101	N10	0.379600	0.372800	0.239500
C211	C21	0.434000	0.831700	0.415400
C221	C22	0.530300	0.846100	0.515600
N111	N11	0.600100	0.848500	0.596600
C231	C23	0.981200	0.710900	0.391000
C241	C24	0.900300	0.707200	0.498500
N121	N12	0.846500	0.705900	0.585300
H191	H19	0.471100	0.542600	0.385600
H201	H20	0.372000	0.571600	0.484300
H211	H21	0.529400	0.676300	0.480600
H221	H22	0.512200	0.686200	0.335300
H231	H23	0.334300	0.784900	0.599500
H241	H24	0.322800	0.682300	0.579700
H251	H25	0.121600	0.737300	0.596700
H261	H26	0.144500	0.809200	0.494400
H271	H27	0.046000	0.570700	0.471500
H281	H28	0.183700	0.590600	0.527800
H291	H29	0.201300	0.484200	0.378800
H301	H30	0.124100	0.541700	0.280000
H311	H31	0.422800	0.567400	0.170700
H321	H32	0.279300	0.547500	0.131300
H331	H33	0.368800	0.877400	0.418400
H341	H34	0.473900	0.835600	0.335200
H351	H35	0.949200	0.669400	0.328000
H361	H36	0.977200	0.769900	0.355100
Ag21	Ag2	0.733200	0.767400	0.739300
Ag31	Ag3	0.266800	0.232600	0.260700
N131	N13	0.696000	0.418200	0.691400
C251	C25	0.593800	0.413700	0.596200
C261	C26	0.533200	0.324400	0.588700
N141	N14	0.624200	0.253300	0.572100
C271	C27	0.695200	0.260600	0.458700
C281	C28	0.836400	0.251400	0.481000
N151	N15	0.888600	0.310200	0.575400
C291	C29	0.871400	0.403800	0.546800
C301	C30	0.814500	0.455600	0.649800
C311	C31	0.655500	0.460300	0.802700
C321	C32	0.632900	0.555400	0.782400
N161	N16	0.620400	0.627200	0.760500
C331	C33	0.566000	0.168300	0.584600
C341	C34	0.469700	0.153900	0.484400
N171	N17	0.399900	0.151500	0.403400
C351	C35	0.018800	0.289100	0.609000
C361	C36	0.099700	0.292800	0.501500
N181	N18	0.153500	0.294100	0.414700
H371	H37	0.528900	0.457400	0.614400
H381	H38	0.628000	0.428400	0.515700
H391	H39	0.470600	0.323700	0.519400
H401	H40	0.487800	0.313800	0.664700
H411	H41	0.665700	0.215100	0.400500
H421	H42	0.677200	0.317700	0.420300
H431	H43	0.878400	0.262700	0.403300
H441	H44	0.855500	0.190800	0.505600
H451	H45	0.954000	0.429300	0.528500
H461	H46	0.816300	0.409400	0.472200
H471	H47	0.798700	0.515800	0.621200
H481	H48	0.875900	0.458300	0.720000
H491	H49	0.577200	0.432600	0.829300
H501	H50	0.720700	0.452500	0.868700
H511	H51	0.631200	0.122600	0.581600
H521	H52	0.526100	0.164400	0.664800
H531	H53	0.050800	0.330600	0.672000
H541	H54	0.022800	0.230100	0.644900
N191	N19	0.196000	0.081800	0.191400
C371	C37	0.093800	0.086300	0.096200
C381	C38	0.033200	0.175600	0.088700
N201	N20	0.124200	0.246700	0.072100
C391	C39	0.195200	0.239400	0.958700
C401	C40	0.336400	0.248600	0.981000
N211	N21	0.388600	0.189800	0.075400
C411	C41	0.371400	0.096200	0.046800
C421	C42	0.314500	0.044400	0.149800
C431	C43	0.155500	0.039700	0.302700
C441	C44	0.132900	0.944600	0.282400
N221	N22	0.120400	0.872800	0.260500
C451	C45	0.066000	0.331700	0.084600
C461	C46	0.969700	0.346100	0.984400
N231	N23	0.899900	0.348500	0.903400
C471	C47	0.518800	0.210900	0.109000
C481	C48	0.599700	0.207200	0.001500
N241	N24	0.653500	0.205900	0.914700
H551	H55	0.028900	0.042600	0.114400
H561	H56	0.128000	0.071600	0.015700
H571	H57	0.970600	0.176300	0.019400
H581	H58	0.987800	0.186200	0.164700
H591	H59	0.165700	0.284900	0.900500
H601	H60	0.177200	0.182300	0.920300
H611	H61	0.378400	0.237300	0.903300
H621	H62	0.355500	0.309200	0.005600
H631	H63	0.454000	0.070700	0.028500
H641	H64	0.316300	0.090600	0.972200
H651	H65	0.298700	0.984200	0.121200
H661	H66	0.375900	0.041700	0.220000
H671	H67	0.077200	0.067400	0.329300
H681	H68	0.220700	0.047500	0.368700
H691	H69	0.131200	0.377400	0.081600
H701	H70	0.026100	0.335600	0.164800
H711	H71	0.550800	0.169400	0.172000
H721	H72	0.522800	0.269900	0.144900
Ag41	Ag4	0.766800	0.267400	0.760700
