data_HOBGOV_clean_PM
_symmetry_space_group_name_H-M	'P1'
_cell_length_a	6.429000
_cell_length_b	25.180000
_cell_length_c	7.874000
_cell_angle_alpha	90.000000
_cell_angle_beta	90.101000
_cell_angle_gamma	90.000000
_symmetry_Int_Tables_number 1

loop_
_symmetry_equiv_pos_as_xyz
'x,y,z'

loop_
_atom_site_label
_atom_site_type_symbol
_atom_site_fract_x
_atom_site_fract_y
_atom_site_fract_z
Ni11	Ni1	0.119100	0.735300	0.184000
Ni21	Ni2	0.619200	0.805500	0.688100
O11	O1	0.318900	0.775300	0.355100
C11	C1	0.358000	0.824100	0.373000
O21	O2	0.455000	0.843600	0.494700
C21	C2	0.293500	0.864100	0.231600
H11	H1	0.214200	0.893300	0.285400
H21	H2	0.421900	0.879700	0.183800
C31	C3	0.167400	0.842900	0.088800
H31	H3	0.106900	0.873400	0.023900
N11	N1	0.995800	0.808900	0.150700
H41	H4	0.889400	0.807800	0.072500
H51	H5	0.944400	0.821700	0.251600
C41	C4	0.307000	0.809900	0.968200
O31	O3	0.301600	0.761800	0.993200
O41	O4	0.418500	0.834900	0.867300
O51	O5	0.917200	0.707900	0.359500
C51	C5	0.824000	0.728200	0.482300
O61	O6	0.819000	0.778600	0.500500
C61	C6	0.781000	0.680300	0.604200
H61	H6	0.699000	0.653200	0.542800
H71	H7	0.915900	0.664000	0.636500
C71	C7	0.664300	0.696400	0.766300
H81	H8	0.602300	0.664600	0.823000
N21	N2	0.493000	0.729800	0.676000
H91	H9	0.368400	0.727900	0.732300
H101	H10	0.474600	0.719100	0.565000
C81	C8	0.839000	0.720800	0.877300
O71	O7	0.935400	0.696400	0.986600
O81	O8	0.807000	0.770400	0.874700
N31	N3	0.296500	0.665500	0.214500
C91	C9	0.220100	0.623800	0.299000
H111	H11	0.077700	0.624000	0.330900
C101	C10	0.341500	0.580300	0.341500
H121	H12	0.288700	0.554200	0.417100
C111	C11	0.542600	0.574600	0.273400
C121	C12	0.615300	0.617900	0.179800
H131	H13	0.747600	0.616500	0.126500
C131	C13	0.493800	0.662700	0.165500
H141	H14	0.554900	0.693600	0.117400
C141	C14	0.656000	0.525000	0.285000
H151	H15	0.596500	0.498500	0.356100
N41	N4	0.204300	0.373200	0.268600
C151	C15	0.013400	0.375800	0.334900
H161	H16	0.962400	0.346200	0.397100
C161	C16	0.886900	0.420000	0.316400
H171	H17	0.749700	0.419500	0.360800
C171	C17	0.960200	0.465600	0.232300
C181	C18	0.162800	0.462300	0.169300
H181	H18	0.225900	0.492400	0.117900
C191	C19	0.270400	0.415200	0.182200
H191	H19	0.400400	0.412600	0.125600
C201	C20	0.831000	0.512200	0.209000
H201	H20	0.879800	0.537000	0.127400
Ni31	Ni3	0.880900	0.235300	0.816000
Ni41	Ni4	0.380800	0.305500	0.311900
O91	O9	0.681100	0.275300	0.644900
C211	C21	0.642000	0.324100	0.627000
O101	O10	0.545000	0.343600	0.505300
C221	C22	0.706500	0.364100	0.768400
H211	H21	0.785800	0.393300	0.714600
H221	H22	0.578100	0.379700	0.816200
C231	C23	0.832600	0.342900	0.911200
H231	H23	0.893100	0.373400	0.976100
N51	N5	0.004200	0.308900	0.849300
H241	H24	0.110600	0.307800	0.927500
H251	H25	0.055600	0.321700	0.748400
C241	C24	0.693000	0.309900	0.031800
O111	O11	0.698400	0.261800	0.006800
O121	O12	0.581500	0.334900	0.132700
O131	O13	0.082800	0.207900	0.640500
C251	C25	0.176000	0.228200	0.517700
O141	O14	0.181000	0.278600	0.499500
C261	C26	0.219000	0.180300	0.395800
H261	H26	0.301000	0.153200	0.457200
H271	H27	0.084100	0.164000	0.363500
C271	C27	0.335700	0.196400	0.233700
H281	H28	0.397700	0.164600	0.177000
N61	N6	0.507000	0.229800	0.324000
H291	H29	0.631600	0.227900	0.267700
H301	H30	0.525400	0.219100	0.435000
C281	C28	0.161000	0.220800	0.122700
O151	O15	0.064600	0.196400	0.013400
O161	O16	0.193000	0.270400	0.125300
N71	N7	0.703500	0.165500	0.785500
C291	C29	0.779900	0.123800	0.701000
H311	H31	0.922300	0.124000	0.669100
C301	C30	0.658500	0.080300	0.658500
H321	H32	0.711300	0.054200	0.582900
C311	C31	0.457400	0.074600	0.726600
C321	C32	0.384700	0.117900	0.820200
H331	H33	0.252400	0.116500	0.873500
C331	C33	0.506200	0.162700	0.834500
H341	H34	0.445100	0.193600	0.882600
C341	C34	0.344000	0.025000	0.715000
H351	H35	0.403500	0.998500	0.643900
N81	N8	0.795700	0.873200	0.731400
C351	C35	0.986600	0.875800	0.665100
H361	H36	0.037600	0.846200	0.602900
C361	C36	0.113100	0.920000	0.683600
H371	H37	0.250300	0.919500	0.639200
C371	C37	0.039800	0.965600	0.767700
C381	C38	0.837200	0.962300	0.830700
H381	H38	0.774100	0.992400	0.882100
C391	C39	0.729600	0.915200	0.817800
H391	H39	0.599600	0.912600	0.874400
C401	C40	0.169000	0.012200	0.791000
H401	H40	0.120200	0.037000	0.872600
