data_HOCDIO_clean_PM
_symmetry_space_group_name_H-M	'P1'
_cell_length_a	8.874900
_cell_length_b	7.410400
_cell_length_c	15.233300
_cell_angle_alpha	90.000000
_cell_angle_beta	102.172000
_cell_angle_gamma	90.000000
_symmetry_Int_Tables_number 1

loop_
_symmetry_equiv_pos_as_xyz
'x,y,z'

loop_
_atom_site_label
_atom_site_type_symbol
_atom_site_fract_x
_atom_site_fract_y
_atom_site_fract_z
Co11	Co1	0.789690	0.529450	0.105890
P11	P1	0.870640	0.885560	0.233560
H11	H1	0.996000	0.945400	0.284500
O11	O1	0.818100	0.028500	0.158440
H21	H2	0.799900	0.124200	0.181200
O21	O2	0.753400	0.864400	0.291710
O31	O3	0.911370	0.716500	0.190590
O41	O4	0.654980	0.351500	0.012050
O51	O5	0.425370	0.338800	0.918940
O61	O6	0.994120	0.387800	0.100560
O71	O7	0.151600	0.348300	0.006000
C11	C1	0.523000	0.410300	0.980320
C21	C2	0.041700	0.424500	0.030600
Co21	Co2	0.710310	0.029450	0.394110
P21	P2	0.629360	0.385560	0.266440
H31	H3	0.504000	0.445400	0.215500
O81	O8	0.681900	0.528500	0.341560
H41	H4	0.700100	0.624200	0.318800
O91	O9	0.746600	0.364400	0.208290
O101	O10	0.588630	0.216500	0.309410
O111	O11	0.845020	0.851500	0.487950
O121	O12	0.074630	0.838800	0.581060
O131	O13	0.505880	0.887800	0.399440
O141	O14	0.348400	0.848300	0.494000
C31	C3	0.977000	0.910300	0.519680
C41	C4	0.458300	0.924500	0.469400
Co31	Co3	0.210310	0.470550	0.894110
P31	P3	0.129360	0.114440	0.766440
H51	H5	0.004000	0.054600	0.715500
O151	O15	0.181900	0.971500	0.841560
H61	H6	0.200100	0.875800	0.818800
O161	O16	0.246600	0.135600	0.708290
O171	O17	0.088630	0.283500	0.809410
O181	O18	0.345020	0.648500	0.987950
O191	O19	0.574630	0.661200	0.081060
O201	O20	0.005880	0.612200	0.899440
O211	O21	0.848400	0.651700	0.994000
C51	C5	0.477000	0.589700	0.019680
C61	C6	0.958300	0.575500	0.969400
Co41	Co4	0.289690	0.970550	0.605890
P41	P4	0.370640	0.614440	0.733560
H71	H7	0.496000	0.554600	0.784500
O221	O22	0.318100	0.471500	0.658440
H81	H8	0.299900	0.375800	0.681200
O231	O23	0.253400	0.635600	0.791710
O241	O24	0.411370	0.783500	0.690590
O251	O25	0.154980	0.148500	0.512050
O261	O26	0.925370	0.161200	0.418940
O271	O27	0.494120	0.112200	0.600560
O281	O28	0.651600	0.151700	0.506000
C71	C7	0.023000	0.089700	0.480320
C81	C8	0.541700	0.075500	0.530600
