data_HOGJUK_clean_PM
_symmetry_space_group_name_H-M	'P1'
_cell_length_a	8.834500
_cell_length_b	35.591000
_cell_length_c	16.246000
_cell_angle_alpha	90.000000
_cell_angle_beta	93.437000
_cell_angle_gamma	90.000000
_symmetry_Int_Tables_number 1

loop_
_symmetry_equiv_pos_as_xyz
'x,y,z'

loop_
_atom_site_label
_atom_site_type_symbol
_atom_site_fract_x
_atom_site_fract_y
_atom_site_fract_z
C11	C1	0.785800	0.239100	0.293000
C21	C2	0.329500	0.124200	0.309900
C31	C3	0.410400	0.142310	0.386700
C41	C4	0.500800	0.022140	0.360200
C51	C5	0.345800	0.002710	0.365200
C61	C6	0.270700	0.067280	0.599800
C71	C7	0.117100	0.080000	0.558200
C81	C8	0.958000	0.365980	0.290500
C91	C9	0.720200	0.258330	0.212600
Cr11	Cr1	0.316440	0.072840	0.435260
O11	O1	0.914100	0.252270	0.321200
O21	O2	0.712800	0.213790	0.323100
O31	O3	0.799100	0.285910	0.187700
O41	O4	0.935100	0.332730	0.320300
O51	O5	0.471000	0.173230	0.378300
O61	O6	0.328500	0.141410	0.243600
O71	O7	0.403800	0.123390	0.453400
O81	O8	0.263000	0.092730	0.323900
O91	O9	0.511800	0.054190	0.397900
O101	O10	0.246100	0.021960	0.402800
O111	O11	0.120500	0.085670	0.480400
O121	O12	0.372800	0.059570	0.550100
O131	O13	0.323200	0.971800	0.333500
O141	O14	0.599100	0.006860	0.322600
O151	O15	0.927400	0.396040	0.322000
O161	O16	0.283300	0.065940	0.676100
O171	O17	0.005300	0.084900	0.598200
O181	O18	0.602200	0.246590	0.181100
C101	C10	0.285800	0.739100	0.293000
C111	C11	0.829500	0.624200	0.309900
C121	C12	0.910400	0.642310	0.386700
C131	C13	0.000800	0.522140	0.360200
C141	C14	0.845800	0.502710	0.365200
C151	C15	0.770700	0.567280	0.599800
C161	C16	0.617100	0.580000	0.558200
C171	C17	0.458000	0.865980	0.290500
C181	C18	0.220200	0.758330	0.212600
Cr21	Cr2	0.816440	0.572840	0.435260
O191	O19	0.414100	0.752270	0.321200
O201	O20	0.212800	0.713790	0.323100
O211	O21	0.299100	0.785910	0.187700
O221	O22	0.435100	0.832730	0.320300
O231	O23	0.971000	0.673230	0.378300
O241	O24	0.828500	0.641410	0.243600
O251	O25	0.903800	0.623390	0.453400
O261	O26	0.763000	0.592730	0.323900
O271	O27	0.011800	0.554190	0.397900
O281	O28	0.746100	0.521960	0.402800
O291	O29	0.620500	0.585670	0.480400
O301	O30	0.872800	0.559570	0.550100
O311	O31	0.823200	0.471800	0.333500
O321	O32	0.099100	0.506860	0.322600
O331	O33	0.427400	0.896040	0.322000
O341	O34	0.783300	0.565940	0.676100
O351	O35	0.505300	0.584900	0.598200
O361	O36	0.102200	0.746590	0.181100
C191	C19	0.214200	0.239100	0.207000
C201	C20	0.670500	0.124200	0.190100
C211	C21	0.589600	0.142310	0.113300
C221	C22	0.499200	0.022140	0.139800
C231	C23	0.654200	0.002710	0.134800
C241	C24	0.729300	0.067280	0.900200
C251	C25	0.882900	0.080000	0.941800
C261	C26	0.042000	0.365980	0.209500
C271	C27	0.279800	0.258330	0.287400
Cr31	Cr3	0.683560	0.072840	0.064740
O371	O37	0.085900	0.252270	0.178800
O381	O38	0.287200	0.213790	0.176900
O391	O39	0.200900	0.285910	0.312300
O401	O40	0.064900	0.332730	0.179700
O411	O41	0.529000	0.173230	0.121700
O421	O42	0.671500	0.141410	0.256400
O431	O43	0.596200	0.123390	0.046600
O441	O44	0.737000	0.092730	0.176100
O451	O45	0.488200	0.054190	0.102100
O461	O46	0.753900	0.021960	0.097200
O471	O47	0.879500	0.085670	0.019600
O481	O48	0.627200	0.059570	0.949900
O491	O49	0.676800	0.971800	0.166500
O501	O50	0.400900	0.006860	0.177400
O511	O51	0.072600	0.396040	0.178000
O521	O52	0.716700	0.065940	0.823900
O531	O53	0.994700	0.084900	0.901800
O541	O54	0.397800	0.246590	0.318900
C281	C28	0.714200	0.739100	0.207000
C291	C29	0.170500	0.624200	0.190100
C301	C30	0.089600	0.642310	0.113300
C311	C31	0.999200	0.522140	0.139800
C321	C32	0.154200	0.502710	0.134800
C331	C33	0.229300	0.567280	0.900200
C341	C34	0.382900	0.580000	0.941800
C351	C35	0.542000	0.865980	0.209500
C361	C36	0.779800	0.758330	0.287400
Cr41	Cr4	0.183560	0.572840	0.064740
O551	O55	0.585900	0.752270	0.178800
O561	O56	0.787200	0.713790	0.176900
O571	O57	0.700900	0.785910	0.312300
O581	O58	0.564900	0.832730	0.179700
O591	O59	0.029000	0.673230	0.121700
O601	O60	0.171500	0.641410	0.256400
O611	O61	0.096200	0.623390	0.046600
O621	O62	0.237000	0.592730	0.176100
O631	O63	0.988200	0.554190	0.102100
O641	O64	0.253900	0.521960	0.097200
O651	O65	0.379500	0.585670	0.019600
O661	O66	0.127200	0.559570	0.949900
O671	O67	0.176800	0.471800	0.166500
O681	O68	0.900900	0.506860	0.177400
O691	O69	0.572600	0.896040	0.178000
O701	O70	0.216700	0.565940	0.823900
O711	O71	0.494700	0.584900	0.901800
O721	O72	0.897800	0.746590	0.318900
C371	C37	0.214200	0.760900	0.707000
C381	C38	0.670500	0.875800	0.690100
C391	C39	0.589600	0.857690	0.613300
C401	C40	0.499200	0.977860	0.639800
C411	C41	0.654200	0.997290	0.634800
C421	C42	0.729300	0.932720	0.400200
C431	C43	0.882900	0.920000	0.441800
C441	C44	0.042000	0.634020	0.709500
C451	C45	0.279800	0.741670	0.787400
Cr51	Cr5	0.683560	0.927160	0.564740
O731	O73	0.085900	0.747730	0.678800
O741	O74	0.287200	0.786210	0.676900
O751	O75	0.200900	0.714090	0.812300
O761	O76	0.064900	0.667270	0.679700
O771	O77	0.529000	0.826770	0.621700
O781	O78	0.671500	0.858590	0.756400
O791	O79	0.596200	0.876610	0.546600
O801	O80	0.737000	0.907270	0.676100
O811	O81	0.488200	0.945810	0.602100
O821	O82	0.753900	0.978040	0.597200
O831	O83	0.879500	0.914330	0.519600
O841	O84	0.627200	0.940430	0.449900
O851	O85	0.676800	0.028200	0.666500
O861	O86	0.400900	0.993140	0.677400
O871	O87	0.072600	0.603960	0.678000
O881	O88	0.716700	0.934060	0.323900
O891	O89	0.994700	0.915100	0.401800
O901	O90	0.397800	0.753410	0.818900
C461	C46	0.714200	0.260900	0.707000
C471	C47	0.170500	0.375800	0.690100
C481	C48	0.089600	0.357690	0.613300
C491	C49	0.999200	0.477860	0.639800
C501	C50	0.154200	0.497290	0.634800
C511	C51	0.229300	0.432720	0.400200
C521	C52	0.382900	0.420000	0.441800
C531	C53	0.542000	0.134020	0.709500
C541	C54	0.779800	0.241670	0.787400
Cr61	Cr6	0.183560	0.427160	0.564740
O911	O91	0.585900	0.247730	0.678800
O921	O92	0.787200	0.286210	0.676900
O931	O93	0.700900	0.214090	0.812300
O941	O94	0.564900	0.167270	0.679700
O951	O95	0.029000	0.326770	0.621700
O961	O96	0.171500	0.358590	0.756400
O971	O97	0.096200	0.376610	0.546600
O981	O98	0.237000	0.407270	0.676100
O991	O99	0.988200	0.445810	0.602100
O1001	O100	0.253900	0.478040	0.597200
O1011	O101	0.379500	0.414330	0.519600
O1021	O102	0.127200	0.440430	0.449900
O1031	O103	0.176800	0.528200	0.666500
O1041	O104	0.900900	0.493140	0.677400
O1051	O105	0.572600	0.103960	0.678000
O1061	O106	0.216700	0.434060	0.323900
O1071	O107	0.494700	0.415100	0.401800
O1081	O108	0.897800	0.253410	0.818900
C551	C55	0.785800	0.760900	0.793000
C561	C56	0.329500	0.875800	0.809900
C571	C57	0.410400	0.857690	0.886700
C581	C58	0.500800	0.977860	0.860200
C591	C59	0.345800	0.997290	0.865200
C601	C60	0.270700	0.932720	0.099800
C611	C61	0.117100	0.920000	0.058200
C621	C62	0.958000	0.634020	0.790500
C631	C63	0.720200	0.741670	0.712600
Cr71	Cr7	0.316440	0.927160	0.935260
O1091	O109	0.914100	0.747730	0.821200
O1101	O110	0.712800	0.786210	0.823100
O1111	O111	0.799100	0.714090	0.687700
O1121	O112	0.935100	0.667270	0.820300
O1131	O113	0.471000	0.826770	0.878300
O1141	O114	0.328500	0.858590	0.743600
O1151	O115	0.403800	0.876610	0.953400
O1161	O116	0.263000	0.907270	0.823900
O1171	O117	0.511800	0.945810	0.897900
O1181	O118	0.246100	0.978040	0.902800
O1191	O119	0.120500	0.914330	0.980400
O1201	O120	0.372800	0.940430	0.050100
O1211	O121	0.323200	0.028200	0.833500
O1221	O122	0.599100	0.993140	0.822600
O1231	O123	0.927400	0.603960	0.822000
O1241	O124	0.283300	0.934060	0.176100
O1251	O125	0.005300	0.915100	0.098200
O1261	O126	0.602200	0.753410	0.681100
C641	C64	0.285800	0.260900	0.793000
C651	C65	0.829500	0.375800	0.809900
C661	C66	0.910400	0.357690	0.886700
C671	C67	0.000800	0.477860	0.860200
C681	C68	0.845800	0.497290	0.865200
C691	C69	0.770700	0.432720	0.099800
C701	C70	0.617100	0.420000	0.058200
C711	C71	0.458000	0.134020	0.790500
C721	C72	0.220200	0.241670	0.712600
Cr81	Cr8	0.816440	0.427160	0.935260
O1271	O127	0.414100	0.247730	0.821200
O1281	O128	0.212800	0.286210	0.823100
O1291	O129	0.299100	0.214090	0.687700
O1301	O130	0.435100	0.167270	0.820300
O1311	O131	0.971000	0.326770	0.878300
O1321	O132	0.828500	0.358590	0.743600
O1331	O133	0.903800	0.376610	0.953400
O1341	O134	0.763000	0.407270	0.823900
O1351	O135	0.011800	0.445810	0.897900
O1361	O136	0.746100	0.478040	0.902800
O1371	O137	0.620500	0.414330	0.980400
O1381	O138	0.872800	0.440430	0.050100
O1391	O139	0.823200	0.528200	0.833500
O1401	O140	0.099100	0.493140	0.822600
O1411	O141	0.427400	0.103960	0.822000
O1421	O142	0.783300	0.434060	0.176100
O1431	O143	0.505300	0.415100	0.098200
O1441	O144	0.102200	0.253410	0.681100
Cr91	Cr9	0.000000	0.291170	0.250000
Mn11	Mn1	0.000000	0.449480	0.250000
Cr101	Cr10	0.500000	0.791170	0.250000
Mn21	Mn2	0.500000	0.949480	0.250000
Cr111	Cr11	0.000000	0.708830	0.750000
Mn31	Mn3	0.000000	0.550520	0.750000
Cr121	Cr12	0.500000	0.208830	0.750000
Mn41	Mn4	0.500000	0.050520	0.750000
Mn51	Mn5	0.500000	0.194660	0.250000
Mn61	Mn6	0.000000	0.694660	0.250000
Mn71	Mn7	0.500000	0.805340	0.750000
Mn81	Mn8	0.000000	0.305340	0.750000
