data_HOGLEV01_clean_PM
_symmetry_space_group_name_H-M	'P1'
_cell_length_a	18.070000
_cell_length_b	18.070000
_cell_length_c	19.340000
_cell_angle_alpha	90.000000
_cell_angle_beta	90.000000
_cell_angle_gamma	120.000000
_symmetry_Int_Tables_number 1

loop_
_symmetry_equiv_pos_as_xyz
'x,y,z'

loop_
_atom_site_label
_atom_site_type_symbol
_atom_site_fract_x
_atom_site_fract_y
_atom_site_fract_z
Cu11	Cu1	0.526780	0.053560	0.053480
Cu21	Cu2	0.526780	0.473220	0.053480
Cu31	Cu3	0.946440	0.473220	0.053480
Cu41	Cu4	0.473220	0.946440	0.553480
Cu51	Cu5	0.473220	0.526780	0.553480
Cu61	Cu6	0.053560	0.526780	0.553480
Cu71	Cu7	0.473220	0.946440	0.946520
Cu81	Cu8	0.053560	0.526780	0.946520
Cu91	Cu9	0.473220	0.526780	0.946520
Cu101	Cu10	0.526780	0.053560	0.446520
Cu111	Cu11	0.946440	0.473220	0.446520
Cu121	Cu12	0.526780	0.473220	0.446520
H11	H1	0.712600	0.064100	0.827500
H21	H2	0.351500	0.287400	0.827500
H31	H3	0.935900	0.648500	0.827500
H41	H4	0.287400	0.935900	0.327500
H51	H5	0.648500	0.712600	0.327500
H61	H6	0.064100	0.351500	0.327500
H71	H7	0.648500	0.935900	0.172500
H81	H8	0.064100	0.712600	0.172500
H91	H9	0.287400	0.351500	0.172500
H101	H10	0.351500	0.064100	0.672500
H111	H11	0.935900	0.287400	0.672500
H121	H12	0.712600	0.648500	0.672500
H131	H13	0.287400	0.935900	0.172500
H141	H14	0.648500	0.712600	0.172500
H151	H15	0.064100	0.351500	0.172500
H161	H16	0.712600	0.064100	0.672500
H171	H17	0.351500	0.287400	0.672500
H181	H18	0.935900	0.648500	0.672500
H191	H19	0.351500	0.064100	0.827500
H201	H20	0.935900	0.287400	0.827500
H211	H21	0.712600	0.648500	0.827500
H221	H22	0.648500	0.935900	0.327500
H231	H23	0.064100	0.712600	0.327500
H241	H24	0.287400	0.351500	0.327500
H251	H25	0.761600	0.238400	0.970400
H261	H26	0.476800	0.238400	0.970400
H271	H27	0.761600	0.523200	0.970400
H281	H28	0.238400	0.761600	0.470400
H291	H29	0.523200	0.761600	0.470400
H301	H30	0.238400	0.476800	0.470400
H311	H31	0.523200	0.761600	0.029600
H321	H32	0.238400	0.761600	0.029600
H331	H33	0.238400	0.476800	0.029600
H341	H34	0.476800	0.238400	0.529600
H351	H35	0.761600	0.238400	0.529600
H361	H36	0.761600	0.523200	0.529600
H371	H37	0.918100	0.169500	0.750000
H381	H38	0.251400	0.081900	0.750000
H391	H39	0.830500	0.748600	0.750000
H401	H40	0.081900	0.830500	0.250000
H411	H41	0.748600	0.918100	0.250000
H421	H42	0.169500	0.251400	0.250000
H431	H43	0.748600	0.830500	0.250000
H441	H44	0.169500	0.918100	0.250000
H451	H45	0.081900	0.251400	0.250000
H461	H46	0.251400	0.169500	0.750000
H471	H47	0.830500	0.081900	0.750000
H481	H48	0.918100	0.748600	0.750000
C11	C1	0.725900	0.143000	0.904000
C21	C2	0.750200	0.116800	0.845600
C31	C3	0.639800	0.083900	0.936700
C41	C4	0.417100	0.274100	0.904000
C51	C5	0.366600	0.249800	0.845600
C61	C6	0.444100	0.360200	0.936700
C71	C7	0.857000	0.582900	0.904000
C81	C8	0.883200	0.633400	0.845600
C91	C9	0.916100	0.555900	0.936700
C101	C10	0.274100	0.857000	0.404000
C111	C11	0.249800	0.883200	0.345600
C121	C12	0.360200	0.916100	0.436700
C131	C13	0.582900	0.725900	0.404000
C141	C14	0.633400	0.750200	0.345600
C151	C15	0.555900	0.639800	0.436700
C161	C16	0.143000	0.417100	0.404000
C171	C17	0.116800	0.366600	0.345600
C181	C18	0.083900	0.444100	0.436700
C191	C19	0.582900	0.857000	0.096000
C201	C20	0.633400	0.883200	0.154400
C211	C21	0.555900	0.916100	0.063300
C221	C22	0.143000	0.725900	0.096000
C231	C23	0.116800	0.750200	0.154400
C241	C24	0.083900	0.639800	0.063300
C251	C25	0.274100	0.417100	0.096000
C261	C26	0.249800	0.366600	0.154400
C271	C27	0.360200	0.444100	0.063300
C281	C28	0.417100	0.143000	0.596000
C291	C29	0.366600	0.116800	0.654400
C301	C30	0.444100	0.083900	0.563300
C311	C31	0.857000	0.274100	0.596000
C321	C32	0.883200	0.249800	0.654400
C331	C33	0.916100	0.360200	0.563300
C341	C34	0.725900	0.582900	0.596000
C351	C35	0.750200	0.633400	0.654400
C361	C36	0.639800	0.555900	0.563300
C371	C37	0.274100	0.857000	0.096000
C381	C38	0.249800	0.883200	0.154400
C391	C39	0.360200	0.916100	0.063300
C401	C40	0.582900	0.725900	0.096000
C411	C41	0.633400	0.750200	0.154400
C421	C42	0.555900	0.639800	0.063300
C431	C43	0.143000	0.417100	0.096000
C441	C44	0.116800	0.366600	0.154400
C451	C45	0.083900	0.444100	0.063300
C461	C46	0.725900	0.143000	0.596000
C471	C47	0.750200	0.116800	0.654400
C481	C48	0.639800	0.083900	0.563300
C491	C49	0.417100	0.274100	0.596000
C501	C50	0.366600	0.249800	0.654400
C511	C51	0.444100	0.360200	0.563300
C521	C52	0.857000	0.582900	0.596000
C531	C53	0.883200	0.633400	0.654400
C541	C54	0.916100	0.555900	0.563300
C551	C55	0.417100	0.143000	0.904000
C561	C56	0.366600	0.116800	0.845600
C571	C57	0.444100	0.083900	0.936700
C581	C58	0.857000	0.274100	0.904000
C591	C59	0.883200	0.249800	0.845600
C601	C60	0.916100	0.360200	0.936700
C611	C61	0.725900	0.582900	0.904000
C621	C62	0.750200	0.633400	0.845600
C631	C63	0.639800	0.555900	0.936700
C641	C64	0.582900	0.857000	0.404000
C651	C65	0.633400	0.883200	0.345600
C661	C66	0.555900	0.916100	0.436700
C671	C67	0.143000	0.725900	0.404000
C681	C68	0.116800	0.750200	0.345600
C691	C69	0.083900	0.639800	0.436700
C701	C70	0.274100	0.417100	0.404000
C711	C71	0.249800	0.366600	0.345600
C721	C72	0.360200	0.444100	0.436700
C731	C73	0.829600	0.170400	0.814000
C741	C74	0.779100	0.220900	0.931500
C751	C75	0.340800	0.170400	0.814000
C761	C76	0.441800	0.220900	0.931500
C771	C77	0.829600	0.659200	0.814000
C781	C78	0.779100	0.558200	0.931500
C791	C79	0.170400	0.829600	0.314000
C801	C80	0.220900	0.779100	0.431500
C811	C81	0.659200	0.829600	0.314000
C821	C82	0.558200	0.779100	0.431500
C831	C83	0.170400	0.340800	0.314000
C841	C84	0.220900	0.441800	0.431500
C851	C85	0.659200	0.829600	0.186000
C861	C86	0.558200	0.779100	0.068500
C871	C87	0.170400	0.829600	0.186000
C881	C88	0.220900	0.779100	0.068500
C891	C89	0.170400	0.340800	0.186000
C901	C90	0.220900	0.441800	0.068500
C911	C91	0.340800	0.170400	0.686000
C921	C92	0.441800	0.220900	0.568500
C931	C93	0.829600	0.170400	0.686000
C941	C94	0.779100	0.220900	0.568500
C951	C95	0.829600	0.659200	0.686000
C961	C96	0.779100	0.558200	0.568500
C971	C97	0.856950	0.143050	0.750000
C981	C98	0.286100	0.143050	0.750000
C991	C99	0.856950	0.713900	0.750000
C1001	C100	0.143050	0.856950	0.250000
C1011	C101	0.713900	0.856950	0.250000
C1021	C102	0.143050	0.286100	0.250000
O11	O1	0.630800	0.109000	0.997300
O21	O2	0.584000	0.017200	0.905500
O31	O3	0.478200	0.369200	0.997300
O41	O4	0.433200	0.416000	0.905500
O51	O5	0.891000	0.521800	0.997300
O61	O6	0.982800	0.566800	0.905500
O71	O7	0.369200	0.891000	0.497300
O81	O8	0.416000	0.982800	0.405500
O91	O9	0.521800	0.630800	0.497300
O101	O10	0.566800	0.584000	0.405500
O111	O11	0.109000	0.478200	0.497300
O121	O12	0.017200	0.433200	0.405500
O131	O13	0.521800	0.891000	0.002700
O141	O14	0.566800	0.982800	0.094500
O151	O15	0.109000	0.630800	0.002700
O161	O16	0.017200	0.584000	0.094500
O171	O17	0.369200	0.478200	0.002700
O181	O18	0.416000	0.433200	0.094500
O191	O19	0.478200	0.109000	0.502700
O201	O20	0.433200	0.017200	0.594500
O211	O21	0.891000	0.369200	0.502700
O221	O22	0.982800	0.416000	0.594500
O231	O23	0.630800	0.521800	0.502700
O241	O24	0.584000	0.566800	0.594500
O251	O25	0.369200	0.891000	0.002700
O261	O26	0.416000	0.982800	0.094500
O271	O27	0.521800	0.630800	0.002700
O281	O28	0.566800	0.584000	0.094500
O291	O29	0.109000	0.478200	0.002700
O301	O30	0.017200	0.433200	0.094500
O311	O31	0.630800	0.109000	0.502700
O321	O32	0.584000	0.017200	0.594500
O331	O33	0.478200	0.369200	0.502700
O341	O34	0.433200	0.416000	0.594500
O351	O35	0.891000	0.521800	0.502700
O361	O36	0.982800	0.566800	0.594500
O371	O37	0.478200	0.109000	0.997300
O381	O38	0.433200	0.017200	0.905500
O391	O39	0.891000	0.369200	0.997300
O401	O40	0.982800	0.416000	0.905500
O411	O41	0.630800	0.521800	0.997300
O421	O42	0.584000	0.566800	0.905500
O431	O43	0.521800	0.891000	0.497300
O441	O44	0.566800	0.982800	0.405500
O451	O45	0.109000	0.630800	0.497300
O461	O46	0.017200	0.584000	0.405500
O471	O47	0.369200	0.478200	0.497300
O481	O48	0.416000	0.433200	0.405500
