data_HOHMEX_manual_PM
_symmetry_space_group_name_H-M	'P1'
_cell_length_a	27.999900
_cell_length_b	27.999900
_cell_length_c	29.585800
_cell_angle_alpha	61.757900
_cell_angle_beta	61.757900
_cell_angle_gamma	90.000000
_symmetry_Int_Tables_number 1

loop_
_symmetry_equiv_pos_as_xyz
'x,y,z'

loop_
_atom_site_label
_atom_site_type_symbol
_atom_site_fract_x
_atom_site_fract_y
_atom_site_fract_z
Cu11	Cu1	0.956600	0.005610	0.988910
Cu21	Cu2	0.554660	0.005640	0.988910
Cu31	Cu3	0.505790	0.054200	0.488980
Cu41	Cu4	0.505660	0.456890	0.488910
Cu51	Cu5	0.445940	0.994680	0.010990
Cu61	Cu6	0.043360	0.994540	0.010850
Cu71	Cu7	0.494700	0.945790	0.511080
Cu81	Cu8	0.494580	0.543190	0.511000
H11	H1	0.151380	0.161790	0.885150
H21	H2	0.197510	0.263440	0.812150
H31	H3	0.059400	0.280750	0.783550
H41	H4	0.013130	0.179220	0.856320
H51	H5	0.463260	0.953160	0.885330
H61	H6	0.490130	0.924470	0.812340
H71	H7	0.656820	0.935740	0.783790
H81	H8	0.630350	0.964540	0.856490
H91	H9	0.661940	0.963170	0.385110
H101	H10	0.763640	0.990210	0.312030
H111	H11	0.780630	0.156840	0.283670
H121	H12	0.679140	0.130190	0.356450
H131	H13	0.453150	0.651690	0.385120
H141	H14	0.424450	0.697750	0.312110
H151	H15	0.435680	0.559510	0.283730
H161	H16	0.464470	0.513330	0.356460
H171	H17	0.536820	0.838240	0.114900
H181	H18	0.509730	0.736540	0.187940
H191	H19	0.343160	0.719640	0.216170
H201	H20	0.369870	0.821180	0.143390
H211	H21	0.848490	0.047030	0.114760
H221	H22	0.802460	0.075660	0.187810
H231	H23	0.940680	0.064260	0.216220
H241	H24	0.986850	0.035540	0.143430
H251	H25	0.547040	0.036760	0.614930
H261	H26	0.575460	0.009690	0.688160
H271	H27	0.564130	0.843050	0.716550
H281	H28	0.535610	0.869740	0.643610
H291	H29	0.338210	0.348280	0.614850
H301	H30	0.236510	0.302260	0.688010
H311	H31	0.219660	0.440590	0.716260
H321	H32	0.321150	0.486710	0.643390
H331	H33	0.848550	0.838290	0.114770
H341	H34	0.802540	0.736620	0.187750
H351	H35	0.940740	0.719510	0.216190
H361	H36	0.986900	0.821050	0.143450
H371	H37	0.537040	0.047100	0.114830
H381	H38	0.509980	0.075730	0.187910
H391	H39	0.343370	0.064370	0.216250
H401	H40	0.370030	0.035650	0.143460
H411	H41	0.338330	0.036940	0.614720
H421	H42	0.236620	0.009900	0.687810
H431	H43	0.219610	0.843310	0.716140
H441	H44	0.321100	0.869930	0.643360
H451	H45	0.547050	0.348440	0.614850
H461	H46	0.575770	0.302430	0.687840
H471	H47	0.564410	0.440660	0.716250
H481	H48	0.535590	0.486770	0.643540
H491	H49	0.463590	0.161910	0.885140
H501	H50	0.490570	0.263570	0.812040
H511	H51	0.657240	0.280720	0.783530
H521	H52	0.630650	0.179220	0.856370
H531	H53	0.151480	0.953100	0.885180
H541	H54	0.197630	0.924480	0.812130
H551	H55	0.059490	0.935760	0.783590
H561	H56	0.013210	0.964470	0.856380
H571	H57	0.453090	0.963190	0.385270
H581	H58	0.424490	0.990270	0.312170
H591	H59	0.435850	0.156860	0.283870
H601	H60	0.464550	0.130180	0.356680
H611	H61	0.661970	0.651800	0.385030
H621	H62	0.763650	0.697850	0.311860
H631	H63	0.780550	0.559530	0.283580
H641	H64	0.679070	0.513390	0.356470
C11	C1	0.870890	0.058080	0.968130
C21	C2	0.823750	0.061990	0.961960
C31	C3	0.049590	0.101210	0.922220
C41	C4	0.078700	0.162370	0.876360
C51	C5	0.131170	0.187150	0.862750
C61	C6	0.157750	0.245230	0.820750
C71	C7	0.132280	0.279710	0.791730
C81	C8	0.079940	0.255010	0.805240
C91	C9	0.053570	0.196910	0.846810
C101	C10	0.661220	0.974060	0.968020
C111	C11	0.714510	0.976340	0.961880
C121	C12	0.528120	0.976680	0.922350
C131	C13	0.544750	0.961360	0.876530
C141	C14	0.505860	0.950180	0.862950
C151	C15	0.521270	0.934050	0.820970
C161	C16	0.575770	0.928560	0.792000
C171	C17	0.614600	0.939790	0.805470
C181	C18	0.599420	0.956350	0.847000
C191	C19	0.557930	0.161130	0.467980
C201	C20	0.561210	0.214570	0.461570
C211	C21	0.601320	0.027890	0.422310
C221	C22	0.662430	0.044610	0.376410
C231	C23	0.687260	0.005790	0.362750
C241	C24	0.745370	0.021290	0.320730
C251	C25	0.779760	0.075830	0.291760
C261	C26	0.754970	0.114590	0.305330
C271	C27	0.696890	0.099310	0.346890
C281	C28	0.472760	0.370980	0.466580
C291	C29	0.475760	0.324140	0.460300
C301	C30	0.476640	0.549790	0.422260
C311	C31	0.461310	0.578940	0.376430
C321	C32	0.450140	0.631430	0.362780
C331	C33	0.434020	0.657970	0.320780
C341	C34	0.428530	0.632420	0.291820
C351	C35	0.439740	0.580090	0.305380
C361	C36	0.456290	0.553770	0.346920
C371	C37	0.337410	0.939340	0.033220
C381	C38	0.284320	0.936250	0.039270
C391	C39	0.472240	0.899010	0.077620
C401	C40	0.455430	0.837850	0.123490
C411	C41	0.494200	0.812950	0.137210
C421	C42	0.478660	0.754840	0.179240
C431	C43	0.424120	0.720470	0.208190
C441	C44	0.385400	0.745300	0.194560
C451	C45	0.400730	0.803400	0.152970
C461	C46	0.129180	0.025840	0.031770
C471	C47	0.176180	0.023210	0.038180
C481	C48	0.950370	0.023520	0.077570
C491	C49	0.921250	0.038800	0.123440
C501	C50	0.868760	0.049990	0.137100
C511	C51	0.842240	0.066070	0.179130
C521	C52	0.867790	0.071480	0.208110
C531	C53	0.920110	0.060260	0.194540
C541	C54	0.946420	0.043750	0.152960
C551	C55	0.525790	0.839070	0.532390
C561	C56	0.523110	0.785710	0.538730
C571	C57	0.523620	0.972050	0.577750
C581	C58	0.538830	0.955310	0.623650
C591	C59	0.549960	0.994130	0.637330
C601	C60	0.565940	0.978610	0.679440
C611	C61	0.571330	0.924070	0.708440
C621	C62	0.560160	0.885310	0.694850
C631	C63	0.543750	0.900610	0.653200
C641	C64	0.442080	0.628580	0.532330
C651	C65	0.438410	0.675590	0.538680
C661	C66	0.398970	0.450190	0.577590
C671	C67	0.337810	0.421060	0.623470
C681	C68	0.312920	0.368560	0.637190
C691	C69	0.254810	0.342060	0.679260
C701	C70	0.220440	0.367660	0.708200
C711	C71	0.245290	0.419980	0.694600
C721	C72	0.303380	0.446260	0.652980
C731	C73	0.128730	0.941810	0.031860
C741	C74	0.175750	0.937560	0.038200
C751	C75	0.950360	0.898960	0.077590
C761	C76	0.921280	0.837810	0.123470
C771	C77	0.868810	0.812970	0.137130
C781	C78	0.842290	0.754870	0.179110
C791	C79	0.867830	0.720450	0.208080
C801	C80	0.920160	0.745210	0.194540
C811	C81	0.946460	0.803320	0.152980
C821	C82	0.338850	0.025660	0.032030
C831	C83	0.285530	0.022810	0.038120
C841	C84	0.472350	0.023620	0.077620
C851	C85	0.455610	0.038890	0.123500
C861	C86	0.494420	0.050060	0.137180
C871	C87	0.478890	0.066130	0.179220
C881	C88	0.424360	0.071550	0.208190
C891	C89	0.385620	0.060350	0.194600
C901	C90	0.400910	0.043840	0.153020
C911	C91	0.439760	0.837430	0.532970
C921	C92	0.436820	0.784260	0.539280
C931	C93	0.399050	0.972180	0.577620
C941	C94	0.337870	0.955500	0.623410
C951	C95	0.313020	0.994320	0.637070
C961	C96	0.254900	0.978810	0.679120
C971	C97	0.220500	0.924280	0.708110
C981	C98	0.245290	0.885540	0.694500
C991	C99	0.303380	0.900820	0.652920
C1001	C100	0.527460	0.629580	0.533030
C1011	C101	0.524090	0.676430	0.539350
C1021	C102	0.523550	0.450320	0.577680
C1031	C103	0.538830	0.421180	0.623550
C1041	C104	0.550030	0.368700	0.637200
C1051	C105	0.566160	0.342190	0.679180
C1061	C106	0.571630	0.367760	0.708130
C1071	C107	0.560370	0.420070	0.694600
C1081	C108	0.543800	0.446350	0.653070
C1091	C109	0.661230	0.058120	0.967890
C1101	C110	0.714530	0.062060	0.961730
C1111	C111	0.528310	0.101280	0.922260
C1121	C112	0.545050	0.162430	0.876380
C1131	C113	0.506210	0.187240	0.862740
C1141	C114	0.521690	0.245340	0.820700
C1151	C115	0.576200	0.279770	0.791670
C1161	C116	0.615000	0.255020	0.805220
C1171	C117	0.599750	0.196940	0.846830
C1181	C118	0.870960	0.974150	0.968000
C1191	C119	0.823840	0.976420	0.961820
C1201	C120	0.049630	0.976610	0.922220
C1211	C121	0.078780	0.961310	0.876390
C1221	C122	0.131270	0.950140	0.862780
C1231	C123	0.157860	0.934070	0.820760
C1241	C124	0.132390	0.928650	0.791720
C1251	C125	0.080030	0.939810	0.805270
C1261	C126	0.053660	0.956310	0.846850
C1271	C127	0.472810	0.162340	0.466740
C1281	C128	0.475770	0.215480	0.460410
C1291	C129	0.476670	0.027880	0.422430
C1301	C130	0.461330	0.044610	0.376610
C1311	C131	0.450140	0.005810	0.362930
C1321	C132	0.434080	0.021350	0.320880
C1331	C133	0.428690	0.075890	0.291890
C1341	C134	0.439870	0.114620	0.305510
C1351	C135	0.456360	0.099310	0.347110
C1361	C136	0.557830	0.371000	0.467920
C1371	C137	0.561140	0.323930	0.461570
C1381	C138	0.601250	0.549880	0.422300
C1391	C139	0.662390	0.579020	0.376400
C1401	C140	0.687260	0.631530	0.362680
C1411	C141	0.745370	0.658050	0.320600
C1421	C142	0.779750	0.632460	0.291660
C1431	C143	0.754910	0.580130	0.305250
C1441	C144	0.696830	0.553840	0.346880
C1451	C145	0.797400	0.019900	0.960490
C1461	C146	0.742290	0.019890	0.960450
C1471	C147	0.519220	0.242620	0.459630
C1481	C148	0.519210	0.297790	0.459600
C1491	C149	0.257410	0.979100	0.039880
C1501	C150	0.202320	0.979480	0.039720
C1511	C151	0.479600	0.757400	0.540350
C1521	C152	0.480270	0.702250	0.540360
C1531	C153	0.158340	0.341770	0.750010
C1541	C154	0.591500	0.908180	0.750320
C1551	C155	0.841820	0.091700	0.249950
C1561	C156	0.408240	0.658400	0.250040
C1571	C157	0.841830	0.658390	0.249810
C1581	C158	0.408500	0.091790	0.250020
C1591	C159	0.158420	0.908400	0.749910
C1601	C160	0.591980	0.341830	0.749870
N11	N1	0.892910	0.013730	0.972820
N21	N2	0.634490	0.013710	0.972700
N31	N3	0.514100	0.133820	0.472600
N41	N4	0.514010	0.393670	0.472480
N51	N5	0.366090	0.986420	0.027420
N61	N6	0.106980	0.986320	0.027050
N71	N7	0.486540	0.866150	0.527510
N81	N8	0.486200	0.606380	0.527460
O11	O1	0.002410	0.079770	0.933190
O21	O2	0.071760	0.071060	0.950480
O31	O3	0.564390	0.987200	0.933210
O41	O4	0.477680	0.978510	0.950700
O51	O5	0.579920	0.064120	0.433220
O61	O6	0.571160	0.977450	0.450710
O71	O7	0.487190	0.502660	0.433170
O81	O8	0.478450	0.571860	0.450630
O91	O9	0.436040	0.920520	0.066720
O101	O10	0.522720	0.929110	0.049270
O111	O11	0.997510	0.012970	0.066620
O121	O12	0.928220	0.021740	0.049250
O131	O13	0.513070	0.935830	0.566850
O141	O14	0.521890	0.022500	0.549340
O151	O15	0.420420	0.497300	0.566710
O161	O16	0.429130	0.428130	0.549200
O171	O17	0.997530	0.920410	0.066590
O181	O18	0.928180	0.929090	0.049320
O191	O19	0.436110	0.013120	0.066700
O201	O20	0.522790	0.021790	0.049280
O211	O21	0.420490	0.935910	0.566780
O221	O22	0.429250	0.022610	0.549250
O231	O23	0.513020	0.497460	0.566760
O241	O24	0.521760	0.428250	0.549310
O251	O25	0.564540	0.079810	0.933150
O261	O26	0.477830	0.071170	0.950640
O271	O27	0.002490	0.987170	0.933140
O281	O28	0.071760	0.978400	0.950550
O291	O29	0.487310	0.064130	0.433270
O301	O30	0.478450	0.977430	0.450810
O311	O31	0.579810	0.502760	0.433180
O321	O32	0.571090	0.571930	0.450690
O331	O33	0.127590	0.372640	0.750140
O341	O34	0.622150	0.877200	0.750490
O351	O35	0.872620	0.122520	0.249960
O361	O36	0.377370	0.627590	0.250090
O371	O37	0.872620	0.627540	0.249660
O381	O38	0.377710	0.122640	0.249980
O391	O39	0.127640	0.877530	0.749930
O401	O40	0.622790	0.372690	0.749840
H651	H65	0.889360	0.090480	0.970060
H661	H66	0.808370	0.097920	0.959330
H671	H67	0.640850	0.939740	0.969920
H681	H68	0.732540	0.943070	0.959220
H691	H69	0.590430	0.141070	0.470310
H701	H70	0.596990	0.232720	0.459040
H711	H71	0.438840	0.389840	0.467550
H721	H72	0.443180	0.309250	0.456520
H731	H73	0.357080	0.906240	0.032500
H741	H74	0.265420	0.899980	0.043050
H751	H75	0.110950	0.060330	0.029680
H761	H76	0.191590	0.056370	0.040940
H771	H77	0.560350	0.859290	0.530300
H781	H78	0.556460	0.767890	0.541390
H791	H79	0.409640	0.610470	0.530190
H801	H80	0.402420	0.690780	0.541290
H811	H81	0.110140	0.909550	0.029840
H821	H82	0.190850	0.901510	0.040850
H831	H83	0.358860	0.060330	0.029940
H841	H84	0.267510	0.056150	0.040550
H851	H85	0.406830	0.857170	0.531700
H861	H86	0.400720	0.765340	0.542840
H871	H87	0.561640	0.611080	0.531820
H881	H88	0.556610	0.691760	0.542960
H891	H89	0.640850	0.090560	0.969700
H901	H90	0.732600	0.098090	0.958910
H911	H91	0.889500	0.939890	0.969820
H921	H92	0.808560	0.943190	0.959040
H931	H93	0.438900	0.142450	0.467740
H941	H94	0.443160	0.234090	0.456660
H951	H95	0.590280	0.388760	0.470280
H961	H96	0.596900	0.308310	0.459130
