data_HOJHUL_clean_PM
_symmetry_space_group_name_H-M	'P1'
_cell_length_a	8.403000
_cell_length_b	10.985000
_cell_length_c	24.235000
_cell_angle_alpha	90.000000
_cell_angle_beta	90.000000
_cell_angle_gamma	90.000000
_symmetry_Int_Tables_number 1

loop_
_symmetry_equiv_pos_as_xyz
'x,y,z'

loop_
_atom_site_label
_atom_site_type_symbol
_atom_site_fract_x
_atom_site_fract_y
_atom_site_fract_z
Ni11	Ni1	0.602230	0.114990	0.485550
O11	O1	0.642700	0.949700	0.447460
O21	O2	0.860000	0.839300	0.464010
O31	O3	0.841900	0.156160	0.490650
O41	O4	0.082000	0.226450	0.469110
O51	O5	0.165500	0.265700	0.271010
O61	O6	0.154500	0.100300	0.223150
N11	N1	0.124600	0.158700	0.264700
N21	N2	0.583300	0.200500	0.408560
N31	N3	0.867700	0.978800	0.059870
C11	C1	0.876700	0.989200	0.395190
C21	C2	0.959100	0.097700	0.404290
C31	C3	0.040500	0.151800	0.360980
H11	H1	0.095800	0.224000	0.366700
C41	C4	0.039500	0.099300	0.310130
C51	C5	0.957700	0.991200	0.299660
H21	H2	0.958200	0.956200	0.264700
C61	C6	0.876200	0.937900	0.342690
H31	H3	0.819800	0.866400	0.336500
C71	C7	0.787200	0.921300	0.440110
C81	C8	0.959000	0.162900	0.458980
C91	C9	0.515700	0.140800	0.366830
H41	H4	0.470600	0.065000	0.373800
C101	C10	0.509500	0.185900	0.314060
H51	H5	0.459900	0.140800	0.286500
C111	C11	0.575900	0.296800	0.301500
C121	C12	0.648400	0.358200	0.344400
H61	H6	0.697400	0.432900	0.338200
C131	C13	0.647700	0.307700	0.396930
H71	H7	0.694900	0.351300	0.425500
C141	C14	0.568000	0.352600	0.244150
H81	H8	0.645600	0.417800	0.242000
H91	H9	0.463600	0.388500	0.239200
C151	C15	0.598600	0.264100	0.196490
H101	H10	0.517000	0.201700	0.196600
H111	H11	0.591000	0.307900	0.161800
C161	C16	0.761600	0.203900	0.200360
H121	H12	0.842000	0.266800	0.203600
H131	H13	0.765500	0.155200	0.233700
C171	C17	0.763200	0.945300	0.098150
H141	H14	0.711100	0.871300	0.093700
C181	C18	0.727800	0.014200	0.144000
H151	H15	0.653800	0.986100	0.169500
C191	C19	0.801700	0.124300	0.152090
C201	C20	0.910600	0.158400	0.113210
H161	H16	0.965200	0.231500	0.117100
C211	C21	0.939600	0.085100	0.068370
H171	H17	0.013800	0.111300	0.042500
Ni21	Ni2	0.897770	0.885010	0.985550
O71	O7	0.857300	0.050300	0.947460
O81	O8	0.640000	0.160700	0.964010
O91	O9	0.658100	0.843840	0.990650
O101	O10	0.418000	0.773550	0.969110
O111	O11	0.334500	0.734300	0.771010
O121	O12	0.345500	0.899700	0.723150
N41	N4	0.375400	0.841300	0.764700
N51	N5	0.916700	0.799500	0.908560
N61	N6	0.632300	0.021200	0.559870
C221	C22	0.623300	0.010800	0.895190
C231	C23	0.540900	0.902300	0.904290
C241	C24	0.459500	0.848200	0.860980
H181	H18	0.404200	0.776000	0.866700
C251	C25	0.460500	0.900700	0.810130
C261	C26	0.542300	0.008800	0.799660
H191	H19	0.541800	0.043800	0.764700
C271	C27	0.623800	0.062100	0.842690
H201	H20	0.680200	0.133600	0.836500
C281	C28	0.712800	0.078700	0.940110
C291	C29	0.541000	0.837100	0.958980
C301	C30	0.984300	0.859200	0.866830
H211	H21	0.029400	0.935000	0.873800
C311	C31	0.990500	0.814100	0.814060
H221	H22	0.040100	0.859200	0.786500
C321	C32	0.924100	0.703200	0.801500
C331	C33	0.851600	0.641800	0.844400
H231	H23	0.802600	0.567100	0.838200
C341	C34	0.852300	0.692300	0.896930
H241	H24	0.805100	0.648700	0.925500
C351	C35	0.932000	0.647400	0.744150
H251	H25	0.854400	0.582200	0.742000
H261	H26	0.036400	0.611500	0.739200
C361	C36	0.901400	0.735900	0.696490
H271	H27	0.983000	0.798300	0.696600
H281	H28	0.909000	0.692100	0.661800
C371	C37	0.738400	0.796100	0.700360
H291	H29	0.658000	0.733200	0.703600
H301	H30	0.734500	0.844800	0.733700
C381	C38	0.736800	0.054700	0.598150
H311	H31	0.788900	0.128700	0.593700
C391	C39	0.772200	0.985800	0.644000
H321	H32	0.846200	0.013900	0.669500
C401	C40	0.698300	0.875700	0.652090
C411	C41	0.589400	0.841600	0.613210
H331	H33	0.534800	0.768500	0.617100
C421	C42	0.560400	0.914900	0.568370
H341	H34	0.486200	0.888700	0.542500
Ni31	Ni3	0.397770	0.614990	0.014450
O131	O13	0.357300	0.449700	0.052540
O141	O14	0.140000	0.339300	0.035990
O151	O15	0.158100	0.656160	0.009350
O161	O16	0.918000	0.726450	0.030890
O171	O17	0.834500	0.765700	0.228990
O181	O18	0.845500	0.600300	0.276850
N71	N7	0.875400	0.658700	0.235300
N81	N8	0.416700	0.700500	0.091440
N91	N9	0.132300	0.478800	0.440130
C431	C43	0.123300	0.489200	0.104810
C441	C44	0.040900	0.597700	0.095710
C451	C45	0.959500	0.651800	0.139020
H351	H35	0.904200	0.724000	0.133300
C461	C46	0.960500	0.599300	0.189870
C471	C47	0.042300	0.491200	0.200340
H361	H36	0.041800	0.456200	0.235300
C481	C48	0.123800	0.437900	0.157310
H371	H37	0.180200	0.366400	0.163500
C491	C49	0.212800	0.421300	0.059890
C501	C50	0.041000	0.662900	0.041020
C511	C51	0.484300	0.640800	0.133170
H381	H38	0.529400	0.565000	0.126200
C521	C52	0.490500	0.685900	0.185940
H391	H39	0.540100	0.640800	0.213500
C531	C53	0.424100	0.796800	0.198500
C541	C54	0.351600	0.858200	0.155600
H401	H40	0.302600	0.932900	0.161800
C551	C55	0.352300	0.807700	0.103070
H411	H41	0.305100	0.851300	0.074500
C561	C56	0.432000	0.852600	0.255850
H421	H42	0.354400	0.917800	0.258000
H431	H43	0.536400	0.888500	0.260800
C571	C57	0.401400	0.764100	0.303510
H441	H44	0.483000	0.701700	0.303400
H451	H45	0.409000	0.807900	0.338200
C581	C58	0.238400	0.703900	0.299640
H461	H46	0.158000	0.766800	0.296400
H471	H47	0.234500	0.655200	0.266300
C591	C59	0.236800	0.445300	0.401850
H481	H48	0.288900	0.371300	0.406300
C601	C60	0.272200	0.514200	0.356000
H491	H49	0.346200	0.486100	0.330500
C611	C61	0.198300	0.624300	0.347910
C621	C62	0.089400	0.658400	0.386790
H501	H50	0.034800	0.731500	0.382900
C631	C63	0.060400	0.585100	0.431630
H511	H51	0.986200	0.611300	0.457500
Ni41	Ni4	0.102230	0.385010	0.514450
O191	O19	0.142700	0.550300	0.552540
O201	O20	0.360000	0.660700	0.535990
O211	O21	0.341900	0.343840	0.509350
O221	O22	0.582000	0.273550	0.530890
O231	O23	0.665500	0.234300	0.728990
O241	O24	0.654500	0.399700	0.776850
N101	N10	0.624600	0.341300	0.735300
N111	N11	0.083300	0.299500	0.591440
N121	N12	0.367700	0.521200	0.940130
C641	C64	0.376700	0.510800	0.604810
C651	C65	0.459100	0.402300	0.595710
C661	C66	0.540500	0.348200	0.639020
H521	H52	0.595800	0.276000	0.633300
C671	C67	0.539500	0.400700	0.689870
C681	C68	0.457700	0.508800	0.700340
H531	H53	0.458200	0.543800	0.735300
C691	C69	0.376200	0.562100	0.657310
H541	H54	0.319800	0.633600	0.663500
C701	C70	0.287200	0.578700	0.559890
C711	C71	0.459000	0.337100	0.541020
C721	C72	0.015700	0.359200	0.633170
H551	H55	0.970600	0.435000	0.626200
C731	C73	0.009500	0.314100	0.685940
H561	H56	0.959900	0.359200	0.713500
C741	C74	0.075900	0.203200	0.698500
C751	C75	0.148400	0.141800	0.655600
H571	H57	0.197400	0.067100	0.661800
C761	C76	0.147700	0.192300	0.603070
H581	H58	0.194900	0.148700	0.574500
C771	C77	0.068000	0.147400	0.755850
H591	H59	0.145600	0.082200	0.758000
H601	H60	0.963600	0.111500	0.760800
C781	C78	0.098600	0.235900	0.803510
H611	H61	0.017000	0.298300	0.803400
H621	H62	0.091000	0.192100	0.838200
C791	C79	0.261600	0.296100	0.799640
H631	H63	0.342000	0.233200	0.796400
H641	H64	0.265500	0.344800	0.766300
C801	C80	0.263200	0.554700	0.901850
H651	H65	0.211100	0.628700	0.906300
C811	C81	0.227800	0.485800	0.856000
H661	H66	0.153800	0.513900	0.830500
C821	C82	0.301700	0.375700	0.847910
C831	C83	0.410600	0.341600	0.886790
H671	H67	0.465200	0.268500	0.882900
C841	C84	0.439600	0.414900	0.931630
H681	H68	0.513800	0.388700	0.957500
