data_HOJLEY_clean_PM
_symmetry_space_group_name_H-M	'P1'
_cell_length_a	8.713000
_cell_length_b	13.054000
_cell_length_c	13.568000
_cell_angle_alpha	90.000000
_cell_angle_beta	90.000000
_cell_angle_gamma	90.184000
_symmetry_Int_Tables_number 1

loop_
_symmetry_equiv_pos_as_xyz
'x,y,z'

loop_
_atom_site_label
_atom_site_type_symbol
_atom_site_fract_x
_atom_site_fract_y
_atom_site_fract_z
Cu11	Cu1	0.954830	0.412380	0.959830
Cu21	Cu2	0.545170	0.587620	0.459830
Cu31	Cu3	0.045170	0.587620	0.040170
Cu41	Cu4	0.454830	0.412380	0.540170
H11	H1	0.785700	0.378100	0.772100
H21	H2	0.737100	0.262000	0.650200
H31	H3	0.914000	0.043700	0.822900
H41	H4	0.959800	0.166300	0.939800
H51	H5	0.716700	0.091300	0.594200
H61	H6	0.727000	0.003700	0.672800
H71	H7	0.813000	0.887300	0.552900
H81	H8	0.793400	0.975100	0.474900
H91	H9	0.932300	0.135200	0.495500
H101	H10	0.041400	0.149900	0.586500
H111	H11	0.409700	0.303400	0.053700
H121	H12	0.490500	0.396200	0.001500
H131	H13	0.579000	0.382500	0.163600
H141	H14	0.494400	0.487500	0.149900
H151	H15	0.360300	0.312000	0.238000
H161	H16	0.269800	0.413700	0.220000
H171	H17	0.714300	0.621900	0.272100
H181	H18	0.762900	0.738000	0.150200
H191	H19	0.586000	0.956300	0.322900
H201	H20	0.540200	0.833700	0.439800
H211	H21	0.783300	0.908700	0.094200
H221	H22	0.773000	0.996300	0.172800
H231	H23	0.687000	0.112700	0.052900
H241	H24	0.706600	0.024900	0.974900
H251	H25	0.567700	0.864800	0.995500
H261	H26	0.458600	0.850100	0.086500
H271	H27	0.090300	0.696600	0.553700
H281	H28	0.009500	0.603800	0.501500
H291	H29	0.921000	0.617500	0.663600
H301	H30	0.005600	0.512500	0.649900
H311	H31	0.139700	0.688000	0.738000
H321	H32	0.230200	0.586300	0.720000
H331	H33	0.214300	0.621900	0.227900
H341	H34	0.262900	0.738000	0.349800
H351	H35	0.086000	0.956300	0.177100
H361	H36	0.040200	0.833700	0.060200
H371	H37	0.283300	0.908700	0.405800
H381	H38	0.273000	0.996300	0.327200
H391	H39	0.187000	0.112700	0.447100
H401	H40	0.206600	0.024900	0.525100
H411	H41	0.067700	0.864800	0.504500
H421	H42	0.958600	0.850100	0.413500
H431	H43	0.590300	0.696600	0.946300
H441	H44	0.509500	0.603800	0.998500
H451	H45	0.421000	0.617500	0.836400
H461	H46	0.505600	0.512500	0.850100
H471	H47	0.639700	0.688000	0.762000
H481	H48	0.730200	0.586300	0.780000
H491	H49	0.285700	0.378100	0.727900
H501	H50	0.237100	0.262000	0.849800
H511	H51	0.414000	0.043700	0.677100
H521	H52	0.459800	0.166300	0.560200
H531	H53	0.216700	0.091300	0.905800
H541	H54	0.227000	0.003700	0.827200
H551	H55	0.313000	0.887300	0.947100
H561	H56	0.293400	0.975100	0.025100
H571	H57	0.432300	0.135200	0.004500
H581	H58	0.541400	0.149900	0.913500
H591	H59	0.909700	0.303400	0.446300
H601	H60	0.990500	0.396200	0.498500
H611	H61	0.079000	0.382500	0.336400
H621	H62	0.994400	0.487500	0.350100
H631	H63	0.860300	0.312000	0.262000
H641	H64	0.769800	0.413700	0.280000
C11	C1	0.813000	0.310000	0.782300
C21	C2	0.782700	0.240500	0.708600
C31	C3	0.820200	0.138200	0.721670
C41	C4	0.887500	0.111400	0.810590
C51	C5	0.914800	0.185800	0.880610
C61	C6	0.783200	0.060000	0.642900
C71	C7	0.865800	0.942700	0.519200
C81	C8	0.002600	0.100280	0.539500
C91	C9	0.262800	0.422600	0.028170
C101	C10	0.418100	0.377600	0.052810
C111	C11	0.480000	0.413800	0.151620
C121	C12	0.370200	0.386000	0.235200
C131	C13	0.418600	0.424300	0.335390
C141	C14	0.687000	0.690000	0.282300
C151	C15	0.717300	0.759500	0.208600
C161	C16	0.679800	0.861800	0.221670
C171	C17	0.612500	0.888600	0.310590
C181	C18	0.585200	0.814200	0.380610
C191	C19	0.716800	0.940000	0.142900
C201	C20	0.634200	0.057300	0.019200
C211	C21	0.497400	0.899720	0.039500
C221	C22	0.237200	0.577400	0.528170
C231	C23	0.081900	0.622400	0.552810
C241	C24	0.020000	0.586200	0.651620
C251	C25	0.129800	0.614000	0.735200
C261	C26	0.081400	0.575700	0.835390
C271	C27	0.187000	0.690000	0.217700
C281	C28	0.217300	0.759500	0.291400
C291	C29	0.179800	0.861800	0.278330
C301	C30	0.112500	0.888600	0.189410
C311	C31	0.085200	0.814200	0.119390
C321	C32	0.216800	0.940000	0.357100
C331	C33	0.134200	0.057300	0.480800
C341	C34	0.997400	0.899720	0.460500
C351	C35	0.737200	0.577400	0.971830
C361	C36	0.581900	0.622400	0.947190
C371	C37	0.520000	0.586200	0.848380
C381	C38	0.629800	0.614000	0.764800
C391	C39	0.581400	0.575700	0.664610
C401	C40	0.313000	0.310000	0.717700
C411	C41	0.282700	0.240500	0.791400
C421	C42	0.320200	0.138200	0.778330
C431	C43	0.387500	0.111400	0.689410
C441	C44	0.414800	0.185800	0.619390
C451	C45	0.283200	0.060000	0.857100
C461	C46	0.365800	0.942700	0.980800
C471	C47	0.502600	0.100280	0.960500
C481	C48	0.762800	0.422600	0.471830
C491	C49	0.918100	0.377600	0.447190
C501	C50	0.980000	0.413800	0.348380
C511	C51	0.870200	0.386000	0.264800
C521	C52	0.918600	0.424300	0.164610
N11	N1	0.879700	0.284940	0.867740
N21	N2	0.919900	0.018460	0.592370
N31	N3	0.620300	0.715060	0.367740
N41	N4	0.580100	0.981540	0.092370
N51	N5	0.120300	0.715060	0.132260
N61	N6	0.080100	0.981540	0.407630
N71	N7	0.379700	0.284940	0.632260
N81	N8	0.419900	0.018460	0.907630
O11	O1	0.164300	0.364510	0.989470
O21	O2	0.242100	0.515020	0.049390
O31	O3	0.400000	0.364780	0.407910
O41	O4	0.471600	0.513670	0.341260
O51	O5	0.335700	0.635490	0.489470
O61	O6	0.257900	0.484980	0.549390
O71	O7	0.100000	0.635220	0.907910
O81	O8	0.028400	0.486330	0.841260
O91	O9	0.835700	0.635490	0.010530
O101	O10	0.757900	0.484980	0.950610
O111	O11	0.600000	0.635220	0.592090
O121	O12	0.528400	0.486330	0.658740
O131	O13	0.664300	0.364510	0.510530
O141	O14	0.742100	0.515020	0.450610
O151	O15	0.900000	0.364780	0.092090
O161	O16	0.971600	0.513670	0.158740
