data_HOPHUP_clean_PM
_symmetry_space_group_name_H-M	'P1'
_cell_length_a	7.903000
_cell_length_b	9.355000
_cell_length_c	7.485000
_cell_angle_alpha	90.000000
_cell_angle_beta	118.250000
_cell_angle_gamma	90.000000
_symmetry_Int_Tables_number 1

loop_
_symmetry_equiv_pos_as_xyz
'x,y,z'

loop_
_atom_site_label
_atom_site_type_symbol
_atom_site_fract_x
_atom_site_fract_y
_atom_site_fract_z
P11	P1	0.191800	0.484000	0.368300
O11	O1	0.185700	0.388500	0.188800
O21	O2	0.065500	0.611400	0.294900
O31	O3	0.142000	0.407200	0.508600
C11	C1	0.428300	0.571900	0.460500
P21	P2	0.808200	0.984000	0.631700
O41	O4	0.814300	0.888500	0.811200
O51	O5	0.934500	0.111400	0.705100
O61	O6	0.858000	0.907200	0.491400
C21	C2	0.571700	0.071900	0.539500
P31	P3	0.808200	0.516000	0.631700
O71	O7	0.814300	0.611500	0.811200
O81	O8	0.934500	0.388600	0.705100
O91	O9	0.858000	0.592800	0.491400
C31	C3	0.571700	0.428100	0.539500
P41	P4	0.191800	0.016000	0.368300
O101	O10	0.185700	0.111500	0.188800
O111	O11	0.065500	0.888600	0.294900
O121	O12	0.142000	0.092800	0.508600
C41	C4	0.428300	0.928100	0.460500
V11	V1	0.961800	0.750000	0.434000
O131	O13	0.728500	0.750000	0.104100
V21	V2	0.038200	0.250000	0.566000
O141	O14	0.271500	0.250000	0.895900
V31	V3	0.005100	0.250000	0.960800
V41	V4	0.994900	0.750000	0.039200
