data_HOPYEQ_clean_PM
_symmetry_space_group_name_H-M	'P1'
_cell_length_a	10.021000
_cell_length_b	8.286000
_cell_length_c	11.856000
_cell_angle_alpha	90.000000
_cell_angle_beta	103.130000
_cell_angle_gamma	90.000000
_symmetry_Int_Tables_number 1

loop_
_symmetry_equiv_pos_as_xyz
'x,y,z'

loop_
_atom_site_label
_atom_site_type_symbol
_atom_site_fract_x
_atom_site_fract_y
_atom_site_fract_z
Zn11	Zn1	0.677300	0.530300	0.470400
Zn21	Zn2	0.621900	0.052100	0.429600
Zn31	Zn3	0.926800	0.325400	0.163200
Zn41	Zn4	0.663700	0.942200	0.785800
P11	P1	0.645600	0.344400	0.240400
P21	P2	0.582800	0.256500	0.625800
P31	P3	0.927000	0.095400	0.955000
P41	P4	0.826900	0.828700	0.602900
O11	O1	0.705800	0.489700	0.317300
O21	O2	0.829800	0.674300	0.530200
O31	O3	0.687300	0.338600	0.569100
O41	O4	0.509600	0.123700	0.540300
O51	O5	0.650000	0.191100	0.310900
O61	O6	0.477900	0.368500	0.655300
O71	O7	0.796300	0.977800	0.523100
O81	O8	0.730200	0.318800	0.147100
O91	O9	0.968900	0.856700	0.682000
O101	O10	0.971200	0.133600	0.081900
O111	O11	0.048200	0.039600	0.904700
O121	O12	0.716500	0.804200	0.672600
O131	O13	0.501300	0.383300	0.172000
O141	O14	0.658900	0.174100	0.739000
O151	O15	0.808000	0.974200	0.931100
O161	O16	0.874000	0.260100	0.893500
H11	H1	0.809800	0.293800	0.919000
Zn51	Zn5	0.322700	0.030300	0.529600
Zn61	Zn6	0.378100	0.552100	0.570400
Zn71	Zn7	0.073200	0.825400	0.836800
Zn81	Zn8	0.336300	0.442200	0.214200
P51	P5	0.354400	0.844400	0.759600
P61	P6	0.417200	0.756500	0.374200
P71	P7	0.073000	0.595400	0.045000
P81	P8	0.173100	0.328700	0.397100
O171	O17	0.294200	0.989700	0.682700
O181	O18	0.170200	0.174300	0.469800
O191	O19	0.312700	0.838600	0.430900
O201	O20	0.490400	0.623700	0.459700
O211	O21	0.350000	0.691100	0.689100
O221	O22	0.522100	0.868500	0.344700
O231	O23	0.203700	0.477800	0.476900
O241	O24	0.269800	0.818800	0.852900
O251	O25	0.031100	0.356700	0.318000
O261	O26	0.028800	0.633600	0.918100
O271	O27	0.951800	0.539600	0.095300
O281	O28	0.283500	0.304200	0.327400
O291	O29	0.498700	0.883300	0.828000
O301	O30	0.341100	0.674100	0.261000
O311	O31	0.192000	0.474200	0.068900
O321	O32	0.126000	0.760100	0.106500
H21	H2	0.190200	0.793800	0.081000
