data_HOQMIL04_clean_PM
_symmetry_space_group_name_H-M	'P1'
_cell_length_a	12.566900
_cell_length_b	12.566900
_cell_length_c	13.548300
_cell_angle_alpha	65.708600
_cell_angle_beta	62.397500
_cell_angle_gamma	93.266600
_symmetry_Int_Tables_number 1

loop_
_symmetry_equiv_pos_as_xyz
'x,y,z'

loop_
_atom_site_label
_atom_site_type_symbol
_atom_site_fract_x
_atom_site_fract_y
_atom_site_fract_z
Mg11	Mg1	0.555320	0.805320	0.250000
Mg21	Mg2	0.444680	0.194680	0.750000
Mg31	Mg3	0.500000	0.000000	0.000000
Mg41	Mg4	0.500000	0.500000	0.500000
H11	H1	0.357300	0.024300	0.597000
H21	H2	0.107200	0.754300	0.233700
H31	H3	0.909200	0.849400	0.003200
H41	H4	0.325400	0.696500	0.139100
H51	H5	0.953300	0.362600	0.447300
H61	H6	0.664400	0.535500	0.639100
H71	H7	0.690100	0.599400	0.947300
H81	H8	0.121300	0.954300	0.903000
H91	H9	0.685200	0.462000	0.905600
H101	H10	0.477100	0.228500	0.168200
H111	H11	0.090800	0.150600	0.996800
H121	H12	0.512000	0.659100	0.733700
H131	H13	0.335600	0.464500	0.360900
H141	H14	0.642700	0.975700	0.403000
H151	H15	0.314800	0.538000	0.094400
H161	H16	0.674600	0.303500	0.860900
H171	H17	0.896700	0.645300	0.331800
H181	H18	0.309900	0.400600	0.052700
H191	H19	0.103300	0.354700	0.668200
H201	H20	0.522900	0.771500	0.831800
H211	H21	0.488000	0.340900	0.266300
H221	H22	0.046700	0.637400	0.552700
H231	H23	0.253300	0.690700	0.501800
H241	H24	0.892800	0.245700	0.766300
H251	H25	0.352600	0.912400	0.496800
H261	H26	0.746700	0.309300	0.498200
H271	H27	0.647400	0.087600	0.503200
H281	H28	0.878700	0.045700	0.097000
H291	H29	0.867600	0.590800	0.594400
H301	H30	0.132400	0.409200	0.405600
H311	H31	0.307500	0.244900	0.001800
H321	H32	0.692500	0.755100	0.998200
C11	C1	0.075370	0.892650	0.990800
C21	C2	0.844730	0.532750	0.574200
C31	C3	0.772060	0.365860	0.518700
C41	C4	0.268900	0.942260	0.994980
C51	C5	0.050770	0.170390	0.949700
C61	C6	0.741830	0.676830	0.245560
C71	C7	0.383450	0.066170	0.509200
C81	C8	0.600810	0.325690	0.898000
C91	C9	0.416070	0.059470	0.322040
C101	C10	0.104960	0.601920	0.512000
C111	C11	0.498250	0.450410	0.983820
C121	C12	0.562760	0.736120	0.494980
C131	C13	0.227940	0.634140	0.481300
C141	C14	0.616550	0.933830	0.490800
C151	C15	0.924630	0.107350	0.009200
C161	C16	0.118490	0.261890	0.822040
C171	C17	0.422390	0.987390	0.254440
C181	C18	0.865450	0.133970	0.940820
C191	C19	0.949230	0.829610	0.050300
C201	C20	0.058390	0.290570	0.754900
C211	C21	0.574790	0.806270	0.559180
C221	C22	0.276310	0.501190	0.398000
C231	C23	0.539870	0.746170	0.686400
C241	C24	0.067430	0.773730	0.186400
C251	C25	0.620090	0.000470	0.550300
C261	C26	0.613920	0.616960	0.988000
C271	C27	0.723690	0.498810	0.602000
C281	C28	0.881510	0.738110	0.177960
C291	C29	0.501750	0.549590	0.016180
C301	C30	0.258170	0.323170	0.754440
C311	C31	0.379910	0.999530	0.449700
C321	C32	0.932570	0.226270	0.813600
C331	C33	0.399190	0.674310	0.102000
C341	C34	0.577610	0.012610	0.745560
C351	C35	0.895040	0.398080	0.488000
C361	C36	0.393050	0.581070	0.074200
C371	C37	0.941610	0.709430	0.245100
C381	C38	0.934230	0.482070	0.516180
C391	C39	0.384560	0.290760	0.981300
C401	C40	0.615440	0.709240	0.018700
C411	C41	0.155270	0.467250	0.425800
C421	C42	0.731100	0.057740	0.005020
C431	C43	0.606950	0.418930	0.925800
C441	C44	0.065770	0.517930	0.483820
C451	C45	0.134550	0.866030	0.059180
C461	C46	0.460130	0.253830	0.313600
C471	C47	0.425210	0.193730	0.440820
C481	C48	0.545470	0.813290	0.745100
C491	C49	0.454530	0.186710	0.254900
C501	C50	0.583930	0.940530	0.677960
C511	C51	0.386080	0.383040	0.012000
C521	C52	0.437240	0.263880	0.505020
N11	N1	0.508230	0.734110	0.077360
N21	N2	0.491770	0.265890	0.922640
N31	N3	0.688530	0.414410	0.577360
N41	N4	0.311470	0.585590	0.422640
O11	O1	0.480910	0.379320	0.437850
O21	O2	0.682830	0.081240	0.937850
O31	O3	0.317170	0.918760	0.062150
O41	O4	0.431170	0.620530	0.389160
O51	O5	0.559830	0.956630	0.855420
O61	O6	0.310580	0.274400	0.814140
O71	O7	0.687950	0.584750	0.355420
O81	O8	0.440170	0.043370	0.144580
O91	O9	0.588540	0.124720	0.685860
O101	O10	0.320470	0.023960	0.880250
O111	O11	0.404210	0.200720	0.619750
O121	O12	0.411460	0.875280	0.314140
O131	O13	0.595790	0.799280	0.380250
O141	O14	0.490310	0.179670	0.889160
O151	O15	0.509690	0.820330	0.110840
O161	O16	0.568830	0.379470	0.610840
O171	O17	0.679530	0.976040	0.119750
O181	O18	0.689420	0.725600	0.185860
O191	O19	0.312050	0.415250	0.644580
O201	O20	0.519090	0.620680	0.562150
