data_HOQNEI_clean_PM
_symmetry_space_group_name_H-M	'P1'
_cell_length_a	17.328800
_cell_length_b	17.749100
_cell_length_c	12.857000
_cell_angle_alpha	90.000000
_cell_angle_beta	126.530000
_cell_angle_gamma	90.000000
_symmetry_Int_Tables_number 1

loop_
_symmetry_equiv_pos_as_xyz
'x,y,z'

loop_
_atom_site_label
_atom_site_type_symbol
_atom_site_fract_x
_atom_site_fract_y
_atom_site_fract_z
O11	O1	0.274540	0.152910	0.437100
O21	O2	0.413850	0.115080	0.619300
O31	O3	0.263950	0.813840	0.146700
O41	O4	0.417930	0.799300	0.314100
O51	O5	0.402620	0.278750	0.613200
N11	N1	0.430100	0.339440	0.582600
C11	C1	0.335000	0.031400	0.442700
C21	C2	0.407100	0.978700	0.511000
H11	H1	0.456700	0.987200	0.597800
C31	C3	0.406600	0.913500	0.452000
H21	H2	0.456400	0.879000	0.499100
C41	C4	0.333000	0.898980	0.324400
C51	C5	0.258700	0.950000	0.257100
H31	H3	0.207100	0.939700	0.172000
C61	C6	0.260300	0.016500	0.315200
H41	H4	0.210700	0.051200	0.268000
C71	C7	0.341700	0.105700	0.504900
C81	C8	0.337500	0.831940	0.256200
C91	C9	0.478500	0.332000	0.532000
H51	H5	0.493300	0.284200	0.519000
C101	C10	0.506300	0.394000	0.499300
H61	H6	0.539200	0.387900	0.463300
C111	C11	0.486200	0.466000	0.518800
C121	C12	0.436800	0.471300	0.572600
H71	H7	0.422300	0.518600	0.588200
C131	C13	0.408900	0.407400	0.603300
H81	H8	0.375200	0.411700	0.638500
O61	O6	0.774540	0.652910	0.437100
O71	O7	0.913850	0.615080	0.619300
O81	O8	0.763950	0.313840	0.146700
O91	O9	0.917930	0.299300	0.314100
O101	O10	0.902620	0.778750	0.613200
N21	N2	0.930100	0.839440	0.582600
C141	C14	0.835000	0.531400	0.442700
C151	C15	0.907100	0.478700	0.511000
H91	H9	0.956700	0.487200	0.597800
C161	C16	0.906600	0.413500	0.452000
H101	H10	0.956400	0.379000	0.499100
C171	C17	0.833000	0.398980	0.324400
C181	C18	0.758700	0.450000	0.257100
H111	H11	0.707100	0.439700	0.172000
C191	C19	0.760300	0.516500	0.315200
H121	H12	0.710700	0.551200	0.268000
C201	C20	0.841700	0.605700	0.504900
C211	C21	0.837500	0.331940	0.256200
C221	C22	0.978500	0.832000	0.532000
H131	H13	0.993300	0.784200	0.519000
C231	C23	0.006300	0.894000	0.499300
H141	H14	0.039200	0.887900	0.463300
C241	C24	0.986200	0.966000	0.518800
C251	C25	0.936800	0.971300	0.572600
H151	H15	0.922300	0.018600	0.588200
C261	C26	0.908900	0.907400	0.603300
H161	H16	0.875200	0.911700	0.638500
O111	O11	0.725460	0.152910	0.062900
O121	O12	0.586150	0.115080	0.880700
O131	O13	0.736050	0.813840	0.353300
O141	O14	0.582070	0.799300	0.185900
O151	O15	0.597380	0.278750	0.886800
N31	N3	0.569900	0.339440	0.917400
C271	C27	0.665000	0.031400	0.057300
C281	C28	0.592900	0.978700	0.989000
H171	H17	0.543300	0.987200	0.902200
C291	C29	0.593400	0.913500	0.048000
H181	H18	0.543600	0.879000	0.000900
C301	C30	0.667000	0.898980	0.175600
C311	C31	0.741300	0.950000	0.242900
H191	H19	0.792900	0.939700	0.328000
C321	C32	0.739700	0.016500	0.184800
H201	H20	0.789300	0.051200	0.232000
C331	C33	0.658300	0.105700	0.995100
C341	C34	0.662500	0.831940	0.243800
C351	C35	0.521500	0.332000	0.968000
H211	H21	0.506700	0.284200	0.981000
C361	C36	0.493700	0.394000	0.000700
H221	H22	0.460800	0.387900	0.036700
C371	C37	0.513800	0.466000	0.981200
C381	C38	0.563200	0.471300	0.927400
H231	H23	0.577700	0.518600	0.911800
C391	C39	0.591100	0.407400	0.896700
H241	H24	0.624800	0.411700	0.861500
O161	O16	0.225460	0.652910	0.062900
O171	O17	0.086150	0.615080	0.880700
O181	O18	0.236050	0.313840	0.353300
O191	O19	0.082070	0.299300	0.185900
O201	O20	0.097380	0.778750	0.886800
N41	N4	0.069900	0.839440	0.917400
C401	C40	0.165000	0.531400	0.057300
C411	C41	0.092900	0.478700	0.989000
H251	H25	0.043300	0.487200	0.902200
C421	C42	0.093400	0.413500	0.048000
H261	H26	0.043600	0.379000	0.000900
C431	C43	0.167000	0.398980	0.175600
C441	C44	0.241300	0.450000	0.242900
H271	H27	0.292900	0.439700	0.328000
C451	C45	0.239700	0.516500	0.184800
H281	H28	0.289300	0.551200	0.232000
C461	C46	0.158300	0.605700	0.995100
C471	C47	0.162500	0.331940	0.243800
C481	C48	0.021500	0.832000	0.968000
H291	H29	0.006700	0.784200	0.981000
C491	C49	0.993700	0.894000	0.000700
H301	H30	0.960800	0.887900	0.036700
C501	C50	0.013800	0.966000	0.981200
C511	C51	0.063200	0.971300	0.927400
H311	H31	0.077700	0.018600	0.911800
C521	C52	0.091100	0.907400	0.896700
H321	H32	0.124800	0.911700	0.861500
O211	O21	0.725460	0.847090	0.562900
O221	O22	0.586150	0.884920	0.380700
O231	O23	0.736050	0.186160	0.853300
O241	O24	0.582070	0.200700	0.685900
O251	O25	0.597380	0.721250	0.386800
N51	N5	0.569900	0.660560	0.417400
C531	C53	0.665000	0.968600	0.557300
C541	C54	0.592900	0.021300	0.489000
H331	H33	0.543300	0.012800	0.402200
C551	C55	0.593400	0.086500	0.548000
H341	H34	0.543600	0.121000	0.500900
C561	C56	0.667000	0.101020	0.675600
C571	C57	0.741300	0.050000	0.742900
H351	H35	0.792900	0.060300	0.828000
C581	C58	0.739700	0.983500	0.684800
H361	H36	0.789300	0.948800	0.732000
C591	C59	0.658300	0.894300	0.495100
C601	C60	0.662500	0.168060	0.743800
C611	C61	0.521500	0.668000	0.468000
H371	H37	0.506700	0.715800	0.481000
C621	C62	0.493700	0.606000	0.500700
H381	H38	0.460800	0.612100	0.536700
C631	C63	0.513800	0.534000	0.481200
C641	C64	0.563200	0.528700	0.427400
H391	H39	0.577700	0.481400	0.411800
C651	C65	0.591100	0.592600	0.396700
H401	H40	0.624800	0.588300	0.361500
O261	O26	0.225460	0.347090	0.562900
O271	O27	0.086150	0.384920	0.380700
O281	O28	0.236050	0.686160	0.853300
O291	O29	0.082070	0.700700	0.685900
O301	O30	0.097380	0.221250	0.386800
N61	N6	0.069900	0.160560	0.417400
C661	C66	0.165000	0.468600	0.557300
C671	C67	0.092900	0.521300	0.489000
H411	H41	0.043300	0.512800	0.402200
C681	C68	0.093400	0.586500	0.548000
H421	H42	0.043600	0.621000	0.500900
C691	C69	0.167000	0.601020	0.675600
C701	C70	0.241300	0.550000	0.742900
H431	H43	0.292900	0.560300	0.828000
C711	C71	0.239700	0.483500	0.684800
H441	H44	0.289300	0.448800	0.732000
C721	C72	0.158300	0.394300	0.495100
C731	C73	0.162500	0.668060	0.743800
C741	C74	0.021500	0.168000	0.468000
H451	H45	0.006700	0.215800	0.481000
C751	C75	0.993700	0.106000	0.500700
H461	H46	0.960800	0.112100	0.536700
C761	C76	0.013800	0.034000	0.481200
C771	C77	0.063200	0.028700	0.427400
H471	H47	0.077700	0.981400	0.411800
C781	C78	0.091100	0.092600	0.396700
H481	H48	0.124800	0.088300	0.361500
O311	O31	0.274540	0.847090	0.937100
O321	O32	0.413850	0.884920	0.119300
O331	O33	0.263950	0.186160	0.646700
O341	O34	0.417930	0.200700	0.814100
O351	O35	0.402620	0.721250	0.113200
N71	N7	0.430100	0.660560	0.082600
C791	C79	0.335000	0.968600	0.942700
C801	C80	0.407100	0.021300	0.011000
H491	H49	0.456700	0.012800	0.097800
C811	C81	0.406600	0.086500	0.952000
H501	H50	0.456400	0.121000	0.999100
C821	C82	0.333000	0.101020	0.824400
C831	C83	0.258700	0.050000	0.757100
H511	H51	0.207100	0.060300	0.672000
C841	C84	0.260300	0.983500	0.815200
H521	H52	0.210700	0.948800	0.768000
C851	C85	0.341700	0.894300	0.004900
C861	C86	0.337500	0.168060	0.756200
C871	C87	0.478500	0.668000	0.032000
H531	H53	0.493300	0.715800	0.019000
C881	C88	0.506300	0.606000	0.999300
H541	H54	0.539200	0.612100	0.963300
C891	C89	0.486200	0.534000	0.018800
C901	C90	0.436800	0.528700	0.072600
H551	H55	0.422300	0.481400	0.088200
C911	C91	0.408900	0.592600	0.103300
H561	H56	0.375200	0.588300	0.138500
O361	O36	0.774540	0.347090	0.937100
O371	O37	0.913850	0.384920	0.119300
O381	O38	0.763950	0.686160	0.646700
O391	O39	0.917930	0.700700	0.814100
O401	O40	0.902620	0.221250	0.113200
N81	N8	0.930100	0.160560	0.082600
C921	C92	0.835000	0.468600	0.942700
C931	C93	0.907100	0.521300	0.011000
H571	H57	0.956700	0.512800	0.097800
C941	C94	0.906600	0.586500	0.952000
H581	H58	0.956400	0.621000	0.999100
C951	C95	0.833000	0.601020	0.824400
C961	C96	0.758700	0.550000	0.757100
H591	H59	0.707100	0.560300	0.672000
C971	C97	0.760300	0.483500	0.815200
H601	H60	0.710700	0.448800	0.768000
C981	C98	0.841700	0.394300	0.004900
C991	C99	0.837500	0.668060	0.756200
C1001	C100	0.978500	0.168000	0.032000
H611	H61	0.993300	0.215800	0.019000
C1011	C101	0.006300	0.106000	0.999300
H621	H62	0.039200	0.112100	0.963300
C1021	C102	0.986200	0.034000	0.018800
C1031	C103	0.936800	0.028700	0.072600
H631	H63	0.922300	0.981400	0.088200
C1041	C104	0.908900	0.092600	0.103300
H641	H64	0.875200	0.088300	0.138500
Mg11	Mg1	0.250000	0.250000	0.500000
Mg21	Mg2	0.750000	0.250000	0.000000
Mg31	Mg3	0.750000	0.750000	0.500000
Mg41	Mg4	0.250000	0.750000	0.000000
Mg51	Mg5	0.500000	0.194830	0.750000
Mg61	Mg6	0.000000	0.694830	0.750000
Mg71	Mg7	0.500000	0.805170	0.250000
Mg81	Mg8	0.000000	0.305170	0.250000
