data_HORCUN_clean_PM
_symmetry_space_group_name_H-M	'P1'
_cell_length_a	6.549500
_cell_length_b	9.538400
_cell_length_c	17.169300
_cell_angle_alpha	90.000000
_cell_angle_beta	90.000000
_cell_angle_gamma	90.000000
_symmetry_Int_Tables_number 1

loop_
_symmetry_equiv_pos_as_xyz
'x,y,z'

loop_
_atom_site_label
_atom_site_type_symbol
_atom_site_fract_x
_atom_site_fract_y
_atom_site_fract_z
Er11	Er1	0.750000	0.783380	0.620350
Er21	Er2	0.250000	0.716620	0.120350
Er31	Er3	0.250000	0.216620	0.379650
Er41	Er4	0.750000	0.283380	0.879650
H11	H1	0.750000	0.228900	0.651900
H21	H2	0.250000	0.271100	0.151900
H31	H3	0.250000	0.771100	0.348100
H41	H4	0.750000	0.728900	0.848100
C11	C1	0.750000	0.629100	0.451100
C21	C2	0.750000	0.502100	0.505400
C31	C3	0.750000	0.359700	0.484000
C41	C4	0.750000	0.308400	0.400600
C51	C5	0.750000	0.297300	0.613400
C61	C6	0.750000	0.437800	0.634500
C71	C7	0.750000	0.491800	0.716700
C81	C8	0.250000	0.870900	0.951100
C91	C9	0.250000	0.997900	0.005400
C101	C10	0.250000	0.140300	0.984000
C111	C11	0.250000	0.191600	0.900600
C121	C12	0.250000	0.202700	0.113400
C131	C13	0.250000	0.062200	0.134500
C141	C14	0.250000	0.008200	0.216700
C151	C15	0.250000	0.370900	0.548900
C161	C16	0.250000	0.497900	0.494600
C171	C17	0.250000	0.640300	0.516000
C181	C18	0.250000	0.691600	0.599400
C191	C19	0.250000	0.702700	0.386600
C201	C20	0.250000	0.562200	0.365500
C211	C21	0.250000	0.508200	0.283300
C221	C22	0.750000	0.129100	0.048900
C231	C23	0.750000	0.002100	0.994600
C241	C24	0.750000	0.859700	0.016000
C251	C25	0.750000	0.808400	0.099400
C261	C26	0.750000	0.797300	0.886600
C271	C27	0.750000	0.937800	0.865500
C281	C28	0.750000	0.991800	0.783300
N11	N1	0.750000	0.536500	0.580570
N21	N2	0.750000	0.258600	0.538400
N31	N3	0.250000	0.963500	0.080570
N41	N4	0.250000	0.241400	0.038400
N51	N5	0.250000	0.463500	0.419430
N61	N6	0.250000	0.741400	0.461600
N71	N7	0.750000	0.036500	0.919430
N81	N8	0.750000	0.758600	0.961600
O11	O1	0.918400	0.286900	0.369220
O21	O2	0.081600	0.213100	0.869220
O31	O3	0.418400	0.713100	0.630780
O41	O4	0.581600	0.786900	0.130780
O51	O5	0.081600	0.713100	0.630780
O61	O6	0.918400	0.786900	0.130780
O71	O7	0.581600	0.286900	0.369220
O81	O8	0.418400	0.213100	0.869220
O91	O9	0.750000	0.746300	0.487010
O101	O10	0.750000	0.610000	0.380820
O111	O11	0.750000	0.405000	0.770140
O121	O12	0.750000	0.621800	0.724430
O131	O13	0.250000	0.753700	0.987010
O141	O14	0.250000	0.890000	0.880820
O151	O15	0.250000	0.095000	0.270140
O161	O16	0.250000	0.878200	0.224430
O171	O17	0.250000	0.253700	0.512990
O181	O18	0.250000	0.390000	0.619180
O191	O19	0.250000	0.595000	0.229860
O201	O20	0.250000	0.378200	0.275570
O211	O21	0.750000	0.246300	0.012990
O221	O22	0.750000	0.110000	0.119180
O231	O23	0.750000	0.905000	0.729860
O241	O24	0.750000	0.121800	0.775570
