data_HORCOH_clean_PM
_symmetry_space_group_name_H-M	'P1'
_cell_length_a	6.517500
_cell_length_b	9.505400
_cell_length_c	17.087800
_cell_angle_alpha	90.000000
_cell_angle_beta	90.000000
_cell_angle_gamma	90.000000
_symmetry_Int_Tables_number 1

loop_
_symmetry_equiv_pos_as_xyz
'x,y,z'

loop_
_atom_site_label
_atom_site_type_symbol
_atom_site_fract_x
_atom_site_fract_y
_atom_site_fract_z
Yb11	Yb1	0.750000	0.780800	0.620880
Yb21	Yb2	0.250000	0.719200	0.120880
Yb31	Yb3	0.250000	0.219200	0.379120
Yb41	Yb4	0.750000	0.280800	0.879120
H11	H1	0.750000	0.227400	0.652100
H21	H2	0.250000	0.272600	0.152100
H31	H3	0.250000	0.772600	0.347900
H41	H4	0.750000	0.727400	0.847900
C11	C1	0.750000	0.630300	0.451900
C21	C2	0.750000	0.501900	0.504800
C31	C3	0.750000	0.359300	0.483800
C41	C4	0.750000	0.307700	0.400000
C51	C5	0.750000	0.296200	0.613400
C61	C6	0.750000	0.435900	0.634700
C71	C7	0.750000	0.489600	0.717100
C81	C8	0.250000	0.869700	0.951900
C91	C9	0.250000	0.998100	0.004800
C101	C10	0.250000	0.140700	0.983800
C111	C11	0.250000	0.192300	0.900000
C121	C12	0.250000	0.203800	0.113400
C131	C13	0.250000	0.064100	0.134700
C141	C14	0.250000	0.010400	0.217100
C151	C15	0.250000	0.369700	0.548100
C161	C16	0.250000	0.498100	0.495200
C171	C17	0.250000	0.640700	0.516200
C181	C18	0.250000	0.692300	0.600000
C191	C19	0.250000	0.703800	0.386600
C201	C20	0.250000	0.564100	0.365300
C211	C21	0.250000	0.510400	0.282900
C221	C22	0.750000	0.130300	0.048100
C231	C23	0.750000	0.001900	0.995200
C241	C24	0.750000	0.859300	0.016200
C251	C25	0.750000	0.807700	0.100000
C261	C26	0.750000	0.796200	0.886600
C271	C27	0.750000	0.935900	0.865300
C281	C28	0.750000	0.989600	0.782900
N11	N1	0.750000	0.535400	0.580800
N21	N2	0.750000	0.256900	0.537600
N31	N3	0.250000	0.964600	0.080800
N41	N4	0.250000	0.243100	0.037600
N51	N5	0.250000	0.464600	0.419200
N61	N6	0.250000	0.743100	0.462400
N71	N7	0.750000	0.035400	0.919200
N81	N8	0.750000	0.756900	0.962400
O11	O1	0.919500	0.289200	0.367520
O21	O2	0.080500	0.210800	0.867520
O31	O3	0.419500	0.710800	0.632480
O41	O4	0.580500	0.789200	0.132480
O51	O5	0.080500	0.710800	0.632480
O61	O6	0.919500	0.789200	0.132480
O71	O7	0.580500	0.289200	0.367520
O81	O8	0.419500	0.210800	0.867520
O91	O9	0.750000	0.747800	0.488300
O101	O10	0.750000	0.613200	0.380710
O111	O11	0.750000	0.402400	0.770700
O121	O12	0.750000	0.619500	0.725400
O131	O13	0.250000	0.752200	0.988300
O141	O14	0.250000	0.886800	0.880710
O151	O15	0.250000	0.097600	0.270700
O161	O16	0.250000	0.880500	0.225400
O171	O17	0.250000	0.252200	0.511700
O181	O18	0.250000	0.386800	0.619290
O191	O19	0.250000	0.597600	0.229300
O201	O20	0.250000	0.380500	0.274600
O211	O21	0.750000	0.247800	0.011700
O221	O22	0.750000	0.113200	0.119290
O231	O23	0.750000	0.902400	0.729300
O241	O24	0.750000	0.119500	0.774600
