data_HOWPIU_clean_PM
_symmetry_space_group_name_H-M	'P1'
_cell_length_a	9.153000
_cell_length_b	17.895000
_cell_length_c	10.668000
_cell_angle_alpha	90.000000
_cell_angle_beta	96.395000
_cell_angle_gamma	90.000000
_symmetry_Int_Tables_number 1

loop_
_symmetry_equiv_pos_as_xyz
'x,y,z'

loop_
_atom_site_label
_atom_site_type_symbol
_atom_site_fract_x
_atom_site_fract_y
_atom_site_fract_z
Ag11	Ag1	0.630750	0.409790	0.974810
Ag21	Ag2	0.952350	0.450990	0.826490
N11	N1	0.644500	0.475600	0.155200
N21	N2	0.555300	0.537200	0.172300
N31	N3	0.714900	0.524300	0.336700
N41	N4	0.789100	0.533800	0.455400
N51	N5	0.931300	0.580900	0.612400
N61	N6	0.888800	0.508600	0.643100
N71	N7	0.821700	0.337800	0.768700
N81	N8	0.690800	0.326700	0.820900
N91	N9	0.721200	0.235400	0.695700
N101	N10	0.695400	0.170600	0.625900
N111	N11	0.599300	0.093500	0.485800
N121	N12	0.698200	0.054200	0.570400
C11	C1	0.739300	0.468800	0.254800
H11	H1	0.811400	0.432100	0.267700
C21	C2	0.599000	0.564900	0.283200
H21	H2	0.557500	0.605800	0.319700
C31	C3	0.871200	0.594000	0.498500
H31	H3	0.882400	0.637700	0.453400
C41	C4	0.801800	0.482500	0.548900
H41	H4	0.755800	0.436100	0.546200
C51	C5	0.837500	0.281500	0.693900
H51	H5	0.916100	0.274300	0.647000
C61	C6	0.632400	0.264700	0.776300
H61	H6	0.544700	0.244100	0.796300
C71	C7	0.599300	0.162700	0.520400
H71	H7	0.542900	0.200700	0.479900
C81	C8	0.753700	0.102200	0.654100
H81	H8	0.822500	0.091300	0.722500
Ag31	Ag3	0.869250	0.909790	0.525190
Ag41	Ag4	0.547650	0.950990	0.673510
N131	N13	0.855500	0.975600	0.344800
N141	N14	0.944700	0.037200	0.327700
N151	N15	0.785100	0.024300	0.163300
N161	N16	0.710900	0.033800	0.044600
N171	N17	0.568700	0.080900	0.887600
N181	N18	0.611200	0.008600	0.856900
N191	N19	0.678300	0.837800	0.731300
N201	N20	0.809200	0.826700	0.679100
N211	N21	0.778800	0.735400	0.804300
N221	N22	0.804600	0.670600	0.874100
N231	N23	0.900700	0.593500	0.014200
N241	N24	0.801800	0.554200	0.929600
C91	C9	0.760700	0.968800	0.245200
H91	H9	0.688600	0.932100	0.232300
C101	C10	0.901000	0.064900	0.216800
H101	H10	0.942500	0.105800	0.180300
C111	C11	0.628800	0.094000	0.001500
H111	H11	0.617600	0.137700	0.046600
C121	C12	0.698200	0.982500	0.951100
H121	H12	0.744200	0.936100	0.953800
C131	C13	0.662500	0.781500	0.806100
H131	H13	0.583900	0.774300	0.853000
C141	C14	0.867600	0.764700	0.723700
H141	H14	0.955300	0.744100	0.703700
C151	C15	0.900700	0.662700	0.979600
H151	H15	0.957100	0.700700	0.020100
C161	C16	0.746300	0.602200	0.845900
H161	H16	0.677500	0.591300	0.777500
Ag51	Ag5	0.369250	0.590210	0.025190
Ag61	Ag6	0.047650	0.549010	0.173510
N251	N25	0.355500	0.524400	0.844800
N261	N26	0.444700	0.462800	0.827700
N271	N27	0.285100	0.475700	0.663300
N281	N28	0.210900	0.466200	0.544600
N291	N29	0.068700	0.419100	0.387600
N301	N30	0.111200	0.491400	0.356900
N311	N31	0.178300	0.662200	0.231300
N321	N32	0.309200	0.673300	0.179100
N331	N33	0.278800	0.764600	0.304300
N341	N34	0.304600	0.829400	0.374100
N351	N35	0.400700	0.906500	0.514200
N361	N36	0.301800	0.945800	0.429600
C171	C17	0.260700	0.531200	0.745200
H171	H17	0.188600	0.567900	0.732300
C181	C18	0.401000	0.435100	0.716800
H181	H18	0.442500	0.394200	0.680300
C191	C19	0.128800	0.406000	0.501500
H191	H19	0.117600	0.362300	0.546600
C201	C20	0.198200	0.517500	0.451100
H201	H20	0.244200	0.563900	0.453800
C211	C21	0.162500	0.718500	0.306100
H211	H21	0.083900	0.725700	0.353000
C221	C22	0.367600	0.735300	0.223700
H221	H22	0.455300	0.755900	0.203700
C231	C23	0.400700	0.837300	0.479600
H231	H23	0.457100	0.799300	0.520100
C241	C24	0.246300	0.897800	0.345900
H241	H24	0.177500	0.908700	0.277500
Ag71	Ag7	0.130750	0.090210	0.474810
Ag81	Ag8	0.452350	0.049010	0.326490
N371	N37	0.144500	0.024400	0.655200
N381	N38	0.055300	0.962800	0.672300
N391	N39	0.214900	0.975700	0.836700
N401	N40	0.289100	0.966200	0.955400
N411	N41	0.431300	0.919100	0.112400
N421	N42	0.388800	0.991400	0.143100
N431	N43	0.321700	0.162200	0.268700
N441	N44	0.190800	0.173300	0.320900
N451	N45	0.221200	0.264600	0.195700
N461	N46	0.195400	0.329400	0.125900
N471	N47	0.099300	0.406500	0.985800
N481	N48	0.198200	0.445800	0.070400
C251	C25	0.239300	0.031200	0.754800
H251	H25	0.311400	0.067900	0.767700
C261	C26	0.099000	0.935100	0.783200
H261	H26	0.057500	0.894200	0.819700
C271	C27	0.371200	0.906000	0.998500
H271	H27	0.382400	0.862300	0.953400
C281	C28	0.301800	0.017500	0.048900
H281	H28	0.255800	0.063900	0.046200
C291	C29	0.337500	0.218500	0.193900
H291	H29	0.416100	0.225700	0.147000
C301	C30	0.132400	0.235300	0.276300
H301	H30	0.044700	0.255900	0.296300
C311	C31	0.099300	0.337300	0.020400
H311	H31	0.042900	0.299300	0.979900
C321	C32	0.253700	0.397800	0.154100
H321	H32	0.322500	0.408700	0.222500
