data_HOWQAM_clean_PM
_symmetry_space_group_name_H-M	'P1'
_cell_length_a	13.091300
_cell_length_b	13.208700
_cell_length_c	26.916000
_cell_angle_alpha	90.000000
_cell_angle_beta	90.000000
_cell_angle_gamma	90.000000
_symmetry_Int_Tables_number 1

loop_
_symmetry_equiv_pos_as_xyz
'x,y,z'

loop_
_atom_site_label
_atom_site_type_symbol
_atom_site_fract_x
_atom_site_fract_y
_atom_site_fract_z
Cd11	Cd1	0.805190	0.803530	0.829130
Cd21	Cd2	0.194810	0.696470	0.329130
Cd31	Cd3	0.305190	0.196470	0.670880
Cd41	Cd4	0.694810	0.303530	0.170880
Cd51	Cd5	0.194810	0.196470	0.170880
Cd61	Cd6	0.805190	0.303530	0.670880
Cd71	Cd7	0.694810	0.803530	0.329130
Cd81	Cd8	0.305190	0.696470	0.829130
H11	H1	0.822800	0.996700	0.756000
H21	H2	0.041800	0.812100	0.792200
H31	H3	0.658500	0.091700	0.751300
H41	H4	0.801600	0.002700	0.894700
H51	H5	0.879200	0.084600	0.960400
H61	H6	0.064600	0.854600	0.973600
H71	H7	0.991800	0.786300	0.905800
H81	H8	0.177200	0.503300	0.256000
H91	H9	0.958200	0.687900	0.292200
H101	H10	0.341500	0.408300	0.251300
H111	H11	0.198400	0.497300	0.394700
H121	H12	0.120800	0.415400	0.460400
H131	H13	0.935400	0.645400	0.473600
H141	H14	0.008200	0.713700	0.405800
H151	H15	0.322800	0.003300	0.744000
H161	H16	0.541800	0.187900	0.707800
H171	H17	0.158500	0.908300	0.748700
H181	H18	0.301600	0.997300	0.605300
H191	H19	0.379200	0.915400	0.539600
H201	H20	0.564600	0.145400	0.526400
H211	H21	0.491800	0.213700	0.594200
H221	H22	0.677200	0.496700	0.244000
H231	H23	0.458200	0.312100	0.207800
H241	H24	0.841500	0.591700	0.248700
H251	H25	0.698400	0.502700	0.105300
H261	H26	0.620800	0.584600	0.039600
H271	H27	0.435400	0.354600	0.026400
H281	H28	0.508200	0.286300	0.094200
H291	H29	0.177200	0.003300	0.244000
H301	H30	0.958200	0.187900	0.207800
H311	H31	0.341500	0.908300	0.248700
H321	H32	0.198400	0.997300	0.105300
H331	H33	0.120800	0.915400	0.039600
H341	H34	0.935400	0.145400	0.026400
H351	H35	0.008200	0.213700	0.094200
H361	H36	0.822800	0.496700	0.744000
H371	H37	0.041800	0.312100	0.707800
H381	H38	0.658500	0.591700	0.748700
H391	H39	0.801600	0.502700	0.605300
H401	H40	0.879200	0.584600	0.539600
H411	H41	0.064600	0.354600	0.526400
H421	H42	0.991800	0.286300	0.594200
H431	H43	0.677200	0.996700	0.256000
H441	H44	0.458200	0.812100	0.292200
H451	H45	0.841500	0.091700	0.251300
H461	H46	0.698400	0.002700	0.394700
H471	H47	0.620800	0.084600	0.460400
H481	H48	0.435400	0.854600	0.473600
H491	H49	0.508200	0.786300	0.405800
H501	H50	0.322800	0.503300	0.756000
H511	H51	0.541800	0.687900	0.792200
H521	H52	0.158500	0.408300	0.751300
H531	H53	0.301600	0.497300	0.894700
H541	H54	0.379200	0.415400	0.960400
H551	H55	0.564600	0.645400	0.973600
H561	H56	0.491800	0.713700	0.905800
C11	C1	0.640000	0.923000	0.800000
C21	C2	0.558900	0.987000	0.776500
C31	C3	0.455300	0.961000	0.774100
C41	C4	0.410900	0.870200	0.799900
C51	C5	0.891300	0.978400	0.754000
C61	C6	0.019400	0.870000	0.775900
C71	C7	0.590100	0.072600	0.750800
C81	C8	0.854700	0.970600	0.911300
C91	C9	0.901000	0.019900	0.951800
C101	C10	0.976200	0.976000	0.978300
C111	C11	0.009400	0.887400	0.959000
C121	C12	0.963500	0.845400	0.918500
C131	C13	0.360000	0.577000	0.300000
C141	C14	0.441100	0.513000	0.276500
C151	C15	0.544700	0.539000	0.274100
C161	C16	0.589100	0.629800	0.299900
C171	C17	0.108700	0.521600	0.254000
C181	C18	0.980600	0.630000	0.275900
C191	C19	0.409900	0.427400	0.250800
C201	C20	0.145300	0.529400	0.411300
C211	C21	0.099000	0.480100	0.451800
C221	C22	0.023800	0.524000	0.478300
C231	C23	0.990600	0.612600	0.459000
C241	C24	0.036500	0.654600	0.418500
C251	C25	0.140000	0.077000	0.700000
C261	C26	0.058900	0.013000	0.723500
C271	C27	0.955300	0.039000	0.725900
C281	C28	0.910900	0.129800	0.700100
C291	C29	0.391300	0.021600	0.746000
C301	C30	0.519400	0.130000	0.724100
C311	C31	0.090100	0.927400	0.749200
C321	C32	0.354700	0.029400	0.588700
C331	C33	0.401000	0.980100	0.548200
C341	C34	0.476200	0.024000	0.521700
C351	C35	0.509400	0.112600	0.541000
C361	C36	0.463500	0.154600	0.581500
C371	C37	0.860000	0.423000	0.200000
C381	C38	0.941100	0.487000	0.223500
C391	C39	0.044700	0.461000	0.225900
C401	C40	0.089100	0.370200	0.200100
C411	C41	0.608700	0.478400	0.246000
C421	C42	0.480600	0.370000	0.224100
C431	C43	0.909900	0.572600	0.249200
C441	C44	0.645300	0.470600	0.088700
C451	C45	0.599000	0.519900	0.048200
C461	C46	0.523800	0.476000	0.021700
C471	C47	0.490600	0.387400	0.041000
C481	C48	0.536500	0.345400	0.081500
C491	C49	0.360000	0.077000	0.200000
C501	C50	0.441100	0.013000	0.223500
C511	C51	0.544700	0.039000	0.225900
C521	C52	0.589100	0.129800	0.200100
C531	C53	0.108700	0.021600	0.246000
C541	C54	0.980600	0.130000	0.224100
C551	C55	0.409900	0.927400	0.249200
C561	C56	0.145300	0.029400	0.088700
C571	C57	0.099000	0.980100	0.048200
C581	C58	0.023800	0.024000	0.021700
C591	C59	0.990600	0.112600	0.041000
C601	C60	0.036500	0.154600	0.081500
C611	C61	0.640000	0.423000	0.700000
C621	C62	0.558900	0.487000	0.723500
C631	C63	0.455300	0.461000	0.725900
C641	C64	0.410900	0.370200	0.700100
C651	C65	0.891300	0.478400	0.746000
C661	C66	0.019400	0.370000	0.724100
C671	C67	0.590100	0.572600	0.749200
C681	C68	0.854700	0.470600	0.588700
C691	C69	0.901000	0.519900	0.548200
C701	C70	0.976200	0.476000	0.521700
C711	C71	0.009400	0.387400	0.541000
C721	C72	0.963500	0.345400	0.581500
C731	C73	0.860000	0.923000	0.300000
C741	C74	0.941100	0.987000	0.276500
C751	C75	0.044700	0.961000	0.274100
C761	C76	0.089100	0.870200	0.299900
C771	C77	0.608700	0.978400	0.254000
C781	C78	0.480600	0.870000	0.275900
C791	C79	0.909900	0.072600	0.250800
C801	C80	0.645300	0.970600	0.411300
C811	C81	0.599000	0.019900	0.451800
C821	C82	0.523800	0.976000	0.478300
C831	C83	0.490600	0.887400	0.459000
C841	C84	0.536500	0.845400	0.418500
C851	C85	0.140000	0.577000	0.800000
C861	C86	0.058900	0.513000	0.776500
C871	C87	0.955300	0.539000	0.774100
C881	C88	0.910900	0.629800	0.799900
C891	C89	0.391300	0.521600	0.754000
C901	C90	0.519400	0.630000	0.775900
C911	C91	0.090100	0.427400	0.750800
C921	C92	0.354700	0.529400	0.911300
C931	C93	0.401000	0.480100	0.951800
C941	C94	0.476200	0.524000	0.978300
C951	C95	0.509400	0.612600	0.959000
C961	C96	0.463500	0.654600	0.918500
N11	N1	0.921100	0.894900	0.778820
N21	N2	0.884000	0.881100	0.896500
N31	N3	0.078900	0.605100	0.278820
N41	N4	0.116000	0.618900	0.396500
N51	N5	0.421100	0.105100	0.721180
N61	N6	0.384000	0.118900	0.603500
N71	N7	0.578900	0.394900	0.221180
N81	N8	0.616000	0.381100	0.103500
N91	N9	0.078900	0.105100	0.221180
N101	N10	0.116000	0.118900	0.103500
N111	N11	0.921100	0.394900	0.721180
N121	N12	0.884000	0.381100	0.603500
N131	N13	0.578900	0.894900	0.278820
N141	N14	0.616000	0.881100	0.396500
N151	N15	0.421100	0.605100	0.778820
N161	N16	0.384000	0.618900	0.896500
O11	O1	0.684400	0.957500	0.836500
O21	O2	0.666200	0.843700	0.779200
O31	O3	0.456400	0.830900	0.835210
O41	O4	0.327200	0.837800	0.783400
O51	O5	0.315600	0.542500	0.336500
O61	O6	0.333800	0.656300	0.279200
O71	O7	0.543600	0.669100	0.335210
O81	O8	0.672800	0.662200	0.283400
O91	O9	0.184400	0.042500	0.663500
O101	O10	0.166200	0.156300	0.720800
O111	O11	0.956400	0.169100	0.664790
O121	O12	0.827200	0.162200	0.716600
O131	O13	0.815600	0.457500	0.163500
O141	O14	0.833800	0.343700	0.220800
O151	O15	0.043600	0.330900	0.164790
O161	O16	0.172800	0.337800	0.216600
O171	O17	0.315600	0.042500	0.163500
O181	O18	0.333800	0.156300	0.220800
O191	O19	0.543600	0.169100	0.164790
O201	O20	0.672800	0.162200	0.216600
O211	O21	0.684400	0.457500	0.663500
O221	O22	0.666200	0.343700	0.720800
O231	O23	0.456400	0.330900	0.664790
O241	O24	0.327200	0.337800	0.716600
O251	O25	0.815600	0.957500	0.336500
O261	O26	0.833800	0.843700	0.279200
O271	O27	0.043600	0.830900	0.335210
O281	O28	0.172800	0.837800	0.283400
O291	O29	0.184400	0.542500	0.836500
O301	O30	0.166200	0.656300	0.779200
O311	O31	0.956400	0.669100	0.835210
O321	O32	0.827200	0.662200	0.783400
