data_HOWQEQ_clean_PM
_symmetry_space_group_name_H-M	'P1'
_cell_length_a	7.577000
_cell_length_b	15.071000
_cell_length_c	27.320000
_cell_angle_alpha	90.000000
_cell_angle_beta	90.000000
_cell_angle_gamma	90.000000
_symmetry_Int_Tables_number 1

loop_
_symmetry_equiv_pos_as_xyz
'x,y,z'

loop_
_atom_site_label
_atom_site_type_symbol
_atom_site_fract_x
_atom_site_fract_y
_atom_site_fract_z
Cd11	Cd1	0.616520	0.744710	0.661600
Cd21	Cd2	0.763450	0.169950	0.594310
Cd31	Cd3	0.383480	0.755290	0.161600
Cd41	Cd4	0.236550	0.330050	0.094310
Cd51	Cd5	0.383480	0.255290	0.338400
Cd61	Cd6	0.236550	0.830050	0.405690
Cd71	Cd7	0.616520	0.244710	0.838400
Cd81	Cd8	0.763450	0.669950	0.905690
H11	H1	0.060300	0.735000	0.732000
H21	H2	0.834500	0.733000	0.786600
H31	H3	0.166500	0.723700	0.895200
H41	H4	0.213200	0.765400	0.644400
H51	H5	0.559000	0.949500	0.617300
H61	H6	0.342100	0.043800	0.591600
H71	H7	0.463800	0.555900	0.636800
H81	H8	0.433800	0.452900	0.575900
H91	H9	0.556100	0.642000	0.479200
H101	H10	0.573600	0.739700	0.542300
H111	H11	0.923800	0.747500	0.011600
H121	H12	0.022100	0.875000	0.046400
H131	H13	0.896300	0.003400	0.923100
H141	H14	0.799800	0.871600	0.892700
H151	H15	0.939700	0.765000	0.232000
H161	H16	0.165500	0.767000	0.286600
H171	H17	0.833500	0.776300	0.395200
H181	H18	0.786800	0.734600	0.144400
H191	H19	0.441000	0.550500	0.117300
H201	H20	0.657900	0.456200	0.091600
H211	H21	0.536200	0.944100	0.136800
H221	H22	0.566200	0.047100	0.075900
H231	H23	0.443900	0.858000	0.979200
H241	H24	0.426400	0.760300	0.042300
H251	H25	0.076200	0.752500	0.511600
H261	H26	0.977900	0.625000	0.546400
H271	H27	0.103700	0.496600	0.423100
H281	H28	0.200200	0.628400	0.392700
H291	H29	0.939700	0.265000	0.268000
H301	H30	0.165500	0.267000	0.213400
H311	H31	0.833500	0.276300	0.104800
H321	H32	0.786800	0.234600	0.355600
H331	H33	0.441000	0.050500	0.382700
H341	H34	0.657900	0.956200	0.408400
H351	H35	0.536200	0.444100	0.363200
H361	H36	0.566200	0.547100	0.424100
H371	H37	0.443900	0.358000	0.520800
H381	H38	0.426400	0.260300	0.457700
H391	H39	0.076200	0.252500	0.988400
H401	H40	0.977900	0.125000	0.953600
H411	H41	0.103700	0.996600	0.076900
H421	H42	0.200200	0.128400	0.107300
H431	H43	0.060300	0.235000	0.768000
H441	H44	0.834500	0.233000	0.713400
H451	H45	0.166500	0.223700	0.604800
H461	H46	0.213200	0.265400	0.855600
H471	H47	0.559000	0.449500	0.882700
H481	H48	0.342100	0.543800	0.908400
H491	H49	0.463800	0.055900	0.863200
H501	H50	0.433800	0.952900	0.924100
H511	H51	0.556100	0.142000	0.020800
H521	H52	0.573600	0.239700	0.957700
H531	H53	0.923800	0.247500	0.488400
H541	H54	0.022100	0.375000	0.453600
H551	H55	0.896300	0.503400	0.576900
H561	H56	0.799800	0.371600	0.607300
C11	C1	0.404700	0.725800	0.742500
C21	C2	0.259100	0.725800	0.780700
C31	C3	0.085100	0.730700	0.765200
C41	C4	0.949900	0.729400	0.798100
C51	C5	0.145400	0.723400	0.861700
C61	C6	0.287600	0.723200	0.830800
C71	C7	0.467700	0.711100	0.854600
C81	C8	0.914600	0.838000	0.624300
C91	C9	0.099200	0.876400	0.620200
C101	C10	0.238500	0.822800	0.634000
C111	C11	0.442400	0.930300	0.617900
C121	C12	0.312200	0.987400	0.602700
C131	C13	0.137500	0.961900	0.604000
C141	C14	0.996100	0.028800	0.592100
C151	C15	0.485600	0.572800	0.604600
C161	C16	0.468700	0.510400	0.568200
C171	C17	0.503600	0.533000	0.520000
C181	C18	0.539800	0.622100	0.511100
C191	C19	0.551200	0.680300	0.549300
C201	C20	0.919300	0.799700	0.993400
C211	C21	0.977700	0.876500	0.014700
C221	C22	0.971600	0.958000	0.989200
C231	C23	0.903800	0.952600	0.942300
C241	C24	0.847500	0.872500	0.924000
C251	C25	0.595300	0.774200	0.242500
C261	C26	0.740900	0.774200	0.280700
C271	C27	0.914900	0.769300	0.265200
C281	C28	0.050100	0.770600	0.298100
C291	C29	0.854600	0.776600	0.361700
C301	C30	0.712400	0.776800	0.330800
C311	C31	0.532300	0.788900	0.354600
C321	C32	0.085400	0.662000	0.124300
C331	C33	0.900800	0.623600	0.120200
C341	C34	0.761500	0.677200	0.134000
C351	C35	0.557600	0.569700	0.117900
C361	C36	0.687800	0.512600	0.102700
C371	C37	0.862500	0.538100	0.104000
C381	C38	0.003900	0.471200	0.092100
C391	C39	0.514400	0.927200	0.104600
C401	C40	0.531300	0.989600	0.068200
C411	C41	0.496400	0.967000	0.020000
C421	C42	0.460200	0.877900	0.011100
C431	C43	0.448800	0.819700	0.049300
C441	C44	0.080700	0.700300	0.493400
C451	C45	0.022300	0.623500	0.514700
C461	C46	0.028400	0.542000	0.489200
C471	C47	0.096200	0.547400	0.442300
C481	C48	0.152500	0.627500	0.424000
C491	C49	0.595300	0.274200	0.257500
C501	C50	0.740900	0.274200	0.219300
C511	C51	0.914900	0.269300	0.234800
C521	C52	0.050100	0.270600	0.201900
C531	C53	0.854600	0.276600	0.138300
C541	C54	0.712400	0.276800	0.169200
C551	C55	0.532300	0.288900	0.145400
C561	C56	0.085400	0.162000	0.375700
C571	C57	0.900800	0.123600	0.379800
C581	C58	0.761500	0.177200	0.366000
C591	C59	0.557600	0.069700	0.382100
C601	C60	0.687800	0.012600	0.397300
C611	C61	0.862500	0.038100	0.396000
C621	C62	0.003900	0.971200	0.407900
C631	C63	0.514400	0.427200	0.395400
C641	C64	0.531300	0.489600	0.431800
C651	C65	0.496400	0.467000	0.480000
C661	C66	0.460200	0.377900	0.488900
C671	C67	0.448800	0.319700	0.450700
C681	C68	0.080700	0.200300	0.006600
C691	C69	0.022300	0.123500	0.985300
C701	C70	0.028400	0.042000	0.010800
C711	C71	0.096200	0.047400	0.057700
C721	C72	0.152500	0.127500	0.076000
C731	C73	0.404700	0.225800	0.757500
C741	C74	0.259100	0.225800	0.719300
C751	C75	0.085100	0.230700	0.734800
C761	C76	0.949900	0.229400	0.701900
C771	C77	0.145400	0.223400	0.638300
C781	C78	0.287600	0.223200	0.669200
C791	C79	0.467700	0.211100	0.645400
C801	C80	0.914600	0.338000	0.875700
C811	C81	0.099200	0.376400	0.879800
C821	C82	0.238500	0.322800	0.866000
C831	C83	0.442400	0.430300	0.882100
C841	C84	0.312200	0.487400	0.897300
C851	C85	0.137500	0.461900	0.896000
C861	C86	0.996100	0.528800	0.907900
C871	C87	0.485600	0.072800	0.895400
C881	C88	0.468700	0.010400	0.931800
C891	C89	0.503600	0.033000	0.980000
C901	C90	0.539800	0.122100	0.988900
C911	C91	0.551200	0.180300	0.950700
C921	C92	0.919300	0.299700	0.506600
C931	C93	0.977700	0.376500	0.485300
C941	C94	0.971600	0.458000	0.510800
C951	C95	0.903800	0.452600	0.557700
C961	C96	0.847500	0.372500	0.576000
N11	N1	0.977900	0.723100	0.846400
N21	N2	0.407800	0.848400	0.633300
N31	N3	0.532300	0.657100	0.595600
N41	N4	0.856800	0.796300	0.948300
N51	N5	0.022100	0.776900	0.346400
N61	N6	0.592200	0.651600	0.133300
N71	N7	0.467700	0.842900	0.095600
N81	N8	0.143200	0.703700	0.448300
N91	N9	0.022100	0.276900	0.153600
N101	N10	0.592200	0.151600	0.366700
N111	N11	0.467700	0.342900	0.404400
N121	N12	0.143200	0.203700	0.051700
N131	N13	0.977900	0.223100	0.653600
N141	N14	0.407800	0.348400	0.866700
N151	N15	0.532300	0.157100	0.904400
N161	N16	0.856800	0.296300	0.551700
O11	O1	0.527000	0.780200	0.746500
O21	O2	0.386600	0.676300	0.706800
O31	O3	0.569100	0.656900	0.837500
O41	O4	0.498700	0.753100	0.892900
O51	O5	0.868300	0.816600	0.667200
O61	O6	0.826100	0.824700	0.587200
O71	O7	0.855800	0.026100	0.616400
O81	O8	0.027000	0.087700	0.561170
O91	O9	0.473000	0.719800	0.246500
O101	O10	0.613400	0.823700	0.206800
O111	O11	0.430900	0.843100	0.337500
O121	O12	0.501300	0.746900	0.392900
O131	O13	0.131700	0.683400	0.167200
O141	O14	0.173900	0.675300	0.087200
O151	O15	0.144200	0.473900	0.116400
O161	O16	0.973000	0.412300	0.061170
O171	O17	0.473000	0.219800	0.253500
O181	O18	0.613400	0.323700	0.293200
O191	O19	0.430900	0.343100	0.162500
O201	O20	0.501300	0.246900	0.107100
O211	O21	0.131700	0.183400	0.332800
O221	O22	0.173900	0.175300	0.412800
O231	O23	0.144200	0.973900	0.383600
O241	O24	0.973000	0.912300	0.438830
O251	O25	0.527000	0.280200	0.753500
O261	O26	0.386600	0.176300	0.793200
O271	O27	0.569100	0.156900	0.662500
O281	O28	0.498700	0.253100	0.607100
O291	O29	0.868300	0.316600	0.832800
O301	O30	0.826100	0.324700	0.912800
O311	O31	0.855800	0.526100	0.883600
O321	O32	0.027000	0.587700	0.938830
