data_HOWROC_clean_PM
_symmetry_space_group_name_H-M	'P1'
_cell_length_a	19.477800
_cell_length_b	13.954200
_cell_length_c	23.761000
_cell_angle_alpha	90.000000
_cell_angle_beta	104.444000
_cell_angle_gamma	90.000000
_symmetry_Int_Tables_number 1

loop_
_symmetry_equiv_pos_as_xyz
'x,y,z'

loop_
_atom_site_label
_atom_site_type_symbol
_atom_site_fract_x
_atom_site_fract_y
_atom_site_fract_z
Ba11	Ba1	0.682370	0.751790	0.270330
Ba21	Ba2	0.835900	0.928120	0.194080
Ba31	Ba3	0.680110	0.438850	0.315130
Ba41	Ba4	0.468470	0.447960	0.361890
Ba51	Ba5	0.156230	0.671450	0.186580
Ba61	Ba6	0.977900	0.443190	0.373400
C11	C1	0.747100	0.425900	0.514500
C21	C2	0.687200	0.368200	0.495500
C31	C3	0.689400	0.273000	0.510400
H11	H1	0.648300	0.236200	0.500000
C41	C4	0.752200	0.231300	0.541000
H21	H2	0.753700	0.166700	0.550700
C51	C5	0.812300	0.286500	0.556800
H31	H3	0.855200	0.257700	0.574900
C61	C6	0.810200	0.382800	0.546300
C71	C7	0.748000	0.531700	0.504200
C81	C8	0.789100	0.571700	0.469600
C91	C9	0.797200	0.669600	0.467600
H41	H4	0.826100	0.695300	0.445500
C101	C10	0.763100	0.730300	0.497800
H51	H5	0.768400	0.796300	0.495500
C111	C11	0.721800	0.693100	0.530900
H61	H6	0.698500	0.733800	0.551000
C121	C12	0.714300	0.594900	0.534700
C131	C13	0.619500	0.400000	0.452800
C141	C14	0.877500	0.440000	0.570400
C151	C15	0.825000	0.508900	0.435200
C161	C16	0.670700	0.558700	0.574500
C171	C17	0.415400	0.626200	0.198600
C181	C18	0.481900	0.587500	0.198600
C191	C19	0.495900	0.554900	0.147100
H71	H7	0.540600	0.530600	0.147700
C201	C20	0.444600	0.558100	0.095500
H81	H8	0.453900	0.535000	0.061400
C211	C21	0.378800	0.596300	0.095100
H91	H9	0.343900	0.598000	0.060400
C221	C22	0.363600	0.631900	0.144900
C231	C23	0.401600	0.663900	0.253500
C241	C24	0.436000	0.747400	0.277400
C251	C25	0.427200	0.781100	0.330600
H101	H10	0.452300	0.834600	0.347900
C261	C26	0.381900	0.735700	0.357200
H111	H11	0.376300	0.758700	0.392500
C271	C27	0.344600	0.656800	0.332800
H121	H12	0.312000	0.628800	0.350400
C281	C28	0.355300	0.617600	0.281000
C291	C29	0.541600	0.579600	0.253000
C301	C30	0.291800	0.674700	0.141300
C311	C31	0.481900	0.802200	0.246300
C321	C32	0.316700	0.526800	0.257900
C331	C33	0.892000	0.605700	0.198100
C341	C34	0.823500	0.612000	0.159800
C351	C35	0.809100	0.560900	0.107800
H131	H13	0.763700	0.562700	0.083300
C361	C36	0.861100	0.507200	0.091900
H141	H14	0.851500	0.476400	0.056100
C371	C37	0.928200	0.499800	0.130100
H151	H15	0.963000	0.463300	0.119700
C381	C38	0.943300	0.545700	0.182800
C391	C39	0.913500	0.662000	0.252600
C401	C40	0.964700	0.734600	0.256000
C411	C41	0.994300	0.779300	0.308800
H161	H16	0.030500	0.823800	0.311400
C421	C42	0.970300	0.758200	0.357200
H171	H17	0.990500	0.788000	0.392400
C431	C43	0.916300	0.692800	0.353200
H181	H18	0.898400	0.681200	0.385400
C441	C44	0.887900	0.643500	0.300900
C451	C45	0.765700	0.673600	0.172700
C461	C46	0.014800	0.524700	0.224700
C471	C47	0.984200	0.771900	0.202400
C481	C48	0.831300	0.567300	0.298800
O11	O1	0.624100	0.456300	0.412380
O21	O2	0.562100	0.365700	0.458540
O31	O3	0.934700	0.408500	0.562810
O41	O4	0.874400	0.513800	0.599270
O51	O5	0.888100	0.526600	0.434120
O61	O6	0.789900	0.438600	0.407970
O71	O7	0.606900	0.543600	0.554180
O81	O8	0.701500	0.549600	0.628200
O91	O9	0.528200	0.566700	0.301130
O101	O10	0.603700	0.585100	0.245690
O111	O11	0.239800	0.630400	0.111100
O121	O12	0.286400	0.749000	0.169300
O131	O13	0.451500	0.853800	0.204800
O141	O14	0.547000	0.794500	0.263600
O151	O15	0.350700	0.451900	0.258470
O161	O16	0.248900	0.533000	0.240160
O171	O17	0.780900	0.752300	0.197030
O181	O18	0.703900	0.640300	0.157300
O191	O19	0.068700	0.523000	0.204090
O201	O20	0.017600	0.505400	0.276300
O211	O21	0.048300	0.776100	0.202420
O221	O22	0.935000	0.803400	0.162110
O231	O23	0.848600	0.482000	0.296600
O241	O24	0.770300	0.596300	0.300300
O251	O25	0.411500	0.259400	0.353600
H191	H19	0.387300	0.250600	0.378400
H201	H20	0.444200	0.217600	0.358700
O261	O26	0.146600	0.639600	0.305700
H211	H21	0.174700	0.662900	0.326700
H221	H22	0.106600	0.656300	0.310800
O271	O27	0.117600	0.803300	0.097320
H231	H23	0.146200	0.850400	0.103800
H241	H24	0.119300	0.776500	0.065500
Ba71	Ba7	0.317630	0.251790	0.229670
Ba81	Ba8	0.164100	0.428120	0.305920
Ba91	Ba9	0.319890	0.938850	0.184870
Ba101	Ba10	0.531530	0.947960	0.138110
Ba111	Ba11	0.843770	0.171450	0.313420
Ba121	Ba12	0.022100	0.943190	0.126600
C491	C49	0.252900	0.925900	0.985500
C501	C50	0.312800	0.868200	0.004500
C511	C51	0.310600	0.773000	0.989600
H251	H25	0.351700	0.736200	0.000000
C521	C52	0.247800	0.731300	0.959000
H261	H26	0.246300	0.666700	0.949300
C531	C53	0.187700	0.786500	0.943200
H271	H27	0.144800	0.757700	0.925100
C541	C54	0.189800	0.882800	0.953700
C551	C55	0.252000	0.031700	0.995800
C561	C56	0.210900	0.071700	0.030400
C571	C57	0.202800	0.169600	0.032400
H281	H28	0.173900	0.195300	0.054500
C581	C58	0.236900	0.230300	0.002200
H291	H29	0.231600	0.296300	0.004500
C591	C59	0.278200	0.193100	0.969100
H301	H30	0.301500	0.233800	0.949000
C601	C60	0.285700	0.094900	0.965300
C611	C61	0.380500	0.900000	0.047200
C621	C62	0.122500	0.940000	0.929600
C631	C63	0.175000	0.008900	0.064800
C641	C64	0.329300	0.058700	0.925500
C651	C65	0.584600	0.126200	0.301400
C661	C66	0.518100	0.087500	0.301400
C671	C67	0.504100	0.054900	0.352900
H311	H31	0.459400	0.030600	0.352300
C681	C68	0.555400	0.058100	0.404500
H321	H32	0.546100	0.035000	0.438600
C691	C69	0.621200	0.096300	0.404900
H331	H33	0.656100	0.098000	0.439600
C701	C70	0.636400	0.131900	0.355100
C711	C71	0.598400	0.163900	0.246500
C721	C72	0.564000	0.247400	0.222600
C731	C73	0.572800	0.281100	0.169400
H341	H34	0.547700	0.334600	0.152100
C741	C74	0.618100	0.235700	0.142800
H351	H35	0.623700	0.258700	0.107500
C751	C75	0.655400	0.156800	0.167200
H361	H36	0.688000	0.128800	0.149600
C761	C76	0.644700	0.117600	0.219000
C771	C77	0.458400	0.079600	0.247000
C781	C78	0.708200	0.174700	0.358700
C791	C79	0.518100	0.302200	0.253700
C801	C80	0.683300	0.026800	0.242100
C811	C81	0.108000	0.105700	0.301900
C821	C82	0.176500	0.112000	0.340200
C831	C83	0.190900	0.060900	0.392200
H371	H37	0.236300	0.062700	0.416700
C841	C84	0.138900	0.007200	0.408100
H381	H38	0.148500	0.976400	0.443900
C851	C85	0.071800	0.999800	0.369900
H391	H39	0.037000	0.963300	0.380300
C861	C86	0.056700	0.045700	0.317200
C871	C87	0.086500	0.162000	0.247400
C881	C88	0.035300	0.234600	0.244000
C891	C89	0.005700	0.279300	0.191200
H401	H40	0.969500	0.323800	0.188600
C901	C90	0.029700	0.258200	0.142800
H411	H41	0.009500	0.288000	0.107600
C911	C91	0.083700	0.192800	0.146800
H421	H42	0.101600	0.181200	0.114600
C921	C92	0.112100	0.143500	0.199100
C931	C93	0.234300	0.173600	0.327300
C941	C94	0.985200	0.024700	0.275300
C951	C95	0.015800	0.271900	0.297600
C961	C96	0.168700	0.067300	0.201200
O281	O28	0.375900	0.956300	0.087620
O291	O29	0.437900	0.865700	0.041460
O301	O30	0.065300	0.908500	0.937190
O311	O31	0.125600	0.013800	0.900730
O321	O32	0.111900	0.026600	0.065880
O331	O33	0.210100	0.938600	0.092030
O341	O34	0.393100	0.043600	0.945820
O351	O35	0.298500	0.049600	0.871800
O361	O36	0.471800	0.066700	0.198870
O371	O37	0.396300	0.085100	0.254310
O381	O38	0.760200	0.130400	0.388900
O391	O39	0.713600	0.249000	0.330700
O401	O40	0.548500	0.353800	0.295200
O411	O41	0.453000	0.294500	0.236400
O421	O42	0.649300	0.951900	0.241530
O431	O43	0.751100	0.033000	0.259840
O441	O44	0.219100	0.252300	0.302970
O451	O45	0.296100	0.140300	0.342700
O461	O46	0.931300	0.023000	0.295910
O471	O47	0.982400	0.005400	0.223700
O481	O48	0.951700	0.276100	0.297580
O491	O49	0.065000	0.303400	0.337890
O501	O50	0.151400	0.982000	0.203400
O511	O51	0.229700	0.096300	0.199700
O521	O52	0.588500	0.759400	0.146400
H431	H43	0.612700	0.750600	0.121600
H441	H44	0.555800	0.717600	0.141300
O531	O53	0.853400	0.139600	0.194300
H451	H45	0.825300	0.162900	0.173300
H461	H46	0.893400	0.156300	0.189200
O541	O54	0.882400	0.303300	0.402680
H471	H47	0.853800	0.350400	0.396200
H481	H48	0.880700	0.276500	0.434500
Ba131	Ba13	0.317630	0.248210	0.729670
Ba141	Ba14	0.164100	0.071880	0.805920
Ba151	Ba15	0.319890	0.561150	0.684870
Ba161	Ba16	0.531530	0.552040	0.638110
Ba171	Ba17	0.843770	0.328550	0.813420
Ba181	Ba18	0.022100	0.556810	0.626600
C971	C97	0.252900	0.574100	0.485500
C981	C98	0.312800	0.631800	0.504500
C991	C99	0.310600	0.727000	0.489600
H491	H49	0.351700	0.763800	0.500000
C1001	C100	0.247800	0.768700	0.459000
H501	H50	0.246300	0.833300	0.449300
C1011	C101	0.187700	0.713500	0.443200
H511	H51	0.144800	0.742300	0.425100
C1021	C102	0.189800	0.617200	0.453700
C1031	C103	0.252000	0.468300	0.495800
C1041	C104	0.210900	0.428300	0.530400
C1051	C105	0.202800	0.330400	0.532400
H521	H52	0.173900	0.304700	0.554500
C1061	C106	0.236900	0.269700	0.502200
H531	H53	0.231600	0.203700	0.504500
C1071	C107	0.278200	0.306900	0.469100
H541	H54	0.301500	0.266200	0.449000
C1081	C108	0.285700	0.405100	0.465300
C1091	C109	0.380500	0.600000	0.547200
C1101	C110	0.122500	0.560000	0.429600
C1111	C111	0.175000	0.491100	0.564800
C1121	C112	0.329300	0.441300	0.425500
C1131	C113	0.584600	0.373800	0.801400
C1141	C114	0.518100	0.412500	0.801400
C1151	C115	0.504100	0.445100	0.852900
H551	H55	0.459400	0.469400	0.852300
C1161	C116	0.555400	0.441900	0.904500
H561	H56	0.546100	0.465000	0.938600
C1171	C117	0.621200	0.403700	0.904900
H571	H57	0.656100	0.402000	0.939600
C1181	C118	0.636400	0.368100	0.855100
C1191	C119	0.598400	0.336100	0.746500
C1201	C120	0.564000	0.252600	0.722600
C1211	C121	0.572800	0.218900	0.669400
H581	H58	0.547700	0.165400	0.652100
C1221	C122	0.618100	0.264300	0.642800
H591	H59	0.623700	0.241300	0.607500
C1231	C123	0.655400	0.343200	0.667200
H601	H60	0.688000	0.371200	0.649600
C1241	C124	0.644700	0.382400	0.719000
C1251	C125	0.458400	0.420400	0.747000
C1261	C126	0.708200	0.325300	0.858700
C1271	C127	0.518100	0.197800	0.753700
C1281	C128	0.683300	0.473200	0.742100
C1291	C129	0.108000	0.394300	0.801900
C1301	C130	0.176500	0.388000	0.840200
C1311	C131	0.190900	0.439100	0.892200
H611	H61	0.236300	0.437300	0.916700
C1321	C132	0.138900	0.492800	0.908100
H621	H62	0.148500	0.523600	0.943900
C1331	C133	0.071800	0.500200	0.869900
H631	H63	0.037000	0.536700	0.880300
C1341	C134	0.056700	0.454300	0.817200
C1351	C135	0.086500	0.338000	0.747400
C1361	C136	0.035300	0.265400	0.744000
C1371	C137	0.005700	0.220700	0.691200
H641	H64	0.969500	0.176200	0.688600
C1381	C138	0.029700	0.241800	0.642800
H651	H65	0.009500	0.212000	0.607600
C1391	C139	0.083700	0.307200	0.646800
H661	H66	0.101600	0.318800	0.614600
C1401	C140	0.112100	0.356500	0.699100
C1411	C141	0.234300	0.326400	0.827300
C1421	C142	0.985200	0.475300	0.775300
C1431	C143	0.015800	0.228100	0.797600
C1441	C144	0.168700	0.432700	0.701200
O551	O55	0.375900	0.543700	0.587620
O561	O56	0.437900	0.634300	0.541460
O571	O57	0.065300	0.591500	0.437190
O581	O58	0.125600	0.486200	0.400730
O591	O59	0.111900	0.473400	0.565880
O601	O60	0.210100	0.561400	0.592030
O611	O61	0.393100	0.456400	0.445820
O621	O62	0.298500	0.450400	0.371800
O631	O63	0.471800	0.433300	0.698870
O641	O64	0.396300	0.414900	0.754310
O651	O65	0.760200	0.369600	0.888900
O661	O66	0.713600	0.251000	0.830700
O671	O67	0.548500	0.146200	0.795200
O681	O68	0.453000	0.205500	0.736400
O691	O69	0.649300	0.548100	0.741530
O701	O70	0.751100	0.467000	0.759840
O711	O71	0.219100	0.247700	0.802970
O721	O72	0.296100	0.359700	0.842700
O731	O73	0.931300	0.477000	0.795910
O741	O74	0.982400	0.494600	0.723700
O751	O75	0.951700	0.223900	0.797580
O761	O76	0.065000	0.196600	0.837890
O771	O77	0.151400	0.518000	0.703400
O781	O78	0.229700	0.403700	0.699700
O791	O79	0.588500	0.740600	0.646400
H671	H67	0.612700	0.749400	0.621600
H681	H68	0.555800	0.782400	0.641300
O801	O80	0.853400	0.360400	0.694300
H691	H69	0.825300	0.337100	0.673300
H701	H70	0.893400	0.343700	0.689200
O811	O81	0.882400	0.196700	0.902680
H711	H71	0.853800	0.149600	0.896200
H721	H72	0.880700	0.223500	0.934500
Ba191	Ba19	0.682370	0.748210	0.770330
Ba201	Ba20	0.835900	0.571880	0.694080
Ba211	Ba21	0.680110	0.061150	0.815130
Ba221	Ba22	0.468470	0.052040	0.861890
Ba231	Ba23	0.156230	0.828550	0.686580
Ba241	Ba24	0.977900	0.056810	0.873400
C1451	C145	0.747100	0.074100	0.014500
C1461	C146	0.687200	0.131800	0.995500
C1471	C147	0.689400	0.227000	0.010400
H731	H73	0.648300	0.263800	0.000000
C1481	C148	0.752200	0.268700	0.041000
H741	H74	0.753700	0.333300	0.050700
C1491	C149	0.812300	0.213500	0.056800
H751	H75	0.855200	0.242300	0.074900
C1501	C150	0.810200	0.117200	0.046300
C1511	C151	0.748000	0.968300	0.004200
C1521	C152	0.789100	0.928300	0.969600
C1531	C153	0.797200	0.830400	0.967600
H761	H76	0.826100	0.804700	0.945500
C1541	C154	0.763100	0.769700	0.997800
H771	H77	0.768400	0.703700	0.995500
C1551	C155	0.721800	0.806900	0.030900
H781	H78	0.698500	0.766200	0.051000
C1561	C156	0.714300	0.905100	0.034700
C1571	C157	0.619500	0.100000	0.952800
C1581	C158	0.877500	0.060000	0.070400
C1591	C159	0.825000	0.991100	0.935200
C1601	C160	0.670700	0.941300	0.074500
C1611	C161	0.415400	0.873800	0.698600
C1621	C162	0.481900	0.912500	0.698600
C1631	C163	0.495900	0.945100	0.647100
H791	H79	0.540600	0.969400	0.647700
C1641	C164	0.444600	0.941900	0.595500
H801	H80	0.453900	0.965000	0.561400
C1651	C165	0.378800	0.903700	0.595100
H811	H81	0.343900	0.902000	0.560400
C1661	C166	0.363600	0.868100	0.644900
C1671	C167	0.401600	0.836100	0.753500
C1681	C168	0.436000	0.752600	0.777400
C1691	C169	0.427200	0.718900	0.830600
H821	H82	0.452300	0.665400	0.847900
C1701	C170	0.381900	0.764300	0.857200
H831	H83	0.376300	0.741300	0.892500
C1711	C171	0.344600	0.843200	0.832800
H841	H84	0.312000	0.871200	0.850400
C1721	C172	0.355300	0.882400	0.781000
C1731	C173	0.541600	0.920400	0.753000
C1741	C174	0.291800	0.825300	0.641300
C1751	C175	0.481900	0.697800	0.746300
C1761	C176	0.316700	0.973200	0.757900
C1771	C177	0.892000	0.894300	0.698100
C1781	C178	0.823500	0.888000	0.659800
C1791	C179	0.809100	0.939100	0.607800
H851	H85	0.763700	0.937300	0.583300
C1801	C180	0.861100	0.992800	0.591900
H861	H86	0.851500	0.023600	0.556100
C1811	C181	0.928200	0.000200	0.630100
H871	H87	0.963000	0.036700	0.619700
C1821	C182	0.943300	0.954300	0.682800
C1831	C183	0.913500	0.838000	0.752600
C1841	C184	0.964700	0.765400	0.756000
C1851	C185	0.994300	0.720700	0.808800
H881	H88	0.030500	0.676200	0.811400
C1861	C186	0.970300	0.741800	0.857200
H891	H89	0.990500	0.712000	0.892400
C1871	C187	0.916300	0.807200	0.853200
H901	H90	0.898400	0.818800	0.885400
C1881	C188	0.887900	0.856500	0.800900
C1891	C189	0.765700	0.826400	0.672700
C1901	C190	0.014800	0.975300	0.724700
C1911	C191	0.984200	0.728100	0.702400
C1921	C192	0.831300	0.932700	0.798800
O821	O82	0.624100	0.043700	0.912380
O831	O83	0.562100	0.134300	0.958540
O841	O84	0.934700	0.091500	0.062810
O851	O85	0.874400	0.986200	0.099270
O861	O86	0.888100	0.973400	0.934120
O871	O87	0.789900	0.061400	0.907970
O881	O88	0.606900	0.956400	0.054180
O891	O89	0.701500	0.950400	0.128200
O901	O90	0.528200	0.933300	0.801130
O911	O91	0.603700	0.914900	0.745690
O921	O92	0.239800	0.869600	0.611100
O931	O93	0.286400	0.751000	0.669300
O941	O94	0.451500	0.646200	0.704800
O951	O95	0.547000	0.705500	0.763600
O961	O96	0.350700	0.048100	0.758470
O971	O97	0.248900	0.967000	0.740160
O981	O98	0.780900	0.747700	0.697030
O991	O99	0.703900	0.859700	0.657300
O1001	O100	0.068700	0.977000	0.704090
O1011	O101	0.017600	0.994600	0.776300
O1021	O102	0.048300	0.723900	0.702420
O1031	O103	0.935000	0.696600	0.662110
O1041	O104	0.848600	0.018000	0.796600
O1051	O105	0.770300	0.903700	0.800300
O1061	O106	0.411500	0.240600	0.853600
H911	H91	0.387300	0.249400	0.878400
H921	H92	0.444200	0.282400	0.858700
O1071	O107	0.146600	0.860400	0.805700
H931	H93	0.174700	0.837100	0.826700
H941	H94	0.106600	0.843700	0.810800
O1081	O108	0.117600	0.696700	0.597320
H951	H95	0.146200	0.649600	0.603800
H961	H96	0.119300	0.723500	0.565500
