data_HOXKUB_clean_PM
_symmetry_space_group_name_H-M	'P1'
_cell_length_a	11.492000
_cell_length_b	17.326000
_cell_length_c	17.326000
_cell_angle_alpha	106.050000
_cell_angle_beta	90.000000
_cell_angle_gamma	90.000000
_symmetry_Int_Tables_number 1

loop_
_symmetry_equiv_pos_as_xyz
'x,y,z'

loop_
_atom_site_label
_atom_site_type_symbol
_atom_site_fract_x
_atom_site_fract_y
_atom_site_fract_z
Yb11	Yb1	0.393670	0.084270	0.990540
Yb21	Yb2	0.944780	0.108910	0.484990
Yb31	Yb3	0.893670	0.415730	0.509460
Yb41	Yb4	0.444780	0.391090	0.015010
Yb51	Yb5	0.606330	0.915730	0.009460
Yb61	Yb6	0.055220	0.891090	0.515010
Yb71	Yb7	0.106330	0.584270	0.490540
Yb81	Yb8	0.555220	0.608910	0.984990
H11	H1	0.462600	0.919100	0.212400
H21	H2	0.369400	0.908600	0.337100
H31	H3	0.158300	0.226400	0.663300
H41	H4	0.270800	0.297000	0.783900
H51	H5	0.621500	0.273300	0.174700
H61	H6	0.712800	0.326500	0.306300
H71	H7	0.962600	0.580900	0.287600
H81	H8	0.869400	0.591400	0.162900
H91	H9	0.658300	0.273600	0.836700
H101	H10	0.770800	0.203000	0.716100
H111	H11	0.121500	0.226700	0.325300
H121	H12	0.212800	0.173500	0.193700
H131	H13	0.537400	0.080900	0.787600
H141	H14	0.630600	0.091400	0.662900
H151	H15	0.841700	0.773600	0.336700
H161	H16	0.729200	0.703000	0.216100
H171	H17	0.378500	0.726700	0.825300
H181	H18	0.287200	0.673500	0.693700
H191	H19	0.037400	0.419100	0.712400
H201	H20	0.130600	0.408600	0.837100
H211	H21	0.341700	0.726400	0.163300
H221	H22	0.229200	0.797000	0.283900
H231	H23	0.878500	0.773300	0.674700
H241	H24	0.787200	0.826500	0.806300
C11	C1	0.356700	0.012100	0.117800
C21	C2	0.331400	0.990300	0.193700
C31	C3	0.392800	0.944300	0.231800
C41	C4	0.339300	0.938500	0.304600
C51	C5	0.239600	0.981500	0.320500
C61	C6	0.158700	0.988500	0.390700
C71	C7	0.141600	0.060200	0.613000
C81	C8	0.201300	0.120300	0.681600
C91	C9	0.197700	0.200400	0.695700
C101	C10	0.261400	0.241600	0.766400
C111	C11	0.306600	0.189300	0.805000
C121	C12	0.371800	0.211100	0.880700
C131	C13	0.638500	0.109900	0.095300
C141	C14	0.683700	0.164300	0.170800
C151	C15	0.664800	0.242400	0.200500
C161	C16	0.718900	0.273000	0.276600
C171	C17	0.779700	0.218600	0.302100
C181	C18	0.837900	0.228500	0.379700
C191	C19	0.856700	0.487900	0.382200
C201	C20	0.831400	0.509700	0.306300
C211	C21	0.892800	0.555700	0.268200
C221	C22	0.839300	0.561500	0.195400
C231	C23	0.739600	0.518500	0.179500
C241	C24	0.658700	0.511500	0.109300
C251	C25	0.641600	0.439800	0.887000
C261	C26	0.701300	0.379700	0.818400
C271	C27	0.697700	0.299600	0.804300
C281	C28	0.761400	0.258400	0.733600
C291	C29	0.806600	0.310700	0.695000
C301	C30	0.871800	0.288900	0.619300
C311	C31	0.138500	0.390100	0.404700
C321	C32	0.183700	0.335700	0.329200
C331	C33	0.164800	0.257600	0.299500
C341	C34	0.218900	0.227000	0.223400
C351	C35	0.279700	0.281400	0.197900
C361	C36	0.337900	0.271500	0.120300
C371	C37	0.643300	0.987900	0.882200
C381	C38	0.668600	0.009700	0.806300
C391	C39	0.607200	0.055700	0.768200
C401	C40	0.660700	0.061500	0.695400
C411	C41	0.760400	0.018500	0.679500
C421	C42	0.841300	0.011500	0.609300
C431	C43	0.858400	0.939800	0.387000
C441	C44	0.798700	0.879700	0.318400
C451	C45	0.802300	0.799600	0.304300
C461	C46	0.738600	0.758400	0.233600
C471	C47	0.693400	0.810700	0.195000
C481	C48	0.628200	0.788900	0.119300
C491	C49	0.361500	0.890100	0.904700
C501	C50	0.316300	0.835700	0.829200
C511	C51	0.335200	0.757600	0.799500
C521	C52	0.281100	0.727000	0.723400
C531	C53	0.220300	0.781400	0.697900
C541	C54	0.162100	0.771500	0.620300
C551	C55	0.143300	0.512100	0.617800
C561	C56	0.168600	0.490300	0.693700
C571	C57	0.107200	0.444300	0.731800
C581	C58	0.160700	0.438500	0.804600
C591	C59	0.260400	0.481500	0.820500
C601	C60	0.341300	0.488500	0.890700
C611	C61	0.358400	0.560200	0.113000
C621	C62	0.298700	0.620300	0.181600
C631	C63	0.302300	0.700400	0.195700
C641	C64	0.238600	0.741600	0.266400
C651	C65	0.193400	0.689300	0.305000
C661	C66	0.128200	0.711100	0.380700
C671	C67	0.861500	0.609900	0.595300
C681	C68	0.816300	0.664300	0.670800
C691	C69	0.835200	0.742400	0.700500
C701	C70	0.781100	0.773000	0.776600
C711	C71	0.720300	0.718600	0.802100
C721	C72	0.662100	0.728500	0.879700
S11	S1	0.210600	0.028900	0.248850
S21	S2	0.281700	0.092520	0.751640
S31	S3	0.770000	0.126440	0.233440
S41	S4	0.710600	0.471100	0.251150
S51	S5	0.781700	0.407480	0.748360
S61	S6	0.270000	0.373560	0.266560
S71	S7	0.789400	0.971100	0.751150
S81	S8	0.718300	0.907480	0.248360
S91	S9	0.230000	0.873560	0.766560
S101	S10	0.289400	0.528900	0.748850
S111	S11	0.218300	0.592520	0.251640
S121	S12	0.730000	0.626440	0.733440
O11	O1	0.286000	0.052000	0.092900
O21	O2	0.453900	0.991700	0.083400
O31	O3	0.080300	0.040900	0.395700
O41	O4	0.172300	0.943600	0.435100
O51	O5	0.165500	0.988200	0.605900
O61	O6	0.072900	0.085100	0.570500
O71	O7	0.421800	0.154900	0.902800
O81	O8	0.375800	0.282600	0.919500
O91	O9	0.560700	0.136400	0.056600
O101	O10	0.674800	0.038700	0.076500
O111	O11	0.845200	0.296100	0.426900
O121	O12	0.872100	0.167700	0.396600
O131	O13	0.786000	0.448000	0.407100
O141	O14	0.953900	0.508300	0.416600
O151	O15	0.580300	0.459100	0.104300
O161	O16	0.672300	0.556400	0.064900
O171	O17	0.665500	0.511800	0.894100
O181	O18	0.572900	0.414900	0.929500
O191	O19	0.921800	0.345100	0.597200
O201	O20	0.875800	0.217400	0.580500
O211	O21	0.060700	0.363600	0.443400
O221	O22	0.174800	0.461300	0.423500
O231	O23	0.345200	0.203900	0.073100
O241	O24	0.372100	0.332300	0.103400
O251	O25	0.714000	0.948000	0.907100
O261	O26	0.546100	0.008300	0.916600
O271	O27	0.919700	0.959100	0.604300
O281	O28	0.827700	0.056400	0.564900
O291	O29	0.834500	0.011800	0.394100
O301	O30	0.927100	0.914900	0.429500
O311	O31	0.578200	0.845100	0.097200
O321	O32	0.624200	0.717400	0.080500
O331	O33	0.439300	0.863600	0.943400
O341	O34	0.325200	0.961300	0.923500
O351	O35	0.154800	0.703900	0.573100
O361	O36	0.127900	0.832300	0.603400
O371	O37	0.214000	0.552000	0.592900
O381	O38	0.046100	0.491700	0.583400
O391	O39	0.419700	0.540900	0.895700
O401	O40	0.327700	0.443600	0.935100
O411	O41	0.334500	0.488200	0.105900
O421	O42	0.427100	0.585100	0.070500
O431	O43	0.078200	0.654900	0.402800
O441	O44	0.124200	0.782600	0.419500
O451	O45	0.939300	0.636400	0.556600
O461	O46	0.825200	0.538700	0.576500
O471	O47	0.654800	0.796100	0.926900
O481	O48	0.627900	0.667700	0.896600
