data_HOYRIY_clean_PM
_symmetry_space_group_name_H-M	'P1'
_cell_length_a	14.724600
_cell_length_b	14.724600
_cell_length_c	10.223600
_cell_angle_alpha	90.000000
_cell_angle_beta	90.000000
_cell_angle_gamma	90.000000
_symmetry_Int_Tables_number 1

loop_
_symmetry_equiv_pos_as_xyz
'x,y,z'

loop_
_atom_site_label
_atom_site_type_symbol
_atom_site_fract_x
_atom_site_fract_y
_atom_site_fract_z
Li11	Li1	0.449400	0.181900	0.363700
O11	O1	0.391310	0.117640	0.495800
O21	O2	0.341700	0.073510	0.687310
O31	O3	0.084770	0.437010	0.612370
O41	O4	0.074930	0.359310	0.799010
N11	N1	0.202230	0.313310	0.508800
H11	H1	0.188000	0.352700	0.451000
N21	N2	0.265470	0.251510	0.480600
C11	C1	0.337850	0.124550	0.589800
C21	C2	0.268250	0.197720	0.585500
C31	C3	0.206310	0.225020	0.680000
H21	H2	0.195200	0.197900	0.760600
C41	C4	0.164900	0.300760	0.628700
C51	C5	0.102060	0.370040	0.683500
Li21	Li2	0.550600	0.818100	0.363700
O51	O5	0.608690	0.882360	0.495800
O61	O6	0.658300	0.926490	0.687310
O71	O7	0.915230	0.562990	0.612370
O81	O8	0.925070	0.640690	0.799010
N31	N3	0.797770	0.686690	0.508800
H31	H3	0.812000	0.647300	0.451000
N41	N4	0.734530	0.748490	0.480600
C61	C6	0.662150	0.875450	0.589800
C71	C7	0.731750	0.802280	0.585500
C81	C8	0.793690	0.774980	0.680000
H41	H4	0.804800	0.802100	0.760600
C91	C9	0.835100	0.699240	0.628700
C101	C10	0.897940	0.629960	0.683500
Li31	Li3	0.181900	0.550600	0.636300
O91	O9	0.117640	0.608690	0.504200
O101	O10	0.073510	0.658300	0.312690
O111	O11	0.437010	0.915230	0.387630
O121	O12	0.359310	0.925070	0.200990
N51	N5	0.313310	0.797770	0.491200
H51	H5	0.352700	0.812000	0.549000
N61	N6	0.251510	0.734530	0.519400
C111	C11	0.124550	0.662150	0.410200
C121	C12	0.197720	0.731750	0.414500
C131	C13	0.225020	0.793690	0.320000
H61	H6	0.197900	0.804800	0.239400
C141	C14	0.300760	0.835100	0.371300
C151	C15	0.370040	0.897940	0.316500
Li41	Li4	0.818100	0.449400	0.636300
O131	O13	0.882360	0.391310	0.504200
O141	O14	0.926490	0.341700	0.312690
O151	O15	0.562990	0.084770	0.387630
O161	O16	0.640690	0.074930	0.200990
N71	N7	0.686690	0.202230	0.491200
H71	H7	0.647300	0.188000	0.549000
N81	N8	0.748490	0.265470	0.519400
C161	C16	0.875450	0.337850	0.410200
C171	C17	0.802280	0.268250	0.414500
C181	C18	0.774980	0.206310	0.320000
H81	H8	0.802100	0.195200	0.239400
C191	C19	0.699240	0.164900	0.371300
C201	C20	0.629960	0.102060	0.316500
Li51	Li5	0.050600	0.681900	0.136300
O171	O17	0.108690	0.617640	0.004200
O181	O18	0.158300	0.573510	0.812690
O191	O19	0.415230	0.937010	0.887630
O201	O20	0.425070	0.859310	0.700990
N91	N9	0.297770	0.813310	0.991200
H91	H9	0.312000	0.852700	0.049000
N101	N10	0.234530	0.751510	0.019400
C211	C21	0.162150	0.624550	0.910200
C221	C22	0.231750	0.697720	0.914500
C231	C23	0.293690	0.725020	0.820000
H101	H10	0.304800	0.697900	0.739400
C241	C24	0.335100	0.800760	0.871300
C251	C25	0.397940	0.870040	0.816500
Li61	Li6	0.949400	0.318100	0.136300
O211	O21	0.891310	0.382360	0.004200
O221	O22	0.841700	0.426490	0.812690
O231	O23	0.584770	0.062990	0.887630
O241	O24	0.574930	0.140690	0.700990
N111	N11	0.702230	0.186690	0.991200
H111	H11	0.688000	0.147300	0.049000
N121	N12	0.765470	0.248490	0.019400
C261	C26	0.837850	0.375450	0.910200
C271	C27	0.768250	0.302280	0.914500
C281	C28	0.706310	0.274980	0.820000
H121	H12	0.695200	0.302100	0.739400
C291	C29	0.664900	0.199240	0.871300
C301	C30	0.602060	0.129960	0.816500
Li71	Li7	0.318100	0.050600	0.863700
O251	O25	0.382360	0.108690	0.995800
O261	O26	0.426490	0.158300	0.187310
O271	O27	0.062990	0.415230	0.112370
O281	O28	0.140690	0.425070	0.299010
N131	N13	0.186690	0.297770	0.008800
H131	H13	0.147300	0.312000	0.951000
N141	N14	0.248490	0.234530	0.980600
C311	C31	0.375450	0.162150	0.089800
C321	C32	0.302280	0.231750	0.085500
C331	C33	0.274980	0.293690	0.180000
H141	H14	0.302100	0.304800	0.260600
C341	C34	0.199240	0.335100	0.128700
C351	C35	0.129960	0.397940	0.183500
Li81	Li8	0.681900	0.949400	0.863700
O291	O29	0.617640	0.891310	0.995800
O301	O30	0.573510	0.841700	0.187310
O311	O31	0.937010	0.584770	0.112370
O321	O32	0.859310	0.574930	0.299010
N151	N15	0.813310	0.702230	0.008800
H151	H15	0.852700	0.688000	0.951000
N161	N16	0.751510	0.765470	0.980600
C361	C36	0.624550	0.837850	0.089800
C371	C37	0.697720	0.768250	0.085500
C381	C38	0.725020	0.706310	0.180000
H161	H16	0.697900	0.695200	0.260600
C391	C39	0.800760	0.664900	0.128700
C401	C40	0.870040	0.602060	0.183500
Sr11	Sr1	0.500000	0.000000	0.594490
Sr21	Sr2	0.000000	0.500000	0.405510
Sr31	Sr3	0.000000	0.500000	0.905510
Sr41	Sr4	0.500000	0.000000	0.094490
