data_HOZBUV_clean_PM
_symmetry_space_group_name_H-M	'P1'
_cell_length_a	12.833100
_cell_length_b	15.626000
_cell_length_c	7.545000
_cell_angle_alpha	90.000000
_cell_angle_beta	93.225000
_cell_angle_gamma	90.000000
_symmetry_Int_Tables_number 1

loop_
_symmetry_equiv_pos_as_xyz
'x,y,z'

loop_
_atom_site_label
_atom_site_type_symbol
_atom_site_fract_x
_atom_site_fract_y
_atom_site_fract_z
O11	O1	0.168800	0.541000	0.733900
O21	O2	0.061900	0.571100	0.942000
N11	N1	0.380200	0.733000	0.891000
N21	N2	0.497500	0.622500	0.000900
C11	C1	0.221800	0.647700	0.947000
H11	H1	0.263000	0.621300	0.043900
H21	H2	0.183500	0.695000	0.995400
C21	C2	0.144800	0.582700	0.867400
N31	N3	0.624900	0.535700	0.125700
H31	H3	0.684200	0.527600	0.181800
H41	H4	0.586700	0.492700	0.093000
C31	C3	0.527800	0.774900	0.028100
N41	N4	0.655400	0.680300	0.144000
N51	N5	0.472200	0.849400	0.981600
C41	C4	0.470400	0.703300	0.977000
C51	C5	0.295200	0.682200	0.809800
H51	H5	0.324100	0.634500	0.746600
H61	H6	0.255400	0.717200	0.724000
C61	C6	0.592200	0.614600	0.089500
C71	C7	0.386800	0.819400	0.900600
H71	H7	0.334400	0.855000	0.853100
C81	C8	0.623300	0.759000	0.117400
H81	H8	0.664700	0.804500	0.158600
O31	O3	0.410100	0.991100	0.224800
O41	O4	0.831200	0.541000	0.766100
O51	O5	0.938100	0.571100	0.558000
N61	N6	0.619800	0.733000	0.609000
N71	N7	0.502500	0.622500	0.499100
C91	C9	0.778200	0.647700	0.553000
H91	H9	0.737000	0.621300	0.456100
H101	H10	0.816500	0.695000	0.504600
C101	C10	0.855200	0.582700	0.632600
N81	N8	0.375100	0.535700	0.374300
H111	H11	0.315800	0.527600	0.318200
H121	H12	0.413300	0.492700	0.407000
C111	C11	0.472200	0.774900	0.471900
N91	N9	0.344600	0.680300	0.356000
N101	N10	0.527800	0.849400	0.518400
C121	C12	0.529600	0.703300	0.523000
C131	C13	0.704800	0.682200	0.690200
H131	H13	0.675900	0.634500	0.753400
H141	H14	0.744600	0.717200	0.776000
C141	C14	0.407800	0.614600	0.410500
C151	C15	0.613200	0.819400	0.599400
H151	H15	0.665600	0.855000	0.646900
C161	C16	0.376700	0.759000	0.382600
H161	H16	0.335300	0.804500	0.341400
O61	O6	0.589900	0.991100	0.275200
O71	O7	0.831200	0.459000	0.266100
O81	O8	0.938100	0.428900	0.058000
N111	N11	0.619800	0.267000	0.109000
N121	N12	0.502500	0.377500	0.999100
C171	C17	0.778200	0.352300	0.053000
H171	H17	0.737000	0.378700	0.956100
H181	H18	0.816500	0.305000	0.004600
C181	C18	0.855200	0.417300	0.132600
N131	N13	0.375100	0.464300	0.874300
H191	H19	0.315800	0.472400	0.818200
H201	H20	0.413300	0.507300	0.907000
C191	C19	0.472200	0.225100	0.971900
N141	N14	0.344600	0.319700	0.856000
N151	N15	0.527800	0.150600	0.018400
C201	C20	0.529600	0.296700	0.023000
C211	C21	0.704800	0.317800	0.190200
H211	H21	0.675900	0.365500	0.253400
H221	H22	0.744600	0.282800	0.276000
C221	C22	0.407800	0.385400	0.910500
C231	C23	0.613200	0.180600	0.099400
H231	H23	0.665600	0.145000	0.146900
C241	C24	0.376700	0.241000	0.882600
H241	H24	0.335300	0.195500	0.841400
O91	O9	0.589900	0.008900	0.775200
O101	O10	0.168800	0.459000	0.233900
O111	O11	0.061900	0.428900	0.442000
N161	N16	0.380200	0.267000	0.391000
N171	N17	0.497500	0.377500	0.500900
C251	C25	0.221800	0.352300	0.447000
H251	H25	0.263000	0.378700	0.543900
H261	H26	0.183500	0.305000	0.495400
C261	C26	0.144800	0.417300	0.367400
N181	N18	0.624900	0.464300	0.625700
H271	H27	0.684200	0.472400	0.681800
H281	H28	0.586700	0.507300	0.593000
C271	C27	0.527800	0.225100	0.528100
N191	N19	0.655400	0.319700	0.644000
N201	N20	0.472200	0.150600	0.481600
C281	C28	0.470400	0.296700	0.477000
C291	C29	0.295200	0.317800	0.309800
H291	H29	0.324100	0.365500	0.246600
H301	H30	0.255400	0.282800	0.224000
C301	C30	0.592200	0.385400	0.589500
C311	C31	0.386800	0.180600	0.400600
H311	H31	0.334400	0.145000	0.353100
C321	C32	0.623300	0.241000	0.617400
H321	H32	0.664700	0.195500	0.658600
O121	O12	0.410100	0.008900	0.724800
Cd11	Cd1	0.000000	0.458890	0.750000
Cd21	Cd2	0.000000	0.541110	0.250000
Cd31	Cd3	0.500000	0.000000	0.000000
Cd41	Cd4	0.500000	0.000000	0.500000
