data_HOZFEJ_clean_PM
_symmetry_space_group_name_H-M	'P1'
_cell_length_a	4.974800
_cell_length_b	37.218900
_cell_length_c	16.024600
_cell_angle_alpha	90.000000
_cell_angle_beta	92.582000
_cell_angle_gamma	90.000000
_symmetry_Int_Tables_number 1

loop_
_symmetry_equiv_pos_as_xyz
'x,y,z'

loop_
_atom_site_label
_atom_site_type_symbol
_atom_site_fract_x
_atom_site_fract_y
_atom_site_fract_z
Li11	Li1	0.798800	0.476690	0.514400
C11	C1	0.210800	0.302740	0.777230
N11	N1	0.416200	0.312750	0.827270
C21	C2	0.542000	0.285460	0.868730
N21	N2	0.486100	0.250340	0.861440
C31	C3	0.269300	0.243840	0.811040
N31	N3	0.119300	0.268490	0.769200
N41	N4	0.071500	0.326810	0.728440
H11	H1	0.906600	0.320400	0.712800
O11	O1	0.174600	0.477570	0.544130
O21	O2	0.572900	0.476720	0.612080
C41	C4	0.343900	0.462740	0.593230
C51	C5	0.279600	0.427140	0.629980
C61	C6	0.431100	0.413480	0.697330
H21	H2	0.579700	0.426900	0.719900
C71	C7	0.369400	0.380420	0.732620
H31	H3	0.474500	0.371500	0.779100
C81	C8	0.153400	0.360560	0.699470
C91	C9	0.003100	0.374040	0.630790
H41	H4	0.855700	0.360600	0.607600
C101	C10	0.066900	0.406810	0.596300
H51	H5	0.964400	0.415500	0.549100
N51	N5	0.745600	0.297380	0.921280
H61	H6	0.763500	0.320900	0.921900
O31	O3	0.704100	0.256830	0.176210
H71	H7	0.825900	0.246000	0.204100
O41	O4	0.602400	0.201020	0.133290
C111	C11	0.558700	0.233410	0.131770
C121	C12	0.336700	0.249790	0.079560
C131	C13	0.154400	0.227850	0.034730
H81	H8	0.168700	0.202500	0.040200
C141	C14	0.953200	0.242270	0.982500
H91	H9	0.830800	0.226900	0.952500
C151	C15	0.931300	0.279550	0.974240
C161	C16	0.111500	0.301850	0.020550
H101	H10	0.095900	0.327200	0.016100
C171	C17	0.310800	0.286950	0.072340
H111	H11	0.431500	0.302200	0.103400
N61	N6	0.178800	0.209720	0.796290
H121	H12	0.031400	0.208900	0.763900
O51	O5	0.655200	0.061480	0.944960
O61	O6	0.349800	0.043270	0.848340
H131	H13	0.392300	0.022900	0.867400
C181	C18	0.485300	0.068190	0.890530
C191	C19	0.409900	0.105370	0.865750
C201	C20	0.216000	0.112150	0.804900
H141	H14	0.126900	0.092700	0.777000
C211	C21	0.147800	0.147030	0.783400
H151	H15	0.012100	0.151100	0.740800
C221	C22	0.271600	0.175840	0.821940
C231	C23	0.458500	0.169250	0.884700
H161	H16	0.541900	0.188700	0.914100
C241	C24	0.527700	0.134240	0.905900
H171	H17	0.660200	0.130200	0.949500
Li21	Li2	0.201200	0.976690	0.985600
C251	C25	0.789200	0.802740	0.722770
N71	N7	0.583800	0.812750	0.672730
C261	C26	0.458000	0.785460	0.631270
N81	N8	0.513900	0.750340	0.638560
C271	C27	0.730700	0.743840	0.688960
N91	N9	0.880700	0.768490	0.730800
N101	N10	0.928500	0.826810	0.771560
H181	H18	0.093400	0.820400	0.787200
O71	O7	0.825400	0.977570	0.955870
O81	O8	0.427100	0.976720	0.887920
C281	C28	0.656100	0.962740	0.906770
C291	C29	0.720400	0.927140	0.870020
C301	C30	0.568900	0.913480	0.802670
H191	H19	0.420300	0.926900	0.780100
C311	C31	0.630600	0.880420	0.767380
H201	H20	0.525500	0.871500	0.720900
C321	C32	0.846600	0.860560	0.800530
C331	C33	0.996900	0.874040	0.869210
H211	H21	0.144300	0.860600	0.892400
C341	C34	0.933100	0.906810	0.903700
H221	H22	0.035600	0.915500	0.950900
N111	N11	0.254400	0.797380	0.578720
H231	H23	0.236500	0.820900	0.578100
O91	O9	0.295900	0.756830	0.323790
H241	H24	0.174100	0.746000	0.295900
O101	O10	0.397600	0.701020	0.366710
C351	C35	0.441300	0.733410	0.368230
C361	C36	0.663300	0.749790	0.420440
C371	C37	0.845600	0.727850	0.465270
H251	H25	0.831300	0.702500	0.459800
C381	C38	0.046800	0.742270	0.517500
H261	H26	0.169200	0.726900	0.547500
C391	C39	0.068700	0.779550	0.525760
C401	C40	0.888500	0.801850	0.479450
H271	H27	0.904100	0.827200	0.483900
C411	C41	0.689200	0.786950	0.427660
H281	H28	0.568500	0.802200	0.396600
N121	N12	0.821200	0.709720	0.703710
H291	H29	0.968600	0.708900	0.736100
O111	O11	0.344800	0.561480	0.555040
O121	O12	0.650200	0.543270	0.651660
H301	H30	0.607700	0.522900	0.632600
C421	C42	0.514700	0.568190	0.609470
C431	C43	0.590100	0.605370	0.634250
C441	C44	0.784000	0.612150	0.695100
H311	H31	0.873100	0.592700	0.723000
C451	C45	0.852200	0.647030	0.716600
H321	H32	0.987900	0.651100	0.759200
C461	C46	0.728400	0.675840	0.678060
C471	C47	0.541500	0.669250	0.615300
H331	H33	0.458100	0.688700	0.585900
C481	C48	0.472300	0.634240	0.594100
H341	H34	0.339800	0.630200	0.550500
Li31	Li3	0.201200	0.523310	0.485600
C491	C49	0.789200	0.697260	0.222770
N131	N13	0.583800	0.687250	0.172730
C501	C50	0.458000	0.714540	0.131270
N141	N14	0.513900	0.749660	0.138560
C511	C51	0.730700	0.756160	0.188960
N151	N15	0.880700	0.731510	0.230800
N161	N16	0.928500	0.673190	0.271560
H351	H35	0.093400	0.679600	0.287200
O131	O13	0.825400	0.522430	0.455870
O141	O14	0.427100	0.523280	0.387920
C521	C52	0.656100	0.537260	0.406770
C531	C53	0.720400	0.572860	0.370020
C541	C54	0.568900	0.586520	0.302670
H361	H36	0.420300	0.573100	0.280100
C551	C55	0.630600	0.619580	0.267380
H371	H37	0.525500	0.628500	0.220900
C561	C56	0.846600	0.639440	0.300530
C571	C57	0.996900	0.625960	0.369210
H381	H38	0.144300	0.639400	0.392400
C581	C58	0.933100	0.593190	0.403700
H391	H39	0.035600	0.584500	0.450900
N171	N17	0.254400	0.702620	0.078720
H401	H40	0.236500	0.679100	0.078100
O151	O15	0.295900	0.743170	0.823790
H411	H41	0.174100	0.754000	0.795900
O161	O16	0.397600	0.798980	0.866710
C591	C59	0.441300	0.766590	0.868230
C601	C60	0.663300	0.750210	0.920440
C611	C61	0.845600	0.772150	0.965270
H421	H42	0.831300	0.797500	0.959800
C621	C62	0.046800	0.757730	0.017500
H431	H43	0.169200	0.773100	0.047500
C631	C63	0.068700	0.720450	0.025760
C641	C64	0.888500	0.698150	0.979450
H441	H44	0.904100	0.672800	0.983900
C651	C65	0.689200	0.713050	0.927660
H451	H45	0.568500	0.697800	0.896600
N181	N18	0.821200	0.790280	0.203710
H461	H46	0.968600	0.791100	0.236100
O171	O17	0.344800	0.938520	0.055040
O181	O18	0.650200	0.956730	0.151660
H471	H47	0.607700	0.977100	0.132600
C661	C66	0.514700	0.931810	0.109470
C671	C67	0.590100	0.894630	0.134250
C681	C68	0.784000	0.887850	0.195100
H481	H48	0.873100	0.907300	0.223000
C691	C69	0.852200	0.852970	0.216600
H491	H49	0.987900	0.848900	0.259200
C701	C70	0.728400	0.824160	0.178060
C711	C71	0.541500	0.830750	0.115300
H501	H50	0.458100	0.811300	0.085900
C721	C72	0.472300	0.865760	0.094100
H511	H51	0.339800	0.869800	0.050500
Li41	Li4	0.798800	0.023310	0.014400
C731	C73	0.210800	0.197260	0.277230
N191	N19	0.416200	0.187250	0.327270
C741	C74	0.542000	0.214540	0.368730
N201	N20	0.486100	0.249660	0.361440
C751	C75	0.269300	0.256160	0.311040
N211	N21	0.119300	0.231510	0.269200
N221	N22	0.071500	0.173190	0.228440
H521	H52	0.906600	0.179600	0.212800
O191	O19	0.174600	0.022430	0.044130
O201	O20	0.572900	0.023280	0.112080
C761	C76	0.343900	0.037260	0.093230
C771	C77	0.279600	0.072860	0.129980
C781	C78	0.431100	0.086520	0.197330
H531	H53	0.579700	0.073100	0.219900
C791	C79	0.369400	0.119580	0.232620
H541	H54	0.474500	0.128500	0.279100
C801	C80	0.153400	0.139440	0.199470
C811	C81	0.003100	0.125960	0.130790
H551	H55	0.855700	0.139400	0.107600
C821	C82	0.066900	0.093190	0.096300
H561	H56	0.964400	0.084500	0.049100
N231	N23	0.745600	0.202620	0.421280
H571	H57	0.763500	0.179100	0.421900
O211	O21	0.704100	0.243170	0.676210
H581	H58	0.825900	0.254000	0.704100
O221	O22	0.602400	0.298980	0.633290
C831	C83	0.558700	0.266590	0.631770
C841	C84	0.336700	0.250210	0.579560
C851	C85	0.154400	0.272150	0.534730
H591	H59	0.168700	0.297500	0.540200
C861	C86	0.953200	0.257730	0.482500
H601	H60	0.830800	0.273100	0.452500
C871	C87	0.931300	0.220450	0.474240
C881	C88	0.111500	0.198150	0.520550
H611	H61	0.095900	0.172800	0.516100
C891	C89	0.310800	0.213050	0.572340
H621	H62	0.431500	0.197800	0.603400
N241	N24	0.178800	0.290280	0.296290
H631	H63	0.031400	0.291100	0.263900
O231	O23	0.655200	0.438520	0.444960
O241	O24	0.349800	0.456730	0.348340
H641	H64	0.392300	0.477100	0.367400
C901	C90	0.485300	0.431810	0.390530
C911	C91	0.409900	0.394630	0.365750
C921	C92	0.216000	0.387850	0.304900
H651	H65	0.126900	0.407300	0.277000
C931	C93	0.147800	0.352970	0.283400
H661	H66	0.012100	0.348900	0.240800
C941	C94	0.271600	0.324160	0.321940
C951	C95	0.458500	0.330750	0.384700
H671	H67	0.541900	0.311300	0.414100
C961	C96	0.527700	0.365760	0.405900
H681	H68	0.660200	0.369800	0.449500
