data_HOZTOG_clean_PM
_symmetry_space_group_name_H-M	'P1'
_cell_length_a	26.293400
_cell_length_b	26.293400
_cell_length_c	26.293400
_cell_angle_alpha	109.471000
_cell_angle_beta	109.471000
_cell_angle_gamma	109.471000
_symmetry_Int_Tables_number 1

loop_
_symmetry_equiv_pos_as_xyz
'x,y,z'

loop_
_atom_site_label
_atom_site_type_symbol
_atom_site_fract_x
_atom_site_fract_y
_atom_site_fract_z
Cu11	Cu1	0.266800	0.327160	0.202980
Cu21	Cu2	0.624180	0.063820	0.297020
Cu31	Cu3	0.875820	0.172840	0.439640
Cu41	Cu4	0.233200	0.436180	0.060360
Cu51	Cu5	0.939640	0.875820	0.672840
Cu61	Cu6	0.560360	0.233200	0.936180
Cu71	Cu7	0.702980	0.266800	0.827160
Cu81	Cu8	0.797020	0.624180	0.563820
Cu91	Cu9	0.063820	0.797020	0.124180
Cu101	Cu10	0.327160	0.702980	0.766800
Cu111	Cu11	0.436180	0.560360	0.733200
Cu121	Cu12	0.172840	0.939640	0.375820
Cu131	Cu13	0.563820	0.124180	0.797020
Cu141	Cu14	0.827160	0.766800	0.702980
Cu151	Cu15	0.936180	0.733200	0.560360
Cu161	Cu16	0.672840	0.375820	0.939640
Cu171	Cu17	0.766800	0.202980	0.327160
Cu181	Cu18	0.124180	0.297020	0.063820
Cu191	Cu19	0.375820	0.439640	0.172840
Cu201	Cu20	0.733200	0.060360	0.436180
Cu211	Cu21	0.439640	0.672840	0.875820
Cu221	Cu22	0.060360	0.936180	0.233200
Cu231	Cu23	0.202980	0.827160	0.266800
Cu241	Cu24	0.297020	0.563820	0.624180
Cu251	Cu25	0.250000	0.286280	0.036280
Cu261	Cu26	0.750000	0.213720	0.463720
Cu271	Cu27	0.963720	0.750000	0.713720
Cu281	Cu28	0.536280	0.250000	0.786280
Cu291	Cu29	0.213720	0.963720	0.250000
Cu301	Cu30	0.286280	0.536280	0.750000
Cu311	Cu31	0.713720	0.250000	0.963720
Cu321	Cu32	0.786280	0.750000	0.536280
Cu331	Cu33	0.750000	0.036280	0.286280
Cu341	Cu34	0.250000	0.463720	0.213720
Cu351	Cu35	0.463720	0.713720	0.750000
Cu361	Cu36	0.036280	0.786280	0.250000
H11	H1	0.413000	0.423000	0.326200
H21	H2	0.243600	0.366400	0.314200
H31	H3	0.324400	0.433600	0.426600
H41	H4	0.270600	0.341000	0.944800
H51	H5	0.327300	0.230000	0.992900
H61	H6	0.365500	0.248400	0.921500
H71	H7	0.596800	0.086800	0.173800
H81	H8	0.552200	0.929400	0.185800
H91	H9	0.507000	0.897800	0.073400
H101	H10	0.896200	0.325800	0.555200
H111	H11	0.737100	0.334400	0.507100
H121	H12	0.826900	0.444000	0.578500
H131	H13	0.903200	0.077000	0.490000
H141	H14	0.947800	0.133600	0.377200
H151	H15	0.993000	0.066400	0.390800
H161	H16	0.603800	0.159000	0.429600
H171	H17	0.762900	0.270000	0.597300
H181	H18	0.673100	0.251600	0.617100
H191	H19	0.087000	0.413200	0.010000
H201	H20	0.256400	0.570600	0.122800
H211	H21	0.175600	0.602200	0.109200
H221	H22	0.229400	0.174200	0.070400
H231	H23	0.172700	0.165600	0.902700
H241	H24	0.134500	0.056000	0.882900
H251	H25	0.990000	0.903200	0.577000
H261	H26	0.877200	0.947800	0.633600
H271	H27	0.890800	0.993000	0.566400
H281	H28	0.929600	0.603800	0.659000
H291	H29	0.097300	0.762900	0.770000
H301	H30	0.117100	0.673100	0.751600
H311	H31	0.510000	0.087000	0.913200
H321	H32	0.622800	0.256400	0.070600
H331	H33	0.609200	0.175600	0.102200
H341	H34	0.570400	0.229400	0.674200
H351	H35	0.402700	0.172700	0.665600
H361	H36	0.382900	0.134500	0.556000
H371	H37	0.826200	0.413000	0.923000
H381	H38	0.814200	0.243600	0.866400
H391	H39	0.926600	0.324400	0.933600
H401	H40	0.444800	0.270600	0.841000
H411	H41	0.492900	0.327300	0.730000
H421	H42	0.421500	0.365500	0.748400
H431	H43	0.673800	0.596800	0.586800
H441	H44	0.685800	0.552200	0.429400
H451	H45	0.573400	0.507000	0.397800
H461	H46	0.055200	0.896200	0.825800
H471	H47	0.007100	0.737100	0.834400
H481	H48	0.078500	0.826900	0.944000
H491	H49	0.086800	0.673800	0.096800
H501	H50	0.929400	0.685800	0.052200
H511	H51	0.897800	0.573400	0.007000
H521	H52	0.325800	0.055200	0.396200
H531	H53	0.334400	0.007100	0.237100
H541	H54	0.444000	0.078500	0.326900
H551	H55	0.423000	0.826200	0.913000
H561	H56	0.366400	0.814200	0.743600
H571	H57	0.433600	0.926600	0.824400
H581	H58	0.341000	0.444800	0.770600
H591	H59	0.230000	0.492900	0.827300
H601	H60	0.248400	0.421500	0.865500
H611	H61	0.413200	0.510000	0.587000
H621	H62	0.570600	0.622800	0.756400
H631	H63	0.602200	0.609200	0.675600
H641	H64	0.174200	0.570400	0.729400
H651	H65	0.165600	0.402700	0.672700
H661	H66	0.056000	0.382900	0.634500
H671	H67	0.077000	0.990000	0.403200
H681	H68	0.133600	0.877200	0.447800
H691	H69	0.066400	0.890800	0.493000
H701	H70	0.159000	0.929600	0.103800
H711	H71	0.270000	0.097300	0.262900
H721	H72	0.251600	0.117100	0.173100
H731	H73	0.586800	0.096800	0.673800
H741	H74	0.429400	0.052200	0.685800
H751	H75	0.397800	0.007000	0.573400
H761	H76	0.825800	0.396200	0.055200
H771	H77	0.834400	0.237100	0.007100
H781	H78	0.944000	0.326900	0.078500
H791	H79	0.923000	0.913000	0.826200
H801	H80	0.866400	0.743600	0.814200
H811	H81	0.933600	0.824400	0.926600
H821	H82	0.841000	0.770600	0.444800
H831	H83	0.730000	0.827300	0.492900
H841	H84	0.748400	0.865500	0.421500
H851	H85	0.913200	0.587000	0.510000
H861	H86	0.070600	0.756400	0.622800
H871	H87	0.102200	0.675600	0.609200
H881	H88	0.674200	0.729400	0.570400
H891	H89	0.665600	0.672700	0.402700
H901	H90	0.556000	0.634500	0.382900
H911	H91	0.577000	0.403200	0.990000
H921	H92	0.633600	0.447800	0.877200
H931	H93	0.566400	0.493000	0.890800
H941	H94	0.659000	0.103800	0.929600
H951	H95	0.770000	0.262900	0.097300
H961	H96	0.751600	0.173100	0.117100
H971	H97	0.913000	0.326200	0.423000
H981	H98	0.743600	0.314200	0.366400
H991	H99	0.824400	0.426600	0.433600
H1001	H100	0.770600	0.944800	0.341000
H1011	H101	0.827300	0.992900	0.230000
H1021	H102	0.865500	0.921500	0.248400
H1031	H103	0.096800	0.173800	0.086800
H1041	H104	0.052200	0.185800	0.929400
H1051	H105	0.007000	0.073400	0.897800
H1061	H106	0.396200	0.555200	0.325800
H1071	H107	0.237100	0.507100	0.334400
H1081	H108	0.326900	0.578500	0.444000
H1091	H109	0.403200	0.490000	0.077000
H1101	H110	0.447800	0.377200	0.133600
H1111	H111	0.493000	0.390800	0.066400
H1121	H112	0.103800	0.429600	0.159000
H1131	H113	0.262900	0.597300	0.270000
H1141	H114	0.173100	0.617100	0.251600
H1151	H115	0.587000	0.010000	0.413200
H1161	H116	0.756400	0.122800	0.570600
H1171	H117	0.675600	0.109200	0.602200
H1181	H118	0.729400	0.070400	0.174200
H1191	H119	0.672700	0.902700	0.165600
H1201	H120	0.634500	0.882900	0.056000
H1211	H121	0.490000	0.577000	0.903200
H1221	H122	0.377200	0.633600	0.947800
H1231	H123	0.390800	0.566400	0.993000
H1241	H124	0.429600	0.659000	0.603800
H1251	H125	0.597300	0.770000	0.762900
H1261	H126	0.617100	0.751600	0.673100
H1271	H127	0.010000	0.913200	0.087000
H1281	H128	0.122800	0.070600	0.256400
H1291	H129	0.109200	0.102200	0.175600
H1301	H130	0.070400	0.674200	0.229400
H1311	H131	0.902700	0.665600	0.172700
H1321	H132	0.882900	0.556000	0.134500
H1331	H133	0.326200	0.923000	0.413000
H1341	H134	0.314200	0.866400	0.243600
H1351	H135	0.426600	0.933600	0.324400
H1361	H136	0.944800	0.841000	0.270600
H1371	H137	0.992900	0.730000	0.327300
H1381	H138	0.921500	0.748400	0.365500
H1391	H139	0.173800	0.586800	0.596800
H1401	H140	0.185800	0.429400	0.552200
H1411	H141	0.073400	0.397800	0.507000
H1421	H142	0.555200	0.825800	0.896200
H1431	H143	0.507100	0.834400	0.737100
H1441	H144	0.578500	0.944000	0.826900
W11	W1	0.250000	0.375000	0.125000
W21	W2	0.750000	0.125000	0.375000
W31	W3	0.875000	0.750000	0.625000
W41	W4	0.625000	0.250000	0.875000
W51	W5	0.125000	0.875000	0.250000
W61	W6	0.375000	0.625000	0.750000
C11	C1	0.382100	0.417500	0.337000
C21	C2	0.286300	0.385500	0.330000
C31	C3	0.331900	0.423300	0.393400
C41	C4	0.448200	0.478200	0.450400
C51	C5	0.288900	0.316600	0.947900
C61	C6	0.321200	0.254010	0.975010
C71	C7	0.342400	0.264000	0.934400
C81	C8	0.336600	0.329800	0.884800
C91	C9	0.580500	0.045100	0.163000
C101	C10	0.555500	0.956300	0.170000
C111	C11	0.529900	0.938500	0.106600
C121	C12	0.527800	0.997800	0.049600
C131	C13	0.868700	0.341000	0.552100
C141	C14	0.779000	0.346190	0.524990
C151	C15	0.829600	0.408000	0.565600
C161	C16	0.945000	0.451800	0.615200
C171	C17	0.919500	0.082500	0.464600
C181	C18	0.944500	0.114500	0.400800
C191	C19	0.970100	0.076700	0.408600
C201	C20	0.972200	0.021800	0.470000
C211	C21	0.631300	0.183400	0.472300
C221	C22	0.721000	0.245990	0.567190
C231	C23	0.670400	0.236000	0.578400
C241	C24	0.555000	0.170200	0.506800
C251	C25	0.117900	0.454900	0.035400
C261	C26	0.213700	0.543700	0.099200
C271	C27	0.168100	0.561500	0.091400
C281	C28	0.051800	0.502200	0.030000
C291	C29	0.211100	0.159000	0.027700
C301	C30	0.178800	0.153810	0.932810
C311	C31	0.157600	0.092000	0.921600
C321	C32	0.163400	0.048200	0.993200
C331	C33	0.964600	0.919500	0.582500
C341	C34	0.900800	0.944500	0.614500
C351	C35	0.908600	0.970100	0.576700
C361	C36	0.970000	0.972200	0.521800
C371	C37	0.972300	0.631300	0.683400
C381	C38	0.067190	0.721000	0.745990
C391	C39	0.078400	0.670400	0.736000
C401	C40	0.006800	0.555000	0.670200
C411	C41	0.535400	0.117900	0.954900
C421	C42	0.599200	0.213700	0.043700
C431	C43	0.591400	0.168100	0.061500
C441	C44	0.530000	0.051800	0.002200
C451	C45	0.527700	0.211100	0.659000
C461	C46	0.432810	0.178800	0.653810
C471	C47	0.421600	0.157600	0.592000
C481	C48	0.493200	0.163400	0.548200
C491	C49	0.837000	0.382100	0.917500
C501	C50	0.830000	0.286300	0.885500
C511	C51	0.893400	0.331900	0.923300
C521	C52	0.950400	0.448200	0.978200
C531	C53	0.447900	0.288900	0.816600
C541	C54	0.475010	0.321200	0.754010
C551	C55	0.434400	0.342400	0.764000
C561	C56	0.384800	0.336600	0.829800
C571	C57	0.663000	0.580500	0.545100
C581	C58	0.670000	0.555500	0.456300
C591	C59	0.606600	0.529900	0.438500
C601	C60	0.549600	0.527800	0.497800
C611	C61	0.052100	0.868700	0.841000
C621	C62	0.024990	0.779000	0.846190
C631	C63	0.065600	0.829600	0.908000
C641	C64	0.115200	0.945000	0.951800
C651	C65	0.045100	0.663000	0.080500
C661	C66	0.956300	0.670000	0.055500
C671	C67	0.938500	0.606600	0.029900
C681	C68	0.997800	0.549600	0.027800
C691	C69	0.341000	0.052100	0.368700
C701	C70	0.346190	0.024990	0.279000
C711	C71	0.408000	0.065600	0.329600
C721	C72	0.451800	0.115200	0.445000
C731	C73	0.417500	0.837000	0.882100
C741	C74	0.385500	0.830000	0.786300
C751	C75	0.423300	0.893400	0.831900
C761	C76	0.478200	0.950400	0.948200
C771	C77	0.316600	0.447900	0.788900
C781	C78	0.254010	0.475010	0.821200
C791	C79	0.264000	0.434400	0.842400
C801	C80	0.329800	0.384800	0.836600
C811	C81	0.454900	0.535400	0.617900
C821	C82	0.543700	0.599200	0.713700
C831	C83	0.561500	0.591400	0.668100
C841	C84	0.502200	0.530000	0.551800
C851	C85	0.159000	0.527700	0.711100
C861	C86	0.153810	0.432810	0.678800
C871	C87	0.092000	0.421600	0.657600
C881	C88	0.048200	0.493200	0.663400
C891	C89	0.082500	0.964600	0.419500
C901	C90	0.114500	0.900800	0.444500
C911	C91	0.076700	0.908600	0.470100
C921	C92	0.021800	0.970000	0.472200
C931	C93	0.183400	0.972300	0.131300
C941	C94	0.245990	0.067190	0.221000
C951	C95	0.236000	0.078400	0.170400
C961	C96	0.170200	0.006800	0.055000
C971	C97	0.545100	0.080500	0.663000
C981	C98	0.456300	0.055500	0.670000
C991	C99	0.438500	0.029900	0.606600
C1001	C100	0.497800	0.027800	0.549600
C1011	C101	0.841000	0.368700	0.052100
C1021	C102	0.846190	0.279000	0.024990
C1031	C103	0.908000	0.329600	0.065600
C1041	C104	0.951800	0.445000	0.115200
C1051	C105	0.917500	0.882100	0.837000
C1061	C106	0.885500	0.786300	0.830000
C1071	C107	0.923300	0.831900	0.893400
C1081	C108	0.978200	0.948200	0.950400
C1091	C109	0.816600	0.788900	0.447900
C1101	C110	0.754010	0.821200	0.475010
C1111	C111	0.764000	0.842400	0.434400
C1121	C112	0.829800	0.836600	0.384800
C1131	C113	0.954900	0.617900	0.535400
C1141	C114	0.043700	0.713700	0.599200
C1151	C115	0.061500	0.668100	0.591400
C1161	C116	0.002200	0.551800	0.530000
C1171	C117	0.659000	0.711100	0.527700
C1181	C118	0.653810	0.678800	0.432810
C1191	C119	0.592000	0.657600	0.421600
C1201	C120	0.548200	0.663400	0.493200
C1211	C121	0.582500	0.419500	0.964600
C1221	C122	0.614500	0.444500	0.900800
C1231	C123	0.576700	0.470100	0.908600
C1241	C124	0.521800	0.472200	0.970000
C1251	C125	0.683400	0.131300	0.972300
C1261	C126	0.745990	0.221000	0.067190
C1271	C127	0.736000	0.170400	0.078400
C1281	C128	0.670200	0.055000	0.006800
C1291	C129	0.882100	0.337000	0.417500
C1301	C130	0.786300	0.330000	0.385500
C1311	C131	0.831900	0.393400	0.423300
C1321	C132	0.948200	0.450400	0.478200
C1331	C133	0.788900	0.947900	0.316600
C1341	C134	0.821200	0.975010	0.254010
C1351	C135	0.842400	0.934400	0.264000
C1361	C136	0.836600	0.884800	0.329800
C1371	C137	0.080500	0.163000	0.045100
C1381	C138	0.055500	0.170000	0.956300
C1391	C139	0.029900	0.106600	0.938500
C1401	C140	0.027800	0.049600	0.997800
C1411	C141	0.368700	0.552100	0.341000
C1421	C142	0.279000	0.524990	0.346190
C1431	C143	0.329600	0.565600	0.408000
C1441	C144	0.445000	0.615200	0.451800
C1451	C145	0.419500	0.464600	0.082500
C1461	C146	0.444500	0.400800	0.114500
C1471	C147	0.470100	0.408600	0.076700
C1481	C148	0.472200	0.470000	0.021800
C1491	C149	0.131300	0.472300	0.183400
C1501	C150	0.221000	0.567190	0.245990
C1511	C151	0.170400	0.578400	0.236000
C1521	C152	0.055000	0.506800	0.170200
C1531	C153	0.617900	0.035400	0.454900
C1541	C154	0.713700	0.099200	0.543700
C1551	C155	0.668100	0.091400	0.561500
C1561	C156	0.551800	0.030000	0.502200
C1571	C157	0.711100	0.027700	0.159000
C1581	C158	0.678800	0.932810	0.153810
C1591	C159	0.657600	0.921600	0.092000
C1601	C160	0.663400	0.993200	0.048200
C1611	C161	0.464600	0.582500	0.919500
C1621	C162	0.400800	0.614500	0.944500
C1631	C163	0.408600	0.576700	0.970100
C1641	C164	0.470000	0.521800	0.972200
C1651	C165	0.472300	0.683400	0.631300
C1661	C166	0.567190	0.745990	0.721000
C1671	C167	0.578400	0.736000	0.670400
C1681	C168	0.506800	0.670200	0.555000
C1691	C169	0.035400	0.954900	0.117900
C1701	C170	0.099200	0.043700	0.213700
C1711	C171	0.091400	0.061500	0.168100
C1721	C172	0.030000	0.002200	0.051800
C1731	C173	0.027700	0.659000	0.211100
C1741	C174	0.932810	0.653810	0.178800
C1751	C175	0.921600	0.592000	0.157600
C1761	C176	0.993200	0.548200	0.163400
C1771	C177	0.337000	0.917500	0.382100
C1781	C178	0.330000	0.885500	0.286300
C1791	C179	0.393400	0.923300	0.331900
C1801	C180	0.450400	0.978200	0.448200
C1811	C181	0.947900	0.816600	0.288900
C1821	C182	0.975010	0.754010	0.321200
C1831	C183	0.934400	0.764000	0.342400
C1841	C184	0.884800	0.829800	0.336600
C1851	C185	0.163000	0.545100	0.580500
C1861	C186	0.170000	0.456300	0.555500
C1871	C187	0.106600	0.438500	0.529900
C1881	C188	0.049600	0.497800	0.527800
C1891	C189	0.552100	0.841000	0.868700
C1901	C190	0.524990	0.846190	0.779000
C1911	C191	0.565600	0.908000	0.829600
C1921	C192	0.615200	0.951800	0.945000
S11	S1	0.314710	0.336240	0.143210
S21	S2	0.693030	0.171500	0.356790
S31	S3	0.806970	0.163760	0.478470
S41	S4	0.185290	0.328500	0.021530
S51	S5	0.978470	0.806970	0.663760
S61	S6	0.521530	0.185290	0.828500
S71	S7	0.643210	0.314710	0.836240
S81	S8	0.856790	0.693030	0.671500
S91	S9	0.171500	0.856790	0.193030
S101	S10	0.336240	0.643210	0.814710
S111	S11	0.328500	0.521530	0.685290
S121	S12	0.163760	0.978470	0.306970
S131	S13	0.671500	0.193030	0.856790
S141	S14	0.836240	0.814710	0.643210
S151	S15	0.828500	0.685290	0.521530
S161	S16	0.663760	0.306970	0.978470
S171	S17	0.814710	0.143210	0.336240
S181	S18	0.193030	0.356790	0.171500
S191	S19	0.306970	0.478470	0.163760
S201	S20	0.685290	0.021530	0.328500
S211	S21	0.478470	0.663760	0.806970
S221	S22	0.021530	0.828500	0.185290
S231	S23	0.143210	0.836240	0.314710
S241	S24	0.356790	0.671500	0.693030
I11	I1	0.219130	0.219840	0.193030
I21	I2	0.526810	0.026100	0.306970
I31	I3	0.973190	0.280160	0.499290
I41	I4	0.280870	0.473900	0.000710
I51	I5	0.999290	0.973190	0.780160
I61	I6	0.500710	0.280870	0.973900
I71	I7	0.693030	0.219130	0.719840
I81	I8	0.806970	0.526810	0.526100
I91	I9	0.026100	0.806970	0.026810
I101	I10	0.219840	0.693030	0.719130
I111	I11	0.473900	0.500710	0.780870
I121	I12	0.280160	0.999290	0.473190
I131	I13	0.526100	0.026810	0.806970
I141	I14	0.719840	0.719130	0.693030
I151	I15	0.973900	0.780870	0.500710
I161	I16	0.780160	0.473190	0.999290
I171	I17	0.719130	0.193030	0.219840
I181	I18	0.026810	0.306970	0.026100
I191	I19	0.473190	0.499290	0.280160
I201	I20	0.780870	0.000710	0.473900
I211	I21	0.499290	0.780160	0.973190
I221	I22	0.000710	0.973900	0.280870
I231	I23	0.193030	0.719840	0.219130
I241	I24	0.306970	0.526100	0.526810
N11	N1	0.316210	0.381660	0.294530
N21	N2	0.391730	0.443080	0.398370
N31	N3	0.494980	0.491740	0.438440
N41	N4	0.289090	0.287030	0.983560
N51	N5	0.321940	0.302130	0.917130
N61	N6	0.314300	0.367600	0.874300
N71	N7	0.587130	0.021680	0.205470
N81	N8	0.544710	0.993360	0.101630
N91	N9	0.553300	0.056540	0.061560
N101	N10	0.803470	0.305530	0.516440
N111	N11	0.885000	0.404810	0.582870
N121	N12	0.993300	0.440000	0.625700
N131	N13	0.912870	0.118340	0.434550
N141	N14	0.955290	0.056920	0.448650
N151	N15	0.946700	0.008260	0.503240
N161	N16	0.696530	0.212970	0.502060
N171	N17	0.615000	0.197870	0.519810
N181	N18	0.506700	0.132400	0.446700
N191	N19	0.183790	0.478320	0.065450
N201	N20	0.108270	0.506640	0.051350
N211	N21	0.005020	0.443460	0.996760
N221	N22	0.210910	0.194470	0.997940
N231	N23	0.178060	0.095190	0.980190
N241	N24	0.185700	0.060000	0.053300
N251	N25	0.934550	0.912870	0.618340
N261	N26	0.948650	0.955290	0.556920
N271	N27	0.003240	0.946700	0.508260
N281	N28	0.002060	0.696530	0.712970
N291	N29	0.019810	0.615000	0.697870
N301	N30	0.946700	0.506700	0.632400
N311	N31	0.565450	0.183790	0.978320
N321	N32	0.551350	0.108270	0.006640
N331	N33	0.496760	0.005020	0.943460
N341	N34	0.497940	0.210910	0.694470
N351	N35	0.480190	0.178060	0.595190
N361	N36	0.553300	0.185700	0.560000
N371	N37	0.794530	0.316210	0.881660
N381	N38	0.898370	0.391730	0.943080
N391	N39	0.938440	0.494980	0.991740
N401	N40	0.483560	0.289090	0.787030
N411	N41	0.417130	0.321940	0.802130
N421	N42	0.374300	0.314300	0.867600
N431	N43	0.705470	0.587130	0.521680
N441	N44	0.601630	0.544710	0.493360
N451	N45	0.561560	0.553300	0.556540
N461	N46	0.016440	0.803470	0.805530
N471	N47	0.082870	0.885000	0.904810
N481	N48	0.125700	0.993300	0.940000
N491	N49	0.021680	0.705470	0.087130
N501	N50	0.993360	0.601630	0.044710
N511	N51	0.056540	0.561560	0.053300
N521	N52	0.305530	0.016440	0.303470
N531	N53	0.404810	0.082870	0.385000
N541	N54	0.440000	0.125700	0.493300
N551	N55	0.381660	0.794530	0.816210
N561	N56	0.443080	0.898370	0.891730
N571	N57	0.491740	0.938440	0.994980
N581	N58	0.287030	0.483560	0.789090
N591	N59	0.302130	0.417130	0.821940
N601	N60	0.367600	0.374300	0.814300
N611	N61	0.478320	0.565450	0.683790
N621	N62	0.506640	0.551350	0.608270
N631	N63	0.443460	0.496760	0.505020
N641	N64	0.194470	0.497940	0.710910
N651	N65	0.095190	0.480190	0.678060
N661	N66	0.060000	0.553300	0.685700
N671	N67	0.118340	0.934550	0.412870
N681	N68	0.056920	0.948650	0.455290
N691	N69	0.008260	0.003240	0.446700
N701	N70	0.212970	0.002060	0.196530
N711	N71	0.197870	0.019810	0.115000
N721	N72	0.132400	0.946700	0.006700
N731	N73	0.521680	0.087130	0.705470
N741	N74	0.493360	0.044710	0.601630
N751	N75	0.556540	0.053300	0.561560
N761	N76	0.805530	0.303470	0.016440
N771	N77	0.904810	0.385000	0.082870
N781	N78	0.940000	0.493300	0.125700
N791	N79	0.881660	0.816210	0.794530
N801	N80	0.943080	0.891730	0.898370
N811	N81	0.991740	0.994980	0.938440
N821	N82	0.787030	0.789090	0.483560
N831	N83	0.802130	0.821940	0.417130
N841	N84	0.867600	0.814300	0.374300
N851	N85	0.978320	0.683790	0.565450
N861	N86	0.006640	0.608270	0.551350
N871	N87	0.943460	0.505020	0.496760
N881	N88	0.694470	0.710910	0.497940
N891	N89	0.595190	0.678060	0.480190
N901	N90	0.560000	0.685700	0.553300
N911	N91	0.618340	0.412870	0.934550
N921	N92	0.556920	0.455290	0.948650
N931	N93	0.508260	0.446700	0.003240
N941	N94	0.712970	0.196530	0.002060
N951	N95	0.697870	0.115000	0.019810
N961	N96	0.632400	0.006700	0.946700
N971	N97	0.816210	0.294530	0.381660
N981	N98	0.891730	0.398370	0.443080
N991	N99	0.994980	0.438440	0.491740
N1001	N100	0.789090	0.983560	0.287030
N1011	N101	0.821940	0.917130	0.302130
N1021	N102	0.814300	0.874300	0.367600
N1031	N103	0.087130	0.205470	0.021680
N1041	N104	0.044710	0.101630	0.993360
N1051	N105	0.053300	0.061560	0.056540
N1061	N106	0.303470	0.516440	0.305530
N1071	N107	0.385000	0.582870	0.404810
N1081	N108	0.493300	0.625700	0.440000
N1091	N109	0.412870	0.434550	0.118340
N1101	N110	0.455290	0.448650	0.056920
N1111	N111	0.446700	0.503240	0.008260
N1121	N112	0.196530	0.502060	0.212970
N1131	N113	0.115000	0.519810	0.197870
N1141	N114	0.006700	0.446700	0.132400
N1151	N115	0.683790	0.065450	0.478320
N1161	N116	0.608270	0.051350	0.506640
N1171	N117	0.505020	0.996760	0.443460
N1181	N118	0.710910	0.997940	0.194470
N1191	N119	0.678060	0.980190	0.095190
N1201	N120	0.685700	0.053300	0.060000
N1211	N121	0.434550	0.618340	0.912870
N1221	N122	0.448650	0.556920	0.955290
N1231	N123	0.503240	0.508260	0.946700
N1241	N124	0.502060	0.712970	0.696530
N1251	N125	0.519810	0.697870	0.615000
N1261	N126	0.446700	0.632400	0.506700
N1271	N127	0.065450	0.978320	0.183790
N1281	N128	0.051350	0.006640	0.108270
N1291	N129	0.996760	0.943460	0.005020
N1301	N130	0.997940	0.694470	0.210910
N1311	N131	0.980190	0.595190	0.178060
N1321	N132	0.053300	0.560000	0.185700
N1331	N133	0.294530	0.881660	0.316210
N1341	N134	0.398370	0.943080	0.391730
N1351	N135	0.438440	0.991740	0.494980
N1361	N136	0.983560	0.787030	0.289090
N1371	N137	0.917130	0.802130	0.321940
N1381	N138	0.874300	0.867600	0.314300
N1391	N139	0.205470	0.521680	0.587130
N1401	N140	0.101630	0.493360	0.544710
N1411	N141	0.061560	0.556540	0.553300
N1421	N142	0.516440	0.805530	0.803470
N1431	N143	0.582870	0.904810	0.885000
N1441	N144	0.625700	0.940000	0.993300
