data_HUCXAG_clean_PM
_symmetry_space_group_name_H-M	'P1'
_cell_length_a	16.231800
_cell_length_b	8.725200
_cell_length_c	20.777300
_cell_angle_alpha	90.000000
_cell_angle_beta	94.984000
_cell_angle_gamma	90.000000
_symmetry_Int_Tables_number 1

loop_
_symmetry_equiv_pos_as_xyz
'x,y,z'

loop_
_atom_site_label
_atom_site_type_symbol
_atom_site_fract_x
_atom_site_fract_y
_atom_site_fract_z
Gd11	Gd1	0.242310	0.221080	0.712180
O11	O1	0.178800	0.299000	0.802610
O21	O2	0.125300	0.357400	0.661900
O31	O3	0.370400	0.319900	0.748490
O41	O4	0.363600	0.543100	0.799080
O51	O5	0.179800	0.536700	0.840860
O61	O6	0.211700	0.531300	0.704680
N11	N1	0.984900	0.933900	0.499500
C11	C1	0.995100	0.685600	0.546400
H11	H1	0.944200	0.663800	0.524300
C21	C2	0.109300	0.858300	0.570200
H21	H2	0.134600	0.952200	0.564300
C31	C3	0.034400	0.576600	0.587000
H31	H3	0.009800	0.481500	0.592000
C41	C4	0.402500	0.430100	0.780700
C51	C5	0.147700	0.748000	0.610000
H41	H4	0.200000	0.767600	0.630300
C61	C6	0.143700	0.415700	0.823400
C71	C7	0.031900	0.826000	0.539000
C81	C8	0.051700	0.406300	0.826900
C91	C9	0.110100	0.609200	0.620100
C101	C10	0.007200	0.290000	0.794400
H51	H5	0.035100	0.214700	0.773200
C111	C11	0.151200	0.493200	0.665700
C121	C12	0.494000	0.425600	0.797300
C131	C13	0.532600	0.538100	0.836500
H61	H6	0.501100	0.614100	0.854000
C141	C14	0.009700	0.515900	0.858700
H71	H7	0.038400	0.594200	0.881300
N21	N2	0.756500	0.459900	0.839900
C151	C15	0.540600	0.312100	0.773100
H81	H8	0.515300	0.234300	0.748000
C161	C16	0.922900	0.508400	0.856800
H91	H9	0.894400	0.581800	0.878600
C171	C17	0.663200	0.430800	0.824300
N31	N3	0.784800	0.361300	0.811300
C181	C18	0.616800	0.537900	0.849700
H101	H10	0.641900	0.612800	0.876600
C191	C19	0.880200	0.394600	0.823500
C201	C20	0.922700	0.284600	0.793100
H111	H11	0.893900	0.205300	0.771300
C211	C21	0.626400	0.313700	0.786300
H121	H12	0.658600	0.237500	0.769800
Gd21	Gd2	0.257690	0.721080	0.787820
O71	O7	0.321200	0.799000	0.697390
O81	O8	0.374700	0.857400	0.838100
O91	O9	0.129600	0.819900	0.751510
O101	O10	0.136400	0.043100	0.700920
O111	O11	0.320200	0.036700	0.659140
O121	O12	0.288300	0.031300	0.795320
N41	N4	0.515100	0.433900	0.000500
C221	C22	0.504900	0.185600	0.953600
H131	H13	0.555800	0.163800	0.975700
C231	C23	0.390700	0.358300	0.929800
H141	H14	0.365400	0.452200	0.935700
C241	C24	0.465600	0.076600	0.913000
H151	H15	0.490200	0.981500	0.908000
C251	C25	0.097500	0.930100	0.719300
C261	C26	0.352300	0.248000	0.890000
H161	H16	0.300000	0.267600	0.869700
C271	C27	0.356300	0.915700	0.676600
C281	C28	0.468100	0.326000	0.961000
C291	C29	0.448300	0.906300	0.673100
C301	C30	0.389900	0.109200	0.879900
C311	C31	0.492800	0.790000	0.705600
H171	H17	0.464900	0.714700	0.726800
C321	C32	0.348800	0.993200	0.834300
C331	C33	0.006000	0.925600	0.702700
C341	C34	0.967400	0.038100	0.663500
H181	H18	0.998900	0.114100	0.646000
C351	C35	0.490300	0.015900	0.641300
H191	H19	0.461600	0.094200	0.618700
N51	N5	0.743500	0.959900	0.660100
C361	C36	0.959400	0.812100	0.726900
H201	H20	0.984700	0.734300	0.752000
C371	C37	0.577100	0.008400	0.643200
H211	H21	0.605600	0.081800	0.621400
C381	C38	0.836800	0.930800	0.675700
N61	N6	0.715200	0.861300	0.688700
C391	C39	0.883200	0.037900	0.650300
H221	H22	0.858100	0.112800	0.623400
C401	C40	0.619800	0.894600	0.676500
C411	C41	0.577300	0.784600	0.706900
H231	H23	0.606100	0.705300	0.728700
C421	C42	0.873600	0.813700	0.713700
H241	H24	0.841400	0.737500	0.730200
Gd31	Gd3	0.757690	0.778920	0.287820
O131	O13	0.821200	0.701000	0.197390
O141	O14	0.874700	0.642600	0.338100
O151	O15	0.629600	0.680100	0.251510
O161	O16	0.636400	0.456900	0.200920
O171	O17	0.820200	0.463300	0.159140
O181	O18	0.788300	0.468700	0.295320
N71	N7	0.015100	0.066100	0.500500
C431	C43	0.004900	0.314400	0.453600
H251	H25	0.055800	0.336200	0.475700
C441	C44	0.890700	0.141700	0.429800
H261	H26	0.865400	0.047800	0.435700
C451	C45	0.965600	0.423400	0.413000
H271	H27	0.990200	0.518500	0.408000
C461	C46	0.597500	0.569900	0.219300
C471	C47	0.852300	0.252000	0.390000
H281	H28	0.800000	0.232400	0.369700
C481	C48	0.856300	0.584300	0.176600
C491	C49	0.968100	0.174000	0.461000
C501	C50	0.948300	0.593700	0.173100
C511	C51	0.889900	0.390800	0.379900
C521	C52	0.992800	0.710000	0.205600
H291	H29	0.964900	0.785300	0.226800
C531	C53	0.848800	0.506800	0.334300
C541	C54	0.506000	0.574400	0.202700
C551	C55	0.467400	0.461900	0.163500
H301	H30	0.498900	0.385900	0.146000
C561	C56	0.990300	0.484100	0.141300
H311	H31	0.961600	0.405800	0.118700
N81	N8	0.243500	0.540100	0.160100
C571	C57	0.459400	0.687900	0.226900
H321	H32	0.484700	0.765700	0.252000
C581	C58	0.077100	0.491600	0.143200
H331	H33	0.105600	0.418200	0.121400
C591	C59	0.336800	0.569200	0.175700
N91	N9	0.215200	0.638700	0.188700
C601	C60	0.383200	0.462100	0.150300
H341	H34	0.358100	0.387200	0.123400
C611	C61	0.119800	0.605400	0.176500
C621	C62	0.077300	0.715400	0.206900
H351	H35	0.106100	0.794700	0.228700
C631	C63	0.373600	0.686300	0.213700
H361	H36	0.341400	0.762500	0.230200
Gd41	Gd4	0.742310	0.278920	0.212180
O191	O19	0.678800	0.201000	0.302610
O201	O20	0.625300	0.142600	0.161900
O211	O21	0.870400	0.180100	0.248490
O221	O22	0.863600	0.956900	0.299080
O231	O23	0.679800	0.963300	0.340860
O241	O24	0.711700	0.968700	0.204680
N101	N10	0.484900	0.566100	0.999500
C641	C64	0.495100	0.814400	0.046400
H371	H37	0.444200	0.836200	0.024300
C651	C65	0.609300	0.641700	0.070200
H381	H38	0.634600	0.547800	0.064300
C661	C66	0.534400	0.923400	0.087000
H391	H39	0.509800	0.018500	0.092000
C671	C67	0.902500	0.069900	0.280700
C681	C68	0.647700	0.752000	0.110000
H401	H40	0.700000	0.732400	0.130300
C691	C69	0.643700	0.084300	0.323400
C701	C70	0.531900	0.674000	0.039000
C711	C71	0.551700	0.093700	0.326900
C721	C72	0.610100	0.890800	0.120100
C731	C73	0.507200	0.210000	0.294400
H411	H41	0.535100	0.285300	0.273200
C741	C74	0.651200	0.006800	0.165700
C751	C75	0.994000	0.074400	0.297300
C761	C76	0.032600	0.961900	0.336500
H421	H42	0.001100	0.885900	0.354000
C771	C77	0.509700	0.984100	0.358700
H431	H43	0.538400	0.905800	0.381300
N111	N11	0.256500	0.040100	0.339900
C781	C78	0.040600	0.187900	0.273100
H441	H44	0.015300	0.265700	0.248000
C791	C79	0.422900	0.991600	0.356800
H451	H45	0.394400	0.918200	0.378600
C801	C80	0.163200	0.069200	0.324300
N121	N12	0.284800	0.138700	0.311300
C811	C81	0.116800	0.962100	0.349700
H461	H46	0.141900	0.887200	0.376600
C821	C82	0.380200	0.105400	0.323500
C831	C83	0.422700	0.215400	0.293100
H471	H47	0.393900	0.294700	0.271300
C841	C84	0.126400	0.186300	0.286300
H481	H48	0.158600	0.262500	0.269800
