data_HUCXOU_clean_PM
_symmetry_space_group_name_H-M	'P1'
_cell_length_a	16.192500
_cell_length_b	8.692600
_cell_length_c	20.881500
_cell_angle_alpha	90.000000
_cell_angle_beta	94.797000
_cell_angle_gamma	90.000000
_symmetry_Int_Tables_number 1

loop_
_symmetry_equiv_pos_as_xyz
'x,y,z'

loop_
_atom_site_label
_atom_site_type_symbol
_atom_site_fract_x
_atom_site_fract_y
_atom_site_fract_z
Ho11	Ho1	0.242990	0.222760	0.712920
O11	O1	0.128700	0.359800	0.663000
O21	O2	0.367200	0.324600	0.749100
O31	O3	0.178300	0.541500	0.837900
O41	O4	0.178800	0.302100	0.800300
O51	O5	0.361900	0.548200	0.799700
O61	O6	0.213800	0.536900	0.705200
N11	N1	0.985700	0.933100	0.499100
N21	N2	0.755000	0.458800	0.841000
N31	N3	0.783900	0.360500	0.811300
C11	C1	0.153400	0.495400	0.666300
C21	C2	0.112000	0.611000	0.620500
C31	C3	0.149300	0.751800	0.610000
H11	H1	0.201400	0.773000	0.630200
C41	C4	0.110200	0.860200	0.570100
H21	H2	0.135200	0.954800	0.564000
C51	C5	0.032900	0.826500	0.539100
C61	C6	0.997000	0.684300	0.546600
H31	H3	0.946700	0.660500	0.524100
C71	C7	0.035900	0.577200	0.587800
H41	H4	0.011100	0.482300	0.593600
C81	C8	0.400000	0.434100	0.781100
C91	C9	0.491300	0.428200	0.798400
C101	C10	0.530600	0.541100	0.837500
H51	H5	0.499300	0.618500	0.854400
C111	C11	0.614700	0.539300	0.851100
H61	H6	0.639800	0.612900	0.878600
C121	C12	0.661200	0.431900	0.825200
C131	C13	0.624400	0.314200	0.787400
H71	H7	0.656900	0.237000	0.771600
C141	C14	0.538300	0.312700	0.773400
H81	H8	0.513000	0.235700	0.747700
C151	C15	0.142900	0.418400	0.821100
C161	C16	0.051400	0.407800	0.825400
C171	C17	0.008400	0.516300	0.858500
H91	H9	0.036800	0.594500	0.881300
C181	C18	0.921300	0.506700	0.857000
H101	H10	0.892500	0.578400	0.879500
C191	C19	0.879000	0.393700	0.823100
C201	C20	0.922100	0.284900	0.791700
H111	H11	0.893400	0.205600	0.769700
C211	C21	0.007200	0.291100	0.792200
H121	H12	0.035300	0.217100	0.770300
Ho21	Ho2	0.257010	0.722760	0.787080
O71	O7	0.371300	0.859800	0.837000
O81	O8	0.132800	0.824600	0.750900
O91	O9	0.321700	0.041500	0.662100
O101	O10	0.321200	0.802100	0.699700
O111	O11	0.138100	0.048200	0.700300
O121	O12	0.286200	0.036900	0.794800
N41	N4	0.514300	0.433100	0.000900
N51	N5	0.745000	0.958800	0.659000
N61	N6	0.716100	0.860500	0.688700
C221	C22	0.346600	0.995400	0.833700
C231	C23	0.388000	0.111000	0.879500
C241	C24	0.350700	0.251800	0.890000
H131	H13	0.298600	0.273000	0.869800
C251	C25	0.389800	0.360200	0.929900
H141	H14	0.364800	0.454800	0.936000
C261	C26	0.467100	0.326500	0.960900
C271	C27	0.503000	0.184300	0.953400
H151	H15	0.553300	0.160500	0.975900
C281	C28	0.464100	0.077200	0.912200
H161	H16	0.488900	0.982300	0.906400
C291	C29	0.100000	0.934100	0.718900
C301	C30	0.008700	0.928200	0.701600
C311	C31	0.969400	0.041100	0.662500
H171	H17	0.000700	0.118500	0.645600
C321	C32	0.885300	0.039300	0.648900
H181	H18	0.860200	0.112900	0.621400
C331	C33	0.838800	0.931900	0.674800
C341	C34	0.875600	0.814200	0.712600
H191	H19	0.843100	0.737000	0.728400
C351	C35	0.961700	0.812700	0.726600
H201	H20	0.987000	0.735700	0.752300
C361	C36	0.357100	0.918400	0.678900
C371	C37	0.448600	0.907800	0.674600
C381	C38	0.491600	0.016300	0.641500
H211	H21	0.463200	0.094500	0.618700
C391	C39	0.578700	0.006700	0.643000
H221	H22	0.607500	0.078400	0.620500
C401	C40	0.621000	0.893700	0.676900
C411	C41	0.577900	0.784900	0.708300
H231	H23	0.606600	0.705600	0.730300
C421	C42	0.492800	0.791100	0.707800
H241	H24	0.464700	0.717100	0.729700
Ho31	Ho3	0.757010	0.777240	0.287080
O131	O13	0.871300	0.640200	0.337000
O141	O14	0.632800	0.675400	0.250900
O151	O15	0.821700	0.458500	0.162100
O161	O16	0.821200	0.697900	0.199700
O171	O17	0.638100	0.451800	0.200300
O181	O18	0.786200	0.463100	0.294800
N71	N7	0.014300	0.066900	0.500900
N81	N8	0.245000	0.541200	0.159000
N91	N9	0.216100	0.639500	0.188700
C431	C43	0.846600	0.504600	0.333700
C441	C44	0.888000	0.389000	0.379500
C451	C45	0.850700	0.248200	0.390000
H251	H25	0.798600	0.227000	0.369800
C461	C46	0.889800	0.139800	0.429900
H261	H26	0.864800	0.045200	0.436000
C471	C47	0.967100	0.173500	0.460900
C481	C48	0.003000	0.315700	0.453400
H271	H27	0.053300	0.339500	0.475900
C491	C49	0.964100	0.422800	0.412200
H281	H28	0.988900	0.517700	0.406400
C501	C50	0.600000	0.565900	0.218900
C511	C51	0.508700	0.571800	0.201600
C521	C52	0.469400	0.458900	0.162500
H291	H29	0.500700	0.381500	0.145600
C531	C53	0.385300	0.460700	0.148900
H301	H30	0.360200	0.387100	0.121400
C541	C54	0.338800	0.568100	0.174800
C551	C55	0.375600	0.685800	0.212600
H311	H31	0.343100	0.763000	0.228400
C561	C56	0.461700	0.687300	0.226600
H321	H32	0.487000	0.764300	0.252300
C571	C57	0.857100	0.581600	0.178900
C581	C58	0.948600	0.592200	0.174600
C591	C59	0.991600	0.483700	0.141500
H331	H33	0.963200	0.405500	0.118700
C601	C60	0.078700	0.493300	0.143000
H341	H34	0.107500	0.421600	0.120500
C611	C61	0.121000	0.606300	0.176900
C621	C62	0.077900	0.715100	0.208300
H351	H35	0.106600	0.794400	0.230300
C631	C63	0.992800	0.708900	0.207800
H361	H36	0.964700	0.782900	0.229700
Ho41	Ho4	0.742990	0.277240	0.212920
O191	O19	0.628700	0.140200	0.163000
O201	O20	0.867200	0.175400	0.249100
O211	O21	0.678300	0.958500	0.337900
O221	O22	0.678800	0.197900	0.300300
O231	O23	0.861900	0.951800	0.299700
O241	O24	0.713800	0.963100	0.205200
N101	N10	0.485700	0.566900	0.999100
N111	N11	0.255000	0.041200	0.341000
N121	N12	0.283900	0.139500	0.311300
C641	C64	0.653400	0.004600	0.166300
C651	C65	0.612000	0.889000	0.120500
C661	C66	0.649300	0.748200	0.110000
H371	H37	0.701400	0.727000	0.130200
C671	C67	0.610200	0.639800	0.070100
H381	H38	0.635200	0.545200	0.064000
C681	C68	0.532900	0.673500	0.039100
C691	C69	0.497000	0.815700	0.046600
H391	H39	0.446700	0.839500	0.024100
C701	C70	0.535900	0.922800	0.087800
H401	H40	0.511100	0.017700	0.093600
C711	C71	0.900000	0.065900	0.281100
C721	C72	0.991300	0.071800	0.298400
C731	C73	0.030600	0.958900	0.337500
H411	H41	0.999300	0.881500	0.354400
C741	C74	0.114700	0.960700	0.351100
H421	H42	0.139800	0.887100	0.378600
C751	C75	0.161200	0.068100	0.325200
C761	C76	0.124400	0.185800	0.287400
H431	H43	0.156900	0.263000	0.271600
C771	C77	0.038300	0.187300	0.273400
H441	H44	0.013000	0.264300	0.247700
C781	C78	0.642900	0.081600	0.321100
C791	C79	0.551400	0.092200	0.325400
C801	C80	0.508400	0.983700	0.358500
H451	H45	0.536800	0.905500	0.381300
C811	C81	0.421300	0.993300	0.357000
H461	H46	0.392500	0.921600	0.379500
C821	C82	0.379000	0.106300	0.323100
C831	C83	0.422100	0.215100	0.291700
H471	H47	0.393400	0.294400	0.269700
C841	C84	0.507200	0.208900	0.292200
H481	H48	0.535300	0.282900	0.270300
