data_HUCXUA_clean_PM
_symmetry_space_group_name_H-M	'P1'
_cell_length_a	16.170500
_cell_length_b	8.694300
_cell_length_c	20.879700
_cell_angle_alpha	90.000000
_cell_angle_beta	94.633000
_cell_angle_gamma	90.000000
_symmetry_Int_Tables_number 1

loop_
_symmetry_equiv_pos_as_xyz
'x,y,z'

loop_
_atom_site_label
_atom_site_type_symbol
_atom_site_fract_x
_atom_site_fract_y
_atom_site_fract_z
Er11	Er1	0.243190	0.223050	0.713120
O11	O1	0.130300	0.360000	0.663400
O21	O2	0.366700	0.324400	0.749400
O31	O3	0.177700	0.542600	0.837100
O41	O4	0.178500	0.302300	0.799900
O51	O5	0.360800	0.549000	0.800300
O61	O6	0.214400	0.539700	0.705200
N11	N1	0.985700	0.933000	0.499400
N21	N2	0.753800	0.456900	0.840200
N31	N3	0.783700	0.361000	0.811800
C11	C1	0.154300	0.496900	0.666600
C21	C2	0.112800	0.611700	0.621000
C31	C3	0.150400	0.752000	0.609700
H11	H1	0.202800	0.773200	0.629500
C41	C4	0.110900	0.860500	0.569500
H21	H2	0.136100	0.954700	0.562900
C51	C5	0.033000	0.827300	0.539200
C61	C6	0.997600	0.683600	0.546800
H31	H3	0.947300	0.659400	0.524400
C71	C7	0.037100	0.576000	0.587700
H41	H4	0.013100	0.480200	0.592900
C81	C8	0.398900	0.435200	0.781100
C91	C9	0.490900	0.428400	0.798100
C101	C10	0.530300	0.540900	0.837500
H51	H5	0.498900	0.617700	0.854800
C111	C11	0.614600	0.539300	0.851000
H61	H6	0.640000	0.613800	0.877800
C121	C12	0.660100	0.431800	0.825800
C131	C13	0.623600	0.315100	0.786700
H71	H7	0.656400	0.240000	0.769600
C141	C14	0.537500	0.313000	0.773800
H81	H8	0.512000	0.234700	0.749000
C151	C15	0.143200	0.418700	0.820800
C161	C16	0.050600	0.408000	0.825300
C171	C17	0.007200	0.515900	0.858100
H91	H9	0.035600	0.594600	0.880600
C181	C18	0.921400	0.506800	0.857400
H101	H10	0.892600	0.578200	0.880200
C191	C19	0.878900	0.392600	0.823100
C201	C20	0.921100	0.284900	0.791100
H111	H11	0.892200	0.206800	0.768600
C211	C21	0.006700	0.291300	0.791900
H121	H12	0.035100	0.217300	0.770100
Er21	Er2	0.256810	0.723050	0.786880
O71	O7	0.369700	0.860000	0.836600
O81	O8	0.133300	0.824400	0.750600
O91	O9	0.322300	0.042600	0.662900
O101	O10	0.321500	0.802300	0.700100
O111	O11	0.139200	0.049000	0.699700
O121	O12	0.285600	0.039700	0.794800
N41	N4	0.514300	0.433000	0.000600
N51	N5	0.746200	0.956900	0.659800
N61	N6	0.716300	0.861000	0.688200
C221	C22	0.345700	0.996900	0.833400
C231	C23	0.387200	0.111700	0.879000
C241	C24	0.349600	0.252000	0.890300
H131	H13	0.297200	0.273200	0.870500
C251	C25	0.389100	0.360500	0.930500
H141	H14	0.363900	0.454700	0.937100
C261	C26	0.467000	0.327300	0.960800
C271	C27	0.502400	0.183600	0.953200
H151	H15	0.552700	0.159400	0.975600
C281	C28	0.462900	0.076000	0.912300
H161	H16	0.486900	0.980200	0.907100
C291	C29	0.101100	0.935200	0.718900
C301	C30	0.009100	0.928400	0.701900
C311	C31	0.969700	0.040900	0.662500
H171	H17	0.001100	0.117700	0.645200
C321	C32	0.885400	0.039300	0.649000
H181	H18	0.860000	0.113800	0.622200
C331	C33	0.839900	0.931800	0.674200
C341	C34	0.876400	0.815100	0.713300
H191	H19	0.843600	0.740000	0.730400
C351	C35	0.962500	0.813000	0.726200
H201	H20	0.988000	0.734700	0.751000
C361	C36	0.356800	0.918700	0.679200
C371	C37	0.449400	0.908000	0.674700
C381	C38	0.492800	0.015900	0.641900
H211	H21	0.464400	0.094600	0.619400
C391	C39	0.578600	0.006800	0.642600
H221	H22	0.607400	0.078200	0.619800
C401	C40	0.621100	0.892600	0.676900
C411	C41	0.578900	0.784900	0.708900
H231	H23	0.607800	0.706800	0.731400
C421	C42	0.493300	0.791300	0.708100
H241	H24	0.464900	0.717300	0.729900
Er31	Er3	0.756810	0.776950	0.286880
O131	O13	0.869700	0.640000	0.336600
O141	O14	0.633300	0.675600	0.250600
O151	O15	0.822300	0.457400	0.162900
O161	O16	0.821500	0.697700	0.200100
O171	O17	0.639200	0.451000	0.199700
O181	O18	0.785600	0.460300	0.294800
N71	N7	0.014300	0.067000	0.500600
N81	N8	0.246200	0.543100	0.159800
N91	N9	0.216300	0.639000	0.188200
C431	C43	0.845700	0.503100	0.333400
C441	C44	0.887200	0.388300	0.379000
C451	C45	0.849600	0.248000	0.390300
H251	H25	0.797200	0.226800	0.370500
C461	C46	0.889100	0.139500	0.430500
H261	H26	0.863900	0.045300	0.437100
C471	C47	0.967000	0.172700	0.460800
C481	C48	0.002400	0.316400	0.453200
H271	H27	0.052700	0.340600	0.475600
C491	C49	0.962900	0.424000	0.412300
H281	H28	0.986900	0.519800	0.407100
C501	C50	0.601100	0.564800	0.218900
C511	C51	0.509100	0.571600	0.201900
C521	C52	0.469700	0.459100	0.162500
H291	H29	0.501100	0.382300	0.145200
C531	C53	0.385400	0.460700	0.149000
H301	H30	0.360000	0.386200	0.122200
C541	C54	0.339900	0.568200	0.174200
C551	C55	0.376400	0.684900	0.213300
H311	H31	0.343600	0.760000	0.230400
C561	C56	0.462500	0.687000	0.226200
H321	H32	0.488000	0.765300	0.251000
C571	C57	0.856800	0.581300	0.179200
C581	C58	0.949400	0.592000	0.174700
C591	C59	0.992800	0.484100	0.141900
H331	H33	0.964400	0.405400	0.119400
C601	C60	0.078600	0.493200	0.142600
H341	H34	0.107400	0.421800	0.119800
C611	C61	0.121100	0.607400	0.176900
C621	C62	0.078900	0.715100	0.208900
H351	H35	0.107800	0.793200	0.231400
C631	C63	0.993300	0.708700	0.208100
H361	H36	0.964900	0.782700	0.229900
Er41	Er4	0.743190	0.276950	0.213120
O191	O19	0.630300	0.140000	0.163400
O201	O20	0.866700	0.175600	0.249400
O211	O21	0.677700	0.957400	0.337100
O221	O22	0.678500	0.197700	0.299900
O231	O23	0.860800	0.951000	0.300300
O241	O24	0.714400	0.960300	0.205200
N101	N10	0.485700	0.567000	0.999400
N111	N11	0.253800	0.043100	0.340200
N121	N12	0.283700	0.139000	0.311800
C641	C64	0.654300	0.003100	0.166600
C651	C65	0.612800	0.888300	0.121000
C661	C66	0.650400	0.748000	0.109700
H371	H37	0.702800	0.726800	0.129500
C671	C67	0.610900	0.639500	0.069500
H381	H38	0.636100	0.545300	0.062900
C681	C68	0.533000	0.672700	0.039200
C691	C69	0.497600	0.816400	0.046800
H391	H39	0.447300	0.840600	0.024400
C701	C70	0.537100	0.924000	0.087700
H401	H40	0.513100	0.019800	0.092900
C711	C71	0.898900	0.064800	0.281100
C721	C72	0.990900	0.071600	0.298100
C731	C73	0.030300	0.959100	0.337500
H411	H41	0.998900	0.882300	0.354800
C741	C74	0.114600	0.960700	0.351000
H421	H42	0.140000	0.886200	0.377800
C751	C75	0.160100	0.068200	0.325800
C761	C76	0.123600	0.184900	0.286700
H431	H43	0.156400	0.260000	0.269600
C771	C77	0.037500	0.187000	0.273800
H441	H44	0.012000	0.265300	0.249000
C781	C78	0.643200	0.081300	0.320800
C791	C79	0.550600	0.092000	0.325300
C801	C80	0.507200	0.984100	0.358100
H451	H45	0.535600	0.905400	0.380600
C811	C81	0.421400	0.993200	0.357400
H461	H46	0.392600	0.921800	0.380200
C821	C82	0.378900	0.107400	0.323100
C831	C83	0.421100	0.215100	0.291100
H471	H47	0.392200	0.293200	0.268600
C841	C84	0.506700	0.208700	0.291900
H481	H48	0.535100	0.282700	0.270100
