data_HUCXIO_clean_PM
_symmetry_space_group_name_H-M	'P1'
_cell_length_a	16.207800
_cell_length_b	8.708200
_cell_length_c	20.877500
_cell_angle_alpha	90.000000
_cell_angle_beta	94.748000
_cell_angle_gamma	90.000000
_symmetry_Int_Tables_number 1

loop_
_symmetry_equiv_pos_as_xyz
'x,y,z'

loop_
_atom_site_label
_atom_site_type_symbol
_atom_site_fract_x
_atom_site_fract_y
_atom_site_fract_z
Dy11	Dy1	0.242720	0.222250	0.712690
O11	O1	0.127600	0.358100	0.662700
O21	O2	0.367400	0.322600	0.748800
O31	O3	0.179300	0.539600	0.838900
O41	O4	0.178500	0.301500	0.801000
O51	O5	0.362100	0.547300	0.799400
O61	O6	0.212900	0.535500	0.705400
N11	N1	0.985200	0.934200	0.499500
N21	N2	0.755700	0.458000	0.841100
N31	N3	0.783800	0.360900	0.810900
C11	C1	0.152800	0.494800	0.665400
C21	C2	0.111000	0.610400	0.620500
C31	C3	0.148800	0.750900	0.609800
H11	H1	0.200800	0.771800	0.630100
C41	C4	0.110300	0.859000	0.569800
H21	H2	0.135800	0.952800	0.563400
C51	C5	0.032200	0.826400	0.538700
C61	C6	0.995500	0.682400	0.547300
H31	H3	0.944300	0.659800	0.525800
C71	C7	0.034900	0.574700	0.587200
H41	H4	0.011000	0.478700	0.592100
C81	C8	0.399900	0.433900	0.780700
C91	C9	0.492200	0.426000	0.797400
C101	C10	0.530900	0.538800	0.837100
H51	H5	0.499200	0.614600	0.854600
C111	C11	0.616500	0.538500	0.850600
H61	H6	0.642000	0.612100	0.877800
C121	C12	0.661800	0.429900	0.823800
C131	C13	0.625800	0.312500	0.786000
H71	H7	0.658000	0.235600	0.769800
C141	C14	0.538600	0.313300	0.772900
H81	H8	0.513000	0.236600	0.747400
C151	C15	0.143300	0.417300	0.822200
C161	C16	0.051600	0.407300	0.826100
C171	C17	0.009800	0.518100	0.859200
H91	H9	0.038600	0.595200	0.882400
C181	C18	0.921400	0.510000	0.856600
H101	H10	0.892200	0.583500	0.877800
C191	C19	0.879700	0.395200	0.823300
C201	C20	0.921600	0.288600	0.792600
H111	H11	0.892600	0.209900	0.770700
C211	C21	0.007900	0.293300	0.792900
H121	H12	0.035600	0.219300	0.770700
Dy21	Dy2	0.257280	0.722250	0.787310
O71	O7	0.372400	0.858100	0.837300
O81	O8	0.132600	0.822600	0.751200
O91	O9	0.320700	0.039600	0.661100
O101	O10	0.321500	0.801500	0.699000
O111	O11	0.137900	0.047300	0.700600
O121	O12	0.287100	0.035500	0.794600
N41	N4	0.514800	0.434200	0.000500
N51	N5	0.744300	0.958000	0.658900
N61	N6	0.716200	0.860900	0.689100
C221	C22	0.347200	0.994800	0.834600
C231	C23	0.389000	0.110400	0.879500
C241	C24	0.351200	0.250900	0.890200
H131	H13	0.299200	0.271800	0.869900
C251	C25	0.389700	0.359000	0.930200
H141	H14	0.364200	0.452800	0.936600
C261	C26	0.467800	0.326400	0.961300
C271	C27	0.504500	0.182400	0.952700
H151	H15	0.555700	0.159800	0.974200
C281	C28	0.465100	0.074700	0.912800
H161	H16	0.489000	0.978700	0.907900
C291	C29	0.100100	0.933900	0.719300
C301	C30	0.007800	0.926000	0.702600
C311	C31	0.969100	0.038800	0.662900
H171	H17	0.000800	0.114600	0.645400
C321	C32	0.883500	0.038500	0.649400
H181	H18	0.858000	0.112100	0.622200
C331	C33	0.838200	0.929900	0.676200
C341	C34	0.874200	0.812500	0.714000
H191	H19	0.842000	0.735600	0.730200
C351	C35	0.961400	0.813300	0.727100
H201	H20	0.987000	0.736600	0.752600
C361	C36	0.356700	0.917300	0.677800
C371	C37	0.448400	0.907300	0.673900
C381	C38	0.490200	0.018100	0.640800
H211	H21	0.461400	0.095200	0.617600
C391	C39	0.578600	0.010000	0.643400
H221	H22	0.607800	0.083500	0.622200
C401	C40	0.620300	0.895200	0.676700
C411	C41	0.578400	0.788600	0.707400
H231	H23	0.607400	0.709900	0.729300
C421	C42	0.492100	0.793300	0.707100
H241	H24	0.464400	0.719300	0.729300
Dy31	Dy3	0.757280	0.777750	0.287310
O131	O13	0.872400	0.641900	0.337300
O141	O14	0.632600	0.677400	0.251200
O151	O15	0.820700	0.460400	0.161100
O161	O16	0.821500	0.698500	0.199000
O171	O17	0.637900	0.452700	0.200600
O181	O18	0.787100	0.464500	0.294600
N71	N7	0.014800	0.065800	0.500500
N81	N8	0.244300	0.542000	0.158900
N91	N9	0.216200	0.639100	0.189100
C431	C43	0.847200	0.505200	0.334600
C441	C44	0.889000	0.389600	0.379500
C451	C45	0.851200	0.249100	0.390200
H251	H25	0.799200	0.228200	0.369900
C461	C46	0.889700	0.141000	0.430200
H261	H26	0.864200	0.047200	0.436600
C471	C47	0.967800	0.173600	0.461300
C481	C48	0.004500	0.317600	0.452700
H271	H27	0.055700	0.340200	0.474200
C491	C49	0.965100	0.425300	0.412800
H281	H28	0.989000	0.521300	0.407900
C501	C50	0.600100	0.566100	0.219300
C511	C51	0.507800	0.574000	0.202600
C521	C52	0.469100	0.461200	0.162900
H291	H29	0.500800	0.385400	0.145400
C531	C53	0.383500	0.461500	0.149400
H301	H30	0.358000	0.387900	0.122200
C541	C54	0.338200	0.570100	0.176200
C551	C55	0.374200	0.687500	0.214000
H311	H31	0.342000	0.764400	0.230200
C561	C56	0.461400	0.686700	0.227100
H321	H32	0.487000	0.763400	0.252600
C571	C57	0.856700	0.582700	0.177800
C581	C58	0.948400	0.592700	0.173900
C591	C59	0.990200	0.481900	0.140800
H331	H33	0.961400	0.404800	0.117600
C601	C60	0.078600	0.490000	0.143400
H341	H34	0.107800	0.416500	0.122200
C611	C61	0.120300	0.604800	0.176700
C621	C62	0.078400	0.711400	0.207400
H351	H35	0.107400	0.790100	0.229300
C631	C63	0.992100	0.706700	0.207100
H361	H36	0.964400	0.780700	0.229300
Dy41	Dy4	0.742720	0.277750	0.212690
O191	O19	0.627600	0.141900	0.162700
O201	O20	0.867400	0.177400	0.248800
O211	O21	0.679300	0.960400	0.338900
O221	O22	0.678500	0.198500	0.301000
O231	O23	0.862100	0.952700	0.299400
O241	O24	0.712900	0.964500	0.205400
N101	N10	0.485200	0.565800	0.999500
N111	N11	0.255700	0.042000	0.341100
N121	N12	0.283800	0.139100	0.310900
C641	C64	0.652800	0.005200	0.165400
C651	C65	0.611000	0.889600	0.120500
C661	C66	0.648800	0.749100	0.109800
H371	H37	0.700800	0.728200	0.130100
C671	C67	0.610300	0.641000	0.069800
H381	H38	0.635800	0.547200	0.063400
C681	C68	0.532200	0.673600	0.038700
C691	C69	0.495500	0.817600	0.047300
H391	H39	0.444300	0.840200	0.025800
C701	C70	0.534900	0.925300	0.087200
H401	H40	0.511000	0.021300	0.092100
C711	C71	0.899900	0.066100	0.280700
C721	C72	0.992200	0.074000	0.297400
C731	C73	0.030900	0.961200	0.337100
H411	H41	0.999200	0.885400	0.354600
C741	C74	0.116500	0.961500	0.350600
H421	H42	0.142000	0.887900	0.377800
C751	C75	0.161800	0.070100	0.323800
C761	C76	0.125800	0.187500	0.286000
H431	H43	0.158000	0.264400	0.269800
C771	C77	0.038600	0.186700	0.272900
H441	H44	0.013000	0.263400	0.247400
C781	C78	0.643300	0.082700	0.322200
C791	C79	0.551600	0.092700	0.326100
C801	C80	0.509800	0.981900	0.359200
H451	H45	0.538600	0.904800	0.382400
C811	C81	0.421400	0.990000	0.356600
H461	H46	0.392200	0.916500	0.377800
C821	C82	0.379700	0.104800	0.323300
C831	C83	0.421600	0.211400	0.292600
H471	H47	0.392600	0.290100	0.270700
C841	C84	0.507900	0.206700	0.292900
H481	H48	0.535600	0.280700	0.270700
