data_HUDWUA_clean_PM
_symmetry_space_group_name_H-M	'P1'
_cell_length_a	12.079000
_cell_length_b	12.382000
_cell_length_c	12.568000
_cell_angle_alpha	99.990000
_cell_angle_beta	96.000000
_cell_angle_gamma	91.290000
_symmetry_Int_Tables_number 1

loop_
_symmetry_equiv_pos_as_xyz
'x,y,z'

loop_
_atom_site_label
_atom_site_type_symbol
_atom_site_fract_x
_atom_site_fract_y
_atom_site_fract_z
C11	C1	0.686100	0.243800	0.521500
C21	C2	0.755900	0.347500	0.541900
C31	C3	0.791000	0.397200	0.458200
C41	C4	0.853400	0.496600	0.482900
H11	H1	0.876200	0.530000	0.426700
C51	C5	0.881300	0.545300	0.589000
H21	H2	0.921300	0.613100	0.604500
C61	C6	0.851500	0.496300	0.675800
C71	C7	0.786100	0.399600	0.651600
H31	H3	0.761500	0.368200	0.708300
C81	C8	0.881900	0.550300	0.792000
C91	C9	0.807500	0.547400	0.870000
H41	H4	0.738000	0.509900	0.849200
C101	C10	0.834400	0.599400	0.978700
C111	C11	0.935000	0.655700	0.006600
H51	H5	0.952400	0.692000	0.078800
C121	C12	0.012500	0.661800	0.933900
C131	C13	0.984000	0.606500	0.827400
H61	H6	0.036300	0.607200	0.777100
C141	C14	0.746200	0.599900	0.055200
C151	C15	0.680000	0.506600	0.050200
H71	H7	0.691400	0.442300	0.001100
C161	C16	0.595200	0.508400	0.119100
H81	H8	0.553200	0.443600	0.119200
C171	C17	0.573000	0.603200	0.186200
C181	C18	0.638800	0.697900	0.193500
C191	C19	0.724700	0.694900	0.125900
H91	H9	0.768900	0.759000	0.128400
C201	C20	0.619200	0.800900	0.267900
C211	C21	0.121200	0.722300	0.967700
C221	C22	0.172700	0.730900	0.074000
H101	H10	0.139100	0.695700	0.123600
C231	C23	0.274500	0.791500	0.107800
H111	H11	0.309200	0.793000	0.178600
C241	C24	0.323900	0.848600	0.039200
C251	C25	0.274000	0.838700	0.929600
C261	C26	0.173600	0.777800	0.898600
H121	H12	0.139700	0.774200	0.827200
C271	C27	0.323600	0.898100	0.849600
Cu11	Cu1	0.463190	0.903910	0.417470
Cu21	Cu2	0.672810	0.038330	0.353890
O11	O1	0.659700	0.198800	0.421900
O21	O2	0.656500	0.206900	0.601100
O31	O3	0.481100	0.595800	0.244000
H131	H13	0.502400	0.603800	0.310000
O41	O4	0.535800	0.796300	0.321300
O51	O5	0.680300	0.885400	0.272300
O61	O6	0.418200	0.908100	0.078100
O71	O7	0.419100	0.943000	0.872300
O81	O8	0.269000	0.898400	0.760300
O91	O9	0.767200	0.351100	0.350800
H141	H14	0.769400	0.283300	0.344000
O101	O10	0.605100	0.989100	0.474600
H151	H15	0.649600	0.949400	0.504900
C281	C28	0.313900	0.756200	0.478500
C291	C29	0.244100	0.652500	0.458100
C301	C30	0.209000	0.602800	0.541800
C311	C31	0.146600	0.503400	0.517100
H161	H16	0.123800	0.470000	0.573300
C321	C32	0.118700	0.454700	0.411000
H171	H17	0.078700	0.386900	0.395500
C331	C33	0.148500	0.503700	0.324200
C341	C34	0.213900	0.600400	0.348400
H181	H18	0.238500	0.631800	0.291700
C351	C35	0.118100	0.449700	0.208000
C361	C36	0.192500	0.452600	0.130000
H191	H19	0.262000	0.490100	0.150800
C371	C37	0.165600	0.400600	0.021300
C381	C38	0.065000	0.344300	0.993400
H201	H20	0.047600	0.308000	0.921200
C391	C39	0.987500	0.338200	0.066100
C401	C40	0.016000	0.393500	0.172600
H211	H21	0.963700	0.392800	0.222900
C411	C41	0.253800	0.400100	0.944800
C421	C42	0.320000	0.493400	0.949800
H221	H22	0.308600	0.557700	0.998900
C431	C43	0.404800	0.491600	0.880900
H231	H23	0.446800	0.556400	0.880800
C441	C44	0.427000	0.396800	0.813800
C451	C45	0.361200	0.302100	0.806500
C461	C46	0.275300	0.305100	0.874100
H241	H24	0.231100	0.241000	0.871600
C471	C47	0.380800	0.199100	0.732100
C481	C48	0.878800	0.277700	0.032300
C491	C49	0.827300	0.269100	0.926000
H251	H25	0.860900	0.304300	0.876400
C501	C50	0.725500	0.208500	0.892200
H261	H26	0.690800	0.207000	0.821400
C511	C51	0.676100	0.151400	0.960800
C521	C52	0.726000	0.161300	0.070400
C531	C53	0.826400	0.222200	0.101400
H271	H27	0.860300	0.225800	0.172800
C541	C54	0.676400	0.101900	0.150400
Cu31	Cu3	0.536810	0.096090	0.582530
Cu41	Cu4	0.327190	0.961670	0.646110
O111	O11	0.340300	0.801200	0.578100
O121	O12	0.343500	0.793100	0.398900
O131	O13	0.518900	0.404200	0.756000
H281	H28	0.497600	0.396200	0.690000
O141	O14	0.464200	0.203700	0.678700
O151	O15	0.319700	0.114600	0.727700
O161	O16	0.581800	0.091900	0.921900
O171	O17	0.580900	0.057000	0.127700
O181	O18	0.731000	0.101600	0.239700
O191	O19	0.232800	0.648900	0.649200
H291	H29	0.230600	0.716700	0.656000
O201	O20	0.394900	0.010900	0.525400
H301	H30	0.350400	0.050600	0.495100
Cu51	Cu5	0.500000	0.000000	0.000000
