data_HUFHIB_clean_PM
_symmetry_space_group_name_H-M	'P1'
_cell_length_a	29.054000
_cell_length_b	29.054000
_cell_length_c	12.663800
_cell_angle_alpha	90.000000
_cell_angle_beta	90.000000
_cell_angle_gamma	120.000000
_symmetry_Int_Tables_number 1

loop_
_symmetry_equiv_pos_as_xyz
'x,y,z'

loop_
_atom_site_label
_atom_site_type_symbol
_atom_site_fract_x
_atom_site_fract_y
_atom_site_fract_z
Ag11	Ag1	0.470700	0.070520	0.213220
N11	N1	0.444000	0.130400	0.298200
N21	N2	0.418000	0.201800	0.386500
N31	N3	0.344000	0.078200	0.951100
N41	N4	0.425600	0.079600	0.071200
C11	C1	0.443200	0.169300	0.239900
C21	C2	0.378400	0.120900	0.005800
H11	H1	0.374800	0.151600	0.004400
C31	C3	0.392500	0.037000	0.015100
H21	H2	0.396600	0.006600	0.016800
C41	C4	0.419400	0.122300	0.064700
C51	C5	0.352600	0.035900	0.954900
H31	H3	0.330300	0.004900	0.914900
C61	C6	0.415300	0.162500	0.441600
H41	H4	0.403800	0.158200	0.512900
C71	C7	0.428600	0.127700	0.399900
H51	H5	0.427100	0.100400	0.443700
C81	C8	0.430500	0.204400	0.284100
H61	H6	0.430700	0.231300	0.241200
C91	C9	0.458100	0.171300	0.126000
H71	H7	0.493900	0.175200	0.121700
H81	H8	0.459900	0.203000	0.092700
Ag21	Ag2	0.137370	0.403850	0.546550
N51	N5	0.110670	0.463730	0.631530
N61	N6	0.084670	0.535130	0.719830
N71	N7	0.010670	0.411530	0.284430
N81	N8	0.092270	0.412930	0.404530
C101	C10	0.109870	0.502630	0.573230
C111	C11	0.045070	0.454230	0.339130
H91	H9	0.041470	0.484930	0.337730
C121	C12	0.059170	0.370330	0.348430
H101	H10	0.063270	0.339930	0.350130
C131	C13	0.086070	0.455630	0.398030
C141	C14	0.019270	0.369230	0.288230
H111	H11	0.996970	0.338230	0.248230
C151	C15	0.081970	0.495830	0.774930
H121	H12	0.070470	0.491530	0.846230
C161	C16	0.095270	0.461030	0.733230
H131	H13	0.093770	0.433730	0.777030
C171	C17	0.097170	0.537730	0.617430
H141	H14	0.097370	0.564630	0.574530
C181	C18	0.124770	0.504630	0.459330
H151	H15	0.160570	0.508530	0.455030
H161	H16	0.126570	0.536330	0.426030
Ag31	Ag3	0.804030	0.737190	0.879890
N91	N9	0.777330	0.797070	0.964870
N101	N10	0.751330	0.868470	0.053170
N111	N11	0.677330	0.744870	0.617770
N121	N12	0.758930	0.746270	0.737870
C191	C19	0.776530	0.835970	0.906570
C201	C20	0.711730	0.787570	0.672470
H171	H17	0.708130	0.818270	0.671070
C211	C21	0.725830	0.703670	0.681770
H181	H18	0.729930	0.673270	0.683470
C221	C22	0.752730	0.788970	0.731370
C231	C23	0.685930	0.702570	0.621570
H191	H19	0.663630	0.671570	0.581570
C241	C24	0.748630	0.829170	0.108270
H201	H20	0.737130	0.824870	0.179570
C251	C25	0.761930	0.794370	0.066570
H211	H21	0.760430	0.767070	0.110370
C261	C26	0.763830	0.871070	0.950770
H221	H22	0.764030	0.897970	0.907870
C271	C27	0.791430	0.837970	0.792670
H231	H23	0.827230	0.841870	0.788370
H241	H24	0.793230	0.869670	0.759370
Ag41	Ag4	0.929480	0.400180	0.213220
N131	N13	0.869600	0.313600	0.298200
N141	N14	0.798200	0.216200	0.386500
N151	N15	0.921800	0.265800	0.951100
N161	N16	0.920400	0.346000	0.071200
C281	C28	0.830700	0.273900	0.239900
C291	C29	0.879100	0.257500	0.005800
H251	H25	0.848400	0.223200	0.004400
C301	C30	0.963000	0.355500	0.015100
H261	H26	0.993400	0.390000	0.016800
C311	C31	0.877700	0.297100	0.064700
C321	C32	0.964100	0.316700	0.954900
H271	H27	0.995100	0.325400	0.914900
C331	C33	0.837500	0.252800	0.441600
H281	H28	0.841800	0.245600	0.512900
C341	C34	0.872300	0.300900	0.399900
H291	H29	0.899600	0.326700	0.443700
C351	C35	0.795600	0.226100	0.284100
H301	H30	0.768700	0.199400	0.241200
C361	C36	0.828700	0.286800	0.126000
H311	H31	0.824800	0.318700	0.121700
H321	H32	0.797000	0.256900	0.092700
Ag51	Ag5	0.596150	0.733510	0.546550
N171	N17	0.536270	0.646930	0.631530
N181	N18	0.464870	0.549530	0.719830
N191	N19	0.588470	0.599130	0.284430
N201	N20	0.587070	0.679330	0.404530
C371	C37	0.497370	0.607230	0.573230
C381	C38	0.545770	0.590830	0.339130
H331	H33	0.515070	0.556530	0.337730
C391	C39	0.629670	0.688830	0.348430
H341	H34	0.660070	0.723330	0.350130
C401	C40	0.544370	0.630430	0.398030
C411	C41	0.630770	0.650030	0.288230
H351	H35	0.661770	0.658730	0.248230
C421	C42	0.504170	0.586130	0.774930
H361	H36	0.508470	0.578930	0.846230
C431	C43	0.538970	0.634230	0.733230
H371	H37	0.566270	0.660030	0.777030
C441	C44	0.462270	0.559430	0.617430
H381	H38	0.435370	0.532730	0.574530
C451	C45	0.495370	0.620130	0.459330
H391	H39	0.491470	0.652030	0.455030
H401	H40	0.463670	0.590230	0.426030
Ag61	Ag6	0.262810	0.066850	0.879890
N211	N21	0.202930	0.980270	0.964870
N221	N22	0.131530	0.882870	0.053170
N231	N23	0.255130	0.932470	0.617770
N241	N24	0.253730	0.012670	0.737870
C461	C46	0.164030	0.940570	0.906570
C471	C47	0.212430	0.924170	0.672470
H411	H41	0.181730	0.889870	0.671070
C481	C48	0.296330	0.022170	0.681770
H421	H42	0.326730	0.056670	0.683470
C491	C49	0.211030	0.963770	0.731370
C501	C50	0.297430	0.983370	0.621570
H431	H43	0.328430	0.992070	0.581570
C511	C51	0.170830	0.919470	0.108270
H441	H44	0.175130	0.912270	0.179570
C521	C52	0.205630	0.967570	0.066570
H451	H45	0.232930	0.993370	0.110370
C531	C53	0.128930	0.892770	0.950770
H461	H46	0.102030	0.866070	0.907870
C541	C54	0.162030	0.953470	0.792670
H471	H47	0.158130	0.985370	0.788370
H481	H48	0.130330	0.923570	0.759370
Ag71	Ag7	0.599820	0.529300	0.213220
N251	N25	0.686400	0.556000	0.298200
N261	N26	0.783800	0.582000	0.386500
N271	N27	0.734200	0.656000	0.951100
N281	N28	0.654000	0.574400	0.071200
C551	C55	0.726100	0.556800	0.239900
C561	C56	0.742500	0.621600	0.005800
H491	H49	0.776800	0.625200	0.004400
C571	C57	0.644500	0.607500	0.015100
H501	H50	0.610000	0.603400	0.016800
C581	C58	0.702900	0.580600	0.064700
C591	C59	0.683300	0.647400	0.954900
H511	H51	0.674600	0.669700	0.914900
C601	C60	0.747200	0.584700	0.441600
H521	H52	0.754400	0.596200	0.512900
C611	C61	0.699100	0.571400	0.399900
H531	H53	0.673300	0.572900	0.443700
C621	C62	0.773900	0.569500	0.284100
H541	H54	0.800600	0.569300	0.241200
C631	C63	0.713200	0.541900	0.126000
H551	H55	0.681300	0.506100	0.121700
H561	H56	0.743100	0.540100	0.092700
Ag81	Ag8	0.266490	0.862630	0.546550
N291	N29	0.353070	0.889330	0.631530
N301	N30	0.450470	0.915330	0.719830
N311	N31	0.400870	0.989330	0.284430
N321	N32	0.320670	0.907730	0.404530
C641	C64	0.392770	0.890130	0.573230
C651	C65	0.409170	0.954930	0.339130
H571	H57	0.443470	0.958530	0.337730
C661	C66	0.311170	0.940830	0.348430
H581	H58	0.276670	0.936730	0.350130
C671	C67	0.369570	0.913930	0.398030
C681	C68	0.349970	0.980730	0.288230
H591	H59	0.341270	0.003030	0.248230
C691	C69	0.413870	0.918030	0.774930
H601	H60	0.421070	0.929530	0.846230
C701	C70	0.365770	0.904730	0.733230
H611	H61	0.339970	0.906230	0.777030
C711	C71	0.440570	0.902830	0.617430
H621	H62	0.467270	0.902630	0.574530
C721	C72	0.379870	0.875230	0.459330
H631	H63	0.347970	0.839430	0.455030
H641	H64	0.409770	0.873430	0.426030
Ag91	Ag9	0.933150	0.195970	0.879890
N331	N33	0.019730	0.222670	0.964870
N341	N34	0.117130	0.248670	0.053170
N351	N35	0.067530	0.322670	0.617770
N361	N36	0.987330	0.241070	0.737870
C731	C73	0.059430	0.223470	0.906570
C741	C74	0.075830	0.288270	0.672470
H651	H65	0.110130	0.291870	0.671070
C751	C75	0.977830	0.274170	0.681770
H661	H66	0.943330	0.270070	0.683470
C761	C76	0.036230	0.247270	0.731370
C771	C77	0.016630	0.314070	0.621570
H671	H67	0.007930	0.336370	0.581570
C781	C78	0.080530	0.251370	0.108270
H681	H68	0.087730	0.262870	0.179570
C791	C79	0.032430	0.238070	0.066570
H691	H69	0.006630	0.239570	0.110370
C801	C80	0.107230	0.236170	0.950770
H701	H70	0.133930	0.235970	0.907870
C811	C81	0.046530	0.208570	0.792670
H711	H71	0.014630	0.172770	0.788370
H721	H72	0.076430	0.206770	0.759370
Ag101	Ag10	0.529300	0.929480	0.786780
N371	N37	0.556000	0.869600	0.701800
N381	N38	0.582000	0.798200	0.613500
N391	N39	0.656000	0.921800	0.048900
N401	N40	0.574400	0.920400	0.928800
C821	C82	0.556800	0.830700	0.760100
C831	C83	0.621600	0.879100	0.994200
H731	H73	0.625200	0.848400	0.995600
C841	C84	0.607500	0.963000	0.984900
H741	H74	0.603400	0.993400	0.983200
C851	C85	0.580600	0.877700	0.935300
C861	C86	0.647400	0.964100	0.045100
H751	H75	0.669700	0.995100	0.085100
C871	C87	0.584700	0.837500	0.558400
H761	H76	0.596200	0.841800	0.487100
C881	C88	0.571400	0.872300	0.600100
H771	H77	0.572900	0.899600	0.556300
C891	C89	0.569500	0.795600	0.715900
H781	H78	0.569300	0.768700	0.758800
C901	C90	0.541900	0.828700	0.874000
H791	H79	0.506100	0.824800	0.878300
H801	H80	0.540100	0.797000	0.907300
Ag111	Ag11	0.195970	0.262810	0.120110
N411	N41	0.222670	0.202930	0.035130
N421	N42	0.248670	0.131530	0.946830
N431	N43	0.322670	0.255130	0.382230
N441	N44	0.241070	0.253730	0.262130
C911	C91	0.223470	0.164030	0.093430
C921	C92	0.288270	0.212430	0.327530
H811	H81	0.291870	0.181730	0.328930
C931	C93	0.274170	0.296330	0.318230
H821	H82	0.270070	0.326730	0.316530
C941	C94	0.247270	0.211030	0.268630
C951	C95	0.314070	0.297430	0.378430
H831	H83	0.336370	0.328430	0.418430
C961	C96	0.251370	0.170830	0.891730
H841	H84	0.262870	0.175130	0.820430
C971	C97	0.238070	0.205630	0.933430
H851	H85	0.239570	0.232930	0.889630
C981	C98	0.236170	0.128930	0.049230
H861	H86	0.235970	0.102030	0.092130
C991	C99	0.208570	0.162030	0.207330
H871	H87	0.172770	0.158130	0.211630
H881	H88	0.206770	0.130330	0.240630
Ag121	Ag12	0.862630	0.596150	0.453450
N451	N45	0.889330	0.536270	0.368470
N461	N46	0.915330	0.464870	0.280170
N471	N47	0.989330	0.588470	0.715570
N481	N48	0.907730	0.587070	0.595470
C1001	C100	0.890130	0.497370	0.426770
C1011	C101	0.954930	0.545770	0.660870
H891	H89	0.958530	0.515070	0.662270
C1021	C102	0.940830	0.629670	0.651570
H901	H90	0.936730	0.660070	0.649870
C1031	C103	0.913930	0.544370	0.601970
C1041	C104	0.980730	0.630770	0.711770
H911	H91	0.003030	0.661770	0.751770
C1051	C105	0.918030	0.504170	0.225070
H921	H92	0.929530	0.508470	0.153770
C1061	C106	0.904730	0.538970	0.266770
H931	H93	0.906230	0.566270	0.222970
C1071	C107	0.902830	0.462270	0.382570
H941	H94	0.902630	0.435370	0.425470
C1081	C108	0.875230	0.495370	0.540670
H951	H95	0.839430	0.491470	0.544970
H961	H96	0.873430	0.463670	0.573970
Ag131	Ag13	0.070520	0.599820	0.786780
N491	N49	0.130400	0.686400	0.701800
N501	N50	0.201800	0.783800	0.613500
N511	N51	0.078200	0.734200	0.048900
N521	N52	0.079600	0.654000	0.928800
C1091	C109	0.169300	0.726100	0.760100
C1101	C110	0.120900	0.742500	0.994200
H971	H97	0.151600	0.776800	0.995600
C1111	C111	0.037000	0.644500	0.984900
H981	H98	0.006600	0.610000	0.983200
C1121	C112	0.122300	0.702900	0.935300
C1131	C113	0.035900	0.683300	0.045100
H991	H99	0.004900	0.674600	0.085100
C1141	C114	0.162500	0.747200	0.558400
H1001	H100	0.158200	0.754400	0.487100
C1151	C115	0.127700	0.699100	0.600100
H1011	H101	0.100400	0.673300	0.556300
C1161	C116	0.204400	0.773900	0.715900
H1021	H102	0.231300	0.800600	0.758800
C1171	C117	0.171300	0.713200	0.874000
H1031	H103	0.175200	0.681300	0.878300
H1041	H104	0.203000	0.743100	0.907300
Ag141	Ag14	0.737190	0.933150	0.120110
N531	N53	0.797070	0.019730	0.035130
N541	N54	0.868470	0.117130	0.946830
N551	N55	0.744870	0.067530	0.382230
N561	N56	0.746270	0.987330	0.262130
C1181	C118	0.835970	0.059430	0.093430
C1191	C119	0.787570	0.075830	0.327530
H1051	H105	0.818270	0.110130	0.328930
C1201	C120	0.703670	0.977830	0.318230
H1061	H106	0.673270	0.943330	0.316530
C1211	C121	0.788970	0.036230	0.268630
C1221	C122	0.702570	0.016630	0.378430
H1071	H107	0.671570	0.007930	0.418430
C1231	C123	0.829170	0.080530	0.891730
H1081	H108	0.824870	0.087730	0.820430
C1241	C124	0.794370	0.032430	0.933430
H1091	H109	0.767070	0.006630	0.889630
C1251	C125	0.871070	0.107230	0.049230
H1101	H110	0.897970	0.133930	0.092130
C1261	C126	0.837970	0.046530	0.207330
H1111	H111	0.841870	0.014630	0.211630
H1121	H112	0.869670	0.076430	0.240630
Ag151	Ag15	0.403850	0.266490	0.453450
N571	N57	0.463730	0.353070	0.368470
N581	N58	0.535130	0.450470	0.280170
N591	N59	0.411530	0.400870	0.715570
N601	N60	0.412930	0.320670	0.595470
C1271	C127	0.502630	0.392770	0.426770
C1281	C128	0.454230	0.409170	0.660870
H1131	H113	0.484930	0.443470	0.662270
C1291	C129	0.370330	0.311170	0.651570
H1141	H114	0.339930	0.276670	0.649870
C1301	C130	0.455630	0.369570	0.601970
C1311	C131	0.369230	0.349970	0.711770
H1151	H115	0.338230	0.341270	0.751770
C1321	C132	0.495830	0.413870	0.225070
H1161	H116	0.491530	0.421070	0.153770
C1331	C133	0.461030	0.365770	0.266770
H1171	H117	0.433730	0.339970	0.222970
C1341	C134	0.537730	0.440570	0.382570
H1181	H118	0.564630	0.467270	0.425470
C1351	C135	0.504630	0.379870	0.540670
H1191	H119	0.508530	0.347970	0.544970
H1201	H120	0.536330	0.409770	0.573970
Ag161	Ag16	0.400180	0.470700	0.786780
N611	N61	0.313600	0.444000	0.701800
N621	N62	0.216200	0.418000	0.613500
N631	N63	0.265800	0.344000	0.048900
N641	N64	0.346000	0.425600	0.928800
C1361	C136	0.273900	0.443200	0.760100
C1371	C137	0.257500	0.378400	0.994200
H1211	H121	0.223200	0.374800	0.995600
C1381	C138	0.355500	0.392500	0.984900
H1221	H122	0.390000	0.396600	0.983200
C1391	C139	0.297100	0.419400	0.935300
C1401	C140	0.316700	0.352600	0.045100
H1231	H123	0.325400	0.330300	0.085100
C1411	C141	0.252800	0.415300	0.558400
H1241	H124	0.245600	0.403800	0.487100
C1421	C142	0.300900	0.428600	0.600100
H1251	H125	0.326700	0.427100	0.556300
C1431	C143	0.226100	0.430500	0.715900
H1261	H126	0.199400	0.430700	0.758800
C1441	C144	0.286800	0.458100	0.874000
H1271	H127	0.318700	0.493900	0.878300
H1281	H128	0.256900	0.459900	0.907300
Ag171	Ag17	0.066850	0.804030	0.120110
N651	N65	0.980270	0.777330	0.035130
N661	N66	0.882870	0.751330	0.946830
N671	N67	0.932470	0.677330	0.382230
N681	N68	0.012670	0.758930	0.262130
C1451	C145	0.940570	0.776530	0.093430
C1461	C146	0.924170	0.711730	0.327530
H1291	H129	0.889870	0.708130	0.328930
C1471	C147	0.022170	0.725830	0.318230
H1301	H130	0.056670	0.729930	0.316530
C1481	C148	0.963770	0.752730	0.268630
C1491	C149	0.983370	0.685930	0.378430
H1311	H131	0.992070	0.663630	0.418430
C1501	C150	0.919470	0.748630	0.891730
H1321	H132	0.912270	0.737130	0.820430
C1511	C151	0.967570	0.761930	0.933430
H1331	H133	0.993370	0.760430	0.889630
C1521	C152	0.892770	0.763830	0.049230
H1341	H134	0.866070	0.764030	0.092130
C1531	C153	0.953470	0.791430	0.207330
H1351	H135	0.985370	0.827230	0.211630
H1361	H136	0.923570	0.793230	0.240630
Ag181	Ag18	0.733510	0.137370	0.453450
N691	N69	0.646930	0.110670	0.368470
N701	N70	0.549530	0.084670	0.280170
N711	N71	0.599130	0.010670	0.715570
N721	N72	0.679330	0.092270	0.595470
C1541	C154	0.607230	0.109870	0.426770
C1551	C155	0.590830	0.045070	0.660870
H1371	H137	0.556530	0.041470	0.662270
C1561	C156	0.688830	0.059170	0.651570
H1381	H138	0.723330	0.063270	0.649870
C1571	C157	0.630430	0.086070	0.601970
C1581	C158	0.650030	0.019270	0.711770
H1391	H139	0.658730	0.996970	0.751770
C1591	C159	0.586130	0.081970	0.225070
H1401	H140	0.578930	0.070470	0.153770
C1601	C160	0.634230	0.095270	0.266770
H1411	H141	0.660030	0.093770	0.222970
C1611	C161	0.559430	0.097170	0.382570
H1421	H142	0.532730	0.097370	0.425470
C1621	C162	0.620130	0.124770	0.540670
H1431	H143	0.652030	0.160570	0.544970
H1441	H144	0.590230	0.126570	0.573970
