data_HUFHEX_clean_PM
_symmetry_space_group_name_H-M	'P1'
_cell_length_a	28.910500
_cell_length_b	28.910500
_cell_length_c	14.386300
_cell_angle_alpha	90.000000
_cell_angle_beta	90.000000
_cell_angle_gamma	120.000000
_symmetry_Int_Tables_number 1

loop_
_symmetry_equiv_pos_as_xyz
'x,y,z'

loop_
_atom_site_label
_atom_site_type_symbol
_atom_site_fract_x
_atom_site_fract_y
_atom_site_fract_z
Ag11	Ag1	0.802070	0.065800	0.392950
N11	N1	0.732930	0.997030	0.298100
C11	C1	0.768400	0.926600	0.600600
H11	H1	0.765000	0.922700	0.666200
C21	C2	0.738000	0.955220	0.271400
C31	C3	0.777750	0.941390	0.415700
C41	C4	0.782670	0.949000	0.312100
H21	H2	0.782400	0.917800	0.283100
H31	H3	0.817300	0.981100	0.297300
C51	C5	0.758200	0.891280	0.455500
H41	H4	0.747200	0.861200	0.416000
N21	N2	0.792500	0.984330	0.468500
C61	C6	0.658700	0.965900	0.197200
H51	H5	0.631100	0.970800	0.172300
N31	N3	0.754290	0.883830	0.547200
C71	C7	0.702300	0.918600	0.207100
H61	H6	0.706100	0.888900	0.189900
C81	C8	0.787900	0.976500	0.561000
H71	H7	0.798400	0.006400	0.600600
N41	N4	0.662700	0.923980	0.168800
C91	C9	0.693500	0.002300	0.261600
H81	H8	0.689100	0.031400	0.280000
Ag21	Ag2	0.468740	0.399130	0.726280
N51	N5	0.399600	0.330360	0.631430
C101	C10	0.435070	0.259930	0.933930
H91	H9	0.431670	0.256030	0.999530
C111	C11	0.404670	0.288550	0.604730
C121	C12	0.444420	0.274720	0.749030
C131	C13	0.449340	0.282330	0.645430
H101	H10	0.449070	0.251130	0.616430
H111	H11	0.483970	0.314430	0.630630
C141	C14	0.424870	0.224610	0.788830
H121	H12	0.413870	0.194530	0.749330
N61	N6	0.459170	0.317660	0.801830
C151	C15	0.325370	0.299230	0.530530
H131	H13	0.297770	0.304130	0.505630
N71	N7	0.420960	0.217160	0.880530
C161	C16	0.368970	0.251930	0.540430
H141	H14	0.372770	0.222230	0.523230
C171	C17	0.454570	0.309830	0.894330
H151	H15	0.465070	0.339730	0.933930
N81	N8	0.329370	0.257310	0.502130
C181	C18	0.360170	0.335630	0.594930
H161	H16	0.355770	0.364730	0.613330
Ag31	Ag3	0.135400	0.732470	0.059620
N91	N9	0.066260	0.663700	0.964770
C191	C19	0.101730	0.593270	0.267270
H171	H17	0.098330	0.589370	0.332870
C201	C20	0.071330	0.621890	0.938070
C211	C21	0.111080	0.608060	0.082370
C221	C22	0.116000	0.615670	0.978770
H181	H18	0.115730	0.584470	0.949770
H191	H19	0.150630	0.647770	0.963970
C231	C23	0.091530	0.557950	0.122170
H201	H20	0.080530	0.527870	0.082670
N101	N10	0.125830	0.651000	0.135170
C241	C24	0.992030	0.632570	0.863870
H211	H21	0.964430	0.637470	0.838970
N111	N11	0.087620	0.550500	0.213870
C251	C25	0.035630	0.585270	0.873770
H221	H22	0.039430	0.555570	0.856570
C261	C26	0.121230	0.643170	0.227670
H231	H23	0.131730	0.673070	0.267270
N121	N12	0.996030	0.590650	0.835470
C271	C27	0.026830	0.668970	0.928270
H241	H24	0.022430	0.698070	0.946670
Ag41	Ag4	0.934200	0.736270	0.392950
N131	N13	0.002970	0.735900	0.298100
C281	C28	0.073400	0.841800	0.600600
H251	H25	0.077300	0.842300	0.666200
C291	C29	0.044780	0.782780	0.271400
C301	C30	0.058610	0.836360	0.415700
C311	C31	0.051000	0.833670	0.312100
H261	H26	0.082200	0.864600	0.283100
H271	H27	0.018900	0.836200	0.297300
C321	C32	0.108720	0.866920	0.455500
H281	H28	0.138800	0.886000	0.416000
N141	N14	0.015670	0.808170	0.468500
C331	C33	0.034100	0.692800	0.197200
H291	H29	0.029200	0.660300	0.172300
N151	N15	0.116170	0.870460	0.547200
C341	C34	0.081400	0.783700	0.207100
H301	H30	0.111100	0.817200	0.189900
C351	C35	0.023500	0.811400	0.561000
H311	H31	0.993600	0.792000	0.600600
N161	N16	0.076020	0.738720	0.168800
C361	C36	0.997700	0.691200	0.261600
H321	H32	0.968600	0.657700	0.280000
Ag51	Ag5	0.600870	0.069600	0.726280
N171	N17	0.669640	0.069230	0.631430
C371	C37	0.740070	0.175130	0.933930
H331	H33	0.743970	0.175630	0.999530
C381	C38	0.711450	0.116110	0.604730
C391	C39	0.725280	0.169690	0.749030
C401	C40	0.717670	0.167000	0.645430
H341	H34	0.748870	0.197930	0.616430
H351	H35	0.685570	0.169530	0.630630
C411	C41	0.775390	0.200250	0.788830
H361	H36	0.805470	0.219330	0.749330
N181	N18	0.682340	0.141500	0.801830
C421	C42	0.700770	0.026130	0.530530
H371	H37	0.695870	0.993630	0.505630
N191	N19	0.782840	0.203790	0.880530
C431	C43	0.748070	0.117030	0.540430
H381	H38	0.777770	0.150530	0.523230
C441	C44	0.690170	0.144730	0.894330
H391	H39	0.660270	0.125330	0.933930
N201	N20	0.742690	0.072050	0.502130
C451	C45	0.664370	0.024530	0.594930
H401	H40	0.635270	0.991030	0.613330
Ag61	Ag6	0.267530	0.402940	0.059620
N211	N21	0.336300	0.402570	0.964770
C461	C46	0.406730	0.508470	0.267270
H411	H41	0.410630	0.508970	0.332870
C471	C47	0.378110	0.449450	0.938070
C481	C48	0.391940	0.503030	0.082370
C491	C49	0.384330	0.500340	0.978770
H421	H42	0.415530	0.531270	0.949770
H431	H43	0.352230	0.502870	0.963970
C501	C50	0.442050	0.533590	0.122170
H441	H44	0.472130	0.552670	0.082670
N221	N22	0.349000	0.474840	0.135170
C511	C51	0.367430	0.359470	0.863870
H451	H45	0.362530	0.326970	0.838970
N231	N23	0.449500	0.537130	0.213870
C521	C52	0.414730	0.450370	0.873770
H461	H46	0.444430	0.483870	0.856570
C531	C53	0.356830	0.478070	0.227670
H471	H47	0.326930	0.458670	0.267270
N241	N24	0.409350	0.405390	0.835470
C541	C54	0.331030	0.357870	0.928270
H481	H48	0.301930	0.324370	0.946670
Ag71	Ag7	0.263730	0.197930	0.392950
N251	N25	0.264100	0.267070	0.298100
C551	C55	0.158200	0.231600	0.600600
H491	H49	0.157700	0.235000	0.666200
C561	C56	0.217220	0.262000	0.271400
C571	C57	0.163640	0.222250	0.415700
C581	C58	0.166330	0.217330	0.312100
H501	H50	0.135400	0.217600	0.283100
H511	H51	0.163800	0.182700	0.297300
C591	C59	0.133080	0.241800	0.455500
H521	H52	0.114000	0.252800	0.416000
N261	N26	0.191830	0.207500	0.468500
C601	C60	0.307200	0.341300	0.197200
H531	H53	0.339700	0.368900	0.172300
N271	N27	0.129540	0.245710	0.547200
C611	C61	0.216300	0.297700	0.207100
H541	H54	0.182800	0.293900	0.189900
C621	C62	0.188600	0.212100	0.561000
H551	H55	0.208000	0.201600	0.600600
N281	N28	0.261280	0.337300	0.168800
C631	C63	0.308800	0.306500	0.261600
H561	H56	0.342300	0.310900	0.280000
Ag81	Ag8	0.930400	0.531260	0.726280
N291	N29	0.930770	0.600400	0.631430
C641	C64	0.824870	0.564930	0.933930
H571	H57	0.824370	0.568330	0.999530
C651	C65	0.883890	0.595330	0.604730
C661	C66	0.830310	0.555580	0.749030
C671	C67	0.833000	0.550660	0.645430
H581	H58	0.802070	0.550930	0.616430
H591	H59	0.830470	0.516030	0.630630
C681	C68	0.799750	0.575130	0.788830
H601	H60	0.780670	0.586130	0.749330
N301	N30	0.858500	0.540830	0.801830
C691	C69	0.973870	0.674630	0.530530
H611	H61	0.006370	0.702230	0.505630
N311	N31	0.796210	0.579040	0.880530
C701	C70	0.882970	0.631030	0.540430
H621	H62	0.849470	0.627230	0.523230
C711	C71	0.855270	0.545430	0.894330
H631	H63	0.874670	0.534930	0.933930
N321	N32	0.927950	0.670630	0.502130
C721	C72	0.975470	0.639830	0.594930
H641	H64	0.008970	0.644230	0.613330
Ag91	Ag9	0.597060	0.864600	0.059620
N331	N33	0.597430	0.933740	0.964770
C731	C73	0.491530	0.898270	0.267270
H651	H65	0.491030	0.901670	0.332870
C741	C74	0.550550	0.928670	0.938070
C751	C75	0.496970	0.888920	0.082370
C761	C76	0.499660	0.884000	0.978770
H661	H66	0.468730	0.884270	0.949770
H671	H67	0.497130	0.849370	0.963970
C771	C77	0.466410	0.908470	0.122170
H681	H68	0.447330	0.919470	0.082670
N341	N34	0.525160	0.874170	0.135170
C781	C78	0.640530	0.007970	0.863870
H691	H69	0.673030	0.035570	0.838970
N351	N35	0.462870	0.912380	0.213870
C791	C79	0.549630	0.964370	0.873770
H701	H70	0.516130	0.960570	0.856570
C801	C80	0.521930	0.878770	0.227670
H711	H71	0.541330	0.868270	0.267270
N361	N36	0.594610	0.003970	0.835470
C811	C81	0.642130	0.973170	0.928270
H721	H72	0.675630	0.977570	0.946670
Ag101	Ag10	0.197930	0.934200	0.607050
N371	N37	0.267070	0.002970	0.701900
C821	C82	0.231600	0.073400	0.399400
H731	H73	0.235000	0.077300	0.333800
C831	C83	0.262000	0.044780	0.728600
C841	C84	0.222250	0.058610	0.584300
C851	C85	0.217330	0.051000	0.687900
H741	H74	0.217600	0.082200	0.716900
H751	H75	0.182700	0.018900	0.702700
C861	C86	0.241800	0.108720	0.544500
H761	H76	0.252800	0.138800	0.584000
N381	N38	0.207500	0.015670	0.531500
C871	C87	0.341300	0.034100	0.802800
H771	H77	0.368900	0.029200	0.827700
N391	N39	0.245710	0.116170	0.452800
C881	C88	0.297700	0.081400	0.792900
H781	H78	0.293900	0.111100	0.810100
C891	C89	0.212100	0.023500	0.439000
H791	H79	0.201600	0.993600	0.399400
N401	N40	0.337300	0.076020	0.831200
C901	C90	0.306500	0.997700	0.738400
H801	H80	0.310900	0.968600	0.720000
Ag111	Ag11	0.864600	0.267530	0.940380
N411	N41	0.933740	0.336300	0.035230
C911	C91	0.898270	0.406730	0.732730
H811	H81	0.901670	0.410630	0.667130
C921	C92	0.928670	0.378110	0.061930
C931	C93	0.888920	0.391940	0.917630
C941	C94	0.884000	0.384330	0.021230
H821	H82	0.884270	0.415530	0.050230
H831	H83	0.849370	0.352230	0.036030
C951	C95	0.908470	0.442050	0.877830
H841	H84	0.919470	0.472130	0.917330
N421	N42	0.874170	0.349000	0.864830
C961	C96	0.007970	0.367430	0.136130
H851	H85	0.035570	0.362530	0.161030
N431	N43	0.912380	0.449500	0.786130
C971	C97	0.964370	0.414730	0.126230
H861	H86	0.960570	0.444430	0.143430
C981	C98	0.878770	0.356830	0.772330
H871	H87	0.868270	0.326930	0.732730
N441	N44	0.003970	0.409350	0.164530
C991	C99	0.973170	0.331030	0.071730
H881	H88	0.977570	0.301930	0.053330
Ag121	Ag12	0.531260	0.600870	0.273720
N451	N45	0.600400	0.669640	0.368570
C1001	C100	0.564930	0.740070	0.066070
H891	H89	0.568330	0.743970	0.000470
C1011	C101	0.595330	0.711450	0.395270
C1021	C102	0.555580	0.725280	0.250970
C1031	C103	0.550660	0.717670	0.354570
H901	H90	0.550930	0.748870	0.383570
H911	H91	0.516030	0.685570	0.369370
C1041	C104	0.575130	0.775390	0.211170
H921	H92	0.586130	0.805470	0.250670
N461	N46	0.540830	0.682340	0.198170
C1051	C105	0.674630	0.700770	0.469470
H931	H93	0.702230	0.695870	0.494370
N471	N47	0.579040	0.782840	0.119470
C1061	C106	0.631030	0.748070	0.459570
H941	H94	0.627230	0.777770	0.476770
C1071	C107	0.545430	0.690170	0.105670
H951	H95	0.534930	0.660270	0.066070
N481	N48	0.670630	0.742690	0.497870
C1081	C108	0.639830	0.664370	0.405070
H961	H96	0.644230	0.635270	0.386670
Ag131	Ag13	0.065800	0.263730	0.607050
N491	N49	0.997030	0.264100	0.701900
C1091	C109	0.926600	0.158200	0.399400
H971	H97	0.922700	0.157700	0.333800
C1101	C110	0.955220	0.217220	0.728600
C1111	C111	0.941390	0.163640	0.584300
C1121	C112	0.949000	0.166330	0.687900
H981	H98	0.917800	0.135400	0.716900
H991	H99	0.981100	0.163800	0.702700
C1131	C113	0.891280	0.133080	0.544500
H1001	H100	0.861200	0.114000	0.584000
N501	N50	0.984330	0.191830	0.531500
C1141	C114	0.965900	0.307200	0.802800
H1011	H101	0.970800	0.339700	0.827700
N511	N51	0.883830	0.129540	0.452800
C1151	C115	0.918600	0.216300	0.792900
H1021	H102	0.888900	0.182800	0.810100
C1161	C116	0.976500	0.188600	0.439000
H1031	H103	0.006400	0.208000	0.399400
N521	N52	0.923980	0.261280	0.831200
C1171	C117	0.002300	0.308800	0.738400
H1041	H104	0.031400	0.342300	0.720000
Ag141	Ag14	0.732470	0.597060	0.940380
N531	N53	0.663700	0.597430	0.035230
C1181	C118	0.593270	0.491530	0.732730
H1051	H105	0.589370	0.491030	0.667130
C1191	C119	0.621890	0.550550	0.061930
C1201	C120	0.608060	0.496970	0.917630
C1211	C121	0.615670	0.499660	0.021230
H1061	H106	0.584470	0.468730	0.050230
H1071	H107	0.647770	0.497130	0.036030
C1221	C122	0.557950	0.466410	0.877830
H1081	H108	0.527870	0.447330	0.917330
N541	N54	0.651000	0.525160	0.864830
C1231	C123	0.632570	0.640530	0.136130
H1091	H109	0.637470	0.673030	0.161030
N551	N55	0.550500	0.462870	0.786130
C1241	C124	0.585270	0.549630	0.126230
H1101	H110	0.555570	0.516130	0.143430
C1251	C125	0.643170	0.521930	0.772330
H1111	H111	0.673070	0.541330	0.732730
N561	N56	0.590650	0.594610	0.164530
C1261	C126	0.668970	0.642130	0.071730
H1121	H112	0.698070	0.675630	0.053330
Ag151	Ag15	0.399130	0.930400	0.273720
N571	N57	0.330360	0.930770	0.368570
C1271	C127	0.259930	0.824870	0.066070
H1131	H113	0.256030	0.824370	0.000470
C1281	C128	0.288550	0.883890	0.395270
C1291	C129	0.274720	0.830310	0.250970
C1301	C130	0.282330	0.833000	0.354570
H1141	H114	0.251130	0.802070	0.383570
H1151	H115	0.314430	0.830470	0.369370
C1311	C131	0.224610	0.799750	0.211170
H1161	H116	0.194530	0.780670	0.250670
N581	N58	0.317660	0.858500	0.198170
C1321	C132	0.299230	0.973870	0.469470
H1171	H117	0.304130	0.006370	0.494370
N591	N59	0.217160	0.796210	0.119470
C1331	C133	0.251930	0.882970	0.459570
H1181	H118	0.222230	0.849470	0.476770
C1341	C134	0.309830	0.855270	0.105670
H1191	H119	0.339730	0.874670	0.066070
N601	N60	0.257310	0.927950	0.497870
C1351	C135	0.335630	0.975470	0.405070
H1201	H120	0.364730	0.008970	0.386670
Ag161	Ag16	0.736270	0.802070	0.607050
N611	N61	0.735900	0.732930	0.701900
C1361	C136	0.841800	0.768400	0.399400
H1211	H121	0.842300	0.765000	0.333800
C1371	C137	0.782780	0.738000	0.728600
C1381	C138	0.836360	0.777750	0.584300
C1391	C139	0.833670	0.782670	0.687900
H1221	H122	0.864600	0.782400	0.716900
H1231	H123	0.836200	0.817300	0.702700
C1401	C140	0.866920	0.758200	0.544500
H1241	H124	0.886000	0.747200	0.584000
N621	N62	0.808170	0.792500	0.531500
C1411	C141	0.692800	0.658700	0.802800
H1251	H125	0.660300	0.631100	0.827700
N631	N63	0.870460	0.754290	0.452800
C1421	C142	0.783700	0.702300	0.792900
H1261	H126	0.817200	0.706100	0.810100
C1431	C143	0.811400	0.787900	0.439000
H1271	H127	0.792000	0.798400	0.399400
N641	N64	0.738720	0.662700	0.831200
C1441	C144	0.691200	0.693500	0.738400
H1281	H128	0.657700	0.689100	0.720000
Ag171	Ag17	0.402940	0.135400	0.940380
N651	N65	0.402570	0.066260	0.035230
C1451	C145	0.508470	0.101730	0.732730
H1291	H129	0.508970	0.098330	0.667130
C1461	C146	0.449450	0.071330	0.061930
C1471	C147	0.503030	0.111080	0.917630
C1481	C148	0.500340	0.116000	0.021230
H1301	H130	0.531270	0.115730	0.050230
H1311	H131	0.502870	0.150630	0.036030
C1491	C149	0.533590	0.091530	0.877830
H1321	H132	0.552670	0.080530	0.917330
N661	N66	0.474840	0.125830	0.864830
C1501	C150	0.359470	0.992030	0.136130
H1331	H133	0.326970	0.964430	0.161030
N671	N67	0.537130	0.087620	0.786130
C1511	C151	0.450370	0.035630	0.126230
H1341	H134	0.483870	0.039430	0.143430
C1521	C152	0.478070	0.121230	0.772330
H1351	H135	0.458670	0.131730	0.732730
N681	N68	0.405390	0.996030	0.164530
C1531	C153	0.357870	0.026830	0.071730
H1361	H136	0.324370	0.022430	0.053330
Ag181	Ag18	0.069600	0.468740	0.273720
N691	N69	0.069230	0.399600	0.368570
C1541	C154	0.175130	0.435070	0.066070
H1371	H137	0.175630	0.431670	0.000470
C1551	C155	0.116110	0.404670	0.395270
C1561	C156	0.169690	0.444420	0.250970
C1571	C157	0.167000	0.449340	0.354570
H1381	H138	0.197930	0.449070	0.383570
H1391	H139	0.169530	0.483970	0.369370
C1581	C158	0.200250	0.424870	0.211170
H1401	H140	0.219330	0.413870	0.250670
N701	N70	0.141500	0.459170	0.198170
C1591	C159	0.026130	0.325370	0.469470
H1411	H141	0.993630	0.297770	0.494370
N711	N71	0.203790	0.420960	0.119470
C1601	C160	0.117030	0.368970	0.459570
H1421	H142	0.150530	0.372770	0.476770
C1611	C161	0.144730	0.454570	0.105670
H1431	H143	0.125330	0.465070	0.066070
N721	N72	0.072050	0.329370	0.497870
C1621	C162	0.024530	0.360170	0.405070
H1441	H144	0.991030	0.355770	0.386670
