data_HUFJID_clean_PM
_symmetry_space_group_name_H-M	'P1'
_cell_length_a	15.179000
_cell_length_b	16.746000
_cell_length_c	28.863000
_cell_angle_alpha	90.000000
_cell_angle_beta	97.960000
_cell_angle_gamma	90.000000
_symmetry_Int_Tables_number 1

loop_
_symmetry_equiv_pos_as_xyz
'x,y,z'

loop_
_atom_site_label
_atom_site_type_symbol
_atom_site_fract_x
_atom_site_fract_y
_atom_site_fract_z
Ag11	Ag1	0.795000	0.094810	0.236920
Ag21	Ag2	0.181360	0.086790	0.414450
Ag31	Ag3	0.420450	0.370470	0.277520
Ag41	Ag4	0.052530	0.345230	0.082990
Ag51	Ag5	0.603820	0.910630	0.009680
C11	C1	0.906700	0.082200	0.338900
H11	H1	0.850400	0.097700	0.346800
C21	C2	0.155100	0.386500	0.185400
H21	H2	0.096000	0.391500	0.192300
N11	N1	0.697900	0.996800	0.275440
N21	N2	0.913000	0.064700	0.294520
N31	N3	0.739300	0.034900	0.162490
N41	N4	0.060300	0.062200	0.363720
N51	N5	0.168000	0.380300	0.141200
N61	N6	0.161200	0.263800	0.056400
C31	C3	0.968600	0.093800	0.424800
H31	H3	0.999900	0.051300	0.444500
H41	H4	0.904600	0.090800	0.428200
N71	N7	0.540300	0.290800	0.260600
C41	C4	0.322300	0.371400	0.170100
H51	H5	0.381300	0.364500	0.163200
C51	C5	0.392200	0.097700	0.397400
H61	H6	0.455600	0.096500	0.392800
H71	H7	0.362400	0.051600	0.380300
C61	C6	0.721400	0.956700	0.157700
H81	H8	0.726600	0.924600	0.185100
C71	C7	0.747200	0.166300	0.126900
H91	H9	0.711600	0.188300	0.150200
H101	H10	0.726000	0.191600	0.096400
N81	N8	0.679100	0.187100	0.248760
N91	N9	0.882300	0.165800	0.184380
N101	N10	0.309200	0.378900	0.214800
C81	C8	0.386000	0.088200	0.449000
C91	C9	0.979400	0.078900	0.374500
C101	C10	0.350900	0.173600	0.376500
C111	C11	0.224200	0.386000	0.222000
H111	H11	0.211100	0.390900	0.253100
C121	C12	0.004500	0.173900	0.442100
C131	C13	0.675000	0.916700	0.340100
H121	H12	0.699100	0.878500	0.362800
N111	N11	0.092800	0.183100	0.447300
C141	C14	0.271000	0.367200	0.082800
H131	H13	0.236700	0.409100	0.063900
H141	H14	0.335000	0.377400	0.081800
N121	N12	0.264100	0.184300	0.378900
C151	C15	0.016200	0.224800	0.165300
H151	H15	0.078100	0.233700	0.174000
C161	C16	0.252800	0.373400	0.133300
C171	C17	0.399000	0.230200	0.355100
H161	H16	0.460300	0.220800	0.353600
N131	N13	0.687500	0.963500	0.076000
C181	C18	0.728400	0.945100	0.309600
H171	H17	0.788600	0.928000	0.312600
C191	C19	0.576000	0.074000	0.235100
H181	H18	0.510800	0.066200	0.228500
H191	H19	0.601500	0.059400	0.206500
C201	C20	0.594500	0.161100	0.245400
C211	C21	0.525800	0.213700	0.251100
H201	H20	0.466600	0.193900	0.248200
C221	C22	0.693300	0.264200	0.258600
H211	H21	0.752400	0.284200	0.261800
C231	C23	0.456900	0.106900	0.482800
H221	H22	0.509800	0.127500	0.473100
C241	C24	0.623800	0.316500	0.264400
H231	H23	0.636500	0.371200	0.271200
C251	C25	0.967800	0.183600	0.196000
H241	H24	0.997100	0.168100	0.225800
C261	C26	0.730600	0.078000	0.122800
C271	C27	0.067500	0.047100	0.318400
H251	H25	0.124500	0.036300	0.309900
N141	N14	0.308600	0.060900	0.461600
C281	C28	0.612500	0.019200	0.273600
C291	C29	0.843100	0.188600	0.141200
C301	C30	0.890400	0.233600	0.112000
H261	H26	0.860600	0.251800	0.082800
C311	C31	0.310200	0.238900	0.045000
H271	H27	0.369800	0.257400	0.047800
C321	C32	0.246700	0.286600	0.061100
C331	C33	0.995300	0.047000	0.284700
H281	H28	0.003000	0.034100	0.253500
C341	C34	0.695900	0.921100	0.115400
H291	H29	0.684100	0.865400	0.114100
C351	C35	0.706300	0.041600	0.080000
H301	H30	0.702800	0.073100	0.052400
C361	C36	0.306400	0.049600	0.507000
H311	H31	0.253600	0.029100	0.516800
C371	C37	0.949500	0.235500	0.452800
H321	H32	0.887000	0.227500	0.448600
C381	C38	0.226900	0.251200	0.360700
H331	H33	0.165400	0.260400	0.361700
C391	C39	0.559800	0.991100	0.306000
H341	H34	0.500000	0.009000	0.304000
C401	C40	0.125700	0.254000	0.463100
H351	H35	0.188200	0.262500	0.467200
N151	N15	0.591000	0.939600	0.339900
C411	C41	0.143100	0.191200	0.037000
H361	H36	0.083700	0.172100	0.034000
N161	N16	0.361400	0.297800	0.336300
N171	N17	0.982400	0.305800	0.468800
N181	N18	0.453700	0.097100	0.528200
N191	N19	0.975700	0.251500	0.123900
C421	C42	0.378600	0.066800	0.540600
H371	H37	0.374700	0.057000	0.572600
C431	C43	0.275900	0.308000	0.340200
H381	H38	0.247300	0.355800	0.328500
N201	N20	0.290200	0.167000	0.025400
C441	C44	0.070300	0.314900	0.473600
H391	H39	0.095500	0.364500	0.484400
C451	C45	0.205800	0.144500	0.021700
H401	H40	0.188900	0.094200	0.008000
Ag61	Ag6	0.705000	0.594810	0.263080
Ag71	Ag7	0.318640	0.586790	0.085550
Ag81	Ag8	0.079550	0.870470	0.222480
Ag91	Ag9	0.447470	0.845230	0.417010
Ag101	Ag10	0.896180	0.410630	0.490320
C461	C46	0.593300	0.582200	0.161100
H411	H41	0.649600	0.597700	0.153200
C471	C47	0.344900	0.886500	0.314600
H421	H42	0.404000	0.891500	0.307700
N211	N21	0.802100	0.496800	0.224560
N221	N22	0.587000	0.564700	0.205480
N231	N23	0.760700	0.534900	0.337510
N241	N24	0.439700	0.562200	0.136280
N251	N25	0.332000	0.880300	0.358800
N261	N26	0.338800	0.763800	0.443600
C481	C48	0.531400	0.593800	0.075200
H431	H43	0.500100	0.551300	0.055500
H441	H44	0.595400	0.590800	0.071800
N271	N27	0.959700	0.790800	0.239400
C491	C49	0.177700	0.871400	0.329900
H451	H45	0.118700	0.864500	0.336800
C501	C50	0.107800	0.597700	0.102600
H461	H46	0.044400	0.596500	0.107200
H471	H47	0.137600	0.551600	0.119700
C511	C51	0.778600	0.456700	0.342300
H481	H48	0.773400	0.424600	0.314900
C521	C52	0.752800	0.666300	0.373100
H491	H49	0.788400	0.688300	0.349800
H501	H50	0.774000	0.691600	0.403600
N281	N28	0.820900	0.687100	0.251240
N291	N29	0.617700	0.665800	0.315620
N301	N30	0.190800	0.878900	0.285200
C531	C53	0.114000	0.588200	0.051000
C541	C54	0.520600	0.578900	0.125500
C551	C55	0.149100	0.673600	0.123500
C561	C56	0.275800	0.886000	0.278000
H511	H51	0.288900	0.890900	0.246900
C571	C57	0.495500	0.673900	0.057900
C581	C58	0.825000	0.416700	0.159900
H521	H52	0.800900	0.378500	0.137200
N311	N31	0.407200	0.683100	0.052700
C591	C59	0.229000	0.867200	0.417200
H531	H53	0.263300	0.909100	0.436100
H541	H54	0.165000	0.877400	0.418200
N321	N32	0.235900	0.684300	0.121100
C601	C60	0.483800	0.724800	0.334700
H551	H55	0.421900	0.733700	0.326000
C611	C61	0.247200	0.873400	0.366700
C621	C62	0.101000	0.730200	0.144900
H561	H56	0.039700	0.720800	0.146400
N331	N33	0.812500	0.463500	0.424000
C631	C63	0.771600	0.445100	0.190400
H571	H57	0.711400	0.428000	0.187400
C641	C64	0.924000	0.574000	0.264900
H581	H58	0.989200	0.566200	0.271500
H591	H59	0.898500	0.559400	0.293500
C651	C65	0.905500	0.661100	0.254600
C661	C66	0.974200	0.713700	0.248900
H601	H60	0.033400	0.693900	0.251800
C671	C67	0.806700	0.764200	0.241400
H611	H61	0.747600	0.784200	0.238200
C681	C68	0.043100	0.606900	0.017200
H621	H62	0.990200	0.627500	0.026900
C691	C69	0.876200	0.816500	0.235600
H631	H63	0.863500	0.871200	0.228800
C701	C70	0.532200	0.683600	0.304000
H641	H64	0.502900	0.668100	0.274200
C711	C71	0.769400	0.578000	0.377200
C721	C72	0.432500	0.547100	0.181600
H651	H65	0.375500	0.536300	0.190100
N341	N34	0.191400	0.560900	0.038400
C731	C73	0.887500	0.519200	0.226400
C741	C74	0.656900	0.688600	0.358800
C751	C75	0.609600	0.733600	0.388000
H661	H66	0.639400	0.751800	0.417200
C761	C76	0.189800	0.738900	0.455000
H671	H67	0.130200	0.757400	0.452200
C771	C77	0.253300	0.786600	0.438900
C781	C78	0.504700	0.547000	0.215300
H681	H68	0.497000	0.534100	0.246500
C791	C79	0.804100	0.421100	0.384600
H691	H69	0.815900	0.365400	0.385900
C801	C80	0.793700	0.541600	0.420000
H701	H70	0.797200	0.573100	0.447600
C811	C81	0.193600	0.549600	0.993000
H711	H71	0.246400	0.529100	0.983200
C821	C82	0.550500	0.735500	0.047200
H721	H72	0.613000	0.727500	0.051400
C831	C83	0.273100	0.751200	0.139300
H731	H73	0.334600	0.760400	0.138300
C841	C84	0.940200	0.491100	0.194000
H741	H74	0.000000	0.509000	0.196000
C851	C85	0.374300	0.754000	0.036900
H751	H75	0.311800	0.762500	0.032800
N351	N35	0.909000	0.439600	0.160100
C861	C86	0.356900	0.691200	0.463000
H761	H76	0.416300	0.672100	0.466000
N361	N36	0.138600	0.797800	0.163700
N371	N37	0.517600	0.805800	0.031200
N381	N38	0.046300	0.597100	0.971800
N391	N39	0.524300	0.751500	0.376100
C871	C87	0.121400	0.566800	0.959400
H771	H77	0.125300	0.557000	0.927400
C881	C88	0.224100	0.808000	0.159800
H781	H78	0.252700	0.855800	0.171500
N401	N40	0.209800	0.667000	0.474600
C891	C89	0.429700	0.814900	0.026400
H791	H79	0.404500	0.864500	0.015600
C901	C90	0.294200	0.644500	0.478300
H801	H80	0.311100	0.594200	0.492000
Ag111	Ag11	0.205000	0.905190	0.763080
Ag121	Ag12	0.818640	0.913210	0.585550
Ag131	Ag13	0.579550	0.629530	0.722480
Ag141	Ag14	0.947470	0.654770	0.917010
Ag151	Ag15	0.396180	0.089370	0.990320
C911	C91	0.093300	0.917800	0.661100
H811	H81	0.149600	0.902300	0.653200
C921	C92	0.844900	0.613500	0.814600
H821	H82	0.904000	0.608500	0.807700
N411	N41	0.302100	0.003200	0.724560
N421	N42	0.087000	0.935300	0.705480
N431	N43	0.260700	0.965100	0.837510
N441	N44	0.939700	0.937800	0.636280
N451	N45	0.832000	0.619700	0.858800
N461	N46	0.838800	0.736200	0.943600
C931	C93	0.031400	0.906200	0.575200
H831	H83	0.000100	0.948700	0.555500
H841	H84	0.095400	0.909200	0.571800
N471	N47	0.459700	0.709200	0.739400
C941	C94	0.677700	0.628600	0.829900
H851	H85	0.618700	0.635500	0.836800
C951	C95	0.607800	0.902300	0.602600
H861	H86	0.544400	0.903500	0.607200
H871	H87	0.637600	0.948400	0.619700
C961	C96	0.278600	0.043300	0.842300
H881	H88	0.273400	0.075400	0.814900
C971	C97	0.252800	0.833700	0.873100
H891	H89	0.288400	0.811700	0.849800
H901	H90	0.274000	0.808400	0.903600
N481	N48	0.320900	0.812900	0.751240
N491	N49	0.117700	0.834200	0.815620
N501	N50	0.690800	0.621100	0.785200
C981	C98	0.614000	0.911800	0.551000
C991	C99	0.020600	0.921100	0.625500
C1001	C100	0.649100	0.826400	0.623500
C1011	C101	0.775800	0.614000	0.778000
H911	H91	0.788900	0.609100	0.746900
C1021	C102	0.995500	0.826100	0.557900
C1031	C103	0.325000	0.083300	0.659900
H921	H92	0.300900	0.121500	0.637200
N511	N51	0.907200	0.816900	0.552700
C1041	C104	0.729000	0.632800	0.917200
H931	H93	0.763300	0.590900	0.936100
H941	H94	0.665000	0.622600	0.918200
N521	N52	0.735900	0.815700	0.621100
C1051	C105	0.983800	0.775200	0.834700
H951	H95	0.921900	0.766300	0.826000
C1061	C106	0.747200	0.626600	0.866700
C1071	C107	0.601000	0.769800	0.644900
H961	H96	0.539700	0.779200	0.646400
N531	N53	0.312500	0.036500	0.924000
C1081	C108	0.271600	0.054900	0.690400
H971	H97	0.211400	0.072000	0.687400
C1091	C109	0.424000	0.926000	0.764900
H981	H98	0.489200	0.933800	0.771500
H991	H99	0.398500	0.940600	0.793500
C1101	C110	0.405500	0.838900	0.754600
C1111	C111	0.474200	0.786300	0.748900
H1001	H100	0.533400	0.806100	0.751800
C1121	C112	0.306700	0.735800	0.741400
H1011	H101	0.247600	0.715800	0.738200
C1131	C113	0.543100	0.893100	0.517200
H1021	H102	0.490200	0.872500	0.526900
C1141	C114	0.376200	0.683500	0.735600
H1031	H103	0.363500	0.628800	0.728800
C1151	C115	0.032200	0.816400	0.804000
H1041	H104	0.002900	0.831900	0.774200
C1161	C116	0.269400	0.922000	0.877200
C1171	C117	0.932500	0.952900	0.681600
H1051	H105	0.875500	0.963700	0.690100
N541	N54	0.691400	0.939100	0.538400
C1181	C118	0.387500	0.980800	0.726400
C1191	C119	0.156900	0.811400	0.858800
C1201	C120	0.109600	0.766400	0.888000
H1061	H106	0.139400	0.748200	0.917200
C1211	C121	0.689800	0.761100	0.955000
H1071	H107	0.630200	0.742600	0.952200
C1221	C122	0.753300	0.713400	0.938900
C1231	C123	0.004700	0.953000	0.715300
H1081	H108	0.997000	0.965900	0.746500
C1241	C124	0.304100	0.078900	0.884600
H1091	H109	0.315900	0.134600	0.885900
C1251	C125	0.293700	0.958400	0.920000
H1101	H110	0.297200	0.926900	0.947600
C1261	C126	0.693600	0.950400	0.493000
H1111	H111	0.746400	0.970900	0.483200
C1271	C127	0.050500	0.764500	0.547200
H1121	H112	0.113000	0.772500	0.551400
C1281	C128	0.773100	0.748800	0.639300
H1131	H113	0.834600	0.739600	0.638300
C1291	C129	0.440200	0.008900	0.694000
H1141	H114	0.500000	0.991000	0.696000
C1301	C130	0.874300	0.746000	0.536900
H1151	H115	0.811800	0.737500	0.532800
N551	N55	0.409000	0.060400	0.660100
C1311	C131	0.856900	0.808800	0.963000
H1161	H116	0.916300	0.827900	0.966000
N561	N56	0.638600	0.702200	0.663700
N571	N57	0.017600	0.694200	0.531200
N581	N58	0.546300	0.902900	0.471800
N591	N59	0.024300	0.748500	0.876100
C1321	C132	0.621400	0.933200	0.459400
H1171	H117	0.625300	0.943000	0.427400
C1331	C133	0.724100	0.692000	0.659800
H1181	H118	0.752700	0.644200	0.671500
N601	N60	0.709800	0.833000	0.974600
C1341	C134	0.929700	0.685100	0.526400
H1191	H119	0.904500	0.635500	0.515600
C1351	C135	0.794200	0.855500	0.978300
H1201	H120	0.811100	0.905800	0.992000
Ag161	Ag16	0.295000	0.405190	0.736920
Ag171	Ag17	0.681360	0.413210	0.914450
Ag181	Ag18	0.920450	0.129530	0.777520
Ag191	Ag19	0.552530	0.154770	0.582990
Ag201	Ag20	0.103820	0.589370	0.509680
C1361	C136	0.406700	0.417800	0.838900
H1211	H121	0.350400	0.402300	0.846800
C1371	C137	0.655100	0.113500	0.685400
H1221	H122	0.596000	0.108500	0.692300
N611	N61	0.197900	0.503200	0.775440
N621	N62	0.413000	0.435300	0.794520
N631	N63	0.239300	0.465100	0.662490
N641	N64	0.560300	0.437800	0.863720
N651	N65	0.668000	0.119700	0.641200
N661	N66	0.661200	0.236200	0.556400
C1381	C138	0.468600	0.406200	0.924800
H1231	H123	0.499900	0.448700	0.944500
H1241	H124	0.404600	0.409200	0.928200
N671	N67	0.040300	0.209200	0.760600
C1391	C139	0.822300	0.128600	0.670100
H1251	H125	0.881300	0.135500	0.663200
C1401	C140	0.892200	0.402300	0.897400
H1261	H126	0.955600	0.403500	0.892800
H1271	H127	0.862400	0.448400	0.880300
C1411	C141	0.221400	0.543300	0.657700
H1281	H128	0.226600	0.575400	0.685100
C1421	C142	0.247200	0.333700	0.626900
H1291	H129	0.211600	0.311700	0.650200
H1301	H130	0.226000	0.308400	0.596400
N681	N68	0.179100	0.312900	0.748760
N691	N69	0.382300	0.334200	0.684380
N701	N70	0.809200	0.121100	0.714800
C1431	C143	0.886000	0.411800	0.949000
C1441	C144	0.479400	0.421100	0.874500
C1451	C145	0.850900	0.326400	0.876500
C1461	C146	0.724200	0.114000	0.722000
H1311	H131	0.711100	0.109100	0.753100
C1471	C147	0.504500	0.326100	0.942100
C1481	C148	0.175000	0.583300	0.840100
H1321	H132	0.199100	0.621500	0.862800
N711	N71	0.592800	0.316900	0.947300
C1491	C149	0.771000	0.132800	0.582800
H1331	H133	0.736700	0.090900	0.563900
H1341	H134	0.835000	0.122600	0.581800
N721	N72	0.764100	0.315700	0.878900
C1501	C150	0.516200	0.275200	0.665300
H1351	H135	0.578100	0.266300	0.674000
C1511	C151	0.752800	0.126600	0.633300
C1521	C152	0.899000	0.269800	0.855100
H1361	H136	0.960300	0.279200	0.853600
N731	N73	0.187500	0.536500	0.576000
C1531	C153	0.228400	0.554900	0.809600
H1371	H137	0.288600	0.572000	0.812600
C1541	C154	0.076000	0.426000	0.735100
H1381	H138	0.010800	0.433800	0.728500
H1391	H139	0.101500	0.440600	0.706500
C1551	C155	0.094500	0.338900	0.745400
C1561	C156	0.025800	0.286300	0.751100
H1401	H140	0.966600	0.306100	0.748200
C1571	C157	0.193300	0.235800	0.758600
H1411	H141	0.252400	0.215800	0.761800
C1581	C158	0.956900	0.393100	0.982800
H1421	H142	0.009800	0.372500	0.973100
C1591	C159	0.123800	0.183500	0.764400
H1431	H143	0.136500	0.128800	0.771200
C1601	C160	0.467800	0.316400	0.696000
H1441	H144	0.497100	0.331900	0.725800
C1611	C161	0.230600	0.422000	0.622800
C1621	C162	0.567500	0.452900	0.818400
H1451	H145	0.624500	0.463700	0.809900
N741	N74	0.808600	0.439100	0.961600
C1631	C163	0.112500	0.480800	0.773600
C1641	C164	0.343100	0.311400	0.641200
C1651	C165	0.390400	0.266400	0.612000
H1461	H146	0.360600	0.248200	0.582800
C1661	C166	0.810200	0.261100	0.545000
H1471	H147	0.869800	0.242600	0.547800
C1671	C167	0.746700	0.213400	0.561100
C1681	C168	0.495300	0.453000	0.784700
H1481	H148	0.503000	0.465900	0.753500
C1691	C169	0.195900	0.578900	0.615400
H1491	H149	0.184100	0.634600	0.614100
C1701	C170	0.206300	0.458400	0.580000
H1501	H150	0.202800	0.426900	0.552400
C1711	C171	0.806400	0.450400	0.007000
H1511	H151	0.753600	0.470900	0.016800
C1721	C172	0.449500	0.264500	0.952800
H1521	H152	0.387000	0.272500	0.948600
C1731	C173	0.726900	0.248800	0.860700
H1531	H153	0.665400	0.239600	0.861700
C1741	C174	0.059800	0.508900	0.806000
H1541	H154	0.000000	0.491000	0.804000
C1751	C175	0.625700	0.246000	0.963100
H1551	H155	0.688200	0.237500	0.967200
N751	N75	0.091000	0.560400	0.839900
C1761	C176	0.643100	0.308800	0.537000
H1561	H156	0.583700	0.327900	0.534000
N761	N76	0.861400	0.202200	0.836300
N771	N77	0.482400	0.194200	0.968800
N781	N78	0.953700	0.402900	0.028200
N791	N79	0.475700	0.248500	0.623900
C1771	C177	0.878600	0.433200	0.040600
H1571	H157	0.874700	0.443000	0.072600
C1781	C178	0.775900	0.192000	0.840200
H1581	H158	0.747300	0.144200	0.828500
N801	N80	0.790200	0.333000	0.525400
C1791	C179	0.570300	0.185100	0.973600
H1591	H159	0.595500	0.135500	0.984400
C1801	C180	0.705800	0.355500	0.521700
H1601	H160	0.688900	0.405800	0.508000
