data_HUFJAV_clean_PM
_symmetry_space_group_name_H-M	'P1'
_cell_length_a	28.123000
_cell_length_b	28.123000
_cell_length_c	14.436000
_cell_angle_alpha	90.000000
_cell_angle_beta	90.000000
_cell_angle_gamma	120.000000
_symmetry_Int_Tables_number 1

loop_
_symmetry_equiv_pos_as_xyz
'x,y,z'

loop_
_atom_site_label
_atom_site_type_symbol
_atom_site_fract_x
_atom_site_fract_y
_atom_site_fract_z
Ag11	Ag1	0.799600	0.073840	0.396700
N11	N1	0.743200	0.880800	0.548400
C11	C1	0.757900	0.891600	0.458600
H11	H1	0.757000	0.863700	0.420200
N21	N2	0.751200	0.014000	0.280800
C21	C2	0.745100	0.920000	0.596200
H21	H2	0.736600	0.913500	0.660300
N31	N3	0.676900	0.934900	0.157900
N41	N4	0.775700	0.984000	0.472400
C31	C3	0.677200	0.982100	0.168300
H31	H3	0.652200	0.988500	0.133800
C41	C4	0.749000	0.966300	0.265300
C51	C5	0.714800	0.927000	0.205200
H41	H4	0.716900	0.894700	0.196000
C61	C6	0.775200	0.946100	0.419900
C71	C7	0.792400	0.957900	0.324100
H51	H5	0.795600	0.927100	0.297700
H61	H6	0.828900	0.991500	0.320600
C81	C8	0.758600	0.971000	0.561700
H71	H7	0.755900	0.997000	0.600200
C91	C9	0.712400	0.020800	0.226800
H81	H8	0.711500	0.054000	0.232500
Ag21	Ag2	0.466270	0.407170	0.730030
N51	N5	0.409870	0.214130	0.881730
C101	C10	0.424570	0.224930	0.791930
H91	H9	0.423670	0.197030	0.753530
N61	N6	0.417870	0.347330	0.614130
C111	C11	0.411770	0.253330	0.929530
H101	H10	0.403270	0.246830	0.993630
N71	N7	0.343570	0.268230	0.491230
N81	N8	0.442370	0.317330	0.805730
C121	C12	0.343870	0.315430	0.501630
H111	H11	0.318870	0.321830	0.467130
C131	C13	0.415670	0.299630	0.598630
C141	C14	0.381470	0.260330	0.538530
H121	H12	0.383570	0.228030	0.529330
C151	C15	0.441870	0.279430	0.753230
C161	C16	0.459070	0.291230	0.657430
H131	H13	0.462270	0.260430	0.631030
H141	H14	0.495570	0.324830	0.653930
C171	C17	0.425270	0.304330	0.895030
H151	H15	0.422570	0.330330	0.933530
C181	C18	0.379070	0.354130	0.560130
H161	H16	0.378170	0.387330	0.565830
Ag31	Ag3	0.132930	0.740510	0.063370
N91	N9	0.076530	0.547470	0.215070
C191	C19	0.091230	0.558270	0.125270
H171	H17	0.090330	0.530370	0.086870
N101	N10	0.084530	0.680670	0.947470
C201	C20	0.078430	0.586670	0.262870
H181	H18	0.069930	0.580170	0.326970
N111	N11	0.010230	0.601570	0.824570
N121	N12	0.109030	0.650670	0.139070
C211	C21	0.010530	0.648770	0.834970
H191	H19	0.985530	0.655170	0.800470
C221	C22	0.082330	0.632970	0.931970
C231	C23	0.048130	0.593670	0.871870
H201	H20	0.050230	0.561370	0.862670
C241	C24	0.108530	0.612770	0.086570
C251	C25	0.125730	0.624570	0.990770
H211	H21	0.128930	0.593770	0.964370
H221	H22	0.162230	0.658170	0.987270
C261	C26	0.091930	0.637670	0.228370
H231	H23	0.089230	0.663670	0.266870
C271	C27	0.045730	0.687470	0.893470
H241	H24	0.044830	0.720670	0.899170
Ag41	Ag4	0.926160	0.725760	0.396700
N131	N13	0.119200	0.862400	0.548400
C281	C28	0.108400	0.866300	0.458600
H251	H25	0.136300	0.893300	0.420200
N141	N14	0.986000	0.737200	0.280800
C291	C29	0.080000	0.825100	0.596200
H261	H26	0.086500	0.823100	0.660300
N151	N15	0.065100	0.742000	0.157900
N161	N16	0.016000	0.791700	0.472400
C301	C30	0.017900	0.695100	0.168300
H271	H27	0.011500	0.663700	0.133800
C311	C31	0.033700	0.782700	0.265300
C321	C32	0.073000	0.787800	0.205200
H281	H28	0.105300	0.822200	0.196000
C331	C33	0.053900	0.829100	0.419900
C341	C34	0.042100	0.834500	0.324100
H291	H29	0.072900	0.868500	0.297700
H301	H30	0.008500	0.837400	0.320600
C351	C35	0.029000	0.787600	0.561700
H311	H31	0.003000	0.758900	0.600200
C361	C36	0.979200	0.691600	0.226800
H321	H32	0.946000	0.657500	0.232500
Ag51	Ag5	0.592830	0.059090	0.730030
N171	N17	0.785870	0.195730	0.881730
C371	C37	0.775070	0.199630	0.791930
H331	H33	0.802970	0.226630	0.753530
N181	N18	0.652670	0.070530	0.614130
C381	C38	0.746670	0.158430	0.929530
H341	H34	0.753170	0.156430	0.993630
N191	N19	0.731770	0.075330	0.491230
N201	N20	0.682670	0.125030	0.805730
C391	C39	0.684570	0.028430	0.501630
H351	H35	0.678170	0.997030	0.467130
C401	C40	0.700370	0.116030	0.598630
C411	C41	0.739670	0.121130	0.538530
H361	H36	0.771970	0.155530	0.529330
C421	C42	0.720570	0.162430	0.753230
C431	C43	0.708770	0.167830	0.657430
H371	H37	0.739570	0.201830	0.631030
H381	H38	0.675170	0.170730	0.653930
C441	C44	0.695670	0.120930	0.895030
H391	H39	0.669670	0.092230	0.933530
C451	C45	0.645870	0.024930	0.560130
H401	H40	0.612670	0.990830	0.565830
Ag61	Ag6	0.259490	0.392430	0.063370
N211	N21	0.452530	0.529070	0.215070
C461	C46	0.441730	0.532970	0.125270
H411	H41	0.469630	0.559970	0.086870
N221	N22	0.319330	0.403870	0.947470
C471	C47	0.413330	0.491770	0.262870
H421	H42	0.419830	0.489770	0.326970
N231	N23	0.398430	0.408670	0.824570
N241	N24	0.349330	0.458370	0.139070
C481	C48	0.351230	0.361770	0.834970
H431	H43	0.344830	0.330370	0.800470
C491	C49	0.367030	0.449370	0.931970
C501	C50	0.406330	0.454470	0.871870
H441	H44	0.438630	0.488870	0.862670
C511	C51	0.387230	0.495770	0.086570
C521	C52	0.375430	0.501170	0.990770
H451	H45	0.406230	0.535170	0.964370
H461	H46	0.341830	0.504070	0.987270
C531	C53	0.362330	0.454270	0.228370
H471	H47	0.336330	0.425570	0.266870
C541	C54	0.312530	0.358270	0.893470
H481	H48	0.279330	0.324170	0.899170
Ag71	Ag7	0.274240	0.200400	0.396700
N251	N25	0.137600	0.256800	0.548400
C551	C55	0.133700	0.242100	0.458600
H491	H49	0.106700	0.243000	0.420200
N261	N26	0.262800	0.248800	0.280800
C561	C56	0.174900	0.254900	0.596200
H501	H50	0.176900	0.263400	0.660300
N271	N27	0.258000	0.323100	0.157900
N281	N28	0.208300	0.224300	0.472400
C571	C57	0.304900	0.322800	0.168300
H511	H51	0.336300	0.347800	0.133800
C581	C58	0.217300	0.251000	0.265300
C591	C59	0.212200	0.285200	0.205200
H521	H52	0.177800	0.283100	0.196000
C601	C60	0.170900	0.224800	0.419900
C611	C61	0.165500	0.207600	0.324100
H531	H53	0.131500	0.204400	0.297700
H541	H54	0.162600	0.171100	0.320600
C621	C62	0.212400	0.241400	0.561700
H551	H55	0.241100	0.244100	0.600200
C631	C63	0.308400	0.287600	0.226800
H561	H56	0.342500	0.288500	0.232500
Ag81	Ag8	0.940910	0.533730	0.730030
N291	N29	0.804270	0.590130	0.881730
C641	C64	0.800370	0.575430	0.791930
H571	H57	0.773370	0.576330	0.753530
N301	N30	0.929470	0.582130	0.614130
C651	C65	0.841570	0.588230	0.929530
H581	H58	0.843570	0.596730	0.993630
N311	N31	0.924670	0.656430	0.491230
N321	N32	0.874970	0.557630	0.805730
C661	C66	0.971570	0.656130	0.501630
H591	H59	0.002970	0.681130	0.467130
C671	C67	0.883970	0.584330	0.598630
C681	C68	0.878870	0.618530	0.538530
H601	H60	0.844470	0.616430	0.529330
C691	C69	0.837570	0.558130	0.753230
C701	C70	0.832170	0.540930	0.657430
H611	H61	0.798170	0.537730	0.631030
H621	H62	0.829270	0.504430	0.653930
C711	C71	0.879070	0.574730	0.895030
H631	H63	0.907770	0.577430	0.933530
C721	C72	0.975070	0.620930	0.560130
H641	H64	0.009170	0.621830	0.565830
Ag91	Ag9	0.607570	0.867070	0.063370
N331	N33	0.470930	0.923470	0.215070
C731	C73	0.467030	0.908770	0.125270
H651	H65	0.440030	0.909670	0.086870
N341	N34	0.596130	0.915470	0.947470
C741	C74	0.508230	0.921570	0.262870
H661	H66	0.510230	0.930070	0.326970
N351	N35	0.591330	0.989770	0.824570
N361	N36	0.541630	0.890970	0.139070
C751	C75	0.638230	0.989470	0.834970
H671	H67	0.669630	0.014470	0.800470
C761	C76	0.550630	0.917670	0.931970
C771	C77	0.545530	0.951870	0.871870
H681	H68	0.511130	0.949770	0.862670
C781	C78	0.504230	0.891470	0.086570
C791	C79	0.498830	0.874270	0.990770
H691	H69	0.464830	0.871070	0.964370
H701	H70	0.495930	0.837770	0.987270
C801	C80	0.545730	0.908070	0.228370
H711	H71	0.574430	0.910770	0.266870
C811	C81	0.641730	0.954270	0.893470
H721	H72	0.675830	0.955170	0.899170
Ag101	Ag10	0.200400	0.926160	0.603300
N371	N37	0.256800	0.119200	0.451600
C821	C82	0.242100	0.108400	0.541400
H731	H73	0.243000	0.136300	0.579800
N381	N38	0.248800	0.986000	0.719200
C831	C83	0.254900	0.080000	0.403800
H741	H74	0.263400	0.086500	0.339700
N391	N39	0.323100	0.065100	0.842100
N401	N40	0.224300	0.016000	0.527600
C841	C84	0.322800	0.017900	0.831700
H751	H75	0.347800	0.011500	0.866200
C851	C85	0.251000	0.033700	0.734700
C861	C86	0.285200	0.073000	0.794800
H761	H76	0.283100	0.105300	0.804000
C871	C87	0.224800	0.053900	0.580100
C881	C88	0.207600	0.042100	0.675900
H771	H77	0.204400	0.072900	0.702300
H781	H78	0.171100	0.008500	0.679400
C891	C89	0.241400	0.029000	0.438300
H791	H79	0.244100	0.003000	0.399800
C901	C90	0.287600	0.979200	0.773200
H801	H80	0.288500	0.946000	0.767500
Ag111	Ag11	0.867070	0.259490	0.936630
N411	N41	0.923470	0.452530	0.784930
C911	C91	0.908770	0.441730	0.874730
H811	H81	0.909670	0.469630	0.913130
N421	N42	0.915470	0.319330	0.052530
C921	C92	0.921570	0.413330	0.737130
H821	H82	0.930070	0.419830	0.673030
N431	N43	0.989770	0.398430	0.175430
N441	N44	0.890970	0.349330	0.860930
C931	C93	0.989470	0.351230	0.165030
H831	H83	0.014470	0.344830	0.199530
C941	C94	0.917670	0.367030	0.068030
C951	C95	0.951870	0.406330	0.128130
H841	H84	0.949770	0.438630	0.137330
C961	C96	0.891470	0.387230	0.913430
C971	C97	0.874270	0.375430	0.009230
H851	H85	0.871070	0.406230	0.035630
H861	H86	0.837770	0.341830	0.012730
C981	C98	0.908070	0.362330	0.771630
H871	H87	0.910770	0.336330	0.733130
C991	C99	0.954270	0.312530	0.106530
H881	H88	0.955170	0.279330	0.100830
Ag121	Ag12	0.533730	0.592830	0.269970
N451	N45	0.590130	0.785870	0.118270
C1001	C100	0.575430	0.775070	0.208070
H891	H89	0.576330	0.802970	0.246470
N461	N46	0.582130	0.652670	0.385870
C1011	C101	0.588230	0.746670	0.070470
H901	H90	0.596730	0.753170	0.006370
N471	N47	0.656430	0.731770	0.508770
N481	N48	0.557630	0.682670	0.194270
C1021	C102	0.656130	0.684570	0.498370
H911	H91	0.681130	0.678170	0.532870
C1031	C103	0.584330	0.700370	0.401370
C1041	C104	0.618530	0.739670	0.461470
H921	H92	0.616430	0.771970	0.470670
C1051	C105	0.558130	0.720570	0.246770
C1061	C106	0.540930	0.708770	0.342570
H931	H93	0.537730	0.739570	0.368970
H941	H94	0.504430	0.675170	0.346070
C1071	C107	0.574730	0.695670	0.104970
H951	H95	0.577430	0.669670	0.066470
C1081	C108	0.620930	0.645870	0.439870
H961	H96	0.621830	0.612670	0.434170
Ag131	Ag13	0.073840	0.274240	0.603300
N491	N49	0.880800	0.137600	0.451600
C1091	C109	0.891600	0.133700	0.541400
H971	H97	0.863700	0.106700	0.579800
N501	N50	0.014000	0.262800	0.719200
C1101	C110	0.920000	0.174900	0.403800
H981	H98	0.913500	0.176900	0.339700
N511	N51	0.934900	0.258000	0.842100
N521	N52	0.984000	0.208300	0.527600
C1111	C111	0.982100	0.304900	0.831700
H991	H99	0.988500	0.336300	0.866200
C1121	C112	0.966300	0.217300	0.734700
C1131	C113	0.927000	0.212200	0.794800
H1001	H100	0.894700	0.177800	0.804000
C1141	C114	0.946100	0.170900	0.580100
C1151	C115	0.957900	0.165500	0.675900
H1011	H101	0.927100	0.131500	0.702300
H1021	H102	0.991500	0.162600	0.679400
C1161	C116	0.971000	0.212400	0.438300
H1031	H103	0.997000	0.241100	0.399800
C1171	C117	0.020800	0.308400	0.773200
H1041	H104	0.054000	0.342500	0.767500
Ag141	Ag14	0.740510	0.607570	0.936630
N531	N53	0.547470	0.470930	0.784930
C1181	C118	0.558270	0.467030	0.874730
H1051	H105	0.530370	0.440030	0.913130
N541	N54	0.680670	0.596130	0.052530
C1191	C119	0.586670	0.508230	0.737130
H1061	H106	0.580170	0.510230	0.673030
N551	N55	0.601570	0.591330	0.175430
N561	N56	0.650670	0.541630	0.860930
C1201	C120	0.648770	0.638230	0.165030
H1071	H107	0.655170	0.669630	0.199530
C1211	C121	0.632970	0.550630	0.068030
C1221	C122	0.593670	0.545530	0.128130
H1081	H108	0.561370	0.511130	0.137330
C1231	C123	0.612770	0.504230	0.913430
C1241	C124	0.624570	0.498830	0.009230
H1091	H109	0.593770	0.464830	0.035630
H1101	H110	0.658170	0.495930	0.012730
C1251	C125	0.637670	0.545730	0.771630
H1111	H111	0.663670	0.574430	0.733130
C1261	C126	0.687470	0.641730	0.106530
H1121	H112	0.720670	0.675830	0.100830
Ag151	Ag15	0.407170	0.940910	0.269970
N571	N57	0.214130	0.804270	0.118270
C1271	C127	0.224930	0.800370	0.208070
H1131	H113	0.197030	0.773370	0.246470
N581	N58	0.347330	0.929470	0.385870
C1281	C128	0.253330	0.841570	0.070470
H1141	H114	0.246830	0.843570	0.006370
N591	N59	0.268230	0.924670	0.508770
N601	N60	0.317330	0.874970	0.194270
C1291	C129	0.315430	0.971570	0.498370
H1151	H115	0.321830	0.002970	0.532870
C1301	C130	0.299630	0.883970	0.401370
C1311	C131	0.260330	0.878870	0.461470
H1161	H116	0.228030	0.844470	0.470670
C1321	C132	0.279430	0.837570	0.246770
C1331	C133	0.291230	0.832170	0.342570
H1171	H117	0.260430	0.798170	0.368970
H1181	H118	0.324830	0.829270	0.346070
C1341	C134	0.304330	0.879070	0.104970
H1191	H119	0.330330	0.907770	0.066470
C1351	C135	0.354130	0.975070	0.439870
H1201	H120	0.387330	0.009170	0.434170
Ag161	Ag16	0.725760	0.799600	0.603300
N611	N61	0.862400	0.743200	0.451600
C1361	C136	0.866300	0.757900	0.541400
H1211	H121	0.893300	0.757000	0.579800
N621	N62	0.737200	0.751200	0.719200
C1371	C137	0.825100	0.745100	0.403800
H1221	H122	0.823100	0.736600	0.339700
N631	N63	0.742000	0.676900	0.842100
N641	N64	0.791700	0.775700	0.527600
C1381	C138	0.695100	0.677200	0.831700
H1231	H123	0.663700	0.652200	0.866200
C1391	C139	0.782700	0.749000	0.734700
C1401	C140	0.787800	0.714800	0.794800
H1241	H124	0.822200	0.716900	0.804000
C1411	C141	0.829100	0.775200	0.580100
C1421	C142	0.834500	0.792400	0.675900
H1251	H125	0.868500	0.795600	0.702300
H1261	H126	0.837400	0.828900	0.679400
C1431	C143	0.787600	0.758600	0.438300
H1271	H127	0.758900	0.755900	0.399800
C1441	C144	0.691600	0.712400	0.773200
H1281	H128	0.657500	0.711500	0.767500
Ag171	Ag17	0.392430	0.132930	0.936630
N651	N65	0.529070	0.076530	0.784930
C1451	C145	0.532970	0.091230	0.874730
H1291	H129	0.559970	0.090330	0.913130
N661	N66	0.403870	0.084530	0.052530
C1461	C146	0.491770	0.078430	0.737130
H1301	H130	0.489770	0.069930	0.673030
N671	N67	0.408670	0.010230	0.175430
N681	N68	0.458370	0.109030	0.860930
C1471	C147	0.361770	0.010530	0.165030
H1311	H131	0.330370	0.985530	0.199530
C1481	C148	0.449370	0.082330	0.068030
C1491	C149	0.454470	0.048130	0.128130
H1321	H132	0.488870	0.050230	0.137330
C1501	C150	0.495770	0.108530	0.913430
C1511	C151	0.501170	0.125730	0.009230
H1331	H133	0.535170	0.128930	0.035630
H1341	H134	0.504070	0.162230	0.012730
C1521	C152	0.454270	0.091930	0.771630
H1351	H135	0.425570	0.089230	0.733130
C1531	C153	0.358270	0.045730	0.106530
H1361	H136	0.324170	0.044830	0.100830
Ag181	Ag18	0.059090	0.466270	0.269970
N691	N69	0.195730	0.409870	0.118270
C1541	C154	0.199630	0.424570	0.208070
H1371	H137	0.226630	0.423670	0.246470
N701	N70	0.070530	0.417870	0.385870
C1551	C155	0.158430	0.411770	0.070470
H1381	H138	0.156430	0.403270	0.006370
N711	N71	0.075330	0.343570	0.508770
N721	N72	0.125030	0.442370	0.194270
C1561	C156	0.028430	0.343870	0.498370
H1391	H139	0.997030	0.318870	0.532870
C1571	C157	0.116030	0.415670	0.401370
C1581	C158	0.121130	0.381470	0.461470
H1401	H140	0.155530	0.383570	0.470670
C1591	C159	0.162430	0.441870	0.246770
C1601	C160	0.167830	0.459070	0.342570
H1411	H141	0.201830	0.462270	0.368970
H1421	H142	0.170730	0.495570	0.346070
C1611	C161	0.120930	0.425270	0.104970
H1431	H143	0.092230	0.422570	0.066470
C1621	C162	0.024930	0.379070	0.439870
H1441	H144	0.990830	0.378170	0.434170
