data_HUFYIS_clean_PM
_symmetry_space_group_name_H-M	'P1'
_cell_length_a	19.091300
_cell_length_b	19.091300
_cell_length_c	11.792900
_cell_angle_alpha	90.000000
_cell_angle_beta	90.000000
_cell_angle_gamma	120.000000
_symmetry_Int_Tables_number 1

loop_
_symmetry_equiv_pos_as_xyz
'x,y,z'

loop_
_atom_site_label
_atom_site_type_symbol
_atom_site_fract_x
_atom_site_fract_y
_atom_site_fract_z
C11	C1	0.369600	0.784700	0.305600
C21	C2	0.381400	0.736400	0.216000
H11	H1	0.370400	0.751700	0.142500
H21	H2	0.342800	0.679500	0.227600
C31	C3	0.465700	0.748300	0.215200
H31	H3	0.474400	0.730700	0.288400
H41	H4	0.466600	0.711700	0.159000
C41	C4	0.535600	0.828800	0.193000
C51	C5	0.442300	0.562700	0.050400
C61	C6	0.412100	0.520400	0.154400
H51	H5	0.378500	0.463600	0.135500
H61	H6	0.376400	0.537900	0.185900
C71	C7	0.470900	0.525700	0.253600
H71	H7	0.491800	0.577700	0.290600
H81	H8	0.439200	0.484400	0.309200
C81	C8	0.541600	0.515900	0.220200
C91	C9	0.755000	0.286300	0.305900
C101	C10	0.714100	0.272200	0.194800
H91	H9	0.746100	0.262600	0.139600
H101	H10	0.715500	0.321800	0.172800
C111	C11	0.626100	0.202800	0.184400
H111	H11	0.593300	0.200800	0.248400
H121	H12	0.601000	0.205500	0.114200
C121	C12	0.643400	0.133000	0.185200
C131	C13	0.796000	0.546500	0.344900
C141	C14	0.864700	0.568400	0.421500
H131	H13	0.915400	0.607100	0.386100
H141	H14	0.867600	0.521000	0.443800
C151	C15	0.846000	0.605000	0.521100
H151	H15	0.886700	0.618300	0.579200
H161	H16	0.794000	0.565700	0.552600
C161	C16	0.843700	0.684200	0.487300
C171	C17	0.894600	0.905400	0.268600
C181	C18	0.912300	0.948900	0.153200
H171	H17	0.873900	0.910600	0.099300
H181	H18	0.965500	0.959900	0.129600
C191	C19	0.910500	0.031400	0.138900
H191	H19	0.946000	0.070900	0.194100
H201	H20	0.928800	0.053500	0.063600
C201	C20	0.828500	0.013600	0.156000
C211	C21	0.781000	0.879300	0.645200
C221	C22	0.757900	0.915100	0.737000
H211	H21	0.711900	0.918600	0.709700
H221	H22	0.802000	0.970200	0.745300
C231	C23	0.736400	0.880000	0.855600
H231	H23	0.774200	0.863500	0.881400
H241	H24	0.737500	0.919500	0.908300
C241	C24	0.652900	0.808500	0.846900
O11	O1	0.410100	0.814300	0.390400
O21	O2	0.306600	0.798600	0.319800
O31	O3	0.608300	0.845300	0.202600
O41	O4	0.517200	0.880700	0.155900
H251	H25	0.480800	0.886700	0.207100
O51	O5	0.411600	0.555300	0.961000
O61	O6	0.512100	0.629100	0.041800
H261	H26	0.557100	0.620300	0.056900
O71	O7	0.550900	0.494300	0.115900
O81	O8	0.590100	0.533400	0.299000
O91	O9	0.818400	0.351900	0.312100
O101	O10	0.718900	0.239000	0.396100
O111	O11	0.707800	0.135000	0.172300
O121	O12	0.584800	0.061700	0.166000
O131	O13	0.735400	0.546600	0.369900
O141	O14	0.808100	0.519000	0.250100
O151	O15	0.815100	0.702700	0.569000
O161	O16	0.867700	0.723600	0.403100
H271	H27	0.836600	0.694100	0.337100
O171	O17	0.873900	0.835800	0.270900
O181	O18	0.881600	0.943000	0.353100
O191	O19	0.765600	0.946200	0.181900
O201	O20	0.816100	0.073000	0.154900
O211	O21	0.789900	0.916100	0.558000
O221	O22	0.793900	0.820200	0.672300
O231	O23	0.616400	0.789700	0.762700
O241	O24	0.644900	0.763400	0.935700
U11	U1	0.511800	0.667580	0.851050
U21	U2	0.678820	0.506070	0.182160
U31	U3	0.835080	0.828710	0.466760
U41	U4	0.667540	0.989660	0.174760
H281	H28	0.808500	0.468400	0.253200
C251	C25	0.215300	0.584900	0.972270
C261	C26	0.263600	0.645000	0.882670
H291	H29	0.248300	0.618700	0.809170
H301	H30	0.320500	0.663300	0.894270
C271	C27	0.251700	0.717400	0.881870
H311	H31	0.269300	0.743700	0.955070
H321	H32	0.288300	0.754900	0.825670
C281	C28	0.171200	0.706800	0.859670
C291	C29	0.437300	0.879600	0.717070
C301	C30	0.479600	0.891700	0.821070
H331	H33	0.536400	0.914900	0.802170
H341	H34	0.462100	0.838500	0.852570
C311	C31	0.474300	0.945200	0.920270
H351	H35	0.422300	0.914100	0.957270
H361	H36	0.515600	0.954800	0.975870
C321	C32	0.484100	0.025700	0.886870
C331	C33	0.713700	0.468700	0.972570
C341	C34	0.727800	0.441900	0.861470
H371	H37	0.737400	0.483500	0.806270
H381	H38	0.678200	0.393700	0.839470
C351	C35	0.797200	0.423300	0.851070
H391	H39	0.799200	0.392500	0.915070
H401	H40	0.794500	0.395500	0.780870
C361	C36	0.867000	0.510400	0.851870
C371	C37	0.453500	0.249500	0.011570
C381	C38	0.431600	0.296300	0.088170
H411	H41	0.392900	0.308300	0.052770
H421	H42	0.479000	0.346600	0.110470
C391	C39	0.395000	0.241000	0.187770
H431	H43	0.381700	0.268400	0.245870
H441	H44	0.434300	0.228300	0.219270
C401	C40	0.315800	0.159500	0.153970
C411	C41	0.094600	0.989200	0.935270
C421	C42	0.051100	0.963400	0.819870
H451	H45	0.089400	0.963300	0.765970
H461	H46	0.040100	0.005600	0.796270
C431	C43	0.968600	0.879100	0.805570
H471	H47	0.929100	0.875100	0.860770
H481	H48	0.946500	0.875300	0.730270
C441	C44	0.986400	0.814900	0.822670
C451	C45	0.120700	0.901700	0.311870
C461	C46	0.084900	0.842800	0.403670
H491	H49	0.081400	0.793300	0.376370
H501	H50	0.029800	0.831800	0.411970
C471	C47	0.120000	0.856400	0.522270
H511	H51	0.136500	0.910700	0.548070
H521	H52	0.080500	0.818000	0.574970
C481	C48	0.191500	0.844400	0.513570
O251	O25	0.185700	0.595800	0.057070
O261	O26	0.201400	0.508000	0.986470
O271	O27	0.154700	0.763000	0.869270
O281	O28	0.119300	0.636500	0.822570
H531	H53	0.113300	0.594100	0.873770
O291	O29	0.444700	0.856300	0.627670
O301	O30	0.370900	0.883000	0.708470
H541	H54	0.379700	0.936800	0.723570
O311	O31	0.505700	0.056600	0.782570
O321	O32	0.466600	0.056700	0.965670
O331	O33	0.648100	0.466500	0.978770
O341	O34	0.761000	0.479900	0.062770
O351	O35	0.865000	0.572800	0.838970
O361	O36	0.938300	0.523100	0.832670
O371	O37	0.453400	0.188800	0.036570
O381	O38	0.481000	0.289100	0.916770
O391	O39	0.297300	0.112400	0.235670
O401	O40	0.276400	0.144100	0.069770
H551	H55	0.305900	0.142500	0.003770
O411	O41	0.164200	0.038100	0.937570
O421	O42	0.057000	0.938600	0.019770
O431	O43	0.053800	0.819400	0.848570
O441	O44	0.927000	0.743100	0.821570
O451	O45	0.083900	0.873800	0.224670
O461	O46	0.179800	0.973700	0.338970
O471	O47	0.210300	0.826700	0.429370
O481	O48	0.236600	0.881500	0.602370
U51	U5	0.332420	0.844220	0.517720
U61	U6	0.493930	0.172750	0.848830
U71	U7	0.171290	0.006370	0.133430
U81	U8	0.010340	0.677880	0.841430
H561	H56	0.531600	0.340100	0.919870
C491	C49	0.415100	0.630400	0.638930
C501	C50	0.355000	0.618600	0.549330
H571	H57	0.381300	0.629600	0.475830
H581	H58	0.336700	0.657200	0.560930
C511	C51	0.282600	0.534300	0.548530
H591	H59	0.256300	0.525600	0.621730
H601	H60	0.245100	0.533400	0.492330
C521	C52	0.293200	0.464400	0.526330
C531	C53	0.120400	0.557700	0.383730
C541	C54	0.108300	0.587900	0.487730
H611	H61	0.085100	0.621500	0.468830
H621	H62	0.161500	0.623600	0.519230
C551	C55	0.054800	0.529100	0.586930
H631	H63	0.085900	0.508200	0.623930
H641	H64	0.045200	0.560800	0.642530
C561	C56	0.974300	0.458400	0.553530
C571	C57	0.531300	0.245000	0.639230
C581	C58	0.558100	0.285900	0.528130
H651	H65	0.516500	0.253900	0.472930
H661	H66	0.606300	0.284500	0.506130
C591	C59	0.576700	0.373900	0.517730
H671	H67	0.607500	0.406700	0.581730
H681	H68	0.604500	0.399000	0.447530
C601	C60	0.489600	0.356600	0.518530
C611	C61	0.750500	0.204000	0.678230
C621	C62	0.703700	0.135300	0.754830
H691	H69	0.691700	0.084600	0.719430
H701	H70	0.653400	0.132400	0.777130
C631	C63	0.759000	0.154000	0.854430
H711	H71	0.731600	0.113300	0.912530
H721	H72	0.771700	0.206000	0.885930
C641	C64	0.840500	0.156300	0.820630
C651	C65	0.010800	0.105400	0.601930
C661	C66	0.036600	0.087700	0.486530
H731	H73	0.036700	0.126100	0.432630
H741	H74	0.994400	0.034500	0.462930
C671	C67	0.120900	0.089500	0.472230
H751	H75	0.124900	0.054000	0.527430
H761	H76	0.124700	0.071200	0.396930
C681	C68	0.185100	0.171500	0.489330
C691	C69	0.098300	0.219000	0.978530
C701	C70	0.157200	0.242100	0.070330
H771	H77	0.206700	0.288100	0.043030
H781	H78	0.168200	0.198000	0.078630
C711	C71	0.143600	0.263600	0.188930
H791	H79	0.089300	0.225800	0.214730
H801	H80	0.182000	0.262500	0.241630
C721	C72	0.155600	0.347100	0.180230
O491	O49	0.404200	0.589900	0.723730
O501	O50	0.492000	0.693400	0.653130
O511	O51	0.237000	0.391700	0.535930
O521	O52	0.363500	0.482800	0.489230
H811	H81	0.405900	0.519200	0.540430
O531	O53	0.143700	0.588400	0.294330
O541	O54	0.117000	0.487900	0.375130
H821	H82	0.063200	0.442900	0.390230
O551	O55	0.943400	0.449100	0.449230
O561	O56	0.943300	0.409900	0.632330
O571	O57	0.533500	0.181600	0.645430
O581	O58	0.520100	0.281100	0.729430
O591	O59	0.427200	0.292200	0.505630
O601	O60	0.476900	0.415200	0.499330
O611	O61	0.811200	0.264600	0.703230
O621	O62	0.710900	0.191900	0.583430
O631	O63	0.887600	0.184900	0.902330
O641	O64	0.855900	0.132300	0.736430
H831	H83	0.857500	0.163400	0.670430
O651	O65	0.961900	0.126100	0.604230
O661	O66	0.061400	0.118400	0.686430
O671	O67	0.180600	0.234400	0.515230
O681	O68	0.256900	0.183900	0.488230
O691	O69	0.126200	0.210100	0.891330
O701	O70	0.026300	0.206100	0.005630
O711	O71	0.173300	0.383600	0.096030
O721	O72	0.118500	0.355100	0.269030
U91	U9	0.155780	0.488200	0.184380
U101	U10	0.827250	0.321180	0.515490
U111	U11	0.993630	0.164920	0.800090
U121	U12	0.322120	0.332460	0.508090
H841	H84	0.659900	0.191500	0.586530
