data_HUHJAW_clean_PM
_symmetry_space_group_name_H-M	'P1'
_cell_length_a	7.872400
_cell_length_b	9.288400
_cell_length_c	9.460700
_cell_angle_alpha	93.360800
_cell_angle_beta	114.586000
_cell_angle_gamma	81.899900
_symmetry_Int_Tables_number 1

loop_
_symmetry_equiv_pos_as_xyz
'x,y,z'

loop_
_atom_site_label
_atom_site_type_symbol
_atom_site_fract_x
_atom_site_fract_y
_atom_site_fract_z
Cd11	Cd1	0.000000	0.500000	0.500000
Cd21	Cd2	0.500000	0.500000	0.500000
Cd31	Cd3	0.500000	0.000000	0.000000
H11	H1	0.056800	0.223000	0.248800
H21	H2	0.944600	0.102600	0.140600
H31	H3	0.114400	0.078900	0.470000
H41	H4	0.014600	0.956900	0.357400
H51	H5	0.192000	0.777000	0.248800
H61	H6	0.196000	0.897400	0.140600
H71	H7	0.355600	0.921100	0.470000
H81	H8	0.342800	0.043100	0.357400
H91	H9	0.943200	0.777000	0.751200
H101	H10	0.055400	0.897400	0.859400
H111	H11	0.885600	0.921100	0.530000
H121	H12	0.985400	0.043100	0.642600
H131	H13	0.808000	0.223000	0.751200
H141	H14	0.804000	0.102600	0.859400
H151	H15	0.644400	0.078900	0.530000
H161	H16	0.657200	0.956900	0.642600
C11	C1	0.806800	0.213400	0.262800
C21	C2	0.979700	0.147900	0.242000
C31	C3	0.091300	0.033700	0.369800
C41	C4	0.456000	0.786600	0.262800
C51	C5	0.262300	0.852100	0.242000
C61	C6	0.278500	0.966300	0.369800
C71	C7	0.193200	0.786600	0.737200
C81	C8	0.020300	0.852100	0.758000
C91	C9	0.908700	0.966300	0.630200
C101	C10	0.544000	0.213400	0.737200
C111	C11	0.737700	0.147900	0.758000
C121	C12	0.721500	0.033700	0.630200
N11	N1	0.622700	0.336300	0.353200
N21	N2	0.525300	0.245200	0.251600
N31	N3	0.638700	0.166300	0.193000
N41	N4	0.802000	0.319600	0.364000
N51	N5	0.730500	0.663700	0.353200
N61	N6	0.726300	0.754800	0.251600
N71	N7	0.554300	0.833700	0.193000
N81	N8	0.562000	0.680400	0.364000
N91	N9	0.377300	0.663700	0.646800
N101	N10	0.474700	0.754800	0.748400
N111	N11	0.361300	0.833700	0.807000
N121	N12	0.198000	0.680400	0.636000
N131	N13	0.269500	0.336300	0.646800
N141	N14	0.273700	0.245200	0.748400
N151	N15	0.445700	0.166300	0.807000
N161	N16	0.438000	0.319600	0.636000
Cl11	Cl1	0.149030	0.500000	0.298060
Cl21	Cl2	0.850970	0.500000	0.701940
