data_HUJGEA_clean_PM
_symmetry_space_group_name_H-M	'P1'
_cell_length_a	17.925700
_cell_length_b	17.925700
_cell_length_c	28.062700
_cell_angle_alpha	90.000000
_cell_angle_beta	90.000000
_cell_angle_gamma	90.000000
_symmetry_Int_Tables_number 1

loop_
_symmetry_equiv_pos_as_xyz
'x,y,z'

loop_
_atom_site_label
_atom_site_type_symbol
_atom_site_fract_x
_atom_site_fract_y
_atom_site_fract_z
O11	O1	0.683680	0.681580	0.303190
O21	O2	0.807010	0.665710	0.294510
O31	O3	0.551940	0.555850	0.434630
O41	O4	0.620510	0.487950	0.485560
C11	C1	0.745150	0.652540	0.313530
C21	C2	0.744280	0.596460	0.353390
C31	C3	0.809460	0.558820	0.365680
H11	H1	0.853300	0.566100	0.347300
C41	C4	0.811140	0.511290	0.404160
C51	C5	0.746710	0.501250	0.430510
H21	H2	0.747700	0.469000	0.457400
C61	C6	0.679940	0.537410	0.418610
C71	C7	0.679640	0.584890	0.379510
H31	H3	0.634900	0.609600	0.370600
C81	C8	0.612050	0.525960	0.448660
C91	C9	0.882300	0.476430	0.421270
C101	C10	0.915780	0.509770	0.459530
H41	H4	0.893800	0.553200	0.473000
H51	H5	0.847800	0.285000	0.389800
O51	O5	0.816320	0.818420	0.303190
O61	O6	0.692990	0.834290	0.294510
O71	O7	0.948060	0.944150	0.434630
O81	O8	0.879490	0.012050	0.485560
C111	C11	0.754850	0.847460	0.313530
C121	C12	0.755720	0.903540	0.353390
C131	C13	0.690540	0.941180	0.365680
H61	H6	0.646700	0.933900	0.347300
C141	C14	0.688860	0.988710	0.404160
C151	C15	0.753290	0.998750	0.430510
H71	H7	0.752300	0.031000	0.457400
C161	C16	0.820060	0.962590	0.418610
C171	C17	0.820360	0.915110	0.379510
H81	H8	0.865100	0.890400	0.370600
C181	C18	0.887950	0.974040	0.448660
C191	C19	0.617700	0.023570	0.421270
C201	C20	0.584220	0.990230	0.459530
H91	H9	0.606200	0.946800	0.473000
H101	H10	0.652200	0.215000	0.389800
O91	O9	0.818420	0.683680	0.803190
O101	O10	0.834290	0.807010	0.794510
O111	O11	0.944150	0.551940	0.934630
O121	O12	0.012050	0.620510	0.985560
C211	C21	0.847460	0.745150	0.813530
C221	C22	0.903540	0.744280	0.853390
C231	C23	0.941180	0.809460	0.865680
H111	H11	0.933900	0.853300	0.847300
C241	C24	0.988710	0.811140	0.904160
C251	C25	0.998750	0.746710	0.930510
H121	H12	0.031000	0.747700	0.957400
C261	C26	0.962590	0.679940	0.918610
C271	C27	0.915110	0.679640	0.879510
H131	H13	0.890400	0.634900	0.870600
C281	C28	0.974040	0.612050	0.948660
C291	C29	0.023570	0.882300	0.921270
C301	C30	0.990230	0.915780	0.959530
H141	H14	0.946800	0.893800	0.973000
H151	H15	0.215000	0.847800	0.889800
O131	O13	0.681580	0.816320	0.803190
O141	O14	0.665710	0.692990	0.794510
O151	O15	0.555850	0.948060	0.934630
O161	O16	0.487950	0.879490	0.985560
C311	C31	0.652540	0.754850	0.813530
C321	C32	0.596460	0.755720	0.853390
C331	C33	0.558820	0.690540	0.865680
H161	H16	0.566100	0.646700	0.847300
C341	C34	0.511290	0.688860	0.904160
C351	C35	0.501250	0.753290	0.930510
H171	H17	0.469000	0.752300	0.957400
C361	C36	0.537410	0.820060	0.918610
C371	C37	0.584890	0.820360	0.879510
H181	H18	0.609600	0.865100	0.870600
C381	C38	0.525960	0.887950	0.948660
C391	C39	0.476430	0.617700	0.921270
C401	C40	0.509770	0.584220	0.959530
H191	H19	0.553200	0.606200	0.973000
H201	H20	0.285000	0.652200	0.889800
O171	O17	0.816320	0.681580	0.196810
O181	O18	0.692990	0.665710	0.205490
O191	O19	0.948060	0.555850	0.065370
O201	O20	0.879490	0.487950	0.014440
C411	C41	0.754850	0.652540	0.186470
C421	C42	0.755720	0.596460	0.146610
C431	C43	0.690540	0.558820	0.134320
H211	H21	0.646700	0.566100	0.152700
C441	C44	0.688860	0.511290	0.095840
C451	C45	0.753290	0.501250	0.069490
H221	H22	0.752300	0.469000	0.042600
C461	C46	0.820060	0.537410	0.081390
C471	C47	0.820360	0.584890	0.120490
H231	H23	0.865100	0.609600	0.129400
C481	C48	0.887950	0.525960	0.051340
C491	C49	0.617700	0.476430	0.078730
C501	C50	0.584220	0.509770	0.040470
H241	H24	0.606200	0.553200	0.027000
H251	H25	0.652200	0.285000	0.110200
O211	O21	0.683680	0.818420	0.196810
O221	O22	0.807010	0.834290	0.205490
O231	O23	0.551940	0.944150	0.065370
O241	O24	0.620510	0.012050	0.014440
C511	C51	0.745150	0.847460	0.186470
C521	C52	0.744280	0.903540	0.146610
C531	C53	0.809460	0.941180	0.134320
H261	H26	0.853300	0.933900	0.152700
C541	C54	0.811140	0.988710	0.095840
C551	C55	0.746710	0.998750	0.069490
H271	H27	0.747700	0.031000	0.042600
C561	C56	0.679940	0.962590	0.081390
C571	C57	0.679640	0.915110	0.120490
H281	H28	0.634900	0.890400	0.129400
C581	C58	0.612050	0.974040	0.051340
C591	C59	0.882300	0.023570	0.078730
C601	C60	0.915780	0.990230	0.040470
H291	H29	0.893800	0.946800	0.027000
H301	H30	0.847800	0.215000	0.110200
O251	O25	0.681580	0.683680	0.696810
O261	O26	0.665710	0.807010	0.705490
O271	O27	0.555850	0.551940	0.565370
O281	O28	0.487950	0.620510	0.514440
C611	C61	0.652540	0.745150	0.686470
C621	C62	0.596460	0.744280	0.646610
C631	C63	0.558820	0.809460	0.634320
H311	H31	0.566100	0.853300	0.652700
C641	C64	0.511290	0.811140	0.595840
C651	C65	0.501250	0.746710	0.569490
H321	H32	0.469000	0.747700	0.542600
C661	C66	0.537410	0.679940	0.581390
C671	C67	0.584890	0.679640	0.620490
H331	H33	0.609600	0.634900	0.629400
C681	C68	0.525960	0.612050	0.551340
C691	C69	0.476430	0.882300	0.578730
C701	C70	0.509770	0.915780	0.540470
H341	H34	0.553200	0.893800	0.527000
H351	H35	0.285000	0.847800	0.610200
O291	O29	0.818420	0.816320	0.696810
O301	O30	0.834290	0.692990	0.705490
O311	O31	0.944150	0.948060	0.565370
O321	O32	0.012050	0.879490	0.514440
C711	C71	0.847460	0.754850	0.686470
C721	C72	0.903540	0.755720	0.646610
C731	C73	0.941180	0.690540	0.634320
H361	H36	0.933900	0.646700	0.652700
C741	C74	0.988710	0.688860	0.595840
C751	C75	0.998750	0.753290	0.569490
H371	H37	0.031000	0.752300	0.542600
C761	C76	0.962590	0.820060	0.581390
C771	C77	0.915110	0.820360	0.620490
H381	H38	0.890400	0.865100	0.629400
C781	C78	0.974040	0.887950	0.551340
C791	C79	0.023570	0.617700	0.578730
C801	C80	0.990230	0.584220	0.540470
H391	H39	0.946800	0.606200	0.527000
H401	H40	0.215000	0.652200	0.610200
O331	O33	0.316320	0.318420	0.696810
O341	O34	0.192990	0.334290	0.705490
O351	O35	0.448060	0.444150	0.565370
O361	O36	0.379490	0.512050	0.514440
C811	C81	0.254850	0.347460	0.686470
C821	C82	0.255720	0.403540	0.646610
C831	C83	0.190540	0.441180	0.634320
H411	H41	0.146700	0.433900	0.652700
C841	C84	0.188860	0.488710	0.595840
C851	C85	0.253290	0.498750	0.569490
H421	H42	0.252300	0.531000	0.542600
C861	C86	0.320060	0.462590	0.581390
C871	C87	0.320360	0.415110	0.620490
H431	H43	0.365100	0.390400	0.629400
C881	C88	0.387950	0.474040	0.551340
C891	C89	0.117700	0.523570	0.578730
C901	C90	0.084220	0.490230	0.540470
H441	H44	0.106200	0.446800	0.527000
H451	H45	0.152200	0.715000	0.610200
O371	O37	0.183680	0.181580	0.696810
O381	O38	0.307010	0.165710	0.705490
O391	O39	0.051940	0.055850	0.565370
O401	O40	0.120510	0.987950	0.514440
C911	C91	0.245150	0.152540	0.686470
C921	C92	0.244280	0.096460	0.646610
C931	C93	0.309460	0.058820	0.634320
H461	H46	0.353300	0.066100	0.652700
C941	C94	0.311140	0.011290	0.595840
C951	C95	0.246710	0.001250	0.569490
H471	H47	0.247700	0.969000	0.542600
C961	C96	0.179940	0.037410	0.581390
C971	C97	0.179640	0.084890	0.620490
H481	H48	0.134900	0.109600	0.629400
C981	C98	0.112050	0.025960	0.551340
C991	C99	0.382300	0.976430	0.578730
C1001	C100	0.415780	0.009770	0.540470
H491	H49	0.393800	0.053200	0.527000
H501	H50	0.347800	0.785000	0.610200
O411	O41	0.181580	0.316320	0.196810
O421	O42	0.165710	0.192990	0.205490
O431	O43	0.055850	0.448060	0.065370
O441	O44	0.987950	0.379490	0.014440
C1011	C101	0.152540	0.254850	0.186470
C1021	C102	0.096460	0.255720	0.146610
C1031	C103	0.058820	0.190540	0.134320
H511	H51	0.066100	0.146700	0.152700
C1041	C104	0.011290	0.188860	0.095840
C1051	C105	0.001250	0.253290	0.069490
H521	H52	0.969000	0.252300	0.042600
C1061	C106	0.037410	0.320060	0.081390
C1071	C107	0.084890	0.320360	0.120490
H531	H53	0.109600	0.365100	0.129400
C1081	C108	0.025960	0.387950	0.051340
C1091	C109	0.976430	0.117700	0.078730
C1101	C110	0.009770	0.084220	0.040470
H541	H54	0.053200	0.106200	0.027000
H551	H55	0.785000	0.152200	0.110200
O451	O45	0.318420	0.183680	0.196810
O461	O46	0.334290	0.307010	0.205490
O471	O47	0.444150	0.051940	0.065370
O481	O48	0.512050	0.120510	0.014440
C1111	C111	0.347460	0.245150	0.186470
C1121	C112	0.403540	0.244280	0.146610
C1131	C113	0.441180	0.309460	0.134320
H561	H56	0.433900	0.353300	0.152700
C1141	C114	0.488710	0.311140	0.095840
C1151	C115	0.498750	0.246710	0.069490
H571	H57	0.531000	0.247700	0.042600
C1161	C116	0.462590	0.179940	0.081390
C1171	C117	0.415110	0.179640	0.120490
H581	H58	0.390400	0.134900	0.129400
C1181	C118	0.474040	0.112050	0.051340
C1191	C119	0.523570	0.382300	0.078730
C1201	C120	0.490230	0.415780	0.040470
H591	H59	0.446800	0.393800	0.027000
H601	H60	0.715000	0.347800	0.110200
O491	O49	0.183680	0.318420	0.803190
O501	O50	0.307010	0.334290	0.794510
O511	O51	0.051940	0.444150	0.934630
O521	O52	0.120510	0.512050	0.985560
C1211	C121	0.245150	0.347460	0.813530
C1221	C122	0.244280	0.403540	0.853390
C1231	C123	0.309460	0.441180	0.865680
H611	H61	0.353300	0.433900	0.847300
C1241	C124	0.311140	0.488710	0.904160
C1251	C125	0.246710	0.498750	0.930510
H621	H62	0.247700	0.531000	0.957400
C1261	C126	0.179940	0.462590	0.918610
C1271	C127	0.179640	0.415110	0.879510
H631	H63	0.134900	0.390400	0.870600
C1281	C128	0.112050	0.474040	0.948660
C1291	C129	0.382300	0.523570	0.921270
C1301	C130	0.415780	0.490230	0.959530
H641	H64	0.393800	0.446800	0.973000
H651	H65	0.347800	0.715000	0.889800
O531	O53	0.316320	0.181580	0.803190
O541	O54	0.192990	0.165710	0.794510
O551	O55	0.448060	0.055850	0.934630
O561	O56	0.379490	0.987950	0.985560
C1311	C131	0.254850	0.152540	0.813530
C1321	C132	0.255720	0.096460	0.853390
C1331	C133	0.190540	0.058820	0.865680
H661	H66	0.146700	0.066100	0.847300
C1341	C134	0.188860	0.011290	0.904160
C1351	C135	0.253290	0.001250	0.930510
H671	H67	0.252300	0.969000	0.957400
C1361	C136	0.320060	0.037410	0.918610
C1371	C137	0.320360	0.084890	0.879510
H681	H68	0.365100	0.109600	0.870600
C1381	C138	0.387950	0.025960	0.948660
C1391	C139	0.117700	0.976430	0.921270
C1401	C140	0.084220	0.009770	0.959530
H691	H69	0.106200	0.053200	0.973000
H701	H70	0.152200	0.785000	0.889800
O571	O57	0.318420	0.316320	0.303190
O581	O58	0.334290	0.192990	0.294510
O591	O59	0.444150	0.448060	0.434630
O601	O60	0.512050	0.379490	0.485560
C1411	C141	0.347460	0.254850	0.313530
C1421	C142	0.403540	0.255720	0.353390
C1431	C143	0.441180	0.190540	0.365680
H711	H71	0.433900	0.146700	0.347300
C1441	C144	0.488710	0.188860	0.404160
C1451	C145	0.498750	0.253290	0.430510
H721	H72	0.531000	0.252300	0.457400
C1461	C146	0.462590	0.320060	0.418610
C1471	C147	0.415110	0.320360	0.379510
H731	H73	0.390400	0.365100	0.370600
C1481	C148	0.474040	0.387950	0.448660
C1491	C149	0.523570	0.117700	0.421270
C1501	C150	0.490230	0.084220	0.459530
H741	H74	0.446800	0.106200	0.473000
H751	H75	0.715000	0.152200	0.389800
O611	O61	0.181580	0.183680	0.303190
O621	O62	0.165710	0.307010	0.294510
O631	O63	0.055850	0.051940	0.434630
O641	O64	0.987950	0.120510	0.485560
C1511	C151	0.152540	0.245150	0.313530
C1521	C152	0.096460	0.244280	0.353390
C1531	C153	0.058820	0.309460	0.365680
H761	H76	0.066100	0.353300	0.347300
C1541	C154	0.011290	0.311140	0.404160
C1551	C155	0.001250	0.246710	0.430510
H771	H77	0.969000	0.247700	0.457400
C1561	C156	0.037410	0.179940	0.418610
C1571	C157	0.084890	0.179640	0.379510
H781	H78	0.109600	0.134900	0.370600
C1581	C158	0.025960	0.112050	0.448660
C1591	C159	0.976430	0.382300	0.421270
C1601	C160	0.009770	0.415780	0.459530
H791	H79	0.053200	0.393800	0.473000
H801	H80	0.785000	0.347800	0.389800
Cu11	Cu1	0.459440	0.540560	0.470320
Cu21	Cu2	0.040560	0.959440	0.470320
Cu31	Cu3	0.959440	0.459440	0.970320
Cu41	Cu4	0.540560	0.040560	0.970320
Cu51	Cu5	0.040560	0.540560	0.029680
Cu61	Cu6	0.459440	0.959440	0.029680
Cu71	Cu7	0.540560	0.459440	0.529680
Cu81	Cu8	0.959440	0.040560	0.529680
Cu91	Cu9	0.675680	0.750000	0.250000
Cu101	Cu10	0.824320	0.750000	0.250000
Cu111	Cu11	0.750000	0.675680	0.750000
Cu121	Cu12	0.750000	0.824320	0.750000
Cu131	Cu13	0.324320	0.250000	0.750000
Cu141	Cu14	0.175680	0.250000	0.750000
Cu151	Cu15	0.250000	0.324320	0.250000
Cu161	Cu16	0.250000	0.175680	0.250000
O651	O65	0.880400	0.380400	0.361150
C1611	C161	0.981660	0.481660	0.479460
C1621	C162	0.913050	0.413050	0.401430
C1631	C163	0.825400	0.325400	0.371100
H811	H81	0.805600	0.305600	0.341100
O661	O66	0.619600	0.119600	0.361150
C1641	C164	0.518340	0.018340	0.479460
C1651	C165	0.586950	0.086950	0.401430
C1661	C166	0.674600	0.174600	0.371100
H821	H82	0.694400	0.194400	0.341100
O671	O67	0.119600	0.880400	0.861150
C1671	C167	0.018340	0.981660	0.979460
C1681	C168	0.086950	0.913050	0.901430
C1691	C169	0.174600	0.825400	0.871100
H831	H83	0.194400	0.805600	0.841100
O681	O68	0.380400	0.619600	0.861150
C1701	C170	0.481660	0.518340	0.979460
C1711	C171	0.413050	0.586950	0.901430
C1721	C172	0.325400	0.674600	0.871100
H841	H84	0.305600	0.694400	0.841100
O691	O69	0.619600	0.380400	0.138850
C1731	C173	0.518340	0.481660	0.020540
C1741	C174	0.586950	0.413050	0.098570
C1751	C175	0.674600	0.325400	0.128900
H851	H85	0.694400	0.305600	0.158900
O701	O70	0.880400	0.119600	0.138850
C1761	C176	0.981660	0.018340	0.020540
C1771	C177	0.913050	0.086950	0.098570
C1781	C178	0.825400	0.174600	0.128900
H861	H86	0.805600	0.194400	0.158900
O711	O71	0.380400	0.880400	0.638850
C1791	C179	0.481660	0.981660	0.520540
C1801	C180	0.413050	0.913050	0.598570
C1811	C181	0.325400	0.825400	0.628900
H871	H87	0.305600	0.805600	0.658900
O721	O72	0.119600	0.619600	0.638850
C1821	C182	0.018340	0.518340	0.520540
C1831	C183	0.086950	0.586950	0.598570
C1841	C184	0.174600	0.674600	0.628900
H881	H88	0.194400	0.694400	0.658900
