data_HUMWIX_clean_PM
_symmetry_space_group_name_H-M	'P1'
_cell_length_a	22.709800
_cell_length_b	22.709800
_cell_length_c	22.709800
_cell_angle_alpha	90.000000
_cell_angle_beta	90.000000
_cell_angle_gamma	90.000000
_symmetry_Int_Tables_number 1

loop_
_symmetry_equiv_pos_as_xyz
'x,y,z'

loop_
_atom_site_label
_atom_site_type_symbol
_atom_site_fract_x
_atom_site_fract_y
_atom_site_fract_z
O11	O1	0.450660	0.379900	0.069520
C11	C1	0.315100	0.316000	0.230280
C21	C2	0.397500	0.397700	0.081110
C31	C3	0.368500	0.368900	0.133000
C41	C4	0.349800	0.309900	0.129500
C51	C5	0.334100	0.377300	0.232800
C61	C6	0.362100	0.401800	0.184600
C71	C7	0.323500	0.284700	0.178800
C81	C8	0.304400	0.220900	0.173200
H11	H1	0.300700	0.203900	0.211800
H21	H2	0.333200	0.199400	0.151100
H31	H3	0.267100	0.219000	0.153400
C91	C9	0.323500	0.415200	0.286900
H41	H4	0.283000	0.412300	0.298400
H51	H5	0.332800	0.455400	0.277900
H61	H6	0.348100	0.401800	0.318500
C101	C10	0.357200	0.276000	0.072000
H71	H7	0.319300	0.263800	0.057900
H81	H8	0.381300	0.241900	0.078800
H91	H9	0.375700	0.300800	0.043300
C111	C11	0.385100	0.465200	0.187400
H101	H10	0.409600	0.469800	0.221500
H111	H11	0.352500	0.491900	0.189800
H121	H12	0.407700	0.473500	0.152600
O21	O2	0.369140	0.433590	0.052420
O31	O3	0.549340	0.620100	0.069520
C121	C12	0.684900	0.684000	0.230280
C131	C13	0.602500	0.602300	0.081110
C141	C14	0.631500	0.631100	0.133000
C151	C15	0.650200	0.690100	0.129500
C161	C16	0.665900	0.622700	0.232800
C171	C17	0.637900	0.598200	0.184600
C181	C18	0.676500	0.715300	0.178800
C191	C19	0.695600	0.779100	0.173200
H131	H13	0.699300	0.796100	0.211800
H141	H14	0.666800	0.800600	0.151100
H151	H15	0.732900	0.781000	0.153400
C201	C20	0.676500	0.584800	0.286900
H161	H16	0.717000	0.587700	0.298400
H171	H17	0.667200	0.544600	0.277900
H181	H18	0.651900	0.598200	0.318500
C211	C21	0.642800	0.724000	0.072000
H191	H19	0.680700	0.736200	0.057900
H201	H20	0.618700	0.758100	0.078800
H211	H21	0.624300	0.699200	0.043300
C221	C22	0.614900	0.534800	0.187400
H221	H22	0.590400	0.530200	0.221500
H231	H23	0.647500	0.508100	0.189800
H241	H24	0.592300	0.526500	0.152600
O41	O4	0.630860	0.566410	0.052420
O51	O5	0.549340	0.379900	0.930480
C231	C23	0.684900	0.316000	0.769720
C241	C24	0.602500	0.397700	0.918890
C251	C25	0.631500	0.368900	0.867000
C261	C26	0.650200	0.309900	0.870500
C271	C27	0.665900	0.377300	0.767200
C281	C28	0.637900	0.401800	0.815400
C291	C29	0.676500	0.284700	0.821200
C301	C30	0.695600	0.220900	0.826800
H251	H25	0.699300	0.203900	0.788200
H261	H26	0.666800	0.199400	0.848900
H271	H27	0.732900	0.219000	0.846600
C311	C31	0.676500	0.415200	0.713100
H281	H28	0.717000	0.412300	0.701600
H291	H29	0.667200	0.455400	0.722100
H301	H30	0.651900	0.401800	0.681500
C321	C32	0.642800	0.276000	0.928000
H311	H31	0.680700	0.263800	0.942100
H321	H32	0.618700	0.241900	0.921200
H331	H33	0.624300	0.300800	0.956700
C331	C33	0.614900	0.465200	0.812600
H341	H34	0.590400	0.469800	0.778500
H351	H35	0.647500	0.491900	0.810200
H361	H36	0.592300	0.473500	0.847400
O61	O6	0.630860	0.433590	0.947580
O71	O7	0.450660	0.620100	0.930480
C341	C34	0.315100	0.684000	0.769720
C351	C35	0.397500	0.602300	0.918890
C361	C36	0.368500	0.631100	0.867000
C371	C37	0.349800	0.690100	0.870500
C381	C38	0.334100	0.622700	0.767200
C391	C39	0.362100	0.598200	0.815400
C401	C40	0.323500	0.715300	0.821200
C411	C41	0.304400	0.779100	0.826800
H371	H37	0.300700	0.796100	0.788200
H381	H38	0.333200	0.800600	0.848900
H391	H39	0.267100	0.781000	0.846600
C421	C42	0.323500	0.584800	0.713100
H401	H40	0.283000	0.587700	0.701600
H411	H41	0.332800	0.544600	0.722100
H421	H42	0.348100	0.598200	0.681500
C431	C43	0.357200	0.724000	0.928000
H431	H43	0.319300	0.736200	0.942100
H441	H44	0.381300	0.758100	0.921200
H451	H45	0.375700	0.699200	0.956700
C441	C44	0.385100	0.534800	0.812600
H461	H46	0.409600	0.530200	0.778500
H471	H47	0.352500	0.508100	0.810200
H481	H48	0.407700	0.526500	0.847400
O81	O8	0.369140	0.566410	0.947580
O91	O9	0.069520	0.450660	0.379900
C451	C45	0.230280	0.315100	0.316000
C461	C46	0.081110	0.397500	0.397700
C471	C47	0.133000	0.368500	0.368900
C481	C48	0.129500	0.349800	0.309900
C491	C49	0.232800	0.334100	0.377300
C501	C50	0.184600	0.362100	0.401800
C511	C51	0.178800	0.323500	0.284700
C521	C52	0.173200	0.304400	0.220900
H491	H49	0.211800	0.300700	0.203900
H501	H50	0.151100	0.333200	0.199400
H511	H51	0.153400	0.267100	0.219000
C531	C53	0.286900	0.323500	0.415200
H521	H52	0.298400	0.283000	0.412300
H531	H53	0.277900	0.332800	0.455400
H541	H54	0.318500	0.348100	0.401800
C541	C54	0.072000	0.357200	0.276000
H551	H55	0.057900	0.319300	0.263800
H561	H56	0.078800	0.381300	0.241900
H571	H57	0.043300	0.375700	0.300800
C551	C55	0.187400	0.385100	0.465200
H581	H58	0.221500	0.409600	0.469800
H591	H59	0.189800	0.352500	0.491900
H601	H60	0.152600	0.407700	0.473500
O101	O10	0.052420	0.369140	0.433590
O111	O11	0.069520	0.549340	0.620100
C561	C56	0.230280	0.684900	0.684000
C571	C57	0.081110	0.602500	0.602300
C581	C58	0.133000	0.631500	0.631100
C591	C59	0.129500	0.650200	0.690100
C601	C60	0.232800	0.665900	0.622700
C611	C61	0.184600	0.637900	0.598200
C621	C62	0.178800	0.676500	0.715300
C631	C63	0.173200	0.695600	0.779100
H611	H61	0.211800	0.699300	0.796100
H621	H62	0.151100	0.666800	0.800600
H631	H63	0.153400	0.732900	0.781000
C641	C64	0.286900	0.676500	0.584800
H641	H64	0.298400	0.717000	0.587700
H651	H65	0.277900	0.667200	0.544600
H661	H66	0.318500	0.651900	0.598200
C651	C65	0.072000	0.642800	0.724000
H671	H67	0.057900	0.680700	0.736200
H681	H68	0.078800	0.618700	0.758100
H691	H69	0.043300	0.624300	0.699200
C661	C66	0.187400	0.614900	0.534800
H701	H70	0.221500	0.590400	0.530200
H711	H71	0.189800	0.647500	0.508100
H721	H72	0.152600	0.592300	0.526500
O121	O12	0.052420	0.630860	0.566410
O131	O13	0.930480	0.549340	0.379900
C671	C67	0.769720	0.684900	0.316000
C681	C68	0.918890	0.602500	0.397700
C691	C69	0.867000	0.631500	0.368900
C701	C70	0.870500	0.650200	0.309900
C711	C71	0.767200	0.665900	0.377300
C721	C72	0.815400	0.637900	0.401800
C731	C73	0.821200	0.676500	0.284700
C741	C74	0.826800	0.695600	0.220900
H731	H73	0.788200	0.699300	0.203900
H741	H74	0.848900	0.666800	0.199400
H751	H75	0.846600	0.732900	0.219000
C751	C75	0.713100	0.676500	0.415200
H761	H76	0.701600	0.717000	0.412300
H771	H77	0.722100	0.667200	0.455400
H781	H78	0.681500	0.651900	0.401800
C761	C76	0.928000	0.642800	0.276000
H791	H79	0.942100	0.680700	0.263800
H801	H80	0.921200	0.618700	0.241900
H811	H81	0.956700	0.624300	0.300800
C771	C77	0.812600	0.614900	0.465200
H821	H82	0.778500	0.590400	0.469800
H831	H83	0.810200	0.647500	0.491900
H841	H84	0.847400	0.592300	0.473500
O141	O14	0.947580	0.630860	0.433590
O151	O15	0.930480	0.450660	0.620100
C781	C78	0.769720	0.315100	0.684000
C791	C79	0.918890	0.397500	0.602300
C801	C80	0.867000	0.368500	0.631100
C811	C81	0.870500	0.349800	0.690100
C821	C82	0.767200	0.334100	0.622700
C831	C83	0.815400	0.362100	0.598200
C841	C84	0.821200	0.323500	0.715300
C851	C85	0.826800	0.304400	0.779100
H851	H85	0.788200	0.300700	0.796100
H861	H86	0.848900	0.333200	0.800600
H871	H87	0.846600	0.267100	0.781000
C861	C86	0.713100	0.323500	0.584800
H881	H88	0.701600	0.283000	0.587700
H891	H89	0.722100	0.332800	0.544600
H901	H90	0.681500	0.348100	0.598200
C871	C87	0.928000	0.357200	0.724000
H911	H91	0.942100	0.319300	0.736200
H921	H92	0.921200	0.381300	0.758100
H931	H93	0.956700	0.375700	0.699200
C881	C88	0.812600	0.385100	0.534800
H941	H94	0.778500	0.409600	0.530200
H951	H95	0.810200	0.352500	0.508100
H961	H96	0.847400	0.407700	0.526500
O161	O16	0.947580	0.369140	0.566410
O171	O17	0.379900	0.069520	0.450660
C891	C89	0.316000	0.230280	0.315100
C901	C90	0.397700	0.081110	0.397500
C911	C91	0.368900	0.133000	0.368500
C921	C92	0.309900	0.129500	0.349800
C931	C93	0.377300	0.232800	0.334100
C941	C94	0.401800	0.184600	0.362100
C951	C95	0.284700	0.178800	0.323500
C961	C96	0.220900	0.173200	0.304400
H971	H97	0.203900	0.211800	0.300700
H981	H98	0.199400	0.151100	0.333200
H991	H99	0.219000	0.153400	0.267100
C971	C97	0.415200	0.286900	0.323500
H1001	H100	0.412300	0.298400	0.283000
H1011	H101	0.455400	0.277900	0.332800
H1021	H102	0.401800	0.318500	0.348100
C981	C98	0.276000	0.072000	0.357200
H1031	H103	0.263800	0.057900	0.319300
H1041	H104	0.241900	0.078800	0.381300
H1051	H105	0.300800	0.043300	0.375700
C991	C99	0.465200	0.187400	0.385100
H1061	H106	0.469800	0.221500	0.409600
H1071	H107	0.491900	0.189800	0.352500
H1081	H108	0.473500	0.152600	0.407700
O181	O18	0.433590	0.052420	0.369140
O191	O19	0.620100	0.069520	0.549340
C1001	C100	0.684000	0.230280	0.684900
C1011	C101	0.602300	0.081110	0.602500
C1021	C102	0.631100	0.133000	0.631500
C1031	C103	0.690100	0.129500	0.650200
C1041	C104	0.622700	0.232800	0.665900
C1051	C105	0.598200	0.184600	0.637900
C1061	C106	0.715300	0.178800	0.676500
C1071	C107	0.779100	0.173200	0.695600
H1091	H109	0.796100	0.211800	0.699300
H1101	H110	0.800600	0.151100	0.666800
H1111	H111	0.781000	0.153400	0.732900
C1081	C108	0.584800	0.286900	0.676500
H1121	H112	0.587700	0.298400	0.717000
H1131	H113	0.544600	0.277900	0.667200
H1141	H114	0.598200	0.318500	0.651900
C1091	C109	0.724000	0.072000	0.642800
H1151	H115	0.736200	0.057900	0.680700
H1161	H116	0.758100	0.078800	0.618700
H1171	H117	0.699200	0.043300	0.624300
C1101	C110	0.534800	0.187400	0.614900
H1181	H118	0.530200	0.221500	0.590400
H1191	H119	0.508100	0.189800	0.647500
H1201	H120	0.526500	0.152600	0.592300
O201	O20	0.566410	0.052420	0.630860
O211	O21	0.379900	0.930480	0.549340
C1111	C111	0.316000	0.769720	0.684900
C1121	C112	0.397700	0.918890	0.602500
C1131	C113	0.368900	0.867000	0.631500
C1141	C114	0.309900	0.870500	0.650200
C1151	C115	0.377300	0.767200	0.665900
C1161	C116	0.401800	0.815400	0.637900
C1171	C117	0.284700	0.821200	0.676500
C1181	C118	0.220900	0.826800	0.695600
H1211	H121	0.203900	0.788200	0.699300
H1221	H122	0.199400	0.848900	0.666800
H1231	H123	0.219000	0.846600	0.732900
C1191	C119	0.415200	0.713100	0.676500
H1241	H124	0.412300	0.701600	0.717000
H1251	H125	0.455400	0.722100	0.667200
H1261	H126	0.401800	0.681500	0.651900
C1201	C120	0.276000	0.928000	0.642800
H1271	H127	0.263800	0.942100	0.680700
H1281	H128	0.241900	0.921200	0.618700
H1291	H129	0.300800	0.956700	0.624300
C1211	C121	0.465200	0.812600	0.614900
H1301	H130	0.469800	0.778500	0.590400
H1311	H131	0.491900	0.810200	0.647500
H1321	H132	0.473500	0.847400	0.592300
O221	O22	0.433590	0.947580	0.630860
O231	O23	0.620100	0.930480	0.450660
C1221	C122	0.684000	0.769720	0.315100
C1231	C123	0.602300	0.918890	0.397500
C1241	C124	0.631100	0.867000	0.368500
C1251	C125	0.690100	0.870500	0.349800
C1261	C126	0.622700	0.767200	0.334100
C1271	C127	0.598200	0.815400	0.362100
C1281	C128	0.715300	0.821200	0.323500
C1291	C129	0.779100	0.826800	0.304400
H1331	H133	0.796100	0.788200	0.300700
H1341	H134	0.800600	0.848900	0.333200
H1351	H135	0.781000	0.846600	0.267100
C1301	C130	0.584800	0.713100	0.323500
H1361	H136	0.587700	0.701600	0.283000
H1371	H137	0.544600	0.722100	0.332800
H1381	H138	0.598200	0.681500	0.348100
C1311	C131	0.724000	0.928000	0.357200
H1391	H139	0.736200	0.942100	0.319300
H1401	H140	0.758100	0.921200	0.381300
H1411	H141	0.699200	0.956700	0.375700
C1321	C132	0.534800	0.812600	0.385100
H1421	H142	0.530200	0.778500	0.409600
H1431	H143	0.508100	0.810200	0.352500
H1441	H144	0.526500	0.847400	0.407700
O241	O24	0.566410	0.947580	0.369140
O251	O25	0.379900	0.450660	0.930480
C1331	C133	0.316000	0.315100	0.769720
C1341	C134	0.397700	0.397500	0.918890
C1351	C135	0.368900	0.368500	0.867000
C1361	C136	0.309900	0.349800	0.870500
C1371	C137	0.377300	0.334100	0.767200
C1381	C138	0.401800	0.362100	0.815400
C1391	C139	0.284700	0.323500	0.821200
C1401	C140	0.220900	0.304400	0.826800
H1451	H145	0.203900	0.300700	0.788200
H1461	H146	0.199400	0.333200	0.848900
H1471	H147	0.219000	0.267100	0.846600
C1411	C141	0.415200	0.323500	0.713100
H1481	H148	0.412300	0.283000	0.701600
H1491	H149	0.455400	0.332800	0.722100
H1501	H150	0.401800	0.348100	0.681500
C1421	C142	0.276000	0.357200	0.928000
H1511	H151	0.263800	0.319300	0.942100
H1521	H152	0.241900	0.381300	0.921200
H1531	H153	0.300800	0.375700	0.956700
C1431	C143	0.465200	0.385100	0.812600
H1541	H154	0.469800	0.409600	0.778500
H1551	H155	0.491900	0.352500	0.810200
H1561	H156	0.473500	0.407700	0.847400
O261	O26	0.433590	0.369140	0.947580
O271	O27	0.620100	0.549340	0.930480
C1441	C144	0.684000	0.684900	0.769720
C1451	C145	0.602300	0.602500	0.918890
C1461	C146	0.631100	0.631500	0.867000
C1471	C147	0.690100	0.650200	0.870500
C1481	C148	0.622700	0.665900	0.767200
C1491	C149	0.598200	0.637900	0.815400
C1501	C150	0.715300	0.676500	0.821200
C1511	C151	0.779100	0.695600	0.826800
H1571	H157	0.796100	0.699300	0.788200
H1581	H158	0.800600	0.666800	0.848900
H1591	H159	0.781000	0.732900	0.846600
C1521	C152	0.584800	0.676500	0.713100
H1601	H160	0.587700	0.717000	0.701600
H1611	H161	0.544600	0.667200	0.722100
H1621	H162	0.598200	0.651900	0.681500
C1531	C153	0.724000	0.642800	0.928000
H1631	H163	0.736200	0.680700	0.942100
H1641	H164	0.758100	0.618700	0.921200
H1651	H165	0.699200	0.624300	0.956700
C1541	C154	0.534800	0.614900	0.812600
H1661	H166	0.530200	0.590400	0.778500
H1671	H167	0.508100	0.647500	0.810200
H1681	H168	0.526500	0.592300	0.847400
O281	O28	0.566410	0.630860	0.947580
O291	O29	0.379900	0.549340	0.069520
C1551	C155	0.316000	0.684900	0.230280
C1561	C156	0.397700	0.602500	0.081110
C1571	C157	0.368900	0.631500	0.133000
C1581	C158	0.309900	0.650200	0.129500
C1591	C159	0.377300	0.665900	0.232800
C1601	C160	0.401800	0.637900	0.184600
C1611	C161	0.284700	0.676500	0.178800
C1621	C162	0.220900	0.695600	0.173200
H1691	H169	0.203900	0.699300	0.211800
H1701	H170	0.199400	0.666800	0.151100
H1711	H171	0.219000	0.732900	0.153400
C1631	C163	0.415200	0.676500	0.286900
H1721	H172	0.412300	0.717000	0.298400
H1731	H173	0.455400	0.667200	0.277900
H1741	H174	0.401800	0.651900	0.318500
C1641	C164	0.276000	0.642800	0.072000
H1751	H175	0.263800	0.680700	0.057900
H1761	H176	0.241900	0.618700	0.078800
H1771	H177	0.300800	0.624300	0.043300
C1651	C165	0.465200	0.614900	0.187400
H1781	H178	0.469800	0.590400	0.221500
H1791	H179	0.491900	0.647500	0.189800
H1801	H180	0.473500	0.592300	0.152600
O301	O30	0.433590	0.630860	0.052420
O311	O31	0.620100	0.450660	0.069520
C1661	C166	0.684000	0.315100	0.230280
C1671	C167	0.602300	0.397500	0.081110
C1681	C168	0.631100	0.368500	0.133000
C1691	C169	0.690100	0.349800	0.129500
C1701	C170	0.622700	0.334100	0.232800
C1711	C171	0.598200	0.362100	0.184600
C1721	C172	0.715300	0.323500	0.178800
C1731	C173	0.779100	0.304400	0.173200
H1811	H181	0.796100	0.300700	0.211800
H1821	H182	0.800600	0.333200	0.151100
H1831	H183	0.781000	0.267100	0.153400
C1741	C174	0.584800	0.323500	0.286900
H1841	H184	0.587700	0.283000	0.298400
H1851	H185	0.544600	0.332800	0.277900
H1861	H186	0.598200	0.348100	0.318500
C1751	C175	0.724000	0.357200	0.072000
H1871	H187	0.736200	0.319300	0.057900
H1881	H188	0.758100	0.381300	0.078800
H1891	H189	0.699200	0.375700	0.043300
C1761	C176	0.534800	0.385100	0.187400
H1901	H190	0.530200	0.409600	0.221500
H1911	H191	0.508100	0.352500	0.189800
H1921	H192	0.526500	0.407700	0.152600
O321	O32	0.566410	0.369140	0.052420
O331	O33	0.450660	0.069520	0.620100
C1771	C177	0.315100	0.230280	0.684000
C1781	C178	0.397500	0.081110	0.602300
C1791	C179	0.368500	0.133000	0.631100
C1801	C180	0.349800	0.129500	0.690100
C1811	C181	0.334100	0.232800	0.622700
C1821	C182	0.362100	0.184600	0.598200
C1831	C183	0.323500	0.178800	0.715300
C1841	C184	0.304400	0.173200	0.779100
H1931	H193	0.300700	0.211800	0.796100
H1941	H194	0.333200	0.151100	0.800600
H1951	H195	0.267100	0.153400	0.781000
C1851	C185	0.323500	0.286900	0.584800
H1961	H196	0.283000	0.298400	0.587700
H1971	H197	0.332800	0.277900	0.544600
H1981	H198	0.348100	0.318500	0.598200
C1861	C186	0.357200	0.072000	0.724000
H1991	H199	0.319300	0.057900	0.736200
H2001	H200	0.381300	0.078800	0.758100
H2011	H201	0.375700	0.043300	0.699200
C1871	C187	0.385100	0.187400	0.534800
H2021	H202	0.409600	0.221500	0.530200
H2031	H203	0.352500	0.189800	0.508100
H2041	H204	0.407700	0.152600	0.526500
O341	O34	0.369140	0.052420	0.566410
O351	O35	0.549340	0.069520	0.379900
C1881	C188	0.684900	0.230280	0.316000
C1891	C189	0.602500	0.081110	0.397700
C1901	C190	0.631500	0.133000	0.368900
C1911	C191	0.650200	0.129500	0.309900
C1921	C192	0.665900	0.232800	0.377300
C1931	C193	0.637900	0.184600	0.401800
C1941	C194	0.676500	0.178800	0.284700
C1951	C195	0.695600	0.173200	0.220900
H2051	H205	0.699300	0.211800	0.203900
H2061	H206	0.666800	0.151100	0.199400
H2071	H207	0.732900	0.153400	0.219000
C1961	C196	0.676500	0.286900	0.415200
H2081	H208	0.717000	0.298400	0.412300
H2091	H209	0.667200	0.277900	0.455400
H2101	H210	0.651900	0.318500	0.401800
C1971	C197	0.642800	0.072000	0.276000
H2111	H211	0.680700	0.057900	0.263800
H2121	H212	0.618700	0.078800	0.241900
H2131	H213	0.624300	0.043300	0.300800
C1981	C198	0.614900	0.187400	0.465200
H2141	H214	0.590400	0.221500	0.469800
H2151	H215	0.647500	0.189800	0.491900
H2161	H216	0.592300	0.152600	0.473500
O361	O36	0.630860	0.052420	0.433590
O371	O37	0.549340	0.930480	0.620100
C1991	C199	0.684900	0.769720	0.684000
C2001	C200	0.602500	0.918890	0.602300
C2011	C201	0.631500	0.867000	0.631100
C2021	C202	0.650200	0.870500	0.690100
C2031	C203	0.665900	0.767200	0.622700
C2041	C204	0.637900	0.815400	0.598200
C2051	C205	0.676500	0.821200	0.715300
C2061	C206	0.695600	0.826800	0.779100
H2171	H217	0.699300	0.788200	0.796100
H2181	H218	0.666800	0.848900	0.800600
H2191	H219	0.732900	0.846600	0.781000
C2071	C207	0.676500	0.713100	0.584800
H2201	H220	0.717000	0.701600	0.587700
H2211	H221	0.667200	0.722100	0.544600
H2221	H222	0.651900	0.681500	0.598200
C2081	C208	0.642800	0.928000	0.724000
H2231	H223	0.680700	0.942100	0.736200
H2241	H224	0.618700	0.921200	0.758100
H2251	H225	0.624300	0.956700	0.699200
C2091	C209	0.614900	0.812600	0.534800
H2261	H226	0.590400	0.778500	0.530200
H2271	H227	0.647500	0.810200	0.508100
H2281	H228	0.592300	0.847400	0.526500
O381	O38	0.630860	0.947580	0.566410
O391	O39	0.450660	0.930480	0.379900
C2101	C210	0.315100	0.769720	0.316000
C2111	C211	0.397500	0.918890	0.397700
C2121	C212	0.368500	0.867000	0.368900
C2131	C213	0.349800	0.870500	0.309900
C2141	C214	0.334100	0.767200	0.377300
C2151	C215	0.362100	0.815400	0.401800
C2161	C216	0.323500	0.821200	0.284700
C2171	C217	0.304400	0.826800	0.220900
H2291	H229	0.300700	0.788200	0.203900
H2301	H230	0.333200	0.848900	0.199400
H2311	H231	0.267100	0.846600	0.219000
C2181	C218	0.323500	0.713100	0.415200
H2321	H232	0.283000	0.701600	0.412300
H2331	H233	0.332800	0.722100	0.455400
H2341	H234	0.348100	0.681500	0.401800
C2191	C219	0.357200	0.928000	0.276000
H2351	H235	0.319300	0.942100	0.263800
H2361	H236	0.381300	0.921200	0.241900
H2371	H237	0.375700	0.956700	0.300800
C2201	C220	0.385100	0.812600	0.465200
H2381	H238	0.409600	0.778500	0.469800
H2391	H239	0.352500	0.810200	0.491900
H2401	H240	0.407700	0.847400	0.473500
O401	O40	0.369140	0.947580	0.433590
O411	O41	0.069520	0.379900	0.549340
C2211	C221	0.230280	0.316000	0.684900
C2221	C222	0.081110	0.397700	0.602500
C2231	C223	0.133000	0.368900	0.631500
C2241	C224	0.129500	0.309900	0.650200
C2251	C225	0.232800	0.377300	0.665900
C2261	C226	0.184600	0.401800	0.637900
C2271	C227	0.178800	0.284700	0.676500
C2281	C228	0.173200	0.220900	0.695600
H2411	H241	0.211800	0.203900	0.699300
H2421	H242	0.151100	0.199400	0.666800
H2431	H243	0.153400	0.219000	0.732900
C2291	C229	0.286900	0.415200	0.676500
H2441	H244	0.298400	0.412300	0.717000
H2451	H245	0.277900	0.455400	0.667200
H2461	H246	0.318500	0.401800	0.651900
C2301	C230	0.072000	0.276000	0.642800
H2471	H247	0.057900	0.263800	0.680700
H2481	H248	0.078800	0.241900	0.618700
H2491	H249	0.043300	0.300800	0.624300
C2311	C231	0.187400	0.465200	0.614900
H2501	H250	0.221500	0.469800	0.590400
H2511	H251	0.189800	0.491900	0.647500
H2521	H252	0.152600	0.473500	0.592300
O421	O42	0.052420	0.433590	0.630860
O431	O43	0.069520	0.620100	0.450660
C2321	C232	0.230280	0.684000	0.315100
C2331	C233	0.081110	0.602300	0.397500
C2341	C234	0.133000	0.631100	0.368500
C2351	C235	0.129500	0.690100	0.349800
C2361	C236	0.232800	0.622700	0.334100
C2371	C237	0.184600	0.598200	0.362100
C2381	C238	0.178800	0.715300	0.323500
C2391	C239	0.173200	0.779100	0.304400
H2531	H253	0.211800	0.796100	0.300700
H2541	H254	0.151100	0.800600	0.333200
H2551	H255	0.153400	0.781000	0.267100
C2401	C240	0.286900	0.584800	0.323500
H2561	H256	0.298400	0.587700	0.283000
H2571	H257	0.277900	0.544600	0.332800
H2581	H258	0.318500	0.598200	0.348100
C2411	C241	0.072000	0.724000	0.357200
H2591	H259	0.057900	0.736200	0.319300
H2601	H260	0.078800	0.758100	0.381300
H2611	H261	0.043300	0.699200	0.375700
C2421	C242	0.187400	0.534800	0.385100
H2621	H262	0.221500	0.530200	0.409600
H2631	H263	0.189800	0.508100	0.352500
H2641	H264	0.152600	0.526500	0.407700
O441	O44	0.052420	0.566410	0.369140
O451	O45	0.930480	0.379900	0.450660
C2431	C243	0.769720	0.316000	0.315100
C2441	C244	0.918890	0.397700	0.397500
C2451	C245	0.867000	0.368900	0.368500
C2461	C246	0.870500	0.309900	0.349800
C2471	C247	0.767200	0.377300	0.334100
C2481	C248	0.815400	0.401800	0.362100
C2491	C249	0.821200	0.284700	0.323500
C2501	C250	0.826800	0.220900	0.304400
H2651	H265	0.788200	0.203900	0.300700
H2661	H266	0.848900	0.199400	0.333200
H2671	H267	0.846600	0.219000	0.267100
C2511	C251	0.713100	0.415200	0.323500
H2681	H268	0.701600	0.412300	0.283000
H2691	H269	0.722100	0.455400	0.332800
H2701	H270	0.681500	0.401800	0.348100
C2521	C252	0.928000	0.276000	0.357200
H2711	H271	0.942100	0.263800	0.319300
H2721	H272	0.921200	0.241900	0.381300
H2731	H273	0.956700	0.300800	0.375700
C2531	C253	0.812600	0.465200	0.385100
H2741	H274	0.778500	0.469800	0.409600
H2751	H275	0.810200	0.491900	0.352500
H2761	H276	0.847400	0.473500	0.407700
O461	O46	0.947580	0.433590	0.369140
O471	O47	0.930480	0.620100	0.549340
C2541	C254	0.769720	0.684000	0.684900
C2551	C255	0.918890	0.602300	0.602500
C2561	C256	0.867000	0.631100	0.631500
C2571	C257	0.870500	0.690100	0.650200
C2581	C258	0.767200	0.622700	0.665900
C2591	C259	0.815400	0.598200	0.637900
C2601	C260	0.821200	0.715300	0.676500
C2611	C261	0.826800	0.779100	0.695600
H2771	H277	0.788200	0.796100	0.699300
H2781	H278	0.848900	0.800600	0.666800
H2791	H279	0.846600	0.781000	0.732900
C2621	C262	0.713100	0.584800	0.676500
H2801	H280	0.701600	0.587700	0.717000
H2811	H281	0.722100	0.544600	0.667200
H2821	H282	0.681500	0.598200	0.651900
C2631	C263	0.928000	0.724000	0.642800
H2831	H283	0.942100	0.736200	0.680700
H2841	H284	0.921200	0.758100	0.618700
H2851	H285	0.956700	0.699200	0.624300
C2641	C264	0.812600	0.534800	0.614900
H2861	H286	0.778500	0.530200	0.590400
H2871	H287	0.810200	0.508100	0.647500
H2881	H288	0.847400	0.526500	0.592300
O481	O48	0.947580	0.566410	0.630860
Mn11	Mn1	0.500000	0.388600	0.000000
Cu11	Cu1	0.500000	0.611400	0.000000
Mn21	Mn2	0.000000	0.500000	0.388600
Cu21	Cu2	0.000000	0.500000	0.611400
Mn31	Mn3	0.388600	0.000000	0.500000
Cu31	Cu3	0.611400	0.000000	0.500000
Mn41	Mn4	0.388600	0.500000	0.000000
Cu41	Cu4	0.611400	0.500000	0.000000
Mn51	Mn5	0.500000	0.000000	0.611400
Cu51	Cu5	0.500000	0.000000	0.388600
Mn61	Mn6	0.000000	0.388600	0.500000
Cu61	Cu6	0.000000	0.611400	0.500000
Cl11	Cl1	0.500000	0.500000	0.000000
Cl21	Cl2	0.000000	0.500000	0.500000
Cl31	Cl3	0.500000	0.000000	0.500000
B11	B1	0.286600	0.286600	0.286600
B21	B2	0.713400	0.713400	0.286600
B31	B3	0.713400	0.286600	0.713400
B41	B4	0.286600	0.713400	0.713400
B51	B5	0.286600	0.286600	0.713400
B61	B6	0.713400	0.713400	0.713400
B71	B7	0.286600	0.713400	0.286600
B81	B8	0.713400	0.286600	0.286600
