data_HUNFIH_clean_PM
_symmetry_space_group_name_H-M	'P1'
_cell_length_a	13.081000
_cell_length_b	16.379000
_cell_length_c	15.407000
_cell_angle_alpha	90.000000
_cell_angle_beta	102.368000
_cell_angle_gamma	90.000000
_symmetry_Int_Tables_number 1

loop_
_symmetry_equiv_pos_as_xyz
'x,y,z'

loop_
_atom_site_label
_atom_site_type_symbol
_atom_site_fract_x
_atom_site_fract_y
_atom_site_fract_z
Ni11	Ni1	0.488840	0.305860	0.573910
V11	V1	0.340940	0.332340	0.354530
V21	V2	0.276310	0.658550	0.251520
V31	V3	0.218510	0.503970	0.378000
O11	O1	0.113470	0.498880	0.421070
O21	O2	0.201950	0.582930	0.296930
O31	O3	0.621180	0.313870	0.671730
O41	O4	0.237260	0.407380	0.330930
O51	O5	0.303300	0.245960	0.285970
O61	O6	0.366820	0.309450	0.461920
N11	N1	0.011240	0.368930	0.512360
N21	N2	0.380890	0.020370	0.886750
N31	N3	0.015780	0.678770	0.924330
N41	N4	0.389620	0.305810	0.662650
C11	C1	0.392600	0.070920	0.820900
H11	H1	0.459400	0.089600	0.819800
C21	C2	0.017900	0.197540	0.517640
C31	C3	0.247100	0.309510	0.774910
C41	C4	0.421600	0.319700	0.749700
H21	H2	0.492500	0.328600	0.772800
C51	C5	0.945500	0.635020	0.867900
H31	H3	0.887300	0.661700	0.834600
C61	C6	0.216300	0.296130	0.684900
H41	H4	0.145800	0.288300	0.659500
C71	C7	0.076500	0.241810	0.469910
H51	H5	0.119800	0.214900	0.438600
C81	C8	0.954900	0.551750	0.856500
H61	H6	0.903500	0.523800	0.816400
C91	C9	0.953700	0.325970	0.558500
H71	H7	0.911600	0.354300	0.589800
C101	C10	0.285000	0.992800	0.884350
H81	H8	0.275500	0.956300	0.928200
C111	C11	0.209500	0.068820	0.754050
C121	C12	0.310400	0.096230	0.755190
H91	H9	0.322200	0.131800	0.711300
C131	C13	0.026800	0.105860	0.522600
H101	H10	0.030300	0.084600	0.464500
H111	H11	0.964800	0.083500	0.538700
C141	C14	0.198800	0.015170	0.820600
H121	H12	0.133300	0.994100	0.822400
C151	C15	0.352900	0.321300	0.806600
H131	H13	0.378400	0.330400	0.867000
C161	C16	0.071300	0.325700	0.468430
H141	H14	0.111400	0.353900	0.435300
C171	C17	0.115100	0.094800	0.686500
H151	H15	0.054300	0.066100	0.697700
H161	H16	0.103800	0.152700	0.693400
C181	C18	0.124600	0.078240	0.591100
H171	H17	0.135300	0.020200	0.583900
H181	H18	0.185400	0.106700	0.579800
C191	C19	0.097500	0.637950	0.971960
H191	H19	0.147100	0.666800	0.012800
C201	C20	0.039600	0.510190	0.903900
C211	C21	0.111500	0.555240	0.963300
H201	H20	0.169800	0.529700	0.997600
C221	C22	0.953700	0.241410	0.561900
H211	H21	0.911000	0.214200	0.593600
C231	C23	0.169500	0.316660	0.833200
H221	H22	0.200900	0.298200	0.892800
H231	H23	0.109000	0.282700	0.810200
C241	C24	0.288000	0.294290	0.632620
H241	H24	0.264300	0.284300	0.572200
C251	C25	0.136100	0.405530	0.835600
H251	H25	0.197500	0.438600	0.858300
H261	H26	0.106600	0.423400	0.775500
C261	C26	0.056200	0.420210	0.892600
H271	H27	0.990300	0.394900	0.864800
H281	H28	0.080400	0.395200	0.950400
Ni21	Ni2	0.011160	0.805860	0.926090
V41	V4	0.159060	0.832340	0.145470
V51	V5	0.223690	0.158550	0.248480
V61	V6	0.281490	0.003970	0.122000
O71	O7	0.386530	0.998880	0.078930
O81	O8	0.298050	0.082930	0.203070
O91	O9	0.878820	0.813870	0.828270
O101	O10	0.262740	0.907380	0.169070
O111	O11	0.196700	0.745960	0.214030
O121	O12	0.133180	0.809450	0.038080
N51	N5	0.488760	0.868930	0.987640
N61	N6	0.119110	0.520370	0.613250
N71	N7	0.484220	0.178770	0.575670
N81	N8	0.110380	0.805810	0.837350
C271	C27	0.107400	0.570920	0.679100
H291	H29	0.040600	0.589600	0.680200
C281	C28	0.482100	0.697540	0.982360
C291	C29	0.252900	0.809510	0.725090
C301	C30	0.078400	0.819700	0.750300
H301	H30	0.007500	0.828600	0.727200
C311	C31	0.554500	0.135020	0.632100
H311	H31	0.612700	0.161700	0.665400
C321	C32	0.283700	0.796130	0.815100
H321	H32	0.354200	0.788300	0.840500
C331	C33	0.423500	0.741810	0.030090
H331	H33	0.380200	0.714900	0.061400
C341	C34	0.545100	0.051750	0.643500
H341	H34	0.596500	0.023800	0.683600
C351	C35	0.546300	0.825970	0.941500
H351	H35	0.588400	0.854300	0.910200
C361	C36	0.215000	0.492800	0.615650
H361	H36	0.224500	0.456300	0.571800
C371	C37	0.290500	0.568820	0.745950
C381	C38	0.189600	0.596230	0.744810
H371	H37	0.177800	0.631800	0.788700
C391	C39	0.473200	0.605860	0.977400
H381	H38	0.469700	0.584600	0.035500
H391	H39	0.535200	0.583500	0.961300
C401	C40	0.301200	0.515170	0.679400
H401	H40	0.366700	0.494100	0.677600
C411	C41	0.147100	0.821300	0.693400
H411	H41	0.121600	0.830400	0.633000
C421	C42	0.428700	0.825700	0.031570
H421	H42	0.388600	0.853900	0.064700
C431	C43	0.384900	0.594800	0.813500
H431	H43	0.445700	0.566100	0.802300
H441	H44	0.396200	0.652700	0.806600
C441	C44	0.375400	0.578240	0.908900
H451	H45	0.364700	0.520200	0.916100
H461	H46	0.314600	0.606700	0.920200
C451	C45	0.402500	0.137950	0.528040
H471	H47	0.352900	0.166800	0.487200
C461	C46	0.460400	0.010190	0.596100
C471	C47	0.388500	0.055240	0.536700
H481	H48	0.330200	0.029700	0.502400
C481	C48	0.546300	0.741410	0.938100
H491	H49	0.589000	0.714200	0.906400
C491	C49	0.330500	0.816660	0.666800
H501	H50	0.299100	0.798200	0.607200
H511	H51	0.391000	0.782700	0.689800
C501	C50	0.212000	0.794290	0.867380
H521	H52	0.235700	0.784300	0.927800
C511	C51	0.363900	0.905530	0.664400
H531	H53	0.302500	0.938600	0.641700
H541	H54	0.393400	0.923400	0.724500
C521	C52	0.443800	0.920210	0.607400
H551	H55	0.509700	0.894900	0.635200
H561	H56	0.419600	0.895200	0.549600
Ni31	Ni3	0.511160	0.694140	0.426090
V71	V7	0.659060	0.667660	0.645470
V81	V8	0.723690	0.341450	0.748480
V91	V9	0.781490	0.496030	0.622000
O131	O13	0.886530	0.501120	0.578930
O141	O14	0.798050	0.417070	0.703070
O151	O15	0.378820	0.686130	0.328270
O161	O16	0.762740	0.592620	0.669070
O171	O17	0.696700	0.754040	0.714030
O181	O18	0.633180	0.690550	0.538080
N91	N9	0.988760	0.631070	0.487640
N101	N10	0.619110	0.979630	0.113250
N111	N11	0.984220	0.321230	0.075670
N121	N12	0.610380	0.694190	0.337350
C531	C53	0.607400	0.929080	0.179100
H571	H57	0.540600	0.910400	0.180200
C541	C54	0.982100	0.802460	0.482360
C551	C55	0.752900	0.690490	0.225090
C561	C56	0.578400	0.680300	0.250300
H581	H58	0.507500	0.671400	0.227200
C571	C57	0.054500	0.364980	0.132100
H591	H59	0.112700	0.338300	0.165400
C581	C58	0.783700	0.703870	0.315100
H601	H60	0.854200	0.711700	0.340500
C591	C59	0.923500	0.758190	0.530090
H611	H61	0.880200	0.785100	0.561400
C601	C60	0.045100	0.448250	0.143500
H621	H62	0.096500	0.476200	0.183600
C611	C61	0.046300	0.674030	0.441500
H631	H63	0.088400	0.645700	0.410200
C621	C62	0.715000	0.007200	0.115650
H641	H64	0.724500	0.043700	0.071800
C631	C63	0.790500	0.931180	0.245950
C641	C64	0.689600	0.903770	0.244810
H651	H65	0.677800	0.868200	0.288700
C651	C65	0.973200	0.894140	0.477400
H661	H66	0.969700	0.915400	0.535500
H671	H67	0.035200	0.916500	0.461300
C661	C66	0.801200	0.984830	0.179400
H681	H68	0.866700	0.005900	0.177600
C671	C67	0.647100	0.678700	0.193400
H691	H69	0.621600	0.669600	0.133000
C681	C68	0.928700	0.674300	0.531570
H701	H70	0.888600	0.646100	0.564700
C691	C69	0.884900	0.905200	0.313500
H711	H71	0.945700	0.933900	0.302300
H721	H72	0.896200	0.847300	0.306600
C701	C70	0.875400	0.921760	0.408900
H731	H73	0.864700	0.979800	0.416100
H741	H74	0.814600	0.893300	0.420200
C711	C71	0.902500	0.362050	0.028040
H751	H75	0.852900	0.333200	0.987200
C721	C72	0.960400	0.489810	0.096100
C731	C73	0.888500	0.444760	0.036700
H761	H76	0.830200	0.470300	0.002400
C741	C74	0.046300	0.758590	0.438100
H771	H77	0.089000	0.785800	0.406400
C751	C75	0.830500	0.683340	0.166800
H781	H78	0.799100	0.701800	0.107200
H791	H79	0.891000	0.717300	0.189800
C761	C76	0.712000	0.705710	0.367380
H801	H80	0.735700	0.715700	0.427800
C771	C77	0.863900	0.594470	0.164400
H811	H81	0.802500	0.561400	0.141700
H821	H82	0.893400	0.576600	0.224500
C781	C78	0.943800	0.579790	0.107400
H831	H83	0.009700	0.605100	0.135200
H841	H84	0.919600	0.604800	0.049600
Ni41	Ni4	0.988840	0.194140	0.073910
V101	V10	0.840940	0.167660	0.854530
V111	V11	0.776310	0.841450	0.751520
V121	V12	0.718510	0.996030	0.878000
O191	O19	0.613470	0.001120	0.921070
O201	O20	0.701950	0.917070	0.796930
O211	O21	0.121180	0.186130	0.171730
O221	O22	0.737260	0.092620	0.830930
O231	O23	0.803300	0.254040	0.785970
O241	O24	0.866820	0.190550	0.961920
N131	N13	0.511240	0.131070	0.012360
N141	N14	0.880890	0.479630	0.386750
N151	N15	0.515780	0.821230	0.424330
N161	N16	0.889620	0.194190	0.162650
C791	C79	0.892600	0.429080	0.320900
H851	H85	0.959400	0.410400	0.319800
C801	C80	0.517900	0.302460	0.017640
C811	C81	0.747100	0.190490	0.274910
C821	C82	0.921600	0.180300	0.249700
H861	H86	0.992500	0.171400	0.272800
C831	C83	0.445500	0.864980	0.367900
H871	H87	0.387300	0.838300	0.334600
C841	C84	0.716300	0.203870	0.184900
H881	H88	0.645800	0.211700	0.159500
C851	C85	0.576500	0.258190	0.969910
H891	H89	0.619800	0.285100	0.938600
C861	C86	0.454900	0.948250	0.356500
H901	H90	0.403500	0.976200	0.316400
C871	C87	0.453700	0.174030	0.058500
H911	H91	0.411600	0.145700	0.089800
C881	C88	0.785000	0.507200	0.384350
H921	H92	0.775500	0.543700	0.428200
C891	C89	0.709500	0.431180	0.254050
C901	C90	0.810400	0.403770	0.255190
H931	H93	0.822200	0.368200	0.211300
C911	C91	0.526800	0.394140	0.022600
H941	H94	0.530300	0.415400	0.964500
H951	H95	0.464800	0.416500	0.038700
C921	C92	0.698800	0.484830	0.320600
H961	H96	0.633300	0.505900	0.322400
C931	C93	0.852900	0.178700	0.306600
H971	H97	0.878400	0.169600	0.367000
C941	C94	0.571300	0.174300	0.968430
H981	H98	0.611400	0.146100	0.935300
C951	C95	0.615100	0.405200	0.186500
H991	H99	0.554300	0.433900	0.197700
H1001	H100	0.603800	0.347300	0.193400
C961	C96	0.624600	0.421760	0.091100
H1011	H101	0.635300	0.479800	0.083900
H1021	H102	0.685400	0.393300	0.079800
C971	C97	0.597500	0.862050	0.471960
H1031	H103	0.647100	0.833200	0.512800
C981	C98	0.539600	0.989810	0.403900
C991	C99	0.611500	0.944760	0.463300
H1041	H104	0.669800	0.970300	0.497600
C1001	C100	0.453700	0.258590	0.061900
H1051	H105	0.411000	0.285800	0.093600
C1011	C101	0.669500	0.183340	0.333200
H1061	H106	0.700900	0.201800	0.392800
H1071	H107	0.609000	0.217300	0.310200
C1021	C102	0.788000	0.205710	0.132620
H1081	H108	0.764300	0.215700	0.072200
C1031	C103	0.636100	0.094470	0.335600
H1091	H109	0.697500	0.061400	0.358300
H1101	H110	0.606600	0.076600	0.275500
C1041	C104	0.556200	0.079790	0.392600
H1111	H111	0.490300	0.105100	0.364800
H1121	H112	0.580400	0.104800	0.450400
Ni51	Ni5	0.000000	0.500000	0.500000
Ni61	Ni6	0.500000	0.000000	0.000000
