data_HUQGUX_clean_PM
_symmetry_space_group_name_H-M	'P1'
_cell_length_a	19.913000
_cell_length_b	20.884000
_cell_length_c	21.486000
_cell_angle_alpha	116.076000
_cell_angle_beta	98.550000
_cell_angle_gamma	101.661000
_symmetry_Int_Tables_number 1

loop_
_symmetry_equiv_pos_as_xyz
'x,y,z'

loop_
_atom_site_label
_atom_site_type_symbol
_atom_site_fract_x
_atom_site_fract_y
_atom_site_fract_z
C11	C1	0.341500	0.611100	0.067000
C21	C2	0.385900	0.657700	0.128300
H11	H1	0.370800	0.690100	0.165500
C31	C3	0.366700	0.570300	0.007600
H21	H2	0.335000	0.540100	0.962100
C41	C4	0.647500	0.575800	0.974400
C51	C5	0.607400	0.474600	0.197100
H31	H3	0.598600	0.450800	0.147300
C61	C6	0.464400	0.659600	0.139800
H41	H4	0.496100	0.687600	0.185400
C71	C7	0.629700	0.441700	0.748700
C81	C8	0.640700	0.530600	0.896400
C91	C9	0.620200	0.555600	0.238400
C101	C10	0.671200	0.860800	0.222500
C111	C11	0.623900	0.400300	0.669900
C121	C12	0.568700	0.457900	0.772300
H51	H5	0.524600	0.440400	0.739400
C131	C13	0.576700	0.499500	0.844200
H61	H6	0.536200	0.507600	0.859100
C141	C14	0.679100	0.787100	0.173700
C151	C15	0.657800	0.002000	0.306100
C161	C16	0.266900	0.606700	0.056400
H71	H7	0.237500	0.570600	0.011100
C171	C17	0.236300	0.644200	0.099200
H81	H8	0.262500	0.675100	0.147000
C181	C18	0.042600	0.596400	0.018300
H91	H9	0.007700	0.560800	0.976300
C191	C19	0.616100	0.599600	0.199400
C201	C20	0.695000	0.472900	0.802600
H101	H10	0.735800	0.464400	0.788600
C211	C21	0.160800	0.643100	0.079300
C221	C22	0.435900	0.575100	0.016600
H111	H11	0.450300	0.546900	0.976600
C231	C23	0.608600	0.435300	0.232500
H121	H12	0.599100	0.383900	0.205000
C241	C24	0.107700	0.587200	0.032500
H131	H13	0.113700	0.540300	0.008200
C251	C25	0.622900	0.465000	0.307200
C261	C26	0.157000	0.701600	0.137600
H141	H14	0.195100	0.733700	0.178000
C271	C27	0.701000	0.514400	0.873000
H151	H15	0.744900	0.532500	0.906500
C281	C28	0.076500	0.709200	0.128500
H161	H16	0.064700	0.746700	0.164600
C291	C29	0.623000	0.334500	0.414500
C301	C30	0.636000	0.223100	0.417900
C311	C31	0.668500	0.354600	0.646900
H171	H17	0.699200	0.349400	0.680300
C321	C32	0.630000	0.543500	0.347400
H181	H18	0.634100	0.564800	0.396500
C331	C33	0.578600	0.408100	0.619200
H191	H19	0.551100	0.440100	0.634200
C341	C34	0.730700	0.995800	0.306300
H201	H20	0.771400	0.036700	0.332000
C351	C35	0.631100	0.587500	0.315000
H211	H21	0.638900	0.638600	0.343000
C361	C36	0.650100	0.079100	0.345900
C371	C37	0.608600	0.869700	0.228700
H221	H22	0.568600	0.827800	0.205300
C381	C38	0.732900	0.922200	0.264000
H231	H23	0.777000	0.914000	0.263600
C391	C39	0.599600	0.941000	0.269700
H241	H24	0.554400	0.945600	0.271600
C401	C40	0.624100	0.420800	0.342800
C411	C41	0.660200	0.453400	0.415500
H251	H25	0.683700	0.504500	0.440500
C421	C42	0.666300	0.318200	0.575900
H261	H26	0.695600	0.288000	0.560800
C431	C43	0.662500	0.414300	0.450200
H271	H27	0.689600	0.437900	0.497800
C441	C44	0.574500	0.368600	0.546800
H281	H28	0.541300	0.370900	0.513100
C451	C45	0.619000	0.326200	0.524600
C461	C46	0.604000	0.095000	0.388500
H291	H29	0.579200	0.056400	0.394700
C471	C47	0.586400	0.302000	0.340400
H301	H30	0.562000	0.251100	0.313600
C481	C48	0.587800	0.344800	0.311200
H311	H31	0.561500	0.322100	0.263400
C491	C49	0.690300	0.137400	0.342300
H321	H32	0.722600	0.129200	0.314700
C501	C50	0.684600	0.211200	0.379600
H331	H33	0.714000	0.250500	0.377600
C511	C51	0.591000	0.163200	0.423100
H341	H34	0.556100	0.169800	0.447600
N11	N1	0.028600	0.658700	0.066400
N21	N2	0.486600	0.618700	0.080900
N31	N3	0.620400	0.293500	0.450600
O11	O1	0.739400	0.780800	0.171600
O21	O2	0.616200	0.570000	0.136500
O31	O3	0.590200	0.583500	0.990700
O41	O4	0.607500	0.664100	0.234000
O51	O5	0.620300	0.734900	0.135800
O61	O6	0.707500	0.602100	0.018500
Cu11	Cu1	0.589520	0.629210	0.092870
Cu21	Cu2	0.763470	0.703760	0.090750
C521	C52	0.903500	0.876600	0.165000
C531	C53	0.889700	0.016700	0.236000
C541	C54	0.883200	0.097200	0.278300
C551	C55	0.852600	0.126500	0.243900
H351	H35	0.837500	0.100100	0.193900
C561	C56	0.909100	0.135600	0.349900
H361	H36	0.929700	0.113600	0.373900
C571	C57	0.951500	0.924400	0.224800
H371	H37	0.987400	0.910800	0.244200
C581	C58	0.843700	0.964400	0.173500
H381	H38	0.806300	0.976200	0.153900
C591	C59	0.844200	0.618600	0.135700
C601	C60	0.849600	0.894700	0.137400
H391	H39	0.816600	0.859500	0.093900
C611	C61	0.946900	0.998500	0.259300
H401	H40	0.983700	0.035500	0.298800
C621	C62	0.870000	0.240600	0.353900
C631	C63	0.851400	0.485900	0.242600
C641	C64	0.848500	0.576500	0.175100
C651	C65	0.884300	0.491400	0.804200
H411	H41	0.878700	0.466600	0.830900
C661	C66	0.909500	0.430600	0.504700
H421	H42	0.928900	0.454700	0.481000
C671	C67	0.844700	0.320200	0.504100
H431	H43	0.822600	0.268900	0.480200
C681	C68	0.797700	0.565400	0.209300
H441	H44	0.761000	0.586700	0.208700
C691	C69	0.880200	0.450900	0.734700
H451	H45	0.871900	0.399600	0.715400
C701	C70	0.886100	0.435900	0.612600
C711	C71	0.896800	0.570000	0.840000
C721	C72	0.853300	0.440400	0.281600
C731	C73	0.901000	0.617300	0.913000
C741	C74	0.874500	0.353900	0.467800
C751	C75	0.841700	0.197700	0.280600
H461	H46	0.815600	0.215000	0.255200
C761	C76	0.904000	0.602700	0.794800
H471	H47	0.912400	0.653900	0.813600
C771	C77	0.858700	0.355600	0.350800
C781	C78	0.847500	0.361600	0.574000
H481	H48	0.822800	0.339400	0.596400
C791	C79	0.905700	0.407100	0.281100
H491	H49	0.938200	0.411300	0.255100
C801	C80	0.799200	0.522100	0.245800
H501	H50	0.765900	0.518300	0.271100
C811	C81	0.803500	0.385500	0.348600
H511	H51	0.765800	0.376000	0.367300
C821	C82	0.914600	0.469900	0.577100
H521	H52	0.938200	0.520900	0.602300
C831	C83	0.905600	0.210100	0.390100
H531	H53	0.926700	0.237800	0.439500
C841	C84	0.887800	0.481700	0.691100
C851	C85	0.898000	0.537900	0.173900
H541	H54	0.927300	0.536600	0.143800
C861	C86	0.907900	0.501300	0.213200
H551	H55	0.949000	0.487700	0.219900
C871	C87	0.912500	0.365100	0.319900
H561	H56	0.950600	0.346200	0.323200
C881	C88	0.911900	0.798600	0.123800
C891	C89	0.807400	0.429800	0.317300
H571	H57	0.774000	0.455700	0.321500
C901	C90	0.898900	0.559500	0.724800
H581	H58	0.902900	0.582700	0.696600
N41	N4	0.867400	0.313600	0.388500
O71	O7	0.805000	0.663000	0.152700
O81	O8	0.853000	0.742500	0.074800
O91	O9	0.965800	0.783400	0.129300
O101	O10	0.930500	0.683500	0.948700
O111	O11	0.883200	0.582500	0.946900
O121	O12	0.890400	0.615900	0.102700
Cu31	Cu3	0.923890	0.667330	0.049950
C911	C91	0.658500	0.388900	0.933000
C921	C92	0.614100	0.342300	0.871700
H591	H59	0.629200	0.309900	0.834500
C931	C93	0.633300	0.429700	0.992400
H601	H60	0.665000	0.459900	0.037900
C941	C94	0.352500	0.424200	0.025600
C951	C95	0.392600	0.525400	0.802900
H611	H61	0.401400	0.549200	0.852700
C961	C96	0.535600	0.340400	0.860200
H621	H62	0.503900	0.312400	0.814600
C971	C97	0.370300	0.558300	0.251300
C981	C98	0.359300	0.469400	0.103600
C991	C99	0.379800	0.444400	0.761600
C1001	C100	0.328800	0.139200	0.777500
C1011	C101	0.376100	0.599700	0.330100
C1021	C102	0.431300	0.542100	0.227700
H631	H63	0.475400	0.559600	0.260600
C1031	C103	0.423300	0.500500	0.155800
H641	H64	0.463800	0.492400	0.140900
C1041	C104	0.320900	0.212900	0.826300
C1051	C105	0.342200	0.998000	0.693900
C1061	C106	0.733100	0.393300	0.943600
H651	H65	0.762500	0.429400	0.988900
C1071	C107	0.763700	0.355800	0.900800
H661	H66	0.737500	0.324900	0.853000
C1081	C108	0.957400	0.403600	0.981700
H671	H67	0.992300	0.439200	0.023700
C1091	C109	0.383900	0.400400	0.800600
C1101	C110	0.305000	0.527100	0.197400
H681	H68	0.264200	0.535600	0.211400
C1111	C111	0.839200	0.356900	0.920700
C1121	C112	0.564100	0.424900	0.983400
H691	H69	0.549700	0.453100	0.023400
C1131	C113	0.391400	0.564700	0.767500
H701	H70	0.400900	0.616100	0.795000
C1141	C114	0.892300	0.412800	0.967500
H711	H71	0.886300	0.459700	0.991800
C1151	C115	0.377100	0.535000	0.692800
C1161	C116	0.843000	0.298400	0.862400
H721	H72	0.804900	0.266300	0.822000
C1171	C117	0.299000	0.485600	0.127000
H731	H73	0.255100	0.467500	0.093500
C1181	C118	0.923500	0.290800	0.871500
H741	H74	0.935300	0.253300	0.835400
C1191	C119	0.377000	0.665500	0.585500
C1201	C120	0.364000	0.776900	0.582100
C1211	C121	0.331500	0.645400	0.353100
H751	H75	0.300800	0.650600	0.319700
C1221	C122	0.370000	0.456500	0.652600
H761	H76	0.365900	0.435200	0.603500
C1231	C123	0.421400	0.591900	0.380800
H771	H77	0.448900	0.559900	0.365800
C1241	C124	0.269300	0.004200	0.693700
H781	H78	0.228600	0.963300	0.668000
C1251	C125	0.368900	0.412500	0.685000
H791	H79	0.361100	0.361400	0.657000
C1261	C126	0.349900	0.920900	0.654100
C1271	C127	0.391400	0.130300	0.771300
H801	H80	0.431400	0.172200	0.794700
C1281	C128	0.267100	0.077800	0.736000
H811	H81	0.223000	0.086000	0.736400
C1291	C129	0.400400	0.059000	0.730300
H821	H82	0.445600	0.054400	0.728400
C1301	C130	0.375900	0.579200	0.657200
C1311	C131	0.339800	0.546600	0.584500
H831	H83	0.316300	0.495500	0.559500
C1321	C132	0.333700	0.681800	0.424100
H841	H84	0.304400	0.712000	0.439200
C1331	C133	0.337500	0.585700	0.549800
H851	H85	0.310400	0.562100	0.502200
C1341	C134	0.425500	0.631400	0.453200
H861	H86	0.458700	0.629100	0.486900
C1351	C135	0.381000	0.673800	0.475400
C1361	C136	0.396000	0.905000	0.611500
H871	H87	0.420800	0.943600	0.605300
C1371	C137	0.413600	0.698000	0.659600
H881	H88	0.438000	0.748900	0.686400
C1381	C138	0.412200	0.655200	0.688800
H891	H89	0.438500	0.677900	0.736600
C1391	C139	0.309700	0.862600	0.657700
H901	H90	0.277400	0.870800	0.685300
C1401	C140	0.315400	0.788800	0.620400
H911	H91	0.286000	0.749500	0.622400
C1411	C141	0.409000	0.836800	0.576900
H921	H92	0.443900	0.830200	0.552400
N51	N5	0.971400	0.341300	0.933600
N61	N6	0.513400	0.381300	0.919100
N71	N7	0.379600	0.706500	0.549400
O131	O13	0.260600	0.219200	0.828400
O141	O14	0.383800	0.430000	0.863500
O151	O15	0.409800	0.416500	0.009300
O161	O16	0.392500	0.335900	0.766000
O171	O17	0.379700	0.265100	0.864200
O181	O18	0.292500	0.397900	0.981500
Cu41	Cu4	0.410480	0.370790	0.907130
Cu51	Cu5	0.236530	0.296240	0.909250
C1421	C142	0.096500	0.123400	0.835000
C1431	C143	0.110300	0.983300	0.764000
C1441	C144	0.116800	0.902800	0.721700
C1451	C145	0.147400	0.873500	0.756100
H931	H93	0.162500	0.899900	0.806100
C1461	C146	0.090900	0.864400	0.650100
H941	H94	0.070300	0.886400	0.626100
C1471	C147	0.048500	0.075600	0.775200
H951	H95	0.012600	0.089200	0.755800
C1481	C148	0.156300	0.035600	0.826500
H961	H96	0.193700	0.023800	0.846100
C1491	C149	0.155800	0.381400	0.864300
C1501	C150	0.150400	0.105300	0.862600
H971	H97	0.183400	0.140500	0.906100
C1511	C151	0.053100	0.001500	0.740700
H981	H98	0.016300	0.964500	0.701200
C1521	C152	0.130000	0.759400	0.646100
C1531	C153	0.148600	0.514100	0.757400
C1541	C154	0.151500	0.423500	0.824900
C1551	C155	0.115700	0.508600	0.195800
H991	H99	0.121300	0.533400	0.169100
C1561	C156	0.090500	0.569400	0.495300
H1001	H100	0.071100	0.545300	0.519000
C1571	C157	0.155300	0.679800	0.495900
H1011	H101	0.177400	0.731100	0.519800
C1581	C158	0.202300	0.434600	0.790700
H1021	H102	0.239000	0.413300	0.791300
C1591	C159	0.119800	0.549100	0.265300
H1031	H103	0.128100	0.600400	0.284600
C1601	C160	0.113900	0.564100	0.387400
C1611	C161	0.103200	0.430000	0.160000
C1621	C162	0.146700	0.559600	0.718400
C1631	C163	0.099000	0.382700	0.087000
C1641	C164	0.125500	0.646100	0.532200
C1651	C165	0.158300	0.802300	0.719400
H1041	H104	0.184400	0.785000	0.744800
C1661	C166	0.096000	0.397300	0.205200
H1051	H105	0.087600	0.346100	0.186400
C1671	C167	0.141300	0.644400	0.649200
C1681	C168	0.152500	0.638400	0.426000
H1061	H106	0.177200	0.660600	0.403600
C1691	C169	0.094300	0.592900	0.718900
H1071	H107	0.061800	0.588700	0.744900
C1701	C170	0.200800	0.477900	0.754200
H1081	H108	0.234100	0.481700	0.728900
C1711	C171	0.196500	0.614500	0.651400
H1091	H109	0.234200	0.624000	0.632700
C1721	C172	0.085400	0.530100	0.422900
H1101	H110	0.061800	0.479100	0.397700
C1731	C173	0.094400	0.789900	0.609900
H1111	H111	0.073300	0.762200	0.560500
C1741	C174	0.112200	0.518300	0.308900
C1751	C175	0.102000	0.462100	0.826100
H1121	H112	0.072700	0.463400	0.856200
C1761	C176	0.092100	0.498700	0.786800
H1131	H113	0.051000	0.512300	0.780100
C1771	C177	0.087500	0.634900	0.680100
H1141	H114	0.049400	0.653800	0.676800
C1781	C178	0.088100	0.201400	0.876200
C1791	C179	0.192600	0.570200	0.682700
H1151	H115	0.226000	0.544300	0.678500
C1801	C180	0.101100	0.440500	0.275200
H1161	H116	0.097100	0.417300	0.303400
N81	N8	0.132600	0.686400	0.611500
O191	O19	0.195000	0.337000	0.847300
O201	O20	0.147000	0.257500	0.925200
O211	O21	0.034200	0.216600	0.870700
O221	O22	0.069500	0.316500	0.051300
O231	O23	0.116800	0.417500	0.053100
O241	O24	0.109600	0.384100	0.897300
Cu61	Cu6	0.076110	0.332670	0.950050
