data_HUQHAE_clean_PM
_symmetry_space_group_name_H-M	'P1'
_cell_length_a	19.608000
_cell_length_b	21.133000
_cell_length_c	21.571000
_cell_angle_alpha	117.428000
_cell_angle_beta	100.548000
_cell_angle_gamma	99.067000
_symmetry_Int_Tables_number 1

loop_
_symmetry_equiv_pos_as_xyz
'x,y,z'

loop_
_atom_site_label
_atom_site_type_symbol
_atom_site_fract_x
_atom_site_fract_y
_atom_site_fract_z
Zn11	Zn1	0.598570	0.131650	0.097040
O11	O1	0.715800	0.104200	0.013600
O21	O2	0.622900	0.234300	0.134100
O31	O3	0.595600	0.080000	0.994000
C11	C1	0.466200	0.169000	0.136400
H11	H1	0.500600	0.202400	0.182600
C21	C2	0.651300	0.068400	0.971500
O41	O4	0.744800	0.285500	0.174800
O51	O5	0.622800	0.073400	0.140800
N11	N1	0.025100	0.159200	0.073000
C31	C3	0.560000	0.945600	0.769600
H21	H2	0.512300	0.925600	0.737400
C41	C4	0.618200	0.974700	0.312500
C51	C5	0.622900	0.934700	0.744400
C61	C6	0.696500	0.007700	0.862500
H31	H3	0.744000	0.029000	0.895300
N21	N2	0.594100	0.788100	0.437300
C71	C7	0.630300	0.092200	0.318700
H41	H4	0.635800	0.143900	0.347100
C81	C8	0.611000	0.894500	0.663600
C91	C9	0.610100	0.921300	0.341400
C101	C10	0.609300	0.939900	0.232600
H51	H5	0.600500	0.887700	0.203600
C111	C11	0.651400	0.505400	0.303800
C121	C12	0.667900	0.363500	0.219100
O61	O6	0.614300	0.168300	0.239000
C131	C13	0.676900	0.636900	0.337300
H61	H6	0.710500	0.627800	0.309800
C141	C14	0.718000	0.498600	0.300400
H71	H7	0.756800	0.542400	0.322700
C151	C15	0.399600	0.170400	0.129800
H81	H8	0.387600	0.207300	0.169000
C161	C16	0.642800	0.022800	0.892900
C171	C17	0.637100	0.907800	0.447400
H91	H9	0.660500	0.928300	0.497800
C181	C18	0.575500	0.845700	0.298300
H101	H10	0.553800	0.823500	0.247300
C191	C19	0.657500	0.851400	0.635100
H111	H11	0.693500	0.847400	0.668100
C201	C20	0.642000	0.581700	0.344000
C211	C21	0.597800	0.819500	0.512600
C221	C22	0.611100	0.717900	0.405900
N31	N3	0.490400	0.123100	0.081700
C231	C23	0.624300	0.061400	0.245000
C241	C24	0.573700	0.658100	0.408800
H121	H12	0.536000	0.663900	0.431300
C251	C25	0.573900	0.802900	0.333200
H131	H13	0.554100	0.750600	0.304100
C261	C26	0.621600	0.106200	0.209600
C271	C27	0.576800	0.991900	0.852100
H141	H14	0.538500	0.998000	0.873700
C281	C28	0.438200	0.074300	0.017500
H151	H15	0.451400	0.039600	0.977800
C291	C29	0.691200	0.965300	0.790100
H161	H16	0.732300	0.957900	0.773200
C301	C30	0.640900	0.953100	0.415800
H171	H17	0.664400	0.004800	0.445200
C311	C31	0.613900	0.983600	0.200700
H181	H18	0.610200	0.962200	0.150200
C321	C32	0.598900	0.832900	0.404800
C331	C33	0.365300	0.074000	0.008600
H191	H19	0.330500	0.042500	0.962200
C341	C34	0.554300	0.895900	0.611200
H201	H20	0.520800	0.922800	0.628300
C351	C35	0.677800	0.288300	0.175000
C361	C36	0.547100	0.859800	0.537400
H211	H21	0.509500	0.861700	0.504000
C371	C37	0.628600	0.050300	0.351700
H221	H22	0.634700	0.073800	0.402800
C381	C38	0.732800	0.427900	0.264500
H231	H23	0.780500	0.422800	0.269500
C391	C39	0.603200	0.371700	0.226700
H241	H24	0.562900	0.329100	0.203800
C401	C40	0.260900	0.102400	0.052200
H251	H25	0.224600	0.057300	0.018400
C411	C41	0.589000	0.591800	0.380600
H261	H26	0.564200	0.552800	0.385700
C421	C42	0.666000	0.707600	0.369100
H271	H27	0.693600	0.746900	0.366400
C431	C43	0.345400	0.118600	0.066100
C441	C44	0.593900	0.443200	0.268400
H281	H28	0.547200	0.447900	0.271900
C451	C45	0.653900	0.816100	0.564700
H291	H29	0.687400	0.788900	0.548500
C461	C46	0.034000	0.094800	0.055800
H301	H30	0.993400	0.055000	0.042200
C471	C47	0.103200	0.081300	0.056400
H311	H31	0.109500	0.034300	0.046700
C481	C48	0.080700	0.224800	0.093100
H321	H32	0.070600	0.270900	0.105300
C491	C49	0.161900	0.139400	0.071700
C501	C50	0.254300	0.157000	0.091800
H331	H33	0.290400	0.201600	0.127300
C511	C51	0.151600	0.216500	0.093700
H341	H34	0.191000	0.257300	0.107200
Zn21	Zn2	0.766270	0.207530	0.093450
Zn31	Zn3	0.920800	0.170030	0.055860
O71	O7	0.810000	0.167700	0.156000
O81	O8	0.885700	0.108400	0.096100
N41	N4	0.855900	0.817500	0.385700
O91	O9	0.882600	0.092000	0.953200
C521	C52	0.843500	0.985600	0.237900
O101	O10	0.857200	0.244900	0.079900
C531	C53	0.842800	0.115100	0.135300
C541	C54	0.805800	0.036200	0.256200
H351	H35	0.782100	0.044000	0.292800
C551	C55	0.904500	0.380000	0.174600
C561	C56	0.889900	0.995700	0.692200
O111	O11	0.973600	0.290800	0.153700
C571	C57	0.843700	0.070200	0.170000
C581	C58	0.853500	0.856600	0.347100
C591	C59	0.848200	0.940300	0.277100
C601	C60	0.862000	0.745300	0.351800
C611	C61	0.886900	0.521300	0.242800
C621	C62	0.877600	0.600100	0.283200
C631	C63	0.822500	0.829300	0.494700
H361	H36	0.789700	0.781000	0.468000
C641	C64	0.904200	0.863300	0.312700
H371	H37	0.942100	0.840300	0.313500
C651	C65	0.863700	0.859700	0.460900
C661	C66	0.897400	0.716700	0.392000
H381	H38	0.917900	0.747800	0.443300
C671	C67	0.802300	0.075800	0.221300
H391	H39	0.772100	0.108100	0.230600
C681	C68	0.900700	0.904200	0.275900
H401	H40	0.934800	0.906600	0.250300
O121	O12	0.942500	0.192100	0.957600
C691	C69	0.914500	0.978400	0.577200
H411	H41	0.944500	0.028000	0.603500
C701	C70	0.846500	0.397700	0.139500
H421	H42	0.814700	0.361900	0.092500
C711	C71	0.902800	0.645600	0.359300
H431	H43	0.923900	0.627000	0.388400
C721	C72	0.798800	0.932000	0.313800
H441	H44	0.762300	0.957000	0.316300
C731	C73	0.836000	0.700300	0.277500
H451	H45	0.813500	0.719700	0.249800
C741	C74	0.941500	0.504700	0.277800
H461	H46	0.972200	0.542100	0.324800
C751	C75	0.878800	0.949100	0.614000
C761	C76	0.838800	0.467500	0.176000
H471	H47	0.799500	0.479500	0.155000
C771	C77	0.879500	0.974900	0.187000
H481	H48	0.903100	0.936700	0.173100
C781	C78	0.840700	0.626900	0.239700
H491	H49	0.820700	0.596500	0.188300
C791	C79	0.907700	0.072500	0.727700
H501	H50	0.915600	0.096800	0.700900
C801	C80	0.953000	0.434400	0.246200
H511	H51	0.990600	0.423000	0.270300
C811	C81	0.800100	0.890500	0.345800
H521	H52	0.763500	0.884800	0.367700
C821	C82	0.905400	0.934200	0.501800
H531	H53	0.928200	0.955400	0.477900
C831	C83	0.874000	0.960500	0.731400
H541	H54	0.856200	0.908000	0.706300
C841	C84	0.834100	0.876100	0.569800
H551	H55	0.809000	0.856100	0.593300
C851	C85	0.882200	0.018300	0.155500
H561	H56	0.910900	0.012600	0.123300
C861	C86	0.884000	0.001500	0.807900
H571	H57	0.879800	0.977000	0.835100
C871	C87	0.914200	0.115700	0.803300
H581	H58	0.928000	0.168300	0.826600
C881	C88	0.900500	0.081500	0.843300
C891	C89	0.914400	0.302400	0.135500
C901	C90	0.907600	0.123000	0.920700
Zn41	Zn4	0.401430	0.868350	0.902960
O131	O13	0.284200	0.895800	0.986400
O141	O14	0.377100	0.765700	0.865900
O151	O15	0.404400	0.920000	0.006000
C911	C91	0.533800	0.831000	0.863600
H591	H59	0.499400	0.797600	0.817400
C921	C92	0.348700	0.931600	0.028500
O161	O16	0.255200	0.714500	0.825200
O171	O17	0.377200	0.926600	0.859200
N51	N5	0.974900	0.840800	0.927000
C931	C93	0.440000	0.054400	0.230400
H601	H60	0.487700	0.074400	0.262600
C941	C94	0.381800	0.025300	0.687500
C951	C95	0.377100	0.065300	0.255600
C961	C96	0.303500	0.992300	0.137500
H611	H61	0.256000	0.971000	0.104700
N61	N6	0.405900	0.211900	0.562700
C971	C97	0.369700	0.907800	0.681300
H621	H62	0.364200	0.856100	0.652900
C981	C98	0.389000	0.105500	0.336400
C991	C99	0.389900	0.078700	0.658600
C1001	C100	0.390700	0.060100	0.767400
H631	H63	0.399500	0.112300	0.796400
C1011	C101	0.348600	0.494600	0.696200
C1021	C102	0.332100	0.636500	0.780900
O181	O18	0.385700	0.831700	0.761000
C1031	C103	0.323100	0.363100	0.662700
H641	H64	0.289500	0.372200	0.690200
C1041	C104	0.282000	0.501400	0.699600
H651	H65	0.243200	0.457600	0.677300
C1051	C105	0.600400	0.829600	0.870200
H661	H66	0.612400	0.792700	0.831000
C1061	C106	0.357200	0.977200	0.107100
C1071	C107	0.362900	0.092200	0.552600
H671	H67	0.339500	0.071700	0.502200
C1081	C108	0.424500	0.154300	0.701700
H681	H68	0.446200	0.176500	0.752700
C1091	C109	0.342500	0.148600	0.364900
H691	H69	0.306500	0.152600	0.331900
C1101	C110	0.358000	0.418300	0.656000
C1111	C111	0.402200	0.180500	0.487400
C1121	C112	0.388900	0.282100	0.594100
N71	N7	0.509600	0.876900	0.918300
C1131	C113	0.375700	0.938600	0.755000
C1141	C114	0.426300	0.341900	0.591200
H701	H70	0.464000	0.336100	0.568700
C1151	C115	0.426100	0.197100	0.666800
H711	H71	0.445900	0.249400	0.695900
C1161	C116	0.378400	0.893800	0.790400
C1171	C117	0.423200	0.008100	0.147900
H721	H72	0.461500	0.002000	0.126300
C1181	C118	0.561800	0.925700	0.982500
H731	H73	0.548600	0.960400	0.022200
C1191	C119	0.308800	0.034700	0.209900
H741	H74	0.267700	0.042100	0.226800
C1201	C120	0.359100	0.046900	0.584200
H751	H75	0.335600	0.995200	0.554800
C1211	C121	0.386100	0.016400	0.799300
H761	H76	0.389800	0.037800	0.849800
C1221	C122	0.401100	0.167100	0.595200
C1231	C123	0.634700	0.926000	0.991400
H771	H77	0.669500	0.957500	0.037800
C1241	C124	0.445700	0.104100	0.388800
H781	H78	0.479200	0.077200	0.371700
C1251	C125	0.322200	0.711700	0.825000
C1261	C126	0.452900	0.140200	0.462600
H791	H79	0.490500	0.138300	0.496000
C1271	C127	0.371400	0.949700	0.648300
H801	H80	0.365300	0.926200	0.597200
C1281	C128	0.267200	0.572100	0.735500
H811	H81	0.219500	0.577200	0.730500
C1291	C129	0.396800	0.628300	0.773300
H821	H82	0.437100	0.670900	0.796200
C1301	C130	0.739100	0.897600	0.947800
H831	H83	0.775400	0.942700	0.981600
C1311	C131	0.411000	0.408200	0.619400
H841	H84	0.435800	0.447200	0.614300
C1321	C132	0.334000	0.292400	0.630900
H851	H85	0.306400	0.253100	0.633600
C1331	C133	0.654600	0.881400	0.933900
C1341	C134	0.406100	0.556800	0.731600
H861	H86	0.452800	0.552100	0.728100
C1351	C135	0.346100	0.183900	0.435300
H871	H87	0.312600	0.211100	0.451500
C1361	C136	0.966000	0.905200	0.944200
H881	H88	0.006600	0.945000	0.957800
C1371	C137	0.896800	0.918700	0.943600
H891	H89	0.890500	0.965700	0.953300
C1381	C138	0.919300	0.775200	0.906900
H901	H90	0.929400	0.729100	0.894700
C1391	C139	0.838100	0.860600	0.928300
C1401	C140	0.745700	0.843000	0.908200
H911	H91	0.709600	0.798400	0.872700
C1411	C141	0.848400	0.783500	0.906300
H921	H92	0.809000	0.742700	0.892800
Zn51	Zn5	0.233730	0.792470	0.906550
Zn61	Zn6	0.079200	0.829970	0.944140
O191	O19	0.190000	0.832300	0.844000
O201	O20	0.114300	0.891600	0.903900
N81	N8	0.144100	0.182500	0.614300
O211	O21	0.117400	0.908000	0.046800
C1421	C142	0.156500	0.014400	0.762100
O221	O22	0.142800	0.755100	0.920100
C1431	C143	0.157200	0.884900	0.864700
C1441	C144	0.194200	0.963800	0.743800
H931	H93	0.217900	0.956000	0.707200
C1451	C145	0.095500	0.620000	0.825400
C1461	C146	0.110100	0.004300	0.307800
O231	O23	0.026400	0.709200	0.846300
C1471	C147	0.156300	0.929800	0.830000
C1481	C148	0.146500	0.143400	0.652900
C1491	C149	0.151800	0.059700	0.722900
C1501	C150	0.138000	0.254700	0.648200
C1511	C151	0.113100	0.478700	0.757200
C1521	C152	0.122400	0.399900	0.716800
C1531	C153	0.177500	0.170700	0.505300
H941	H94	0.210300	0.219000	0.532000
C1541	C154	0.095800	0.136700	0.687300
H951	H95	0.057900	0.159700	0.686500
C1551	C155	0.136300	0.140300	0.539100
C1561	C156	0.102600	0.283300	0.608000
H961	H96	0.082100	0.252200	0.556700
C1571	C157	0.197700	0.924200	0.778700
H971	H97	0.227900	0.891900	0.769400
C1581	C158	0.099300	0.095800	0.724100
H981	H98	0.065200	0.093400	0.749700
O241	O24	0.057500	0.807900	0.042400
C1591	C159	0.085500	0.021600	0.422800
H991	H99	0.055500	0.972000	0.396500
C1601	C160	0.153500	0.602300	0.860500
H1001	H100	0.185300	0.638100	0.907500
C1611	C161	0.097200	0.354400	0.640700
H1011	H101	0.076100	0.373000	0.611600
C1621	C162	0.201200	0.068000	0.686200
H1021	H102	0.237700	0.043000	0.683700
C1631	C163	0.164000	0.299700	0.722500
H1031	H103	0.186500	0.280300	0.750200
C1641	C164	0.058500	0.495300	0.722200
H1041	H104	0.027800	0.457900	0.675200
C1651	C165	0.121200	0.050900	0.386000
C1661	C166	0.161200	0.532500	0.824000
H1051	H105	0.200500	0.520500	0.845000
C1671	C167	0.120500	0.025100	0.813000
H1061	H106	0.096900	0.063300	0.826900
C1681	C168	0.159300	0.373100	0.760300
H1071	H107	0.179300	0.403500	0.811700
C1691	C169	0.092300	0.927500	0.272300
H1081	H108	0.084400	0.903200	0.299100
C1701	C170	0.047000	0.565600	0.753800
H1091	H109	0.009400	0.577000	0.729700
C1711	C171	0.199900	0.109500	0.654200
H1101	H110	0.236500	0.115200	0.632300
C1721	C172	0.094600	0.065800	0.498200
H1111	H111	0.071800	0.044600	0.522100
C1731	C173	0.126000	0.039500	0.268600
H1121	H112	0.143800	0.092000	0.293700
C1741	C174	0.165900	0.123900	0.430200
H1131	H113	0.191000	0.143900	0.406700
C1751	C175	0.117800	0.981700	0.844500
H1141	H114	0.089100	0.987400	0.876700
C1761	C176	0.116000	0.998500	0.192100
H1151	H115	0.120200	0.023000	0.164900
C1771	C177	0.085800	0.884300	0.196700
H1161	H116	0.072000	0.831700	0.173400
C1781	C178	0.099500	0.918500	0.156700
C1791	C179	0.085600	0.697600	0.864500
C1801	C180	0.092400	0.877000	0.079300
