data_HUQHEI_clean_PM
_symmetry_space_group_name_H-M	'P1'
_cell_length_a	19.612000
_cell_length_b	20.640000
_cell_length_c	21.567000
_cell_angle_alpha	115.922000
_cell_angle_beta	98.944000
_cell_angle_gamma	100.421000
_symmetry_Int_Tables_number 1

loop_
_symmetry_equiv_pos_as_xyz
'x,y,z'

loop_
_atom_site_label
_atom_site_type_symbol
_atom_site_fract_x
_atom_site_fract_y
_atom_site_fract_z
C11	C1	0.678500	0.286410	0.172390
C21	C2	0.671830	0.360590	0.222580
C31	C3	0.604320	0.371000	0.226300
H11	H1	0.563400	0.330600	0.199300
C41	C4	0.597580	0.440700	0.269600
H21	H2	0.552100	0.446500	0.272700
C51	C5	0.657330	0.502370	0.308780
C61	C6	0.724260	0.490720	0.305990
H31	H3	0.765100	0.531100	0.333100
C71	C7	0.732080	0.421070	0.264200
H41	H4	0.777800	0.414600	0.263900
C81	C8	0.649360	0.578640	0.349800
C91	C9	0.597800	0.591030	0.389100
H51	H5	0.569600	0.551500	0.391900
C101	C10	0.690200	0.638780	0.347260
H61	H6	0.724800	0.631600	0.321900
C111	C11	0.615030	0.100400	0.200890
C121	C12	0.618910	0.054000	0.237310
C131	C13	0.609400	0.977030	0.199170
H71	H7	0.602900	0.953800	0.149900
C141	C14	0.609690	0.935500	0.234340
H81	H8	0.602700	0.884100	0.207800
C151	C15	0.620030	0.967000	0.308450
C161	C16	0.628610	0.045200	0.346150
H91	H9	0.634500	0.068300	0.395300
C171	C17	0.628420	0.087500	0.311750
H101	H10	0.634600	0.138900	0.337900
C181	C18	0.620600	0.922000	0.345000
C191	C19	0.585900	0.846000	0.310600
H111	H11	0.562600	0.822400	0.262100
C201	C20	0.584700	0.804200	0.346000
H121	H12	0.559800	0.753500	0.321300
C211	C21	0.655600	0.954000	0.416500
H131	H13	0.680100	0.004800	0.441800
C221	C22	0.648840	0.073300	0.973590
C231	C23	0.641880	0.026970	0.895210
C241	C24	0.575930	0.998790	0.846510
H141	H14	0.535400	0.008200	0.862000
C251	C25	0.569780	0.956580	0.774610
H151	H15	0.524900	0.937600	0.742000
C261	C26	0.630120	0.941960	0.750070
C271	C27	0.695940	0.971000	0.800410
H161	H16	0.736800	0.962100	0.785200
C281	C28	0.702340	0.012320	0.871570
H171	H17	0.747100	0.030700	0.904400
C291	C29	0.623330	0.899820	0.672110
C301	C30	0.576100	0.906830	0.621910
H181	H18	0.545100	0.936100	0.637000
C311	C31	0.573800	0.872200	0.551300
H191	H19	0.542600	0.879400	0.519400
C321	C32	0.617700	0.826090	0.526500
C331	C33	0.664400	0.816590	0.575420
H201	H20	0.694100	0.785800	0.559800
C341	C34	0.666800	0.852430	0.646500
H211	H21	0.698000	0.845200	0.678500
C351	C35	0.619800	0.836500	0.417500
C361	C36	0.654400	0.910100	0.451200
H221	H22	0.678400	0.932900	0.499400
C371	C37	0.680900	0.708600	0.381070
H231	H23	0.708700	0.747900	0.377700
C381	C38	0.589200	0.661900	0.423600
H241	H24	0.555100	0.669800	0.449500
C391	C39	0.437100	0.075270	0.014690
H251	H25	0.453400	0.047200	0.975800
C401	C40	0.460820	0.160640	0.135170
H261	H26	0.493500	0.190800	0.179800
C411	C41	0.391400	0.159400	0.128400
H271	H27	0.376700	0.189300	0.167700
C421	C42	0.341270	0.113100	0.062200
C431	C43	0.365150	0.070720	0.005100
H281	H28	0.332900	0.039200	0.960400
C441	C44	0.166200	0.135300	0.086900
C451	C45	0.630800	0.721700	0.420180
C461	C46	0.045200	0.094700	0.016900
H291	H29	0.010400	0.060100	0.974800
C471	C47	0.115600	0.086200	0.026300
H301	H30	0.126600	0.046900	0.990700
C481	C48	0.077100	0.191200	0.127700
H311	H31	0.064400	0.226800	0.165200
C491	C49	0.145100	0.184600	0.139700
H321	H32	0.177100	0.214500	0.184800
N11	N1	0.484800	0.119680	0.079400
N21	N2	0.264400	0.107740	0.048310
N31	N3	0.242040	0.135700	0.100700
N41	N4	0.027500	0.149210	0.064840
N51	N5	0.617400	0.793240	0.452680
O11	O1	0.620910	0.237120	0.131620
O21	O2	0.740630	0.278830	0.171560
O31	O3	0.617090	0.068790	0.134820
O41	O4	0.710760	0.099300	0.016190
O51	O5	0.591710	0.082760	0.991230
O61	O6	0.607780	0.163850	0.231850
Zn11	Zn1	0.764750	0.202500	0.090870
Zn21	Zn2	0.591830	0.129180	0.092380
C501	C50	0.849870	0.119440	0.141000
C511	C51	0.851380	0.073720	0.178570
C521	C52	0.903600	0.036700	0.177500
H331	H33	0.937700	0.039900	0.152700
C531	C53	0.905600	0.994900	0.212800
H341	H34	0.941600	0.971000	0.211700
C541	C54	0.856030	0.987410	0.249680
C551	C55	0.857610	0.941540	0.285490
C561	C56	0.913700	0.912900	0.293300
H351	H35	0.951700	0.922700	0.274800
C571	C57	0.801800	0.924700	0.315000
H361	H36	0.762400	0.943200	0.311400
C581	C58	0.913800	0.295500	0.124900
C591	C59	0.905640	0.371700	0.164900
C601	C60	0.954100	0.422300	0.228600
H371	H37	0.991800	0.408400	0.246700
C611	C61	0.947700	0.495070	0.267300
H381	H38	0.981100	0.528700	0.310800
C621	C62	0.844800	0.465420	0.177100
H391	H39	0.807100	0.479100	0.158700
C631	C63	0.851400	0.392890	0.138920
H401	H40	0.818300	0.359000	0.095400
C641	C64	0.886070	0.593740	0.283200
C651	C65	0.910870	0.635490	0.356490
H411	H41	0.933100	0.615000	0.381900
C661	C66	0.904500	0.113900	0.916700
C671	C67	0.895900	0.068800	0.838600
C681	C68	0.885970	0.991900	0.807290
H421	H42	0.882700	0.968200	0.835200
C691	C69	0.880890	0.950050	0.735980
H431	H43	0.874800	0.898700	0.716800
C701	C70	0.884530	0.982060	0.692260
C711	C71	0.893200	0.059500	0.723300
H441	H44	0.894500	0.082800	0.695000
C721	C72	0.900000	0.102000	0.796000
H451	H45	0.907400	0.153600	0.815900
C731	C73	0.880440	0.938170	0.616140
C741	C74	0.848650	0.860260	0.577810
H461	H46	0.830500	0.835700	0.601600
C751	C75	0.843450	0.818960	0.505930
H471	H47	0.821200	0.767600	0.482000
C761	C76	0.871060	0.853390	0.469280
C771	C77	0.903100	0.930090	0.505750
H481	H48	0.922500	0.953800	0.481900
C781	C78	0.906400	0.971500	0.576800
H491	H49	0.926500	0.023200	0.599600
C791	C79	0.860800	0.855790	0.356010
C801	C80	0.916600	0.869600	0.327800
H501	H50	0.955500	0.850400	0.331700
C811	C81	0.803900	0.882400	0.348200
H511	H51	0.765600	0.871600	0.366000
C821	C82	0.871300	0.739440	0.358390
C831	C83	0.903750	0.707410	0.393800
H521	H52	0.921200	0.733900	0.443300
C841	C84	0.852600	0.627650	0.247960
H531	H53	0.834500	0.601400	0.198500
C851	C85	0.846100	0.698330	0.284930
H541	H54	0.824100	0.719400	0.259900
C861	C86	0.801830	0.067700	0.214800
H551	H55	0.766500	0.092500	0.216200
C871	C87	0.893700	0.516890	0.241910
C881	C88	0.803500	0.024900	0.249800
H561	H56	0.768700	0.021200	0.273900
N61	N6	0.864060	0.813420	0.394000
O71	O7	0.809120	0.161550	0.152410
O81	O8	0.859970	0.242440	0.077110
O91	O9	0.972890	0.282470	0.134490
O101	O10	0.885350	0.080200	0.950580
O111	O11	0.890680	0.111060	0.100190
O121	O12	0.931980	0.182250	0.947970
Zn31	Zn3	0.926330	0.164930	0.050370
C891	C89	0.321500	0.713590	0.827610
C901	C90	0.328170	0.639410	0.777420
C911	C91	0.395680	0.629000	0.773700
H571	H57	0.436600	0.669400	0.800700
C921	C92	0.402420	0.559300	0.730400
H581	H58	0.447900	0.553500	0.727300
C931	C93	0.342670	0.497630	0.691220
C941	C94	0.275740	0.509280	0.694010
H591	H59	0.234900	0.468900	0.666900
C951	C95	0.267920	0.578930	0.735800
H601	H60	0.222200	0.585400	0.736100
C961	C96	0.350640	0.421360	0.650200
C971	C97	0.402200	0.408970	0.610900
H611	H61	0.430400	0.448500	0.608100
C981	C98	0.309800	0.361220	0.652740
H621	H62	0.275200	0.368400	0.678100
C991	C99	0.384970	0.899600	0.799110
C1001	C100	0.381090	0.946000	0.762690
C1011	C101	0.390600	0.022970	0.800830
H631	H63	0.397100	0.046200	0.850100
C1021	C102	0.390310	0.064500	0.765660
H641	H64	0.397300	0.115900	0.792200
C1031	C103	0.379970	0.033000	0.691550
C1041	C104	0.371390	0.954800	0.653850
H651	H65	0.365500	0.931700	0.604700
C1051	C105	0.371580	0.912500	0.688250
H661	H66	0.365400	0.861100	0.662100
C1061	C106	0.379400	0.078000	0.655000
C1071	C107	0.414100	0.154000	0.689400
H671	H67	0.437400	0.177600	0.737900
C1081	C108	0.415300	0.195800	0.654000
H681	H68	0.440200	0.246500	0.678700
C1091	C109	0.344400	0.046000	0.583500
H691	H69	0.319900	0.995200	0.558200
C1101	C110	0.351160	0.926700	0.026410
C1111	C111	0.358120	0.973030	0.104790
C1121	C112	0.424070	0.001210	0.153490
H701	H70	0.464600	0.991800	0.138000
C1131	C113	0.430220	0.043420	0.225390
H711	H71	0.475100	0.062400	0.258000
C1141	C114	0.369880	0.058040	0.249930
C1151	C115	0.304060	0.029000	0.199590
H721	H72	0.263200	0.037900	0.214800
C1161	C116	0.297660	0.987680	0.128430
H731	H73	0.252900	0.969300	0.095600
C1171	C117	0.376670	0.100180	0.327890
C1181	C118	0.423900	0.093170	0.378090
H741	H74	0.454900	0.063900	0.363000
C1191	C119	0.426200	0.127800	0.448700
H751	H75	0.457400	0.120600	0.480600
C1201	C120	0.382300	0.173910	0.473500
C1211	C121	0.335600	0.183410	0.424580
H761	H76	0.305900	0.214200	0.440200
C1221	C122	0.333200	0.147570	0.353500
H771	H77	0.302000	0.154800	0.321500
C1231	C123	0.380200	0.163500	0.582500
C1241	C124	0.345600	0.089900	0.548800
H781	H78	0.321600	0.067100	0.500600
C1251	C125	0.319100	0.291400	0.618930
H791	H79	0.291300	0.252100	0.622300
C1261	C126	0.410800	0.338100	0.576400
H801	H80	0.444900	0.330200	0.550500
C1271	C127	0.562900	0.924730	0.985310
H811	H81	0.546600	0.952800	0.024200
C1281	C128	0.539180	0.839360	0.864830
H821	H82	0.506500	0.809200	0.820200
C1291	C129	0.608600	0.840600	0.871600
H831	H83	0.623300	0.810700	0.832300
C1301	C130	0.658730	0.886900	0.937800
C1311	C131	0.634850	0.929280	0.994900
H841	H84	0.667100	0.960800	0.039600
C1321	C132	0.833800	0.864700	0.913100
C1331	C133	0.369200	0.278300	0.579820
C1341	C134	0.954800	0.905300	0.983100
H851	H85	0.989600	0.939900	0.025200
C1351	C135	0.884400	0.913800	0.973700
H861	H86	0.873400	0.953100	0.009300
C1361	C136	0.922900	0.808800	0.872300
H871	H87	0.935600	0.773200	0.834800
C1371	C137	0.854900	0.815400	0.860300
H881	H88	0.822900	0.785500	0.815200
N71	N7	0.515200	0.880320	0.920600
N81	N8	0.735600	0.892260	0.951690
N91	N9	0.757960	0.864300	0.899300
N101	N10	0.972500	0.850790	0.935160
N111	N11	0.382600	0.206760	0.547320
O131	O13	0.379090	0.762880	0.868380
O141	O14	0.259370	0.721170	0.828440
O151	O15	0.382910	0.931210	0.865180
O161	O16	0.289240	0.900700	0.983810
O171	O17	0.408290	0.917240	0.008770
O181	O18	0.392220	0.836150	0.768150
Zn41	Zn4	0.235250	0.797500	0.909130
Zn51	Zn5	0.408170	0.870820	0.907620
C1381	C138	0.150130	0.880560	0.859000
C1391	C139	0.148620	0.926280	0.821430
C1401	C140	0.096400	0.963300	0.822500
H891	H89	0.062300	0.960100	0.847300
C1411	C141	0.094400	0.005100	0.787200
H901	H90	0.058400	0.029000	0.788300
C1421	C142	0.143970	0.012590	0.750320
C1431	C143	0.142390	0.058460	0.714510
C1441	C144	0.086300	0.087100	0.706700
H911	H91	0.048300	0.077300	0.725200
C1451	C145	0.198200	0.075300	0.685000
H921	H92	0.237600	0.056800	0.688600
C1461	C146	0.086200	0.704500	0.875100
C1471	C147	0.094360	0.628300	0.835100
C1481	C148	0.045900	0.577700	0.771400
H931	H93	0.008200	0.591600	0.753300
C1491	C149	0.052300	0.504930	0.732700
H941	H94	0.018900	0.471300	0.689200
C1501	C150	0.155200	0.534580	0.822900
H951	H95	0.192900	0.520900	0.841300
C1511	C151	0.148600	0.607110	0.861080
H961	H96	0.181700	0.641000	0.904600
C1521	C152	0.113930	0.406260	0.716800
C1531	C153	0.089130	0.364510	0.643510
H971	H97	0.066900	0.385000	0.618100
C1541	C154	0.095500	0.886100	0.083300
C1551	C155	0.104100	0.931200	0.161400
C1561	C156	0.114030	0.008100	0.192710
H981	H98	0.117300	0.031800	0.164800
C1571	C157	0.119110	0.049950	0.264020
H991	H99	0.125200	0.101300	0.283200
C1581	C158	0.115470	0.017940	0.307740
C1591	C159	0.106800	0.940500	0.276700
H1001	H100	0.105500	0.917200	0.305000
C1601	C160	0.100000	0.898000	0.204000
H1011	H101	0.092600	0.846400	0.184100
C1611	C161	0.119560	0.061830	0.383860
C1621	C162	0.151350	0.139740	0.422190
H1021	H102	0.169500	0.164300	0.398400
C1631	C163	0.156550	0.181040	0.494070
H1031	H103	0.178800	0.232400	0.518000
C1641	C164	0.128940	0.146610	0.530720
C1651	C165	0.096900	0.069910	0.494250
H1041	H104	0.077500	0.046200	0.518100
C1661	C166	0.093600	0.028500	0.423200
H1051	H105	0.073500	0.976800	0.400400
C1671	C167	0.139200	0.144210	0.643990
C1681	C168	0.083400	0.130400	0.672200
H1061	H106	0.044500	0.149600	0.668300
C1691	C169	0.196100	0.117600	0.651800
H1071	H107	0.234400	0.128400	0.634000
C1701	C170	0.128700	0.260560	0.641610
C1711	C171	0.096250	0.292590	0.606200
H1081	H108	0.078800	0.266100	0.556700
C1721	C172	0.147400	0.372350	0.752040
H1091	H109	0.165500	0.398600	0.801500
C1731	C173	0.153900	0.301670	0.715070
H1101	H110	0.175900	0.280600	0.740100
C1741	C174	0.198170	0.932300	0.785200
H1111	H111	0.233500	0.907500	0.783800
C1751	C175	0.106300	0.483110	0.758090
C1761	C176	0.196500	0.975100	0.750200
H1121	H112	0.231300	0.978800	0.726100
N121	N12	0.135940	0.186580	0.606000
O191	O19	0.190880	0.838450	0.847590
O201	O20	0.140030	0.757560	0.922890
O211	O21	0.027110	0.717530	0.865510
O221	O22	0.114650	0.919800	0.049420
O231	O23	0.109320	0.888940	0.899810
O241	O24	0.068020	0.817750	0.052030
Zn61	Zn6	0.073670	0.835070	0.949630
