data_HURGUX_clean_PM
_symmetry_space_group_name_H-M	'P1'
_cell_length_a	11.385000
_cell_length_b	11.606000
_cell_length_c	19.125000
_cell_angle_alpha	90.000000
_cell_angle_beta	90.000000
_cell_angle_gamma	115.684000
_symmetry_Int_Tables_number 1

loop_
_symmetry_equiv_pos_as_xyz
'x,y,z'

loop_
_atom_site_label
_atom_site_type_symbol
_atom_site_fract_x
_atom_site_fract_y
_atom_site_fract_z
Ni11	Ni1	0.673510	0.829160	0.495060
Ni21	Ni2	0.826490	0.670840	0.995060
Ni31	Ni3	0.326490	0.170840	0.504940
Ni41	Ni4	0.173510	0.329160	0.004940
Ni51	Ni5	0.500000	0.500000	0.500000
Ni61	Ni6	0.000000	0.000000	0.000000
H11	H1	0.791900	0.515900	0.551900
H21	H2	0.870600	0.367000	0.610100
H31	H3	0.990400	0.726900	0.388200
H41	H4	0.076000	0.608500	0.146200
H51	H5	0.158400	0.485300	0.227400
H61	H6	0.293000	0.487500	0.316200
H71	H7	0.449400	0.869900	0.325800
H81	H8	0.376000	0.989900	0.244100
H91	H9	0.247600	0.991900	0.153000
H101	H10	0.596300	0.044600	0.540500
H111	H11	0.708600	0.173400	0.513800
H121	H12	0.738300	0.089800	0.569700
H131	H13	0.864600	0.044800	0.409000
H141	H14	0.865900	0.174300	0.434600
H151	H15	0.910400	0.093000	0.485400
H161	H16	0.665200	0.014100	0.437500
H171	H17	0.708100	0.984100	0.051900
H181	H18	0.629400	0.133000	0.110100
H191	H19	0.509600	0.773100	0.888200
H201	H20	0.424000	0.891500	0.646200
H211	H21	0.341600	0.014700	0.727400
H221	H22	0.207000	0.012500	0.816200
H231	H23	0.050600	0.630100	0.825800
H241	H24	0.124000	0.510100	0.744100
H251	H25	0.252400	0.508100	0.653000
H261	H26	0.903700	0.455400	0.040500
H271	H27	0.791400	0.326600	0.013800
H281	H28	0.761700	0.410200	0.069700
H291	H29	0.635400	0.455200	0.909000
H301	H30	0.634100	0.325700	0.934600
H311	H31	0.589600	0.407000	0.985400
H321	H32	0.834800	0.485900	0.937500
H331	H33	0.208100	0.484100	0.448100
H341	H34	0.129400	0.633000	0.389900
H351	H35	0.009600	0.273100	0.611800
H361	H36	0.924000	0.391500	0.853800
H371	H37	0.841600	0.514700	0.772600
H381	H38	0.707000	0.512500	0.683800
H391	H39	0.550600	0.130100	0.674200
H401	H40	0.624000	0.010100	0.755900
H411	H41	0.752400	0.008100	0.847000
H421	H42	0.403700	0.955400	0.459500
H431	H43	0.291400	0.826600	0.486200
H441	H44	0.261700	0.910200	0.430300
H451	H45	0.135400	0.955200	0.591000
H461	H46	0.134100	0.825700	0.565400
H471	H47	0.089600	0.907000	0.514600
H481	H48	0.334800	0.985900	0.562500
H491	H49	0.291900	0.015900	0.948100
H501	H50	0.370600	0.867000	0.889900
H511	H51	0.490400	0.226900	0.111800
H521	H52	0.576000	0.108500	0.353800
H531	H53	0.658400	0.985300	0.272600
H541	H54	0.793000	0.987500	0.183800
H551	H55	0.949400	0.369900	0.174200
H561	H56	0.876000	0.489900	0.255900
H571	H57	0.747600	0.491900	0.347000
H581	H58	0.096300	0.544600	0.959500
H591	H59	0.208600	0.673400	0.986200
H601	H60	0.238300	0.589800	0.930300
H611	H61	0.364600	0.544800	0.091000
H621	H62	0.365900	0.674300	0.065400
H631	H63	0.410400	0.593000	0.014600
H641	H64	0.165200	0.514100	0.062500
C11	C1	0.472600	0.679600	0.390100
C21	C2	0.791000	0.698600	0.470800
C31	C3	0.877100	0.629500	0.470800
C41	C4	0.861400	0.540000	0.520600
C51	C5	0.948600	0.482200	0.524400
C61	C6	0.937100	0.390600	0.576800
C71	C7	0.980700	0.666000	0.421900
C81	C8	0.058400	0.805000	0.083700
C91	C9	0.147000	0.799200	0.141600
C101	C10	0.137600	0.684700	0.166100
C111	C11	0.219500	0.680300	0.221200
C121	C12	0.215900	0.563000	0.247200
C131	C13	0.296200	0.564100	0.300100
C141	C14	0.384200	0.679700	0.330800
C151	C15	0.390000	0.793000	0.306500
C161	C16	0.309300	0.796600	0.251400
C171	C17	0.317000	0.913100	0.224700
C181	C18	0.239700	0.914200	0.171100
C191	C19	0.687400	0.087500	0.529100
C201	C20	0.851000	0.088500	0.448500
C211	C21	0.027400	0.820400	0.890100
C221	C22	0.709000	0.801400	0.970800
C231	C23	0.622900	0.870500	0.970800
C241	C24	0.638600	0.960000	0.020600
C251	C25	0.551400	0.017800	0.024400
C261	C26	0.562900	0.109400	0.076800
C271	C27	0.519300	0.834000	0.921900
C281	C28	0.441600	0.695000	0.583700
C291	C29	0.353000	0.700800	0.641600
C301	C30	0.362400	0.815300	0.666100
C311	C31	0.280500	0.819700	0.721200
C321	C32	0.284100	0.937000	0.747200
C331	C33	0.203800	0.935900	0.800100
C341	C34	0.115800	0.820300	0.830800
C351	C35	0.110000	0.707000	0.806500
C361	C36	0.190700	0.703400	0.751400
C371	C37	0.183000	0.586900	0.724700
C381	C38	0.260300	0.585800	0.671100
C391	C39	0.812600	0.412500	0.029100
C401	C40	0.649000	0.411500	0.948500
C411	C41	0.527400	0.320400	0.609900
C421	C42	0.209000	0.301400	0.529200
C431	C43	0.122900	0.370500	0.529200
C441	C44	0.138600	0.460000	0.479400
C451	C45	0.051400	0.517800	0.475600
C461	C46	0.062900	0.609400	0.423200
C471	C47	0.019300	0.334000	0.578100
C481	C48	0.941600	0.195000	0.916300
C491	C49	0.853000	0.200800	0.858400
C501	C50	0.862400	0.315300	0.833900
C511	C51	0.780500	0.319700	0.778800
C521	C52	0.784100	0.437000	0.752800
C531	C53	0.703800	0.435900	0.699900
C541	C54	0.615800	0.320300	0.669200
C551	C55	0.610000	0.207000	0.693500
C561	C56	0.690700	0.203400	0.748600
C571	C57	0.683000	0.086900	0.775300
C581	C58	0.760300	0.085800	0.828900
C591	C59	0.312600	0.912500	0.470900
C601	C60	0.149000	0.911500	0.551500
C611	C61	0.972600	0.179600	0.109900
C621	C62	0.291000	0.198600	0.029200
C631	C63	0.377100	0.129500	0.029200
C641	C64	0.361400	0.040000	0.979400
C651	C65	0.448600	0.982200	0.975600
C661	C66	0.437100	0.890600	0.923200
C671	C67	0.480700	0.166000	0.078100
C681	C68	0.558400	0.305000	0.416300
C691	C69	0.647000	0.299200	0.358400
C701	C70	0.637600	0.184700	0.333900
C711	C71	0.719500	0.180300	0.278800
C721	C72	0.715900	0.063000	0.252800
C731	C73	0.796200	0.064100	0.199900
C741	C74	0.884200	0.179700	0.169200
C751	C75	0.890000	0.293000	0.193500
C761	C76	0.809300	0.296600	0.248600
C771	C77	0.817000	0.413100	0.275300
C781	C78	0.739700	0.414200	0.328900
C791	C79	0.187400	0.587500	0.970900
C801	C80	0.351000	0.588500	0.051500
N11	N1	0.716300	0.016800	0.473070
N21	N2	0.783700	0.483200	0.973070
N31	N3	0.283700	0.983200	0.526930
N41	N4	0.216300	0.516800	0.026930
O11	O1	0.448000	0.570700	0.414920
O21	O2	0.559100	0.785300	0.409150
O31	O3	0.685700	0.654900	0.507000
O41	O4	0.827400	0.803800	0.440340
O51	O5	0.976900	0.699200	0.059230
O61	O6	0.072100	0.914600	0.067480
O71	O7	0.052000	0.929300	0.914920
O81	O8	0.940900	0.714700	0.909150
O91	O9	0.814300	0.845100	0.007000
O101	O10	0.672600	0.696200	0.940340
O111	O11	0.523100	0.800800	0.559230
O121	O12	0.427900	0.585400	0.567480
O131	O13	0.552000	0.429300	0.585080
O141	O14	0.440900	0.214700	0.590850
O151	O15	0.314300	0.345100	0.493000
O161	O16	0.172600	0.196200	0.559660
O171	O17	0.023100	0.300800	0.940770
O181	O18	0.927900	0.085400	0.932520
O191	O19	0.948000	0.070700	0.085080
O201	O20	0.059100	0.285300	0.090850
O211	O21	0.185700	0.154900	0.993000
O221	O22	0.327400	0.303800	0.059660
O231	O23	0.476900	0.199200	0.440770
O241	O24	0.572100	0.414600	0.432520
