data_HUSGAE_clean_PM
_symmetry_space_group_name_H-M	'P1'
_cell_length_a	7.991100
_cell_length_b	10.198300
_cell_length_c	12.108100
_cell_angle_alpha	65.093800
_cell_angle_beta	70.731900
_cell_angle_gamma	90.000000
_symmetry_Int_Tables_number 1

loop_
_symmetry_equiv_pos_as_xyz
'x,y,z'

loop_
_atom_site_label
_atom_site_type_symbol
_atom_site_fract_x
_atom_site_fract_y
_atom_site_fract_z
Cd11	Cd1	0.250000	0.750000	0.500000
Cd21	Cd2	0.750000	0.250000	0.500000
Cd31	Cd3	0.000000	0.000000	0.000000
Cd41	Cd4	0.500000	0.500000	0.000000
H11	H1	0.235500	0.840700	0.199000
H21	H2	0.565500	0.960300	0.199000
H31	H3	0.264500	0.539700	0.801000
H41	H4	0.934500	0.659300	0.801000
H51	H5	0.764500	0.159300	0.801000
H61	H6	0.434500	0.039700	0.801000
H71	H7	0.735500	0.460300	0.199000
H81	H8	0.065500	0.340700	0.199000
C11	C1	0.038790	0.996510	0.350420
C21	C2	0.167400	0.899540	0.231200
C31	C3	0.610790	0.653070	0.350420
C41	C4	0.601400	0.869260	0.231200
C51	C5	0.461210	0.846930	0.649580
C61	C6	0.332600	0.630740	0.768800
C71	C7	0.889210	0.503490	0.649580
C81	C8	0.898600	0.600460	0.768800
C91	C9	0.961210	0.003490	0.649580
C101	C10	0.832600	0.100460	0.768800
C111	C11	0.389210	0.346930	0.649580
C121	C12	0.398600	0.130740	0.768800
C131	C13	0.538790	0.153070	0.350420
C141	C14	0.667400	0.369260	0.231200
C151	C15	0.110790	0.496510	0.350420
C161	C16	0.101400	0.399540	0.231200
N11	N1	0.081180	0.996250	0.167240
N21	N2	0.994850	0.060880	0.245500
N31	N3	0.146290	0.895220	0.346820
N41	N4	0.973360	0.035710	0.453280
N51	N5	0.751580	0.836510	0.167240
N61	N6	0.759650	0.693620	0.245500
N71	N7	0.506890	0.757960	0.346820
N81	N8	0.573360	0.511010	0.453280
N91	N9	0.418820	0.663490	0.832760
N101	N10	0.505150	0.806380	0.754500
N111	N11	0.353710	0.742040	0.653180
N121	N12	0.526640	0.988990	0.546720
N131	N13	0.748420	0.503750	0.832760
N141	N14	0.740350	0.439120	0.754500
N151	N15	0.993110	0.604780	0.653180
N161	N16	0.926640	0.464290	0.546720
N171	N17	0.918820	0.003750	0.832760
N181	N18	0.005150	0.939120	0.754500
N191	N19	0.853710	0.104780	0.653180
N201	N20	0.026640	0.964290	0.546720
N211	N21	0.248420	0.163490	0.832760
N221	N22	0.240350	0.306380	0.754500
N231	N23	0.493110	0.242040	0.653180
N241	N24	0.426640	0.488990	0.546720
N251	N25	0.581180	0.336510	0.167240
N261	N26	0.494850	0.193620	0.245500
N271	N27	0.646290	0.257960	0.346820
N281	N28	0.473360	0.011010	0.453280
N291	N29	0.251580	0.496250	0.167240
N301	N30	0.259650	0.560880	0.245500
N311	N31	0.006890	0.395220	0.346820
N321	N32	0.073360	0.535710	0.453280
