data_HUSJUC_clean_PM
_symmetry_space_group_name_H-M	'P1'
_cell_length_a	18.439400
_cell_length_b	13.782800
_cell_length_c	8.116000
_cell_angle_alpha	90.000000
_cell_angle_beta	92.319000
_cell_angle_gamma	90.000000
_symmetry_Int_Tables_number 1

loop_
_symmetry_equiv_pos_as_xyz
'x,y,z'

loop_
_atom_site_label
_atom_site_type_symbol
_atom_site_fract_x
_atom_site_fract_y
_atom_site_fract_z
C11	C1	0.630000	0.557100	0.482400
La11	La1	0.501250	0.517090	0.255330
O11	O1	0.590100	0.482900	0.513700
C21	C2	0.698500	0.572400	0.586300
O21	O2	0.613600	0.613400	0.367100
C31	C3	0.735600	0.493000	0.650200
H11	H1	0.717200	0.431100	0.629800
O31	O3	0.942700	0.089500	0.962400
C41	C4	0.800900	0.503800	0.745800
O41	O4	0.992400	0.187700	0.149900
C51	C5	0.841200	0.420200	0.808300
O51	O5	0.041900	0.833400	0.208000
C61	C6	0.821000	0.325400	0.769300
H21	H2	0.781000	0.316400	0.697200
O61	O6	0.963000	0.893000	0.020600
C71	C7	0.856000	0.244500	0.830200
H31	H3	0.840800	0.182500	0.799800
C81	C8	0.916300	0.258900	0.941000
C91	C9	0.952800	0.173700	0.020800
C101	C10	0.938800	0.350500	0.980200
H41	H4	0.978500	0.358600	0.053500
C111	C11	0.903900	0.433400	0.913100
C121	C12	0.931300	0.531500	0.949200
C131	C13	0.993800	0.548200	0.049500
H51	H5	0.020600	0.495300	0.088700
C141	C14	0.016500	0.639000	0.091100
H61	H6	0.058100	0.647300	0.158200
C151	C15	0.977300	0.720300	0.033300
C161	C16	0.996000	0.820400	0.091400
C171	C17	0.917700	0.707500	0.929900
H71	H7	0.893000	0.761400	0.887600
C181	C18	0.893200	0.613000	0.886500
C191	C19	0.827300	0.601600	0.781200
C201	C20	0.789200	0.678900	0.709400
H81	H8	0.806800	0.741500	0.726000
C211	C21	0.725400	0.665800	0.613100
H91	H9	0.701000	0.719100	0.567400
C221	C22	0.130000	0.057100	0.482400
La21	La2	0.001250	0.017090	0.255330
O71	O7	0.090100	0.982900	0.513700
C231	C23	0.198500	0.072400	0.586300
O81	O8	0.113600	0.113400	0.367100
C241	C24	0.235600	0.993000	0.650200
H101	H10	0.217200	0.931100	0.629800
O91	O9	0.442700	0.589500	0.962400
C251	C25	0.300900	0.003800	0.745800
O101	O10	0.492400	0.687700	0.149900
C261	C26	0.341200	0.920200	0.808300
O111	O11	0.541900	0.333400	0.208000
C271	C27	0.321000	0.825400	0.769300
H111	H11	0.281000	0.816400	0.697200
O121	O12	0.463000	0.393000	0.020600
C281	C28	0.356000	0.744500	0.830200
H121	H12	0.340800	0.682500	0.799800
C291	C29	0.416300	0.758900	0.941000
C301	C30	0.452800	0.673700	0.020800
C311	C31	0.438800	0.850500	0.980200
H131	H13	0.478500	0.858600	0.053500
C321	C32	0.403900	0.933400	0.913100
C331	C33	0.431300	0.031500	0.949200
C341	C34	0.493800	0.048200	0.049500
H141	H14	0.520600	0.995300	0.088700
C351	C35	0.516500	0.139000	0.091100
H151	H15	0.558100	0.147300	0.158200
C361	C36	0.477300	0.220300	0.033300
C371	C37	0.496000	0.320400	0.091400
C381	C38	0.417700	0.207500	0.929900
H161	H16	0.393000	0.261400	0.887600
C391	C39	0.393200	0.113000	0.886500
C401	C40	0.327300	0.101600	0.781200
C411	C41	0.289200	0.178900	0.709400
H171	H17	0.306800	0.241500	0.726000
C421	C42	0.225400	0.165800	0.613100
H181	H18	0.201000	0.219100	0.567400
C431	C43	0.630000	0.442900	0.982400
La31	La3	0.501250	0.482910	0.755330
O131	O13	0.590100	0.517100	0.013700
C441	C44	0.698500	0.427600	0.086300
O141	O14	0.613600	0.386600	0.867100
C451	C45	0.735600	0.507000	0.150200
H191	H19	0.717200	0.568900	0.129800
O151	O15	0.942700	0.910500	0.462400
C461	C46	0.800900	0.496200	0.245800
O161	O16	0.992400	0.812300	0.649900
C471	C47	0.841200	0.579800	0.308300
O171	O17	0.041900	0.166600	0.708000
C481	C48	0.821000	0.674600	0.269300
H201	H20	0.781000	0.683600	0.197200
O181	O18	0.963000	0.107000	0.520600
C491	C49	0.856000	0.755500	0.330200
H211	H21	0.840800	0.817500	0.299800
C501	C50	0.916300	0.741100	0.441000
C511	C51	0.952800	0.826300	0.520800
C521	C52	0.938800	0.649500	0.480200
H221	H22	0.978500	0.641400	0.553500
C531	C53	0.903900	0.566600	0.413100
C541	C54	0.931300	0.468500	0.449200
C551	C55	0.993800	0.451800	0.549500
H231	H23	0.020600	0.504700	0.588700
C561	C56	0.016500	0.361000	0.591100
H241	H24	0.058100	0.352700	0.658200
C571	C57	0.977300	0.279700	0.533300
C581	C58	0.996000	0.179600	0.591400
C591	C59	0.917700	0.292500	0.429900
H251	H25	0.893000	0.238600	0.387600
C601	C60	0.893200	0.387000	0.386500
C611	C61	0.827300	0.398400	0.281200
C621	C62	0.789200	0.321100	0.209400
H261	H26	0.806800	0.258500	0.226000
C631	C63	0.725400	0.334200	0.113100
H271	H27	0.701000	0.280900	0.067400
C641	C64	0.130000	0.942900	0.982400
La41	La4	0.001250	0.982910	0.755330
O191	O19	0.090100	0.017100	0.013700
C651	C65	0.198500	0.927600	0.086300
O201	O20	0.113600	0.886600	0.867100
C661	C66	0.235600	0.007000	0.150200
H281	H28	0.217200	0.068900	0.129800
O211	O21	0.442700	0.410500	0.462400
C671	C67	0.300900	0.996200	0.245800
O221	O22	0.492400	0.312300	0.649900
C681	C68	0.341200	0.079800	0.308300
O231	O23	0.541900	0.666600	0.708000
C691	C69	0.321000	0.174600	0.269300
H291	H29	0.281000	0.183600	0.197200
O241	O24	0.463000	0.607000	0.520600
C701	C70	0.356000	0.255500	0.330200
H301	H30	0.340800	0.317500	0.299800
C711	C71	0.416300	0.241100	0.441000
C721	C72	0.452800	0.326300	0.520800
C731	C73	0.438800	0.149500	0.480200
H311	H31	0.478500	0.141400	0.553500
C741	C74	0.403900	0.066600	0.413100
C751	C75	0.431300	0.968500	0.449200
C761	C76	0.493800	0.951800	0.549500
H321	H32	0.520600	0.004700	0.588700
C771	C77	0.516500	0.861000	0.591100
H331	H33	0.558100	0.852700	0.658200
C781	C78	0.477300	0.779700	0.533300
C791	C79	0.496000	0.679600	0.591400
C801	C80	0.417700	0.792500	0.429900
H341	H34	0.393000	0.738600	0.387600
C811	C81	0.393200	0.887000	0.386500
C821	C82	0.327300	0.898400	0.281200
C831	C83	0.289200	0.821100	0.209400
H351	H35	0.306800	0.758500	0.226000
C841	C84	0.225400	0.834200	0.113100
H361	H36	0.201000	0.780900	0.067400
