data_HUTTIA_clean_PM
_symmetry_space_group_name_H-M	'P1'
_cell_length_a	15.833000
_cell_length_b	16.086000
_cell_length_c	22.670000
_cell_angle_alpha	90.000000
_cell_angle_beta	90.000000
_cell_angle_gamma	90.000000
_symmetry_Int_Tables_number 1

loop_
_symmetry_equiv_pos_as_xyz
'x,y,z'

loop_
_atom_site_label
_atom_site_type_symbol
_atom_site_fract_x
_atom_site_fract_y
_atom_site_fract_z
Zn11	Zn1	0.687670	0.561070	0.259230
Zn21	Zn2	0.834560	0.444720	0.252280
Zn31	Zn3	0.187670	0.438930	0.740770
Zn41	Zn4	0.334560	0.555280	0.747720
Zn51	Zn5	0.687670	0.438930	0.759230
Zn61	Zn6	0.834560	0.555280	0.752280
Zn71	Zn7	0.187670	0.561070	0.240770
Zn81	Zn8	0.334560	0.444720	0.247720
H11	H1	0.778200	0.718600	0.117700
H21	H2	0.840800	0.801700	0.045700
H31	H3	0.039000	0.642300	0.039000
H41	H4	0.977900	0.563000	0.112100
H51	H5	0.939300	0.657600	0.928200
H61	H6	0.004300	0.570600	0.859000
H71	H7	0.220200	0.704200	0.874400
H81	H8	0.155300	0.788800	0.944600
H91	H9	0.755300	0.284200	0.389400
H101	H10	0.699700	0.194200	0.461100
H111	H11	0.481900	0.329400	0.459600
H121	H12	0.540100	0.419300	0.390400
H131	H13	0.589800	0.325100	0.575400
H141	H14	0.519200	0.412500	0.640100
H151	H15	0.308000	0.276200	0.620400
H161	H16	0.377700	0.187000	0.556400
H171	H17	0.723000	0.733500	0.273400
H181	H18	0.659500	0.862500	0.286400
H191	H19	0.432800	0.749400	0.271900
H201	H20	0.503400	0.621500	0.264900
H211	H21	0.436700	0.905000	0.280900
H221	H22	0.589500	0.106100	0.274600
H231	H23	0.588900	0.261400	0.276600
H241	H24	0.518500	0.386000	0.269000
H251	H25	0.301600	0.267000	0.249400
H261	H26	0.367100	0.140800	0.258800
H271	H27	0.278200	0.281400	0.882300
H281	H28	0.340800	0.198300	0.954300
H291	H29	0.539000	0.357700	0.961000
H301	H30	0.477900	0.437000	0.887900
H311	H31	0.439300	0.342400	0.071800
H321	H32	0.504300	0.429400	0.141000
H331	H33	0.720200	0.295800	0.125600
H341	H34	0.655300	0.211200	0.055400
H351	H35	0.255300	0.715800	0.610600
H361	H36	0.199700	0.805800	0.538900
H371	H37	0.981900	0.670600	0.540400
H381	H38	0.040100	0.580700	0.609600
H391	H39	0.089800	0.674900	0.424600
H401	H40	0.019200	0.587500	0.359900
H411	H41	0.808000	0.723800	0.379600
H421	H42	0.877700	0.813000	0.443600
H431	H43	0.223000	0.266500	0.726600
H441	H44	0.159500	0.137500	0.713600
H451	H45	0.932800	0.250600	0.728100
H461	H46	0.003400	0.378500	0.735100
H471	H47	0.936700	0.095000	0.719100
H481	H48	0.089500	0.893900	0.725400
H491	H49	0.088900	0.738600	0.723400
H501	H50	0.018500	0.614000	0.731000
H511	H51	0.801600	0.733000	0.750600
H521	H52	0.867100	0.859200	0.741200
H531	H53	0.778200	0.281400	0.617700
H541	H54	0.840800	0.198300	0.545700
H551	H55	0.039000	0.357700	0.539000
H561	H56	0.977900	0.437000	0.612100
H571	H57	0.939300	0.342400	0.428200
H581	H58	0.004300	0.429400	0.359000
H591	H59	0.220200	0.295800	0.374400
H601	H60	0.155300	0.211200	0.444600
H611	H61	0.755300	0.715800	0.889400
H621	H62	0.699700	0.805800	0.961100
H631	H63	0.481900	0.670600	0.959600
H641	H64	0.540100	0.580700	0.890400
H651	H65	0.589800	0.674900	0.075400
H661	H66	0.519200	0.587500	0.140100
H671	H67	0.308000	0.723800	0.120400
H681	H68	0.377700	0.813000	0.056400
H691	H69	0.723000	0.266500	0.773400
H701	H70	0.659500	0.137500	0.786400
H711	H71	0.432800	0.250600	0.771900
H721	H72	0.503400	0.378500	0.764900
H731	H73	0.436700	0.095000	0.780900
H741	H74	0.589500	0.893900	0.774600
H751	H75	0.588900	0.738600	0.776600
H761	H76	0.518500	0.614000	0.769000
H771	H77	0.301600	0.733000	0.749400
H781	H78	0.367100	0.859200	0.758800
H791	H79	0.278200	0.718600	0.382300
H801	H80	0.340800	0.801700	0.454300
H811	H81	0.539000	0.642300	0.461000
H821	H82	0.477900	0.563000	0.387900
H831	H83	0.439300	0.657600	0.571800
H841	H84	0.504300	0.570600	0.641000
H851	H85	0.720200	0.704200	0.625600
H861	H86	0.655300	0.788800	0.555400
H871	H87	0.255300	0.284200	0.110600
H881	H88	0.199700	0.194200	0.038900
H891	H89	0.981900	0.329400	0.040400
H901	H90	0.040100	0.419300	0.109600
H911	H91	0.089800	0.325100	0.924600
H921	H92	0.019200	0.412500	0.859900
H931	H93	0.808000	0.276200	0.879600
H941	H94	0.877700	0.187000	0.943600
H951	H95	0.223000	0.733500	0.226600
H961	H96	0.159500	0.862500	0.213600
H971	H97	0.932800	0.749400	0.228100
H981	H98	0.003400	0.621500	0.235100
H991	H99	0.936700	0.905000	0.219100
H1001	H100	0.089500	0.106100	0.225400
H1011	H101	0.088900	0.261400	0.223400
H1021	H102	0.018500	0.386000	0.231000
H1031	H103	0.801600	0.267000	0.250600
H1041	H104	0.867100	0.140800	0.241200
C11	C1	0.833800	0.579700	0.169700
C21	C2	0.870700	0.632300	0.123000
C31	C3	0.831700	0.703200	0.102100
C41	C4	0.868700	0.752800	0.058900
C51	C5	0.946300	0.730800	0.035200
C61	C6	0.986300	0.658600	0.055300
C71	C7	0.949500	0.611300	0.098400
C81	C8	0.994300	0.786400	0.990100
C91	C9	0.055200	0.841100	0.026100
C101	C10	0.935900	0.844800	0.954800
C111	C11	0.040400	0.732100	0.944400
C121	C12	0.996700	0.667000	0.917800
C131	C13	0.034900	0.615300	0.876200
C141	C14	0.117900	0.629700	0.860300
C151	C15	0.163200	0.694400	0.885500
C161	C16	0.124200	0.744700	0.927200
C171	C17	0.162000	0.573800	0.816300
C181	C18	0.692900	0.418500	0.338400
C191	C19	0.653800	0.360700	0.384500
C201	C20	0.700200	0.293600	0.404600
C211	C21	0.667100	0.239600	0.447000
C221	C22	0.584800	0.253300	0.468400
C231	C23	0.537900	0.320500	0.446100
C241	C24	0.572200	0.373800	0.404800
C251	C25	0.541600	0.195600	0.513600
C261	C26	0.483300	0.136500	0.476700
C271	C27	0.604400	0.142400	0.548900
C281	C28	0.490000	0.248400	0.557500
C291	C29	0.531900	0.315500	0.584000
C301	C30	0.490000	0.367400	0.622300
C311	C31	0.404900	0.354300	0.635200
C321	C32	0.365400	0.286800	0.610800
C331	C33	0.406600	0.233600	0.572500
C341	C34	0.358000	0.413600	0.674100
C351	C35	0.663100	0.737000	0.274100
C361	C36	0.625800	0.814400	0.280500
C371	C37	0.538400	0.820300	0.278200
C381	C38	0.492800	0.747800	0.272700
C391	C39	0.535300	0.671200	0.268300
C401	C40	0.496500	0.901700	0.279400
C411	C41	0.529500	0.107400	0.273600
C421	C42	0.485300	0.187500	0.268600
C431	C43	0.529400	0.261800	0.271300
C441	C44	0.487500	0.335600	0.266300
C451	C45	0.361000	0.265600	0.255200
C461	C46	0.399300	0.190600	0.260600
C471	C47	0.333800	0.420300	0.830300
C481	C48	0.370700	0.367700	0.877000
C491	C49	0.331700	0.296800	0.897900
C501	C50	0.368700	0.247200	0.941100
C511	C51	0.446300	0.269200	0.964800
C521	C52	0.486300	0.341400	0.944700
C531	C53	0.449500	0.388700	0.901600
C541	C54	0.494300	0.213600	0.009900
C551	C55	0.555200	0.158900	0.973900
C561	C56	0.435900	0.155200	0.045200
C571	C57	0.540400	0.267900	0.055600
C581	C58	0.496700	0.333000	0.082200
C591	C59	0.534900	0.384700	0.123800
C601	C60	0.617900	0.370300	0.139700
C611	C61	0.663200	0.305600	0.114500
C621	C62	0.624200	0.255300	0.072800
C631	C63	0.662000	0.426200	0.183700
C641	C64	0.192900	0.581500	0.661600
C651	C65	0.153800	0.639300	0.615500
C661	C66	0.200200	0.706400	0.595400
C671	C67	0.167100	0.760400	0.553000
C681	C68	0.084800	0.746700	0.531600
C691	C69	0.037900	0.679500	0.553900
C701	C70	0.072200	0.626200	0.595200
C711	C71	0.041600	0.804400	0.486400
C721	C72	0.983300	0.863500	0.523300
C731	C73	0.104400	0.857600	0.451100
C741	C74	0.990000	0.751600	0.442500
C751	C75	0.031900	0.684500	0.416000
C761	C76	0.990000	0.632600	0.377700
C771	C77	0.904900	0.645700	0.364800
C781	C78	0.865400	0.713200	0.389200
C791	C79	0.906600	0.766400	0.427500
C801	C80	0.858000	0.586400	0.325900
C811	C81	0.163100	0.263000	0.725900
C821	C82	0.125800	0.185600	0.719500
C831	C83	0.038400	0.179700	0.721800
C841	C84	0.992800	0.252200	0.727300
C851	C85	0.035300	0.328800	0.731700
C861	C86	0.996500	0.098300	0.720600
C871	C87	0.029500	0.892600	0.726400
C881	C88	0.985300	0.812500	0.731400
C891	C89	0.029400	0.738200	0.728700
C901	C90	0.987500	0.664400	0.733700
C911	C91	0.861000	0.734400	0.744800
C921	C92	0.899300	0.809400	0.739400
C931	C93	0.833800	0.420300	0.669700
C941	C94	0.870700	0.367700	0.623000
C951	C95	0.831700	0.296800	0.602100
C961	C96	0.868700	0.247200	0.558900
C971	C97	0.946300	0.269200	0.535200
C981	C98	0.986300	0.341400	0.555300
C991	C99	0.949500	0.388700	0.598400
C1001	C100	0.994300	0.213600	0.490100
C1011	C101	0.055200	0.158900	0.526100
C1021	C102	0.935900	0.155200	0.454800
C1031	C103	0.040400	0.267900	0.444400
C1041	C104	0.996700	0.333000	0.417800
C1051	C105	0.034900	0.384700	0.376200
C1061	C106	0.117900	0.370300	0.360300
C1071	C107	0.163200	0.305600	0.385500
C1081	C108	0.124200	0.255300	0.427200
C1091	C109	0.162000	0.426200	0.316300
C1101	C110	0.692900	0.581500	0.838400
C1111	C111	0.653800	0.639300	0.884500
C1121	C112	0.700200	0.706400	0.904600
C1131	C113	0.667100	0.760400	0.947000
C1141	C114	0.584800	0.746700	0.968400
C1151	C115	0.537900	0.679500	0.946100
C1161	C116	0.572200	0.626200	0.904800
C1171	C117	0.541600	0.804400	0.013600
C1181	C118	0.483300	0.863500	0.976700
C1191	C119	0.604400	0.857600	0.048900
C1201	C120	0.490000	0.751600	0.057500
C1211	C121	0.531900	0.684500	0.084000
C1221	C122	0.490000	0.632600	0.122300
C1231	C123	0.404900	0.645700	0.135200
C1241	C124	0.365400	0.713200	0.110800
C1251	C125	0.406600	0.766400	0.072500
C1261	C126	0.358000	0.586400	0.174100
C1271	C127	0.663100	0.263000	0.774100
C1281	C128	0.625800	0.185600	0.780500
C1291	C129	0.538400	0.179700	0.778200
C1301	C130	0.492800	0.252200	0.772700
C1311	C131	0.535300	0.328800	0.768300
C1321	C132	0.496500	0.098300	0.779400
C1331	C133	0.529500	0.892600	0.773600
C1341	C134	0.485300	0.812500	0.768600
C1351	C135	0.529400	0.738200	0.771300
C1361	C136	0.487500	0.664400	0.766300
C1371	C137	0.361000	0.734400	0.755200
C1381	C138	0.399300	0.809400	0.760600
C1391	C139	0.333800	0.579700	0.330300
C1401	C140	0.370700	0.632300	0.377000
C1411	C141	0.331700	0.703200	0.397900
C1421	C142	0.368700	0.752800	0.441100
C1431	C143	0.446300	0.730800	0.464800
C1441	C144	0.486300	0.658600	0.444700
C1451	C145	0.449500	0.611300	0.401600
C1461	C146	0.494300	0.786400	0.509900
C1471	C147	0.555200	0.841100	0.473900
C1481	C148	0.435900	0.844800	0.545200
C1491	C149	0.540400	0.732100	0.555600
C1501	C150	0.496700	0.667000	0.582200
C1511	C151	0.534900	0.615300	0.623800
C1521	C152	0.617900	0.629700	0.639700
C1531	C153	0.663200	0.694400	0.614500
C1541	C154	0.624200	0.744700	0.572800
C1551	C155	0.662000	0.573800	0.683700
C1561	C156	0.192900	0.418500	0.161600
C1571	C157	0.153800	0.360700	0.115500
C1581	C158	0.200200	0.293600	0.095400
C1591	C159	0.167100	0.239600	0.053000
C1601	C160	0.084800	0.253300	0.031600
C1611	C161	0.037900	0.320500	0.053900
C1621	C162	0.072200	0.373800	0.095200
C1631	C163	0.041600	0.195600	0.986400
C1641	C164	0.983300	0.136500	0.023300
C1651	C165	0.104400	0.142400	0.951100
C1661	C166	0.990000	0.248400	0.942500
C1671	C167	0.031900	0.315500	0.916000
C1681	C168	0.990000	0.367400	0.877700
C1691	C169	0.904900	0.354300	0.864800
C1701	C170	0.865400	0.286800	0.889200
C1711	C171	0.906600	0.233600	0.927500
C1721	C172	0.858000	0.413600	0.825900
C1731	C173	0.163100	0.737000	0.225900
C1741	C174	0.125800	0.814400	0.219500
C1751	C175	0.038400	0.820300	0.221800
C1761	C176	0.992800	0.747800	0.227300
C1771	C177	0.035300	0.671200	0.231700
C1781	C178	0.996500	0.901700	0.220600
C1791	C179	0.029500	0.107400	0.226400
C1801	C180	0.985300	0.187500	0.231400
C1811	C181	0.029400	0.261800	0.228700
C1821	C182	0.987500	0.335600	0.233700
C1831	C183	0.861000	0.265600	0.244800
C1841	C184	0.899300	0.190600	0.239400
N11	N1	0.618500	0.667100	0.268800
N21	N2	0.540900	0.968200	0.278200
N31	N3	0.487400	0.038800	0.276600
N41	N4	0.403600	0.338700	0.257700
N51	N5	0.118500	0.332900	0.731200
N61	N6	0.040900	0.031800	0.721800
N71	N7	0.987400	0.961200	0.723400
N81	N8	0.903600	0.661300	0.742300
N91	N9	0.618500	0.332900	0.768800
N101	N10	0.540900	0.031800	0.778200
N111	N11	0.487400	0.961200	0.776600
N121	N12	0.403600	0.661300	0.757700
N131	N13	0.118500	0.667100	0.231200
N141	N14	0.040900	0.968200	0.221800
N151	N15	0.987400	0.038800	0.223400
N161	N16	0.903600	0.338700	0.242300
O11	O1	0.762900	0.604100	0.191000
O21	O2	0.872900	0.516700	0.185000
O31	O3	0.233400	0.595700	0.799200
O41	O4	0.123700	0.508500	0.801200
O51	O5	0.766500	0.401700	0.322600
O61	O6	0.647700	0.478800	0.321400
O71	O7	0.396900	0.476600	0.693500
O81	O8	0.282300	0.397300	0.685200
O91	O9	0.262900	0.395900	0.809000
O101	O10	0.372900	0.483300	0.815000
O111	O11	0.733400	0.404300	0.200800
O121	O12	0.623700	0.491500	0.198800
O131	O13	0.266500	0.598300	0.677400
O141	O14	0.147700	0.521200	0.678600
O151	O15	0.896900	0.523400	0.306500
O161	O16	0.782300	0.602700	0.314800
O171	O17	0.762900	0.395900	0.691000
O181	O18	0.872900	0.483300	0.685000
O191	O19	0.233400	0.404300	0.299200
O201	O20	0.123700	0.491500	0.301200
O211	O21	0.766500	0.598300	0.822600
O221	O22	0.647700	0.521200	0.821400
O231	O23	0.396900	0.523400	0.193500
O241	O24	0.282300	0.602700	0.185200
O251	O25	0.262900	0.604100	0.309000
O261	O26	0.372900	0.516700	0.315000
O271	O27	0.733400	0.595700	0.700800
O281	O28	0.623700	0.508500	0.698800
O291	O29	0.266500	0.401700	0.177400
O301	O30	0.147700	0.478800	0.178600
O311	O31	0.896900	0.476600	0.806500
O321	O32	0.782300	0.397300	0.814800
F11	F1	0.014500	0.878100	0.071100
F21	F2	0.116500	0.795500	0.051070
F31	F3	0.090800	0.901600	0.995400
F41	F4	0.976800	0.880700	0.909770
F51	F5	0.901800	0.905700	0.986600
F61	F6	0.870600	0.802400	0.930500
F71	F7	0.421000	0.176700	0.450800
F81	F8	0.528100	0.099700	0.433200
F91	F9	0.450500	0.074500	0.509300
F101	F10	0.640500	0.082000	0.516900
F111	F11	0.565200	0.102800	0.594070
F121	F12	0.665400	0.187500	0.572670
F131	F13	0.514500	0.121900	0.928900
F141	F14	0.616500	0.204500	0.948930
F151	F15	0.590800	0.098400	0.004600
F161	F16	0.476800	0.119300	0.090230
F171	F17	0.401800	0.094300	0.013400
F181	F18	0.370600	0.197600	0.069500
F191	F19	0.921000	0.823300	0.549200
F201	F20	0.028100	0.900300	0.566800
F211	F21	0.950500	0.925500	0.490700
F221	F22	0.140500	0.918000	0.483100
F231	F23	0.065200	0.897200	0.405930
F241	F24	0.165400	0.812500	0.427330
F251	F25	0.014500	0.121900	0.571100
F261	F26	0.116500	0.204500	0.551070
F271	F27	0.090800	0.098400	0.495400
F281	F28	0.976800	0.119300	0.409770
F291	F29	0.901800	0.094300	0.486600
F301	F30	0.870600	0.197600	0.430500
F311	F31	0.421000	0.823300	0.950800
F321	F32	0.528100	0.900300	0.933200
F331	F33	0.450500	0.925500	0.009300
F341	F34	0.640500	0.918000	0.016900
F351	F35	0.565200	0.897200	0.094070
F361	F36	0.665400	0.812500	0.072670
F371	F37	0.514500	0.878100	0.428900
F381	F38	0.616500	0.795500	0.448930
F391	F39	0.590800	0.901600	0.504600
F401	F40	0.476800	0.880700	0.590230
F411	F41	0.401800	0.905700	0.513400
F421	F42	0.370600	0.802400	0.569500
F431	F43	0.921000	0.176700	0.049200
F441	F44	0.028100	0.099700	0.066800
F451	F45	0.950500	0.074500	0.990700
F461	F46	0.140500	0.082000	0.983100
F471	F47	0.065200	0.102800	0.905930
F481	F48	0.165400	0.187500	0.927330
