data_HUVHOX_clean_PM
_symmetry_space_group_name_H-M	'P1'
_cell_length_a	15.444000
_cell_length_b	17.895000
_cell_length_c	8.979000
_cell_angle_alpha	90.000000
_cell_angle_beta	90.000000
_cell_angle_gamma	90.000000
_symmetry_Int_Tables_number 1

loop_
_symmetry_equiv_pos_as_xyz
'x,y,z'

loop_
_atom_site_label
_atom_site_type_symbol
_atom_site_fract_x
_atom_site_fract_y
_atom_site_fract_z
Zn11	Zn1	0.085780	0.395080	0.057170
P11	P1	0.986740	0.514680	0.230760
O11	O1	0.073800	0.480000	0.195400
O21	O2	0.964500	0.580700	0.135100
O31	O3	0.980900	0.537500	0.393400
O41	O4	0.708700	0.392100	0.497000
O51	O5	0.728200	0.359500	0.262700
N11	N1	0.908100	0.378100	0.290100
N21	N2	0.004100	0.316300	0.136800
C11	C1	0.905100	0.444000	0.193200
H11	H1	0.848500	0.466900	0.202400
H21	H2	0.911500	0.427600	0.090800
C21	C2	0.852100	0.380100	0.418900
H31	H3	0.863500	0.425900	0.473300
H41	H4	0.867200	0.338700	0.483600
C31	C3	0.756600	0.376000	0.386000
C41	C4	0.943700	0.312900	0.244700
Zn21	Zn2	0.414220	0.604920	0.557170
P21	P2	0.513260	0.485320	0.730760
O61	O6	0.426200	0.520000	0.695400
O71	O7	0.535500	0.419300	0.635100
O81	O8	0.519100	0.462500	0.893400
O91	O9	0.791300	0.607900	0.997000
O101	O10	0.771800	0.640500	0.762700
N31	N3	0.591900	0.621900	0.790100
N41	N4	0.495900	0.683700	0.636800
C51	C5	0.594900	0.556000	0.693200
H51	H5	0.651500	0.533100	0.702400
H61	H6	0.588500	0.572400	0.590800
C61	C6	0.647900	0.619900	0.918900
H71	H7	0.636500	0.574100	0.973300
H81	H8	0.632800	0.661300	0.983600
C71	C7	0.743400	0.624000	0.886000
C81	C8	0.556300	0.687100	0.744700
Zn31	Zn3	0.914220	0.895080	0.942830
P31	P3	0.013260	0.014680	0.769240
O111	O11	0.926200	0.980000	0.804600
O121	O12	0.035500	0.080700	0.864900
O131	O13	0.019100	0.037500	0.606600
O141	O14	0.291300	0.892100	0.503000
O151	O15	0.271800	0.859500	0.737300
N51	N5	0.091900	0.878100	0.709900
N61	N6	0.995900	0.816300	0.863200
C91	C9	0.094900	0.944000	0.806800
H91	H9	0.151500	0.966900	0.797600
H101	H10	0.088500	0.927600	0.909200
C101	C10	0.147900	0.880100	0.581100
H111	H11	0.136500	0.925900	0.526700
H121	H12	0.132800	0.838700	0.516400
C111	C11	0.243400	0.876000	0.614000
C121	C12	0.056300	0.812900	0.755300
Zn41	Zn4	0.585780	0.104920	0.442830
P41	P4	0.486740	0.985320	0.269240
O161	O16	0.573800	0.020000	0.304600
O171	O17	0.464500	0.919300	0.364900
O181	O18	0.480900	0.962500	0.106600
O191	O19	0.208700	0.107900	0.003000
O201	O20	0.228200	0.140500	0.237300
N71	N7	0.408100	0.121900	0.209900
N81	N8	0.504100	0.183700	0.363200
C131	C13	0.405100	0.056000	0.306800
H131	H13	0.348500	0.033100	0.297600
H141	H14	0.411500	0.072400	0.409200
C141	C14	0.352100	0.119900	0.081100
H151	H15	0.363500	0.074100	0.026700
H161	H16	0.367200	0.161300	0.016400
C151	C15	0.256600	0.124000	0.114000
C161	C16	0.443700	0.187100	0.255300
Zn51	Zn5	0.914220	0.604920	0.942830
P51	P5	0.013260	0.485320	0.769240
O211	O21	0.926200	0.520000	0.804600
O221	O22	0.035500	0.419300	0.864900
O231	O23	0.019100	0.462500	0.606600
O241	O24	0.291300	0.607900	0.503000
O251	O25	0.271800	0.640500	0.737300
N91	N9	0.091900	0.621900	0.709900
N101	N10	0.995900	0.683700	0.863200
C171	C17	0.094900	0.556000	0.806800
H171	H17	0.151500	0.533100	0.797600
H181	H18	0.088500	0.572400	0.909200
C181	C18	0.147900	0.619900	0.581100
H191	H19	0.136500	0.574100	0.526700
H201	H20	0.132800	0.661300	0.516400
C191	C19	0.243400	0.624000	0.614000
C201	C20	0.056300	0.687100	0.755300
Zn61	Zn6	0.585780	0.395080	0.442830
P61	P6	0.486740	0.514680	0.269240
O261	O26	0.573800	0.480000	0.304600
O271	O27	0.464500	0.580700	0.364900
O281	O28	0.480900	0.537500	0.106600
O291	O29	0.208700	0.392100	0.003000
O301	O30	0.228200	0.359500	0.237300
N111	N11	0.408100	0.378100	0.209900
N121	N12	0.504100	0.316300	0.363200
C211	C21	0.405100	0.444000	0.306800
H211	H21	0.348500	0.466900	0.297600
H221	H22	0.411500	0.427600	0.409200
C221	C22	0.352100	0.380100	0.081100
H231	H23	0.363500	0.425900	0.026700
H241	H24	0.367200	0.338700	0.016400
C231	C23	0.256600	0.376000	0.114000
C241	C24	0.443700	0.312900	0.255300
Zn71	Zn7	0.085780	0.104920	0.057170
P71	P7	0.986740	0.985320	0.230760
O311	O31	0.073800	0.020000	0.195400
O321	O32	0.964500	0.919300	0.135100
O331	O33	0.980900	0.962500	0.393400
O341	O34	0.708700	0.107900	0.497000
O351	O35	0.728200	0.140500	0.262700
N131	N13	0.908100	0.121900	0.290100
N141	N14	0.004100	0.183700	0.136800
C251	C25	0.905100	0.056000	0.193200
H251	H25	0.848500	0.033100	0.202400
H261	H26	0.911500	0.072400	0.090800
C261	C26	0.852100	0.119900	0.418900
H271	H27	0.863500	0.074100	0.473300
H281	H28	0.867200	0.161300	0.483600
C271	C27	0.756600	0.124000	0.386000
C281	C28	0.943700	0.187100	0.244700
Zn81	Zn8	0.414220	0.895080	0.557170
P81	P8	0.513260	0.014680	0.730760
O361	O36	0.426200	0.980000	0.695400
O371	O37	0.535500	0.080700	0.635100
O381	O38	0.519100	0.037500	0.893400
O391	O39	0.791300	0.892100	0.997000
O401	O40	0.771800	0.859500	0.762700
N151	N15	0.591900	0.878100	0.790100
N161	N16	0.495900	0.816300	0.636800
C291	C29	0.594900	0.944000	0.693200
H291	H29	0.651500	0.966900	0.702400
H301	H30	0.588500	0.927600	0.590800
C301	C30	0.647900	0.880100	0.918900
H311	H31	0.636500	0.925900	0.973300
H321	H32	0.632800	0.838700	0.983600
C311	C31	0.743400	0.876000	0.886000
C321	C32	0.556300	0.812900	0.744700
O411	O41	0.095400	0.250000	0.995100
N171	N17	0.915200	0.250000	0.305000
C331	C33	0.036600	0.250000	0.087100
O421	O42	0.404600	0.750000	0.495100
N181	N18	0.584800	0.750000	0.805000
C341	C34	0.463400	0.750000	0.587100
O431	O43	0.904600	0.750000	0.004900
N191	N19	0.084800	0.750000	0.695000
C351	C35	0.963400	0.750000	0.912900
O441	O44	0.595400	0.250000	0.504900
N201	N20	0.415200	0.250000	0.195000
C361	C36	0.536600	0.250000	0.412900
