data_HUXHEP01_clean_PM
_symmetry_space_group_name_H-M	'P1'
_cell_length_a	22.909700
_cell_length_b	6.891000
_cell_length_c	14.413200
_cell_angle_alpha	90.000000
_cell_angle_beta	106.620000
_cell_angle_gamma	90.000000
_symmetry_Int_Tables_number 1

loop_
_symmetry_equiv_pos_as_xyz
'x,y,z'

loop_
_atom_site_label
_atom_site_type_symbol
_atom_site_fract_x
_atom_site_fract_y
_atom_site_fract_z
Cd11	Cd1	0.413000	0.155700	0.693390
C11	C1	0.680100	0.995100	0.659200
H11	H1	0.709000	0.963900	0.627600
O11	O1	0.563400	0.113800	0.897500
C21	C2	0.611600	0.118500	0.501400
C31	C3	0.810700	0.600300	0.898800
H21	H2	0.830000	0.668000	0.959700
O21	O2	0.569700	0.233000	0.458200
C41	C4	0.582500	0.140100	0.656700
H31	H3	0.546800	0.203800	0.623600
O31	O3	0.908440	0.632800	0.870200
N11	N1	0.493000	0.813000	0.942500
O41	O4	0.830200	0.570600	0.744300
C51	C5	0.691700	0.956500	0.756600
N21	N2	0.751900	0.692600	0.848700
C61	C6	0.649400	0.007400	0.805000
H41	H4	0.657100	0.979500	0.870500
C71	C7	0.723900	0.423900	0.921800
H51	H5	0.701700	0.302300	0.911600
H61	H6	0.722400	0.480000	0.982700
C81	C8	0.752000	0.870900	0.809700
C91	C9	0.699100	0.562200	0.838900
H71	H7	0.688100	0.495200	0.777100
H81	H8	0.664000	0.632500	0.846200
C101	C10	0.551800	0.161300	0.811500
O51	O5	0.643300	0.028200	0.456400
O61	O6	0.800100	0.960600	0.817800
C111	C11	0.624700	0.081700	0.607100
O71	O7	0.506380	0.268700	0.767900
C121	C12	0.790900	0.394500	0.919400
H91	H9	0.816200	0.346100	0.981000
H101	H10	0.792900	0.304700	0.868600
C131	C13	0.852800	0.600300	0.833800
C141	C14	0.594600	0.101700	0.754700
C151	C15	0.449200	0.561000	0.017800
H111	H11	0.411500	0.488500	0.005600
H121	H12	0.460600	0.606400	0.084200
C161	C16	0.442600	0.704000	0.959500
H131	H13	0.417300	0.798100	0.980300
H141	H14	0.418700	0.657100	0.896800
Cd21	Cd2	0.913000	0.655700	0.693390
C171	C17	0.180100	0.495100	0.659200
H151	H15	0.209000	0.463900	0.627600
O81	O8	0.063400	0.613800	0.897500
C181	C18	0.111600	0.618500	0.501400
C191	C19	0.310700	0.100300	0.898800
H161	H16	0.330000	0.168000	0.959700
O91	O9	0.069700	0.733000	0.458200
C201	C20	0.082500	0.640100	0.656700
H171	H17	0.046800	0.703800	0.623600
O101	O10	0.408440	0.132800	0.870200
N31	N3	0.993000	0.313000	0.942500
O111	O11	0.330200	0.070600	0.744300
C211	C21	0.191700	0.456500	0.756600
N41	N4	0.251900	0.192600	0.848700
C221	C22	0.149400	0.507400	0.805000
H181	H18	0.157100	0.479500	0.870500
C231	C23	0.223900	0.923900	0.921800
H191	H19	0.201700	0.802300	0.911600
H201	H20	0.222400	0.980000	0.982700
C241	C24	0.252000	0.370900	0.809700
C251	C25	0.199100	0.062200	0.838900
H211	H21	0.188100	0.995200	0.777100
H221	H22	0.164000	0.132500	0.846200
C261	C26	0.051800	0.661300	0.811500
O121	O12	0.143300	0.528200	0.456400
O131	O13	0.300100	0.460600	0.817800
C271	C27	0.124700	0.581700	0.607100
O141	O14	0.006380	0.768700	0.767900
C281	C28	0.290900	0.894500	0.919400
H231	H23	0.316200	0.846100	0.981000
H241	H24	0.292900	0.804700	0.868600
C291	C29	0.352800	0.100300	0.833800
C301	C30	0.094600	0.601700	0.754700
C311	C31	0.949200	0.061000	0.017800
H251	H25	0.911500	0.988500	0.005600
H261	H26	0.960600	0.106400	0.084200
C321	C32	0.942600	0.204000	0.959500
H271	H27	0.917300	0.298100	0.980300
H281	H28	0.918700	0.157100	0.896800
Cd31	Cd3	0.587000	0.155700	0.306610
C331	C33	0.319900	0.995100	0.340800
H291	H29	0.291000	0.963900	0.372400
O151	O15	0.436600	0.113800	0.102500
C341	C34	0.388400	0.118500	0.498600
C351	C35	0.189300	0.600300	0.101200
H301	H30	0.170000	0.668000	0.040300
O161	O16	0.430300	0.233000	0.541800
C361	C36	0.417500	0.140100	0.343300
H311	H31	0.453200	0.203800	0.376400
O171	O17	0.091560	0.632800	0.129800
N51	N5	0.507000	0.813000	0.057500
O181	O18	0.169800	0.570600	0.255700
C371	C37	0.308300	0.956500	0.243400
N61	N6	0.248100	0.692600	0.151300
C381	C38	0.350600	0.007400	0.195000
H321	H32	0.342900	0.979500	0.129500
C391	C39	0.276100	0.423900	0.078200
H331	H33	0.298300	0.302300	0.088400
H341	H34	0.277600	0.480000	0.017300
C401	C40	0.248000	0.870900	0.190300
C411	C41	0.300900	0.562200	0.161100
H351	H35	0.311900	0.495200	0.222900
H361	H36	0.336000	0.632500	0.153800
C421	C42	0.448200	0.161300	0.188500
O191	O19	0.356700	0.028200	0.543600
O201	O20	0.199900	0.960600	0.182200
C431	C43	0.375300	0.081700	0.392900
O211	O21	0.493620	0.268700	0.232100
C441	C44	0.209100	0.394500	0.080600
H371	H37	0.183800	0.346100	0.019000
H381	H38	0.207100	0.304700	0.131400
C451	C45	0.147200	0.600300	0.166200
C461	C46	0.405400	0.101700	0.245300
C471	C47	0.550800	0.561000	0.982200
H391	H39	0.588500	0.488500	0.994400
H401	H40	0.539400	0.606400	0.915800
C481	C48	0.557400	0.704000	0.040500
H411	H41	0.582700	0.798100	0.019700
H421	H42	0.581300	0.657100	0.103200
Cd41	Cd4	0.087000	0.655700	0.306610
C491	C49	0.819900	0.495100	0.340800
H431	H43	0.791000	0.463900	0.372400
O221	O22	0.936600	0.613800	0.102500
C501	C50	0.888400	0.618500	0.498600
C511	C51	0.689300	0.100300	0.101200
H441	H44	0.670000	0.168000	0.040300
O231	O23	0.930300	0.733000	0.541800
C521	C52	0.917500	0.640100	0.343300
H451	H45	0.953200	0.703800	0.376400
O241	O24	0.591560	0.132800	0.129800
N71	N7	0.007000	0.313000	0.057500
O251	O25	0.669800	0.070600	0.255700
C531	C53	0.808300	0.456500	0.243400
N81	N8	0.748100	0.192600	0.151300
C541	C54	0.850600	0.507400	0.195000
H461	H46	0.842900	0.479500	0.129500
C551	C55	0.776100	0.923900	0.078200
H471	H47	0.798300	0.802300	0.088400
H481	H48	0.777600	0.980000	0.017300
C561	C56	0.748000	0.370900	0.190300
C571	C57	0.800900	0.062200	0.161100
H491	H49	0.811900	0.995200	0.222900
H501	H50	0.836000	0.132500	0.153800
C581	C58	0.948200	0.661300	0.188500
O261	O26	0.856700	0.528200	0.543600
O271	O27	0.699900	0.460600	0.182200
C591	C59	0.875300	0.581700	0.392900
O281	O28	0.993620	0.768700	0.232100
C601	C60	0.709100	0.894500	0.080600
H511	H51	0.683800	0.846100	0.019000
H521	H52	0.707100	0.804700	0.131400
C611	C61	0.647200	0.100300	0.166200
C621	C62	0.905400	0.601700	0.245300
C631	C63	0.050800	0.061000	0.982200
H531	H53	0.088500	0.988500	0.994400
H541	H54	0.039400	0.106400	0.915800
C641	C64	0.057400	0.204000	0.040500
H551	H55	0.082700	0.298100	0.019700
H561	H56	0.081300	0.157100	0.103200
Cd51	Cd5	0.500000	0.128100	0.000000
N91	N9	0.500000	0.432000	0.000000
Cd61	Cd6	0.000000	0.628100	0.000000
N101	N10	0.000000	0.932000	0.000000
