data_HUYKIV_clean_PM
_symmetry_space_group_name_H-M	'P1'
_cell_length_a	28.718000
_cell_length_b	28.718000
_cell_length_c	28.718000
_cell_angle_alpha	90.000000
_cell_angle_beta	90.000000
_cell_angle_gamma	90.000000
_symmetry_Int_Tables_number 1

loop_
_symmetry_equiv_pos_as_xyz
'x,y,z'

loop_
_atom_site_label
_atom_site_type_symbol
_atom_site_fract_x
_atom_site_fract_y
_atom_site_fract_z
C11	C1	0.465200	0.425100	0.901300
C21	C2	0.506600	0.441200	0.929500
C31	C3	0.520000	0.416200	0.967300
H11	H1	0.503000	0.390000	0.975900
N11	N1	0.419300	0.294100	0.923900
C41	C4	0.424100	0.307600	0.970200
C51	C5	0.434800	0.274600	0.004000
C61	C6	0.440600	0.228200	0.991600
C71	C7	0.435700	0.214700	0.945300
C81	C8	0.425100	0.247600	0.911500
O11	O1	0.448300	0.386400	0.911700
O21	O2	0.449800	0.452200	0.869900
C91	C9	0.034800	0.574900	0.401300
C101	C10	0.993400	0.558800	0.429500
C111	C11	0.980000	0.583800	0.467300
H21	H2	0.997000	0.610000	0.475900
N21	N2	0.080700	0.705900	0.423900
C121	C12	0.075900	0.692400	0.470200
C131	C13	0.065200	0.725400	0.504000
C141	C14	0.059400	0.771800	0.491600
C151	C15	0.064300	0.785300	0.445300
C161	C16	0.074900	0.752400	0.411500
O31	O3	0.051700	0.613600	0.411700
O41	O4	0.050200	0.547800	0.369900
C171	C17	0.534800	0.925100	0.598700
C181	C18	0.493400	0.941200	0.570500
C191	C19	0.480000	0.916200	0.532700
H31	H3	0.497000	0.890000	0.524100
N31	N3	0.580700	0.794100	0.576100
C201	C20	0.575900	0.807600	0.529800
C211	C21	0.565200	0.774600	0.496000
C221	C22	0.559400	0.728200	0.508400
C231	C23	0.564300	0.714700	0.554700
C241	C24	0.574900	0.747600	0.588500
O51	O5	0.551700	0.886400	0.588300
O61	O6	0.550200	0.952200	0.630100
C251	C25	0.965200	0.074900	0.098700
C261	C26	0.006600	0.058800	0.070500
C271	C27	0.020000	0.083800	0.032700
H41	H4	0.003000	0.110000	0.024100
N41	N4	0.919300	0.205900	0.076100
C281	C28	0.924100	0.192400	0.029800
C291	C29	0.934800	0.225400	0.996000
C301	C30	0.940600	0.271800	0.008400
C311	C31	0.935700	0.285300	0.054700
C321	C32	0.925100	0.252400	0.088500
O71	O7	0.948300	0.113600	0.088300
O81	O8	0.949800	0.047800	0.130100
C331	C33	0.901300	0.465200	0.425100
C341	C34	0.929500	0.506600	0.441200
C351	C35	0.967300	0.520000	0.416200
H51	H5	0.975900	0.503000	0.390000
N51	N5	0.923900	0.419300	0.294100
C361	C36	0.970200	0.424100	0.307600
C371	C37	0.004000	0.434800	0.274600
C381	C38	0.991600	0.440600	0.228200
C391	C39	0.945300	0.435700	0.214700
C401	C40	0.911500	0.425100	0.247600
O91	O9	0.911700	0.448300	0.386400
O101	O10	0.869900	0.449800	0.452200
C411	C41	0.401300	0.034800	0.574900
C421	C42	0.429500	0.993400	0.558800
C431	C43	0.467300	0.980000	0.583800
H61	H6	0.475900	0.997000	0.610000
N61	N6	0.423900	0.080700	0.705900
C441	C44	0.470200	0.075900	0.692400
C451	C45	0.504000	0.065200	0.725400
C461	C46	0.491600	0.059400	0.771800
C471	C47	0.445300	0.064300	0.785300
C481	C48	0.411500	0.074900	0.752400
O111	O11	0.411700	0.051700	0.613600
O121	O12	0.369900	0.050200	0.547800
C491	C49	0.598700	0.534800	0.925100
C501	C50	0.570500	0.493400	0.941200
C511	C51	0.532700	0.480000	0.916200
H71	H7	0.524100	0.497000	0.890000
N71	N7	0.576100	0.580700	0.794100
C521	C52	0.529800	0.575900	0.807600
C531	C53	0.496000	0.565200	0.774600
C541	C54	0.508400	0.559400	0.728200
C551	C55	0.554700	0.564300	0.714700
C561	C56	0.588500	0.574900	0.747600
O131	O13	0.588300	0.551700	0.886400
O141	O14	0.630100	0.550200	0.952200
C571	C57	0.098700	0.965200	0.074900
C581	C58	0.070500	0.006600	0.058800
C591	C59	0.032700	0.020000	0.083800
H81	H8	0.024100	0.003000	0.110000
N81	N8	0.076100	0.919300	0.205900
C601	C60	0.029800	0.924100	0.192400
C611	C61	0.996000	0.934800	0.225400
C621	C62	0.008400	0.940600	0.271800
C631	C63	0.054700	0.935700	0.285300
C641	C64	0.088500	0.925100	0.252400
O151	O15	0.088300	0.948300	0.113600
O161	O16	0.130100	0.949800	0.047800
C651	C65	0.425100	0.901300	0.465200
C661	C66	0.441200	0.929500	0.506600
C671	C67	0.416200	0.967300	0.520000
H91	H9	0.390000	0.975900	0.503000
N91	N9	0.294100	0.923900	0.419300
C681	C68	0.307600	0.970200	0.424100
C691	C69	0.274600	0.004000	0.434800
C701	C70	0.228200	0.991600	0.440600
C711	C71	0.214700	0.945300	0.435700
C721	C72	0.247600	0.911500	0.425100
O171	O17	0.386400	0.911700	0.448300
O181	O18	0.452200	0.869900	0.449800
C731	C73	0.574900	0.401300	0.034800
C741	C74	0.558800	0.429500	0.993400
C751	C75	0.583800	0.467300	0.980000
H101	H10	0.610000	0.475900	0.997000
N101	N10	0.705900	0.423900	0.080700
C761	C76	0.692400	0.470200	0.075900
C771	C77	0.725400	0.504000	0.065200
C781	C78	0.771800	0.491600	0.059400
C791	C79	0.785300	0.445300	0.064300
C801	C80	0.752400	0.411500	0.074900
O191	O19	0.613600	0.411700	0.051700
O201	O20	0.547800	0.369900	0.050200
C811	C81	0.925100	0.598700	0.534800
C821	C82	0.941200	0.570500	0.493400
C831	C83	0.916200	0.532700	0.480000
H111	H11	0.890000	0.524100	0.497000
N111	N11	0.794100	0.576100	0.580700
C841	C84	0.807600	0.529800	0.575900
C851	C85	0.774600	0.496000	0.565200
C861	C86	0.728200	0.508400	0.559400
C871	C87	0.714700	0.554700	0.564300
C881	C88	0.747600	0.588500	0.574900
O211	O21	0.886400	0.588300	0.551700
O221	O22	0.952200	0.630100	0.550200
C891	C89	0.074900	0.098700	0.965200
C901	C90	0.058800	0.070500	0.006600
C911	C91	0.083800	0.032700	0.020000
H121	H12	0.110000	0.024100	0.003000
N121	N12	0.205900	0.076100	0.919300
C921	C92	0.192400	0.029800	0.924100
C931	C93	0.225400	0.996000	0.934800
C941	C94	0.271800	0.008400	0.940600
C951	C95	0.285300	0.054700	0.935700
C961	C96	0.252400	0.088500	0.925100
O231	O23	0.113600	0.088300	0.948300
O241	O24	0.047800	0.130100	0.949800
C971	C97	0.175100	0.715200	0.348700
C981	C98	0.191200	0.756600	0.320500
C991	C99	0.166200	0.770000	0.282700
H131	H13	0.140000	0.753000	0.274100
N131	N13	0.044100	0.669300	0.326100
C1001	C100	0.057600	0.674100	0.279800
C1011	C101	0.024600	0.684800	0.246000
C1021	C102	0.978200	0.690600	0.258400
C1031	C103	0.964700	0.685700	0.304700
C1041	C104	0.997600	0.675100	0.338500
O251	O25	0.136400	0.698300	0.338300
O261	O26	0.202200	0.699800	0.380100
C1051	C105	0.324900	0.284800	0.848700
C1061	C106	0.308800	0.243400	0.820500
C1071	C107	0.333800	0.230000	0.782700
H141	H14	0.360000	0.247000	0.774100
N141	N14	0.455900	0.330700	0.826100
C1081	C108	0.442400	0.325900	0.779800
C1091	C109	0.475400	0.315200	0.746000
C1101	C110	0.521800	0.309400	0.758400
C1111	C111	0.535300	0.314300	0.804700
C1121	C112	0.502400	0.324900	0.838500
O271	O27	0.363600	0.301700	0.838300
O281	O28	0.297800	0.300200	0.880100
C1131	C113	0.675100	0.784800	0.651300
C1141	C114	0.691200	0.743400	0.679500
C1151	C115	0.666200	0.730000	0.717300
H151	H15	0.640000	0.747000	0.725900
N151	N15	0.544100	0.830700	0.673900
C1161	C116	0.557600	0.825900	0.720200
C1171	C117	0.524600	0.815200	0.754000
C1181	C118	0.478200	0.809400	0.741600
C1191	C119	0.464700	0.814300	0.695300
C1201	C120	0.497600	0.824900	0.661500
O291	O29	0.636400	0.801700	0.661700
O301	O30	0.702200	0.800200	0.619900
C1211	C121	0.824900	0.215200	0.151300
C1221	C122	0.808800	0.256600	0.179500
C1231	C123	0.833800	0.270000	0.217300
H161	H16	0.860000	0.253000	0.225900
N161	N16	0.955900	0.169300	0.173900
C1241	C124	0.942400	0.174100	0.220200
C1251	C125	0.975400	0.184800	0.254000
C1261	C126	0.021800	0.190600	0.241600
C1271	C127	0.035300	0.185700	0.195300
C1281	C128	0.002400	0.175100	0.161500
O311	O31	0.863600	0.198300	0.161700
O321	O32	0.797800	0.199800	0.119900
C1291	C129	0.215200	0.151300	0.824900
C1301	C130	0.256600	0.179500	0.808800
C1311	C131	0.270000	0.217300	0.833800
H171	H17	0.253000	0.225900	0.860000
N171	N17	0.169300	0.173900	0.955900
C1321	C132	0.174100	0.220200	0.942400
C1331	C133	0.184800	0.254000	0.975400
C1341	C134	0.190600	0.241600	0.021800
C1351	C135	0.185700	0.195300	0.035300
C1361	C136	0.175100	0.161500	0.002400
O331	O33	0.198300	0.161700	0.863600
O341	O34	0.199800	0.119900	0.797800
C1371	C137	0.784800	0.651300	0.675100
C1381	C138	0.743400	0.679500	0.691200
C1391	C139	0.730000	0.717300	0.666200
H181	H18	0.747000	0.725900	0.640000
N181	N18	0.830700	0.673900	0.544100
C1401	C140	0.825900	0.720200	0.557600
C1411	C141	0.815200	0.754000	0.524600
C1421	C142	0.809400	0.741600	0.478200
C1431	C143	0.814300	0.695300	0.464700
C1441	C144	0.824900	0.661500	0.497600
O351	O35	0.801700	0.661700	0.636400
O361	O36	0.800200	0.619900	0.702200
C1451	C145	0.284800	0.848700	0.324900
C1461	C146	0.243400	0.820500	0.308800
C1471	C147	0.230000	0.782700	0.333800
H191	H19	0.247000	0.774100	0.360000
N191	N19	0.330700	0.826100	0.455900
C1481	C148	0.325900	0.779800	0.442400
C1491	C149	0.315200	0.746000	0.475400
C1501	C150	0.309400	0.758400	0.521800
C1511	C151	0.314300	0.804700	0.535300
C1521	C152	0.324900	0.838500	0.502400
O371	O37	0.301700	0.838300	0.363600
O381	O38	0.300200	0.880100	0.297800
C1531	C153	0.715200	0.348700	0.175100
C1541	C154	0.756600	0.320500	0.191200
C1551	C155	0.770000	0.282700	0.166200
H201	H20	0.753000	0.274100	0.140000
N201	N20	0.669300	0.326100	0.044100
C1561	C156	0.674100	0.279800	0.057600
C1571	C157	0.684800	0.246000	0.024600
C1581	C158	0.690600	0.258400	0.978200
C1591	C159	0.685700	0.304700	0.964700
C1601	C160	0.675100	0.338500	0.997600
O391	O39	0.698300	0.338300	0.136400
O401	O40	0.699800	0.380100	0.202200
C1611	C161	0.651300	0.675100	0.784800
C1621	C162	0.679500	0.691200	0.743400
C1631	C163	0.717300	0.666200	0.730000
H211	H21	0.725900	0.640000	0.747000
N211	N21	0.673900	0.544100	0.830700
C1641	C164	0.720200	0.557600	0.825900
C1651	C165	0.754000	0.524600	0.815200
C1661	C166	0.741600	0.478200	0.809400
C1671	C167	0.695300	0.464700	0.814300
C1681	C168	0.661500	0.497600	0.824900
O411	O41	0.661700	0.636400	0.801700
O421	O42	0.619900	0.702200	0.800200
C1691	C169	0.151300	0.824900	0.215200
C1701	C170	0.179500	0.808800	0.256600
C1711	C171	0.217300	0.833800	0.270000
H221	H22	0.225900	0.860000	0.253000
N221	N22	0.173900	0.955900	0.169300
C1721	C172	0.220200	0.942400	0.174100
C1731	C173	0.254000	0.975400	0.184800
C1741	C174	0.241600	0.021800	0.190600
C1751	C175	0.195300	0.035300	0.185700
C1761	C176	0.161500	0.002400	0.175100
O431	O43	0.161700	0.863600	0.198300
O441	O44	0.119900	0.797800	0.199800
C1771	C177	0.348700	0.175100	0.715200
C1781	C178	0.320500	0.191200	0.756600
C1791	C179	0.282700	0.166200	0.770000
H231	H23	0.274100	0.140000	0.753000
N231	N23	0.326100	0.044100	0.669300
C1801	C180	0.279800	0.057600	0.674100
C1811	C181	0.246000	0.024600	0.684800
C1821	C182	0.258400	0.978200	0.690600
C1831	C183	0.304700	0.964700	0.685700
C1841	C184	0.338500	0.997600	0.675100
O451	O45	0.338300	0.136400	0.698300
O461	O46	0.380100	0.202200	0.699800
C1851	C185	0.848700	0.324900	0.284800
C1861	C186	0.820500	0.308800	0.243400
C1871	C187	0.782700	0.333800	0.230000
H241	H24	0.774100	0.360000	0.247000
N241	N24	0.826100	0.455900	0.330700
C1881	C188	0.779800	0.442400	0.325900
C1891	C189	0.746000	0.475400	0.315200
C1901	C190	0.758400	0.521800	0.309400
C1911	C191	0.804700	0.535300	0.314300
C1921	C192	0.838500	0.502400	0.324900
O471	O47	0.838300	0.363600	0.301700
O481	O48	0.880100	0.297800	0.300200
Ni11	Ni1	0.404200	0.345800	0.875000
Ni21	Ni2	0.095800	0.654200	0.375000
Ni31	Ni3	0.595800	0.845800	0.625000
Ni41	Ni4	0.904200	0.154200	0.125000
Ni51	Ni5	0.875000	0.404200	0.345800
Ni61	Ni6	0.375000	0.095800	0.654200
Ni71	Ni7	0.625000	0.595800	0.845800
Ni81	Ni8	0.125000	0.904200	0.154200
Ni91	Ni9	0.345800	0.875000	0.404200
Ni101	Ni10	0.654200	0.375000	0.095800
Ni111	Ni11	0.845800	0.625000	0.595800
Ni121	Ni12	0.154200	0.125000	0.904200
C1931	C193	0.965200	0.925100	0.401300
C1941	C194	0.006600	0.941200	0.429500
C1951	C195	0.020000	0.916200	0.467300
H251	H25	0.003000	0.890000	0.475900
N251	N25	0.919300	0.794100	0.423900
C1961	C196	0.924100	0.807600	0.470200
C1971	C197	0.934800	0.774600	0.504000
C1981	C198	0.940600	0.728200	0.491600
C1991	C199	0.935700	0.714700	0.445300
C2001	C200	0.925100	0.747600	0.411500
O491	O49	0.948300	0.886400	0.411700
O501	O50	0.949800	0.952200	0.369900
C2011	C201	0.534800	0.074900	0.901300
C2021	C202	0.493400	0.058800	0.929500
C2031	C203	0.480000	0.083800	0.967300
H261	H26	0.497000	0.110000	0.975900
N261	N26	0.580700	0.205900	0.923900
C2041	C204	0.575900	0.192400	0.970200
C2051	C205	0.565200	0.225400	0.004000
C2061	C206	0.559400	0.271800	0.991600
C2071	C207	0.564300	0.285300	0.945300
C2081	C208	0.574900	0.252400	0.911500
O511	O51	0.551700	0.113600	0.911700
O521	O52	0.550200	0.047800	0.869900
C2091	C209	0.034800	0.425100	0.098700
C2101	C210	0.993400	0.441200	0.070500
C2111	C211	0.980000	0.416200	0.032700
H271	H27	0.997000	0.390000	0.024100
N271	N27	0.080700	0.294100	0.076100
C2121	C212	0.075900	0.307600	0.029800
C2131	C213	0.065200	0.274600	0.996000
C2141	C214	0.059400	0.228200	0.008400
C2151	C215	0.064300	0.214700	0.054700
C2161	C216	0.074900	0.247600	0.088500
O531	O53	0.051700	0.386400	0.088300
O541	O54	0.050200	0.452200	0.130100
C2171	C217	0.465200	0.574900	0.598700
C2181	C218	0.506600	0.558800	0.570500
C2191	C219	0.520000	0.583800	0.532700
H281	H28	0.503000	0.610000	0.524100
N281	N28	0.419300	0.705900	0.576100
C2201	C220	0.424100	0.692400	0.529800
C2211	C221	0.434800	0.725400	0.496000
C2221	C222	0.440600	0.771800	0.508400
C2231	C223	0.435700	0.785300	0.554700
C2241	C224	0.425100	0.752400	0.588500
O551	O55	0.448300	0.613600	0.588300
O561	O56	0.449800	0.547800	0.630100
C2251	C225	0.401300	0.965200	0.925100
C2261	C226	0.429500	0.006600	0.941200
C2271	C227	0.467300	0.020000	0.916200
H291	H29	0.475900	0.003000	0.890000
N291	N29	0.423900	0.919300	0.794100
C2281	C228	0.470200	0.924100	0.807600
C2291	C229	0.504000	0.934800	0.774600
C2301	C230	0.491600	0.940600	0.728200
C2311	C231	0.445300	0.935700	0.714700
C2321	C232	0.411500	0.925100	0.747600
O571	O57	0.411700	0.948300	0.886400
O581	O58	0.369900	0.949800	0.952200
C2331	C233	0.901300	0.534800	0.074900
C2341	C234	0.929500	0.493400	0.058800
C2351	C235	0.967300	0.480000	0.083800
H301	H30	0.975900	0.497000	0.110000
N301	N30	0.923900	0.580700	0.205900
C2361	C236	0.970200	0.575900	0.192400
C2371	C237	0.004000	0.565200	0.225400
C2381	C238	0.991600	0.559400	0.271800
C2391	C239	0.945300	0.564300	0.285300
C2401	C240	0.911500	0.574900	0.252400
O591	O59	0.911700	0.551700	0.113600
O601	O60	0.869900	0.550200	0.047800
C2411	C241	0.098700	0.034800	0.425100
C2421	C242	0.070500	0.993400	0.441200
C2431	C243	0.032700	0.980000	0.416200
H311	H31	0.024100	0.997000	0.390000
N311	N31	0.076100	0.080700	0.294100
C2441	C244	0.029800	0.075900	0.307600
C2451	C245	0.996000	0.065200	0.274600
C2461	C246	0.008400	0.059400	0.228200
C2471	C247	0.054700	0.064300	0.214700
C2481	C248	0.088500	0.074900	0.247600
O611	O61	0.088300	0.051700	0.386400
O621	O62	0.130100	0.050200	0.452200
C2491	C249	0.598700	0.465200	0.574900
C2501	C250	0.570500	0.506600	0.558800
C2511	C251	0.532700	0.520000	0.583800
H321	H32	0.524100	0.503000	0.610000
N321	N32	0.576100	0.419300	0.705900
C2521	C252	0.529800	0.424100	0.692400
C2531	C253	0.496000	0.434800	0.725400
C2541	C254	0.508400	0.440600	0.771800
C2551	C255	0.554700	0.435700	0.785300
C2561	C256	0.588500	0.425100	0.752400
O631	O63	0.588300	0.448300	0.613600
O641	O64	0.630100	0.449800	0.547800
C2571	C257	0.925100	0.401300	0.965200
C2581	C258	0.941200	0.429500	0.006600
C2591	C259	0.916200	0.467300	0.020000
H331	H33	0.890000	0.475900	0.003000
N331	N33	0.794100	0.423900	0.919300
C2601	C260	0.807600	0.470200	0.924100
C2611	C261	0.774600	0.504000	0.934800
C2621	C262	0.728200	0.491600	0.940600
C2631	C263	0.714700	0.445300	0.935700
C2641	C264	0.747600	0.411500	0.925100
O651	O65	0.886400	0.411700	0.948300
O661	O66	0.952200	0.369900	0.949800
C2651	C265	0.074900	0.901300	0.534800
C2661	C266	0.058800	0.929500	0.493400
C2671	C267	0.083800	0.967300	0.480000
H341	H34	0.110000	0.975900	0.497000
N341	N34	0.205900	0.923900	0.580700
C2681	C268	0.192400	0.970200	0.575900
C2691	C269	0.225400	0.004000	0.565200
C2701	C270	0.271800	0.991600	0.559400
C2711	C271	0.285300	0.945300	0.564300
C2721	C272	0.252400	0.911500	0.574900
O671	O67	0.113600	0.911700	0.551700
O681	O68	0.047800	0.869900	0.550200
C2731	C273	0.425100	0.098700	0.034800
C2741	C274	0.441200	0.070500	0.993400
C2751	C275	0.416200	0.032700	0.980000
H351	H35	0.390000	0.024100	0.997000
N351	N35	0.294100	0.076100	0.080700
C2761	C276	0.307600	0.029800	0.075900
C2771	C277	0.274600	0.996000	0.065200
C2781	C278	0.228200	0.008400	0.059400
C2791	C279	0.214700	0.054700	0.064300
C2801	C280	0.247600	0.088500	0.074900
O691	O69	0.386400	0.088300	0.051700
O701	O70	0.452200	0.130100	0.050200
C2811	C281	0.574900	0.598700	0.465200
C2821	C282	0.558800	0.570500	0.506600
C2831	C283	0.583800	0.532700	0.520000
H361	H36	0.610000	0.524100	0.503000
N361	N36	0.705900	0.576100	0.419300
C2841	C284	0.692400	0.529800	0.424100
C2851	C285	0.725400	0.496000	0.434800
C2861	C286	0.771800	0.508400	0.440600
C2871	C287	0.785300	0.554700	0.435700
C2881	C288	0.752400	0.588500	0.425100
O711	O71	0.613600	0.588300	0.448300
O721	O72	0.547800	0.630100	0.449800
C2891	C289	0.675100	0.215200	0.848700
C2901	C290	0.691200	0.256600	0.820500
C2911	C291	0.666200	0.270000	0.782700
H371	H37	0.640000	0.253000	0.774100
N371	N37	0.544100	0.169300	0.826100
C2921	C292	0.557600	0.174100	0.779800
C2931	C293	0.524600	0.184800	0.746000
C2941	C294	0.478200	0.190600	0.758400
C2951	C295	0.464700	0.185700	0.804700
C2961	C296	0.497600	0.175100	0.838500
O731	O73	0.636400	0.198300	0.838300
O741	O74	0.702200	0.199800	0.880100
C2971	C297	0.824900	0.784800	0.348700
C2981	C298	0.808800	0.743400	0.320500
C2991	C299	0.833800	0.730000	0.282700
H381	H38	0.860000	0.747000	0.274100
N381	N38	0.955900	0.830700	0.326100
C3001	C300	0.942400	0.825900	0.279800
C3011	C301	0.975400	0.815200	0.246000
C3021	C302	0.021800	0.809400	0.258400
C3031	C303	0.035300	0.814300	0.304700
C3041	C304	0.002400	0.824900	0.338500
O751	O75	0.863600	0.801700	0.338300
O761	O76	0.797800	0.800200	0.380100
C3051	C305	0.175100	0.284800	0.151300
C3061	C306	0.191200	0.243400	0.179500
C3071	C307	0.166200	0.230000	0.217300
H391	H39	0.140000	0.247000	0.225900
N391	N39	0.044100	0.330700	0.173900
C3081	C308	0.057600	0.325900	0.220200
C3091	C309	0.024600	0.315200	0.254000
C3101	C310	0.978200	0.309400	0.241600
C3111	C311	0.964700	0.314300	0.195300
C3121	C312	0.997600	0.324900	0.161500
O771	O77	0.136400	0.301700	0.161700
O781	O78	0.202200	0.300200	0.119900
C3131	C313	0.324900	0.715200	0.651300
C3141	C314	0.308800	0.756600	0.679500
C3151	C315	0.333800	0.770000	0.717300
H401	H40	0.360000	0.753000	0.725900
N401	N40	0.455900	0.669300	0.673900
C3161	C316	0.442400	0.674100	0.720200
C3171	C317	0.475400	0.684800	0.754000
C3181	C318	0.521800	0.690600	0.741600
C3191	C319	0.535300	0.685700	0.695300
C3201	C320	0.502400	0.675100	0.661500
O791	O79	0.363600	0.698300	0.661700
O801	O80	0.297800	0.699800	0.619900
C3211	C321	0.715200	0.651300	0.324900
C3221	C322	0.756600	0.679500	0.308800
C3231	C323	0.770000	0.717300	0.333800
H411	H41	0.753000	0.725900	0.360000
N411	N41	0.669300	0.673900	0.455900
C3241	C324	0.674100	0.720200	0.442400
C3251	C325	0.684800	0.754000	0.475400
C3261	C326	0.690600	0.741600	0.521800
C3271	C327	0.685700	0.695300	0.535300
C3281	C328	0.675100	0.661500	0.502400
O811	O81	0.698300	0.661700	0.363600
O821	O82	0.699800	0.619900	0.297800
C3291	C329	0.284800	0.151300	0.175100
C3301	C330	0.243400	0.179500	0.191200
C3311	C331	0.230000	0.217300	0.166200
H421	H42	0.247000	0.225900	0.140000
N421	N42	0.330700	0.173900	0.044100
C3321	C332	0.325900	0.220200	0.057600
C3331	C333	0.315200	0.254000	0.024600
C3341	C334	0.309400	0.241600	0.978200
C3351	C335	0.314300	0.195300	0.964700
C3361	C336	0.324900	0.161500	0.997600
O831	O83	0.301700	0.161700	0.136400
O841	O84	0.300200	0.119900	0.202200
C3371	C337	0.784800	0.348700	0.824900
C3381	C338	0.743400	0.320500	0.808800
C3391	C339	0.730000	0.282700	0.833800
H431	H43	0.747000	0.274100	0.860000
N431	N43	0.830700	0.326100	0.955900
C3401	C340	0.825900	0.279800	0.942400
C3411	C341	0.815200	0.246000	0.975400
C3421	C342	0.809400	0.258400	0.021800
C3431	C343	0.814300	0.304700	0.035300
C3441	C344	0.824900	0.338500	0.002400
O851	O85	0.801700	0.338300	0.863600
O861	O86	0.800200	0.380100	0.797800
C3451	C345	0.215200	0.848700	0.675100
C3461	C346	0.256600	0.820500	0.691200
C3471	C347	0.270000	0.782700	0.666200
H441	H44	0.253000	0.774100	0.640000
N441	N44	0.169300	0.826100	0.544100
C3481	C348	0.174100	0.779800	0.557600
C3491	C349	0.184800	0.746000	0.524600
C3501	C350	0.190600	0.758400	0.478200
C3511	C351	0.185700	0.804700	0.464700
C3521	C352	0.175100	0.838500	0.497600
O871	O87	0.198300	0.838300	0.636400
O881	O88	0.199800	0.880100	0.702200
C3531	C353	0.151300	0.175100	0.284800
C3541	C354	0.179500	0.191200	0.243400
C3551	C355	0.217300	0.166200	0.230000
H451	H45	0.225900	0.140000	0.247000
N451	N45	0.173900	0.044100	0.330700
C3561	C356	0.220200	0.057600	0.325900
C3571	C357	0.254000	0.024600	0.315200
C3581	C358	0.241600	0.978200	0.309400
C3591	C359	0.195300	0.964700	0.314300
C3601	C360	0.161500	0.997600	0.324900
O891	O89	0.161700	0.136400	0.301700
O901	O90	0.119900	0.202200	0.300200
C3611	C361	0.651300	0.324900	0.715200
C3621	C362	0.679500	0.308800	0.756600
C3631	C363	0.717300	0.333800	0.770000
H461	H46	0.725900	0.360000	0.753000
N461	N46	0.673900	0.455900	0.669300
C3641	C364	0.720200	0.442400	0.674100
C3651	C365	0.754000	0.475400	0.684800
C3661	C366	0.741600	0.521800	0.690600
C3671	C367	0.695300	0.535300	0.685700
C3681	C368	0.661500	0.502400	0.675100
O911	O91	0.661700	0.363600	0.698300
O921	O92	0.619900	0.297800	0.699800
C3691	C369	0.848700	0.675100	0.215200
C3701	C370	0.820500	0.691200	0.256600
C3711	C371	0.782700	0.666200	0.270000
H471	H47	0.774100	0.640000	0.253000
N471	N47	0.826100	0.544100	0.169300
C3721	C372	0.779800	0.557600	0.174100
C3731	C373	0.746000	0.524600	0.184800
C3741	C374	0.758400	0.478200	0.190600
C3751	C375	0.804700	0.464700	0.185700
C3761	C376	0.838500	0.497600	0.175100
O931	O93	0.838300	0.636400	0.198300
O941	O94	0.880100	0.702200	0.199800
C3771	C377	0.348700	0.824900	0.784800
C3781	C378	0.320500	0.808800	0.743400
C3791	C379	0.282700	0.833800	0.730000
H481	H48	0.274100	0.860000	0.747000
N481	N48	0.326100	0.955900	0.830700
C3801	C380	0.279800	0.942400	0.825900
C3811	C381	0.246000	0.975400	0.815200
C3821	C382	0.258400	0.021800	0.809400
C3831	C383	0.304700	0.035300	0.814300
C3841	C384	0.338500	0.002400	0.824900
O951	O95	0.338300	0.863600	0.801700
O961	O96	0.380100	0.797800	0.800200
Ni131	Ni13	0.904200	0.845800	0.375000
Ni141	Ni14	0.595800	0.154200	0.875000
Ni151	Ni15	0.095800	0.345800	0.125000
Ni161	Ni16	0.404200	0.654200	0.625000
Ni171	Ni17	0.375000	0.904200	0.845800
Ni181	Ni18	0.875000	0.595800	0.154200
Ni191	Ni19	0.125000	0.095800	0.345800
Ni201	Ni20	0.625000	0.404200	0.654200
Ni211	Ni21	0.845800	0.375000	0.904200
Ni221	Ni22	0.154200	0.875000	0.595800
Ni231	Ni23	0.345800	0.125000	0.095800
Ni241	Ni24	0.654200	0.625000	0.404200
