data_HUZKUJ_clean_PM
_symmetry_space_group_name_H-M	'P1'
_cell_length_a	8.067400
_cell_length_b	10.006000
_cell_length_c	20.443200
_cell_angle_alpha	100.972000
_cell_angle_beta	95.065000
_cell_angle_gamma	105.053000
_symmetry_Int_Tables_number 1

loop_
_symmetry_equiv_pos_as_xyz
'x,y,z'

loop_
_atom_site_label
_atom_site_type_symbol
_atom_site_fract_x
_atom_site_fract_y
_atom_site_fract_z
In11	In1	0.115470	0.469390	0.625310
In21	In2	0.904010	0.905850	0.669270
In31	In3	0.651090	0.683070	0.820150
In41	In4	0.022310	0.364390	0.889080
P11	P1	0.753600	0.541900	0.953300
P21	P2	0.010100	0.679600	0.752630
P31	P3	0.976800	0.679300	0.539570
P41	P4	0.485800	0.740300	0.671970
P51	P5	0.830000	0.021200	0.832570
H11	H1	0.713200	0.033600	0.829700
O11	O1	0.362300	0.606300	0.630100
O21	O2	0.948200	0.573500	0.584500
O31	O3	0.079400	0.555000	0.724800
O41	O4	0.854700	0.623900	0.473900
O51	O5	0.886800	0.288700	0.618900
O61	O6	0.217900	0.311200	0.664800
O71	O7	0.655400	0.764900	0.642600
O81	O8	0.857300	0.008100	0.763400
O91	O9	0.963900	0.824100	0.574500
O101	O10	0.057600	0.800400	0.716700
O111	O11	0.808200	0.065200	0.629600
O121	O12	0.136800	0.090000	0.679700
O131	O13	0.802200	0.891000	0.861000
O141	O14	0.816800	0.625400	0.754800
O151	O15	0.780500	0.632600	0.901700
O161	O16	0.506300	0.743000	0.745800
O171	O17	0.473600	0.467100	0.800100
O181	O18	0.434400	0.705100	0.876400
O191	O19	0.829300	0.418400	0.939100
O201	O20	0.925800	0.147500	0.883200
O211	O21	0.816000	0.631900	0.024000
O221	O22	0.177000	0.583100	0.894700
O231	O23	0.236400	0.340300	0.831600
C11	C1	0.315500	0.593500	0.870100
C21	C2	0.344500	0.455200	0.830000
C31	C3	0.918300	0.182300	0.634900
C41	C4	0.107300	0.195300	0.662400
H21	H2	0.561000	0.481000	0.942000
H31	H3	0.078000	0.728000	0.813000
H41	H4	0.142000	0.696000	0.522000
H51	H5	0.412000	0.845000	0.661000
In51	In5	0.884530	0.530610	0.374690
In61	In6	0.095990	0.094150	0.330730
In71	In7	0.348910	0.316930	0.179850
In81	In8	0.977690	0.635610	0.110920
P61	P6	0.246400	0.458100	0.046700
P71	P7	0.989900	0.320400	0.247370
P81	P8	0.023200	0.320700	0.460430
P91	P9	0.514200	0.259700	0.328030
P101	P10	0.170000	0.978800	0.167430
H61	H6	0.286800	0.966400	0.170300
O241	O24	0.637700	0.393700	0.369900
O251	O25	0.051800	0.426500	0.415500
O261	O26	0.920600	0.445000	0.275200
O271	O27	0.145300	0.376100	0.526100
O281	O28	0.113200	0.711300	0.381100
O291	O29	0.782100	0.688800	0.335200
O301	O30	0.344600	0.235100	0.357400
O311	O31	0.142700	0.991900	0.236600
O321	O32	0.036100	0.175900	0.425500
O331	O33	0.942400	0.199600	0.283300
O341	O34	0.191800	0.934800	0.370400
O351	O35	0.863200	0.910000	0.320300
O361	O36	0.197800	0.109000	0.139000
O371	O37	0.183200	0.374600	0.245200
O381	O38	0.219500	0.367400	0.098300
O391	O39	0.493700	0.257000	0.254200
O401	O40	0.526400	0.532900	0.199900
O411	O41	0.565600	0.294900	0.123600
O421	O42	0.170700	0.581600	0.060900
O431	O43	0.074200	0.852500	0.116800
O441	O44	0.184000	0.368100	0.976000
O451	O45	0.823000	0.416900	0.105300
O461	O46	0.763600	0.659700	0.168400
C51	C5	0.684500	0.406500	0.129900
C61	C6	0.655500	0.544800	0.170000
C71	C7	0.081700	0.817700	0.365100
C81	C8	0.892700	0.804700	0.337600
H71	H7	0.439000	0.519000	0.058000
H81	H8	0.922000	0.272000	0.187000
H91	H9	0.858000	0.304000	0.478000
H101	H10	0.588000	0.155000	0.339000
