data_HUZSOL_clean_PM
_symmetry_space_group_name_H-M	'P1'
_cell_length_a	17.108000
_cell_length_b	21.644000
_cell_length_c	25.258000
_cell_angle_alpha	90.000000
_cell_angle_beta	90.000000
_cell_angle_gamma	90.000000
_symmetry_Int_Tables_number 1

loop_
_symmetry_equiv_pos_as_xyz
'x,y,z'

loop_
_atom_site_label
_atom_site_type_symbol
_atom_site_fract_x
_atom_site_fract_y
_atom_site_fract_z
Na11	Na1	0.896100	0.250000	0.710600
Na21	Na2	0.603900	0.750000	0.210600
Na31	Na3	0.784800	0.750000	0.265100
Na41	Na4	0.715200	0.250000	0.765100
Zn11	Zn1	0.992840	0.834620	0.384240
Zn21	Zn2	0.507160	0.165380	0.884240
Zn31	Zn3	0.992840	0.665380	0.384240
Zn41	Zn4	0.507160	0.334620	0.884240
Zn51	Zn5	0.880780	0.750000	0.313650
Zn61	Zn6	0.619220	0.250000	0.813650
H11	H1	0.852000	0.378900	0.685900
H21	H2	0.814400	0.530800	0.693900
H31	H3	0.736600	0.511200	0.665700
H41	H4	0.816300	0.481700	0.648300
H51	H5	0.716300	0.432200	0.782700
H61	H6	0.702000	0.496600	0.756000
H71	H7	0.779800	0.484100	0.787100
H81	H8	0.648000	0.621100	0.185900
H91	H9	0.685600	0.469200	0.193900
H101	H10	0.763400	0.488800	0.165700
H111	H11	0.683700	0.518300	0.148300
H121	H12	0.783700	0.567800	0.282700
H131	H13	0.798000	0.503400	0.256000
H141	H14	0.720200	0.515900	0.287100
H151	H15	0.883200	0.040000	0.076800
H161	H16	0.024000	0.122200	0.971900
H171	H17	0.116000	0.034000	0.095900
H181	H18	0.898100	0.940500	0.114000
H191	H19	0.887200	0.874700	0.184000
H201	H20	0.061100	0.962300	0.258200
H211	H21	0.071600	0.028800	0.187100
H221	H22	0.798900	0.114200	0.052900
H231	H23	0.687300	0.139900	0.007700
H241	H24	0.809600	0.138000	0.872300
H251	H25	0.919600	0.106700	0.916800
H261	H26	0.149500	0.173600	0.979500
H271	H27	0.273500	0.184400	0.941600
H281	H28	0.329400	0.014200	0.989200
H291	H29	0.207200	0.005900	0.029400
H301	H30	0.616800	0.960000	0.576800
H311	H31	0.476000	0.877800	0.471900
H321	H32	0.384000	0.966000	0.595900
H331	H33	0.601900	0.059500	0.614000
H341	H34	0.612800	0.125300	0.684000
H351	H35	0.438900	0.037700	0.758200
H361	H36	0.428400	0.971200	0.687100
H371	H37	0.701100	0.885800	0.552900
H381	H38	0.812700	0.860100	0.507700
H391	H39	0.690400	0.862000	0.372300
H401	H40	0.580400	0.893300	0.416800
H411	H41	0.350500	0.826400	0.479500
H421	H42	0.226500	0.815600	0.441600
H431	H43	0.170600	0.985800	0.489200
H441	H44	0.292800	0.994100	0.529400
H451	H45	0.883200	0.460000	0.076800
H461	H46	0.024000	0.377800	0.971900
H471	H47	0.116000	0.466000	0.095900
H481	H48	0.898100	0.559500	0.114000
H491	H49	0.887200	0.625300	0.184000
H501	H50	0.061100	0.537700	0.258200
H511	H51	0.071600	0.471200	0.187100
H521	H52	0.798900	0.385800	0.052900
H531	H53	0.687300	0.360100	0.007700
H541	H54	0.809600	0.362000	0.872300
H551	H55	0.919600	0.393300	0.916800
H561	H56	0.149500	0.326400	0.979500
H571	H57	0.273500	0.315600	0.941600
H581	H58	0.329400	0.485800	0.989200
H591	H59	0.207200	0.494100	0.029400
H601	H60	0.616800	0.540000	0.576800
H611	H61	0.476000	0.622200	0.471900
H621	H62	0.384000	0.534000	0.595900
H631	H63	0.601900	0.440500	0.614000
H641	H64	0.612800	0.374700	0.684000
H651	H65	0.438900	0.462300	0.758200
H661	H66	0.428400	0.528800	0.687100
H671	H67	0.701100	0.614200	0.552900
H681	H68	0.812700	0.639900	0.507700
H691	H69	0.690400	0.638000	0.372300
H701	H70	0.580400	0.606700	0.416800
H711	H71	0.350500	0.673600	0.479500
H721	H72	0.226500	0.684400	0.441600
H731	H73	0.170600	0.514200	0.489200
H741	H74	0.292800	0.505900	0.529400
H751	H75	0.852000	0.121100	0.685900
H761	H76	0.814400	0.969200	0.693900
H771	H77	0.736600	0.988800	0.665700
H781	H78	0.816300	0.018300	0.648300
H791	H79	0.716300	0.067800	0.782700
H801	H80	0.702000	0.003400	0.756000
H811	H81	0.779800	0.015900	0.787100
H821	H82	0.648000	0.878900	0.185900
H831	H83	0.685600	0.030800	0.193900
H841	H84	0.763400	0.011200	0.165700
H851	H85	0.683700	0.981700	0.148300
H861	H86	0.783700	0.932200	0.282700
H871	H87	0.798000	0.996600	0.256000
H881	H88	0.720200	0.984100	0.287100
C11	C1	0.809200	0.379900	0.709000
C21	C2	0.787000	0.497000	0.678000
C31	C3	0.740700	0.466000	0.764600
C41	C4	0.690800	0.620100	0.209000
C51	C5	0.713000	0.503000	0.178000
C61	C6	0.759300	0.534000	0.264600
C71	C7	0.998600	0.029500	0.094500
C81	C8	0.933400	0.049900	0.065400
C91	C9	0.943100	0.084400	0.020000
C101	C10	0.017800	0.098300	0.002200
C111	C11	0.082800	0.077300	0.028600
C121	C12	0.072300	0.045100	0.076200
C131	C13	0.987900	0.988800	0.141300
C141	C14	0.932000	0.944700	0.142500
C151	C15	0.924500	0.906000	0.184900
C161	C16	0.971400	0.912500	0.229200
C171	C17	0.028000	0.957900	0.229300
C181	C18	0.035200	0.997000	0.186300
C191	C19	0.872700	0.107200	0.990800
C201	C20	0.801100	0.118200	0.016300
C211	C21	0.734200	0.134700	0.989700
C221	C22	0.738100	0.143500	0.934300
C231	C23	0.807300	0.132700	0.908800
C241	C24	0.873800	0.114400	0.935500
C251	C25	0.163400	0.088300	0.006600
C261	C26	0.185000	0.141200	0.981900
C271	C27	0.260700	0.148300	0.959500
C281	C28	0.313900	0.102800	0.964200
C291	C29	0.294200	0.047000	0.988300
C301	C30	0.219700	0.041700	0.010900
C311	C31	0.962700	0.868600	0.275400
C321	C32	0.665400	0.161700	0.905400
C331	C33	0.395400	0.110700	0.939000
C341	C34	0.501400	0.970500	0.594500
C351	C35	0.566600	0.950100	0.565400
C361	C36	0.556900	0.915600	0.520000
C371	C37	0.482200	0.901700	0.502200
C381	C38	0.417200	0.922700	0.528600
C391	C39	0.427700	0.954900	0.576200
C401	C40	0.512100	0.011200	0.641300
C411	C41	0.568000	0.055300	0.642500
C421	C42	0.575500	0.094000	0.684900
C431	C43	0.528600	0.087500	0.729200
C441	C44	0.472000	0.042100	0.729300
C451	C45	0.464800	0.003000	0.686300
C461	C46	0.627300	0.892800	0.490800
C471	C47	0.698900	0.881800	0.516300
C481	C48	0.765800	0.865300	0.489700
C491	C49	0.761900	0.856500	0.434300
C501	C50	0.692700	0.867300	0.408800
C511	C51	0.626200	0.885600	0.435500
C521	C52	0.336600	0.911700	0.506600
C531	C53	0.315000	0.858800	0.481900
C541	C54	0.239300	0.851700	0.459500
C551	C55	0.186100	0.897200	0.464200
C561	C56	0.205800	0.953000	0.488300
C571	C57	0.280300	0.958300	0.510900
C581	C58	0.537300	0.131400	0.775400
C591	C59	0.834600	0.838300	0.405400
C601	C60	0.104600	0.889300	0.439000
C611	C61	0.998600	0.470500	0.094500
C621	C62	0.933400	0.450100	0.065400
C631	C63	0.943100	0.415600	0.020000
C641	C64	0.017800	0.401700	0.002200
C651	C65	0.082800	0.422700	0.028600
C661	C66	0.072300	0.454900	0.076200
C671	C67	0.987900	0.511200	0.141300
C681	C68	0.932000	0.555300	0.142500
C691	C69	0.924500	0.594000	0.184900
C701	C70	0.971400	0.587500	0.229200
C711	C71	0.028000	0.542100	0.229300
C721	C72	0.035200	0.503000	0.186300
C731	C73	0.872700	0.392800	0.990800
C741	C74	0.801100	0.381800	0.016300
C751	C75	0.734200	0.365300	0.989700
C761	C76	0.738100	0.356500	0.934300
C771	C77	0.807300	0.367300	0.908800
C781	C78	0.873800	0.385600	0.935500
C791	C79	0.163400	0.411700	0.006600
C801	C80	0.185000	0.358800	0.981900
C811	C81	0.260700	0.351700	0.959500
C821	C82	0.313900	0.397200	0.964200
C831	C83	0.294200	0.453000	0.988300
C841	C84	0.219700	0.458300	0.010900
C851	C85	0.962700	0.631400	0.275400
C861	C86	0.665400	0.338300	0.905400
C871	C87	0.395400	0.389300	0.939000
C881	C88	0.501400	0.529500	0.594500
C891	C89	0.566600	0.549900	0.565400
C901	C90	0.556900	0.584400	0.520000
C911	C91	0.482200	0.598300	0.502200
C921	C92	0.417200	0.577300	0.528600
C931	C93	0.427700	0.545100	0.576200
C941	C94	0.512100	0.488800	0.641300
C951	C95	0.568000	0.444700	0.642500
C961	C96	0.575500	0.406000	0.684900
C971	C97	0.528600	0.412500	0.729200
C981	C98	0.472000	0.457900	0.729300
C991	C99	0.464800	0.497000	0.686300
C1001	C100	0.627300	0.607200	0.490800
C1011	C101	0.698900	0.618200	0.516300
C1021	C102	0.765800	0.634700	0.489700
C1031	C103	0.761900	0.643500	0.434300
C1041	C104	0.692700	0.632700	0.408800
C1051	C105	0.626200	0.614400	0.435500
C1061	C106	0.336600	0.588300	0.506600
C1071	C107	0.315000	0.641200	0.481900
C1081	C108	0.239300	0.648300	0.459500
C1091	C109	0.186100	0.602800	0.464200
C1101	C110	0.205800	0.547000	0.488300
C1111	C111	0.280300	0.541700	0.510900
C1121	C112	0.537300	0.368600	0.775400
C1131	C113	0.834600	0.661700	0.405400
C1141	C114	0.104600	0.610700	0.439000
C1151	C115	0.809200	0.120100	0.709000
C1161	C116	0.787000	0.003000	0.678000
C1171	C117	0.740700	0.034000	0.764600
C1181	C118	0.690800	0.879900	0.209000
C1191	C119	0.713000	0.997000	0.178000
C1201	C120	0.759300	0.966000	0.264600
N11	N1	0.775400	0.445000	0.718600
N21	N2	0.724600	0.555000	0.218600
N31	N3	0.775400	0.055000	0.718600
N41	N4	0.724600	0.945000	0.218600
O11	O1	0.791000	0.334000	0.724000
O21	O2	0.709000	0.666000	0.224000
O31	O3	0.994600	0.884300	0.319000
O41	O4	0.926300	0.819200	0.266600
O51	O5	0.441200	0.065700	0.940200
O61	O6	0.407800	0.159500	0.919000
O71	O7	0.675400	0.182700	0.859700
O81	O8	0.600900	0.154100	0.928000
O91	O9	0.505400	0.115700	0.819000
O101	O10	0.573700	0.180800	0.766600
O111	O11	0.058800	0.934300	0.440200
O121	O12	0.092200	0.840500	0.419000
O131	O13	0.824600	0.817300	0.359700
O141	O14	0.899100	0.845900	0.428000
O151	O15	0.994600	0.615700	0.319000
O161	O16	0.926300	0.680800	0.266600
O171	O17	0.441200	0.434300	0.940200
O181	O18	0.407800	0.340500	0.919000
O191	O19	0.675400	0.317300	0.859700
O201	O20	0.600900	0.345900	0.928000
O211	O21	0.505400	0.384300	0.819000
O221	O22	0.573700	0.319200	0.766600
O231	O23	0.058800	0.565700	0.440200
O241	O24	0.092200	0.659500	0.419000
O251	O25	0.824600	0.682700	0.359700
O261	O26	0.899100	0.654100	0.428000
O271	O27	0.791000	0.166000	0.724000
O281	O28	0.709000	0.834000	0.224000
O291	O29	0.985300	0.750000	0.355900
O301	O30	0.514700	0.250000	0.855900
Na51	Na5	0.215200	0.250000	0.734900
Na61	Na6	0.284800	0.750000	0.234900
Na71	Na7	0.103900	0.750000	0.289400
Na81	Na8	0.396100	0.250000	0.789400
Zn71	Zn7	0.007160	0.334620	0.615760
Zn81	Zn8	0.492840	0.665380	0.115760
Zn91	Zn9	0.007160	0.165380	0.615760
Zn101	Zn10	0.492840	0.834620	0.115760
Zn111	Zn11	0.119220	0.250000	0.686350
Zn121	Zn12	0.380780	0.750000	0.186350
H891	H89	0.116800	0.540000	0.923200
H901	H90	0.976000	0.622200	0.028100
H911	H91	0.884000	0.534000	0.904100
H921	H92	0.101900	0.440500	0.886000
H931	H93	0.112800	0.374700	0.816000
H941	H94	0.938900	0.462300	0.741800
H951	H95	0.928400	0.528800	0.812900
H961	H96	0.201100	0.614200	0.947100
H971	H97	0.312700	0.639900	0.992300
H981	H98	0.190400	0.638000	0.127700
H991	H99	0.080400	0.606700	0.083200
H1001	H100	0.850500	0.673600	0.020500
H1011	H101	0.726500	0.684400	0.058400
H1021	H102	0.670600	0.514200	0.010800
H1031	H103	0.792800	0.505900	0.970600
H1041	H104	0.383200	0.460000	0.423200
H1051	H105	0.524000	0.377800	0.528100
H1061	H106	0.616000	0.466000	0.404100
H1071	H107	0.398100	0.559500	0.386000
H1081	H108	0.387200	0.625300	0.316000
H1091	H109	0.561100	0.537700	0.241800
H1101	H110	0.571600	0.471200	0.312900
H1111	H111	0.298900	0.385800	0.447100
H1121	H112	0.187300	0.360100	0.492300
H1131	H113	0.309600	0.362000	0.627700
H1141	H114	0.419600	0.393300	0.583200
H1151	H115	0.649500	0.326400	0.520500
H1161	H116	0.773500	0.315600	0.558400
H1171	H117	0.829400	0.485800	0.510800
H1181	H118	0.707200	0.494100	0.470600
H1191	H119	0.148000	0.878900	0.314100
H1201	H120	0.185600	0.030800	0.306100
H1211	H121	0.263400	0.011200	0.334300
H1221	H122	0.183700	0.981700	0.351700
H1231	H123	0.283700	0.932200	0.217300
H1241	H124	0.298000	0.996600	0.244000
H1251	H125	0.220200	0.984100	0.212900
H1261	H126	0.352000	0.121100	0.814100
H1271	H127	0.314400	0.969200	0.806100
H1281	H128	0.236600	0.988800	0.834300
H1291	H129	0.316300	0.018300	0.851700
H1301	H130	0.216300	0.067800	0.717300
H1311	H131	0.202000	0.003400	0.744000
H1321	H132	0.279800	0.015900	0.712900
H1331	H133	0.148000	0.621100	0.314100
H1341	H134	0.185600	0.469200	0.306100
H1351	H135	0.263400	0.488800	0.334300
H1361	H136	0.183700	0.518300	0.351700
H1371	H137	0.283700	0.567800	0.217300
H1381	H138	0.298000	0.503400	0.244000
H1391	H139	0.220200	0.515900	0.212900
H1401	H140	0.352000	0.378900	0.814100
H1411	H141	0.314400	0.530800	0.806100
H1421	H142	0.236600	0.511200	0.834300
H1431	H143	0.316300	0.481700	0.851700
H1441	H144	0.216300	0.432200	0.717300
H1451	H145	0.202000	0.496600	0.744000
H1461	H146	0.279800	0.484100	0.712900
H1471	H147	0.116800	0.960000	0.923200
H1481	H148	0.976000	0.877800	0.028100
H1491	H149	0.884000	0.966000	0.904100
H1501	H150	0.101900	0.059500	0.886000
H1511	H151	0.112800	0.125300	0.816000
H1521	H152	0.938900	0.037700	0.741800
H1531	H153	0.928400	0.971200	0.812900
H1541	H154	0.201100	0.885800	0.947100
H1551	H155	0.312700	0.860100	0.992300
H1561	H156	0.190400	0.862000	0.127700
H1571	H157	0.080400	0.893300	0.083200
H1581	H158	0.850500	0.826400	0.020500
H1591	H159	0.726500	0.815600	0.058400
H1601	H160	0.670600	0.985800	0.010800
H1611	H161	0.792800	0.994100	0.970600
H1621	H162	0.383200	0.040000	0.423200
H1631	H163	0.524000	0.122200	0.528100
H1641	H164	0.616000	0.034000	0.404100
H1651	H165	0.398100	0.940500	0.386000
H1661	H166	0.387200	0.874700	0.316000
H1671	H167	0.561100	0.962300	0.241800
H1681	H168	0.571600	0.028800	0.312900
H1691	H169	0.298900	0.114200	0.447100
H1701	H170	0.187300	0.139900	0.492300
H1711	H171	0.309600	0.138000	0.627700
H1721	H172	0.419600	0.106700	0.583200
H1731	H173	0.649500	0.173600	0.520500
H1741	H174	0.773500	0.184400	0.558400
H1751	H175	0.829400	0.014200	0.510800
H1761	H176	0.707200	0.005900	0.470600
C1211	C121	0.001400	0.529500	0.905500
C1221	C122	0.066600	0.549900	0.934600
C1231	C123	0.056900	0.584400	0.980000
C1241	C124	0.982200	0.598300	0.997800
C1251	C125	0.917200	0.577300	0.971400
C1261	C126	0.927700	0.545100	0.923800
C1271	C127	0.012100	0.488800	0.858700
C1281	C128	0.068000	0.444700	0.857500
C1291	C129	0.075500	0.406000	0.815100
C1301	C130	0.028600	0.412500	0.770800
C1311	C131	0.972000	0.457900	0.770700
C1321	C132	0.964800	0.497000	0.813700
C1331	C133	0.127300	0.607200	0.009200
C1341	C134	0.198900	0.618200	0.983700
C1351	C135	0.265800	0.634700	0.010300
C1361	C136	0.261900	0.643500	0.065700
C1371	C137	0.192700	0.632700	0.091200
C1381	C138	0.126200	0.614400	0.064500
C1391	C139	0.836600	0.588300	0.993400
C1401	C140	0.815000	0.641200	0.018100
C1411	C141	0.739300	0.648300	0.040500
C1421	C142	0.686100	0.602800	0.035800
C1431	C143	0.705800	0.547000	0.011700
C1441	C144	0.780300	0.541700	0.989100
C1451	C145	0.037300	0.368600	0.724600
C1461	C146	0.334600	0.661700	0.094600
C1471	C147	0.604600	0.610700	0.061000
C1481	C148	0.498600	0.470500	0.405500
C1491	C149	0.433400	0.450100	0.434600
C1501	C150	0.443100	0.415600	0.480000
C1511	C151	0.517800	0.401700	0.497800
C1521	C152	0.582800	0.422700	0.471400
C1531	C153	0.572300	0.454900	0.423800
C1541	C154	0.487900	0.511200	0.358700
C1551	C155	0.432000	0.555300	0.357500
C1561	C156	0.424500	0.594000	0.315100
C1571	C157	0.471400	0.587500	0.270800
C1581	C158	0.528000	0.542100	0.270700
C1591	C159	0.535200	0.503000	0.313700
C1601	C160	0.372700	0.392800	0.509200
C1611	C161	0.301100	0.381800	0.483700
C1621	C162	0.234200	0.365300	0.510300
C1631	C163	0.238100	0.356500	0.565700
C1641	C164	0.307300	0.367300	0.591200
C1651	C165	0.373800	0.385600	0.564500
C1661	C166	0.663400	0.411700	0.493400
C1671	C167	0.685000	0.358800	0.518100
C1681	C168	0.760700	0.351700	0.540500
C1691	C169	0.813900	0.397200	0.535800
C1701	C170	0.794200	0.453000	0.511700
C1711	C171	0.719700	0.458300	0.489100
C1721	C172	0.462700	0.631400	0.224600
C1731	C173	0.165400	0.338300	0.594600
C1741	C174	0.895400	0.389300	0.561000
C1751	C175	0.190800	0.879900	0.291000
C1761	C176	0.213000	0.997000	0.322000
C1771	C177	0.259300	0.966000	0.235400
C1781	C178	0.309200	0.120100	0.791000
C1791	C179	0.287000	0.003000	0.822000
C1801	C180	0.240700	0.034000	0.735400
C1811	C181	0.190800	0.620100	0.291000
C1821	C182	0.213000	0.503000	0.322000
C1831	C183	0.259300	0.534000	0.235400
C1841	C184	0.309200	0.379900	0.791000
C1851	C185	0.287000	0.497000	0.822000
C1861	C186	0.240700	0.466000	0.735400
C1871	C187	0.001400	0.970500	0.905500
C1881	C188	0.066600	0.950100	0.934600
C1891	C189	0.056900	0.915600	0.980000
C1901	C190	0.982200	0.901700	0.997800
C1911	C191	0.917200	0.922700	0.971400
C1921	C192	0.927700	0.954900	0.923800
C1931	C193	0.012100	0.011200	0.858700
C1941	C194	0.068000	0.055300	0.857500
C1951	C195	0.075500	0.094000	0.815100
C1961	C196	0.028600	0.087500	0.770800
C1971	C197	0.972000	0.042100	0.770700
C1981	C198	0.964800	0.003000	0.813700
C1991	C199	0.127300	0.892800	0.009200
C2001	C200	0.198900	0.881800	0.983700
C2011	C201	0.265800	0.865300	0.010300
C2021	C202	0.261900	0.856500	0.065700
C2031	C203	0.192700	0.867300	0.091200
C2041	C204	0.126200	0.885600	0.064500
C2051	C205	0.836600	0.911700	0.993400
C2061	C206	0.815000	0.858800	0.018100
C2071	C207	0.739300	0.851700	0.040500
C2081	C208	0.686100	0.897200	0.035800
C2091	C209	0.705800	0.953000	0.011700
C2101	C210	0.780300	0.958300	0.989100
C2111	C211	0.037300	0.131400	0.724600
C2121	C212	0.334600	0.838300	0.094600
C2131	C213	0.604600	0.889300	0.061000
C2141	C214	0.498600	0.029500	0.405500
C2151	C215	0.433400	0.049900	0.434600
C2161	C216	0.443100	0.084400	0.480000
C2171	C217	0.517800	0.098300	0.497800
C2181	C218	0.582800	0.077300	0.471400
C2191	C219	0.572300	0.045100	0.423800
C2201	C220	0.487900	0.988800	0.358700
C2211	C221	0.432000	0.944700	0.357500
C2221	C222	0.424500	0.906000	0.315100
C2231	C223	0.471400	0.912500	0.270800
C2241	C224	0.528000	0.957900	0.270700
C2251	C225	0.535200	0.997000	0.313700
C2261	C226	0.372700	0.107200	0.509200
C2271	C227	0.301100	0.118200	0.483700
C2281	C228	0.234200	0.134700	0.510300
C2291	C229	0.238100	0.143500	0.565700
C2301	C230	0.307300	0.132700	0.591200
C2311	C231	0.373800	0.114400	0.564500
C2321	C232	0.663400	0.088300	0.493400
C2331	C233	0.685000	0.141200	0.518100
C2341	C234	0.760700	0.148300	0.540500
C2351	C235	0.813900	0.102800	0.535800
C2361	C236	0.794200	0.047000	0.511700
C2371	C237	0.719700	0.041700	0.489100
C2381	C238	0.462700	0.868600	0.224600
C2391	C239	0.165400	0.161700	0.594600
C2401	C240	0.895400	0.110700	0.561000
N51	N5	0.224600	0.945000	0.281400
N61	N6	0.275400	0.055000	0.781400
N71	N7	0.224600	0.555000	0.281400
N81	N8	0.275400	0.445000	0.781400
O311	O31	0.005400	0.384300	0.681000
O321	O32	0.073700	0.319200	0.733400
O331	O33	0.558800	0.565700	0.059800
O341	O34	0.592200	0.659500	0.081000
O351	O35	0.324600	0.682700	0.140300
O361	O36	0.399100	0.654100	0.072000
O371	O37	0.494600	0.615700	0.181000
O381	O38	0.426300	0.680800	0.233400
O391	O39	0.941200	0.434300	0.559800
O401	O40	0.907800	0.340500	0.581000
O411	O41	0.175400	0.317300	0.640300
O421	O42	0.100900	0.345900	0.572000
O431	O43	0.209000	0.834000	0.276000
O441	O44	0.291000	0.166000	0.776000
O451	O45	0.209000	0.666000	0.276000
O461	O46	0.291000	0.334000	0.776000
O471	O47	0.005400	0.115700	0.681000
O481	O48	0.073700	0.180800	0.733400
O491	O49	0.558800	0.934300	0.059800
O501	O50	0.592200	0.840500	0.081000
O511	O51	0.324600	0.817300	0.140300
O521	O52	0.399100	0.845900	0.072000
O531	O53	0.494600	0.884300	0.181000
O541	O54	0.426300	0.819200	0.233400
O551	O55	0.941200	0.065700	0.559800
O561	O56	0.907800	0.159500	0.581000
O571	O57	0.175400	0.182700	0.640300
O581	O58	0.100900	0.154100	0.572000
O591	O59	0.014700	0.250000	0.644100
O601	O60	0.485300	0.750000	0.144100
