data_IBABOF01_clean_PM
_symmetry_space_group_name_H-M	'P1'
_cell_length_a	17.959800
_cell_length_b	21.838600
_cell_length_c	12.666100
_cell_angle_alpha	90.000000
_cell_angle_beta	90.000000
_cell_angle_gamma	90.000000
_symmetry_Int_Tables_number 1

loop_
_symmetry_equiv_pos_as_xyz
'x,y,z'

loop_
_atom_site_label
_atom_site_type_symbol
_atom_site_fract_x
_atom_site_fract_y
_atom_site_fract_z
Co11	Co1	0.337970	0.728530	0.034320
Co21	Co2	0.174650	0.720060	0.025740
N11	N1	0.443800	0.760000	0.053000
O11	O1	0.345500	0.703200	0.878000
O21	O2	0.316400	0.750700	0.195400
O31	O3	0.213400	0.307600	0.502000
O41	O4	0.174700	0.139300	0.572200
O51	O5	0.222100	0.693400	0.892000
O61	O6	0.191800	0.748200	0.173800
N21	N2	0.561800	0.792900	0.040400
O71	O7	0.335300	0.308600	0.473200
O81	O8	0.298600	0.131400	0.583700
N31	N3	0.459700	0.799000	0.138200
C11	C1	0.505600	0.759500	0.997700
C21	C2	0.281400	0.691900	0.840000
C31	C3	0.251200	0.755500	0.227100
C41	C4	0.530700	0.816900	0.130800
N41	N4	0.512900	0.731100	0.903400
C51	C5	0.275600	0.671900	0.727300
C61	C6	0.238500	0.773800	0.341900
N51	N5	0.565200	0.854000	0.197600
H11	H1	0.475700	0.712000	0.876300
H21	H2	0.554800	0.732300	0.870500
C71	C7	0.205500	0.666900	0.682100
C81	C8	0.338600	0.659000	0.668100
C91	C9	0.298600	0.779300	0.408300
C101	C10	0.167100	0.784800	0.379000
H31	H3	0.541600	0.868600	0.251100
H41	H4	0.611100	0.863400	0.187600
H51	H5	0.163500	0.676900	0.721200
C111	C11	0.198100	0.647100	0.579500
C121	C12	0.332600	0.639600	0.566300
H61	H6	0.385500	0.663500	0.698300
H71	H7	0.346300	0.771200	0.383300
C131	C13	0.288400	0.797000	0.513100
C141	C14	0.156600	0.802900	0.483900
H81	H8	0.126300	0.780200	0.334400
H91	H9	0.151200	0.642600	0.549300
C151	C15	0.261100	0.634100	0.522600
H101	H10	0.374700	0.630200	0.526800
H111	H11	0.328900	0.800100	0.558500
C161	C16	0.218100	0.809900	0.548100
H121	H12	0.108900	0.810000	0.509900
S11	S1	0.251300	0.604610	0.391500
S21	S2	0.205970	0.838860	0.678110
O91	O9	0.177800	0.619200	0.354400
O101	O10	0.314400	0.623800	0.329800
C171	C17	0.257300	0.524500	0.412000
O111	O11	0.130600	0.825500	0.710900
O121	O12	0.267900	0.819000	0.741700
C181	C18	0.214400	0.919100	0.658300
C191	C19	0.193300	0.493100	0.437700
C201	C20	0.325900	0.496000	0.404300
C211	C21	0.283300	0.947000	0.667900
C221	C22	0.152200	0.952600	0.629000
H131	H13	0.147600	0.513000	0.442300
C231	C23	0.199200	0.430200	0.456400
C241	C24	0.330700	0.433900	0.424600
H141	H14	0.368100	0.518200	0.385900
H151	H15	0.324900	0.924400	0.687700
C251	C25	0.289300	0.009400	0.647400
C261	C26	0.158800	0.013600	0.609000
H161	H16	0.106100	0.933500	0.623100
H171	H17	0.156800	0.407800	0.473100
C271	C27	0.267200	0.401000	0.450700
H181	H18	0.376500	0.414200	0.420800
H191	H19	0.335200	0.028700	0.654400
C281	C28	0.227000	0.043200	0.616300
H201	H20	0.116800	0.035900	0.590000
C291	C29	0.271900	0.335000	0.475800
C301	C30	0.234100	0.109500	0.588300
Co31	Co3	0.662030	0.271470	0.534320
Co41	Co4	0.825350	0.279940	0.525740
N61	N6	0.556200	0.240000	0.553000
O131	O13	0.654500	0.296800	0.378000
O141	O14	0.683600	0.249300	0.695400
O151	O15	0.786600	0.692400	0.002000
O161	O16	0.825300	0.860700	0.072200
O171	O17	0.777900	0.306600	0.392000
O181	O18	0.808200	0.251800	0.673800
N71	N7	0.438200	0.207100	0.540400
O191	O19	0.664700	0.691400	0.973200
O201	O20	0.701400	0.868600	0.083700
N81	N8	0.540300	0.201000	0.638200
C311	C31	0.494400	0.240500	0.497700
C321	C32	0.718600	0.308100	0.340000
C331	C33	0.748800	0.244500	0.727100
C341	C34	0.469300	0.183100	0.630800
N91	N9	0.487100	0.268900	0.403400
C351	C35	0.724400	0.328100	0.227300
C361	C36	0.761500	0.226200	0.841900
N101	N10	0.434800	0.146000	0.697600
H211	H21	0.524300	0.288000	0.376300
H221	H22	0.445200	0.267700	0.370500
C371	C37	0.794500	0.333100	0.182100
C381	C38	0.661400	0.341000	0.168100
C391	C39	0.701400	0.220700	0.908300
C401	C40	0.832900	0.215200	0.879000
H231	H23	0.458400	0.131400	0.751100
H241	H24	0.388900	0.136600	0.687600
H251	H25	0.836500	0.323100	0.221200
C411	C41	0.801900	0.352900	0.079500
C421	C42	0.667400	0.360400	0.066300
H261	H26	0.614500	0.336500	0.198300
H271	H27	0.653700	0.228800	0.883300
C431	C43	0.711600	0.203000	0.013100
C441	C44	0.843400	0.197100	0.983900
H281	H28	0.873700	0.219800	0.834400
H291	H29	0.848800	0.357400	0.049300
C451	C45	0.738900	0.365900	0.022600
H301	H30	0.625300	0.369800	0.026800
H311	H31	0.671100	0.199900	0.058500
C461	C46	0.781900	0.190100	0.048100
H321	H32	0.891100	0.190000	0.009900
S31	S3	0.748700	0.395390	0.891500
S41	S4	0.794030	0.161140	0.178110
O211	O21	0.822200	0.380800	0.854400
O221	O22	0.685600	0.376200	0.829800
C471	C47	0.742700	0.475500	0.912000
O231	O23	0.869400	0.174500	0.210900
O241	O24	0.732100	0.181000	0.241700
C481	C48	0.785600	0.080900	0.158300
C491	C49	0.806700	0.506900	0.937700
C501	C50	0.674100	0.504000	0.904300
C511	C51	0.716700	0.053000	0.167900
C521	C52	0.847800	0.047400	0.129000
H331	H33	0.852400	0.487000	0.942300
C531	C53	0.800800	0.569800	0.956400
C541	C54	0.669300	0.566100	0.924600
H341	H34	0.631900	0.481800	0.885900
H351	H35	0.675100	0.075600	0.187700
C551	C55	0.710700	0.990600	0.147400
C561	C56	0.841200	0.986400	0.109000
H361	H36	0.893900	0.066500	0.123100
H371	H37	0.843200	0.592200	0.973100
C571	C57	0.732800	0.599000	0.950700
H381	H38	0.623500	0.585800	0.920800
H391	H39	0.664800	0.971300	0.154400
C581	C58	0.773000	0.956800	0.116300
H401	H40	0.883200	0.964100	0.090000
C591	C59	0.728100	0.665000	0.975800
C601	C60	0.765900	0.890500	0.088300
Co51	Co5	0.837970	0.771470	0.034320
Co61	Co6	0.674650	0.779940	0.025740
N111	N11	0.943800	0.740000	0.053000
O251	O25	0.845500	0.796800	0.878000
O261	O26	0.816400	0.749300	0.195400
O271	O27	0.713400	0.192400	0.502000
O281	O28	0.674700	0.360700	0.572200
O291	O29	0.722100	0.806600	0.892000
O301	O30	0.691800	0.751800	0.173800
N121	N12	0.061800	0.707100	0.040400
O311	O31	0.835300	0.191400	0.473200
O321	O32	0.798600	0.368600	0.583700
N131	N13	0.959700	0.701000	0.138200
C611	C61	0.005600	0.740500	0.997700
C621	C62	0.781400	0.808100	0.840000
C631	C63	0.751200	0.744500	0.227100
C641	C64	0.030700	0.683100	0.130800
N141	N14	0.012900	0.768900	0.903400
C651	C65	0.775600	0.828100	0.727300
C661	C66	0.738500	0.726200	0.341900
N151	N15	0.065200	0.646000	0.197600
H411	H41	0.975700	0.788000	0.876300
H421	H42	0.054800	0.767700	0.870500
C671	C67	0.705500	0.833100	0.682100
C681	C68	0.838600	0.841000	0.668100
C691	C69	0.798600	0.720700	0.408300
C701	C70	0.667100	0.715200	0.379000
H431	H43	0.041600	0.631400	0.251100
H441	H44	0.111100	0.636600	0.187600
H451	H45	0.663500	0.823100	0.721200
C711	C71	0.698100	0.852900	0.579500
C721	C72	0.832600	0.860400	0.566300
H461	H46	0.885500	0.836500	0.698300
H471	H47	0.846300	0.728800	0.383300
C731	C73	0.788400	0.703000	0.513100
C741	C74	0.656600	0.697100	0.483900
H481	H48	0.626300	0.719800	0.334400
H491	H49	0.651200	0.857400	0.549300
C751	C75	0.761100	0.865900	0.522600
H501	H50	0.874700	0.869800	0.526800
H511	H51	0.828900	0.699900	0.558500
C761	C76	0.718100	0.690100	0.548100
H521	H52	0.608900	0.690000	0.509900
S51	S5	0.751300	0.895390	0.391500
S61	S6	0.705970	0.661140	0.678110
O331	O33	0.677800	0.880800	0.354400
O341	O34	0.814400	0.876200	0.329800
C771	C77	0.757300	0.975500	0.412000
O351	O35	0.630600	0.674500	0.710900
O361	O36	0.767900	0.681000	0.741700
C781	C78	0.714400	0.580900	0.658300
C791	C79	0.693300	0.006900	0.437700
C801	C80	0.825900	0.004000	0.404300
C811	C81	0.783300	0.553000	0.667900
C821	C82	0.652200	0.547400	0.629000
H531	H53	0.647600	0.987000	0.442300
C831	C83	0.699200	0.069800	0.456400
C841	C84	0.830700	0.066100	0.424600
H541	H54	0.868100	0.981800	0.385900
H551	H55	0.824900	0.575600	0.687700
C851	C85	0.789300	0.490600	0.647400
C861	C86	0.658800	0.486400	0.609000
H561	H56	0.606100	0.566500	0.623100
H571	H57	0.656800	0.092200	0.473100
C871	C87	0.767200	0.099000	0.450700
H581	H58	0.876500	0.085800	0.420800
H591	H59	0.835200	0.471300	0.654400
C881	C88	0.727000	0.456800	0.616300
H601	H60	0.616800	0.464100	0.590000
C891	C89	0.771900	0.165000	0.475800
C901	C90	0.734100	0.390500	0.588300
Co71	Co7	0.162030	0.228530	0.534320
Co81	Co8	0.325350	0.220060	0.525740
N161	N16	0.056200	0.260000	0.553000
O371	O37	0.154500	0.203200	0.378000
O381	O38	0.183600	0.250700	0.695400
O391	O39	0.286600	0.807600	0.002000
O401	O40	0.325300	0.639300	0.072200
O411	O41	0.277900	0.193400	0.392000
O421	O42	0.308200	0.248200	0.673800
N171	N17	0.938200	0.292900	0.540400
O431	O43	0.164700	0.808600	0.973200
O441	O44	0.201400	0.631400	0.083700
N181	N18	0.040300	0.299000	0.638200
C911	C91	0.994400	0.259500	0.497700
C921	C92	0.218600	0.191900	0.340000
C931	C93	0.248800	0.255500	0.727100
C941	C94	0.969300	0.316900	0.630800
N191	N19	0.987100	0.231100	0.403400
C951	C95	0.224400	0.171900	0.227300
C961	C96	0.261500	0.273800	0.841900
N201	N20	0.934800	0.354000	0.697600
H611	H61	0.024300	0.212000	0.376300
H621	H62	0.945200	0.232300	0.370500
C971	C97	0.294500	0.166900	0.182100
C981	C98	0.161400	0.159000	0.168100
C991	C99	0.201400	0.279300	0.908300
C1001	C100	0.332900	0.284800	0.879000
H631	H63	0.958400	0.368600	0.751100
H641	H64	0.888900	0.363400	0.687600
H651	H65	0.336500	0.176900	0.221200
C1011	C101	0.301900	0.147100	0.079500
C1021	C102	0.167400	0.139600	0.066300
H661	H66	0.114500	0.163500	0.198300
H671	H67	0.153700	0.271200	0.883300
C1031	C103	0.211600	0.297000	0.013100
C1041	C104	0.343400	0.302900	0.983900
H681	H68	0.373700	0.280200	0.834400
H691	H69	0.348800	0.142600	0.049300
C1051	C105	0.238900	0.134100	0.022600
H701	H70	0.125300	0.130200	0.026800
H711	H71	0.171100	0.300100	0.058500
C1061	C106	0.281900	0.309900	0.048100
H721	H72	0.391100	0.310000	0.009900
S71	S7	0.248700	0.104610	0.891500
S81	S8	0.294030	0.338860	0.178110
O451	O45	0.322200	0.119200	0.854400
O461	O46	0.185600	0.123800	0.829800
C1071	C107	0.242700	0.024500	0.912000
O471	O47	0.369400	0.325500	0.210900
O481	O48	0.232100	0.319000	0.241700
C1081	C108	0.285600	0.419100	0.158300
C1091	C109	0.306700	0.993100	0.937700
C1101	C110	0.174100	0.996000	0.904300
C1111	C111	0.216700	0.447000	0.167900
C1121	C112	0.347800	0.452600	0.129000
H731	H73	0.352400	0.013000	0.942300
C1131	C113	0.300800	0.930200	0.956400
C1141	C114	0.169300	0.933900	0.924600
H741	H74	0.131900	0.018200	0.885900
H751	H75	0.175100	0.424400	0.187700
C1151	C115	0.210700	0.509400	0.147400
C1161	C116	0.341200	0.513600	0.109000
H761	H76	0.393900	0.433500	0.123100
H771	H77	0.343200	0.907800	0.973100
C1171	C117	0.232800	0.901000	0.950700
H781	H78	0.123500	0.914200	0.920800
H791	H79	0.164800	0.528700	0.154400
C1181	C118	0.273000	0.543200	0.116300
H801	H80	0.383200	0.535900	0.090000
C1191	C119	0.228100	0.835000	0.975800
C1201	C120	0.265900	0.609500	0.088300
