data_IBARUA_clean_PM
_symmetry_space_group_name_H-M	'P1'
_cell_length_a	13.347300
_cell_length_b	13.347300
_cell_length_c	14.259900
_cell_angle_alpha	90.000000
_cell_angle_beta	90.000000
_cell_angle_gamma	120.000000
_symmetry_Int_Tables_number 1

loop_
_symmetry_equiv_pos_as_xyz
'x,y,z'

loop_
_atom_site_label
_atom_site_type_symbol
_atom_site_fract_x
_atom_site_fract_y
_atom_site_fract_z
Er11	Er1	0.333330	0.666660	0.333040
Er21	Er2	0.666670	0.333340	0.166960
Er31	Er3	0.666670	0.333340	0.666960
Er41	Er4	0.333330	0.666660	0.833040
Cu11	Cu1	0.500000	0.000000	0.500000
Cu21	Cu2	0.500000	0.500000	0.500000
Cu31	Cu3	0.000000	0.500000	0.500000
Cu41	Cu4	0.500000	0.000000	0.000000
Cu51	Cu5	0.000000	0.500000	0.000000
Cu61	Cu6	0.500000	0.500000	0.000000
H11	H1	0.672900	0.022600	0.579700
H21	H2	0.682900	0.862500	0.520200
H31	H3	0.705000	0.960100	0.447900
H41	H4	0.601000	0.913300	0.695600
H51	H5	0.539500	0.805500	0.629300
H61	H6	0.349700	0.327100	0.579700
H71	H7	0.179600	0.317100	0.520200
H81	H8	0.255100	0.295000	0.447900
H91	H9	0.312300	0.399000	0.695600
H101	H10	0.266000	0.460500	0.629300
H111	H11	0.977400	0.650300	0.579700
H121	H12	0.137500	0.820400	0.520200
H131	H13	0.039900	0.744900	0.447900
H141	H14	0.086700	0.687700	0.695600
H151	H15	0.194500	0.734000	0.629300
H161	H16	0.650300	0.977400	0.920300
H171	H17	0.820400	0.137500	0.979800
H181	H18	0.744900	0.039900	0.052100
H191	H19	0.687700	0.086700	0.804400
H201	H20	0.734000	0.194500	0.870700
H211	H21	0.022600	0.672900	0.920300
H221	H22	0.862500	0.682900	0.979800
H231	H23	0.960100	0.705000	0.052100
H241	H24	0.913300	0.601000	0.804400
H251	H25	0.805500	0.539500	0.870700
H261	H26	0.327100	0.349700	0.920300
H271	H27	0.317100	0.179600	0.979800
H281	H28	0.295000	0.255100	0.052100
H291	H29	0.399000	0.312300	0.804400
H301	H30	0.460500	0.266000	0.870700
H311	H31	0.327100	0.977400	0.420300
H321	H32	0.317100	0.137500	0.479800
H331	H33	0.295000	0.039900	0.552100
H341	H34	0.399000	0.086700	0.304400
H351	H35	0.460500	0.194500	0.370700
H361	H36	0.650300	0.672900	0.420300
H371	H37	0.820400	0.682900	0.479800
H381	H38	0.744900	0.705000	0.552100
H391	H39	0.687700	0.601000	0.304400
H401	H40	0.734000	0.539500	0.370700
H411	H41	0.022600	0.349700	0.420300
H421	H42	0.862500	0.179600	0.479800
H431	H43	0.960100	0.255100	0.552100
H441	H44	0.913300	0.312300	0.304400
H451	H45	0.805500	0.266000	0.370700
H461	H46	0.349700	0.022600	0.079700
H471	H47	0.179600	0.862500	0.020200
H481	H48	0.255100	0.960100	0.947900
H491	H49	0.312300	0.913300	0.195600
H501	H50	0.266000	0.805500	0.129300
H511	H51	0.977400	0.327100	0.079700
H521	H52	0.137500	0.317100	0.020200
H531	H53	0.039900	0.295000	0.947900
H541	H54	0.086700	0.399000	0.195600
H551	H55	0.194500	0.460500	0.129300
H561	H56	0.672900	0.650300	0.079700
H571	H57	0.682900	0.820400	0.020200
H581	H58	0.705000	0.744900	0.947900
H591	H59	0.601000	0.687700	0.195600
H601	H60	0.539500	0.734000	0.129300
C11	C1	0.546700	0.814500	0.430200
C21	C2	0.647400	0.901300	0.488600
C31	C3	0.551300	0.882100	0.641100
C41	C4	0.436600	0.873300	0.661700
C51	C5	0.267800	0.453300	0.430200
C61	C6	0.253900	0.352600	0.488600
C71	C7	0.330800	0.448700	0.641100
C81	C8	0.436700	0.563400	0.661700
C91	C9	0.185500	0.732200	0.430200
C101	C10	0.098700	0.746100	0.488600
C111	C11	0.117900	0.669200	0.641100
C121	C12	0.126700	0.563300	0.661700
C131	C13	0.732200	0.185500	0.069800
C141	C14	0.746100	0.098700	0.011400
C151	C15	0.669200	0.117900	0.858900
C161	C16	0.563300	0.126700	0.838300
C171	C17	0.814500	0.546700	0.069800
C181	C18	0.901300	0.647400	0.011400
C191	C19	0.882100	0.551300	0.858900
C201	C20	0.873300	0.436600	0.838300
C211	C21	0.453300	0.267800	0.069800
C221	C22	0.352600	0.253900	0.011400
C231	C23	0.448700	0.330800	0.858900
C241	C24	0.563400	0.436700	0.838300
C251	C25	0.453300	0.185500	0.569800
C261	C26	0.352600	0.098700	0.511400
C271	C27	0.448700	0.117900	0.358900
C281	C28	0.563400	0.126700	0.338300
C291	C29	0.732200	0.546700	0.569800
C301	C30	0.746100	0.647400	0.511400
C311	C31	0.669200	0.551300	0.358900
C321	C32	0.563300	0.436600	0.338300
C331	C33	0.814500	0.267800	0.569800
C341	C34	0.901300	0.253900	0.511400
C351	C35	0.882100	0.330800	0.358900
C361	C36	0.873300	0.436700	0.338300
C371	C37	0.267800	0.814500	0.930200
C381	C38	0.253900	0.901300	0.988600
C391	C39	0.330800	0.882100	0.141100
C401	C40	0.436700	0.873300	0.161700
C411	C41	0.185500	0.453300	0.930200
C421	C42	0.098700	0.352600	0.988600
C431	C43	0.117900	0.448700	0.141100
C441	C44	0.126700	0.563400	0.161700
C451	C45	0.546700	0.732200	0.930200
C461	C46	0.647400	0.746100	0.988600
C471	C47	0.551300	0.669200	0.141100
C481	C48	0.436600	0.563300	0.161700
N11	N1	0.609600	0.956900	0.559130
N21	N2	0.347300	0.390400	0.559130
N31	N3	0.043100	0.652700	0.559130
N41	N4	0.652700	0.043100	0.940870
N51	N5	0.956900	0.609600	0.940870
N61	N6	0.390400	0.347300	0.940870
N71	N7	0.390400	0.043100	0.440870
N81	N8	0.652700	0.609600	0.440870
N91	N9	0.956900	0.347300	0.440870
N101	N10	0.347300	0.956900	0.059130
N111	N11	0.043100	0.390400	0.059130
N121	N12	0.609600	0.652700	0.059130
O11	O1	0.449900	0.809700	0.440740
O21	O2	0.559900	0.752600	0.372020
O31	O3	0.402000	0.926300	0.609090
O41	O4	0.379400	0.813900	0.730030
O51	O5	0.359800	0.550100	0.440740
O61	O6	0.192700	0.440100	0.372020
O71	O7	0.524300	0.598000	0.609090
O81	O8	0.434500	0.620600	0.730030
O91	O9	0.190300	0.640200	0.440740
O101	O10	0.247400	0.807300	0.372020
O111	O11	0.073700	0.475700	0.609090
O121	O12	0.186100	0.565500	0.730030
O131	O13	0.640200	0.190300	0.059260
O141	O14	0.807300	0.247400	0.127980
O151	O15	0.475700	0.073700	0.890910
O161	O16	0.565500	0.186100	0.769970
O171	O17	0.809700	0.449900	0.059260
O181	O18	0.752600	0.559900	0.127980
O191	O19	0.926300	0.402000	0.890910
O201	O20	0.813900	0.379400	0.769970
O211	O21	0.550100	0.359800	0.059260
O221	O22	0.440100	0.192700	0.127980
O231	O23	0.598000	0.524300	0.890910
O241	O24	0.620600	0.434500	0.769970
O251	O25	0.550100	0.190300	0.559260
O261	O26	0.440100	0.247400	0.627980
O271	O27	0.598000	0.073700	0.390910
O281	O28	0.620600	0.186100	0.269970
O291	O29	0.640200	0.449900	0.559260
O301	O30	0.807300	0.559900	0.627980
O311	O31	0.475700	0.402000	0.390910
O321	O32	0.565500	0.379400	0.269970
O331	O33	0.809700	0.359800	0.559260
O341	O34	0.752600	0.192700	0.627980
O351	O35	0.926300	0.524300	0.390910
O361	O36	0.813900	0.434500	0.269970
O371	O37	0.359800	0.809700	0.940740
O381	O38	0.192700	0.752600	0.872020
O391	O39	0.524300	0.926300	0.109090
O401	O40	0.434500	0.813900	0.230030
O411	O41	0.190300	0.550100	0.940740
O421	O42	0.247400	0.440100	0.872020
O431	O43	0.073700	0.598000	0.109090
O441	O44	0.186100	0.620600	0.230030
O451	O45	0.449900	0.640200	0.940740
O461	O46	0.559900	0.807300	0.872020
O471	O47	0.402000	0.475700	0.109090
O481	O48	0.379400	0.565500	0.230030
