data_IBASEL_clean_PM
_symmetry_space_group_name_H-M	'P1'
_cell_length_a	13.494600
_cell_length_b	13.494600
_cell_length_c	14.912000
_cell_angle_alpha	90.000000
_cell_angle_beta	90.000000
_cell_angle_gamma	120.000000
_symmetry_Int_Tables_number 1

loop_
_symmetry_equiv_pos_as_xyz
'x,y,z'

loop_
_atom_site_label
_atom_site_type_symbol
_atom_site_fract_x
_atom_site_fract_y
_atom_site_fract_z
La11	La1	0.333330	0.666660	0.669120
La21	La2	0.666670	0.333340	0.830880
La31	La3	0.666670	0.333340	0.330880
La41	La4	0.333330	0.666660	0.169120
Cu11	Cu1	0.500000	0.000000	0.500000
Cu21	Cu2	0.500000	0.500000	0.500000
Cu31	Cu3	0.000000	0.500000	0.500000
Cu41	Cu4	0.500000	0.000000	0.000000
Cu51	Cu5	0.000000	0.500000	0.000000
Cu61	Cu6	0.500000	0.500000	0.000000
H11	H1	0.352800	0.025600	0.423300
H21	H2	0.183300	0.863800	0.477900
H31	H3	0.255300	0.961800	0.546900
H41	H4	0.316400	0.919600	0.311500
H51	H5	0.269600	0.811700	0.373600
H61	H6	0.672800	0.647200	0.423300
H71	H7	0.680500	0.816700	0.477900
H81	H8	0.706500	0.744700	0.546900
H91	H9	0.603200	0.683600	0.311500
H101	H10	0.542100	0.730400	0.373600
H111	H11	0.974400	0.327200	0.423300
H121	H12	0.136200	0.319500	0.477900
H131	H13	0.038200	0.293500	0.546900
H141	H14	0.080400	0.396800	0.311500
H151	H15	0.188300	0.457900	0.373600
H161	H16	0.327200	0.974400	0.076700
H171	H17	0.319500	0.136200	0.022100
H181	H18	0.293500	0.038200	0.953100
H191	H19	0.396800	0.080400	0.188500
H201	H20	0.457900	0.188300	0.126400
H211	H21	0.025600	0.352800	0.076700
H221	H22	0.863800	0.183300	0.022100
H231	H23	0.961800	0.255300	0.953100
H241	H24	0.919600	0.316400	0.188500
H251	H25	0.811700	0.269600	0.126400
H261	H26	0.647200	0.672800	0.076700
H271	H27	0.816700	0.680500	0.022100
H281	H28	0.744700	0.706500	0.953100
H291	H29	0.683600	0.603200	0.188500
H301	H30	0.730400	0.542100	0.126400
H311	H31	0.647200	0.974400	0.576700
H321	H32	0.816700	0.136200	0.522100
H331	H33	0.744700	0.038200	0.453100
H341	H34	0.683600	0.080400	0.688500
H351	H35	0.730400	0.188300	0.626400
H361	H36	0.327200	0.352800	0.576700
H371	H37	0.319500	0.183300	0.522100
H381	H38	0.293500	0.255300	0.453100
H391	H39	0.396800	0.316400	0.688500
H401	H40	0.457900	0.269600	0.626400
H411	H41	0.025600	0.672800	0.576700
H421	H42	0.863800	0.680500	0.522100
H431	H43	0.961800	0.706500	0.453100
H441	H44	0.919600	0.603200	0.688500
H451	H45	0.811700	0.542100	0.626400
H461	H46	0.672800	0.025600	0.923300
H471	H47	0.680500	0.863800	0.977900
H481	H48	0.706500	0.961800	0.046900
H491	H49	0.603200	0.919600	0.811500
H501	H50	0.542100	0.811700	0.873600
H511	H51	0.974400	0.647200	0.923300
H521	H52	0.136200	0.816700	0.977900
H531	H53	0.038200	0.744700	0.046900
H541	H54	0.080400	0.683600	0.811500
H551	H55	0.188300	0.730400	0.873600
H561	H56	0.352800	0.327200	0.923300
H571	H57	0.183300	0.319500	0.977900
H581	H58	0.255300	0.293500	0.046900
H591	H59	0.316400	0.396800	0.811500
H601	H60	0.269600	0.457900	0.873600
C11	C1	0.272900	0.819900	0.565900
C21	C2	0.256300	0.904100	0.508700
C31	C3	0.334100	0.887700	0.363200
C41	C4	0.439300	0.878400	0.342900
C51	C5	0.547000	0.727100	0.565900
C61	C6	0.647800	0.743700	0.508700
C71	C7	0.553600	0.665900	0.363200
C81	C8	0.439100	0.560700	0.342900
C91	C9	0.180100	0.453000	0.565900
C101	C10	0.095900	0.352200	0.508700
C111	C11	0.112300	0.446400	0.363200
C121	C12	0.121600	0.560900	0.342900
C131	C13	0.453000	0.180100	0.934100
C141	C14	0.352200	0.095900	0.991300
C151	C15	0.446400	0.112300	0.136800
C161	C16	0.560900	0.121600	0.157100
C171	C17	0.819900	0.272900	0.934100
C181	C18	0.904100	0.256300	0.991300
C191	C19	0.887700	0.334100	0.136800
C201	C20	0.878400	0.439300	0.157100
C211	C21	0.727100	0.547000	0.934100
C221	C22	0.743700	0.647800	0.991300
C231	C23	0.665900	0.553600	0.136800
C241	C24	0.560700	0.439100	0.157100
C251	C25	0.727100	0.180100	0.434100
C261	C26	0.743700	0.095900	0.491300
C271	C27	0.665900	0.112300	0.636800
C281	C28	0.560700	0.121600	0.657100
C291	C29	0.453000	0.272900	0.434100
C301	C30	0.352200	0.256300	0.491300
C311	C31	0.446400	0.334100	0.636800
C321	C32	0.560900	0.439300	0.657100
C331	C33	0.819900	0.547000	0.434100
C341	C34	0.904100	0.647800	0.491300
C351	C35	0.887700	0.553600	0.636800
C361	C36	0.878400	0.439100	0.657100
C371	C37	0.547000	0.819900	0.065900
C381	C38	0.647800	0.904100	0.008700
C391	C39	0.553600	0.887700	0.863200
C401	C40	0.439100	0.878400	0.842900
C411	C41	0.180100	0.727100	0.065900
C421	C42	0.095900	0.743700	0.008700
C431	C43	0.112300	0.665900	0.863200
C441	C44	0.121600	0.560700	0.842900
C451	C45	0.272900	0.453000	0.065900
C461	C46	0.256300	0.352200	0.008700
C471	C47	0.334100	0.446400	0.863200
C481	C48	0.439300	0.560900	0.842900
N11	N1	0.349500	0.959900	0.442200
N21	N2	0.610400	0.650500	0.442200
N31	N3	0.040100	0.389600	0.442200
N41	N4	0.389600	0.040100	0.057800
N51	N5	0.959900	0.349500	0.057800
N61	N6	0.650500	0.610400	0.057800
N71	N7	0.650500	0.040100	0.557800
N81	N8	0.389600	0.349500	0.557800
N91	N9	0.959900	0.610400	0.557800
N101	N10	0.610400	0.959900	0.942200
N111	N11	0.040100	0.650500	0.942200
N121	N12	0.349500	0.389600	0.942200
O11	O1	0.364300	0.817000	0.556000
O21	O2	0.198700	0.759700	0.622500
O31	O3	0.523700	0.927000	0.395210
O41	O4	0.436200	0.823400	0.275900
O51	O5	0.452700	0.635700	0.556000
O61	O6	0.561000	0.801300	0.622500
O71	O7	0.403300	0.476300	0.395210
O81	O8	0.387200	0.563800	0.275900
O91	O9	0.183000	0.547300	0.556000
O101	O10	0.240300	0.439000	0.622500
O111	O11	0.073000	0.596700	0.395210
O121	O12	0.176600	0.612800	0.275900
O131	O13	0.547300	0.183000	0.944000
O141	O14	0.439000	0.240300	0.877500
O151	O15	0.596700	0.073000	0.104790
O161	O16	0.612800	0.176600	0.224100
O171	O17	0.817000	0.364300	0.944000
O181	O18	0.759700	0.198700	0.877500
O191	O19	0.927000	0.523700	0.104790
O201	O20	0.823400	0.436200	0.224100
O211	O21	0.635700	0.452700	0.944000
O221	O22	0.801300	0.561000	0.877500
O231	O23	0.476300	0.403300	0.104790
O241	O24	0.563800	0.387200	0.224100
O251	O25	0.635700	0.183000	0.444000
O261	O26	0.801300	0.240300	0.377500
O271	O27	0.476300	0.073000	0.604790
O281	O28	0.563800	0.176600	0.724100
O291	O29	0.547300	0.364300	0.444000
O301	O30	0.439000	0.198700	0.377500
O311	O31	0.596700	0.523700	0.604790
O321	O32	0.612800	0.436200	0.724100
O331	O33	0.817000	0.452700	0.444000
O341	O34	0.759700	0.561000	0.377500
O351	O35	0.927000	0.403300	0.604790
O361	O36	0.823400	0.387200	0.724100
O371	O37	0.452700	0.817000	0.056000
O381	O38	0.561000	0.759700	0.122500
O391	O39	0.403300	0.927000	0.895210
O401	O40	0.387200	0.823400	0.775900
O411	O41	0.183000	0.635700	0.056000
O421	O42	0.240300	0.801300	0.122500
O431	O43	0.073000	0.476300	0.895210
O441	O44	0.176600	0.563800	0.775900
O451	O45	0.364300	0.547300	0.056000
O461	O46	0.198700	0.439000	0.122500
O471	O47	0.523700	0.596700	0.895210
O481	O48	0.436200	0.612800	0.775900
