data_IBASUB_clean_PM
_symmetry_space_group_name_H-M	'P1'
_cell_length_a	13.410500
_cell_length_b	13.410500
_cell_length_c	14.580800
_cell_angle_alpha	90.000000
_cell_angle_beta	90.000000
_cell_angle_gamma	120.000000
_symmetry_Int_Tables_number 1

loop_
_symmetry_equiv_pos_as_xyz
'x,y,z'

loop_
_atom_site_label
_atom_site_type_symbol
_atom_site_fract_x
_atom_site_fract_y
_atom_site_fract_z
Sm11	Sm1	0.333330	0.666660	0.667860
Sm21	Sm2	0.666670	0.333340	0.832140
Sm31	Sm3	0.666670	0.333340	0.332140
Sm41	Sm4	0.333330	0.666660	0.167860
Cu11	Cu1	0.500000	0.000000	0.500000
Cu21	Cu2	0.500000	0.500000	0.500000
Cu31	Cu3	0.000000	0.500000	0.500000
Cu41	Cu4	0.500000	0.000000	0.000000
Cu51	Cu5	0.000000	0.500000	0.000000
Cu61	Cu6	0.500000	0.500000	0.000000
H11	H1	0.351200	0.023700	0.422200
H21	H2	0.181000	0.862000	0.479100
H31	H3	0.254400	0.960100	0.549800
H41	H4	0.314800	0.916700	0.308000
H51	H5	0.267900	0.808400	0.371900
H61	H6	0.672500	0.648800	0.422200
H71	H7	0.681000	0.819000	0.479100
H81	H8	0.705700	0.745600	0.549800
H91	H9	0.601900	0.685200	0.308000
H101	H10	0.540500	0.732100	0.371900
H111	H11	0.976300	0.327500	0.422200
H121	H12	0.138000	0.319000	0.479100
H131	H13	0.039900	0.294300	0.549800
H141	H14	0.083300	0.398100	0.308000
H151	H15	0.191600	0.459500	0.371900
H161	H16	0.327500	0.976300	0.077800
H171	H17	0.319000	0.138000	0.020900
H181	H18	0.294300	0.039900	0.950200
H191	H19	0.398100	0.083300	0.192000
H201	H20	0.459500	0.191600	0.128100
H211	H21	0.023700	0.351200	0.077800
H221	H22	0.862000	0.181000	0.020900
H231	H23	0.960100	0.254400	0.950200
H241	H24	0.916700	0.314800	0.192000
H251	H25	0.808400	0.267900	0.128100
H261	H26	0.648800	0.672500	0.077800
H271	H27	0.819000	0.681000	0.020900
H281	H28	0.745600	0.705700	0.950200
H291	H29	0.685200	0.601900	0.192000
H301	H30	0.732100	0.540500	0.128100
H311	H31	0.648800	0.976300	0.577800
H321	H32	0.819000	0.138000	0.520900
H331	H33	0.745600	0.039900	0.450200
H341	H34	0.685200	0.083300	0.692000
H351	H35	0.732100	0.191600	0.628100
H361	H36	0.327500	0.351200	0.577800
H371	H37	0.319000	0.181000	0.520900
H381	H38	0.294300	0.254400	0.450200
H391	H39	0.398100	0.314800	0.692000
H401	H40	0.459500	0.267900	0.628100
H411	H41	0.023700	0.672500	0.577800
H421	H42	0.862000	0.681000	0.520900
H431	H43	0.960100	0.705700	0.450200
H441	H44	0.916700	0.601900	0.692000
H451	H45	0.808400	0.540500	0.628100
H461	H46	0.672500	0.023700	0.922200
H471	H47	0.681000	0.862000	0.979100
H481	H48	0.705700	0.960100	0.049800
H491	H49	0.601900	0.916700	0.808000
H501	H50	0.540500	0.808400	0.871900
H511	H51	0.976300	0.648800	0.922200
H521	H52	0.138000	0.819000	0.979100
H531	H53	0.039900	0.745600	0.049800
H541	H54	0.083300	0.685200	0.808000
H551	H55	0.191600	0.732100	0.871900
H561	H56	0.351200	0.327500	0.922200
H571	H57	0.181000	0.319000	0.979100
H581	H58	0.254400	0.294300	0.049800
H591	H59	0.314800	0.398100	0.808000
H601	H60	0.267900	0.459500	0.871900
C11	C1	0.270900	0.816800	0.568100
C21	C2	0.254600	0.901900	0.510300
C31	C3	0.332700	0.884800	0.361100
C41	C4	0.437500	0.875700	0.340800
C51	C5	0.545900	0.729100	0.568100
C61	C6	0.647300	0.745400	0.510300
C71	C7	0.552100	0.667300	0.361100
C81	C8	0.438200	0.562500	0.340800
C91	C9	0.183200	0.454100	0.568100
C101	C10	0.098100	0.352700	0.510300
C111	C11	0.115200	0.447900	0.361100
C121	C12	0.124300	0.561800	0.340800
C131	C13	0.454100	0.183200	0.931900
C141	C14	0.352700	0.098100	0.989700
C151	C15	0.447900	0.115200	0.138900
C161	C16	0.561800	0.124300	0.159200
C171	C17	0.816800	0.270900	0.931900
C181	C18	0.901900	0.254600	0.989700
C191	C19	0.884800	0.332700	0.138900
C201	C20	0.875700	0.437500	0.159200
C211	C21	0.729100	0.545900	0.931900
C221	C22	0.745400	0.647300	0.989700
C231	C23	0.667300	0.552100	0.138900
C241	C24	0.562500	0.438200	0.159200
C251	C25	0.729100	0.183200	0.431900
C261	C26	0.745400	0.098100	0.489700
C271	C27	0.667300	0.115200	0.638900
C281	C28	0.562500	0.124300	0.659200
C291	C29	0.454100	0.270900	0.431900
C301	C30	0.352700	0.254600	0.489700
C311	C31	0.447900	0.332700	0.638900
C321	C32	0.561800	0.437500	0.659200
C331	C33	0.816800	0.545900	0.431900
C341	C34	0.901900	0.647300	0.489700
C351	C35	0.884800	0.552100	0.638900
C361	C36	0.875700	0.438200	0.659200
C371	C37	0.545900	0.816800	0.068100
C381	C38	0.647300	0.901900	0.010300
C391	C39	0.552100	0.884800	0.861100
C401	C40	0.438200	0.875700	0.840800
C411	C41	0.183200	0.729100	0.068100
C421	C42	0.098100	0.745400	0.010300
C431	C43	0.115200	0.667300	0.861100
C441	C44	0.124300	0.562500	0.840800
C451	C45	0.270900	0.454100	0.068100
C461	C46	0.254600	0.352700	0.010300
C471	C47	0.332700	0.447900	0.861100
C481	C48	0.437500	0.561800	0.840800
N11	N1	0.348500	0.958100	0.441800
N21	N2	0.609600	0.651500	0.441800
N31	N3	0.041900	0.390400	0.441800
N41	N4	0.390400	0.041900	0.058200
N51	N5	0.958100	0.348500	0.058200
N61	N6	0.651500	0.609600	0.058200
N71	N7	0.651500	0.041900	0.558200
N81	N8	0.390400	0.348500	0.558200
N91	N9	0.958100	0.609600	0.558200
N101	N10	0.609600	0.958100	0.941800
N111	N11	0.041900	0.651500	0.941800
N121	N12	0.348500	0.390400	0.941800
O11	O1	0.362300	0.813100	0.557000
O21	O2	0.196500	0.755300	0.626100
O31	O3	0.524400	0.926500	0.392900
O41	O4	0.435400	0.818600	0.272900
O51	O5	0.450800	0.637700	0.557000
O61	O6	0.558800	0.803500	0.626100
O71	O7	0.402100	0.475600	0.392900
O81	O8	0.383200	0.564600	0.272900
O91	O9	0.186900	0.549200	0.557000
O101	O10	0.244700	0.441200	0.626100
O111	O11	0.073500	0.597900	0.392900
O121	O12	0.181400	0.616800	0.272900
O131	O13	0.549200	0.186900	0.943000
O141	O14	0.441200	0.244700	0.873900
O151	O15	0.597900	0.073500	0.107100
O161	O16	0.616800	0.181400	0.227100
O171	O17	0.813100	0.362300	0.943000
O181	O18	0.755300	0.196500	0.873900
O191	O19	0.926500	0.524400	0.107100
O201	O20	0.818600	0.435400	0.227100
O211	O21	0.637700	0.450800	0.943000
O221	O22	0.803500	0.558800	0.873900
O231	O23	0.475600	0.402100	0.107100
O241	O24	0.564600	0.383200	0.227100
O251	O25	0.637700	0.186900	0.443000
O261	O26	0.803500	0.244700	0.373900
O271	O27	0.475600	0.073500	0.607100
O281	O28	0.564600	0.181400	0.727100
O291	O29	0.549200	0.362300	0.443000
O301	O30	0.441200	0.196500	0.373900
O311	O31	0.597900	0.524400	0.607100
O321	O32	0.616800	0.435400	0.727100
O331	O33	0.813100	0.450800	0.443000
O341	O34	0.755300	0.558800	0.373900
O351	O35	0.926500	0.402100	0.607100
O361	O36	0.818600	0.383200	0.727100
O371	O37	0.450800	0.813100	0.057000
O381	O38	0.558800	0.755300	0.126100
O391	O39	0.402100	0.926500	0.892900
O401	O40	0.383200	0.818600	0.772900
O411	O41	0.186900	0.637700	0.057000
O421	O42	0.244700	0.803500	0.126100
O431	O43	0.073500	0.475600	0.892900
O441	O44	0.181400	0.564600	0.772900
O451	O45	0.362300	0.549200	0.057000
O461	O46	0.196500	0.441200	0.126100
O471	O47	0.524400	0.597900	0.892900
O481	O48	0.435400	0.616800	0.772900
