data_IBEYOE_clean_PM
_symmetry_space_group_name_H-M	'P1'
_cell_length_a	12.024900
_cell_length_b	12.187300
_cell_length_c	14.868500
_cell_angle_alpha	67.916000
_cell_angle_beta	74.121000
_cell_angle_gamma	63.581000
_symmetry_Int_Tables_number 1

loop_
_symmetry_equiv_pos_as_xyz
'x,y,z'

loop_
_atom_site_label
_atom_site_type_symbol
_atom_site_fract_x
_atom_site_fract_y
_atom_site_fract_z
Cd11	Cd1	0.738410	0.665880	0.991840
Mo11	Mo1	0.263220	0.595500	0.322670
Mo21	Mo2	0.577910	0.790880	0.326460
Mo31	Mo3	0.747120	0.302930	0.333160
Mo41	Mo4	0.281050	0.798040	0.324720
Mo51	Mo5	0.528940	0.310320	0.330420
Mo61	Mo6	0.776060	0.581540	0.328960
P11	P1	0.551630	0.605960	0.215420
P21	P2	0.391710	0.008090	0.159560
P31	P3	0.937850	0.423620	0.165830
P41	P4	0.306700	0.406930	0.194290
O11	O1	0.572300	0.651400	0.106300
O21	O2	0.356000	0.147600	0.115000
O31	O3	0.913700	0.516200	0.222900
O41	O4	0.311500	0.430200	0.085500
O51	O5	0.883000	0.485400	0.071500
O61	O6	0.084600	0.359100	0.141300
O71	O7	0.897900	0.312300	0.231600
O81	O8	0.468300	0.526900	0.255100
O91	O9	0.253100	0.537000	0.214500
O101	O10	0.222800	0.332000	0.256200
O111	O11	0.618400	0.616200	0.417800
O121	O12	0.675400	0.520500	0.260900
O131	O13	0.285500	0.966600	0.221900
O141	O14	0.441000	0.329600	0.222400
O151	O15	0.498600	0.955600	0.220800
O161	O16	0.249800	0.757700	0.223300
O171	O17	0.810900	0.385400	0.402200
O181	O18	0.390300	0.832100	0.395400
O191	O19	0.347300	0.397900	0.395900
O201	O20	0.485800	0.721200	0.259100
O211	O21	0.588400	0.353000	0.419000
O221	O22	0.334400	0.623100	0.413600
O231	O23	0.674300	0.302100	0.232100
O241	O24	0.718200	0.742600	0.229000
O251	O25	0.441300	0.939600	0.076400
Cd21	Cd2	0.261590	0.334120	0.008160
Mo71	Mo7	0.736780	0.404500	0.677330
Mo81	Mo8	0.422090	0.209120	0.673540
Mo91	Mo9	0.252880	0.697070	0.666840
Mo101	Mo10	0.718950	0.201960	0.675280
Mo111	Mo11	0.471060	0.689680	0.669580
Mo121	Mo12	0.223940	0.418460	0.671040
P51	P5	0.448370	0.394040	0.784580
P61	P6	0.608290	0.991910	0.840440
P71	P7	0.062150	0.576380	0.834170
P81	P8	0.693300	0.593070	0.805710
O261	O26	0.427700	0.348600	0.893700
O271	O27	0.644000	0.852400	0.885000
O281	O28	0.086300	0.483800	0.777100
O291	O29	0.688500	0.569800	0.914500
O301	O30	0.117000	0.514600	0.928500
O311	O31	0.915400	0.640900	0.858700
O321	O32	0.102100	0.687700	0.768400
O331	O33	0.531700	0.473100	0.744900
O341	O34	0.746900	0.463000	0.785500
O351	O35	0.777200	0.668000	0.743800
O361	O36	0.381600	0.383800	0.582200
O371	O37	0.324600	0.479500	0.739100
O381	O38	0.714500	0.033400	0.778100
O391	O39	0.559000	0.670400	0.777600
O401	O40	0.501400	0.044400	0.779200
O411	O41	0.750200	0.242300	0.776700
O421	O42	0.189100	0.614600	0.597800
O431	O43	0.609700	0.167900	0.604600
O441	O44	0.652700	0.602100	0.604100
O451	O45	0.514200	0.278800	0.740900
O461	O46	0.411600	0.647000	0.581000
O471	O47	0.665600	0.376900	0.586400
O481	O48	0.325700	0.697900	0.767900
O491	O49	0.281800	0.257400	0.771000
O501	O50	0.558700	0.060400	0.923600
Cd31	Cd3	0.500000	0.500000	0.500000
