data_IBITEU_clean_PM
_symmetry_space_group_name_H-M	'P1'
_cell_length_a	26.122000
_cell_length_b	12.743600
_cell_length_c	20.789000
_cell_angle_alpha	90.000000
_cell_angle_beta	122.125000
_cell_angle_gamma	90.000000
_symmetry_Int_Tables_number 1

loop_
_symmetry_equiv_pos_as_xyz
'x,y,z'

loop_
_atom_site_label
_atom_site_type_symbol
_atom_site_fract_x
_atom_site_fract_y
_atom_site_fract_z
N11	N1	0.095050	0.017000	0.105100
N21	N2	0.194420	0.025400	0.176300
N31	N3	0.439000	0.797300	0.539100
N41	N4	0.487990	0.656300	0.539900
N51	N5	0.962250	0.079900	0.064100
N61	N6	0.914460	0.193200	0.093200
C11	C1	0.146700	0.984700	0.114100
H11	H1	0.149300	0.939000	0.081100
C21	C2	0.111900	0.082800	0.164200
H21	H2	0.085300	0.118500	0.173400
C31	C3	0.172900	0.089000	0.208300
H31	H3	0.195500	0.129200	0.251900
C41	C4	0.258400	0.006800	0.203000
H41	H4	0.276300	0.071100	0.198700
H51	H5	0.261300	0.953900	0.171500
C51	C5	0.292660	0.970500	0.285000
C61	C6	0.280500	0.876900	0.305400
C71	C7	0.310400	0.842400	0.378800
C81	C8	0.356400	0.903900	0.438200
C91	C9	0.368600	0.996300	0.416900
C101	C10	0.337400	0.030600	0.342700
C111	C11	0.389400	0.869300	0.520000
H61	H6	0.405300	0.930500	0.552500
H71	H7	0.361000	0.835100	0.529800
C121	C12	0.498900	0.816700	0.584600
H81	H8	0.516700	0.879100	0.609800
C131	C13	0.527500	0.729300	0.586400
H91	H9	0.569200	0.720000	0.615800
C141	C14	0.435400	0.701600	0.512900
H101	H10	0.398900	0.669300	0.478400
C151	C15	0.954300	0.037700	0.117300
H111	H11	0.967000	0.970900	0.137800
C161	C16	0.924700	0.107300	0.137400
H121	H12	0.914000	0.097600	0.173100
C171	C17	0.937200	0.174000	0.051000
H131	H13	0.935700	0.221200	0.016000
C181	C18	0.880900	0.287000	0.090000
H141	H14	0.890500	0.344100	0.067300
H151	H15	0.893200	0.307800	0.141100
C191	C19	0.812800	0.267600	0.043700
C201	C20	0.780800	0.251600	0.077000
C211	C21	0.781200	0.266400	0.966300
F11	F1	0.808610	0.251800	0.152820
F21	F2	0.810410	0.281000	0.928740
F31	F3	0.350630	0.124600	0.327080
F41	F4	0.411460	0.058100	0.470420
F51	F5	0.296730	0.750500	0.396400
F61	F6	0.238070	0.813100	0.251700
N71	N7	0.595050	0.517000	0.105100
N81	N8	0.694420	0.525400	0.176300
N91	N9	0.939000	0.297300	0.539100
N101	N10	0.987990	0.156300	0.539900
N111	N11	0.462250	0.579900	0.064100
N121	N12	0.414460	0.693200	0.093200
C221	C22	0.646700	0.484700	0.114100
H161	H16	0.649300	0.439000	0.081100
C231	C23	0.611900	0.582800	0.164200
H171	H17	0.585300	0.618500	0.173400
C241	C24	0.672900	0.589000	0.208300
H181	H18	0.695500	0.629200	0.251900
C251	C25	0.758400	0.506800	0.203000
H191	H19	0.776300	0.571100	0.198700
H201	H20	0.761300	0.453900	0.171500
C261	C26	0.792660	0.470500	0.285000
C271	C27	0.780500	0.376900	0.305400
C281	C28	0.810400	0.342400	0.378800
C291	C29	0.856400	0.403900	0.438200
C301	C30	0.868600	0.496300	0.416900
C311	C31	0.837400	0.530600	0.342700
C321	C32	0.889400	0.369300	0.520000
H211	H21	0.905300	0.430500	0.552500
H221	H22	0.861000	0.335100	0.529800
C331	C33	0.998900	0.316700	0.584600
H231	H23	0.016700	0.379100	0.609800
C341	C34	0.027500	0.229300	0.586400
H241	H24	0.069200	0.220000	0.615800
C351	C35	0.935400	0.201600	0.512900
H251	H25	0.898900	0.169300	0.478400
C361	C36	0.454300	0.537700	0.117300
H261	H26	0.467000	0.470900	0.137800
C371	C37	0.424700	0.607300	0.137400
H271	H27	0.414000	0.597600	0.173100
C381	C38	0.437200	0.674000	0.051000
H281	H28	0.435700	0.721200	0.016000
C391	C39	0.380900	0.787000	0.090000
H291	H29	0.390500	0.844100	0.067300
H301	H30	0.393200	0.807800	0.141100
C401	C40	0.312800	0.767600	0.043700
C411	C41	0.280800	0.751600	0.077000
C421	C42	0.281200	0.766400	0.966300
F71	F7	0.308610	0.751800	0.152820
F81	F8	0.310410	0.781000	0.928740
F91	F9	0.850630	0.624600	0.327080
F101	F10	0.911460	0.558100	0.470420
F111	F11	0.796730	0.250500	0.396400
F121	F12	0.738070	0.313100	0.251700
N131	N13	0.904950	0.017000	0.394900
N141	N14	0.805580	0.025400	0.323700
N151	N15	0.561000	0.797300	0.960900
N161	N16	0.512010	0.656300	0.960100
N171	N17	0.037750	0.079900	0.435900
N181	N18	0.085540	0.193200	0.406800
C431	C43	0.853300	0.984700	0.385900
H311	H31	0.850700	0.939000	0.418900
C441	C44	0.888100	0.082800	0.335800
H321	H32	0.914700	0.118500	0.326600
C451	C45	0.827100	0.089000	0.291700
H331	H33	0.804500	0.129200	0.248100
C461	C46	0.741600	0.006800	0.297000
H341	H34	0.723700	0.071100	0.301300
H351	H35	0.738700	0.953900	0.328500
C471	C47	0.707340	0.970500	0.215000
C481	C48	0.719500	0.876900	0.194600
C491	C49	0.689600	0.842400	0.121200
C501	C50	0.643600	0.903900	0.061800
C511	C51	0.631400	0.996300	0.083100
C521	C52	0.662600	0.030600	0.157300
C531	C53	0.610600	0.869300	0.980000
H361	H36	0.594700	0.930500	0.947500
H371	H37	0.639000	0.835100	0.970200
C541	C54	0.501100	0.816700	0.915400
H381	H38	0.483300	0.879100	0.890200
C551	C55	0.472500	0.729300	0.913600
H391	H39	0.430800	0.720000	0.884200
C561	C56	0.564600	0.701600	0.987100
H401	H40	0.601100	0.669300	0.021600
C571	C57	0.045700	0.037700	0.382700
H411	H41	0.033000	0.970900	0.362200
C581	C58	0.075300	0.107300	0.362600
H421	H42	0.086000	0.097600	0.326900
C591	C59	0.062800	0.174000	0.449000
H431	H43	0.064300	0.221200	0.484000
C601	C60	0.119100	0.287000	0.410000
H441	H44	0.109500	0.344100	0.432700
H451	H45	0.106800	0.307800	0.358900
C611	C61	0.187200	0.267600	0.456300
C621	C62	0.219200	0.251600	0.423000
C631	C63	0.218800	0.266400	0.533700
F131	F13	0.191390	0.251800	0.347180
F141	F14	0.189590	0.281000	0.571260
F151	F15	0.649370	0.124600	0.172920
F161	F16	0.588540	0.058100	0.029580
F171	F17	0.703270	0.750500	0.103600
F181	F18	0.761930	0.813100	0.248300
N191	N19	0.404950	0.517000	0.394900
N201	N20	0.305580	0.525400	0.323700
N211	N21	0.061000	0.297300	0.960900
N221	N22	0.012010	0.156300	0.960100
N231	N23	0.537750	0.579900	0.435900
N241	N24	0.585540	0.693200	0.406800
C641	C64	0.353300	0.484700	0.385900
H461	H46	0.350700	0.439000	0.418900
C651	C65	0.388100	0.582800	0.335800
H471	H47	0.414700	0.618500	0.326600
C661	C66	0.327100	0.589000	0.291700
H481	H48	0.304500	0.629200	0.248100
C671	C67	0.241600	0.506800	0.297000
H491	H49	0.223700	0.571100	0.301300
H501	H50	0.238700	0.453900	0.328500
C681	C68	0.207340	0.470500	0.215000
C691	C69	0.219500	0.376900	0.194600
C701	C70	0.189600	0.342400	0.121200
C711	C71	0.143600	0.403900	0.061800
C721	C72	0.131400	0.496300	0.083100
C731	C73	0.162600	0.530600	0.157300
C741	C74	0.110600	0.369300	0.980000
H511	H51	0.094700	0.430500	0.947500
H521	H52	0.139000	0.335100	0.970200
C751	C75	0.001100	0.316700	0.915400
H531	H53	0.983300	0.379100	0.890200
C761	C76	0.972500	0.229300	0.913600
H541	H54	0.930800	0.220000	0.884200
C771	C77	0.064600	0.201600	0.987100
H551	H55	0.101100	0.169300	0.021600
C781	C78	0.545700	0.537700	0.382700
H561	H56	0.533000	0.470900	0.362200
C791	C79	0.575300	0.607300	0.362600
H571	H57	0.586000	0.597600	0.326900
C801	C80	0.562800	0.674000	0.449000
H581	H58	0.564300	0.721200	0.484000
C811	C81	0.619100	0.787000	0.410000
H591	H59	0.609500	0.844100	0.432700
H601	H60	0.606800	0.807800	0.358900
C821	C82	0.687200	0.767600	0.456300
C831	C83	0.719200	0.751600	0.423000
C841	C84	0.718800	0.766400	0.533700
F191	F19	0.691390	0.751800	0.347180
F201	F20	0.689590	0.781000	0.571260
F211	F21	0.149370	0.624600	0.172920
F221	F22	0.088540	0.558100	0.029580
F231	F23	0.203270	0.250500	0.103600
F241	F24	0.261930	0.313100	0.248300
N251	N25	0.904950	0.983000	0.894900
N261	N26	0.805580	0.974600	0.823700
N271	N27	0.561000	0.202700	0.460900
N281	N28	0.512010	0.343700	0.460100
N291	N29	0.037750	0.920100	0.935900
N301	N30	0.085540	0.806800	0.906800
C851	C85	0.853300	0.015300	0.885900
H611	H61	0.850700	0.061000	0.918900
C861	C86	0.888100	0.917200	0.835800
H621	H62	0.914700	0.881500	0.826600
C871	C87	0.827100	0.911000	0.791700
H631	H63	0.804500	0.870800	0.748100
C881	C88	0.741600	0.993200	0.797000
H641	H64	0.723700	0.928900	0.801300
H651	H65	0.738700	0.046100	0.828500
C891	C89	0.707340	0.029500	0.715000
C901	C90	0.719500	0.123100	0.694600
C911	C91	0.689600	0.157600	0.621200
C921	C92	0.643600	0.096100	0.561800
C931	C93	0.631400	0.003700	0.583100
C941	C94	0.662600	0.969400	0.657300
C951	C95	0.610600	0.130700	0.480000
H661	H66	0.594700	0.069500	0.447500
H671	H67	0.639000	0.164900	0.470200
C961	C96	0.501100	0.183300	0.415400
H681	H68	0.483300	0.120900	0.390200
C971	C97	0.472500	0.270700	0.413600
H691	H69	0.430800	0.280000	0.384200
C981	C98	0.564600	0.298400	0.487100
H701	H70	0.601100	0.330700	0.521600
C991	C99	0.045700	0.962300	0.882700
H711	H71	0.033000	0.029100	0.862200
C1001	C100	0.075300	0.892700	0.862600
H721	H72	0.086000	0.902400	0.826900
C1011	C101	0.062800	0.826000	0.949000
H731	H73	0.064300	0.778800	0.984000
C1021	C102	0.119100	0.713000	0.910000
H741	H74	0.109500	0.655900	0.932700
H751	H75	0.106800	0.692200	0.858900
C1031	C103	0.187200	0.732400	0.956300
C1041	C104	0.219200	0.748400	0.923000
C1051	C105	0.218800	0.733600	0.033700
F251	F25	0.191390	0.748200	0.847180
F261	F26	0.189590	0.719000	0.071260
F271	F27	0.649370	0.875400	0.672920
F281	F28	0.588540	0.941900	0.529580
F291	F29	0.703270	0.249500	0.603600
F301	F30	0.761930	0.186900	0.748300
N311	N31	0.404950	0.483000	0.894900
N321	N32	0.305580	0.474600	0.823700
N331	N33	0.061000	0.702700	0.460900
N341	N34	0.012010	0.843700	0.460100
N351	N35	0.537750	0.420100	0.935900
N361	N36	0.585540	0.306800	0.906800
C1061	C106	0.353300	0.515300	0.885900
H761	H76	0.350700	0.561000	0.918900
C1071	C107	0.388100	0.417200	0.835800
H771	H77	0.414700	0.381500	0.826600
C1081	C108	0.327100	0.411000	0.791700
H781	H78	0.304500	0.370800	0.748100
C1091	C109	0.241600	0.493200	0.797000
H791	H79	0.223700	0.428900	0.801300
H801	H80	0.238700	0.546100	0.828500
C1101	C110	0.207340	0.529500	0.715000
C1111	C111	0.219500	0.623100	0.694600
C1121	C112	0.189600	0.657600	0.621200
C1131	C113	0.143600	0.596100	0.561800
C1141	C114	0.131400	0.503700	0.583100
C1151	C115	0.162600	0.469400	0.657300
C1161	C116	0.110600	0.630700	0.480000
H811	H81	0.094700	0.569500	0.447500
H821	H82	0.139000	0.664900	0.470200
C1171	C117	0.001100	0.683300	0.415400
H831	H83	0.983300	0.620900	0.390200
C1181	C118	0.972500	0.770700	0.413600
H841	H84	0.930800	0.780000	0.384200
C1191	C119	0.064600	0.798400	0.487100
H851	H85	0.101100	0.830700	0.521600
C1201	C120	0.545700	0.462300	0.882700
H861	H86	0.533000	0.529100	0.862200
C1211	C121	0.575300	0.392700	0.862600
H871	H87	0.586000	0.402400	0.826900
C1221	C122	0.562800	0.326000	0.949000
H881	H88	0.564300	0.278800	0.984000
C1231	C123	0.619100	0.213000	0.910000
H891	H89	0.609500	0.155900	0.932700
H901	H90	0.606800	0.192200	0.858900
C1241	C124	0.687200	0.232400	0.956300
C1251	C125	0.719200	0.248400	0.923000
C1261	C126	0.718800	0.233600	0.033700
F311	F31	0.691390	0.248200	0.847180
F321	F32	0.689590	0.219000	0.071260
F331	F33	0.149370	0.375400	0.672920
F341	F34	0.088540	0.441900	0.529580
F351	F35	0.203270	0.749500	0.603600
F361	F36	0.261930	0.686900	0.748300
N371	N37	0.095050	0.983000	0.605100
N381	N38	0.194420	0.974600	0.676300
N391	N39	0.439000	0.202700	0.039100
N401	N40	0.487990	0.343700	0.039900
N411	N41	0.962250	0.920100	0.564100
N421	N42	0.914460	0.806800	0.593200
C1271	C127	0.146700	0.015300	0.614100
H911	H91	0.149300	0.061000	0.581100
C1281	C128	0.111900	0.917200	0.664200
H921	H92	0.085300	0.881500	0.673400
C1291	C129	0.172900	0.911000	0.708300
H931	H93	0.195500	0.870800	0.751900
C1301	C130	0.258400	0.993200	0.703000
H941	H94	0.276300	0.928900	0.698700
H951	H95	0.261300	0.046100	0.671500
C1311	C131	0.292660	0.029500	0.785000
C1321	C132	0.280500	0.123100	0.805400
C1331	C133	0.310400	0.157600	0.878800
C1341	C134	0.356400	0.096100	0.938200
C1351	C135	0.368600	0.003700	0.916900
C1361	C136	0.337400	0.969400	0.842700
C1371	C137	0.389400	0.130700	0.020000
H961	H96	0.405300	0.069500	0.052500
H971	H97	0.361000	0.164900	0.029800
C1381	C138	0.498900	0.183300	0.084600
H981	H98	0.516700	0.120900	0.109800
C1391	C139	0.527500	0.270700	0.086400
H991	H99	0.569200	0.280000	0.115800
C1401	C140	0.435400	0.298400	0.012900
H1001	H100	0.398900	0.330700	0.978400
C1411	C141	0.954300	0.962300	0.617300
H1011	H101	0.967000	0.029100	0.637800
C1421	C142	0.924700	0.892700	0.637400
H1021	H102	0.914000	0.902400	0.673100
C1431	C143	0.937200	0.826000	0.551000
H1031	H103	0.935700	0.778800	0.516000
C1441	C144	0.880900	0.713000	0.590000
H1041	H104	0.890500	0.655900	0.567300
H1051	H105	0.893200	0.692200	0.641100
C1451	C145	0.812800	0.732400	0.543700
C1461	C146	0.780800	0.748400	0.577000
C1471	C147	0.781200	0.733600	0.466300
F371	F37	0.808610	0.748200	0.652820
F381	F38	0.810410	0.719000	0.428740
F391	F39	0.350630	0.875400	0.827080
F401	F40	0.411460	0.941900	0.970420
F411	F41	0.296730	0.249500	0.896400
F421	F42	0.238070	0.186900	0.751700
N431	N43	0.595050	0.483000	0.605100
N441	N44	0.694420	0.474600	0.676300
N451	N45	0.939000	0.702700	0.039100
N461	N46	0.987990	0.843700	0.039900
N471	N47	0.462250	0.420100	0.564100
N481	N48	0.414460	0.306800	0.593200
C1481	C148	0.646700	0.515300	0.614100
H1061	H106	0.649300	0.561000	0.581100
C1491	C149	0.611900	0.417200	0.664200
H1071	H107	0.585300	0.381500	0.673400
C1501	C150	0.672900	0.411000	0.708300
H1081	H108	0.695500	0.370800	0.751900
C1511	C151	0.758400	0.493200	0.703000
H1091	H109	0.776300	0.428900	0.698700
H1101	H110	0.761300	0.546100	0.671500
C1521	C152	0.792660	0.529500	0.785000
C1531	C153	0.780500	0.623100	0.805400
C1541	C154	0.810400	0.657600	0.878800
C1551	C155	0.856400	0.596100	0.938200
C1561	C156	0.868600	0.503700	0.916900
C1571	C157	0.837400	0.469400	0.842700
C1581	C158	0.889400	0.630700	0.020000
H1111	H111	0.905300	0.569500	0.052500
H1121	H112	0.861000	0.664900	0.029800
C1591	C159	0.998900	0.683300	0.084600
H1131	H113	0.016700	0.620900	0.109800
C1601	C160	0.027500	0.770700	0.086400
H1141	H114	0.069200	0.780000	0.115800
C1611	C161	0.935400	0.798400	0.012900
H1151	H115	0.898900	0.830700	0.978400
C1621	C162	0.454300	0.462300	0.617300
H1161	H116	0.467000	0.529100	0.637800
C1631	C163	0.424700	0.392700	0.637400
H1171	H117	0.414000	0.402400	0.673100
C1641	C164	0.437200	0.326000	0.551000
H1181	H118	0.435700	0.278800	0.516000
C1651	C165	0.380900	0.213000	0.590000
H1191	H119	0.390500	0.155900	0.567300
H1201	H120	0.393200	0.192200	0.641100
C1661	C166	0.312800	0.232400	0.543700
C1671	C167	0.280800	0.248400	0.577000
C1681	C168	0.281200	0.233600	0.466300
F431	F43	0.308610	0.248200	0.652820
F441	F44	0.310410	0.219000	0.428740
F451	F45	0.850630	0.375400	0.827080
F461	F46	0.911460	0.441900	0.970420
F471	F47	0.796730	0.749500	0.896400
F481	F48	0.738070	0.686900	0.751700
Mn11	Mn1	0.000000	0.000000	0.000000
Mn21	Mn2	0.500000	0.500000	0.000000
Mn31	Mn3	0.000000	0.000000	0.500000
Mn41	Mn4	0.500000	0.500000	0.500000
