data_IBOTOI_clean_PM
_symmetry_space_group_name_H-M	'P1'
_cell_length_a	17.570500
_cell_length_b	18.571000
_cell_length_c	13.335500
_cell_angle_alpha	90.000000
_cell_angle_beta	90.000000
_cell_angle_gamma	90.000000
_symmetry_Int_Tables_number 1

loop_
_symmetry_equiv_pos_as_xyz
'x,y,z'

loop_
_atom_site_label
_atom_site_type_symbol
_atom_site_fract_x
_atom_site_fract_y
_atom_site_fract_z
O11	O1	0.131340	0.992280	0.108830
O21	O2	0.012380	0.874610	0.992660
O31	O3	0.908490	0.983400	0.901300
O41	O4	0.015950	0.086920	0.193800
N11	N1	0.184540	0.942260	0.092200
N21	N2	0.960810	0.822920	0.981900
N31	N3	0.910700	0.963090	0.806500
N41	N4	0.036020	0.085580	0.289300
C11	C1	0.256800	0.963600	0.076200
H11	H1	0.268800	0.013400	0.074500
C21	C2	0.312800	0.913400	0.062600
H21	H2	0.363900	0.928900	0.053500
C31	C3	0.296600	0.841000	0.061900
C41	C4	0.220700	0.821000	0.078600
H31	H3	0.206700	0.771500	0.078600
C51	C5	0.167000	0.872700	0.094700
H41	H4	0.116000	0.858700	0.108000
C61	C6	0.980600	0.761700	0.935500
H51	H5	0.031300	0.755800	0.912300
C71	C7	0.929000	0.707700	0.920800
H61	H6	0.944400	0.664400	0.888600
C81	C8	0.354200	0.784400	0.047300
C91	C9	0.336300	0.721400	0.998400
H71	H7	0.286100	0.714800	0.973500
C101	C10	0.889100	0.832000	0.015400
H81	H8	0.875200	0.875400	0.048500
C111	C11	0.966700	0.919700	0.771400
H91	H9	0.002600	0.899700	0.816800
C121	C12	0.972100	0.904200	0.671300
H101	H10	0.011600	0.873500	0.648300
C131	C13	0.920500	0.932700	0.602600
C141	C14	0.860400	0.973400	0.641900
H111	H11	0.821800	0.991200	0.598400
C151	C15	0.856500	0.988000	0.743100
H121	H12	0.815500	0.015800	0.768700
C161	C16	0.005600	0.133430	0.352700
H131	H13	0.972900	0.170100	0.327800
C171	C17	0.021200	0.129900	0.453700
H141	H14	0.999400	0.164500	0.497600
C181	C18	0.931100	0.923800	0.493000
C191	C19	0.897800	0.969800	0.424100
H151	H15	0.863000	0.005500	0.446700
C201	C20	0.085900	0.035200	0.323100
H161	H16	0.109500	0.003200	0.277000
O51	O5	0.868660	0.007720	0.108830
O61	O6	0.987620	0.125390	0.992660
O71	O7	0.091510	0.016600	0.901300
O81	O8	0.984050	0.913080	0.193800
N51	N5	0.815460	0.057740	0.092200
N61	N6	0.039190	0.177080	0.981900
N71	N7	0.089300	0.036910	0.806500
N81	N8	0.963980	0.914420	0.289300
C211	C21	0.743200	0.036400	0.076200
H171	H17	0.731200	0.986600	0.074500
C221	C22	0.687200	0.086600	0.062600
H181	H18	0.636100	0.071100	0.053500
C231	C23	0.703400	0.159000	0.061900
C241	C24	0.779300	0.179000	0.078600
H191	H19	0.793300	0.228500	0.078600
C251	C25	0.833000	0.127300	0.094700
H201	H20	0.884000	0.141300	0.108000
C261	C26	0.019400	0.238300	0.935500
H211	H21	0.968700	0.244200	0.912300
C271	C27	0.071000	0.292300	0.920800
H221	H22	0.055600	0.335600	0.888600
C281	C28	0.645800	0.215600	0.047300
C291	C29	0.663700	0.278600	0.998400
H231	H23	0.713900	0.285200	0.973500
C301	C30	0.110900	0.168000	0.015400
H241	H24	0.124800	0.124600	0.048500
C311	C31	0.033300	0.080300	0.771400
H251	H25	0.997400	0.100300	0.816800
C321	C32	0.027900	0.095800	0.671300
H261	H26	0.988400	0.126500	0.648300
C331	C33	0.079500	0.067300	0.602600
C341	C34	0.139600	0.026600	0.641900
H271	H27	0.178200	0.008800	0.598400
C351	C35	0.143500	0.012000	0.743100
H281	H28	0.184500	0.984200	0.768700
C361	C36	0.994400	0.866570	0.352700
H291	H29	0.027100	0.829900	0.327800
C371	C37	0.978800	0.870100	0.453700
H301	H30	0.000600	0.835500	0.497600
C381	C38	0.068900	0.076200	0.493000
C391	C39	0.102200	0.030200	0.424100
H311	H31	0.137000	0.994500	0.446700
C401	C40	0.914100	0.964800	0.323100
H321	H32	0.890500	0.996800	0.277000
O91	O9	0.368660	0.492280	0.891170
O101	O10	0.487620	0.374610	0.007340
O111	O11	0.591510	0.483400	0.098700
O121	O12	0.484050	0.586920	0.806200
N91	N9	0.315460	0.442260	0.907800
N101	N10	0.539190	0.322920	0.018100
N111	N11	0.589300	0.463090	0.193500
N121	N12	0.463980	0.585580	0.710700
C411	C41	0.243200	0.463600	0.923800
H331	H33	0.231200	0.513400	0.925500
C421	C42	0.187200	0.413400	0.937400
H341	H34	0.136100	0.428900	0.946500
C431	C43	0.203400	0.341000	0.938100
C441	C44	0.279300	0.321000	0.921400
H351	H35	0.293300	0.271500	0.921400
C451	C45	0.333000	0.372700	0.905300
H361	H36	0.384000	0.358700	0.892000
C461	C46	0.519400	0.261700	0.064500
H371	H37	0.468700	0.255800	0.087700
C471	C47	0.571000	0.207700	0.079200
H381	H38	0.555600	0.164400	0.111400
C481	C48	0.145800	0.284400	0.952700
C491	C49	0.163700	0.221400	0.001600
H391	H39	0.213900	0.214800	0.026500
C501	C50	0.610900	0.332000	0.984600
H401	H40	0.624800	0.375400	0.951500
C511	C51	0.533300	0.419700	0.228600
H411	H41	0.497400	0.399700	0.183200
C521	C52	0.527900	0.404200	0.328700
H421	H42	0.488400	0.373500	0.351700
C531	C53	0.579500	0.432700	0.397400
C541	C54	0.639600	0.473400	0.358100
H431	H43	0.678200	0.491200	0.401600
C551	C55	0.643500	0.488000	0.256900
H441	H44	0.684500	0.515800	0.231300
C561	C56	0.494400	0.633430	0.647300
H451	H45	0.527100	0.670100	0.672200
C571	C57	0.478800	0.629900	0.546300
H461	H46	0.500600	0.664500	0.502400
C581	C58	0.568900	0.423800	0.507000
C591	C59	0.602200	0.469800	0.575900
H471	H47	0.637000	0.505500	0.553300
C601	C60	0.414100	0.535200	0.676900
H481	H48	0.390500	0.503200	0.723000
O131	O13	0.631340	0.507720	0.891170
O141	O14	0.512380	0.625390	0.007340
O151	O15	0.408490	0.516600	0.098700
O161	O16	0.515950	0.413080	0.806200
N131	N13	0.684540	0.557740	0.907800
N141	N14	0.460810	0.677080	0.018100
N151	N15	0.410700	0.536910	0.193500
N161	N16	0.536020	0.414420	0.710700
C611	C61	0.756800	0.536400	0.923800
H491	H49	0.768800	0.486600	0.925500
C621	C62	0.812800	0.586600	0.937400
H501	H50	0.863900	0.571100	0.946500
C631	C63	0.796600	0.659000	0.938100
C641	C64	0.720700	0.679000	0.921400
H511	H51	0.706700	0.728500	0.921400
C651	C65	0.667000	0.627300	0.905300
H521	H52	0.616000	0.641300	0.892000
C661	C66	0.480600	0.738300	0.064500
H531	H53	0.531300	0.744200	0.087700
C671	C67	0.429000	0.792300	0.079200
H541	H54	0.444400	0.835600	0.111400
C681	C68	0.854200	0.715600	0.952700
C691	C69	0.836300	0.778600	0.001600
H551	H55	0.786100	0.785200	0.026500
C701	C70	0.389100	0.668000	0.984600
H561	H56	0.375200	0.624600	0.951500
C711	C71	0.466700	0.580300	0.228600
H571	H57	0.502600	0.600300	0.183200
C721	C72	0.472100	0.595800	0.328700
H581	H58	0.511600	0.626500	0.351700
C731	C73	0.420500	0.567300	0.397400
C741	C74	0.360400	0.526600	0.358100
H591	H59	0.321800	0.508800	0.401600
C751	C75	0.356500	0.512000	0.256900
H601	H60	0.315500	0.484200	0.231300
C761	C76	0.505600	0.366570	0.647300
H611	H61	0.472900	0.329900	0.672200
C771	C77	0.521200	0.370100	0.546300
H621	H62	0.499400	0.335500	0.502400
C781	C78	0.431100	0.576200	0.507000
C791	C79	0.397800	0.530200	0.575900
H631	H63	0.363000	0.494500	0.553300
C801	C80	0.585900	0.464800	0.676900
H641	H64	0.609500	0.496800	0.723000
La11	La1	0.000000	0.000000	0.046480
La21	La2	0.500000	0.500000	0.953520
