data_IBOTIC_clean_PM
_symmetry_space_group_name_H-M	'P1'
_cell_length_a	13.224200
_cell_length_b	38.366000
_cell_length_c	13.251500
_cell_angle_alpha	90.000000
_cell_angle_beta	99.752000
_cell_angle_gamma	90.000000
_symmetry_Int_Tables_number 1

loop_
_symmetry_equiv_pos_as_xyz
'x,y,z'

loop_
_atom_site_label
_atom_site_type_symbol
_atom_site_fract_x
_atom_site_fract_y
_atom_site_fract_z
La11	La1	0.240870	0.374950	0.728590
O11	O1	0.314900	0.435330	0.767700
O21	O2	0.228200	0.312300	0.681900
O31	O3	0.809400	0.595570	0.440900
O41	O4	0.557800	0.139420	0.156500
O51	O5	0.379200	0.367820	0.622900
O61	O6	0.404600	0.364640	0.840200
O71	O7	0.219300	0.343390	0.886300
O81	O8	0.118800	0.410620	0.810800
N11	N1	0.263000	0.463770	0.731000
N21	N2	0.274100	0.287290	0.743900
N31	N3	0.892400	0.579530	0.488800
N41	N4	0.514000	0.162900	0.088800
N51	N5	0.364500	0.364700	0.521700
N61	N6	0.503200	0.370980	0.837500
N71	N7	0.246500	0.347820	0.987100
N81	N8	0.022000	0.404010	0.823300
C11	C1	0.200700	0.479700	0.784800
H11	H1	0.199700	0.472600	0.853300
C21	C2	0.138000	0.506220	0.743400
H21	H2	0.094500	0.517300	0.783800
C31	C3	0.136700	0.517040	0.644000
C41	C4	0.208400	0.501840	0.592500
H31	H3	0.213600	0.509700	0.525600
C51	C5	0.272500	0.475390	0.636600
H41	H4	0.322400	0.465600	0.601200
C61	C6	0.216400	0.267740	0.796400
H51	H5	0.144400	0.271400	0.787500
C71	C7	0.261200	0.242360	0.862800
H61	H6	0.220500	0.228900	0.900900
C81	C8	0.367200	0.236530	0.873800
C91	C9	0.422300	0.256860	0.817600
H71	H7	0.494100	0.253300	0.823200
C101	C10	0.375700	0.282290	0.753400
H81	H8	0.415200	0.296300	0.715700
C111	C11	0.957800	0.564070	0.435700
H91	H9	0.947400	0.566400	0.363300
C121	C12	0.039000	0.545070	0.484300
H101	H10	0.084500	0.534600	0.445000
C131	C13	0.056600	0.540750	0.589900
C141	C14	0.990000	0.558590	0.643100
H111	H11	0.000800	0.557700	0.715800
C151	C15	0.908900	0.577360	0.591500
H121	H12	0.863700	0.589000	0.628900
C161	C16	0.552900	0.169180	0.003700
H131	H13	0.612900	0.157200	0.992400
C171	C17	0.506900	0.192650	0.932800
H141	H14	0.535000	0.196800	0.872500
C181	C18	0.419500	0.210420	0.948400
C191	C19	0.380900	0.202900	0.037700
H151	H15	0.320100	0.214000	0.050300
C201	C20	0.430400	0.179560	0.107100
H161	H16	0.405000	0.175200	0.168800
C211	C21	0.329900	0.334430	0.478900
H171	H17	0.318900	0.315200	0.521000
C221	C22	0.310000	0.330950	0.373300
H181	H18	0.285700	0.309300	0.343700
C231	C23	0.325100	0.358580	0.310400
C241	C24	0.363300	0.388930	0.358100
H191	H19	0.376700	0.408300	0.317900
C251	C25	0.382200	0.391580	0.463400
H201	H20	0.408100	0.412800	0.494600
C261	C26	0.573900	0.347790	0.880300
H211	H21	0.552900	0.327000	0.909900
C271	C27	0.677200	0.354020	0.881200
H221	H22	0.726600	0.337500	0.911700
C281	C28	0.709100	0.383920	0.838500
C291	C29	0.633200	0.407040	0.793900
H231	H23	0.652200	0.427900	0.763200
C301	C30	0.531800	0.400170	0.793600
H241	H24	0.481100	0.416100	0.762200
C311	C31	0.296000	0.377030	0.027400
H251	H25	0.312400	0.394900	0.983100
C321	C32	0.322400	0.380920	0.131000
H261	H26	0.356800	0.401500	0.158100
C331	C33	0.299500	0.355130	0.197300
C341	C34	0.248800	0.325750	0.152600
H271	H27	0.231700	0.307500	0.195000
C351	C35	0.223200	0.322760	0.048600
H281	H28	0.188200	0.302500	0.019800
C361	C36	0.995300	0.372660	0.854100
H291	H29	0.045900	0.355100	0.871700
C371	C37	0.892500	0.365750	0.860300
H301	H30	0.873600	0.343300	0.881200
C381	C38	0.818400	0.391170	0.836300
C391	C39	0.852400	0.423430	0.809100
H311	H31	0.804400	0.442000	0.795000
C401	C40	0.952600	0.429430	0.802000
H321	H32	0.973200	0.451800	0.781900
La21	La2	0.259130	0.874950	0.771410
O91	O9	0.185100	0.935330	0.732300
O101	O10	0.271800	0.812300	0.818100
O111	O11	0.690600	0.095570	0.059100
O121	O12	0.942200	0.639420	0.343500
O131	O13	0.120800	0.867820	0.877100
O141	O14	0.095400	0.864640	0.659800
O151	O15	0.280700	0.843390	0.613700
O161	O16	0.381200	0.910620	0.689200
N91	N9	0.237000	0.963770	0.769000
N101	N10	0.225900	0.787290	0.756100
N111	N11	0.607600	0.079530	0.011200
N121	N12	0.986000	0.662900	0.411200
N131	N13	0.135500	0.864700	0.978300
N141	N14	0.996800	0.870980	0.662500
N151	N15	0.253500	0.847820	0.512900
N161	N16	0.478000	0.904010	0.676700
C411	C41	0.299300	0.979700	0.715200
H331	H33	0.300300	0.972600	0.646700
C421	C42	0.362000	0.006220	0.756600
H341	H34	0.405500	0.017300	0.716200
C431	C43	0.363300	0.017040	0.856000
C441	C44	0.291600	0.001840	0.907500
H351	H35	0.286400	0.009700	0.974400
C451	C45	0.227500	0.975390	0.863400
H361	H36	0.177600	0.965600	0.898800
C461	C46	0.283600	0.767740	0.703600
H371	H37	0.355600	0.771400	0.712500
C471	C47	0.238800	0.742360	0.637200
H381	H38	0.279500	0.728900	0.599100
C481	C48	0.132800	0.736530	0.626200
C491	C49	0.077700	0.756860	0.682400
H391	H39	0.005900	0.753300	0.676800
C501	C50	0.124300	0.782290	0.746600
H401	H40	0.084800	0.796300	0.784300
C511	C51	0.542200	0.064070	0.064300
H411	H41	0.552600	0.066400	0.136700
C521	C52	0.461000	0.045070	0.015700
H421	H42	0.415500	0.034600	0.055000
C531	C53	0.443400	0.040750	0.910100
C541	C54	0.510000	0.058590	0.856900
H431	H43	0.499200	0.057700	0.784200
C551	C55	0.591100	0.077360	0.908500
H441	H44	0.636300	0.089000	0.871100
C561	C56	0.947100	0.669180	0.496300
H451	H45	0.887100	0.657200	0.507600
C571	C57	0.993100	0.692650	0.567200
H461	H46	0.965000	0.696800	0.627500
C581	C58	0.080500	0.710420	0.551600
C591	C59	0.119100	0.702900	0.462300
H471	H47	0.179900	0.714000	0.449700
C601	C60	0.069600	0.679560	0.392900
H481	H48	0.095000	0.675200	0.331200
C611	C61	0.170100	0.834430	0.021100
H491	H49	0.181100	0.815200	0.979000
C621	C62	0.190000	0.830950	0.126700
H501	H50	0.214300	0.809300	0.156300
C631	C63	0.174900	0.858580	0.189600
C641	C64	0.136700	0.888930	0.141900
H511	H51	0.123300	0.908300	0.182100
C651	C65	0.117800	0.891580	0.036600
H521	H52	0.091900	0.912800	0.005400
C661	C66	0.926100	0.847790	0.619700
H531	H53	0.947100	0.827000	0.590100
C671	C67	0.822800	0.854020	0.618800
H541	H54	0.773400	0.837500	0.588300
C681	C68	0.790900	0.883920	0.661500
C691	C69	0.866800	0.907040	0.706100
H551	H55	0.847800	0.927900	0.736800
C701	C70	0.968200	0.900170	0.706400
H561	H56	0.018900	0.916100	0.737800
C711	C71	0.204000	0.877030	0.472600
H571	H57	0.187600	0.894900	0.516900
C721	C72	0.177600	0.880920	0.369000
H581	H58	0.143200	0.901500	0.341900
C731	C73	0.200500	0.855130	0.302700
C741	C74	0.251200	0.825750	0.347400
H591	H59	0.268300	0.807500	0.305000
C751	C75	0.276800	0.822760	0.451400
H601	H60	0.311800	0.802500	0.480200
C761	C76	0.504700	0.872660	0.645900
H611	H61	0.454100	0.855100	0.628300
C771	C77	0.607500	0.865750	0.639700
H621	H62	0.626400	0.843300	0.618800
C781	C78	0.681600	0.891170	0.663700
C791	C79	0.647600	0.923430	0.690900
H631	H63	0.695600	0.942000	0.705000
C801	C80	0.547400	0.929430	0.698000
H641	H64	0.526800	0.951800	0.718100
La31	La3	0.759130	0.625050	0.271410
O171	O17	0.685100	0.564670	0.232300
O181	O18	0.771800	0.687700	0.318100
O191	O19	0.190600	0.404430	0.559100
O201	O20	0.442200	0.860580	0.843500
O211	O21	0.620800	0.632180	0.377100
O221	O22	0.595400	0.635360	0.159800
O231	O23	0.780700	0.656610	0.113700
O241	O24	0.881200	0.589380	0.189200
N171	N17	0.737000	0.536230	0.269000
N181	N18	0.725900	0.712710	0.256100
N191	N19	0.107600	0.420470	0.511200
N201	N20	0.486000	0.837100	0.911200
N211	N21	0.635500	0.635300	0.478300
N221	N22	0.496800	0.629020	0.162500
N231	N23	0.753500	0.652180	0.012900
N241	N24	0.978000	0.595990	0.176700
C811	C81	0.799300	0.520300	0.215200
H651	H65	0.800300	0.527400	0.146700
C821	C82	0.862000	0.493780	0.256600
H661	H66	0.905500	0.482700	0.216200
C831	C83	0.863300	0.482960	0.356000
C841	C84	0.791600	0.498160	0.407500
H671	H67	0.786400	0.490300	0.474400
C851	C85	0.727500	0.524610	0.363400
H681	H68	0.677600	0.534400	0.398800
C861	C86	0.783600	0.732260	0.203600
H691	H69	0.855600	0.728600	0.212500
C871	C87	0.738800	0.757640	0.137200
H701	H70	0.779500	0.771100	0.099100
C881	C88	0.632800	0.763470	0.126200
C891	C89	0.577700	0.743140	0.182400
H711	H71	0.505900	0.746700	0.176800
C901	C90	0.624300	0.717710	0.246600
H721	H72	0.584800	0.703700	0.284300
C911	C91	0.042200	0.435930	0.564300
H731	H73	0.052600	0.433600	0.636700
C921	C92	0.961000	0.454930	0.515700
H741	H74	0.915500	0.465400	0.555000
C931	C93	0.943400	0.459250	0.410100
C941	C94	0.010000	0.441410	0.356900
H751	H75	0.999200	0.442300	0.284200
C951	C95	0.091100	0.422640	0.408500
H761	H76	0.136300	0.411000	0.371100
C961	C96	0.447100	0.830820	0.996300
H771	H77	0.387100	0.842800	0.007600
C971	C97	0.493100	0.807350	0.067200
H781	H78	0.465000	0.803200	0.127500
C981	C98	0.580500	0.789580	0.051600
C991	C99	0.619100	0.797100	0.962300
H791	H79	0.679900	0.786000	0.949700
C1001	C100	0.569600	0.820440	0.892900
H801	H80	0.595000	0.824800	0.831200
C1011	C101	0.670100	0.665570	0.521100
H811	H81	0.681100	0.684800	0.479000
C1021	C102	0.690000	0.669050	0.626700
H821	H82	0.714300	0.690700	0.656300
C1031	C103	0.674900	0.641420	0.689600
C1041	C104	0.636700	0.611070	0.641900
H831	H83	0.623300	0.591700	0.682100
C1051	C105	0.617800	0.608420	0.536600
H841	H84	0.591900	0.587200	0.505400
C1061	C106	0.426100	0.652210	0.119700
H851	H85	0.447100	0.673000	0.090100
C1071	C107	0.322800	0.645980	0.118800
H861	H86	0.273400	0.662500	0.088300
C1081	C108	0.290900	0.616080	0.161500
C1091	C109	0.366800	0.592960	0.206100
H871	H87	0.347800	0.572100	0.236800
C1101	C110	0.468200	0.599830	0.206400
H881	H88	0.518900	0.583900	0.237800
C1111	C111	0.704000	0.622970	0.972600
H891	H89	0.687600	0.605100	0.016900
C1121	C112	0.677600	0.619080	0.869000
H901	H90	0.643200	0.598500	0.841900
C1131	C113	0.700500	0.644870	0.802700
C1141	C114	0.751200	0.674250	0.847400
H911	H91	0.768300	0.692500	0.805000
C1151	C115	0.776800	0.677240	0.951400
H921	H92	0.811800	0.697500	0.980200
C1161	C116	0.004700	0.627340	0.145900
H931	H93	0.954100	0.644900	0.128300
C1171	C117	0.107500	0.634250	0.139700
H941	H94	0.126400	0.656700	0.118800
C1181	C118	0.181600	0.608830	0.163700
C1191	C119	0.147600	0.576570	0.190900
H951	H95	0.195600	0.558000	0.205000
C1201	C120	0.047400	0.570570	0.198000
H961	H96	0.026800	0.548200	0.218100
La41	La4	0.740870	0.125050	0.228590
O251	O25	0.814900	0.064670	0.267700
O261	O26	0.728200	0.187700	0.181900
O271	O27	0.309400	0.904430	0.940900
O281	O28	0.057800	0.360580	0.656500
O291	O29	0.879200	0.132180	0.122900
O301	O30	0.904600	0.135360	0.340200
O311	O31	0.719300	0.156610	0.386300
O321	O32	0.618800	0.089380	0.310800
N251	N25	0.763000	0.036230	0.231000
N261	N26	0.774100	0.212710	0.243900
N271	N27	0.392400	0.920470	0.988800
N281	N28	0.014000	0.337100	0.588800
N291	N29	0.864500	0.135300	0.021700
N301	N30	0.003200	0.129020	0.337500
N311	N31	0.746500	0.152180	0.487100
N321	N32	0.522000	0.095990	0.323300
C1211	C121	0.700700	0.020300	0.284800
H971	H97	0.699700	0.027400	0.353300
C1221	C122	0.638000	0.993780	0.243400
H981	H98	0.594500	0.982700	0.283800
C1231	C123	0.636700	0.982960	0.144000
C1241	C124	0.708400	0.998160	0.092500
H991	H99	0.713600	0.990300	0.025600
C1251	C125	0.772500	0.024610	0.136600
H1001	H100	0.822400	0.034400	0.101200
C1261	C126	0.716400	0.232260	0.296400
H1011	H101	0.644400	0.228600	0.287500
C1271	C127	0.761200	0.257640	0.362800
H1021	H102	0.720500	0.271100	0.400900
C1281	C128	0.867200	0.263470	0.373800
C1291	C129	0.922300	0.243140	0.317600
H1031	H103	0.994100	0.246700	0.323200
C1301	C130	0.875700	0.217710	0.253400
H1041	H104	0.915200	0.203700	0.215700
C1311	C131	0.457800	0.935930	0.935700
H1051	H105	0.447400	0.933600	0.863300
C1321	C132	0.539000	0.954930	0.984300
H1061	H106	0.584500	0.965400	0.945000
C1331	C133	0.556600	0.959250	0.089900
C1341	C134	0.490000	0.941410	0.143100
H1071	H107	0.500800	0.942300	0.215800
C1351	C135	0.408900	0.922640	0.091500
H1081	H108	0.363700	0.911000	0.128900
C1361	C136	0.052900	0.330820	0.503700
H1091	H109	0.112900	0.342800	0.492400
C1371	C137	0.006900	0.307350	0.432800
H1101	H110	0.035000	0.303200	0.372500
C1381	C138	0.919500	0.289580	0.448400
C1391	C139	0.880900	0.297100	0.537700
H1111	H111	0.820100	0.286000	0.550300
C1401	C140	0.930400	0.320440	0.607100
H1121	H112	0.905000	0.324800	0.668800
C1411	C141	0.829900	0.165570	0.978900
H1131	H113	0.818900	0.184800	0.021000
C1421	C142	0.810000	0.169050	0.873300
H1141	H114	0.785700	0.190700	0.843700
C1431	C143	0.825100	0.141420	0.810400
C1441	C144	0.863300	0.111070	0.858100
H1151	H115	0.876700	0.091700	0.817900
C1451	C145	0.882200	0.108420	0.963400
H1161	H116	0.908100	0.087200	0.994600
C1461	C146	0.073900	0.152210	0.380300
H1171	H117	0.052900	0.173000	0.409900
C1471	C147	0.177200	0.145980	0.381200
H1181	H118	0.226600	0.162500	0.411700
C1481	C148	0.209100	0.116080	0.338500
C1491	C149	0.133200	0.092960	0.293900
H1191	H119	0.152200	0.072100	0.263200
C1501	C150	0.031800	0.099830	0.293600
H1201	H120	0.981100	0.083900	0.262200
C1511	C151	0.796000	0.122970	0.527400
H1211	H121	0.812400	0.105100	0.483100
C1521	C152	0.822400	0.119080	0.631000
H1221	H122	0.856800	0.098500	0.658100
C1531	C153	0.799500	0.144870	0.697300
C1541	C154	0.748800	0.174250	0.652600
H1231	H123	0.731700	0.192500	0.695000
C1551	C155	0.723200	0.177240	0.548600
H1241	H124	0.688200	0.197500	0.519800
C1561	C156	0.495300	0.127340	0.354100
H1251	H125	0.545900	0.144900	0.371700
C1571	C157	0.392500	0.134250	0.360300
H1261	H126	0.373600	0.156700	0.381200
C1581	C158	0.318400	0.108830	0.336300
C1591	C159	0.352400	0.076570	0.309100
H1271	H127	0.304400	0.058000	0.295000
C1601	C160	0.452600	0.070570	0.302000
H1281	H128	0.473200	0.048200	0.281900
