data_IBUBIT_clean_PM
_symmetry_space_group_name_H-M	'P1'
_cell_length_a	9.477000
_cell_length_b	34.800000
_cell_length_c	25.010000
_cell_angle_alpha	90.000000
_cell_angle_beta	90.000000
_cell_angle_gamma	90.000000
_symmetry_Int_Tables_number 1

loop_
_symmetry_equiv_pos_as_xyz
'x,y,z'

loop_
_atom_site_label
_atom_site_type_symbol
_atom_site_fract_x
_atom_site_fract_y
_atom_site_fract_z
N11	N1	0.155400	0.922910	0.008100
N21	N2	0.333500	0.924870	0.949400
C11	C1	0.262600	0.903900	0.986300
H11	H1	0.286500	0.878800	0.995400
N31	N3	0.157100	0.958490	0.984500
C21	C2	0.260900	0.957900	0.950400
H21	H2	0.282900	0.978700	0.928600
N41	N4	0.655400	0.422910	0.508100
N51	N5	0.833500	0.424870	0.449400
C31	C3	0.762600	0.403900	0.486300
H31	H3	0.786500	0.378800	0.495400
N61	N6	0.657100	0.458490	0.484500
C41	C4	0.760900	0.457900	0.450400
H41	H4	0.782900	0.478700	0.428600
N71	N7	0.844600	0.577090	0.008100
N81	N8	0.666500	0.575130	0.949400
C51	C5	0.737400	0.596100	0.986300
H51	H5	0.713500	0.621200	0.995400
N91	N9	0.842900	0.541510	0.984500
C61	C6	0.739100	0.542100	0.950400
H61	H6	0.717100	0.521300	0.928600
N101	N10	0.344600	0.077090	0.508100
N111	N11	0.166500	0.075130	0.449400
C71	C7	0.237400	0.096100	0.486300
H71	H7	0.213500	0.121200	0.495400
N121	N12	0.342900	0.041510	0.484500
C81	C8	0.239100	0.042100	0.450400
H81	H8	0.217100	0.021300	0.428600
N131	N13	0.844600	0.422910	0.991900
N141	N14	0.666500	0.424870	0.050600
C91	C9	0.737400	0.403900	0.013700
H91	H9	0.713500	0.378800	0.004600
N151	N15	0.842900	0.458490	0.015500
C101	C10	0.739100	0.457900	0.049600
H101	H10	0.717100	0.478700	0.071400
N161	N16	0.344600	0.922910	0.491900
N171	N17	0.166500	0.924870	0.550600
C111	C11	0.237400	0.903900	0.513700
H111	H11	0.213500	0.878800	0.504600
N181	N18	0.342900	0.958490	0.515500
C121	C12	0.239100	0.957900	0.549600
H121	H12	0.217100	0.978700	0.571400
N191	N19	0.155400	0.077090	0.991900
N201	N20	0.333500	0.075130	0.050600
C131	C13	0.262600	0.096100	0.013700
H131	H13	0.286500	0.121200	0.004600
N211	N21	0.157100	0.041510	0.015500
C141	C14	0.260900	0.042100	0.049600
H141	H14	0.282900	0.021300	0.071400
N221	N22	0.655400	0.577090	0.491900
N231	N23	0.833500	0.575130	0.550600
C151	C15	0.762600	0.596100	0.513700
H151	H15	0.786500	0.621200	0.504600
N241	N24	0.657100	0.541510	0.515500
C161	C16	0.760900	0.542100	0.549600
H161	H16	0.782900	0.521300	0.571400
N251	N25	0.844600	0.077090	0.991900
N261	N26	0.666500	0.075130	0.050600
C171	C17	0.737400	0.096100	0.013700
H171	H17	0.713500	0.121200	0.004600
N271	N27	0.842900	0.041510	0.015500
C181	C18	0.739100	0.042100	0.049600
H181	H18	0.717100	0.021300	0.071400
N281	N28	0.344600	0.577090	0.491900
N291	N29	0.166500	0.575130	0.550600
C191	C19	0.237400	0.596100	0.513700
H191	H19	0.213500	0.621200	0.504600
N301	N30	0.342900	0.541510	0.515500
C201	C20	0.239100	0.542100	0.549600
H201	H20	0.217100	0.521300	0.571400
N311	N31	0.155400	0.422910	0.991900
N321	N32	0.333500	0.424870	0.050600
C211	C21	0.262600	0.403900	0.013700
H211	H21	0.286500	0.378800	0.004600
N331	N33	0.157100	0.458490	0.015500
C221	C22	0.260900	0.457900	0.049600
H221	H22	0.282900	0.478700	0.071400
N341	N34	0.655400	0.922910	0.491900
N351	N35	0.833500	0.924870	0.550600
C231	C23	0.762600	0.903900	0.513700
H231	H23	0.786500	0.878800	0.504600
N361	N36	0.657100	0.958490	0.515500
C241	C24	0.760900	0.957900	0.549600
H241	H24	0.782900	0.978700	0.571400
N371	N37	0.155400	0.577090	0.008100
N381	N38	0.333500	0.575130	0.949400
C251	C25	0.262600	0.596100	0.986300
H251	H25	0.286500	0.621200	0.995400
N391	N39	0.157100	0.541510	0.984500
C261	C26	0.260900	0.542100	0.950400
H261	H26	0.282900	0.521300	0.928600
N401	N40	0.655400	0.077090	0.508100
N411	N41	0.833500	0.075130	0.449400
C271	C27	0.762600	0.096100	0.486300
H271	H27	0.786500	0.121200	0.495400
N421	N42	0.657100	0.041510	0.484500
C281	C28	0.760900	0.042100	0.450400
H281	H28	0.782900	0.021300	0.428600
N431	N43	0.844600	0.922910	0.008100
N441	N44	0.666500	0.924870	0.949400
C291	C29	0.737400	0.903900	0.986300
H291	H29	0.713500	0.878800	0.995400
N451	N45	0.842900	0.958490	0.984500
C301	C30	0.739100	0.957900	0.950400
H301	H30	0.717100	0.978700	0.928600
N461	N46	0.344600	0.422910	0.508100
N471	N47	0.166500	0.424870	0.449400
C311	C31	0.237400	0.403900	0.486300
H311	H31	0.213500	0.378800	0.495400
N481	N48	0.342900	0.458490	0.484500
C321	C32	0.239100	0.457900	0.450400
H321	H32	0.217100	0.478700	0.428600
Zn11	Zn1	0.000000	0.905430	0.055240
Zn21	Zn2	0.000000	0.091440	0.408380
O11	O1	0.000000	0.017400	0.372100
O21	O2	0.000000	0.930200	0.124000
O31	O3	0.000000	0.985900	0.084400
C331	C33	0.000000	0.021800	0.278400
O41	O4	0.000000	0.074500	0.333500
C341	C34	0.000000	0.966200	0.124100
O51	O5	0.000000	0.148300	0.399800
C351	C35	0.000000	0.985200	0.175600
C361	C36	0.000000	0.965900	0.222400
H331	H33	0.000000	0.939200	0.221100
C371	C37	0.000000	0.038100	0.332300
C381	C38	0.000000	0.023500	0.182600
H341	H34	0.000000	0.039100	0.152400
C391	C39	0.000000	0.040900	0.231900
H351	H35	0.000000	0.067600	0.233100
O61	O6	0.000000	0.156000	0.483300
C401	C40	0.000000	0.211000	0.423900
C411	C41	0.000000	0.983300	0.272200
H361	H36	0.000000	0.967800	0.302500
C421	C42	0.000000	0.230200	0.472200
H371	H37	0.000000	0.216600	0.504200
C431	C43	0.000000	0.229600	0.375300
H381	H38	0.000000	0.215900	0.343400
C441	C44	0.000000	0.168300	0.434500
Zn31	Zn3	0.500000	0.405430	0.555240
Zn41	Zn4	0.500000	0.591440	0.908380
O71	O7	0.500000	0.517400	0.872100
O81	O8	0.500000	0.430200	0.624000
O91	O9	0.500000	0.485900	0.584400
C451	C45	0.500000	0.521800	0.778400
O101	O10	0.500000	0.574500	0.833500
C461	C46	0.500000	0.466200	0.624100
O111	O11	0.500000	0.648300	0.899800
C471	C47	0.500000	0.485200	0.675600
C481	C48	0.500000	0.465900	0.722400
H391	H39	0.500000	0.439200	0.721100
C491	C49	0.500000	0.538100	0.832300
C501	C50	0.500000	0.523500	0.682600
H401	H40	0.500000	0.539100	0.652400
C511	C51	0.500000	0.540900	0.731900
H411	H41	0.500000	0.567600	0.733100
O121	O12	0.500000	0.656000	0.983300
C521	C52	0.500000	0.711000	0.923900
C531	C53	0.500000	0.483300	0.772200
H421	H42	0.500000	0.467800	0.802500
C541	C54	0.500000	0.730200	0.972200
H431	H43	0.500000	0.716600	0.004200
C551	C55	0.500000	0.729600	0.875300
H441	H44	0.500000	0.715900	0.843400
C561	C56	0.500000	0.668300	0.934500
Zn51	Zn5	0.000000	0.594570	0.055240
Zn61	Zn6	0.000000	0.408560	0.408380
O131	O13	0.000000	0.482600	0.372100
O141	O14	0.000000	0.569800	0.124000
O151	O15	0.000000	0.514100	0.084400
C571	C57	0.000000	0.478200	0.278400
O161	O16	0.000000	0.425500	0.333500
C581	C58	0.000000	0.533800	0.124100
O171	O17	0.000000	0.351700	0.399800
C591	C59	0.000000	0.514800	0.175600
C601	C60	0.000000	0.534100	0.222400
H451	H45	0.000000	0.560800	0.221100
C611	C61	0.000000	0.461900	0.332300
C621	C62	0.000000	0.476500	0.182600
H461	H46	0.000000	0.460900	0.152400
C631	C63	0.000000	0.459100	0.231900
H471	H47	0.000000	0.432400	0.233100
O181	O18	0.000000	0.344000	0.483300
C641	C64	0.000000	0.289000	0.423900
C651	C65	0.000000	0.516700	0.272200
H481	H48	0.000000	0.532200	0.302500
C661	C66	0.000000	0.269800	0.472200
H491	H49	0.000000	0.283400	0.504200
C671	C67	0.000000	0.270400	0.375300
H501	H50	0.000000	0.284100	0.343400
C681	C68	0.000000	0.331700	0.434500
Zn71	Zn7	0.500000	0.094570	0.555240
Zn81	Zn8	0.500000	0.908560	0.908380
O191	O19	0.500000	0.982600	0.872100
O201	O20	0.500000	0.069800	0.624000
O211	O21	0.500000	0.014100	0.584400
C691	C69	0.500000	0.978200	0.778400
O221	O22	0.500000	0.925500	0.833500
C701	C70	0.500000	0.033800	0.624100
O231	O23	0.500000	0.851700	0.899800
C711	C71	0.500000	0.014800	0.675600
C721	C72	0.500000	0.034100	0.722400
H511	H51	0.500000	0.060800	0.721100
C731	C73	0.500000	0.961900	0.832300
C741	C74	0.500000	0.976500	0.682600
H521	H52	0.500000	0.960900	0.652400
C751	C75	0.500000	0.959100	0.731900
H531	H53	0.500000	0.932400	0.733100
O241	O24	0.500000	0.844000	0.983300
C761	C76	0.500000	0.789000	0.923900
C771	C77	0.500000	0.016700	0.772200
H541	H54	0.500000	0.032200	0.802500
C781	C78	0.500000	0.769800	0.972200
H551	H55	0.500000	0.783400	0.004200
C791	C79	0.500000	0.770400	0.875300
H561	H56	0.500000	0.784100	0.843400
C801	C80	0.500000	0.831700	0.934500
Zn91	Zn9	0.000000	0.405430	0.944760
Zn101	Zn10	0.000000	0.591440	0.591620
O251	O25	0.000000	0.517400	0.627900
O261	O26	0.000000	0.430200	0.876000
O271	O27	0.000000	0.485900	0.915600
C811	C81	0.000000	0.521800	0.721600
O281	O28	0.000000	0.574500	0.666500
C821	C82	0.000000	0.466200	0.875900
O291	O29	0.000000	0.648300	0.600200
C831	C83	0.000000	0.485200	0.824400
C841	C84	0.000000	0.465900	0.777600
H571	H57	0.000000	0.439200	0.778900
C851	C85	0.000000	0.538100	0.667700
C861	C86	0.000000	0.523500	0.817400
H581	H58	0.000000	0.539100	0.847600
C871	C87	0.000000	0.540900	0.768100
H591	H59	0.000000	0.567600	0.766900
O301	O30	0.000000	0.656000	0.516700
C881	C88	0.000000	0.711000	0.576100
C891	C89	0.000000	0.483300	0.727800
H601	H60	0.000000	0.467800	0.697500
C901	C90	0.000000	0.730200	0.527800
H611	H61	0.000000	0.716600	0.495800
C911	C91	0.000000	0.729600	0.624700
H621	H62	0.000000	0.715900	0.656600
C921	C92	0.000000	0.668300	0.565500
Zn111	Zn11	0.500000	0.905430	0.444760
Zn121	Zn12	0.500000	0.091440	0.091620
O311	O31	0.500000	0.017400	0.127900
O321	O32	0.500000	0.930200	0.376000
O331	O33	0.500000	0.985900	0.415600
C931	C93	0.500000	0.021800	0.221600
O341	O34	0.500000	0.074500	0.166500
C941	C94	0.500000	0.966200	0.375900
O351	O35	0.500000	0.148300	0.100200
C951	C95	0.500000	0.985200	0.324400
C961	C96	0.500000	0.965900	0.277600
H631	H63	0.500000	0.939200	0.278900
C971	C97	0.500000	0.038100	0.167700
C981	C98	0.500000	0.023500	0.317400
H641	H64	0.500000	0.039100	0.347600
C991	C99	0.500000	0.040900	0.268100
H651	H65	0.500000	0.067600	0.266900
O361	O36	0.500000	0.156000	0.016700
C1001	C100	0.500000	0.211000	0.076100
C1011	C101	0.500000	0.983300	0.227800
H661	H66	0.500000	0.967800	0.197500
C1021	C102	0.500000	0.230200	0.027800
H671	H67	0.500000	0.216600	0.995800
C1031	C103	0.500000	0.229600	0.124700
H681	H68	0.500000	0.215900	0.156600
C1041	C104	0.500000	0.168300	0.065500
Zn131	Zn13	0.000000	0.094570	0.944760
Zn141	Zn14	0.000000	0.908560	0.591620
O371	O37	0.000000	0.982600	0.627900
O381	O38	0.000000	0.069800	0.876000
O391	O39	0.000000	0.014100	0.915600
C1051	C105	0.000000	0.978200	0.721600
O401	O40	0.000000	0.925500	0.666500
C1061	C106	0.000000	0.033800	0.875900
O411	O41	0.000000	0.851700	0.600200
C1071	C107	0.000000	0.014800	0.824400
C1081	C108	0.000000	0.034100	0.777600
H691	H69	0.000000	0.060800	0.778900
C1091	C109	0.000000	0.961900	0.667700
C1101	C110	0.000000	0.976500	0.817400
H701	H70	0.000000	0.960900	0.847600
C1111	C111	0.000000	0.959100	0.768100
H711	H71	0.000000	0.932400	0.766900
O421	O42	0.000000	0.844000	0.516700
C1121	C112	0.000000	0.789000	0.576100
C1131	C113	0.000000	0.016700	0.727800
H721	H72	0.000000	0.032200	0.697500
C1141	C114	0.000000	0.769800	0.527800
H731	H73	0.000000	0.783400	0.495800
C1151	C115	0.000000	0.770400	0.624700
H741	H74	0.000000	0.784100	0.656600
C1161	C116	0.000000	0.831700	0.565500
Zn151	Zn15	0.500000	0.594570	0.444760
Zn161	Zn16	0.500000	0.408560	0.091620
O431	O43	0.500000	0.482600	0.127900
O441	O44	0.500000	0.569800	0.376000
O451	O45	0.500000	0.514100	0.415600
C1171	C117	0.500000	0.478200	0.221600
O461	O46	0.500000	0.425500	0.166500
C1181	C118	0.500000	0.533800	0.375900
O471	O47	0.500000	0.351700	0.100200
C1191	C119	0.500000	0.514800	0.324400
C1201	C120	0.500000	0.534100	0.277600
H751	H75	0.500000	0.560800	0.278900
C1211	C121	0.500000	0.461900	0.167700
C1221	C122	0.500000	0.476500	0.317400
H761	H76	0.500000	0.460900	0.347600
C1231	C123	0.500000	0.459100	0.268100
H771	H77	0.500000	0.432400	0.266900
O481	O48	0.500000	0.344000	0.016700
C1241	C124	0.500000	0.289000	0.076100
C1251	C125	0.500000	0.516700	0.227800
H781	H78	0.500000	0.532200	0.197500
C1261	C126	0.500000	0.269800	0.027800
H791	H79	0.500000	0.283400	0.995800
C1271	C127	0.500000	0.270400	0.124700
H801	H80	0.500000	0.284100	0.156600
C1281	C128	0.500000	0.331700	0.065500
Zn171	Zn17	0.000000	0.000000	0.000000
Zn181	Zn18	0.500000	0.500000	0.500000
Zn191	Zn19	0.000000	0.500000	0.000000
Zn201	Zn20	0.500000	0.000000	0.500000
