data_ic025743v_s1_clean_PM
_symmetry_space_group_name_H-M	'P1'
_cell_length_a	8.444000
_cell_length_b	13.506000
_cell_length_c	13.580000
_cell_angle_alpha	103.830000
_cell_angle_beta	90.000000
_cell_angle_gamma	90.000000
_symmetry_Int_Tables_number 1

loop_
_symmetry_equiv_pos_as_xyz
'x,y,z'

loop_
_atom_site_label
_atom_site_type_symbol
_atom_site_fract_x
_atom_site_fract_y
_atom_site_fract_z
Cu11	Cu1	0.637290	0.781280	0.156520
Cu21	Cu2	0.137290	0.718720	0.343480
Cu31	Cu3	0.670590	0.649250	0.770410
Cu41	Cu4	0.329410	0.350750	0.229590
Cu51	Cu5	0.170590	0.850750	0.729590
Cu61	Cu6	0.862710	0.281280	0.656520
Cu71	Cu7	0.829410	0.149250	0.270410
Cu81	Cu8	0.362710	0.218720	0.843480
C11	C1	0.704900	0.933000	0.171400
C21	C2	0.149100	0.791300	0.486900
C31	C3	0.534600	0.285900	0.247000
C41	C4	0.564400	0.219200	0.767500
C51	C5	0.819000	0.728700	0.225800
C61	C6	0.649100	0.708700	0.013100
C71	C7	0.034600	0.214100	0.253000
C81	C8	0.965400	0.785900	0.747000
C91	C9	0.648900	0.244000	0.254300
C101	C10	0.755900	0.013400	0.205500
C111	C11	0.148900	0.256000	0.245700
C121	C12	0.295100	0.067000	0.828600
C131	C13	0.681000	0.228700	0.725800
C141	C14	0.350900	0.291300	0.986900
C151	C15	0.435600	0.780800	0.232500
C161	C16	0.244100	0.986600	0.794500
C171	C17	0.851100	0.744000	0.754300
C181	C18	0.465400	0.714100	0.753000
C191	C19	0.850900	0.208700	0.513100
C201	C20	0.663400	0.671000	0.928600
C211	C21	0.795100	0.433000	0.671400
C221	C22	0.935600	0.719200	0.267500
C231	C23	0.181000	0.271300	0.774200
C241	C24	0.744100	0.513400	0.705500
C251	C25	0.836600	0.171000	0.428600
C261	C26	0.204900	0.567000	0.328600
C271	C27	0.163400	0.829000	0.571400
C281	C28	0.319000	0.771300	0.274200
C291	C29	0.351100	0.756000	0.745700
C301	C30	0.255900	0.486600	0.294500
C311	C31	0.336600	0.329000	0.071400
C321	C32	0.064400	0.280800	0.732500
