data_ic049498msi20040906_121120_clean_PM
_symmetry_space_group_name_H-M	'P1'
_cell_length_a	20.506000
_cell_length_b	20.506000
_cell_length_c	20.506000
_cell_angle_alpha	90.000000
_cell_angle_beta	90.000000
_cell_angle_gamma	90.000000
_symmetry_Int_Tables_number 1

loop_
_symmetry_equiv_pos_as_xyz
'x,y,z'

loop_
_atom_site_label
_atom_site_type_symbol
_atom_site_fract_x
_atom_site_fract_y
_atom_site_fract_z
Pr11	Pr1	0.020320	0.742280	0.143710
Pr21	Pr2	0.520320	0.757720	0.856290
Pr31	Pr3	0.742280	0.356290	0.520320
Pr41	Pr4	0.143710	0.020320	0.742280
Pr51	Pr5	0.242280	0.143710	0.479680
Pr61	Pr6	0.742280	0.143710	0.020320
Pr71	Pr7	0.979680	0.257720	0.856290
Pr81	Pr8	0.757720	0.643710	0.020320
Pr91	Pr9	0.356290	0.979680	0.242280
Pr101	Pr10	0.520320	0.742280	0.356290
Pr111	Pr11	0.856290	0.979680	0.257720
Pr121	Pr12	0.257720	0.643710	0.479680
Pr131	Pr13	0.643710	0.020320	0.757720
Pr141	Pr14	0.356290	0.520320	0.742280
Pr151	Pr15	0.020320	0.757720	0.643710
Pr161	Pr16	0.143710	0.479680	0.242280
Pr171	Pr17	0.856290	0.520320	0.757720
Pr181	Pr18	0.479680	0.257720	0.643710
Pr191	Pr19	0.479680	0.242280	0.143710
Pr201	Pr20	0.257720	0.856290	0.979680
Pr211	Pr21	0.757720	0.856290	0.520320
Pr221	Pr22	0.979680	0.242280	0.356290
Pr231	Pr23	0.643710	0.479680	0.257720
Pr241	Pr24	0.242280	0.356290	0.979680
H11	H1	0.216700	0.051500	0.011500
H21	H2	0.888400	0.039000	0.865200
H31	H3	0.551200	0.308000	0.394400
H41	H4	0.388400	0.461000	0.134800
H51	H5	0.948800	0.808000	0.394400
H61	H6	0.539000	0.634800	0.111600
H71	H7	0.948800	0.692000	0.894400
H81	H8	0.488500	0.783300	0.551500
H91	H9	0.394400	0.948800	0.808000
H101	H10	0.894400	0.948800	0.692000
H111	H11	0.283300	0.551500	0.011500
H121	H12	0.111600	0.539000	0.634800
H131	H13	0.448800	0.692000	0.605600
H141	H14	0.051200	0.192000	0.605600
H151	H15	0.448500	0.511500	0.216700
H161	H16	0.051500	0.488500	0.716700
H171	H17	0.961000	0.134800	0.111600
H181	H18	0.051500	0.011500	0.216700
H191	H19	0.539000	0.865200	0.611600
H201	H20	0.692000	0.894400	0.948800
H211	H21	0.611600	0.961000	0.365200
H221	H22	0.716700	0.051500	0.488500
H231	H23	0.488500	0.716700	0.051500
H241	H24	0.051200	0.308000	0.105600
H251	H25	0.192000	0.605600	0.051200
H261	H26	0.134800	0.111600	0.961000
H271	H27	0.634800	0.388400	0.039000
H281	H28	0.511500	0.216700	0.448500
H291	H29	0.605600	0.051200	0.192000
H301	H30	0.634800	0.111600	0.539000
H311	H31	0.865200	0.888400	0.039000
H321	H32	0.216700	0.448500	0.511500
H331	H33	0.111600	0.961000	0.134800
H341	H34	0.039000	0.865200	0.888400
H351	H35	0.448500	0.988500	0.716700
H361	H36	0.308000	0.105600	0.051200
H371	H37	0.888400	0.461000	0.365200
H381	H38	0.308000	0.394400	0.551200
H391	H39	0.448800	0.808000	0.105600
H401	H40	0.605600	0.448800	0.692000
H411	H41	0.105600	0.051200	0.308000
H421	H42	0.948500	0.988500	0.783300
H431	H43	0.808000	0.105600	0.448800
H441	H44	0.134800	0.388400	0.461000
H451	H45	0.716700	0.448500	0.988500
H461	H46	0.865200	0.611600	0.539000
H471	H47	0.988500	0.783300	0.948500
H481	H48	0.365200	0.888400	0.461000
H491	H49	0.808000	0.394400	0.948800
H501	H50	0.783300	0.948500	0.988500
H511	H51	0.692000	0.605600	0.448800
H521	H52	0.551500	0.011500	0.283300
H531	H53	0.365200	0.611600	0.961000
H541	H54	0.511500	0.283300	0.948500
H551	H55	0.551500	0.488500	0.783300
H561	H56	0.461000	0.365200	0.888400
H571	H57	0.105600	0.448800	0.808000
H581	H58	0.894400	0.551200	0.192000
H591	H59	0.948500	0.511500	0.283300
H601	H60	0.611600	0.539000	0.865200
H611	H61	0.192000	0.894400	0.551200
H621	H62	0.011500	0.216700	0.051500
H631	H63	0.388400	0.039000	0.634800
H641	H64	0.461000	0.134800	0.388400
H651	H65	0.011500	0.283300	0.551500
H661	H66	0.783300	0.551500	0.488500
H671	H67	0.988500	0.716700	0.448500
H681	H68	0.283300	0.948500	0.511500
H691	H69	0.039000	0.634800	0.388400
H701	H70	0.961000	0.365200	0.611600
H711	H71	0.394400	0.551200	0.308000
H721	H72	0.551200	0.192000	0.894400
C11	C1	0.833450	0.263180	0.950080
C21	C2	0.628800	0.242260	0.560150
C31	C3	0.804290	0.974950	0.722380
C41	C4	0.632300	0.977500	0.328400
C51	C5	0.720400	0.403500	0.992500
C61	C6	0.007500	0.279600	0.596500
C71	C7	0.777620	0.195710	0.474950
C81	C8	0.439850	0.371200	0.757740
C91	C9	0.132300	0.522500	0.671600
C101	C10	0.321670	0.698800	0.972380
C111	C11	0.263180	0.549920	0.333450
C121	C12	0.220400	0.096500	0.007500
C131	C13	0.195710	0.025050	0.277620
C141	C14	0.025050	0.222380	0.695710
C151	C15	0.695710	0.474950	0.722380
C161	C16	0.477500	0.171600	0.367700
C171	C17	0.225600	0.628600	0.031300
C181	C18	0.736820	0.049920	0.166550
C191	C19	0.992500	0.720400	0.403500
C201	C20	0.522500	0.828400	0.632300
C211	C21	0.525050	0.277620	0.304290
C221	C22	0.274400	0.128600	0.031300
C231	C23	0.777620	0.304290	0.974950
C241	C24	0.128600	0.468700	0.774400
C251	C25	0.096500	0.492500	0.720400
C261	C26	0.678330	0.301200	0.027620
C271	C27	0.950080	0.666550	0.763180
C281	C28	0.450080	0.666550	0.736820
C291	C29	0.560150	0.628800	0.242260
C301	C30	0.974950	0.777620	0.304290
C311	C31	0.468700	0.774400	0.128600
C321	C32	0.242260	0.939850	0.128800
C331	C33	0.507500	0.220400	0.403500
C341	C34	0.596500	0.007500	0.279600
C351	C35	0.321670	0.801200	0.472380
C361	C36	0.695710	0.025050	0.222380
C371	C37	0.527620	0.678330	0.198800
C381	C38	0.722380	0.695710	0.474950
C391	C39	0.371400	0.968700	0.774400
C401	C40	0.277620	0.304290	0.525050
C411	C41	0.725600	0.628600	0.468700
C421	C42	0.257740	0.060150	0.628800
C431	C43	0.871400	0.968700	0.725600
C441	C44	0.722380	0.804290	0.974950
C451	C45	0.333450	0.236820	0.049920
C461	C46	0.128600	0.031300	0.274400
C471	C47	0.527620	0.821670	0.698800
C481	C48	0.277620	0.195710	0.025050
C491	C49	0.774400	0.128600	0.468700
C501	C50	0.304290	0.525050	0.277620
C511	C51	0.833450	0.236820	0.450080
C521	C52	0.992500	0.779600	0.903500
C531	C53	0.531300	0.274400	0.371400
C541	C54	0.128800	0.242260	0.939850
C551	C55	0.128800	0.257740	0.439850
C561	C56	0.178330	0.301200	0.472380
C571	C57	0.903500	0.992500	0.779600
C581	C58	0.867700	0.477500	0.328400
C591	C59	0.049920	0.166550	0.736820
C601	C60	0.171600	0.367700	0.477500
C611	C61	0.132300	0.977500	0.171600
C621	C62	0.220400	0.403500	0.507500
C631	C63	0.871200	0.742260	0.560150
C641	C64	0.403500	0.507500	0.220400
C651	C65	0.171600	0.132300	0.977500
C661	C66	0.698800	0.527620	0.821670
C671	C67	0.301200	0.027620	0.678330
C681	C68	0.972380	0.321670	0.698800
C691	C69	0.236820	0.049920	0.333450
C701	C70	0.628600	0.468700	0.725600
C711	C71	0.060150	0.628800	0.257740
C721	C72	0.972380	0.178330	0.198800
C731	C73	0.328400	0.632300	0.977500
C741	C74	0.763180	0.549920	0.166550
C751	C75	0.472380	0.321670	0.801200
C761	C76	0.560150	0.871200	0.742260
C771	C77	0.371200	0.757740	0.439850
C781	C78	0.166550	0.763180	0.549920
C791	C79	0.779600	0.903500	0.992500
C801	C80	0.725600	0.871400	0.968700
C811	C81	0.222380	0.804290	0.525050
C821	C82	0.242260	0.560150	0.628800
C831	C83	0.198800	0.527620	0.678330
C841	C84	0.678330	0.198800	0.527620
C851	C85	0.974950	0.722380	0.804290
C861	C86	0.450080	0.833450	0.236820
C871	C87	0.031300	0.225600	0.628600
C881	C88	0.867700	0.022500	0.828400
C891	C89	0.968700	0.725600	0.871400
C901	C90	0.628800	0.257740	0.060150
C911	C91	0.166550	0.736820	0.049920
C921	C92	0.403500	0.992500	0.720400
C931	C93	0.671600	0.367700	0.022500
C941	C94	0.371400	0.531300	0.274400
C951	C95	0.027620	0.821670	0.801200
C961	C96	0.977500	0.328400	0.632300
C971	C97	0.222380	0.695710	0.025050
C981	C98	0.828400	0.867700	0.022500
C991	C99	0.492500	0.720400	0.096500
C1001	C100	0.821670	0.698800	0.527620
C1011	C101	0.371200	0.742260	0.939850
C1021	C102	0.950080	0.833450	0.263180
C1031	C103	0.049920	0.333450	0.236820
C1041	C104	0.549920	0.333450	0.263180
C1051	C105	0.939850	0.371200	0.742260
C1061	C106	0.367700	0.022500	0.671600
C1071	C107	0.628600	0.031300	0.225600
C1081	C108	0.236820	0.450080	0.833450
C1091	C109	0.472380	0.178330	0.301200
C1101	C110	0.022500	0.671600	0.367700
C1111	C111	0.301200	0.472380	0.178330
C1121	C112	0.027620	0.678330	0.301200
C1131	C113	0.801200	0.472380	0.321670
C1141	C114	0.279600	0.903500	0.507500
C1151	C115	0.828400	0.632300	0.522500
C1161	C116	0.801200	0.027620	0.821670
C1171	C117	0.666550	0.763180	0.950080
C1181	C118	0.198800	0.972380	0.178330
C1191	C119	0.439850	0.128800	0.257740
C1201	C120	0.525050	0.222380	0.804290
C1211	C121	0.007500	0.220400	0.096500
C1221	C122	0.367700	0.477500	0.171600
C1231	C123	0.279600	0.596500	0.007500
C1241	C124	0.468700	0.725600	0.628600
C1251	C125	0.804290	0.525050	0.222380
C1261	C126	0.477500	0.328400	0.867700
C1271	C127	0.474950	0.722380	0.695710
C1281	C128	0.333450	0.263180	0.549920
C1291	C129	0.263180	0.950080	0.833450
C1301	C130	0.757740	0.439850	0.371200
C1311	C131	0.977500	0.171600	0.132300
C1321	C132	0.720400	0.096500	0.492500
C1331	C133	0.698800	0.972380	0.321670
C1341	C134	0.025050	0.277620	0.195710
C1351	C135	0.632300	0.522500	0.828400
C1361	C136	0.022500	0.828400	0.867700
C1371	C137	0.522500	0.671600	0.132300
C1381	C138	0.871400	0.531300	0.225600
C1391	C139	0.736820	0.450080	0.666550
C1401	C140	0.274400	0.371400	0.531300
C1411	C141	0.774400	0.371400	0.968700
C1421	C142	0.195710	0.474950	0.777620
C1431	C143	0.742260	0.939850	0.371200
C1441	C144	0.939850	0.128800	0.242260
C1451	C145	0.903500	0.507500	0.279600
C1461	C146	0.492500	0.779600	0.596500
C1471	C147	0.304290	0.974950	0.777620
C1481	C148	0.474950	0.777620	0.195710
C1491	C149	0.968700	0.774400	0.371400
C1501	C150	0.060150	0.871200	0.757740
C1511	C151	0.178330	0.198800	0.972380
C1521	C152	0.757740	0.060150	0.871200
C1531	C153	0.742260	0.560150	0.871200
C1541	C154	0.225600	0.871400	0.531300
C1551	C155	0.328400	0.867700	0.477500
C1561	C156	0.779600	0.596500	0.492500
C1571	C157	0.763180	0.950080	0.666550
C1581	C158	0.507500	0.279600	0.903500
C1591	C159	0.671600	0.132300	0.522500
C1601	C160	0.821670	0.801200	0.027620
C1611	C161	0.096500	0.007500	0.220400
C1621	C162	0.031300	0.274400	0.128600
C1631	C163	0.549920	0.166550	0.763180
C1641	C164	0.666550	0.736820	0.450080
C1651	C165	0.257740	0.439850	0.128800
C1661	C166	0.596500	0.492500	0.779600
C1671	C167	0.531300	0.225600	0.871400
C1681	C168	0.871200	0.757740	0.060150
N11	N1	0.230890	0.230160	0.995320
N21	N2	0.769110	0.769840	0.004680
N31	N3	0.730160	0.995320	0.269110
N41	N4	0.730160	0.504680	0.769110
N51	N5	0.230160	0.504680	0.730890
N61	N6	0.995320	0.269110	0.730160
N71	N7	0.004680	0.730890	0.269840
N81	N8	0.004680	0.769110	0.769840
N91	N9	0.730890	0.230160	0.504680
N101	N10	0.495320	0.269110	0.769840
N111	N11	0.269110	0.769840	0.495320
N121	N12	0.769840	0.004680	0.769110
N131	N13	0.504680	0.730890	0.230160
N141	N14	0.269840	0.004680	0.730890
N151	N15	0.269110	0.730160	0.995320
N161	N16	0.230890	0.269840	0.495320
N171	N17	0.730890	0.269840	0.004680
N181	N18	0.230160	0.995320	0.230890
N191	N19	0.769110	0.730160	0.504680
N201	N20	0.504680	0.769110	0.730160
N211	N21	0.995320	0.230890	0.230160
N221	N22	0.769840	0.495320	0.269110
N231	N23	0.495320	0.230890	0.269840
N241	N24	0.269840	0.495320	0.230890
O11	O1	0.580320	0.577390	0.217640
O21	O2	0.419680	0.422610	0.782360
O31	O3	0.356080	0.697870	0.435460
O41	O4	0.584640	0.375710	0.289160
O51	O5	0.422610	0.717640	0.919680
O61	O6	0.782360	0.419680	0.422610
O71	O7	0.064540	0.856080	0.697870
O81	O8	0.289160	0.584640	0.375710
O91	O9	0.832260	0.296380	0.466690
O101	O10	0.697870	0.435460	0.356080
O111	O11	0.033310	0.167740	0.796380
O121	O12	0.703620	0.966690	0.667740
O131	O13	0.124290	0.710840	0.084640
O141	O14	0.919680	0.077390	0.217640
O151	O15	0.435460	0.356080	0.697870
O161	O16	0.802130	0.564540	0.856080
O171	O17	0.282360	0.419680	0.077390
O181	O18	0.624290	0.710840	0.415360
O191	O19	0.710840	0.084640	0.124290
O201	O20	0.332260	0.296380	0.033310
O211	O21	0.782360	0.080320	0.922610
O221	O22	0.533310	0.332260	0.203620
O231	O23	0.667740	0.703620	0.966690
O241	O24	0.966690	0.832260	0.203620
O251	O25	0.289160	0.915360	0.875710
O261	O26	0.197870	0.435460	0.143920
O271	O27	0.875710	0.289160	0.915360
O281	O28	0.143920	0.302130	0.935460
O291	O29	0.717640	0.919680	0.422610
O301	O30	0.435460	0.143920	0.197870
O311	O31	0.203620	0.533310	0.332260
O321	O32	0.302130	0.935460	0.143920
O331	O33	0.856080	0.697870	0.064540
O341	O34	0.167740	0.703620	0.533310
O351	O35	0.564540	0.856080	0.802130
O361	O36	0.375710	0.289160	0.584640
O371	O37	0.419680	0.077390	0.282360
O381	O38	0.935460	0.356080	0.802130
O391	O39	0.643920	0.197870	0.064540
O401	O40	0.710840	0.415360	0.624290
O411	O41	0.282360	0.080320	0.577390
O421	O42	0.966690	0.667740	0.703620
O431	O43	0.210840	0.415360	0.875710
O441	O44	0.415360	0.624290	0.710840
O451	O45	0.564540	0.643920	0.302130
O461	O46	0.033310	0.332260	0.296380
O471	O47	0.296380	0.033310	0.332260
O481	O48	0.703620	0.533310	0.167740
O491	O49	0.217640	0.580320	0.577390
O501	O50	0.875710	0.210840	0.415360
O511	O51	0.922610	0.717640	0.580320
O521	O52	0.697870	0.064540	0.856080
O531	O53	0.203620	0.966690	0.832260
O541	O54	0.922610	0.782360	0.080320
O551	O55	0.796380	0.466690	0.667740
O561	O56	0.167740	0.796380	0.033310
O571	O57	0.084640	0.375710	0.210840
O581	O58	0.080320	0.577390	0.282360
O591	O59	0.210840	0.084640	0.375710
O601	O60	0.356080	0.802130	0.935460
O611	O61	0.064540	0.643920	0.197870
O621	O62	0.217640	0.919680	0.077390
O631	O63	0.832260	0.203620	0.966690
O641	O64	0.796380	0.033310	0.167740
O651	O65	0.466690	0.667740	0.796380
O661	O66	0.789160	0.584640	0.124290
O671	O67	0.197870	0.064540	0.643920
O681	O68	0.077390	0.282360	0.419680
O691	O69	0.533310	0.167740	0.703620
O701	O70	0.077390	0.217640	0.919680
O711	O71	0.643920	0.302130	0.564540
O721	O72	0.667740	0.796380	0.466690
O731	O73	0.802130	0.935460	0.356080
O741	O74	0.789160	0.915360	0.624290
O751	O75	0.302130	0.564540	0.643920
O761	O76	0.577390	0.282360	0.080320
O771	O77	0.296380	0.466690	0.832260
O781	O78	0.919680	0.422610	0.717640
O791	O79	0.415360	0.875710	0.210840
O801	O80	0.466690	0.832260	0.296380
O811	O81	0.577390	0.217640	0.580320
O821	O82	0.584640	0.124290	0.789160
O831	O83	0.935460	0.143920	0.302130
O841	O84	0.422610	0.782360	0.419680
O851	O85	0.915360	0.624290	0.789160
O861	O86	0.084640	0.124290	0.710840
O871	O87	0.143920	0.197870	0.435460
O881	O88	0.915360	0.875710	0.289160
O891	O89	0.717640	0.580320	0.922610
O901	O90	0.332260	0.203620	0.533310
O911	O91	0.124290	0.789160	0.584640
O921	O92	0.080320	0.922610	0.782360
O931	O93	0.580320	0.922610	0.717640
O941	O94	0.375710	0.210840	0.084640
O951	O95	0.624290	0.789160	0.915360
O961	O96	0.856080	0.802130	0.564540
