data_ic060030osi20060309_091447_clean_PM
_symmetry_space_group_name_H-M	'P1'
_cell_length_a	17.425900
_cell_length_b	17.425900
_cell_length_c	17.425900
_cell_angle_alpha	60.000000
_cell_angle_beta	60.000000
_cell_angle_gamma	60.000000
_symmetry_Int_Tables_number 1

loop_
_symmetry_equiv_pos_as_xyz
'x,y,z'

loop_
_atom_site_label
_atom_site_type_symbol
_atom_site_fract_x
_atom_site_fract_y
_atom_site_fract_z
Cu11	Cu1	0.862250	0.750000	0.137750
Cu21	Cu2	0.750000	0.137750	0.750000
Cu31	Cu3	0.750000	0.362250	0.137750
Cu41	Cu4	0.637750	0.250000	0.362250
Cu51	Cu5	0.250000	0.137750	0.362250
Cu61	Cu6	0.750000	0.750000	0.362250
Cu71	Cu7	0.250000	0.637750	0.862250
Cu81	Cu8	0.750000	0.862250	0.637750
Cu91	Cu9	0.250000	0.862250	0.250000
Cu101	Cu10	0.862250	0.137750	0.250000
Cu111	Cu11	0.250000	0.250000	0.137750
Cu121	Cu12	0.862250	0.250000	0.750000
Cu131	Cu13	0.750000	0.637750	0.750000
Cu141	Cu14	0.362250	0.250000	0.750000
Cu151	Cu15	0.137750	0.750000	0.250000
Cu161	Cu16	0.637750	0.750000	0.250000
Cu171	Cu17	0.250000	0.362250	0.250000
Cu181	Cu18	0.137750	0.862250	0.750000
Cu191	Cu19	0.250000	0.250000	0.637750
Cu201	Cu20	0.362250	0.637750	0.250000
Cu211	Cu21	0.362250	0.750000	0.637750
Cu221	Cu22	0.637750	0.362250	0.750000
Cu231	Cu23	0.137750	0.250000	0.862250
Cu241	Cu24	0.750000	0.750000	0.862250
H11	H1	0.267200	0.116600	0.549600
H21	H2	0.616600	0.066600	0.549600
H31	H3	0.616600	0.549600	0.767200
H41	H4	0.066600	0.267200	0.616600
H51	H5	0.566600	0.116600	0.767200
H61	H6	0.232800	0.433400	0.950400
H71	H7	0.116600	0.049600	0.566600
H81	H8	0.933400	0.950400	0.732800
H91	H9	0.116600	0.267200	0.049600
H101	H10	0.450400	0.433400	0.383400
H111	H11	0.767200	0.566600	0.049600
H121	H12	0.066600	0.616600	0.049600
H131	H13	0.049600	0.116600	0.066600
H141	H14	0.883400	0.433400	0.732800
H151	H15	0.732800	0.450400	0.933400
H161	H16	0.767200	0.616600	0.566600
H171	H17	0.732800	0.933400	0.883400
H181	H18	0.883400	0.732800	0.950400
H191	H19	0.383400	0.232800	0.933400
H201	H20	0.049600	0.066600	0.767200
H211	H21	0.566600	0.549600	0.116600
H221	H22	0.566600	0.767200	0.549600
H231	H23	0.267200	0.549600	0.066600
H241	H24	0.450400	0.732800	0.433400
H251	H25	0.433400	0.883400	0.232800
H261	H26	0.383400	0.933400	0.450400
H271	H27	0.433400	0.232800	0.450400
H281	H28	0.933400	0.383400	0.950400
H291	H29	0.767200	0.049600	0.616600
H301	H30	0.450400	0.383400	0.732800
H311	H31	0.549600	0.566600	0.616600
H321	H32	0.950400	0.933400	0.232800
H331	H33	0.232800	0.383400	0.433400
H341	H34	0.549600	0.616600	0.267200
H351	H35	0.549600	0.267200	0.566600
H361	H36	0.383400	0.450400	0.232800
H371	H37	0.732800	0.883400	0.450400
H381	H38	0.267200	0.066600	0.116600
H391	H39	0.950400	0.883400	0.933400
H401	H40	0.116600	0.566600	0.267200
H411	H41	0.883400	0.950400	0.433400
H421	H42	0.933400	0.732800	0.383400
H431	H43	0.616600	0.767200	0.066600
H441	H44	0.066600	0.049600	0.267200
H451	H45	0.232800	0.950400	0.383400
H461	H46	0.049600	0.767200	0.116600
H471	H47	0.950400	0.232800	0.883400
H481	H48	0.433400	0.450400	0.883400
C11	C1	0.506940	0.259160	0.556340
C21	C2	0.056340	0.006940	0.259160
C31	C3	0.443660	0.493060	0.822440
C41	C4	0.759160	0.556340	0.006940
C51	C5	0.506940	0.677560	0.259160
C61	C6	0.993060	0.943660	0.240840
C71	C7	0.740840	0.822440	0.493060
C81	C8	0.493060	0.322440	0.740840
C91	C9	0.943660	0.740840	0.322440
C101	C10	0.443660	0.822440	0.240840
C111	C11	0.056340	0.259160	0.677560
C121	C12	0.006940	0.177560	0.056340
C131	C13	0.177560	0.556340	0.259160
C141	C14	0.006940	0.759160	0.177560
C151	C15	0.677560	0.506940	0.759160
C161	C16	0.993060	0.240840	0.822440
C171	C17	0.822440	0.443660	0.740840
C181	C18	0.240840	0.993060	0.322440
C191	C19	0.322440	0.240840	0.943660
C201	C20	0.240840	0.443660	0.993060
C211	C21	0.943660	0.322440	0.993060
C221	C22	0.177560	0.259160	0.006940
C231	C23	0.259160	0.506940	0.056340
C241	C24	0.506940	0.556340	0.677560
C251	C25	0.056340	0.677560	0.006940
C261	C26	0.177560	0.006940	0.556340
C271	C27	0.740840	0.493060	0.943660
C281	C28	0.240840	0.322440	0.443660
C291	C29	0.493060	0.740840	0.443660
C301	C30	0.740840	0.943660	0.822440
C311	C31	0.943660	0.993060	0.740840
C321	C32	0.259160	0.056340	0.177560
C331	C33	0.259160	0.177560	0.506940
C341	C34	0.443660	0.240840	0.493060
C351	C35	0.006940	0.056340	0.759160
C361	C36	0.822440	0.993060	0.443660
C371	C37	0.493060	0.443660	0.322440
C381	C38	0.759160	0.677560	0.556340
C391	C39	0.322440	0.943660	0.493060
C401	C40	0.993060	0.822440	0.943660
C411	C41	0.677560	0.056340	0.506940
C421	C42	0.822440	0.740840	0.993060
C431	C43	0.677560	0.759160	0.056340
C441	C44	0.556340	0.759160	0.506940
C451	C45	0.556340	0.506940	0.177560
C461	C46	0.322440	0.493060	0.240840
C471	C47	0.556340	0.177560	0.759160
C481	C48	0.759160	0.006940	0.677560
N11	N1	0.750000	0.976880	0.523120
N21	N2	0.750000	0.023120	0.750000
N31	N3	0.382280	0.576260	0.796740
N41	N4	0.796740	0.382280	0.744720
N51	N5	0.117720	0.923740	0.255280
N61	N6	0.203260	0.255280	0.923740
N71	N7	0.382280	0.244720	0.576260
N81	N8	0.250000	0.250000	0.523120
N91	N9	0.423740	0.255280	0.617720
N101	N10	0.023120	0.976880	0.750000
N111	N11	0.423740	0.617720	0.703260
N121	N12	0.255280	0.203260	0.423740
N131	N13	0.023120	0.750000	0.250000
N141	N14	0.755280	0.703260	0.617720
N151	N15	0.796740	0.076260	0.382280
N161	N16	0.703260	0.117720	0.423740
N171	N17	0.244720	0.076260	0.296740
N181	N18	0.744720	0.882280	0.796740
N191	N19	0.076260	0.882280	0.244720
N201	N20	0.250000	0.023120	0.476880
N211	N21	0.423740	0.703260	0.255280
N221	N22	0.076260	0.244720	0.796740
N231	N23	0.976880	0.750000	0.023120
N241	N24	0.296740	0.576260	0.244720
N251	N25	0.296740	0.882280	0.576260
N261	N26	0.382280	0.796740	0.244720
N271	N27	0.744720	0.576260	0.882280
N281	N28	0.755280	0.923740	0.703260
N291	N29	0.255280	0.423740	0.117720
N301	N30	0.523120	0.476880	0.750000
N311	N31	0.796740	0.744720	0.076260
N321	N32	0.476880	0.750000	0.523120
N331	N33	0.476880	0.523120	0.250000
N341	N34	0.244720	0.296740	0.382280
N351	N35	0.617720	0.203260	0.755280
N361	N36	0.750000	0.523120	0.750000
N371	N37	0.750000	0.750000	0.976880
N381	N38	0.250000	0.250000	0.023120
N391	N39	0.703260	0.423740	0.755280
N401	N40	0.523120	0.250000	0.476880
N411	N41	0.923740	0.755280	0.203260
N421	N42	0.296740	0.244720	0.882280
N431	N43	0.117720	0.255280	0.703260
N441	N44	0.882280	0.744720	0.296740
N451	N45	0.255280	0.117720	0.203260
N461	N46	0.923740	0.117720	0.755280
N471	N47	0.250000	0.523120	0.976880
N481	N48	0.023120	0.250000	0.976880
N491	N49	0.476880	0.250000	0.750000
N501	N50	0.750000	0.750000	0.476880
N511	N51	0.882280	0.076260	0.744720
N521	N52	0.250000	0.976880	0.250000
N531	N53	0.923740	0.203260	0.117720
N541	N54	0.076260	0.796740	0.882280
N551	N55	0.576260	0.382280	0.296740
N561	N56	0.203260	0.923740	0.617720
N571	N57	0.203260	0.617720	0.255280
N581	N58	0.244720	0.382280	0.076260
N591	N59	0.576260	0.744720	0.382280
N601	N60	0.744720	0.796740	0.576260
N611	N61	0.576260	0.296740	0.744720
N621	N62	0.617720	0.423740	0.203260
N631	N63	0.117720	0.703260	0.923740
N641	N64	0.882280	0.296740	0.076260
N651	N65	0.976880	0.023120	0.250000
N661	N66	0.750000	0.476880	0.023120
N671	N67	0.755280	0.617720	0.923740
N681	N68	0.703260	0.755280	0.117720
N691	N69	0.523120	0.750000	0.250000
N701	N70	0.617720	0.755280	0.423740
N711	N71	0.976880	0.250000	0.750000
N721	N72	0.250000	0.476880	0.250000
O11	O1	0.250000	0.250000	0.250000
O21	O2	0.250000	0.750000	0.750000
O31	O3	0.750000	0.250000	0.250000
O41	O4	0.250000	0.250000	0.750000
O51	O5	0.250000	0.750000	0.250000
O61	O6	0.750000	0.750000	0.750000
O71	O7	0.750000	0.250000	0.750000
O81	O8	0.750000	0.750000	0.250000
