data_ic070274o-file006_clean_PM
_symmetry_space_group_name_H-M	'P1'
_cell_length_a	20.034000
_cell_length_b	20.033800
_cell_length_c	20.033800
_cell_angle_alpha	109.471000
_cell_angle_beta	109.471000
_cell_angle_gamma	109.471000
_symmetry_Int_Tables_number 1

loop_
_symmetry_equiv_pos_as_xyz
'x,y,z'

loop_
_atom_site_label
_atom_site_type_symbol
_atom_site_fract_x
_atom_site_fract_y
_atom_site_fract_z
Ni11	Ni1	0.000000	0.500000	0.000000
Ni21	Ni2	0.500000	0.500000	0.500000
Ni31	Ni3	0.500000	0.000000	0.000000
Ni41	Ni4	0.000000	0.000000	0.500000
H11	H1	0.080500	0.335400	0.966500
H21	H2	0.423900	0.721300	0.614600
H31	H3	0.064300	0.730100	0.885200
H41	H4	0.190700	0.297400	0.576100
H51	H5	0.665800	0.935700	0.820900
H61	H6	0.614600	0.423900	0.721300
H71	H7	0.885200	0.155100	0.820900
H81	H8	0.254900	0.368900	0.335400
H91	H9	0.806800	0.898300	0.383100
H101	H10	0.114000	0.033500	0.368900
H111	H11	0.278700	0.702600	0.893300
H121	H12	0.106700	0.809300	0.385400
H131	H13	0.966500	0.080500	0.335400
H141	H14	0.576100	0.190700	0.297400
H151	H15	0.155100	0.820900	0.885200
H161	H16	0.730100	0.885200	0.064300
H171	H17	0.702600	0.423900	0.809300
H181	H18	0.898300	0.091500	0.515200
H191	H19	0.190700	0.614600	0.893300
H201	H20	0.631100	0.664600	0.745100
H211	H21	0.809300	0.385400	0.106700
H221	H22	0.484800	0.101700	0.908500
H231	H23	0.844900	0.179100	0.114800
H241	H24	0.885200	0.064300	0.730100
H251	H25	0.908500	0.484800	0.101700
H261	H26	0.820900	0.665800	0.935700
H271	H27	0.033500	0.368900	0.114000
H281	H28	0.278700	0.385400	0.576100
H291	H29	0.193200	0.576300	0.091500
H301	H30	0.664600	0.745100	0.631100
H311	H31	0.385400	0.576100	0.278700
H321	H32	0.664600	0.033500	0.919500
H331	H33	0.334200	0.064300	0.179100
H341	H34	0.745100	0.080500	0.114000
H351	H35	0.616900	0.193200	0.101700
H361	H36	0.179100	0.114800	0.844900
H371	H37	0.368900	0.114000	0.033500
H381	H38	0.101700	0.908500	0.484800
H391	H39	0.631100	0.886000	0.966500
H401	H40	0.809300	0.702600	0.423900
H411	H41	0.515200	0.423700	0.616900
H421	H42	0.080500	0.114000	0.745100
H431	H43	0.665800	0.844900	0.730100
H441	H44	0.335400	0.966500	0.080500
H451	H45	0.269900	0.114800	0.935700
H461	H46	0.297400	0.106700	0.721300
H471	H47	0.702600	0.893300	0.278700
H481	H48	0.616900	0.515200	0.423700
H491	H49	0.966500	0.631100	0.886000
H501	H50	0.423700	0.908500	0.806800
H511	H51	0.091500	0.193200	0.576300
H521	H52	0.893300	0.190700	0.614600
H531	H53	0.091500	0.515200	0.898300
H541	H54	0.368900	0.335400	0.254900
H551	H55	0.193200	0.101700	0.616900
H561	H56	0.423900	0.809300	0.702600
H571	H57	0.886000	0.254900	0.919500
H581	H58	0.919500	0.886000	0.254900
H591	H59	0.844900	0.730100	0.665800
H601	H60	0.721300	0.297400	0.106700
H611	H61	0.297400	0.576100	0.190700
H621	H62	0.806800	0.423700	0.908500
H631	H63	0.334200	0.155100	0.269900
H641	H64	0.114800	0.935700	0.269900
H651	H65	0.269900	0.334200	0.155100
H661	H66	0.935700	0.269900	0.114800
H671	H67	0.935700	0.820900	0.665800
H681	H68	0.484800	0.576300	0.383100
H691	H69	0.179100	0.334200	0.064300
H701	H70	0.383100	0.484800	0.576300
H711	H71	0.385400	0.106700	0.809300
H721	H72	0.745100	0.631100	0.664600
H731	H73	0.383100	0.806800	0.898300
H741	H74	0.515200	0.898300	0.091500
H751	H75	0.721300	0.614600	0.423900
H761	H76	0.919500	0.664600	0.033500
H771	H77	0.898300	0.383100	0.806800
H781	H78	0.820900	0.885200	0.155100
H791	H79	0.155100	0.269900	0.334200
H801	H80	0.893300	0.278700	0.702600
H811	H81	0.908500	0.806800	0.423700
H821	H82	0.106700	0.721300	0.297400
H831	H83	0.033500	0.919500	0.664600
H841	H84	0.576300	0.091500	0.193200
H851	H85	0.576100	0.278700	0.385400
H861	H86	0.576300	0.383100	0.484800
H871	H87	0.730100	0.665800	0.844900
H881	H88	0.423700	0.616900	0.515200
H891	H89	0.614600	0.893300	0.190700
H901	H90	0.335400	0.254900	0.368900
H911	H91	0.886000	0.966500	0.631100
H921	H92	0.114800	0.844900	0.179100
H931	H93	0.254900	0.919500	0.886000
H941	H94	0.101700	0.616900	0.193200
H951	H95	0.064300	0.179100	0.334200
H961	H96	0.114000	0.745100	0.080500
C11	C1	0.545500	0.861200	0.749300
C21	C2	0.986500	0.370500	0.109600
C31	C3	0.111900	0.861200	0.315700
C41	C4	0.260900	0.876900	0.890400
C51	C5	0.892800	0.145800	0.619200
C61	C6	0.203800	0.749300	0.888100
C71	C7	0.250700	0.111900	0.796200
C81	C8	0.103000	0.662800	0.190600
C91	C9	0.816300	0.887500	0.200400
C101	C10	0.103000	0.912400	0.440200
C111	C11	0.109600	0.739100	0.123100
C121	C12	0.876900	0.616000	0.986500
C131	C13	0.726400	0.619200	0.473400
C141	C14	0.384100	0.071200	0.183700
C151	C15	0.273600	0.747000	0.892800
C161	C16	0.190600	0.527800	0.087600
C171	C17	0.897000	0.087600	0.559800
C181	C18	0.138800	0.250700	0.454500
C191	C19	0.123100	0.384000	0.013500
C201	C20	0.749300	0.888100	0.203800
C211	C21	0.071200	0.687100	0.887500
C221	C22	0.107200	0.726400	0.253000
C231	C23	0.123100	0.109600	0.739100
C241	C24	0.615900	0.799600	0.687100
C251	C25	0.380800	0.107200	0.854200
C261	C26	0.472200	0.912400	0.809400
C271	C27	0.190600	0.103000	0.662800
C281	C28	0.799600	0.687100	0.615900
C291	C29	0.527800	0.337200	0.440200
C301	C30	0.749300	0.545500	0.861200
C311	C31	0.615900	0.928800	0.816300
C321	C32	0.747000	0.473400	0.854200
C331	C33	0.726400	0.253000	0.107200
C341	C34	0.380800	0.526600	0.273600
C351	C35	0.887500	0.200400	0.816300
C361	C36	0.472200	0.662800	0.559800
C371	C37	0.897000	0.337200	0.809400
C381	C38	0.384000	0.013500	0.123100
C391	C39	0.370500	0.109600	0.986500
C401	C40	0.200400	0.312900	0.384100
C411	C41	0.183700	0.112500	0.799600
C421	C42	0.526600	0.273600	0.380800
C431	C43	0.986500	0.876900	0.616000
C441	C44	0.816300	0.615900	0.928800
C451	C45	0.337200	0.809400	0.897000
C461	C46	0.384100	0.200400	0.312900
C471	C47	0.454500	0.203800	0.315700
C481	C48	0.559800	0.897000	0.087600
C491	C49	0.662800	0.190600	0.103000
C501	C50	0.887500	0.071200	0.687100
C511	C51	0.111900	0.796200	0.250700
C521	C52	0.454500	0.138800	0.250700
C531	C53	0.526600	0.145800	0.253000
C541	C54	0.890400	0.013500	0.629500
C551	C55	0.559800	0.472200	0.662800
C561	C56	0.747000	0.892800	0.273600
C571	C57	0.888100	0.203800	0.749300
C581	C58	0.273600	0.380800	0.526600
C591	C59	0.928800	0.816300	0.615900
C601	C60	0.112500	0.928800	0.312900
C611	C61	0.861200	0.749300	0.545500
C621	C62	0.315700	0.111900	0.861200
C631	C63	0.107200	0.854200	0.380800
C641	C64	0.384000	0.260900	0.370500
C651	C65	0.440200	0.527800	0.337200
C661	C66	0.629500	0.616000	0.739100
C671	C67	0.796200	0.250700	0.111900
C681	C68	0.619200	0.892800	0.145800
C691	C69	0.662800	0.559800	0.472200
C701	C70	0.854200	0.747000	0.473400
C711	C71	0.253000	0.107200	0.726400
C721	C72	0.687100	0.887500	0.071200
C731	C73	0.809400	0.472200	0.912400
C741	C74	0.312900	0.384100	0.200400
C751	C75	0.260900	0.370500	0.384000
C761	C76	0.109600	0.986500	0.370500
C771	C77	0.337200	0.440200	0.527800
C781	C78	0.145800	0.619200	0.892800
C791	C79	0.619200	0.473400	0.726400
C801	C80	0.854200	0.380800	0.107200
C811	C81	0.876900	0.890400	0.260900
C821	C82	0.527800	0.087600	0.190600
C831	C83	0.250700	0.454500	0.138800
C841	C84	0.183700	0.384100	0.071200
C851	C85	0.013500	0.123100	0.384000
C861	C86	0.616000	0.986500	0.876900
C871	C87	0.112500	0.799600	0.183700
C881	C88	0.312900	0.112500	0.928800
C891	C89	0.087600	0.559800	0.897000
C901	C90	0.928800	0.312900	0.112500
C911	C91	0.253000	0.526600	0.145800
C921	C92	0.739100	0.629500	0.616000
C931	C93	0.200400	0.816300	0.887500
C941	C94	0.912400	0.440200	0.103000
C951	C95	0.370500	0.384000	0.260900
C961	C96	0.809400	0.897000	0.337200
C971	C97	0.545500	0.796200	0.684300
C981	C98	0.684300	0.545500	0.796200
C991	C99	0.013500	0.629500	0.890400
C1001	C100	0.616000	0.739100	0.629500
C1011	C101	0.684300	0.888100	0.138800
C1021	C102	0.473400	0.854200	0.747000
C1031	C103	0.890400	0.260900	0.876900
C1041	C104	0.071200	0.183700	0.384100
C1051	C105	0.861200	0.315700	0.111900
C1061	C106	0.796200	0.684300	0.545500
C1071	C107	0.087600	0.190600	0.527800
C1081	C108	0.687100	0.615900	0.799600
C1091	C109	0.799600	0.183700	0.112500
C1101	C110	0.315700	0.454500	0.203800
C1111	C111	0.440200	0.103000	0.912400
C1121	C112	0.203800	0.315700	0.454500
C1131	C113	0.473400	0.726400	0.619200
C1141	C114	0.739100	0.123100	0.109600
C1151	C115	0.145800	0.253000	0.526600
C1161	C116	0.892800	0.273600	0.747000
C1171	C117	0.888100	0.138800	0.684300
C1181	C118	0.138800	0.684300	0.888100
C1191	C119	0.629500	0.890400	0.013500
C1201	C120	0.912400	0.809400	0.472200
N11	N1	0.126500	0.100900	0.672800
N21	N2	0.428100	0.100900	0.974400
N31	N3	0.974400	0.428100	0.100900
N41	N4	0.672800	0.126500	0.100900
N51	N5	0.899100	0.327200	0.873500
N61	N6	0.546300	0.974400	0.873500
N71	N7	0.327200	0.428100	0.453700
N81	N8	0.428100	0.453700	0.327200
N91	N9	0.899100	0.025600	0.571900
N101	N10	0.672800	0.571900	0.546300
N111	N11	0.327200	0.873500	0.899100
N121	N12	0.571900	0.546300	0.672800
N131	N13	0.025600	0.571900	0.899100
N141	N14	0.126500	0.453700	0.025600
N151	N15	0.025600	0.126500	0.453700
N161	N16	0.100900	0.672800	0.126500
N171	N17	0.571900	0.899100	0.025600
N181	N18	0.453700	0.025600	0.126500
N191	N19	0.974400	0.873500	0.546300
N201	N20	0.100900	0.974400	0.428100
N211	N21	0.873500	0.899100	0.327200
N221	N22	0.453700	0.327200	0.428100
N231	N23	0.873500	0.546300	0.974400
N241	N24	0.546300	0.672800	0.571900
O11	O1	0.614300	0.066400	0.099100
O21	O2	0.515200	0.900900	0.967300
O31	O3	0.614300	0.515200	0.547900
O41	O4	0.967300	0.066400	0.452100
O51	O5	0.515200	0.547900	0.614300
O61	O6	0.452100	0.967300	0.066400
O71	O7	0.385700	0.933600	0.900900
O81	O8	0.933600	0.900900	0.385700
O91	O9	0.933600	0.547900	0.032700
O101	O10	0.066400	0.452100	0.967300
O111	O11	0.547900	0.614300	0.515200
O121	O12	0.900900	0.385700	0.933600
O131	O13	0.900900	0.967300	0.515200
O141	O14	0.484800	0.099100	0.032700
O151	O15	0.032700	0.484800	0.099100
O161	O16	0.099100	0.032700	0.484800
O171	O17	0.066400	0.099100	0.614300
O181	O18	0.547900	0.032700	0.933600
O191	O19	0.484800	0.452100	0.385700
O201	O20	0.967300	0.515200	0.900900
O211	O21	0.452100	0.385700	0.484800
O221	O22	0.032700	0.933600	0.547900
O231	O23	0.099100	0.614300	0.066400
O241	O24	0.385700	0.484800	0.452100
