data_ic102347b_si_001_clean_PM
_symmetry_space_group_name_H-M	'P1'
_cell_length_a	11.123000
_cell_length_b	13.061000
_cell_length_c	21.073000
_cell_angle_alpha	90.000000
_cell_angle_beta	90.000000
_cell_angle_gamma	90.000000
_symmetry_Int_Tables_number 1

loop_
_symmetry_equiv_pos_as_xyz
'x,y,z'

loop_
_atom_site_label
_atom_site_type_symbol
_atom_site_fract_x
_atom_site_fract_y
_atom_site_fract_z
Cu11	Cu1	0.500000	0.644990	0.547350
Cu21	Cu2	0.500000	0.855010	0.047350
H11	H1	0.298100	0.529100	0.604200
H21	H2	0.500000	0.937000	0.658800
H31	H3	0.093200	0.743500	0.985500
H41	H4	0.701900	0.970900	0.104200
H51	H5	0.093200	0.756500	0.485500
H61	H6	0.500000	0.645500	0.759000
H71	H7	0.093200	0.973000	0.107700
H81	H8	0.906800	0.756500	0.485500
H91	H9	0.500000	0.854500	0.259000
H101	H10	0.500000	0.514000	0.313900
H111	H11	0.703100	0.744600	0.988300
H121	H12	0.906800	0.527000	0.607700
H131	H13	0.296900	0.744600	0.988300
H141	H14	0.500000	0.986000	0.813900
H151	H15	0.701900	0.529100	0.604200
H161	H16	0.093200	0.527000	0.607700
H171	H17	0.703100	0.755400	0.488300
H181	H18	0.296900	0.755400	0.488300
H191	H19	0.906800	0.743500	0.985500
H201	H20	0.500000	0.808300	0.364000
H211	H21	0.500000	0.563000	0.158800
H221	H22	0.500000	0.691700	0.864000
H231	H23	0.298100	0.970900	0.104200
H241	H24	0.906800	0.973000	0.107700
C11	C1	0.132700	0.709300	0.511100
C21	C2	0.067300	0.858200	0.047000
C31	C3	0.132300	0.925300	0.082200
C41	C4	0.743900	0.577000	0.580300
C51	C5	0.744700	0.707800	0.512700
C61	C6	0.132300	0.574700	0.582200
C71	C7	0.867700	0.574700	0.582200
C81	C8	0.500000	0.582900	0.302900
C91	C9	0.500000	0.917100	0.802900
C101	C10	0.932700	0.641800	0.547000
C111	C11	0.743900	0.923000	0.080300
C121	C12	0.867700	0.925300	0.082200
C131	C13	0.500000	0.620100	0.417700
C141	C14	0.500000	0.655400	0.349200
C151	C15	0.500000	0.610900	0.238900
C161	C16	0.744700	0.792200	0.012700
C171	C17	0.500000	0.744100	0.153900
C181	C18	0.500000	0.758200	0.332700
C191	C19	0.500000	0.879900	0.917700
C201	C20	0.932700	0.858200	0.047000
C211	C21	0.500000	0.714600	0.769600
C221	C22	0.867300	0.709300	0.511100
C231	C23	0.255300	0.707800	0.512700
C241	C24	0.256100	0.577000	0.580300
C251	C25	0.500000	0.889100	0.738900
C261	C26	0.500000	0.755900	0.653900
C271	C27	0.500000	0.787000	0.721200
C281	C28	0.132700	0.790700	0.011100
C291	C29	0.500000	0.785400	0.269600
C301	C30	0.255300	0.792200	0.012700
C311	C31	0.867300	0.790700	0.011100
C321	C32	0.500000	0.713000	0.221200
C331	C33	0.067300	0.641800	0.547000
C341	C34	0.500000	0.741800	0.832700
C351	C35	0.500000	0.844600	0.849200
C361	C36	0.256100	0.923000	0.080300
N11	N1	0.682500	0.642700	0.546870
N21	N2	0.682500	0.857300	0.046870
N31	N3	0.317500	0.642700	0.546870
N41	N4	0.317500	0.857300	0.046870
O11	O1	0.500000	0.692100	0.459100
O21	O2	0.500000	0.676600	0.111900
O31	O3	0.500000	0.963300	0.694100
O41	O4	0.500000	0.837800	0.141000
O51	O5	0.500000	0.823400	0.611900
O61	O6	0.500000	0.968900	0.930100
O71	O7	0.500000	0.531100	0.430100
O81	O8	0.500000	0.662200	0.641000
O91	O9	0.500000	0.807900	0.959100
O101	O10	0.500000	0.536700	0.194100
Cu31	Cu3	0.500000	0.355010	0.452650
Cu41	Cu4	0.500000	0.144990	0.952650
H251	H25	0.093200	0.243500	0.514500
H261	H26	0.500000	0.014000	0.186100
H271	H27	0.500000	0.486000	0.686100
H281	H28	0.703100	0.255400	0.011700
H291	H29	0.296900	0.255400	0.011700
H301	H30	0.500000	0.145500	0.741000
H311	H31	0.500000	0.437000	0.841200
H321	H32	0.500000	0.191700	0.636000
H331	H33	0.701900	0.470900	0.395800
H341	H34	0.500000	0.354500	0.241000
H351	H35	0.296900	0.244600	0.511700
H361	H36	0.298100	0.470900	0.395800
H371	H37	0.703100	0.244600	0.511700
H381	H38	0.093200	0.256500	0.014500
H391	H39	0.906800	0.256500	0.014500
H401	H40	0.906800	0.473000	0.392300
H411	H41	0.298100	0.029100	0.895800
H421	H42	0.093200	0.027000	0.892300
H431	H43	0.701900	0.029100	0.895800
H441	H44	0.906800	0.243500	0.514500
H451	H45	0.093200	0.473000	0.392300
H461	H46	0.500000	0.063000	0.341200
H471	H47	0.906800	0.027000	0.892300
H481	H48	0.500000	0.308300	0.136000
C371	C37	0.500000	0.110900	0.261100
C381	C38	0.743900	0.077000	0.919700
C391	C39	0.867300	0.290700	0.488900
C401	C40	0.744700	0.292200	0.487300
C411	C41	0.067300	0.141800	0.953000
C421	C42	0.255300	0.207800	0.987300
C431	C43	0.500000	0.389100	0.761100
C441	C44	0.500000	0.417100	0.697100
C451	C45	0.132300	0.425300	0.417800
C461	C46	0.500000	0.213000	0.278800
C471	C47	0.500000	0.379900	0.582300
C481	C48	0.500000	0.255900	0.846100
C491	C49	0.500000	0.287000	0.778800
C501	C50	0.255300	0.292200	0.487300
C511	C51	0.132700	0.209300	0.988900
C521	C52	0.932700	0.358200	0.453000
C531	C53	0.500000	0.155400	0.150800
C541	C54	0.500000	0.120100	0.082300
C551	C55	0.867700	0.425300	0.417800
C561	C56	0.867300	0.209300	0.988900
C571	C57	0.744700	0.207800	0.987300
C581	C58	0.256100	0.423000	0.419700
C591	C59	0.500000	0.082900	0.197100
C601	C60	0.132300	0.074700	0.917800
C611	C61	0.932700	0.141800	0.953000
C621	C62	0.500000	0.241800	0.667300
C631	C63	0.132700	0.290700	0.488900
C641	C64	0.743900	0.423000	0.419700
C651	C65	0.500000	0.344600	0.650800
C661	C66	0.067300	0.358200	0.453000
C671	C67	0.256100	0.077000	0.919700
C681	C68	0.500000	0.258200	0.167300
C691	C69	0.500000	0.244100	0.346100
C701	C70	0.867700	0.074700	0.917800
C711	C71	0.500000	0.214600	0.730400
C721	C72	0.500000	0.285400	0.230400
N51	N5	0.682500	0.357300	0.453130
N61	N6	0.317500	0.142700	0.953130
N71	N7	0.317500	0.357300	0.453130
N81	N8	0.682500	0.142700	0.953130
O111	O11	0.500000	0.323400	0.888100
O121	O12	0.500000	0.468900	0.569900
O131	O13	0.500000	0.031100	0.069900
O141	O14	0.500000	0.192100	0.040900
O151	O15	0.500000	0.337800	0.359000
O161	O16	0.500000	0.176600	0.388100
O171	O17	0.500000	0.307900	0.540900
O181	O18	0.500000	0.463300	0.805900
O191	O19	0.500000	0.036700	0.305900
O201	O20	0.500000	0.162200	0.859000
