data_ic101935f_si_002_auto_PM
_symmetry_space_group_name_H-M	'P1'
_cell_length_a	27.260000
_cell_length_b	27.260000
_cell_length_c	27.260000
_cell_angle_alpha	90.000000
_cell_angle_beta	90.000000
_cell_angle_gamma	90.000000
_symmetry_Int_Tables_number 1

loop_
_symmetry_equiv_pos_as_xyz
'x,y,z'

loop_
_atom_site_label
_atom_site_type_symbol
_atom_site_fract_x
_atom_site_fract_y
_atom_site_fract_z
N11	N1	0.248230	0.294700	0.389230
H21	H2	0.256720	0.266010	0.413230
N31	N3	0.277770	0.342750	0.320010
C41	C4	0.130500	0.388060	0.433260
C51	C5	0.209140	0.327380	0.403160
C61	C6	0.281130	0.302230	0.348770
C71	C7	0.159940	0.363830	0.468030
H81	H8	0.153060	0.367980	0.506930
C91	C9	0.198600	0.333730	0.453070
H101	H10	0.220600	0.315320	0.480560
C111	C11	0.140690	0.381290	0.383110
H121	H12	0.118310	0.398850	0.355390
C131	C13	0.179410	0.350940	0.368180
H141	H14	0.185130	0.345030	0.329370
N151	N15	0.387330	0.240610	0.292950
H161	H16	0.403640	0.241620	0.258260
N171	N17	0.317340	0.269100	0.340200
C181	C18	0.431530	0.123970	0.387410
C191	C19	0.400560	0.201180	0.325450
C201	C20	0.349990	0.276280	0.303220
C211	C21	0.428460	0.117140	0.336350
H221	H22	0.438220	0.082310	0.319920
C231	C23	0.413630	0.155540	0.305740
H241	H24	0.412160	0.149660	0.266480
C251	C25	0.418940	0.170000	0.407100
H261	H26	0.421180	0.176560	0.446220
C271	C27	0.403560	0.208230	0.376420
H281	H28	0.395200	0.243580	0.392420
N291	N29	0.305110	0.393440	0.252940
H301	H30	0.279700	0.419520	0.265000
N311	N31	0.345890	0.316690	0.274320
C321	C32	0.392610	0.436920	0.130560
C331	C33	0.372380	0.471690	0.162810
H341	H34	0.378240	0.510560	0.157100
C351	C35	0.344390	0.456780	0.203020
H361	H36	0.329130	0.484340	0.227240
C371	C37	0.336020	0.406880	0.212230
C381	C38	0.355430	0.371930	0.179580
H391	H39	0.347680	0.333310	0.184030
C401	C40	0.383900	0.386820	0.139420
H411	H41	0.398370	0.359170	0.114850
C421	C42	0.309630	0.349950	0.282380
N431	N43	0.237040	0.687270	0.888980
H441	H44	0.227120	0.714820	0.913760
N451	N45	0.211320	0.642190	0.816190
C461	C46	0.356110	0.595910	0.933930
C471	C47	0.276590	0.655160	0.903070
C481	C48	0.205090	0.680350	0.847620
C491	C49	0.325340	0.618840	0.968410
H501	H50	0.331450	0.614180	0.007390
C511	C51	0.286240	0.648190	0.953090
H521	H52	0.263220	0.665560	0.980410
C531	C53	0.346810	0.603270	0.883680
H541	H54	0.370230	0.586720	0.856190
C551	C55	0.307690	0.632950	0.868370
H561	H56	0.302790	0.639440	0.829560
N571	N57	0.093970	0.737240	0.795860
H581	H58	0.069190	0.727320	0.768320
N591	N59	0.166760	0.711510	0.840950
C601	C60	0.049020	0.856300	0.887230
C611	C61	0.079880	0.776790	0.827980
C621	C62	0.135330	0.705280	0.802790
C631	C63	0.014540	0.825530	0.864300
H641	H64	0.975560	0.831630	0.868960
C651	C65	0.029860	0.786430	0.834950
H661	H66	0.002540	0.763410	0.817580
C671	C67	0.099260	0.847000	0.879870
H681	H68	0.126760	0.870420	0.896420
C691	C69	0.114580	0.807880	0.850190
H701	H70	0.153390	0.802980	0.843700
N711	N71	0.187080	0.594160	0.745900
H721	H72	0.214630	0.569380	0.755820
N731	N73	0.142000	0.666950	0.771630
C741	C74	0.095720	0.549210	0.626840
C751	C75	0.118650	0.514730	0.657610
H761	H76	0.113990	0.475750	0.651500
C771	C77	0.148000	0.530050	0.696700
H781	H78	0.165370	0.502730	0.719730
C791	C79	0.154970	0.580070	0.706350
C801	C80	0.132760	0.614770	0.675260
H811	H81	0.139250	0.653580	0.680160
C821	C82	0.103080	0.599460	0.636140
H831	H83	0.086530	0.626950	0.612720
C841	C84	0.180160	0.635520	0.777860
N851	N85	0.730010	0.805300	0.089700
H861	H86	0.717950	0.779890	0.063620
N871	N87	0.708630	0.846080	0.166450
C881	C88	0.852380	0.892800	0.046220
C891	C89	0.770710	0.836210	0.076260
C901	C90	0.700570	0.809820	0.133190
C911	C91	0.820130	0.872570	0.011450
H921	H92	0.825850	0.878440	0.972580
C931	C93	0.779920	0.844580	0.026360
H941	H94	0.755710	0.829330	0.998810
C951	C95	0.843520	0.884090	0.096320
H961	H96	0.868100	0.898560	0.123970
C971	C97	0.803370	0.855630	0.111210
H981	H98	0.798920	0.847880	0.149830
N991	N99	0.593720	0.748420	0.188440
H1001	H100	0.569720	0.756900	0.217130
N1011	N101	0.662940	0.777960	0.140390
C1021	C102	0.549690	0.630690	0.095080
C1031	C103	0.579790	0.709330	0.155750
C1041	C104	0.634180	0.781320	0.180910
C1051	C105	0.514920	0.660130	0.119300
H1061	H106	0.476020	0.653250	0.115160
C1071	C107	0.529880	0.698790	0.149410
H1081	H108	0.502390	0.720790	0.167810
C1091	C109	0.599840	0.640880	0.101850
H1101	H110	0.627560	0.618500	0.084290
C1111	C111	0.614770	0.679600	0.132190
H1121	H112	0.653580	0.685320	0.138110
N1131	N113	0.690000	0.887520	0.242530
H1141	H114	0.724690	0.903830	0.241520
N1151	N115	0.642740	0.817530	0.214040
C1161	C116	0.595540	0.931720	0.359170
C1171	C117	0.575850	0.919130	0.313140
H1181	H118	0.536730	0.921370	0.306570
C1191	C119	0.606520	0.903750	0.274910
H1201	H120	0.590520	0.895390	0.239560
C1211	C121	0.657500	0.900750	0.281960
C1221	C122	0.677210	0.913820	0.327600
H1231	H123	0.716470	0.912350	0.333480
C1241	C124	0.646590	0.928650	0.366000
H1251	H125	0.663020	0.938410	0.400820
C1261	C126	0.679720	0.850180	0.206860
N1271	N127	0.740410	0.190190	0.595620
H1281	H128	0.741430	0.224880	0.579310
N1291	N129	0.768910	0.142940	0.665610
C1301	C130	0.623770	0.095730	0.551420
C1311	C131	0.700990	0.157690	0.582380
C1321	C132	0.776080	0.179920	0.632960
C1331	C133	0.616950	0.146790	0.554490
H1341	H134	0.582120	0.163210	0.544730
C1351	C135	0.655340	0.177400	0.569330
H1361	H136	0.649470	0.216660	0.570790
C1371	C137	0.669810	0.076040	0.564010
H1381	H138	0.676370	0.036920	0.561770
C1391	C139	0.708030	0.106720	0.579390
H1401	H140	0.743390	0.090720	0.587740
N1411	N141	0.893250	0.230200	0.677830
H1421	H142	0.919330	0.218140	0.703250
N1431	N143	0.816500	0.208820	0.637060
C1441	C144	0.936730	0.352580	0.590340
C1451	C145	0.906690	0.270900	0.646930
C1461	C146	0.849760	0.200760	0.673320
C1471	C147	0.971500	0.320330	0.610570
H1481	H148	0.010370	0.326050	0.604710
C1491	C149	0.956590	0.280120	0.638560
H1501	H150	0.984140	0.255900	0.653820
C1511	C151	0.886630	0.343720	0.599050
H1521	H152	0.858980	0.368290	0.584570
C1531	C153	0.871740	0.303560	0.627510
H1541	H154	0.833120	0.299110	0.635260
N1551	N155	0.794510	0.093910	0.734720
H1561	H156	0.765820	0.069910	0.726230
N1571	N157	0.842560	0.163130	0.705180
C1581	C158	0.887870	0.049880	0.852450
C1591	C159	0.863640	0.015120	0.823010
H1601	H160	0.867790	0.976210	0.829890
C1611	C161	0.833540	0.030070	0.784350
H1621	H162	0.815140	0.002580	0.762350
C1631	C163	0.827190	0.079980	0.773810
C1641	C164	0.850750	0.114960	0.803540
H1651	H165	0.844830	0.153770	0.797820
C1661	C166	0.881100	0.100030	0.842260
H1671	H167	0.898650	0.127750	0.864640
C1681	C168	0.802030	0.134370	0.701820
N1691	N169	0.740360	0.686780	0.595080
H1701	H170	0.737860	0.720760	0.577480
N1711	N171	0.714800	0.641620	0.667690
C1721	C172	0.858620	0.595050	0.549620
C1731	C173	0.780550	0.655190	0.582000
C1741	C174	0.705970	0.677120	0.633780
C1751	C175	0.813740	0.574190	0.564380
H1761	H176	0.808390	0.534850	0.563230
C1771	C177	0.775110	0.603970	0.580540
H1781	H178	0.740600	0.587090	0.590550
C1791	C179	0.863950	0.646310	0.551470
H1801	H180	0.897870	0.663580	0.540070
C1811	C181	0.825100	0.676020	0.566960
H1821	H182	0.829700	0.715470	0.567240
N1831	N183	0.590530	0.728890	0.681240
H1841	H184	0.564940	0.717340	0.707380
N1851	N185	0.665510	0.705870	0.638290
C1861	C186	0.546670	0.851020	0.593510
C1871	C187	0.576870	0.769440	0.650200
C1881	C188	0.633920	0.699380	0.676290
C1891	C189	0.511950	0.819070	0.614330
H1901	H190	0.473040	0.825020	0.608940
C1911	C191	0.526940	0.778920	0.642400
H1921	H192	0.499430	0.754990	0.658160
C1931	C193	0.596810	0.841860	0.601660
H1941	H194	0.624460	0.866150	0.586720
C1951	C195	0.611780	0.801730	0.630120
H1961	H196	0.650480	0.796980	0.637360
N1971	N197	0.693760	0.597670	0.741740
H1981	H198	0.729300	0.583280	0.742170
N1991	N199	0.642860	0.663470	0.709650
C2001	C200	0.598990	0.551890	0.857650
C2011	C201	0.649700	0.557610	0.865350
H2021	H202	0.665860	0.549700	0.900770
C2031	C203	0.680360	0.572890	0.827170
H2041	H204	0.719350	0.576500	0.833810
C2051	C205	0.661040	0.583730	0.780770
C2061	C206	0.610440	0.577920	0.772780
H2071	H207	0.594810	0.584410	0.736880
C2081	C208	0.579710	0.562160	0.810860
H2091	H209	0.540900	0.557820	0.803590
C2101	C210	0.683030	0.634280	0.705410
N2111	N211	0.745580	0.295580	0.094470
H2121	H212	0.746970	0.261120	0.077700
N2131	N213	0.773220	0.342750	0.164990
C2141	C214	0.628120	0.388910	0.050120
C2151	C215	0.705870	0.327740	0.081310
C2161	C216	0.779950	0.304860	0.133280
C2171	C217	0.673850	0.409080	0.063070
H2181	H218	0.679970	0.448280	0.061030
C2191	C219	0.712350	0.378790	0.078590
H2201	H220	0.747480	0.395130	0.087240
C2211	C221	0.621850	0.337780	0.052970
H2221	H222	0.587270	0.321000	0.042940
C2231	C223	0.660520	0.307570	0.067900
H2241	H224	0.655100	0.268230	0.069150
N2251	N225	0.888480	0.245770	0.187560
H2261	H226	0.905250	0.247160	0.222020
N2271	N227	0.817960	0.273410	0.140390
C2281	C228	0.932830	0.128310	0.094240
C2291	C229	0.901640	0.206060	0.155400
C2301	C230	0.849670	0.280150	0.178280
C2311	C231	0.919880	0.174040	0.074060
H2321	H232	0.921910	0.180160	0.034860
C2331	C233	0.904360	0.212540	0.104350
H2341	H234	0.895710	0.247670	0.088010
C2351	C235	0.929980	0.122040	0.145360
H2361	H236	0.940010	0.087460	0.162150
C2371	C237	0.915050	0.160710	0.175570
H2381	H238	0.913790	0.155290	0.214910
N2391	N239	0.795390	0.388670	0.237370
H2401	H240	0.760930	0.405440	0.235980
N2411	N241	0.842560	0.318150	0.209730
C2421	C242	0.888710	0.433020	0.354830
C2431	C243	0.837590	0.430160	0.361100
H2441	H244	0.820810	0.440190	0.395680
C2451	C245	0.807380	0.415240	0.322430
H2461	H246	0.768040	0.413980	0.327860
C2471	C247	0.827550	0.401830	0.277080
C2481	C248	0.878600	0.404550	0.270600
H2491	H249	0.894940	0.395910	0.235460
C2501	C250	0.908890	0.420070	0.309090
H2511	H251	0.948090	0.422110	0.302980
C2521	C252	0.804670	0.349860	0.202990
N2531	N253	0.241210	0.193950	0.885470
H2541	H254	0.240780	0.229490	0.899860
N2551	N255	0.273300	0.143050	0.819670
C2561	C256	0.125290	0.099180	0.931250
C2571	C257	0.202180	0.161230	0.899410
C2581	C258	0.277540	0.183220	0.848860
C2591	C259	0.172080	0.079910	0.920980
H2601	H260	0.179360	0.041090	0.925320
C2611	C261	0.210160	0.110630	0.905220
H2621	H262	0.246070	0.095000	0.898730
C2631	C263	0.117600	0.149890	0.925540
H2641	H264	0.082180	0.166050	0.933450
C2651	C265	0.155780	0.180550	0.910250
H2661	H266	0.149140	0.219550	0.906640
N2671	N267	0.387870	0.240550	0.796360
H2681	H268	0.405470	0.238050	0.762380
N2691	N269	0.315260	0.214990	0.841520
C2701	C270	0.433330	0.358810	0.888090
C2711	C271	0.400950	0.280740	0.827950
C2721	C272	0.349170	0.206160	0.806020
C2731	C273	0.418570	0.313930	0.908940
H2741	H274	0.419720	0.308580	0.948290
C2751	C275	0.402410	0.275300	0.879170
H2761	H276	0.392410	0.240790	0.896050
C2771	C277	0.431470	0.364140	0.836820
H2781	H278	0.442870	0.398060	0.819560
C2791	C279	0.415990	0.325290	0.807120
H2801	H280	0.415710	0.329890	0.767660
N2811	N281	0.301710	0.090720	0.754250
H2821	H282	0.275570	0.065130	0.765800
N2831	N283	0.344660	0.165700	0.777270
C2841	C284	0.389440	0.046850	0.632110
C2851	C285	0.368620	0.012130	0.664070
H2861	H286	0.374010	0.973230	0.658120
C2871	C287	0.340550	0.027130	0.704220
H2881	H288	0.324790	0.999620	0.728150
C2891	C289	0.332750	0.077060	0.713700
C2901	C290	0.352830	0.111970	0.681420
H2911	H291	0.345590	0.150670	0.686170
C2921	C292	0.381290	0.097000	0.641280
H2931	H293	0.396240	0.124650	0.616990
C2941	C294	0.306660	0.134110	0.783760
N2951	N295	0.228700	0.801900	0.392420
H2961	H296	0.217150	0.775770	0.418010
N2971	N297	0.205680	0.844850	0.317440
C2981	C298	0.350830	0.889630	0.436280
C2991	C299	0.269240	0.832940	0.406080
C3001	C300	0.199190	0.806850	0.349030
C3011	C301	0.318880	0.868810	0.471000
H3021	H302	0.324830	0.874200	0.509910
C3031	C303	0.278730	0.840740	0.456010
H3041	H304	0.254800	0.824980	0.483520
C3051	C305	0.341670	0.881480	0.386140
H3061	H306	0.365960	0.896430	0.358490
C3071	C307	0.301530	0.853030	0.371160
H3081	H308	0.296780	0.845790	0.332470
N3091	N309	0.097470	0.741400	0.289190
H3101	H310	0.083080	0.740970	0.253650
N3111	N311	0.163280	0.773490	0.340090
C3121	C312	0.051700	0.625490	0.383960
C3131	C313	0.083530	0.702370	0.321910
C3141	C314	0.134090	0.777730	0.299920
C3151	C315	0.061970	0.672280	0.403240
H3161	H316	0.057620	0.679550	0.442050
C3171	C317	0.077720	0.710360	0.372520
H3181	H318	0.084210	0.746260	0.388140
C3191	C319	0.057410	0.617790	0.333250
H3201	H320	0.049500	0.582380	0.317090
C3211	C321	0.072700	0.655980	0.302590
H3221	H322	0.076310	0.649340	0.263600
N3231	N323	0.186590	0.888060	0.242580
H3241	H324	0.220570	0.905650	0.245090
N3251	N325	0.141430	0.815450	0.268150
C3261	C326	0.094860	0.933520	0.124330
C3271	C327	0.146130	0.931670	0.118990
H3281	H328	0.163390	0.943070	0.085080
C3291	C329	0.175830	0.916180	0.157840
H3301	H330	0.215290	0.915910	0.153250
C3311	C331	0.155000	0.901140	0.202400
C3321	C332	0.103780	0.902600	0.207840
H3331	H333	0.086900	0.892590	0.242350
C3341	C334	0.074000	0.918760	0.169210
H3351	H335	0.034660	0.919910	0.174560
C3361	C336	0.176930	0.849360	0.276970
Zn3371	Zn337	0.055340	0.974400	0.983250
Zn3381	Zn338	0.984330	0.057490	0.970000
Zn3391	Zn339	0.952680	0.954600	0.950880
Zn3401	Zn340	0.971570	0.987060	0.053550
O3411	O341	0.991070	0.993450	0.989480
O3421	O342	0.094040	0.022770	0.960340
O3431	O343	0.943280	0.064830	0.918700
O3441	O344	0.986790	0.908070	0.919590
O3451	O345	0.041630	0.084120	0.951350
O3461	O346	0.063200	0.923140	0.942160
O3471	O347	0.921110	0.988210	0.904270
O3481	O348	0.919750	0.946760	0.061010
O3491	O349	0.961150	0.096290	0.017990
O3501	O350	0.905850	0.923440	0.984630
O3511	O351	0.953430	0.044590	0.080100
O3521	O352	0.019210	0.963140	0.092270
O3531	O353	0.081510	0.955400	0.040770
C3541	C354	0.084880	0.066940	0.948480
C3551	C355	0.919140	0.033560	0.893940
C3561	C356	0.032240	0.898030	0.917970
C3571	C357	0.894960	0.922520	0.029890
C3581	C358	0.949960	0.087590	0.062400
C3591	C359	0.063520	0.951550	0.083630
Zn3601	Zn360	0.470700	0.983180	0.429030
Zn3611	Zn361	0.451150	0.951340	0.531800
Zn3621	Zn362	0.553920	0.970890	0.499960
Zn3631	Zn363	0.482990	0.054110	0.512250
O3641	O364	0.489760	0.989950	0.493190
O3651	O365	0.418940	0.942750	0.421490
O3661	O366	0.484880	0.904030	0.562330
O3671	O367	0.580730	0.952580	0.442660
O3681	O368	0.403840	0.920810	0.498070
O3691	O369	0.518890	0.959740	0.390560
O3701	O370	0.561460	0.919130	0.540390
O3711	O371	0.540290	0.080920	0.530560
O3721	O372	0.420620	0.985070	0.579110
O3731	O373	0.592390	0.019080	0.523400
O3741	O374	0.442550	0.061650	0.564010
O3751	O375	0.459550	0.092580	0.464060
O3761	O376	0.452390	0.040480	0.402220
C3771	C377	0.393470	0.919270	0.452690
C3781	C378	0.530260	0.893660	0.563870
C3791	C379	0.563300	0.948800	0.399590
C3801	C380	0.583360	0.063490	0.534340
C3811	C381	0.419080	0.030450	0.589470
C3821	C382	0.448610	0.083550	0.419650
Zn3831	Zn383	0.929400	0.471760	0.496080
Zn3841	Zn384	0.032070	0.452870	0.528540
Zn3851	Zn385	0.012950	0.484530	0.425650
Zn3861	Zn386	0.999700	0.555530	0.508740
O3871	O387	0.993470	0.491260	0.489690
O3881	O388	0.921940	0.419940	0.536380
O3891	O389	0.078680	0.421300	0.494930
O3901	O390	0.964960	0.461340	0.386850
O3911	O391	0.998320	0.406050	0.559700
O3921	O392	0.902850	0.453620	0.438550
O3931	O393	0.064250	0.443470	0.418310
O3941	O394	0.022610	0.594230	0.460370
O3951	O395	0.063360	0.486980	0.575060
O3961	O396	0.031600	0.541820	0.399020
O3971	O397	0.040790	0.563390	0.560000
O3981	O398	0.942180	0.581700	0.527740
O3991	O399	0.890680	0.519400	0.520000
C4001	C400	0.953060	0.395150	0.560620
C4011	C401	0.089010	0.419340	0.449580
C4021	C402	0.920550	0.450160	0.395550
C4031	C403	0.034470	0.585070	0.416200
C4041	C404	0.064980	0.532430	0.585110
C4051	C405	0.899320	0.563710	0.531590
Zn4061	Zn406	0.486870	0.429590	0.011380
Zn4071	Zn407	0.474210	0.499890	0.927610
Zn4081	Zn408	0.454410	0.532260	0.030270
Zn4091	Zn409	0.557300	0.513140	0.998610
O4101	O410	0.493260	0.493660	0.991880
O4111	O411	0.462950	0.390870	0.963740
O4121	O412	0.422950	0.540980	0.919750
O4131	O413	0.423250	0.498510	0.077090
O4141	O414	0.455210	0.442370	0.901440
O4151	O415	0.446570	0.422130	0.063190
O4161	O416	0.407890	0.563550	0.996160
O4171	O417	0.564640	0.564440	0.039660
O4181	O418	0.522580	0.522800	0.888910
O4191	O419	0.488020	0.578870	0.061840
O4201	O420	0.583930	0.531790	0.941320
O4211	O421	0.596100	0.465150	0.021800
O4221	O422	0.544400	0.403040	0.029510
C4231	C423	0.451360	0.399510	0.919430
C4241	C424	0.397840	0.565170	0.950710
C4251	C425	0.422320	0.453250	0.087990
C4261	C426	0.533370	0.589200	0.063800
C4271	C427	0.566750	0.534660	0.898060
C4281	C428	0.587400	0.420740	0.032980
