data_ic100188w_si_002_clean_PM
_symmetry_space_group_name_H-M	'P1'
_cell_length_a	15.321000
_cell_length_b	15.321000
_cell_length_c	15.321000
_cell_angle_alpha	105.197000
_cell_angle_beta	105.197000
_cell_angle_gamma	105.197000
_symmetry_Int_Tables_number 1

loop_
_symmetry_equiv_pos_as_xyz
'x,y,z'

loop_
_atom_site_label
_atom_site_type_symbol
_atom_site_fract_x
_atom_site_fract_y
_atom_site_fract_z
Ni11	Ni1	0.208990	0.425440	0.873170
Ni21	Ni2	0.074560	0.291010	0.626830
Ni31	Ni3	0.873170	0.208990	0.425440
Ni41	Ni4	0.791010	0.574560	0.126830
Ni51	Ni5	0.925440	0.708990	0.373170
Ni61	Ni6	0.574560	0.126830	0.791010
Ni71	Ni7	0.126830	0.791010	0.574560
Ni81	Ni8	0.708990	0.373170	0.925440
Ni91	Ni9	0.291010	0.626830	0.074560
Ni101	Ni10	0.373170	0.925440	0.708990
Ni111	Ni11	0.425440	0.873170	0.208990
Ni121	Ni12	0.626830	0.074560	0.291010
H11	H1	0.170100	0.140200	0.547500
H21	H2	0.049100	0.079400	0.795800
H31	H3	0.795800	0.049100	0.079400
H41	H4	0.874600	0.130100	0.844200
H51	H5	0.155800	0.125400	0.869900
H61	H6	0.579400	0.549100	0.295800
H71	H7	0.547500	0.170100	0.140200
H81	H8	0.369900	0.625400	0.655800
H91	H9	0.329900	0.952500	0.359800
H101	H10	0.625400	0.655800	0.369900
H111	H11	0.420600	0.450900	0.704200
H121	H12	0.047500	0.640200	0.670100
H131	H13	0.869900	0.155800	0.125400
H141	H14	0.859800	0.452500	0.829900
H151	H15	0.125400	0.869900	0.155800
H161	H16	0.359800	0.329900	0.952500
H171	H17	0.920600	0.204200	0.950900
H181	H18	0.374600	0.344200	0.630100
H191	H19	0.950900	0.920600	0.204200
H201	H20	0.549100	0.295800	0.579400
H211	H21	0.655800	0.369900	0.625400
H221	H22	0.295800	0.579400	0.549100
H231	H23	0.079400	0.795800	0.049100
H241	H24	0.630100	0.374600	0.344200
H251	H25	0.452500	0.829900	0.859800
H261	H26	0.450900	0.704200	0.420600
H271	H27	0.640200	0.670100	0.047500
H281	H28	0.344200	0.630100	0.374600
H291	H29	0.704200	0.420600	0.450900
H301	H30	0.130100	0.844200	0.874600
H311	H31	0.204200	0.950900	0.920600
H321	H32	0.829900	0.859800	0.452500
H331	H33	0.952500	0.359800	0.329900
H341	H34	0.844200	0.874600	0.130100
H351	H35	0.140200	0.547500	0.170100
H361	H36	0.670100	0.047500	0.640200
C11	C1	0.873610	0.793570	0.216010
C21	C2	0.958620	0.626020	0.043800
C31	C3	0.126390	0.206430	0.783990
C41	C4	0.107780	0.119080	0.502720
C51	C5	0.458620	0.543800	0.126020
C61	C6	0.389120	0.384160	0.696490
C71	C7	0.803510	0.115840	0.110880
C81	C8	0.293570	0.373610	0.716010
C91	C9	0.119080	0.502720	0.107780
C101	C10	0.793570	0.216010	0.873610
C111	C11	0.110880	0.803510	0.115840
C121	C12	0.502720	0.107780	0.119080
C131	C13	0.497280	0.892220	0.880920
C141	C14	0.607780	0.002720	0.619080
C151	C15	0.126020	0.458620	0.543800
C161	C16	0.880920	0.497280	0.892220
C171	C17	0.303510	0.610880	0.615840
C181	C18	0.892220	0.880920	0.497280
C191	C19	0.889120	0.196490	0.884160
C201	C20	0.115840	0.110880	0.803510
C211	C21	0.002720	0.619080	0.607780
C221	C22	0.696490	0.389120	0.384160
C231	C23	0.610880	0.615840	0.303510
C241	C24	0.619080	0.607780	0.002720
C251	C25	0.216010	0.873610	0.793570
C261	C26	0.626020	0.043800	0.958620
C271	C27	0.873980	0.541380	0.456200
C281	C28	0.626390	0.283990	0.706430
C291	C29	0.716010	0.293570	0.373610
C301	C30	0.543800	0.126020	0.458620
C311	C31	0.380920	0.392220	0.997280
C321	C32	0.456200	0.873980	0.541380
C331	C33	0.196490	0.884160	0.889120
C341	C34	0.706430	0.626390	0.283990
C351	C35	0.043800	0.958620	0.626020
C361	C36	0.041380	0.373980	0.956200
C371	C37	0.783990	0.126390	0.206430
C381	C38	0.392220	0.997280	0.380920
C391	C39	0.373980	0.956200	0.041380
C401	C40	0.384160	0.696490	0.389120
C411	C41	0.373610	0.716010	0.293570
C421	C42	0.615840	0.303510	0.610880
C431	C43	0.997280	0.380920	0.392220
C441	C44	0.884160	0.889120	0.196490
C451	C45	0.206430	0.783990	0.126390
C461	C46	0.541380	0.456200	0.873980
C471	C47	0.956200	0.041380	0.373980
C481	C48	0.283990	0.706430	0.626390
S11	S1	0.989120	0.591800	0.942130
S21	S2	0.150730	0.029510	0.722970
S31	S3	0.722970	0.150730	0.029510
S41	S4	0.529510	0.650730	0.222970
S51	S5	0.349270	0.777030	0.470490
S61	S6	0.091800	0.489120	0.442130
S71	S7	0.777030	0.470490	0.349270
S81	S8	0.510880	0.557870	0.908200
S91	S9	0.849270	0.970490	0.277030
S101	S10	0.408200	0.057870	0.010880
S111	S11	0.029510	0.722970	0.150730
S121	S12	0.908200	0.510880	0.557870
S131	S13	0.222970	0.529510	0.650730
S141	S14	0.557870	0.908200	0.510880
S151	S15	0.489120	0.442130	0.091800
S161	S16	0.442130	0.091800	0.489120
S171	S17	0.650730	0.222970	0.529510
S181	S18	0.057870	0.010880	0.408200
S191	S19	0.591800	0.942130	0.989120
S201	S20	0.470490	0.349270	0.777030
S211	S21	0.942130	0.989120	0.591800
S221	S22	0.277030	0.849270	0.970490
S231	S23	0.970490	0.277030	0.849270
S241	S24	0.010880	0.408200	0.057870
N11	N1	0.525400	0.757700	0.029100
N21	N2	0.097510	0.402490	0.750000
N31	N3	0.704800	0.376800	0.114800
N41	N4	0.992970	0.330700	0.448220
N51	N5	0.548550	0.250000	0.951450
N61	N6	0.876800	0.204800	0.614800
N71	N7	0.875440	0.568800	0.036660
N81	N8	0.669300	0.551780	0.007030
N91	N9	0.651900	0.832200	0.164600
N101	N10	0.551780	0.007030	0.669300
N111	N11	0.375440	0.536660	0.068800
N121	N12	0.007030	0.669300	0.551780
N131	N13	0.750000	0.048550	0.451450
N141	N14	0.431200	0.963340	0.124560
N151	N15	0.295200	0.623200	0.885200
N161	N16	0.507030	0.051780	0.169300
N171	N17	0.330700	0.448220	0.992970
N181	N18	0.423330	0.076670	0.750000
N191	N19	0.332200	0.151900	0.664600
N201	N20	0.848100	0.335400	0.667800
N211	N21	0.448220	0.992970	0.330700
N221	N22	0.951450	0.548550	0.250000
N231	N23	0.164600	0.651900	0.832200
N241	N24	0.204800	0.614800	0.876800
N251	N25	0.076670	0.750000	0.423330
N261	N26	0.835400	0.348100	0.167800
N271	N27	0.597510	0.250000	0.902490
N281	N28	0.624560	0.463340	0.931200
N291	N29	0.036660	0.875440	0.568800
N301	N30	0.250000	0.576670	0.923330
N311	N31	0.124560	0.431200	0.963340
N321	N32	0.250000	0.902490	0.597510
N331	N33	0.068800	0.375440	0.536660
N341	N34	0.757700	0.029100	0.525400
N351	N35	0.832200	0.164600	0.651900
N361	N36	0.492970	0.948220	0.830700
N371	N37	0.923330	0.250000	0.576670
N381	N38	0.385200	0.123200	0.795200
N391	N39	0.885200	0.295200	0.623200
N401	N40	0.948220	0.830700	0.492970
N411	N41	0.750000	0.097510	0.402490
N421	N42	0.667800	0.848100	0.335400
N431	N43	0.970900	0.474600	0.242300
N441	N44	0.167800	0.835400	0.348100
N451	N45	0.742300	0.974600	0.470900
N461	N46	0.664600	0.332200	0.151900
N471	N47	0.123200	0.795200	0.385200
N481	N48	0.830700	0.492970	0.948220
N491	N49	0.051780	0.169300	0.507030
N501	N50	0.750000	0.423330	0.076670
N511	N51	0.536660	0.068800	0.375440
N521	N52	0.474600	0.242300	0.970900
N531	N53	0.376800	0.114800	0.704800
N541	N54	0.114800	0.704800	0.376800
N551	N55	0.029100	0.525400	0.757700
N561	N56	0.250000	0.951450	0.548550
N571	N57	0.931200	0.624560	0.463340
N581	N58	0.568800	0.036660	0.875440
N591	N59	0.451450	0.750000	0.048550
N601	N60	0.169300	0.507030	0.051780
N611	N61	0.025400	0.529100	0.257700
N621	N62	0.963340	0.124560	0.431200
N631	N63	0.795200	0.385200	0.123200
N641	N64	0.614800	0.876800	0.204800
N651	N65	0.623200	0.885200	0.295200
N661	N66	0.348100	0.167800	0.835400
N671	N67	0.048550	0.451450	0.750000
N681	N68	0.902490	0.597510	0.250000
N691	N69	0.402490	0.750000	0.097510
N701	N70	0.576670	0.923330	0.250000
N711	N71	0.470900	0.742300	0.974600
N721	N72	0.974600	0.470900	0.742300
N731	N73	0.335400	0.667800	0.848100
N741	N74	0.151900	0.664600	0.332200
N751	N75	0.463340	0.931200	0.624560
N761	N76	0.242300	0.970900	0.474600
N771	N77	0.529100	0.257700	0.025400
N781	N78	0.257700	0.025400	0.529100
O11	O1	0.854880	0.179480	0.282520
O21	O2	0.782520	0.679480	0.354880
O31	O3	0.802370	0.299770	0.919950
O41	O4	0.217480	0.320520	0.645120
O51	O5	0.200230	0.697630	0.580050
O61	O6	0.179480	0.282520	0.854880
O71	O7	0.282520	0.854880	0.179480
O81	O8	0.080050	0.197630	0.700230
O91	O9	0.820520	0.717480	0.145120
O101	O10	0.419950	0.799770	0.302370
O111	O11	0.299770	0.919950	0.802370
O121	O12	0.354880	0.782520	0.679480
O131	O13	0.302370	0.419950	0.799770
O141	O14	0.717480	0.145120	0.820520
O151	O15	0.697630	0.580050	0.200230
O161	O16	0.320520	0.645120	0.217480
O171	O17	0.580050	0.200230	0.697630
O181	O18	0.679480	0.354880	0.782520
O191	O19	0.799770	0.302370	0.419950
O201	O20	0.700230	0.080050	0.197630
O211	O21	0.145120	0.820520	0.717480
O221	O22	0.645120	0.217480	0.320520
O231	O23	0.919950	0.802370	0.299770
O241	O24	0.197630	0.700230	0.080050
