data_ic202769e_si_002_clean_PM
_symmetry_space_group_name_H-M	'P1'
_cell_length_a	9.972900
_cell_length_b	10.277500
_cell_length_c	23.695000
_cell_angle_alpha	90.000000
_cell_angle_beta	90.000000
_cell_angle_gamma	90.000000
_symmetry_Int_Tables_number 1

loop_
_symmetry_equiv_pos_as_xyz
'x,y,z'

loop_
_atom_site_label
_atom_site_type_symbol
_atom_site_fract_x
_atom_site_fract_y
_atom_site_fract_z
Co11	Co1	0.987570	0.708920	0.213770
Co21	Co2	0.512430	0.208920	0.713770
Co31	Co3	0.012430	0.291080	0.786230
Co41	Co4	0.487570	0.791080	0.286230
Co51	Co5	0.512430	0.708920	0.786230
Co61	Co6	0.012430	0.791080	0.713770
Co71	Co7	0.987570	0.208920	0.286230
Co81	Co8	0.487570	0.291080	0.213770
H11	H1	0.029300	0.329700	0.998000
H21	H2	0.726500	0.600300	0.162000
H31	H3	0.386900	0.755900	0.134000
H41	H4	0.886900	0.744100	0.366000
H51	H5	0.538700	0.891300	0.133000
H61	H6	0.376700	0.920000	0.576400
H71	H7	0.574900	0.882100	0.656900
H81	H8	0.470700	0.329700	0.002000
H91	H9	0.335000	0.613500	0.672300
H101	H10	0.386900	0.255900	0.366000
H111	H11	0.970700	0.670300	0.002000
H121	H12	0.435700	0.690600	0.910800
H131	H13	0.226500	0.899700	0.338000
H141	H14	0.064300	0.190600	0.410800
H151	H15	0.165000	0.113500	0.172300
H161	H16	0.123300	0.420000	0.076400
H171	H17	0.376700	0.420000	0.923600
H181	H18	0.538700	0.391300	0.367000
H191	H19	0.564300	0.309400	0.089200
H201	H20	0.935700	0.809400	0.589200
H211	H21	0.038700	0.608700	0.367000
H221	H22	0.564300	0.809400	0.410800
H231	H23	0.273500	0.899700	0.662000
H241	H24	0.613100	0.244100	0.866000
H251	H25	0.226500	0.399700	0.162000
H261	H26	0.064300	0.690600	0.089200
H271	H27	0.665000	0.886500	0.172300
H281	H28	0.335000	0.113500	0.827700
H291	H29	0.425100	0.117900	0.343100
H301	H30	0.529300	0.170300	0.502000
H311	H31	0.029300	0.829700	0.502000
H321	H32	0.074900	0.617900	0.843100
H331	H33	0.038700	0.108700	0.133000
H341	H34	0.273500	0.399700	0.838000
H351	H35	0.435700	0.190600	0.589200
H361	H36	0.773500	0.100300	0.662000
H371	H37	0.835000	0.386500	0.672300
H381	H38	0.425100	0.617900	0.156900
H391	H39	0.113100	0.755900	0.866000
H401	H40	0.574900	0.382100	0.843100
H411	H41	0.773500	0.600300	0.838000
H421	H42	0.529300	0.670300	0.998000
H431	H43	0.886900	0.244100	0.134000
H441	H44	0.623300	0.080000	0.423600
H451	H45	0.470700	0.829700	0.498000
H461	H46	0.461300	0.608700	0.633000
H471	H47	0.613100	0.744100	0.634000
H481	H48	0.623300	0.580000	0.076400
H491	H49	0.665000	0.386500	0.327700
H501	H50	0.123300	0.920000	0.423600
H511	H51	0.925100	0.382100	0.156900
H521	H52	0.165000	0.613500	0.327700
H531	H53	0.113100	0.255900	0.634000
H541	H54	0.726500	0.100300	0.338000
H551	H55	0.961300	0.391300	0.633000
H561	H56	0.461300	0.108700	0.867000
H571	H57	0.876700	0.580000	0.923600
H581	H58	0.835000	0.886500	0.827700
H591	H59	0.876700	0.080000	0.576400
H601	H60	0.970700	0.170300	0.498000
H611	H61	0.961300	0.891300	0.867000
H621	H62	0.935700	0.309400	0.910800
H631	H63	0.925100	0.882100	0.343100
H641	H64	0.074900	0.117900	0.656900
C11	C1	0.986600	0.998300	0.794450
C21	C2	0.918100	0.157400	0.466040
C31	C3	0.526200	0.169600	0.586480
C41	C4	0.486600	0.001700	0.794450
C51	C5	0.473800	0.330400	0.086480
C61	C6	0.214400	0.208900	0.705870
C71	C7	0.081900	0.842600	0.533960
C81	C8	0.513400	0.998300	0.205550
C91	C9	0.275600	0.383100	0.129460
C101	C10	0.513400	0.498300	0.294450
C111	C11	0.581900	0.157400	0.533960
C121	C12	0.973800	0.169600	0.413520
C131	C13	0.093100	0.707000	0.832050
C141	C14	0.786800	0.103800	0.577880
C151	C15	0.286800	0.396200	0.922120
C161	C16	0.918100	0.657400	0.033960
C171	C17	0.786800	0.603800	0.922120
C181	C18	0.406900	0.707000	0.167950
C191	C19	0.432200	0.116600	0.828090
C201	C20	0.013400	0.001700	0.205550
C211	C21	0.473800	0.830400	0.413520
C221	C22	0.932200	0.883400	0.828090
C231	C23	0.217100	0.374200	0.971960
C241	C24	0.217100	0.874200	0.528040
C251	C25	0.275600	0.883100	0.370540
C261	C26	0.714400	0.791100	0.705870
C271	C27	0.785600	0.291100	0.205870
C281	C28	0.713200	0.103800	0.422120
C291	C29	0.567800	0.383400	0.328090
C301	C30	0.593100	0.293000	0.832050
C311	C31	0.213200	0.896200	0.422120
C321	C32	0.785600	0.791100	0.294130
C331	C33	0.093100	0.207000	0.667950
C341	C34	0.213200	0.396200	0.077880
C351	C35	0.418100	0.342600	0.033960
C361	C36	0.286800	0.896200	0.577880
C371	C37	0.285600	0.208900	0.294130
C381	C38	0.406900	0.207000	0.332050
C391	C39	0.224400	0.383100	0.870540
C401	C40	0.285600	0.708900	0.205870
C411	C41	0.067800	0.616600	0.328090
C421	C42	0.526200	0.669600	0.913520
C431	C43	0.775600	0.616900	0.129460
C441	C44	0.418100	0.842600	0.466040
C451	C45	0.026200	0.330400	0.913520
C461	C46	0.067800	0.116600	0.171910
C471	C47	0.224400	0.883100	0.629460
C481	C48	0.717100	0.125800	0.528040
C491	C49	0.932200	0.383400	0.671910
C501	C50	0.081900	0.342600	0.966040
C511	C51	0.782900	0.125800	0.471960
C521	C52	0.724400	0.116900	0.629460
C531	C53	0.713200	0.603800	0.077880
C541	C54	0.973800	0.669600	0.086480
C551	C55	0.581900	0.657400	0.966040
C561	C56	0.026200	0.830400	0.586480
C571	C57	0.775600	0.116900	0.370540
C581	C58	0.486600	0.501700	0.705550
C591	C59	0.593100	0.793000	0.667950
C601	C60	0.432200	0.616600	0.671910
C611	C61	0.282900	0.874200	0.471960
C621	C62	0.724400	0.616900	0.870540
C631	C63	0.906900	0.293000	0.167950
C641	C64	0.986600	0.498300	0.705550
C651	C65	0.214400	0.708900	0.794130
C661	C66	0.717100	0.625800	0.971960
C671	C67	0.714400	0.291100	0.794130
C681	C68	0.906900	0.793000	0.332050
C691	C69	0.282900	0.374200	0.028040
C701	C70	0.567800	0.883400	0.171910
C711	C71	0.013400	0.501700	0.294450
C721	C72	0.782900	0.625800	0.028040
N11	N1	0.403600	0.847600	0.365540
N21	N2	0.903600	0.152400	0.365540
N31	N3	0.096400	0.347600	0.865540
N41	N4	0.596400	0.652400	0.865540
N51	N5	0.096400	0.847600	0.634460
N61	N6	0.903600	0.652400	0.134460
N71	N7	0.403600	0.347600	0.134460
N81	N8	0.596400	0.152400	0.634460
O11	O1	0.199900	0.746400	0.743980
O21	O2	0.972400	0.022300	0.254550
O31	O3	0.320200	0.170400	0.683890
O41	O4	0.024900	0.739600	0.306440
O51	O5	0.981700	0.106400	0.818830
O61	O6	0.975100	0.260400	0.693560
O71	O7	0.475100	0.739600	0.693560
O81	O8	0.527600	0.022300	0.745450
O91	O9	0.975100	0.760400	0.806440
O101	O10	0.699900	0.253600	0.743980
O111	O11	0.524900	0.760400	0.193560
O121	O12	0.472400	0.477700	0.245450
O131	O13	0.027600	0.977700	0.745450
O141	O14	0.481700	0.393600	0.681170
O151	O15	0.518300	0.606400	0.318830
O161	O16	0.679800	0.829600	0.316110
O171	O17	0.024900	0.239600	0.193560
O181	O18	0.481700	0.893600	0.818830
O191	O19	0.518300	0.106400	0.181170
O201	O20	0.320200	0.670400	0.816110
O211	O21	0.699900	0.753600	0.756020
O221	O22	0.018300	0.393600	0.318830
O231	O23	0.027600	0.477700	0.754550
O241	O24	0.820200	0.829600	0.683890
O251	O25	0.679800	0.329600	0.183890
O261	O26	0.800100	0.753600	0.243980
O271	O27	0.199900	0.246400	0.756020
O281	O28	0.300100	0.746400	0.256020
O291	O29	0.981700	0.606400	0.681170
O301	O30	0.300100	0.246400	0.243980
O311	O31	0.179800	0.670400	0.183890
O321	O32	0.524900	0.260400	0.306440
O331	O33	0.972400	0.522300	0.245450
O341	O34	0.800100	0.253600	0.256020
O351	O35	0.179800	0.170400	0.316110
O361	O36	0.018300	0.893600	0.181170
O371	O37	0.475100	0.239600	0.806440
O381	O38	0.527600	0.522300	0.754550
O391	O39	0.472400	0.977700	0.254550
O401	O40	0.820200	0.329600	0.816110
