data_ic200463k_si_002_clean_PM
_symmetry_space_group_name_H-M	'P1'
_cell_length_a	6.384600
_cell_length_b	8.999600
_cell_length_c	16.772200
_cell_angle_alpha	90.000000
_cell_angle_beta	90.000000
_cell_angle_gamma	100.121000
_symmetry_Int_Tables_number 1

loop_
_symmetry_equiv_pos_as_xyz
'x,y,z'

loop_
_atom_site_label
_atom_site_type_symbol
_atom_site_fract_x
_atom_site_fract_y
_atom_site_fract_z
V11	V1	0.727270	0.933740	0.401470
V21	V2	0.272730	0.066260	0.598530
V31	V3	0.227270	0.433740	0.098530
V41	V4	0.772730	0.566260	0.901470
P11	P1	0.749000	0.996210	0.592380
P21	P2	0.251000	0.003790	0.407620
P31	P3	0.751000	0.503790	0.092380
P41	P4	0.249000	0.496210	0.907620
H11	H1	0.926100	0.976900	0.759700
H21	H2	0.573900	0.523100	0.259700
H31	H3	0.426100	0.476900	0.740300
H41	H4	0.316100	0.027900	0.224400
H51	H5	0.332600	0.293200	0.845100
H61	H6	0.816100	0.527900	0.275600
H71	H7	0.093800	0.302000	0.831300
H81	H8	0.406200	0.198000	0.331300
H91	H9	0.073900	0.023100	0.240300
H101	H10	0.667400	0.706800	0.154900
H111	H11	0.683900	0.972100	0.775600
H121	H12	0.183900	0.472100	0.724400
H131	H13	0.593800	0.802000	0.668700
H141	H14	0.832600	0.793200	0.654900
H151	H15	0.167400	0.206800	0.345100
H161	H16	0.906200	0.698000	0.168700
C11	C1	0.789300	0.804200	0.811400
C21	C2	0.763700	0.638900	0.169300
C31	C3	0.236300	0.361100	0.830700
C41	C4	0.289300	0.304200	0.688600
C51	C5	0.712200	0.588200	0.258700
C61	C6	0.263700	0.138900	0.330700
C71	C7	0.787800	0.911800	0.758700
C81	C8	0.710700	0.695800	0.311400
C91	C9	0.212200	0.088200	0.241300
C101	C10	0.736300	0.861100	0.669300
C111	C11	0.287800	0.411800	0.741300
C121	C12	0.210700	0.195800	0.188600
O11	O1	0.411500	0.899800	0.392700
O21	O2	0.798400	0.598200	0.016800
O31	O3	0.690400	0.674200	0.388200
O41	O4	0.467100	0.595300	0.909200
O51	O5	0.773000	0.658600	0.790400
O61	O6	0.298400	0.098200	0.483200
O71	O7	0.532900	0.404700	0.090800
O81	O8	0.201600	0.401800	0.983200
O91	O9	0.032900	0.904700	0.409200
O101	O10	0.227000	0.341400	0.209600
O111	O11	0.309600	0.325800	0.611800
O121	O12	0.273000	0.158600	0.709600
O131	O13	0.809600	0.825800	0.888200
O141	O14	0.190400	0.174200	0.111800
O151	O15	0.701600	0.901800	0.516800
O161	O16	0.088500	0.600200	0.892700
O171	O17	0.911500	0.399800	0.107300
O181	O18	0.967100	0.095300	0.590800
O191	O19	0.588500	0.100200	0.607300
O201	O20	0.727000	0.841400	0.290400
