data_ic2017598_si_001_clean_h_PM
_symmetry_space_group_name_H-M	'P1'
_cell_length_a	18.106500
_cell_length_b	18.106500
_cell_length_c	18.106500
_cell_angle_alpha	60.000000
_cell_angle_beta	60.000000
_cell_angle_gamma	60.000000
_symmetry_Int_Tables_number 1

loop_
_symmetry_equiv_pos_as_xyz
'x,y,z'

loop_
_atom_site_label
_atom_site_type_symbol
_atom_site_fract_x
_atom_site_fract_y
_atom_site_fract_z
Zn11	Zn1	0.793540	0.619380	0.793540
Zn21	Zn2	0.619380	0.793540	0.793540
Zn31	Zn3	0.206460	0.206460	0.380620
Zn41	Zn4	0.793540	0.793540	0.793540
Zn51	Zn5	0.206460	0.380620	0.206460
Zn61	Zn6	0.206460	0.206460	0.206460
Zn71	Zn7	0.380620	0.206460	0.206460
Zn81	Zn8	0.793540	0.793540	0.619380
C91	C9	0.412900	0.536900	0.025100
C101	C10	0.974900	0.463100	0.974900
C111	C11	0.536900	0.025100	0.025100
C121	C12	0.946100	0.553900	0.553900
C131	C13	0.412900	0.025100	0.536900
C141	C14	0.553900	0.553900	0.946100
C151	C15	0.387300	0.387300	0.112700
C161	C16	0.463100	0.587100	0.974900
C171	C17	0.587100	0.463100	0.974900
C181	C18	0.946100	0.946100	0.553900
C191	C19	0.946100	0.553900	0.946100
C201	C20	0.025100	0.536900	0.412900
C211	C21	0.025100	0.412900	0.025100
C221	C22	0.887300	0.612700	0.887300
C231	C23	0.612700	0.887300	0.612700
C241	C24	0.387300	0.112700	0.112700
C251	C25	0.612700	0.887300	0.887300
C261	C26	0.612700	0.612700	0.887300
C271	C27	0.536900	0.412900	0.025100
C281	C28	0.587100	0.974900	0.974900
C291	C29	0.112700	0.387300	0.112700
C301	C30	0.463100	0.974900	0.974900
C311	C31	0.025100	0.412900	0.536900
C321	C32	0.887300	0.887300	0.612700
C331	C33	0.463100	0.974900	0.587100
C341	C34	0.387300	0.112700	0.387300
C351	C35	0.053900	0.446100	0.053900
C361	C36	0.412900	0.025100	0.025100
C371	C37	0.974900	0.974900	0.463100
C381	C38	0.887300	0.612700	0.612700
C391	C39	0.536900	0.025100	0.412900
C401	C40	0.974900	0.974900	0.587100
C411	C41	0.446100	0.053900	0.446100
C421	C42	0.025100	0.536900	0.025100
C431	C43	0.025100	0.025100	0.412900
C441	C44	0.112700	0.387300	0.387300
C451	C45	0.025100	0.025100	0.536900
C461	C46	0.974900	0.463100	0.587100
C471	C47	0.974900	0.587100	0.463100
C481	C48	0.553900	0.946100	0.946100
C491	C49	0.974900	0.587100	0.974900
C501	C50	0.446100	0.053900	0.053900
C511	C51	0.053900	0.446100	0.446100
C521	C52	0.112700	0.112700	0.387300
C531	C53	0.053900	0.053900	0.446100
C541	C54	0.553900	0.946100	0.553900
C551	C55	0.587100	0.974900	0.463100
C561	C56	0.446100	0.446100	0.053900
O571	O57	0.133600	0.429780	0.133600
O581	O58	0.133600	0.429780	0.303020
O591	O59	0.866400	0.570220	0.866400
O601	O60	0.303020	0.133600	0.429780
O611	O61	0.133600	0.133600	0.429780
O621	O62	0.866400	0.570220	0.696980
O631	O63	0.696980	0.866400	0.570220
O641	O64	0.866400	0.866400	0.570220
O651	O65	0.133600	0.303020	0.133600
O661	O66	0.429780	0.303020	0.133600
O671	O67	0.866400	0.696980	0.866400
O681	O68	0.133600	0.133600	0.303020
O691	O69	0.696980	0.866400	0.866400
O701	O70	0.570220	0.696980	0.866400
O711	O71	0.570220	0.866400	0.866400
O721	O72	0.133600	0.303020	0.429780
O731	O73	0.250000	0.250000	0.250000
O741	O74	0.303020	0.429780	0.133600
O751	O75	0.696980	0.570220	0.866400
O761	O76	0.570220	0.866400	0.696980
O771	O77	0.429780	0.133600	0.133600
O781	O78	0.866400	0.866400	0.696980
O791	O79	0.750000	0.750000	0.750000
O801	O80	0.303020	0.133600	0.133600
O811	O81	0.866400	0.696980	0.570220
O821	O82	0.429780	0.133600	0.303020
H831	H83	0.336110	0.569170	0.047360
H841	H84	0.954900	0.426850	0.954900
H851	H85	0.569170	0.047360	0.047360
H861	H86	0.336110	0.047360	0.569170
H871	H87	0.430830	0.663890	0.952640
H881	H88	0.663350	0.426850	0.954900
H891	H89	0.047360	0.569170	0.336110
H901	H90	0.047360	0.336110	0.047360
H911	H91	0.569170	0.336110	0.047360
H921	H92	0.663890	0.952640	0.952640
H931	H93	0.430830	0.952640	0.952640
H941	H94	0.047360	0.336110	0.569170
H951	H95	0.430830	0.952640	0.663890
H961	H96	0.336110	0.047360	0.047360
H971	H97	0.954900	0.954900	0.426850
H981	H98	0.573150	0.045100	0.336650
H991	H99	0.954900	0.954900	0.663350
H1001	H100	0.045100	0.573150	0.045100
H1011	H101	0.047360	0.047360	0.336110
H1021	H102	0.047360	0.047360	0.569170
H1031	H103	0.954900	0.426850	0.663350
H1041	H104	0.952640	0.663890	0.430830
H1051	H105	0.954900	0.663350	0.954900
H1061	H106	0.663890	0.952640	0.430830
