data_ic402058f_si_002_clean_PM
_symmetry_space_group_name_H-M	'P1'
_cell_length_a	10.618700
_cell_length_b	15.777000
_cell_length_c	18.958000
_cell_angle_alpha	97.359000
_cell_angle_beta	90.000000
_cell_angle_gamma	90.000000
_symmetry_Int_Tables_number 1

loop_
_symmetry_equiv_pos_as_xyz
'x,y,z'

loop_
_atom_site_label
_atom_site_type_symbol
_atom_site_fract_x
_atom_site_fract_y
_atom_site_fract_z
Cd11	Cd1	0.579170	0.958040	0.573730
Cd21	Cd2	0.420830	0.041960	0.426270
Cd31	Cd3	0.579170	0.041960	0.926270
Cd41	Cd4	0.485330	0.000000	0.750000
Cd51	Cd5	0.514670	0.000000	0.250000
Cd61	Cd6	0.420830	0.958040	0.073730
H11	H1	0.348100	0.346900	0.761500
H21	H2	0.160000	0.814200	0.717800
H31	H3	0.872600	0.675900	0.987800
H41	H4	0.808000	0.328500	0.066400
H51	H5	0.127400	0.324100	0.012200
H61	H6	0.700500	0.203500	0.034300
H71	H7	0.299500	0.203500	0.534300
H81	H8	0.192000	0.671500	0.933600
H91	H9	0.651900	0.653100	0.238500
H101	H10	0.780300	0.781400	0.877400
H111	H11	0.160000	0.185800	0.782200
H121	H12	0.004300	0.290000	0.811100
H131	H13	0.700500	0.796500	0.465700
H141	H14	0.792300	0.516400	0.586500
H151	H15	0.988400	0.351100	0.691100
H161	H16	0.689700	0.316300	0.858000
H171	H17	0.207700	0.483600	0.413500
H181	H18	0.192000	0.328500	0.566400
H191	H19	0.127400	0.675900	0.487800
H201	H20	0.722900	0.586500	0.724700
H211	H21	0.207700	0.516400	0.086500
H221	H22	0.219700	0.218600	0.122600
H231	H23	0.546900	0.218600	0.228700
H241	H24	0.731500	0.786600	0.013800
H251	H25	0.277100	0.413500	0.275300
H261	H26	0.011600	0.351100	0.191100
H271	H27	0.741200	0.877800	0.797600
H281	H28	0.163700	0.554300	0.625100
H291	H29	0.731500	0.213400	0.486200
H301	H30	0.546900	0.781400	0.271300
H311	H31	0.722900	0.413500	0.775300
H321	H32	0.268500	0.213400	0.986200
H331	H33	0.219700	0.781400	0.377400
H341	H34	0.780300	0.218600	0.622600
H351	H35	0.808000	0.671500	0.433600
H361	H36	0.840000	0.185800	0.282200
H371	H37	0.995700	0.290000	0.311100
H381	H38	0.258800	0.877800	0.297600
H391	H39	0.310300	0.316300	0.358000
H401	H40	0.453100	0.781400	0.771300
H411	H41	0.836300	0.445700	0.374900
H421	H42	0.689700	0.683700	0.642000
H431	H43	0.995700	0.710000	0.188900
H441	H44	0.299500	0.796500	0.965700
H451	H45	0.258800	0.122200	0.202400
H461	H46	0.011600	0.648900	0.308900
H471	H47	0.163700	0.445700	0.874900
H481	H48	0.872600	0.324100	0.512200
H491	H49	0.348100	0.653100	0.738500
H501	H50	0.792300	0.483600	0.913500
H511	H51	0.310300	0.683700	0.142000
H521	H52	0.836300	0.554300	0.125100
H531	H53	0.988400	0.648900	0.808900
H541	H54	0.741200	0.122200	0.702400
H551	H55	0.277100	0.586500	0.224700
H561	H56	0.004300	0.710000	0.688900
H571	H57	0.840000	0.814200	0.217800
H581	H58	0.651900	0.346900	0.261500
H591	H59	0.453100	0.218600	0.728700
H601	H60	0.268500	0.786600	0.513800
C11	C1	0.050700	0.684300	0.585600
C21	C2	0.126000	0.426900	0.139300
C31	C3	0.868900	0.294600	0.466500
C41	C4	0.708500	0.790200	0.712900
C51	C5	0.050700	0.315700	0.914400
C61	C6	0.023200	0.454000	0.397400
C71	C7	0.673100	0.851300	0.662100
C81	C8	0.326300	0.120300	0.864700
C91	C9	0.546000	0.885200	0.391200
C101	C10	0.131100	0.705400	0.533500
C111	C11	0.867300	0.499500	0.605900
C121	C12	0.755700	0.693700	0.401200
C131	C13	0.771700	0.188300	0.382800
C141	C14	0.725900	0.645000	0.739200
C151	C15	0.217200	0.229500	0.950400
C161	C16	0.244300	0.693700	0.901200
C171	C17	0.386700	0.195700	0.628200
C181	C18	0.294800	0.703400	0.189600
C191	C19	0.546000	0.114800	0.108800
C201	C20	0.259300	0.348300	0.667400
C211	C21	0.985600	0.399700	0.668100
C221	C22	0.874000	0.573100	0.860700
C231	C23	0.708500	0.209800	0.787100
C241	C24	0.337600	0.317300	0.716200
C251	C25	0.705200	0.703400	0.689600
C261	C26	0.326900	0.851300	0.162100
C271	C27	0.662400	0.317300	0.216200
C281	C28	0.228300	0.811700	0.617200
C291	C29	0.740700	0.651700	0.332600
C301	C30	0.131100	0.294600	0.966500
C311	C31	0.059000	0.724600	0.654100
C321	C32	0.454000	0.114800	0.608800
C331	C33	0.949300	0.684300	0.085600
C341	C34	0.750200	0.324400	0.691400
C351	C35	0.740700	0.348300	0.167400
C361	C36	0.274100	0.355000	0.260800
C371	C37	0.326900	0.148700	0.337900
C381	C38	0.240800	0.761800	0.330600
C391	C39	0.976800	0.546000	0.602600
C401	C40	0.249800	0.675600	0.308600
C411	C41	0.949300	0.315700	0.414400
C421	C42	0.326300	0.879700	0.635300
C431	C43	0.867300	0.500500	0.894100
C441	C44	0.849100	0.211800	0.328700
C451	C45	0.736900	0.180600	0.717300
C461	C46	0.014400	0.600300	0.331900
C471	C47	0.906800	0.449200	0.160700
C481	C48	0.263100	0.180600	0.217300
C491	C49	0.599400	0.759500	0.303900
C501	C50	0.985600	0.600300	0.831900
C511	C51	0.263100	0.819400	0.282700
C521	C52	0.613300	0.195700	0.128200
C531	C53	0.291500	0.790200	0.212900
C541	C54	0.750200	0.675600	0.808600
C551	C55	0.705200	0.296600	0.810400
C561	C56	0.059000	0.275400	0.845900
C571	C57	0.259300	0.651700	0.832600
C581	C58	0.228300	0.188300	0.882800
C591	C59	0.249800	0.324400	0.191400
C601	C60	0.725900	0.355000	0.760800
C611	C61	0.874000	0.426900	0.639300
C621	C62	0.906800	0.550800	0.339300
C631	C63	0.091200	0.477900	0.871100
C641	C64	0.673700	0.120300	0.364700
C651	C65	0.673700	0.879700	0.135300
C661	C66	0.976800	0.454000	0.897400
C671	C67	0.613300	0.804300	0.371800
C681	C68	0.217200	0.770500	0.549600
C691	C69	0.759200	0.238200	0.669400
C701	C70	0.599400	0.240500	0.196100
C711	C71	0.291500	0.209800	0.287100
C721	C72	0.868900	0.705400	0.033500
C731	C73	0.662400	0.682700	0.283800
C741	C74	0.908800	0.477900	0.371100
C751	C75	0.673100	0.148700	0.837900
C761	C76	0.849100	0.788200	0.171300
C771	C77	0.150900	0.211800	0.828700
C781	C78	0.400600	0.240500	0.696100
C791	C79	0.782800	0.770500	0.049600
C801	C80	0.337600	0.682700	0.783800
C811	C81	0.132700	0.499500	0.105900
C821	C82	0.091200	0.522100	0.628900
C831	C83	0.691700	0.768500	0.419700
C841	C84	0.771700	0.811700	0.117200
C851	C85	0.014400	0.399700	0.168100
C861	C86	0.294800	0.296600	0.310400
C871	C87	0.308300	0.768500	0.919700
C881	C88	0.150900	0.788200	0.671300
C891	C89	0.132700	0.500500	0.394100
C901	C90	0.274100	0.645000	0.239200
C911	C91	0.782800	0.229500	0.450400
C921	C92	0.240800	0.238200	0.169400
C931	C93	0.755700	0.306300	0.098800
C941	C94	0.759200	0.761800	0.830600
C951	C95	0.126000	0.573100	0.360700
C961	C96	0.386700	0.804300	0.871800
C971	C97	0.691700	0.231500	0.080300
C981	C98	0.400600	0.759500	0.803900
C991	C99	0.244300	0.306300	0.598800
C1001	C100	0.908800	0.522100	0.128900
C1011	C101	0.736900	0.819400	0.782700
C1021	C102	0.023200	0.546000	0.102600
C1031	C103	0.454000	0.885200	0.891200
C1041	C104	0.308300	0.231500	0.580300
C1051	C105	0.941000	0.275400	0.345900
C1061	C106	0.093200	0.550800	0.839300
C1071	C107	0.941000	0.724600	0.154100
C1081	C108	0.093200	0.449200	0.660700
O11	O1	0.346100	0.906500	0.699500
O21	O2	0.205900	0.571900	0.809600
O31	O3	0.542200	0.081500	0.044700
O41	O4	0.761200	0.382000	0.641900
O51	O5	0.457800	0.918500	0.955300
O61	O6	0.616400	0.094100	0.417700
O71	O7	0.648300	0.070600	0.812700
O81	O8	0.037700	0.618700	0.068100
O91	O9	0.648300	0.929400	0.687300
O101	O10	0.616400	0.905900	0.082300
O111	O11	0.346100	0.093500	0.800500
O121	O12	0.665000	0.172100	0.903300
O131	O13	0.761200	0.618000	0.858100
O141	O14	0.351700	0.929400	0.187300
O151	O15	0.962300	0.381300	0.931900
O161	O16	0.494800	0.077200	0.155700
O171	O17	0.962300	0.618700	0.568100
O181	O18	0.505200	0.077200	0.655700
O191	O19	0.794100	0.428100	0.190400
O201	O20	0.383600	0.094100	0.917700
O211	O21	0.542200	0.918500	0.455300
O221	O22	0.794100	0.571900	0.309600
O231	O23	0.351700	0.070600	0.312700
O241	O24	0.335000	0.172100	0.403300
O251	O25	0.665000	0.827900	0.596700
O261	O26	0.205900	0.428100	0.690400
O271	O27	0.494800	0.922800	0.344300
O281	O28	0.653900	0.093500	0.300500
O291	O29	0.335000	0.827900	0.096700
O301	O30	0.457800	0.081500	0.544700
O311	O31	0.653900	0.906500	0.199500
O321	O32	0.383600	0.905900	0.582300
O331	O33	0.238800	0.618000	0.358100
O341	O34	0.505200	0.922800	0.844300
O351	O35	0.037700	0.381300	0.431900
O361	O36	0.238800	0.382000	0.141900
