data_ic402692p_si_004_clean_PM
_symmetry_space_group_name_H-M	'P1'
_cell_length_a	20.394900
_cell_length_b	20.394900
_cell_length_c	20.394900
_cell_angle_alpha	109.471000
_cell_angle_beta	109.471000
_cell_angle_gamma	109.471000
_symmetry_Int_Tables_number 1

loop_
_symmetry_equiv_pos_as_xyz
'x,y,z'

loop_
_atom_site_label
_atom_site_type_symbol
_atom_site_fract_x
_atom_site_fract_y
_atom_site_fract_z
Zn11	Zn1	0.476690	0.056190	0.942720
Zn21	Zn2	0.936630	0.500000	0.436630
Zn31	Zn3	0.466030	0.579500	0.523310
Zn41	Zn4	0.942720	0.476690	0.056190
Zn51	Zn5	0.533970	0.057280	0.113470
Zn61	Zn6	0.056190	0.942720	0.476690
Zn71	Zn7	0.523310	0.466030	0.579500
Zn81	Zn8	0.579500	0.523310	0.466030
Zn91	Zn9	0.063370	0.500000	0.563370
Zn101	Zn10	0.057280	0.113470	0.533970
Zn111	Zn11	0.943810	0.420500	0.886530
Zn121	Zn12	0.563370	0.063370	0.500000
Zn131	Zn13	0.886530	0.943810	0.420500
Zn141	Zn14	0.500000	0.436630	0.936630
Zn151	Zn15	0.113470	0.533970	0.057280
Zn161	Zn16	0.500000	0.563370	0.063370
Zn171	Zn17	0.436630	0.936630	0.500000
Zn181	Zn18	0.420500	0.886530	0.943810
H11	H1	0.312600	0.772500	0.237900
H21	H2	0.769200	0.034100	0.293500
H31	H3	0.230800	0.524300	0.264900
H41	H4	0.687400	0.925300	0.459900
H51	H5	0.519500	0.547400	0.793100
H61	H6	0.264900	0.230800	0.524300
H71	H7	0.034100	0.293500	0.769200
H81	H8	0.293500	0.769200	0.034100
H91	H9	0.762100	0.534600	0.074700
H101	H10	0.465400	0.227500	0.540100
H111	H11	0.706500	0.740600	0.475700
H121	H12	0.227500	0.540100	0.465400
H131	H13	0.547400	0.793100	0.519500
H141	H14	0.273600	0.027900	0.480500
H151	H15	0.735100	0.259400	0.965900
H161	H16	0.480500	0.273600	0.027900
H171	H17	0.726400	0.206900	0.754300
H181	H18	0.206900	0.754300	0.726400
H191	H19	0.475700	0.706500	0.740600
H201	H20	0.524300	0.264900	0.230800
H211	H21	0.925300	0.459900	0.687400
H221	H22	0.740600	0.475700	0.706500
H231	H23	0.540100	0.465400	0.227500
H241	H24	0.965900	0.735100	0.259400
H251	H25	0.259400	0.965900	0.735100
H261	H26	0.972100	0.245700	0.452600
H271	H27	0.459900	0.687400	0.925300
H281	H28	0.534600	0.074700	0.762100
H291	H29	0.793100	0.519500	0.547400
H301	H30	0.245700	0.452600	0.972100
H311	H31	0.074700	0.762100	0.534600
H321	H32	0.237900	0.312600	0.772500
H331	H33	0.772500	0.237900	0.312600
H341	H34	0.452600	0.972100	0.245700
H351	H35	0.027900	0.480500	0.273600
H361	H36	0.754300	0.726400	0.206900
C11	C1	0.797100	0.089800	0.317300
C21	C2	0.375600	0.874700	0.131700
C31	C3	0.412400	0.918600	0.216800
C41	C4	0.426900	0.924800	0.346500
C51	C5	0.388000	0.881200	0.255400
C61	C6	0.867400	0.493200	0.612000
C71	C7	0.506800	0.374200	0.118800
C81	C8	0.129400	0.291800	0.757600
C91	C9	0.201500	0.529100	0.412800
C101	C10	0.578300	0.080400	0.653500
C111	C11	0.118800	0.506800	0.374200
C121	C12	0.441900	0.772300	0.854000
C131	C13	0.089800	0.317300	0.797100
C141	C14	0.091900	0.406100	0.916200
C151	C15	0.493800	0.298200	0.081400
C161	C16	0.624400	0.756100	0.499100
C171	C17	0.837600	0.465800	0.708200
C181	C18	0.412100	0.330400	0.558100
C191	C19	0.510100	0.593900	0.685800
C201	C20	0.587200	0.116300	0.788700
C211	C21	0.506200	0.587600	0.804400
C221	C22	0.669600	0.081700	0.227700
C231	C23	0.195600	0.783200	0.701800
C241	C24	0.625800	0.132600	0.744600
C251	C25	0.593900	0.685800	0.510100
C261	C26	0.672400	0.883700	0.470900
C271	C27	0.080400	0.653500	0.578300
C281	C28	0.682700	0.772500	0.479800
C291	C29	0.412800	0.201500	0.529100
C301	C30	0.573100	0.919600	0.497900
C311	C31	0.924800	0.346500	0.426900
C321	C32	0.502100	0.421700	0.075200
C331	C33	0.083800	0.489900	0.175700
C341	C34	0.489900	0.175700	0.083800
C351	C35	0.125300	0.500900	0.257000
C361	C36	0.493200	0.612000	0.867400
C371	C37	0.919600	0.497900	0.573100
C381	C38	0.868300	0.743000	0.243900
C391	C39	0.701800	0.195600	0.783200
C401	C40	0.227500	0.910200	0.707300
C411	C41	0.081400	0.493800	0.298200
C421	C42	0.131700	0.375600	0.874700
C431	C43	0.202900	0.520200	0.292700
C441	C44	0.587600	0.804400	0.506200
C451	C45	0.314200	0.908100	0.824300
C461	C46	0.292700	0.202900	0.520200
C471	C47	0.374200	0.118800	0.506800
C481	C48	0.216800	0.412400	0.918600
C491	C49	0.330400	0.558100	0.412100
C501	C50	0.421700	0.075200	0.502100
C511	C51	0.918300	0.587900	0.146000
C521	C52	0.854000	0.441900	0.772300
C531	C53	0.346500	0.426900	0.924800
C541	C54	0.534200	0.371800	0.242400
C551	C55	0.757600	0.129400	0.291800
C561	C56	0.075200	0.502100	0.421700
C571	C57	0.870600	0.628200	0.162400
C581	C58	0.497900	0.573100	0.919600
C591	C59	0.470900	0.672400	0.883700
C601	C60	0.916200	0.091900	0.406100
C611	C61	0.255400	0.388000	0.881200
C621	C62	0.772300	0.854000	0.441900
C631	C63	0.824300	0.314200	0.908100
C641	C64	0.772500	0.479800	0.682700
C651	C65	0.406100	0.916200	0.091900
C661	C66	0.918600	0.216800	0.412400
C671	C67	0.291800	0.757600	0.129400
C681	C68	0.529100	0.412800	0.201500
C691	C69	0.744600	0.625800	0.132600
C701	C70	0.783200	0.701800	0.195600
C711	C71	0.116300	0.788700	0.587200
C721	C72	0.653500	0.578300	0.080400
C731	C73	0.211300	0.327600	0.798500
C741	C74	0.685800	0.510100	0.593900
C751	C75	0.743000	0.243900	0.868300
C761	C76	0.587900	0.146000	0.918300
C771	C77	0.500900	0.257000	0.125300
C781	C78	0.910200	0.707300	0.227500
C791	C79	0.257000	0.125300	0.500900
C801	C80	0.788700	0.587200	0.116300
C811	C81	0.465800	0.708200	0.837600
C821	C82	0.327600	0.798500	0.211300
C831	C83	0.227700	0.669600	0.081700
C841	C84	0.243900	0.868300	0.743000
C851	C85	0.520200	0.292700	0.202900
C861	C86	0.881200	0.255400	0.388000
C871	C87	0.499100	0.624400	0.756100
C881	C88	0.146000	0.918300	0.587900
C891	C89	0.708200	0.837600	0.465800
C901	C90	0.298200	0.081400	0.493800
C911	C91	0.132600	0.744600	0.625800
C921	C92	0.798500	0.211300	0.327600
C931	C93	0.317300	0.797100	0.089800
C941	C94	0.804400	0.506200	0.587600
C951	C95	0.558100	0.412100	0.330400
C961	C96	0.242400	0.534200	0.371800
C971	C97	0.479800	0.682700	0.772500
C981	C98	0.162400	0.870600	0.628200
C991	C99	0.081700	0.227700	0.669600
C1001	C100	0.612000	0.867400	0.493200
C1011	C101	0.756100	0.499100	0.624400
C1021	C102	0.371800	0.242400	0.534200
C1031	C103	0.707300	0.227500	0.910200
C1041	C104	0.874700	0.131700	0.375600
C1051	C105	0.883700	0.470900	0.672400
C1061	C106	0.175700	0.083800	0.489900
C1071	C107	0.908100	0.824300	0.314200
C1081	C108	0.628200	0.162400	0.870600
O11	O1	0.982600	0.855000	0.363600
O21	O2	0.634600	0.005400	0.192200
O31	O3	0.023700	0.620900	0.510000
O41	O4	0.484200	0.996800	0.382600
O51	O5	0.813200	0.442400	0.807800
O61	O6	0.898400	0.512600	0.515800
O71	O7	0.677600	0.535900	0.544900
O81	O8	0.912600	0.430300	0.789700
O91	O9	0.517700	0.087400	0.877100
O101	O10	0.381000	0.872400	0.017400
O111	O11	0.110900	0.513700	0.490000
O121	O12	0.141700	0.009000	0.464100
O131	O13	0.557600	0.370800	0.365400
O141	O14	0.430300	0.789700	0.912600
O151	O15	0.855000	0.363600	0.982600
O161	O16	0.087400	0.877100	0.517700
O171	O17	0.385800	0.003200	0.487400
O181	O18	0.512600	0.515800	0.898400
O191	O19	0.145000	0.127600	0.508600
O201	O20	0.807800	0.813200	0.442400
O211	O21	0.490000	0.110900	0.513700
O221	O22	0.629200	0.186800	0.994600
O231	O23	0.132700	0.455100	0.991000
O241	O24	0.994600	0.629200	0.186800
O251	O25	0.101600	0.617400	0.614200
O261	O26	0.491400	0.619000	0.636400
O271	O27	0.192200	0.634600	0.005400
O281	O28	0.858300	0.322400	0.867300
O291	O29	0.789700	0.912600	0.430300
O301	O30	0.005400	0.192200	0.634600
O311	O31	0.210300	0.640600	0.122900
O321	O32	0.619000	0.636400	0.491400
O331	O33	0.544900	0.677600	0.535900
O341	O34	0.186800	0.994600	0.629200
O351	O35	0.872400	0.017400	0.381000
O361	O36	0.515800	0.898400	0.512600
O371	O37	0.455100	0.991000	0.132700
O381	O38	0.370800	0.365400	0.557600
O391	O39	0.976300	0.486300	0.597200
O401	O40	0.636400	0.491400	0.619000
O411	O41	0.991000	0.132700	0.455100
O421	O42	0.122900	0.210300	0.640600
O431	O43	0.535900	0.544900	0.677600
O441	O44	0.617400	0.614200	0.101600
O451	O45	0.382600	0.484200	0.996800
O461	O46	0.640600	0.122900	0.210300
O471	O47	0.597200	0.976300	0.486300
O481	O48	0.359400	0.569700	0.482300
O491	O49	0.569700	0.482300	0.359400
O501	O50	0.365400	0.557600	0.370800
O511	O51	0.017400	0.381000	0.872400
O521	O52	0.508600	0.145000	0.127600
O531	O53	0.889100	0.379100	0.402800
O541	O54	0.486300	0.597200	0.976300
O551	O55	0.510000	0.023700	0.620900
O561	O56	0.009000	0.464100	0.141700
O571	O57	0.614200	0.101600	0.617400
O581	O58	0.482300	0.359400	0.569700
O591	O59	0.464100	0.141700	0.009000
O601	O60	0.487400	0.385800	0.003200
O611	O61	0.877100	0.517700	0.087400
O621	O62	0.867300	0.858300	0.322400
O631	O63	0.003200	0.487400	0.385800
O641	O64	0.379100	0.402800	0.889100
O651	O65	0.513700	0.490000	0.110900
O661	O66	0.996800	0.382600	0.484200
O671	O67	0.127600	0.508600	0.145000
O681	O68	0.322400	0.867300	0.858300
O691	O69	0.620900	0.510000	0.023700
O701	O70	0.402800	0.889100	0.379100
O711	O71	0.442400	0.807800	0.813200
O721	O72	0.363600	0.982600	0.855000
