data_ic400853r_si_002_clean_PM
_symmetry_space_group_name_H-M	'P1'
_cell_length_a	10.664200
_cell_length_b	10.664200
_cell_length_c	23.998000
_cell_angle_alpha	90.000000
_cell_angle_beta	90.000000
_cell_angle_gamma	90.000000
_symmetry_Int_Tables_number 1

loop_
_symmetry_equiv_pos_as_xyz
'x,y,z'

loop_
_atom_site_label
_atom_site_type_symbol
_atom_site_fract_x
_atom_site_fract_y
_atom_site_fract_z
Na11	Na1	0.632000	0.509010	0.484970
Na21	Na2	0.509010	0.368000	0.734970
Na31	Na3	0.490990	0.632000	0.234970
Na41	Na4	0.368000	0.490990	0.984970
Cu11	Cu1	0.351580	0.390910	0.851360
Cu21	Cu2	0.648420	0.609090	0.351360
Cu31	Cu3	0.609090	0.351580	0.601360
Cu41	Cu4	0.390910	0.648420	0.101360
H11	H1	0.954700	0.108400	0.044500
H21	H2	0.501600	0.038800	0.089700
H31	H3	0.038800	0.498400	0.339700
H41	H4	0.133400	0.099400	0.862100
H51	H5	0.900600	0.133400	0.612100
H61	H6	0.160800	0.668200	0.871800
H71	H7	0.232200	0.933800	0.234900
H81	H8	0.474200	0.782000	0.748000
H91	H9	0.218000	0.474200	0.498000
H101	H10	0.001200	0.464100	0.494400
H111	H11	0.745700	0.490100	0.835000
H121	H12	0.891600	0.954700	0.794500
H131	H13	0.099400	0.866600	0.112100
H141	H14	0.066200	0.232200	0.984900
H151	H15	0.933800	0.767800	0.484900
H161	H16	0.998800	0.535900	0.994400
H171	H17	0.105400	0.259800	0.289900
H181	H18	0.778600	0.633000	0.727900
H191	H19	0.498400	0.961200	0.589700
H201	H20	0.331800	0.160800	0.621800
H211	H21	0.740200	0.105400	0.039900
H221	H22	0.108400	0.045300	0.294500
H231	H23	0.254300	0.509900	0.335000
H241	H24	0.992000	0.228300	0.419000
H251	H25	0.367000	0.778600	0.477900
H261	H26	0.668200	0.839200	0.121800
H271	H27	0.894600	0.740200	0.789900
H281	H28	0.771700	0.992000	0.169000
H291	H29	0.011800	0.988300	0.660800
H301	H30	0.988200	0.011700	0.160800
H311	H31	0.839200	0.331800	0.371800
H321	H32	0.509900	0.745700	0.585000
H331	H33	0.045300	0.891600	0.544500
H341	H34	0.464100	0.998800	0.744400
H351	H35	0.490100	0.254300	0.085000
H361	H36	0.535900	0.001200	0.244400
H371	H37	0.008000	0.771700	0.919000
H381	H38	0.525800	0.218000	0.248000
H391	H39	0.961200	0.501600	0.839700
H401	H40	0.259800	0.894600	0.539900
H411	H41	0.633000	0.221400	0.977900
H421	H42	0.866600	0.900600	0.362100
H431	H43	0.767800	0.066200	0.734900
H441	H44	0.228300	0.008000	0.669000
H451	H45	0.011700	0.011800	0.410800
H461	H46	0.988300	0.988200	0.910800
H471	H47	0.782000	0.525800	0.998000
H481	H48	0.221400	0.367000	0.227900
C11	C1	0.842600	0.913300	0.768200
C21	C2	0.390400	0.874300	0.151400
C31	C3	0.819800	0.754000	0.085900
C41	C4	0.450500	0.081600	0.114600
C51	C5	0.946300	0.053300	0.393000
C61	C6	0.918400	0.450500	0.864600
C71	C7	0.212300	0.555800	0.362100
C81	C8	0.816500	0.935700	0.147000
C91	C9	0.952500	0.763300	0.082970
C101	C10	0.064300	0.816500	0.897000
C111	C11	0.324100	0.020900	0.799300
C121	C12	0.755100	0.843800	0.119200
C131	C13	0.409800	0.955300	0.767800
C141	C14	0.861000	0.987700	0.363000
C151	C15	0.695400	0.918300	0.692100
C161	C16	0.242500	0.340100	0.555000
C171	C17	0.304600	0.081700	0.192100
C181	C18	0.044700	0.409800	0.517800
C191	C19	0.783100	0.301800	0.939300
C201	C20	0.224600	0.279800	0.228100
C211	C21	0.279800	0.775400	0.478100
C221	C22	0.843800	0.244900	0.369200
C231	C23	0.824200	0.583400	0.020300
C241	C24	0.639100	0.384900	0.310300
C251	C25	0.754000	0.180200	0.335900
C261	C26	0.246000	0.819800	0.835900
C271	C27	0.627700	0.720000	0.648300
C281	C28	0.384900	0.360900	0.560300
C291	C29	0.987700	0.139000	0.613000
C301	C30	0.617400	0.984800	0.653400
C311	C31	0.784400	0.155900	0.015200
C321	C32	0.081600	0.549500	0.364600
C331	C33	0.757500	0.659900	0.055000
C341	C34	0.236700	0.952500	0.832970
C351	C35	0.301800	0.216900	0.189300
C361	C36	0.053700	0.946700	0.893000
C371	C37	0.139000	0.012300	0.863000
C381	C38	0.216900	0.698200	0.439300
C391	C39	0.946700	0.946300	0.143000
C401	C40	0.125700	0.390400	0.901400
C411	C41	0.775400	0.720200	0.728100
C421	C42	0.244900	0.156200	0.619200
C431	C43	0.837500	0.336300	0.549500
C441	C44	0.675900	0.979100	0.299300
C451	C45	0.555800	0.787700	0.612100
C461	C46	0.615100	0.639100	0.060300
C471	C47	0.955300	0.590200	0.017800
C481	C48	0.663700	0.837500	0.299500
C491	C49	0.020900	0.675900	0.049300
C501	C50	0.844100	0.784400	0.765200
C511	C51	0.015200	0.617400	0.403400
C521	C52	0.416600	0.824200	0.770300
C531	C53	0.230600	0.020800	0.232600
C541	C54	0.382600	0.015200	0.153400
C551	C55	0.373400	0.421100	0.142100
C561	C56	0.215600	0.844100	0.515200
C571	C57	0.360900	0.615100	0.810300
C581	C58	0.372300	0.280000	0.148300
C591	C59	0.874300	0.609600	0.401400
C601	C60	0.590200	0.044700	0.267800
C611	C61	0.979100	0.324100	0.549300
C621	C62	0.698200	0.783100	0.689300
C631	C63	0.162500	0.663700	0.049500
C641	C64	0.336300	0.162500	0.799500
C651	C65	0.020800	0.769400	0.482600
C661	C66	0.984800	0.382600	0.903400
C671	C67	0.720000	0.372300	0.898300
C681	C68	0.918300	0.304600	0.942100
C691	C69	0.012300	0.861000	0.113000
C701	C70	0.183500	0.064300	0.647000
C711	C71	0.979200	0.230600	0.982600
C721	C72	0.155900	0.215600	0.265200
C731	C73	0.935700	0.183500	0.397000
C741	C74	0.081700	0.695400	0.442100
C751	C75	0.156200	0.755100	0.869200
C761	C76	0.086700	0.842600	0.518200
C771	C77	0.549500	0.918400	0.614600
C781	C78	0.720200	0.224600	0.978100
C791	C79	0.280000	0.627700	0.398300
C801	C80	0.047500	0.236700	0.582970
C811	C81	0.763300	0.047500	0.332970
C821	C82	0.053300	0.053700	0.643000
C831	C83	0.769400	0.979200	0.732600
C841	C84	0.609600	0.125700	0.651400
C851	C85	0.583400	0.175800	0.270300
C861	C86	0.578900	0.373400	0.892100
C871	C87	0.175800	0.416600	0.520300
C881	C88	0.340100	0.757500	0.805000
C891	C89	0.157400	0.086700	0.268200
C901	C90	0.913300	0.157400	0.018200
C911	C91	0.787700	0.444200	0.862100
C921	C92	0.180200	0.246000	0.585900
C931	C93	0.659900	0.242500	0.305000
C941	C94	0.626600	0.578900	0.642100
C951	C95	0.421100	0.626600	0.392100
C961	C96	0.444200	0.212300	0.112100
O11	O1	0.592400	0.170300	0.602810
O21	O2	0.407600	0.829700	0.102810
O31	O3	0.629200	0.449100	0.267340
O41	O4	0.170300	0.407600	0.852810
O51	O5	0.449100	0.370800	0.517340
O61	O6	0.329200	0.211600	0.847430
O71	O7	0.633400	0.427400	0.359250
O81	O8	0.220300	0.646200	0.005900
O91	O9	0.211600	0.670800	0.097430
O101	O10	0.829700	0.592400	0.352810
O111	O11	0.366600	0.572600	0.859250
O121	O12	0.489300	0.624800	0.434360
O131	O13	0.374200	0.464200	0.092540
O141	O14	0.779700	0.353800	0.505900
O151	O15	0.625800	0.535800	0.592540
O161	O16	0.510700	0.375200	0.934360
O171	O17	0.535800	0.374200	0.842540
O181	O18	0.375200	0.489300	0.184360
O191	O19	0.427400	0.366600	0.609250
O201	O20	0.646200	0.779700	0.255900
O211	O21	0.809200	0.617700	0.443900
O221	O22	0.382300	0.809200	0.193900
O231	O23	0.670800	0.788400	0.347430
O241	O24	0.370800	0.550900	0.767340
O251	O25	0.572600	0.633400	0.109250
O261	O26	0.353800	0.220300	0.755900
O271	O27	0.190800	0.382300	0.943900
O281	O28	0.550900	0.629200	0.017340
O291	O29	0.617700	0.190800	0.693900
O301	O30	0.788400	0.329200	0.597430
O311	O31	0.464200	0.625800	0.342540
O321	O32	0.624800	0.510700	0.684360
