data_ic402692p_si_005_clean_PM
_symmetry_space_group_name_H-M	'P1'
_cell_length_a	17.147100
_cell_length_b	17.147100
_cell_length_c	17.147100
_cell_angle_alpha	62.055300
_cell_angle_beta	74.592000
_cell_angle_gamma	105.408000
_symmetry_Int_Tables_number 1

loop_
_symmetry_equiv_pos_as_xyz
'x,y,z'

loop_
_atom_site_label
_atom_site_type_symbol
_atom_site_fract_x
_atom_site_fract_y
_atom_site_fract_z
Zn11	Zn1	0.128330	0.951840	0.427210
Zn21	Zn2	0.871670	0.444460	0.176490
Zn31	Zn3	0.500000	0.682900	0.490940
Zn41	Zn4	0.826160	0.509060	0.990940
Zn51	Zn5	0.620950	0.572790	0.555540
Zn61	Zn6	0.379050	0.823510	0.048160
Zn71	Zn7	0.620950	0.944460	0.927210
Zn81	Zn8	0.871670	0.323510	0.055540
Zn91	Zn9	0.379050	0.451840	0.676490
Zn101	Zn10	0.500000	0.009060	0.817100
Zn111	Zn11	0.128330	0.072790	0.548160
Zn121	Zn12	0.173840	0.182900	0.317100
H11	H1	0.395700	0.178100	0.864800
H21	H2	0.848400	0.841300	0.468100
H31	H3	0.690600	0.531900	0.316500
H41	H4	0.300700	0.947600	0.739700
H51	H5	0.957100	0.239500	0.364800
H61	H6	0.848400	0.031900	0.658700
H71	H7	0.309400	0.992900	0.158700
H81	H8	0.395700	0.635200	0.321900
H91	H9	0.699300	0.146900	0.540400
H101	H10	0.687300	0.447600	0.853100
H111	H11	0.604300	0.739500	0.217600
H121	H12	0.042900	0.782400	0.821900
H131	H13	0.687300	0.646900	0.052400
H141	H14	0.151600	0.492900	0.816500
H151	H15	0.312700	0.260300	0.040400
H161	H16	0.309400	0.341300	0.507100
H171	H17	0.957100	0.135200	0.260500
H181	H18	0.604300	0.282400	0.760500
H191	H19	0.312700	0.459600	0.239700
H201	H20	0.699300	0.959600	0.353100
H211	H21	0.690600	0.183500	0.968100
H221	H22	0.151600	0.683500	0.007100
H231	H23	0.042900	0.678100	0.717600
H241	H24	0.300700	0.760300	0.552400
C11	C1	0.677600	0.644400	0.109800
C21	C2	0.355400	0.231300	0.941100
C31	C3	0.754200	0.966800	0.355600
C41	C4	0.172400	0.875900	0.768700
C51	C5	0.181200	0.959500	0.672500
C61	C6	0.626900	0.698900	0.209000
C71	C7	0.621300	0.123000	0.874300
C81	C8	0.642500	0.216900	0.867000
C91	C9	0.239200	0.820200	0.876400
C101	C10	0.303400	0.123600	0.115600
C111	C11	0.642500	0.633000	0.283100
C121	C12	0.997300	0.623000	0.998300
C131	C13	0.092100	0.664100	0.709000
C141	C14	0.827600	0.203500	0.441100
C151	C15	0.002700	0.125700	0.495600
C161	C16	0.257700	0.098300	0.218600
C171	C17	0.357500	0.074400	0.009500
C181	C18	0.172400	0.731300	0.624100
C191	C19	0.818800	0.146300	0.221700
C201	C20	0.843100	0.896200	0.425300
C211	C21	0.368000	0.646300	0.172500
C221	C22	0.378700	0.001700	0.995600
C231	C23	0.239200	0.623600	0.679800
C241	C24	0.843100	0.074700	0.603800
C251	C25	0.002700	0.004400	0.374300
C261	C26	0.181200	0.827500	0.540500
C271	C27	0.677600	0.390200	0.855600
C281	C28	0.357500	0.490500	0.425600
C291	C29	0.632000	0.778300	0.040500
C301	C30	0.321500	0.396200	0.446900
C311	C31	0.316900	0.598300	0.659400
C321	C32	0.818800	0.278300	0.353700
C331	C33	0.156900	0.553100	0.768400
C341	C34	0.373100	0.572000	0.335900
C351	C35	0.092100	0.791000	0.835900
C361	C36	0.368000	0.327500	0.853700
C371	C37	0.632000	0.459500	0.721700
C381	C38	0.083900	0.574400	0.783100
C391	C39	0.373100	0.164100	0.928000
C401	C40	0.696600	0.581000	0.179800
C411	C41	0.257700	0.281400	0.401700
C421	C42	0.742300	0.523700	0.159400
C431	C43	0.678500	0.231600	0.925300
C441	C44	0.156900	0.731600	0.946900
C451	C45	0.322400	0.466800	0.287400
C461	C46	0.378700	0.504400	0.498300
C471	C47	0.245800	0.890200	0.787400
C481	C48	0.355400	0.558900	0.268700
C491	C49	0.754200	0.144400	0.533200
C501	C50	0.907900	0.198900	0.428000
C511	C51	0.683100	0.023700	0.718600
C521	C52	0.303400	0.384400	0.376400
C531	C53	0.997300	0.501700	0.877000
C541	C54	0.760800	0.081000	0.615600
C551	C55	0.907900	0.072000	0.301100
C561	C56	0.760800	0.884400	0.419000
C571	C57	0.316900	0.840600	0.901700
C581	C58	0.321500	0.053100	0.103800
C591	C59	0.742300	0.340600	0.976300
C601	C60	0.683100	0.781400	0.476300
C611	C61	0.245800	0.712600	0.609800
C621	C62	0.322400	0.212600	0.033200
C631	C63	0.621300	0.625700	0.377000
C641	C64	0.916100	0.990500	0.367000
C651	C65	0.916100	0.133000	0.509500
C661	C66	0.696600	0.320200	0.919000
C671	C67	0.083900	0.716900	0.925600
C681	C68	0.644600	0.375900	0.796500
C691	C69	0.678500	0.574700	0.268400
C701	C70	0.644600	0.703500	0.124100
C711	C71	0.827600	0.058900	0.296500
C721	C72	0.626900	0.291000	0.801100
O11	O1	0.402200	0.590700	0.479900
O21	O2	0.070600	0.188500	0.409300
O31	O3	0.266600	0.277900	0.328700
O41	O4	0.255300	0.898900	0.480000
O51	O5	0.500000	0.890100	0.939100
O61	O6	0.070600	0.090700	0.311500
O71	O7	0.107100	0.963500	0.673600
O81	O8	0.829200	0.390100	0.109900
O91	O9	0.637100	0.463500	0.643600
O101	O10	0.402200	0.020100	0.909300
O111	O11	0.378900	0.643600	0.101100
O121	O12	0.500000	0.560900	0.609900
O131	O13	0.632800	0.563500	0.442500
O141	O14	0.597800	0.688500	0.382100
O151	O15	0.367200	0.430700	0.575300
O161	O16	0.621100	0.520000	0.735300
O171	O17	0.929400	0.520100	0.882100
O181	O18	0.170800	0.060900	0.439100
O191	O19	0.362900	0.326400	0.780700
O201	O20	0.787800	0.497600	0.205000
O211	O21	0.637100	0.856400	0.036500
O221	O22	0.702600	0.997600	0.790200
O231	O23	0.107100	0.826400	0.536500
O241	O24	0.393400	0.904700	0.828700
O251	O25	0.255300	0.020000	0.601100
O261	O26	0.297400	0.507200	0.705000
O271	O27	0.929400	0.617900	0.979900
O281	O28	0.006000	0.063500	0.569300
O291	O29	0.393400	0.671300	0.595300
O301	O30	0.733400	0.511300	0.095300
O311	O31	0.892900	0.356400	0.280700
O321	O32	0.362900	0.719300	0.173600
O331	O33	0.744700	0.264700	0.356400
O341	O34	0.787800	0.295000	0.002400
O351	O35	0.702600	0.709800	0.502400
O361	O36	0.266600	0.171300	0.222100
O371	O37	0.597800	0.117900	0.811500
O381	O38	0.744700	0.143600	0.235300
O391	O39	0.606600	0.777900	0.488700
O401	O40	0.621100	0.764700	0.980000
O411	O41	0.378900	0.398900	0.856400
O421	O42	0.606600	0.011300	0.722100
O431	O43	0.297400	0.795000	0.992800
O441	O44	0.994000	0.424700	0.942500
O451	O45	0.367200	0.924700	0.069300
O461	O46	0.733400	0.404700	0.988700
O471	O47	0.006000	0.930700	0.436500
O481	O48	0.632800	0.057500	0.936500
O491	O49	0.994000	0.557500	0.075300
O501	O50	0.212200	0.209800	0.492800
O511	O51	0.212200	0.007200	0.290200
O521	O52	0.892900	0.219300	0.143600
