data_ic5011133_si_004_clean_PM
_symmetry_space_group_name_H-M	'P1'
_cell_length_a	15.355200
_cell_length_b	15.355200
_cell_length_c	16.958000
_cell_angle_alpha	67.503000
_cell_angle_beta	67.503000
_cell_angle_gamma	64.431100
_symmetry_Int_Tables_number 1

loop_
_symmetry_equiv_pos_as_xyz
'x,y,z'

loop_
_atom_site_label
_atom_site_type_symbol
_atom_site_fract_x
_atom_site_fract_y
_atom_site_fract_z
Co11	Co1	0.458220	0.267100	0.382580
Co21	Co2	0.732900	0.541780	0.117420
Co31	Co3	0.343010	0.656990	0.750000
Co41	Co4	0.267100	0.458220	0.882580
Co51	Co5	0.656990	0.343010	0.250000
Co61	Co6	0.541780	0.732900	0.617420
H11	H1	0.963000	0.635200	0.944400
H21	H2	0.436000	0.342400	0.612500
H31	H3	0.684300	0.405500	0.450700
H41	H4	0.364800	0.037000	0.555600
H51	H5	0.895100	0.755900	0.358600
H61	H6	0.037000	0.364800	0.055600
H71	H7	0.045900	0.840700	0.722600
H81	H8	0.342400	0.436000	0.112500
H91	H9	0.564000	0.657600	0.387500
H101	H10	0.244100	0.104900	0.141400
H111	H11	0.315700	0.594500	0.549300
H121	H12	0.405500	0.684300	0.950700
H131	H13	0.840700	0.045900	0.222600
H141	H14	0.594500	0.315700	0.049300
H151	H15	0.635200	0.963000	0.444400
H161	H16	0.104900	0.244100	0.641400
H171	H17	0.954100	0.159300	0.277400
H181	H18	0.755900	0.895100	0.858600
H191	H19	0.495700	0.547500	0.173500
H201	H20	0.159300	0.954100	0.777400
H211	H21	0.452500	0.504300	0.326500
H221	H22	0.657600	0.564000	0.887500
H231	H23	0.547500	0.495700	0.673500
H241	H24	0.504300	0.452500	0.826500
C11	C1	0.610600	0.563200	0.267900
C21	C2	0.521400	0.579000	0.345000
C31	C3	0.371300	0.483900	0.098700
C41	C4	0.765900	0.730700	0.990800
C51	C5	0.180500	0.003700	0.731100
C61	C6	0.021500	0.724500	0.831300
C71	C7	0.238400	0.153000	0.585900
C81	C8	0.656700	0.127500	0.317100
C91	C9	0.819500	0.996300	0.268900
C101	C10	0.852600	0.822000	0.351600
C111	C11	0.343300	0.872500	0.682900
C121	C12	0.456600	0.628800	0.059000
C131	C13	0.178000	0.147400	0.148400
C141	C14	0.946800	0.696800	0.903400
C151	C15	0.562800	0.365400	0.520500
C161	C16	0.563200	0.610600	0.767900
C171	C17	0.463100	0.551100	0.135400
C181	C18	0.269300	0.234100	0.509200
C191	C19	0.978500	0.275500	0.168700
C201	C20	0.147400	0.178000	0.648400
C211	C21	0.104000	0.120200	0.221600
C221	C22	0.506200	0.705800	0.030600
C231	C23	0.127500	0.656700	0.817100
C241	C24	0.371200	0.543400	0.441000
C251	C25	0.561700	0.322500	0.455300
C261	C26	0.628700	0.516100	0.901300
C271	C27	0.303200	0.053200	0.596600
C281	C28	0.365400	0.562800	0.020500
C291	C29	0.053200	0.303200	0.096600
C301	C30	0.367200	0.591400	0.497600
C311	C31	0.634600	0.437200	0.979500
C321	C32	0.294200	0.493800	0.469400
C331	C33	0.872500	0.343300	0.182900
C341	C34	0.516100	0.628700	0.401300
C351	C35	0.322500	0.561700	0.955300
C361	C36	0.896000	0.879800	0.778400
C371	C37	0.976400	0.867600	0.207000
C381	C38	0.579000	0.521400	0.845000
C391	C39	0.705800	0.506200	0.530600
C401	C40	0.632800	0.408600	0.502400
C411	C41	0.677500	0.438300	0.044700
C421	C42	0.847000	0.761600	0.914100
C431	C43	0.234100	0.269300	0.009200
C441	C44	0.551100	0.463100	0.635400
C451	C45	0.483900	0.371300	0.598700
C461	C46	0.389400	0.436800	0.732100
C471	C47	0.275500	0.978500	0.668700
C481	C48	0.132400	0.023600	0.293000
C491	C49	0.448900	0.536900	0.364600
C501	C50	0.003700	0.180500	0.231100
C511	C51	0.761600	0.847000	0.414100
C521	C52	0.408600	0.632800	0.002400
C531	C53	0.591400	0.367200	0.997600
C541	C54	0.153000	0.238400	0.085900
C551	C55	0.437200	0.634600	0.479500
C561	C56	0.879800	0.896000	0.278400
C571	C57	0.628800	0.456600	0.559000
C581	C58	0.696800	0.946800	0.403400
C591	C59	0.867600	0.976400	0.707000
C601	C60	0.996300	0.819500	0.768900
C611	C61	0.023600	0.132400	0.793000
C621	C62	0.478600	0.421000	0.655000
C631	C63	0.543400	0.371200	0.941000
C641	C64	0.724500	0.021500	0.331300
C651	C65	0.436800	0.389400	0.232100
C661	C66	0.730700	0.765900	0.490800
C671	C67	0.120200	0.104000	0.721600
C681	C68	0.438300	0.677500	0.544700
C691	C69	0.421000	0.478600	0.155000
C701	C70	0.493800	0.294200	0.969400
C711	C71	0.822000	0.852600	0.851600
C721	C72	0.536900	0.448900	0.864600
O11	O1	0.998200	0.060800	0.852200
O21	O2	0.358280	0.204480	0.460700
O31	O3	0.691470	0.193470	0.262500
O41	O4	0.777000	0.023000	0.709300
O51	O5	0.939200	0.001800	0.647800
O61	O6	0.860160	0.433760	0.135900
O71	O7	0.374520	0.498520	0.773600
O81	O8	0.632030	0.325230	0.383200
O91	O9	0.023000	0.777000	0.209300
O101	O10	0.709500	0.507300	0.026700
O111	O11	0.290500	0.492700	0.973300
O121	O12	0.678730	0.789530	0.001000
O131	O13	0.795520	0.641720	0.039300
O141	O14	0.498520	0.374520	0.273600
O151	O15	0.806530	0.308530	0.237500
O161	O16	0.367970	0.674770	0.616800
O171	O17	0.667280	0.612880	0.240000
O181	O18	0.501480	0.625480	0.726400
O191	O19	0.139840	0.566240	0.864100
O201	O20	0.674770	0.367970	0.116800
O211	O21	0.492700	0.290500	0.473300
O221	O22	0.442120	0.307720	0.915700
O231	O23	0.433760	0.860160	0.635900
O241	O24	0.612880	0.667280	0.740000
O251	O25	0.060800	0.998200	0.352200
O261	O26	0.332720	0.387120	0.760000
O271	O27	0.566240	0.139840	0.364100
O281	O28	0.789530	0.678730	0.501000
O291	O29	0.692280	0.557880	0.584300
O301	O30	0.001800	0.939200	0.147800
O311	O31	0.193470	0.691470	0.762500
O321	O32	0.502600	0.225800	0.034600
O331	O33	0.387120	0.332720	0.260000
O341	O34	0.625480	0.501480	0.226400
O351	O35	0.774200	0.497400	0.465400
O361	O36	0.223000	0.977000	0.290700
O371	O37	0.225800	0.502600	0.534600
O381	O38	0.204480	0.358280	0.960700
O391	O39	0.497400	0.774200	0.965400
O401	O40	0.307720	0.442120	0.415700
O411	O41	0.507300	0.709500	0.526700
O421	O42	0.308530	0.806530	0.737500
O431	O43	0.557880	0.692280	0.084300
O441	O44	0.325230	0.632030	0.883200
O451	O45	0.977000	0.223000	0.790700
O461	O46	0.641720	0.795520	0.539300
O471	O47	0.321270	0.210470	0.999000
O481	O48	0.210470	0.321270	0.499000
