data_ic501898x_si_004_clean_PM
_symmetry_space_group_name_H-M	'P1'
_cell_length_a	10.543400
_cell_length_b	20.724400
_cell_length_c	20.724400
_cell_angle_alpha	86.290000
_cell_angle_beta	75.263600
_cell_angle_gamma	75.263500
_symmetry_Int_Tables_number 1

loop_
_symmetry_equiv_pos_as_xyz
'x,y,z'

loop_
_atom_site_label
_atom_site_type_symbol
_atom_site_fract_x
_atom_site_fract_y
_atom_site_fract_z
Co11	Co1	0.033890	0.689850	0.225550
Co21	Co2	0.740560	0.225550	0.810150
Co31	Co3	0.276260	0.274450	0.689850
Co41	Co4	0.449290	0.810150	0.274450
Co51	Co5	0.259440	0.774450	0.189850
Co61	Co6	0.550710	0.189850	0.725550
Co71	Co7	0.966110	0.310150	0.774450
Co81	Co8	0.723740	0.725550	0.310150
H11	H1	0.004600	0.918500	0.204700
H21	H2	0.381300	0.131900	0.871900
H31	H3	0.426100	0.002000	0.202200
H41	H4	0.746800	0.871900	0.368100
H51	H5	0.995400	0.081500	0.795300
H61	H6	0.923100	0.704700	0.081500
H71	H7	0.437900	0.168400	0.389000
H81	H8	0.253200	0.128100	0.631900
H91	H9	0.513600	0.516400	0.112800
H101	H10	0.562100	0.831600	0.611000
H111	H11	0.098600	0.970100	0.776700
H121	H12	0.875300	0.223300	0.470100
H131	H13	0.504700	0.668400	0.889000
H141	H14	0.513200	0.371900	0.868100
H151	H15	0.076900	0.295300	0.918500
H161	H16	0.826900	0.611000	0.668400
H171	H17	0.495300	0.331600	0.111000
H181	H18	0.628300	0.797800	0.502000
H191	H19	0.172000	0.973000	0.100400
H201	H20	0.130300	0.498000	0.297800
H211	H21	0.393700	0.111000	0.168400
H221	H22	0.727600	0.100400	0.527000
H231	H23	0.618700	0.868100	0.128100
H241	H24	0.777500	0.435700	0.081500
H251	H25	0.114900	0.631900	0.371900
H261	H26	0.642800	0.983600	0.387200
H271	H27	0.345400	0.529900	0.723300
H281	H28	0.571900	0.297800	0.002000
H291	H29	0.254600	0.473000	0.600400
H301	H30	0.573900	0.998000	0.797800
H311	H31	0.885100	0.368100	0.628100
H321	H32	0.373600	0.112800	0.983600
H331	H33	0.209300	0.795300	0.418500
H341	H34	0.901400	0.029900	0.223300
H351	H35	0.357200	0.016400	0.612800
H361	H36	0.794700	0.064300	0.418500
H371	H37	0.124700	0.776700	0.529900
H381	H38	0.627800	0.581500	0.295300
H391	H39	0.213200	0.581500	0.564300
H401	H40	0.371700	0.202200	0.498000
H411	H41	0.855000	0.399600	0.973000
H421	H42	0.606300	0.889000	0.831600
H431	H43	0.970000	0.387200	0.516400
H441	H44	0.372200	0.418500	0.704700
H451	H45	0.859000	0.918500	0.935700
H461	H46	0.786800	0.418500	0.435700
H471	H47	0.745400	0.527000	0.399600
H481	H48	0.205300	0.935700	0.581500
H491	H49	0.141000	0.081500	0.064300
H501	H50	0.272400	0.899600	0.473000
H511	H51	0.828000	0.027000	0.899600
H521	H52	0.145000	0.600400	0.027000
H531	H53	0.030000	0.612800	0.483600
H541	H54	0.486400	0.483600	0.887200
H551	H55	0.626400	0.887200	0.016400
H561	H56	0.931300	0.723300	0.970100
H571	H57	0.173100	0.389000	0.331600
H581	H58	0.222500	0.564300	0.918500
H591	H59	0.790700	0.204700	0.581500
H601	H60	0.654600	0.470100	0.276700
H611	H61	0.486800	0.628100	0.131900
H621	H62	0.428100	0.702200	0.998000
H631	H63	0.068700	0.276700	0.029900
H641	H64	0.869700	0.502000	0.702200
C11	C1	0.371970	0.612160	0.891500
C21	C2	0.091960	0.406600	0.681680
C31	C3	0.828530	0.240880	0.568460
C41	C4	0.060330	0.481890	0.325250
C51	C5	0.862130	0.740880	0.068460
C61	C6	0.709270	0.092530	0.434130
C71	C7	0.226360	0.681680	0.093400
C81	C8	0.239950	0.980510	0.693590
C91	C9	0.089510	0.215970	0.141210
C101	C10	0.651010	0.916600	0.845780
C111	C11	0.501440	0.818320	0.406600
C121	C12	0.885000	0.338530	0.596270
C131	C13	0.482750	0.311870	0.765630
C141	C14	0.517250	0.688130	0.234370
C151	C15	0.143400	0.565870	0.592530
C161	C16	0.934960	0.350120	0.529360
C171	C17	0.869040	0.998340	0.252380
C181	C18	0.385580	0.674750	0.981890
C191	C19	0.535680	0.529360	0.149880
C201	C20	0.434190	0.899110	0.718910
C211	C21	0.603010	0.568460	0.259120
C221	C22	0.794620	0.265630	0.688130
C231	C23	0.714920	0.970640	0.350120
C241	C24	0.198200	0.065870	0.092530
C251	C25	0.984130	0.391500	0.387840
C261	C26	0.496790	0.154220	0.416600
C271	C27	0.680240	0.093400	0.818320
C281	C28	0.086610	0.416600	0.345780
C291	C29	0.867380	0.752380	0.001660
C301	C30	0.549240	0.616120	0.217200
C311	C31	0.248380	0.234370	0.811870
C321	C32	0.498560	0.181680	0.593400
C331	C33	0.698110	0.024030	0.843950
C341	C34	0.587440	0.407190	0.182930
C351	C35	0.939750	0.811870	0.265630
C361	C36	0.735930	0.407470	0.065870
C371	C37	0.005370	0.317070	0.407190
C381	C38	0.432390	0.654220	0.916600
C391	C39	0.783050	0.999180	0.885920
C401	C40	0.908040	0.593400	0.318320
C411	C41	0.015870	0.608500	0.612160
C421	C42	0.319800	0.161470	0.903730
C431	C43	0.694520	0.358790	0.215970
C441	C44	0.060250	0.188130	0.734370
C451	C45	0.171470	0.759120	0.431540
C461	C46	0.277860	0.656050	0.024030
C471	C47	0.305480	0.641210	0.784030
C481	C48	0.770370	0.817070	0.907190
C491	C49	0.685560	0.850120	0.029360
C501	C50	0.314440	0.149880	0.970640
C511	C51	0.782230	0.385920	0.000820
C521	C52	0.760050	0.019490	0.306410
C531	C53	0.552210	0.600890	0.781090
C541	C54	0.331030	0.885920	0.500820
C551	C55	0.567610	0.345780	0.083400
C561	C56	0.367470	0.018110	0.174750
C571	C57	0.263470	0.108500	0.112160
C581	C58	0.585950	0.480510	0.193590
C591	C59	0.946690	0.284030	0.358790
C601	C60	0.680200	0.838530	0.096270
C611	C61	0.856600	0.434130	0.407470
C621	C62	0.301890	0.975970	0.156050
C631	C63	0.165360	0.717200	0.383880
C641	C64	0.220460	0.193590	0.019490
C651	C65	0.115000	0.661470	0.403730
C661	C66	0.319760	0.906600	0.181680
C671	C67	0.619760	0.501660	0.247620
C681	C68	0.503210	0.845780	0.583400
C691	C69	0.834640	0.282800	0.616120
C701	C70	0.751620	0.765630	0.188130
C711	C71	0.053310	0.715970	0.641210
C721	C72	0.069410	0.068460	0.759120
C731	C73	0.930590	0.931540	0.240880
C741	C74	0.831850	0.499180	0.385920
C751	C75	0.769280	0.141210	0.284030
C761	C76	0.464320	0.470640	0.850120
C771	C77	0.447790	0.399110	0.218910
C781	C78	0.801800	0.934130	0.907470
C791	C79	0.414050	0.519490	0.806410
C801	C80	0.933910	0.524030	0.343950
C811	C81	0.677560	0.092810	0.317070
C821	C82	0.216950	0.000820	0.114080
C831	C83	0.457780	0.174750	0.481890
C841	C84	0.518730	0.596270	0.161470
C851	C85	0.285080	0.029360	0.649880
C861	C86	0.229630	0.182930	0.092810
C871	C87	0.882560	0.883880	0.282800
C881	C88	0.542060	0.156050	0.524030
C891	C89	0.322440	0.907190	0.682930
C901	C90	0.994630	0.682930	0.592810
C911	C91	0.628030	0.387840	0.108500
C921	C92	0.913390	0.583400	0.654220
C931	C93	0.939670	0.518110	0.674750
C941	C94	0.776470	0.903730	0.338530
C951	C95	0.217770	0.614080	0.999180
C961	C96	0.632530	0.981890	0.825250
C971	C97	0.614420	0.325250	0.018110
C981	C98	0.624370	0.112160	0.391500
C991	C99	0.481270	0.403730	0.838530
C1001	C100	0.233560	0.217200	0.883880
C1011	C101	0.722140	0.343950	0.975970
C1021	C102	0.066090	0.475970	0.656050
C1031	C103	0.565810	0.100890	0.281090
C1041	C104	0.846900	0.718910	0.600890
C1051	C105	0.450760	0.383880	0.782800
C1061	C106	0.153100	0.281090	0.399110
C1071	C107	0.396990	0.431540	0.740880
C1081	C108	0.333300	0.218910	0.100890
C1091	C109	0.290730	0.907470	0.565870
C1101	C110	0.264070	0.592530	0.934130
C1111	C111	0.910490	0.784030	0.858790
C1121	C112	0.132620	0.247620	0.998340
C1131	C113	0.223530	0.096270	0.661470
C1141	C114	0.666700	0.781090	0.899110
C1151	C115	0.137870	0.259120	0.931540
C1161	C116	0.779540	0.806410	0.980510
C1171	C117	0.736530	0.891500	0.887840
C1181	C118	0.121420	0.747620	0.498340
C1191	C119	0.168150	0.500820	0.614080
C1201	C120	0.380240	0.498340	0.752380
C1211	C121	0.348990	0.083400	0.154220
C1221	C122	0.412560	0.592810	0.817070
C1231	C123	0.066460	0.693590	0.519490
C1241	C124	0.065040	0.649880	0.470640
C1251	C125	0.457940	0.843950	0.475970
C1261	C126	0.205380	0.734370	0.311870
C1271	C127	0.668970	0.114080	0.499180
C1281	C128	0.230720	0.858790	0.715970
C1291	C129	0.878580	0.252380	0.501660
C1301	C130	0.542220	0.825250	0.518110
C1311	C131	0.130960	0.001660	0.747620
C1321	C132	0.766440	0.782800	0.116120
C1331	C133	0.773640	0.318320	0.906600
C1341	C134	0.117440	0.116120	0.717200
C1351	C135	0.933540	0.306410	0.480510
C1361	C136	0.375630	0.887840	0.608500
O11	O1	0.240260	0.788860	0.295220
O21	O2	0.901610	0.767260	0.304120
O31	O3	0.794270	0.304120	0.732740
O41	O4	0.574430	0.160270	0.632070
O51	O5	0.282080	0.723750	0.109090
O61	O6	0.994170	0.390910	0.723750
O71	O7	0.029120	0.795220	0.211140
O81	O8	0.098390	0.232740	0.695880
O91	O9	0.265300	0.867930	0.160270
O101	O10	0.472990	0.732740	0.195880
O111	O11	0.133230	0.660270	0.132070
O121	O12	0.759740	0.211140	0.704780
O131	O13	0.717920	0.276250	0.890910
O141	O14	0.527010	0.267260	0.804120
O151	O15	0.005830	0.609090	0.276250
O161	O16	0.866770	0.339730	0.867930
O171	O17	0.464520	0.295220	0.711140
O181	O18	0.391170	0.890910	0.223750
O191	O19	0.425570	0.839730	0.367930
O201	O20	0.793500	0.632070	0.339730
O211	O21	0.668870	0.804120	0.232740
O221	O22	0.535480	0.704780	0.288860
O231	O23	0.970880	0.204780	0.788860
O241	O24	0.206500	0.367930	0.660270
O251	O25	0.385080	0.223750	0.609090
O261	O26	0.205730	0.695880	0.267260
O271	O27	0.824340	0.711140	0.204780
O281	O28	0.331130	0.195880	0.767260
O291	O29	0.614920	0.776250	0.390910
O301	O30	0.608830	0.109090	0.776250
O311	O31	0.175660	0.288860	0.795220
O321	O32	0.734700	0.132070	0.839730
F11	F1	0.793720	0.141960	0.218000
F21	F2	0.406190	0.426110	0.280310
F31	F3	0.334010	0.227020	0.164360
F41	F4	0.225390	0.272980	0.335640
F51	F5	0.812350	0.301500	0.375600
F61	F6	0.458100	0.186400	0.070000
F71	F7	0.064320	0.282000	0.141960
F81	F8	0.010550	0.801500	0.875600
F91	F9	0.501630	0.164360	0.272980
F101	F10	0.113850	0.875600	0.698500
F111	F11	0.283270	0.703360	0.805300
F121	F12	0.214500	0.313600	0.430000
F131	F13	0.785500	0.686400	0.570000
F141	F14	0.011720	0.782000	0.641960
F151	F15	0.812050	0.375600	0.198500
F161	F16	0.989450	0.198500	0.124400
F171	F17	0.167700	0.219690	0.426110
F181	F18	0.665990	0.772980	0.835640
F191	F19	0.832300	0.780310	0.573890
F201	F20	0.498370	0.835640	0.727020
F211	F21	0.561030	0.664360	0.772980
F221	F22	0.986630	0.305300	0.296640
F231	F23	0.593810	0.573890	0.719690
F241	F24	0.206280	0.858040	0.782000
F251	F25	0.187950	0.624400	0.801500
F261	F26	0.013370	0.694700	0.703360
F271	F27	0.291930	0.796640	0.694700
F281	F28	0.911430	0.805300	0.796640
F291	F29	0.886150	0.124400	0.301500
F301	F30	0.355500	0.430000	0.186400
F311	F31	0.438970	0.335640	0.227020
F321	F32	0.387390	0.926110	0.780310
F331	F33	0.774610	0.727020	0.664360
F341	F34	0.708070	0.203360	0.305300
F351	F35	0.686500	0.719690	0.926110
F361	F36	0.644500	0.570000	0.813600
F371	F37	0.088570	0.194700	0.203360
F381	F38	0.612610	0.073890	0.219690
F391	F39	0.988280	0.218000	0.358040
F401	F40	0.528100	0.930000	0.686400
F411	F41	0.541900	0.813600	0.930000
F421	F42	0.346320	0.641960	0.718000
F431	F43	0.653680	0.358040	0.282000
F441	F44	0.313500	0.280310	0.073890
F451	F45	0.471900	0.070000	0.313600
F461	F46	0.716730	0.296640	0.194700
F471	F47	0.187650	0.698500	0.624400
F481	F48	0.935680	0.718000	0.858040
