data_ic502369y_si_002_clean_PM
_symmetry_space_group_name_H-M	'P1'
_cell_length_a	7.772000
_cell_length_b	18.629000
_cell_length_c	19.151500
_cell_angle_alpha	90.000000
_cell_angle_beta	98.934100
_cell_angle_gamma	90.000000
_symmetry_Int_Tables_number 1

loop_
_symmetry_equiv_pos_as_xyz
'x,y,z'

loop_
_atom_site_label
_atom_site_type_symbol
_atom_site_fract_x
_atom_site_fract_y
_atom_site_fract_z
Co11	Co1	0.233370	0.060030	0.035360
Co21	Co2	0.733370	0.439970	0.535360
Co31	Co3	0.266630	0.560030	0.464640
Co41	Co4	0.233580	0.939960	0.529480
Co51	Co5	0.266420	0.439960	0.970520
Co61	Co6	0.766630	0.939970	0.964640
Co71	Co7	0.733580	0.560040	0.029480
Co81	Co8	0.766420	0.060040	0.470520
H11	H1	0.593000	0.480100	0.280800
H21	H2	0.687300	0.794800	0.747800
H31	H3	0.305200	0.356200	0.621200
H41	H4	0.536400	0.688300	0.713100
H51	H5	0.343800	0.811400	0.288800
H61	H6	0.558400	0.852200	0.381900
H71	H7	0.465100	0.685100	0.785500
H81	H8	0.156200	0.311400	0.211200
H91	H9	0.031600	0.002300	0.165900
H101	H10	0.058400	0.647800	0.881900
H111	H11	0.557300	0.147300	0.883600
H121	H12	0.798100	0.853700	0.629300
H131	H13	0.457200	0.709600	0.530600
H141	H14	0.008200	0.921000	0.183700
H151	H15	0.057300	0.352700	0.383600
H161	H16	0.843800	0.688600	0.788800
H171	H17	0.991800	0.079000	0.816300
H181	H18	0.391100	0.203800	0.181700
H191	H19	0.776700	0.298400	0.361600
H201	H20	0.544300	0.709500	0.965800
H211	H21	0.805200	0.143800	0.121200
H221	H22	0.093000	0.019900	0.780800
H231	H23	0.655600	0.813100	0.210500
H241	H24	0.114500	0.299100	0.812600
H251	H25	0.531600	0.497700	0.665900
H261	H26	0.201900	0.146300	0.370700
H271	H27	0.276700	0.201600	0.861600
H281	H28	0.608900	0.796200	0.818300
H291	H29	0.534900	0.314900	0.214500
H301	H30	0.307800	0.791600	0.757800
H311	H31	0.968400	0.997700	0.834100
H321	H32	0.701900	0.353700	0.870700
H331	H33	0.508200	0.579000	0.683700
H341	H34	0.542800	0.290400	0.469400
H351	H35	0.463600	0.311700	0.286900
H361	H36	0.192200	0.291600	0.742200
H371	H37	0.034900	0.185100	0.714500
H381	H38	0.491800	0.421000	0.316300
H391	H39	0.441600	0.147800	0.618100
H401	H40	0.955700	0.209500	0.534200
H411	H41	0.957200	0.790400	0.030600
H421	H42	0.277500	0.801000	0.361900
H431	H43	0.891100	0.296200	0.681700
H441	H44	0.442700	0.852700	0.116400
H451	H45	0.965100	0.814900	0.285500
H461	H46	0.155600	0.686900	0.710500
H471	H47	0.907000	0.980100	0.219200
H481	H48	0.942700	0.647300	0.616400
H491	H49	0.468400	0.502300	0.334100
H501	H50	0.223300	0.701600	0.638400
H511	H51	0.692200	0.208400	0.242200
H521	H52	0.722500	0.199000	0.638100
H531	H53	0.344400	0.186900	0.789500
H541	H54	0.812700	0.294800	0.752200
H551	H55	0.941600	0.352200	0.118100
H561	H56	0.194800	0.856200	0.878800
H571	H57	0.723300	0.798400	0.138400
H581	H58	0.844400	0.313100	0.289500
H591	H59	0.036400	0.811700	0.213100
H601	H60	0.963600	0.188300	0.786900
H611	H61	0.455700	0.290500	0.034200
H621	H62	0.407000	0.519900	0.719200
H631	H63	0.807800	0.708400	0.257800
H641	H64	0.385500	0.799100	0.687400
H651	H65	0.108900	0.703800	0.318300
H661	H66	0.312700	0.205200	0.252200
H671	H67	0.044300	0.790500	0.465800
H681	H68	0.222500	0.301000	0.138100
H691	H69	0.614500	0.200900	0.312600
H701	H70	0.187300	0.705200	0.247800
H711	H71	0.885500	0.700900	0.187400
H721	H72	0.656200	0.188600	0.711200
H731	H73	0.694800	0.643800	0.378800
H741	H74	0.298100	0.646300	0.129300
H751	H75	0.042800	0.209600	0.969400
H761	H76	0.777500	0.699000	0.861900
C11	C1	0.473300	0.848300	0.564400
C21	C2	0.694100	0.223700	0.679400
C31	C3	0.808600	0.832660	0.427700
C41	C4	0.145400	0.091000	0.552700
C51	C5	0.276600	0.308920	0.609100
C61	C6	0.640900	0.816100	0.392800
C71	C7	0.476200	0.150500	0.058700
C81	C8	0.106870	0.709560	0.078270
C91	C9	0.450600	0.533400	0.676800
C101	C10	0.932800	0.779150	0.443400
C111	C11	0.191400	0.167340	0.572300
C121	C12	0.897400	0.753200	0.627900
C131	C13	0.650600	0.764800	0.784200
C141	C14	0.223400	0.808920	0.890900
C151	C15	0.389160	0.791880	0.925260
C161	C16	0.893130	0.290440	0.921730
C171	C17	0.150600	0.735200	0.284200
C181	C18	0.308600	0.667340	0.927700
C191	C19	0.347800	0.407800	0.455600
C201	C20	0.999800	0.782800	0.250300
C211	C21	0.102600	0.246800	0.372100
C221	C22	0.099700	0.754300	0.874800
C231	C23	0.346100	0.764800	0.719600
C241	C24	0.192700	0.723900	0.680600
C251	C25	0.359100	0.183900	0.607200
C261	C26	0.302600	0.538700	0.617200
C271	C27	0.807300	0.276100	0.319400
C281	C28	0.271800	0.693000	0.114300
C291	C29	0.023800	0.650500	0.441300
C301	C30	0.889160	0.708120	0.425260
C311	C31	0.859200	0.683200	0.606600
C321	C32	0.397400	0.746800	0.127900
C331	C33	0.847800	0.092200	0.955600
C341	C34	0.153900	0.264800	0.780400
C351	C35	0.307000	0.332950	0.429900
C361	C36	0.197400	0.038700	0.882800
C371	C37	0.354600	0.591000	0.947300
C381	C38	0.049400	0.033400	0.823200
C391	C39	0.194100	0.276300	0.179400
C401	C40	0.854600	0.909000	0.447300
C411	C41	0.349400	0.235200	0.215800
C421	C42	0.599700	0.745700	0.374800
C431	C43	0.152200	0.907800	0.044400
C441	C44	0.305900	0.776300	0.320600
C451	C45	0.933350	0.220480	0.944650
C461	C46	0.066650	0.779520	0.055350
C471	C47	0.307300	0.223900	0.819400
C481	C48	0.359200	0.816800	0.106600
C491	C49	0.193000	0.832950	0.070100
C501	C50	0.976200	0.349500	0.558700
C511	C51	0.067200	0.220850	0.556600
C521	C52	0.805900	0.723700	0.820600
C531	C53	0.228200	0.193000	0.385700
C541	C54	0.802600	0.961300	0.117200
C551	C55	0.771800	0.807000	0.614300
C561	C56	0.566650	0.720480	0.555350
C571	C57	0.140900	0.683900	0.892800
C581	C58	0.433350	0.279520	0.444650
C591	C59	0.645400	0.409000	0.052700
C601	C60	0.432800	0.720850	0.943400
C611	C61	0.846100	0.735200	0.219600
C621	C62	0.640800	0.183200	0.893400
C631	C63	0.606870	0.790440	0.578270
C641	C64	0.000200	0.217200	0.749700
C651	C65	0.523800	0.849500	0.941300
C661	C66	0.567200	0.279150	0.056600
C671	C67	0.110840	0.291880	0.574740
C681	C68	0.697400	0.461300	0.382800
C691	C69	0.859100	0.316100	0.107200
C701	C70	0.610840	0.208120	0.074740
C711	C71	0.692700	0.776100	0.180600
C721	C72	0.693000	0.667050	0.570100
C731	C73	0.653900	0.235200	0.280400
C741	C74	0.026700	0.348300	0.935600
C751	C75	0.652200	0.592200	0.544400
C761	C76	0.602600	0.253200	0.872100
C771	C77	0.776600	0.191080	0.109100
C781	C78	0.849400	0.264800	0.715800
C791	C79	0.691400	0.332660	0.072300
C801	C80	0.723400	0.691080	0.390900
C811	C81	0.500200	0.282800	0.249700
C821	C82	0.728200	0.307000	0.885700
C831	C83	0.973300	0.651700	0.064400
C841	C84	0.900300	0.245700	0.125200
C851	C85	0.140800	0.316800	0.393400
C861	C86	0.400300	0.254300	0.625200
C871	C87	0.499800	0.717200	0.750300
C881	C88	0.526700	0.151700	0.435600
C891	C89	0.393130	0.209560	0.421730
C901	C90	0.807000	0.167050	0.929900
C911	C91	0.549400	0.466600	0.323200
C921	C92	0.950600	0.966600	0.176800
N11	N1	0.185800	0.538200	0.564200
N21	N2	0.314200	0.038200	0.935800
N31	N3	0.685800	0.961800	0.064200
N41	N4	0.814200	0.461800	0.435800
O11	O1	0.485400	0.418180	0.497300
O21	O2	0.172570	0.334450	0.972170
O31	O3	0.489080	0.913520	0.921480
O41	O4	0.737730	0.044380	0.935530
O51	O5	0.056130	0.776040	0.662030
O61	O6	0.504310	0.910770	0.589010
O71	O7	0.556130	0.723960	0.162030
O81	O8	0.943870	0.223960	0.337970
O91	O9	0.237730	0.455620	0.435530
O101	O10	0.173490	0.666450	0.471190
O111	O11	0.672570	0.165550	0.472170
O121	O12	0.060340	0.223520	0.159240
O131	O13	0.004310	0.589230	0.089010
O141	O14	0.985400	0.081820	0.997300
O151	O15	0.762270	0.544380	0.564470
O161	O16	0.443870	0.276040	0.837970
O171	O17	0.989080	0.586480	0.421480
O181	O18	0.560340	0.276480	0.659240
O191	O19	0.268460	0.046740	0.553160
O201	O20	0.512400	0.574150	0.961400
O211	O21	0.995690	0.410770	0.910990
O221	O22	0.939660	0.776480	0.840760
O231	O23	0.010920	0.413520	0.578520
O241	O24	0.495690	0.089230	0.410990
O251	O25	0.673490	0.833550	0.971190
O261	O26	0.014600	0.918180	0.002700
O271	O27	0.514600	0.581820	0.502700
O281	O28	0.439660	0.723520	0.340760
O291	O29	0.262270	0.955620	0.064470
O301	O30	0.012400	0.925850	0.461400
O311	O31	0.987600	0.074150	0.538600
O321	O32	0.768460	0.453260	0.053160
O331	O33	0.231540	0.546740	0.946840
O341	O34	0.731540	0.953260	0.446840
O351	O35	0.487600	0.425850	0.038600
O361	O36	0.510920	0.086480	0.078520
O371	O37	0.827430	0.665550	0.027830
O381	O38	0.826510	0.333550	0.528810
O391	O39	0.327430	0.834450	0.527830
O401	O40	0.326510	0.166450	0.028810
