data_ic5008457_si_002_clean_PM
_symmetry_space_group_name_H-M	'P1'
_cell_length_a	13.135000
_cell_length_b	14.855000
_cell_length_c	15.390000
_cell_angle_alpha	90.000000
_cell_angle_beta	91.130000
_cell_angle_gamma	90.000000
_symmetry_Int_Tables_number 1

loop_
_symmetry_equiv_pos_as_xyz
'x,y,z'

loop_
_atom_site_label
_atom_site_type_symbol
_atom_site_fract_x
_atom_site_fract_y
_atom_site_fract_z
Cu11	Cu1	0.982250	0.708190	0.097070
Cu21	Cu2	0.000000	0.500000	0.000000
Cu31	Cu3	0.517750	0.208190	0.402930
Cu41	Cu4	0.017750	0.291810	0.902930
Cu51	Cu5	0.482250	0.791810	0.597070
Cu61	Cu6	0.500000	0.000000	0.500000
H11	H1	0.598100	0.630700	0.648700
H21	H2	0.732500	0.307600	0.164400
H31	H3	0.650000	0.371200	0.444300
H41	H4	0.294400	0.169600	0.143300
H51	H5	0.783500	0.084800	0.748700
H61	H6	0.261400	0.036100	0.876100
H71	H7	0.716500	0.584800	0.751300
H81	H8	0.283500	0.415200	0.248700
H91	H9	0.850000	0.871200	0.055700
H101	H10	0.238600	0.536100	0.623900
H111	H11	0.091000	0.629800	0.250500
H121	H12	0.794400	0.330400	0.643300
H131	H13	0.901900	0.130700	0.851300
H141	H14	0.401900	0.369300	0.351300
H151	H15	0.767500	0.807600	0.335600
H161	H16	0.761400	0.463900	0.376100
H171	H17	0.624400	0.218300	0.239800
H181	H18	0.350000	0.628800	0.555700
H191	H19	0.216500	0.915200	0.251300
H201	H20	0.705600	0.830400	0.856700
H211	H21	0.409000	0.129800	0.249500
H221	H22	0.738600	0.963900	0.123900
H231	H23	0.124400	0.281700	0.739800
H241	H24	0.098100	0.869300	0.148700
H251	H25	0.267500	0.692400	0.835600
H261	H26	0.232500	0.192400	0.664400
H271	H27	0.909000	0.370200	0.749500
H281	H28	0.205600	0.669600	0.356700
H291	H29	0.375600	0.781700	0.760200
H301	H30	0.591000	0.870200	0.750500
H311	H31	0.875600	0.718300	0.260200
H321	H32	0.150000	0.128800	0.944300
C11	C1	0.723400	0.702800	0.816000
C21	C2	0.884300	0.311500	0.748300
C31	C3	0.223400	0.797200	0.316000
C41	C4	0.332700	0.641600	0.612700
C51	C5	0.652000	0.268800	0.267200
C61	C6	0.260000	0.103000	0.760500
C71	C7	0.776600	0.202800	0.684000
C81	C8	0.667300	0.358400	0.387300
C91	C9	0.240000	0.603000	0.739500
C101	C10	0.348000	0.731200	0.732800
C111	C11	0.119900	0.828900	0.191400
C121	C12	0.309100	0.356800	0.247400
C131	C13	0.797800	0.673000	0.883400
C141	C14	0.170000	0.545100	0.787300
C151	C15	0.233800	0.085500	0.846800
C161	C16	0.167300	0.141600	0.887300
C171	C17	0.315100	0.211400	0.185100
C181	C18	0.740000	0.897000	0.239500
C191	C19	0.782900	0.822000	0.278500
C201	C20	0.217100	0.178000	0.721500
C211	C21	0.619900	0.671100	0.691400
C221	C22	0.190900	0.856800	0.252600
C231	C23	0.184900	0.711400	0.314900
C241	C24	0.815100	0.288600	0.685100
C251	C25	0.330000	0.045100	0.712700
C261	C26	0.202200	0.327000	0.116600
C271	C27	0.760000	0.397000	0.260500
C281	C28	0.733800	0.414500	0.346800
C291	C29	0.615700	0.811500	0.751700
C301	C30	0.702200	0.173000	0.616600
C311	C31	0.384300	0.188500	0.248300
C321	C32	0.848000	0.768800	0.232800
C331	C33	0.684900	0.788600	0.814900
C341	C34	0.830000	0.454900	0.212700
C351	C35	0.380100	0.328900	0.308600
C361	C36	0.766200	0.914500	0.153200
C371	C37	0.152000	0.231200	0.767200
C381	C38	0.717100	0.322000	0.221500
C391	C39	0.115700	0.688500	0.251700
C401	C40	0.832700	0.858400	0.112700
C411	C41	0.282900	0.678000	0.778500
C421	C42	0.266200	0.585500	0.653200
C431	C43	0.276600	0.297200	0.184000
C441	C44	0.670000	0.954900	0.287300
C451	C45	0.809100	0.143200	0.747400
C461	C46	0.880100	0.171100	0.808600
C471	C47	0.297800	0.827000	0.383400
C481	C48	0.690900	0.643200	0.752600
N11	N1	0.418500	0.246300	0.308800
N21	N2	0.328400	0.145300	0.454800
N31	N3	0.744900	0.333900	0.964900
N41	N4	0.413800	0.123800	0.447900
N51	N5	0.255100	0.666100	0.035100
N61	N6	0.644700	0.039800	0.267100
N71	N7	0.671600	0.854700	0.545200
N81	N8	0.374200	0.714500	0.651000
N91	N9	0.372900	0.073100	0.639900
N101	N10	0.842500	0.592600	0.883900
N111	N11	0.083700	0.434300	0.831000
N121	N12	0.672900	0.224500	0.549500
N131	N13	0.107600	0.326800	0.005600
N141	N14	0.913800	0.376200	0.947900
N151	N15	0.392400	0.826800	0.494400
N161	N16	0.073800	0.502570	0.885800
N171	N17	0.125800	0.214500	0.849000
N181	N18	0.086200	0.623800	0.052100
N191	N19	0.607600	0.173200	0.505600
N201	N20	0.244900	0.166100	0.464900
N211	N21	0.426200	0.002570	0.614200
N221	N22	0.416300	0.934300	0.669000
N231	N23	0.657500	0.092600	0.616100
N241	N24	0.573800	0.997430	0.385800
N251	N25	0.581500	0.753700	0.691200
N261	N26	0.916300	0.565700	0.169000
N271	N27	0.901900	0.594600	0.954800
N281	N28	0.355300	0.960200	0.732900
N291	N29	0.586200	0.876200	0.552100
N301	N30	0.872900	0.426900	0.139900
N311	N31	0.098100	0.405400	0.045200
N321	N32	0.855300	0.539800	0.232900
N331	N33	0.171600	0.645300	0.045200
N341	N34	0.598100	0.094600	0.545200
N351	N35	0.127100	0.573100	0.860100
N361	N36	0.401900	0.905400	0.454800
N371	N37	0.918500	0.253700	0.808800
N381	N38	0.172900	0.275500	0.049500
N391	N39	0.157500	0.407400	0.116100
N401	N40	0.926200	0.497430	0.114200
N411	N41	0.342500	0.907400	0.383900
N421	N42	0.755100	0.833900	0.535100
N431	N43	0.827100	0.724500	0.950500
N441	N44	0.892400	0.673200	0.994400
N451	N45	0.625800	0.285500	0.349000
N461	N46	0.874200	0.785500	0.151000
N471	N47	0.081500	0.746300	0.191200
N481	N48	0.144700	0.460200	0.767100
N491	N49	0.327100	0.775500	0.450500
N501	N50	0.583700	0.065700	0.331000
N511	N51	0.828400	0.354700	0.954800
N521	N52	0.627100	0.926900	0.360100
