data_ic5011133_si_003_clean_PM
_symmetry_space_group_name_H-M	'P1'
_cell_length_a	9.372700
_cell_length_b	11.986500
_cell_length_c	16.427600
_cell_angle_alpha	90.000000
_cell_angle_beta	90.000000
_cell_angle_gamma	109.616000
_symmetry_Int_Tables_number 1

loop_
_symmetry_equiv_pos_as_xyz
'x,y,z'

loop_
_atom_site_label
_atom_site_type_symbol
_atom_site_fract_x
_atom_site_fract_y
_atom_site_fract_z
Co11	Co1	0.876110	0.520690	0.412390
Co21	Co2	0.623890	0.979310	0.912390
Co31	Co3	0.376110	0.020690	0.087610
Co41	Co4	0.123890	0.479310	0.587610
H11	H1	0.730700	0.266200	0.195700
H21	H2	0.230700	0.766200	0.304300
H31	H3	0.014800	0.879500	0.933600
H41	H4	0.654400	0.804900	0.232200
H51	H5	0.154400	0.304900	0.267800
H61	H6	0.514800	0.379500	0.566400
H71	H7	0.769300	0.233800	0.695700
H81	H8	0.485200	0.620500	0.433600
H91	H9	0.345600	0.195100	0.767800
H101	H10	0.985200	0.120500	0.066400
H111	H11	0.845600	0.695100	0.732200
H121	H12	0.269300	0.733800	0.804300
C11	C1	0.765800	0.825300	0.844000
C21	C2	0.734200	0.674700	0.344000
C31	C3	0.707200	0.127900	0.066100
C41	C4	0.925200	0.725600	0.768600
C51	C5	0.908000	0.793200	0.834400
C61	C6	0.792800	0.372100	0.566100
C71	C7	0.425400	0.871200	0.185900
C81	C8	0.925400	0.371200	0.314100
C91	C9	0.292800	0.872100	0.933900
C101	C10	0.425200	0.225600	0.731400
C111	C11	0.092000	0.206800	0.165600
C121	C12	0.438600	0.797000	0.256600
C131	C13	0.820900	0.251100	0.188400
C141	C14	0.938600	0.297000	0.243400
C151	C15	0.164100	0.817100	0.877500
C161	C16	0.335900	0.682900	0.377500
C171	C17	0.265800	0.325300	0.656000
C181	C18	0.574800	0.774400	0.268600
C191	C19	0.061400	0.703000	0.756600
C201	C20	0.973200	0.163600	0.111400
C211	C21	0.234200	0.174700	0.156000
C221	C22	0.408000	0.293200	0.665600
C231	C23	0.664100	0.317100	0.622500
C241	C24	0.835900	0.182900	0.122500
C251	C25	0.207200	0.627900	0.433900
C261	C26	0.179100	0.748900	0.811600
C271	C27	0.526800	0.336400	0.611400
C281	C28	0.074600	0.628800	0.685900
C291	C29	0.320900	0.751100	0.311600
C301	C30	0.574600	0.128800	0.814100
C311	C31	0.473200	0.663600	0.388600
C321	C32	0.026800	0.836400	0.888600
C331	C33	0.592000	0.706800	0.334400
C341	C34	0.679100	0.248900	0.688400
C351	C35	0.561400	0.203000	0.743400
C361	C36	0.074800	0.274400	0.231400
O11	O1	0.008600	0.381900	0.374700
O21	O2	0.832100	0.703200	0.290700
O31	O3	0.827100	0.423600	0.310300
O41	O4	0.991400	0.618100	0.625300
O51	O5	0.267600	0.924900	0.994800
O61	O6	0.080400	0.635800	0.414800
O71	O7	0.580400	0.135800	0.085200
O81	O8	0.419600	0.864200	0.914800
O91	O9	0.672900	0.076400	0.810300
O101	O10	0.167900	0.296800	0.709300
O111	O11	0.767600	0.424900	0.505200
O121	O12	0.732400	0.075100	0.005200
O131	O13	0.260900	0.383800	0.592100
O141	O14	0.491400	0.118100	0.874700
O151	O15	0.327100	0.923600	0.189700
O161	O16	0.919600	0.364200	0.585200
O171	O17	0.667900	0.796800	0.790700
O181	O18	0.332100	0.203200	0.209300
O191	O19	0.508600	0.881900	0.125300
O201	O20	0.739100	0.616200	0.407900
O211	O21	0.232400	0.575100	0.494800
O221	O22	0.239100	0.116200	0.092100
O231	O23	0.172900	0.576400	0.689700
O241	O24	0.760900	0.883800	0.907900
