data_ic500323r_si_002_clean_PM
_symmetry_space_group_name_H-M	'P1'
_cell_length_a	10.955500
_cell_length_b	14.439700
_cell_length_c	14.717300
_cell_angle_alpha	85.062000
_cell_angle_beta	69.983000
_cell_angle_gamma	78.378000
_symmetry_Int_Tables_number 1

loop_
_symmetry_equiv_pos_as_xyz
'x,y,z'

loop_
_atom_site_label
_atom_site_type_symbol
_atom_site_fract_x
_atom_site_fract_y
_atom_site_fract_z
Fe11	Fe1	0.533090	0.250570	0.505320
Fe21	Fe2	0.466910	0.749430	0.494680
Fe31	Fe3	0.890940	0.750940	0.983460
Fe41	Fe4	0.109060	0.249060	0.016540
H11	H1	0.330200	0.166400	0.467000
H21	H2	0.854500	0.788800	0.579900
H31	H3	0.950500	0.090800	0.845400
H41	H4	0.894700	0.594500	0.380500
H51	H5	0.383300	0.431100	0.447100
H61	H6	0.105300	0.405500	0.619500
H71	H7	0.314300	0.931900	0.448100
H81	H8	0.920500	0.109000	0.362200
H91	H9	0.218600	0.547700	0.077500
H101	H10	0.616700	0.568900	0.552900
H111	H11	0.732100	0.332100	0.554600
H121	H12	0.824400	0.583900	0.818000
H131	H13	0.887800	0.971500	0.959500
H141	H14	0.013100	0.779400	0.758600
H151	H15	0.199400	0.482800	0.401600
H161	H16	0.049500	0.909200	0.154600
H171	H17	0.918500	0.282400	0.599200
H181	H18	0.145500	0.211200	0.420100
H191	H19	0.267900	0.667900	0.445400
H201	H20	0.685700	0.068100	0.551900
H211	H21	0.800600	0.517200	0.598400
H221	H22	0.175600	0.416100	0.182000
H231	H23	0.079500	0.891000	0.637800
H241	H24	0.112200	0.028500	0.040500
H251	H25	0.781400	0.452300	0.922500
H261	H26	0.058100	0.282000	0.732500
H271	H27	0.128300	0.989000	0.404900
H281	H28	0.669800	0.833600	0.533000
H291	H29	0.986900	0.220600	0.241400
H301	H30	0.941900	0.718000	0.267500
H311	H31	0.871700	0.011000	0.595100
H321	H32	0.081500	0.717600	0.400800
Pt11	Pt1	0.266840	0.507370	0.746160
Pt21	Pt2	0.334940	0.003260	0.747230
Pt31	Pt3	0.665060	0.996740	0.252770
Pt41	Pt4	0.733160	0.492630	0.253840
C11	C1	0.223900	0.417600	0.415500
C21	C2	0.039600	0.909600	0.703400
C31	C3	0.154900	0.922800	0.412500
C41	C4	0.333500	0.386000	0.442600
C51	C5	0.000400	0.156600	0.223700
C61	C6	0.965800	0.506100	0.706900
C71	C7	0.871300	0.522100	0.798400
C81	C8	0.847900	0.443300	0.860800
C91	C9	0.719600	0.096900	0.152600
C101	C10	0.870000	0.397900	0.165000
C111	C11	0.397600	0.104300	0.651800
C121	C12	0.280400	0.903100	0.847400
C131	C13	0.127600	0.763000	0.410300
C141	C14	0.082800	0.860000	0.397100
C151	C15	0.666500	0.614000	0.557400
C161	C16	0.961500	0.583200	0.319100
C171	C17	0.152100	0.556700	0.139200
C181	C18	0.192100	0.257600	0.426700
C191	C19	0.073300	0.044600	0.106800
C201	C20	0.149100	0.353000	0.408800
C211	C21	0.960400	0.090400	0.296600
C221	C22	0.394100	0.407600	0.656900
C231	C23	0.036600	0.972500	0.174100
C241	C24	0.034200	0.493900	0.293100
C251	C25	0.038500	0.416800	0.680900
C261	C26	0.792800	0.590600	0.151500
C271	C27	0.207200	0.409400	0.848500
C281	C28	0.760800	0.266300	0.562900
C291	C29	0.285400	0.094900	0.853300
C301	C30	0.807900	0.742400	0.573300
C311	C31	0.239200	0.733700	0.437100
C321	C32	0.963400	0.027500	0.825900
C331	C33	0.872400	0.237000	0.589700
C341	C34	0.328700	0.607200	0.646800
C351	C35	0.734000	0.112100	0.561100
C361	C36	0.620600	0.092300	0.354900
C371	C37	0.979700	0.997000	0.272100
C381	C38	0.130000	0.602100	0.835000
C391	C39	0.602400	0.895700	0.348200
C401	C40	0.128700	0.477900	0.201600
C411	C41	0.020300	0.003000	0.727900
C421	C42	0.917200	0.140000	0.602900
C431	C43	0.714600	0.905100	0.146700
C441	C44	0.303000	0.231400	0.454000
C451	C45	0.697000	0.768600	0.546000
C461	C46	0.009100	0.344000	0.749100
C471	C47	0.845100	0.077200	0.587500
C481	C48	0.990900	0.656000	0.250900
C491	C49	0.605900	0.592400	0.343100
C501	C50	0.999600	0.843400	0.776300
C511	C51	0.671300	0.392800	0.353200
C521	C52	0.850900	0.647000	0.591200
C531	C53	0.379400	0.907700	0.645100
C541	C54	0.266000	0.887900	0.438900
C551	C55	0.926700	0.955400	0.893200
C561	C56	0.776100	0.582400	0.584500
S11	S1	0.011230	0.612520	0.622020
S21	S2	0.988770	0.387480	0.377980
S31	S3	0.922900	0.899680	0.367220
S41	S4	0.077100	0.100320	0.632780
N11	N1	0.405000	0.848600	0.589700
N21	N2	0.441000	0.162500	0.598800
N31	N3	0.083900	0.643700	0.163900
N41	N4	0.459800	0.350000	0.601700
N51	N5	0.627400	0.338200	0.410600
N61	N6	0.250600	0.846200	0.906400
N71	N7	0.953600	0.347000	0.114000
N81	N8	0.749400	0.153800	0.093600
N91	N9	0.942900	0.864500	0.870300
N101	N10	0.540200	0.650000	0.398300
N111	N11	0.375000	0.294200	0.463200
N121	N12	0.690700	0.204900	0.547900
N131	N13	0.169500	0.356600	0.908900
N141	N14	0.916100	0.356300	0.836100
N151	N15	0.830500	0.643400	0.091100
N161	N16	0.750500	0.854400	0.083300
N171	N17	0.625000	0.705800	0.536800
N181	N18	0.559000	0.837500	0.401200
N191	N19	0.595000	0.151400	0.410300
N201	N20	0.372600	0.661800	0.589400
N211	N21	0.046400	0.653000	0.886000
N221	N22	0.309300	0.795100	0.452100
N231	N23	0.249500	0.145600	0.916700
N241	N24	0.057100	0.135500	0.129700
