data_ic501801f_si_002_clean_PM
_symmetry_space_group_name_H-M	'P1'
_cell_length_a	14.915600
_cell_length_b	15.062400
_cell_length_c	25.552800
_cell_angle_alpha	90.000000
_cell_angle_beta	93.602100
_cell_angle_gamma	90.000000
_symmetry_Int_Tables_number 1

loop_
_symmetry_equiv_pos_as_xyz
'x,y,z'

loop_
_atom_site_label
_atom_site_type_symbol
_atom_site_fract_x
_atom_site_fract_y
_atom_site_fract_z
Cd11	Cd1	0.363200	0.664120	0.069750
Cd21	Cd2	0.863200	0.835880	0.569750
Cd31	Cd3	0.136800	0.164120	0.430250
Cd41	Cd4	0.636800	0.335880	0.930250
Cd51	Cd5	0.500000	0.500000	0.000000
Cd61	Cd6	0.000000	0.000000	0.500000
B11	B1	0.611900	0.192000	0.260100
B21	B2	0.388100	0.808000	0.739900
B31	B3	0.111900	0.308000	0.760100
B41	B4	0.888100	0.692000	0.239900
H11	H1	0.897500	0.517000	0.152700
H21	H2	0.459300	0.213700	0.043600
H31	H3	0.970700	0.836000	0.253400
H41	H4	0.299000	0.917300	0.791100
H51	H5	0.617500	0.309600	0.331700
H61	H6	0.710800	0.441000	0.125900
H71	H7	0.289200	0.559000	0.874100
H81	H8	0.757100	0.042700	0.469800
H91	H9	0.366700	0.014000	0.397900
H101	H10	0.303600	0.401400	0.702500
H111	H11	0.028800	0.882900	0.212500
H121	H12	0.980300	0.382600	0.564100
H131	H13	0.033100	0.964500	0.680600
H141	H14	0.237600	0.782300	0.428300
H151	H15	0.828800	0.086700	0.641500
H161	H16	0.705600	0.794500	0.280700
H171	H17	0.794400	0.294500	0.219300
H181	H18	0.385900	0.348900	0.108800
H191	H19	0.291000	0.328900	0.282600
H201	H20	0.249500	0.612100	0.791300
H211	H21	0.247000	0.276100	0.951500
H221	H22	0.891800	0.759900	0.115000
H231	H23	0.689300	0.795900	0.070400
H241	H24	0.271300	0.489700	0.727800
H251	H25	0.850700	0.206500	0.452300
H261	H26	0.510000	0.940200	0.848500
H271	H27	0.649300	0.706500	0.047700
H281	H28	0.316500	0.668400	0.619800
H291	H29	0.574900	0.558600	0.873400
H301	H30	0.959300	0.286300	0.543600
H311	H31	0.065700	0.949800	0.739400
H321	H32	0.719900	0.328900	0.254900
H331	H33	0.091500	0.675500	0.409500
H341	H34	0.008900	0.419000	0.711200
H351	H35	0.737700	0.702800	0.662400
H361	H36	0.683500	0.331600	0.380200
H371	H37	0.040700	0.713700	0.456400
H381	H38	0.133300	0.514000	0.102100
H391	H39	0.102500	0.483000	0.847300
H401	H40	0.633300	0.986000	0.602100
H411	H41	0.742900	0.542700	0.030200
H421	H42	0.662100	0.068500	0.487900
H431	H43	0.816500	0.831600	0.119800
H441	H44	0.608200	0.259900	0.385000
H451	H45	0.466400	0.031600	0.691700
H461	H46	0.925300	0.154200	0.735200
H471	H47	0.253000	0.776100	0.548500
H481	H48	0.408500	0.175500	0.090500
H491	H49	0.074700	0.845800	0.264800
H501	H50	0.293900	0.021800	0.494200
H511	H51	0.762300	0.202800	0.837600
H521	H52	0.789200	0.941000	0.374100
H531	H53	0.893000	0.973500	0.292800
H541	H54	0.466900	0.464500	0.819400
H551	H55	0.206400	0.343200	0.107300
H561	H56	0.908500	0.324500	0.590500
H571	H57	0.706100	0.978200	0.505800
H581	H58	0.310700	0.204100	0.929600
H591	H59	0.480300	0.117400	0.064100
H601	H60	0.833300	0.684900	0.948500
H611	H61	0.029300	0.164000	0.746600
H621	H62	0.713600	0.868900	0.375700
H631	H63	0.262300	0.297200	0.337600
H641	H64	0.529300	0.336000	0.246600
H651	H65	0.337900	0.931500	0.512100
H661	H66	0.286400	0.131100	0.624300
H671	H67	0.531800	0.011200	0.605500
H681	H68	0.966400	0.468400	0.191700
H691	H69	0.183500	0.168400	0.880200
H701	H70	0.614100	0.651100	0.891200
H711	H71	0.737600	0.717700	0.928300
H721	H72	0.103000	0.457800	0.149500
H731	H73	0.971200	0.117100	0.787500
H741	H74	0.491100	0.919000	0.788800
H751	H75	0.508900	0.081000	0.211200
H761	H76	0.196400	0.901400	0.797500
H771	H77	0.660000	0.633500	0.666000
H781	H78	0.219900	0.171100	0.754900
H791	H79	0.392700	0.969700	0.713300
H801	H80	0.991100	0.581000	0.288800
H811	H81	0.393000	0.526500	0.792800
H821	H82	0.786400	0.368900	0.124300
H831	H83	0.780100	0.828900	0.245100
H841	H84	0.031800	0.488800	0.105500
H851	H85	0.470700	0.664000	0.753400
H861	H86	0.573400	0.875400	0.820200
H871	H87	0.490000	0.059800	0.151500
H881	H88	0.209000	0.828900	0.217400
H891	H89	0.166700	0.315100	0.051500
H901	H90	0.793900	0.478200	0.994200
H911	H91	0.171200	0.913300	0.358500
H921	H92	0.019700	0.617400	0.435900
H931	H93	0.750500	0.387900	0.208700
H941	H94	0.391800	0.740100	0.615000
H951	H95	0.468200	0.988800	0.394500
H961	H96	0.709000	0.671100	0.717400
H971	H97	0.201000	0.417300	0.708900
H981	H98	0.607000	0.473500	0.207200
H991	H99	0.771300	0.010300	0.227800
H1001	H100	0.397000	0.957800	0.350500
H1011	H101	0.840000	0.133500	0.834000
H1021	H102	0.753000	0.723900	0.048500
H1031	H103	0.397500	0.983000	0.652700
H1041	H104	0.149300	0.793500	0.547700
H1051	H105	0.160000	0.866500	0.166000
H1061	H106	0.228700	0.989700	0.772200
H1071	H107	0.425300	0.345800	0.235200
H1081	H108	0.721600	0.385900	0.074600
H1091	H109	0.540700	0.786300	0.956400
H1101	H110	0.333300	0.815100	0.448500
H1111	H111	0.968200	0.511200	0.894500
H1121	H112	0.340000	0.366500	0.334000
H1131	H113	0.882500	0.809600	0.168300
H1141	H114	0.607300	0.030300	0.286700
H1151	H115	0.565700	0.550200	0.239400
H1161	H116	0.799000	0.582700	0.291100
H1171	H117	0.294400	0.205500	0.719300
H1181	H118	0.701000	0.082700	0.208900
H1191	H119	0.990000	0.440200	0.651500
H1201	H120	0.189300	0.704100	0.570400
H1211	H121	0.778400	0.885900	0.425400
H1221	H122	0.425100	0.441400	0.126600
H1231	H123	0.210800	0.059000	0.625900
H1241	H124	0.728700	0.510300	0.272200
H1251	H125	0.221600	0.114100	0.574600
H1261	H126	0.117500	0.190400	0.831700
H1271	H127	0.382500	0.690400	0.668300
H1281	H128	0.434300	0.449800	0.760600
H1291	H129	0.114100	0.848900	0.391200
H1301	H130	0.533100	0.535500	0.180600
H1311	H131	0.574700	0.654200	0.764800
H1321	H132	0.471200	0.382900	0.287500
H1331	H133	0.280100	0.671100	0.745100
H1341	H134	0.793600	0.656800	0.892700
H1351	H135	0.803600	0.098600	0.202500
H1361	H136	0.602500	0.017000	0.347300
H1371	H137	0.262400	0.282300	0.071700
H1381	H138	0.837900	0.568500	0.012100
H1391	H139	0.603000	0.042200	0.649500
H1401	H140	0.519700	0.882600	0.935900
H1411	H141	0.250500	0.112100	0.708700
H1421	H142	0.934300	0.050200	0.260600
H1431	H143	0.213600	0.631100	0.875700
H1441	H144	0.791000	0.171100	0.782600
H1451	H145	0.706400	0.156800	0.607300
H1461	H146	0.033600	0.531600	0.808300
H1471	H147	0.107300	0.469700	0.786700
H1481	H148	0.591500	0.824500	0.909500
H1491	H149	0.074900	0.941400	0.373400
H1501	H150	0.293600	0.843200	0.392700
H1511	H151	0.762400	0.217700	0.571700
H1521	H152	0.897000	0.542200	0.850500
H1531	H153	0.108200	0.240100	0.885000
H1541	H154	0.237700	0.797200	0.162400
H1551	H155	0.671200	0.586700	0.858500
H1561	H156	0.205600	0.705500	0.780700
H1571	H157	0.350700	0.293500	0.952300
H1581	H158	0.926600	0.375400	0.679800
H1591	H159	0.696400	0.598600	0.297500
H1601	H160	0.162100	0.431500	0.987900
H1611	H161	0.866700	0.486000	0.897900
H1621	H162	0.747000	0.223900	0.451500
H1631	H163	0.666700	0.184900	0.551500
H1641	H164	0.107000	0.026500	0.707200
H1651	H165	0.328800	0.413300	0.141500
H1661	H166	0.242900	0.957300	0.530200
H1671	H167	0.810700	0.295900	0.429600
H1681	H168	0.278400	0.614100	0.925400
H1691	H169	0.426600	0.124600	0.179800
H1701	H170	0.892700	0.530300	0.213300
H1711	H171	0.073400	0.624600	0.320200
H1721	H172	0.257100	0.457300	0.969800
H1731	H173	0.533600	0.968400	0.308300
H1741	H174	0.925100	0.058600	0.626600
H1751	H175	0.206100	0.521800	0.005800
H1761	H176	0.528800	0.617100	0.712500
H1771	H177	0.010000	0.559800	0.348500
H1781	H178	0.885900	0.151100	0.608800
H1791	H179	0.749500	0.887900	0.291300
H1801	H180	0.966900	0.035500	0.319400
C11	C1	0.668100	0.286000	0.183100
C21	C2	0.086200	0.504800	0.125400
C31	C3	0.199600	0.766700	0.566900
C41	C4	0.800400	0.233300	0.433100
C51	C5	0.067700	0.478200	0.814500
C61	C6	0.844000	0.095400	0.311200
C71	C7	0.648600	0.631500	0.138000
C81	C8	0.404000	0.721100	0.903500
C91	C9	0.671900	0.545300	0.939400
C101	C10	0.739900	0.328200	0.219900
C111	C11	0.371500	0.409900	0.115000
C121	C12	0.429100	0.393800	0.898900
C131	C13	0.416200	0.467000	0.794500
C141	C14	0.412600	0.690200	0.959100
C151	C15	0.087400	0.190200	0.540900
C161	C16	0.120200	0.740000	0.182500
C171	C17	0.211500	0.808800	0.621300
C181	C18	0.713600	0.214100	0.345200
C191	C19	0.273900	0.616100	0.887800
C201	C20	0.134500	0.661000	0.155700
C211	C21	0.279400	0.830800	0.428100
C221	C22	0.070900	0.590400	0.156100
C231	C23	0.851400	0.131500	0.362000
C241	C24	0.716800	0.845900	0.624800
C251	C25	0.730700	0.616200	0.221500
C261	C26	0.527800	0.663800	0.738000
C271	C27	0.583800	0.533000	0.205500
C281	C28	0.711500	0.691200	0.121300
C291	C29	0.230700	0.883800	0.721500
C301	C30	0.512500	0.895100	0.822100
C311	C31	0.012500	0.604900	0.322100
C321	C32	0.495100	0.900300	0.683500
C331	C33	0.812100	0.185000	0.818000
C341	C34	0.788500	0.191200	0.378700
C351	C35	0.662800	0.315400	0.130700
C361	C36	0.162800	0.184600	0.630700
C371	C37	0.260100	0.671800	0.780100
C381	C38	0.110100	0.280700	0.700800
C391	C39	0.283200	0.154100	0.375200
C401	C40	0.634500	0.839000	0.655700
C411	C41	0.962600	0.713200	0.387400
C421	C42	0.760500	0.073000	0.224400
C431	C43	0.699600	0.733300	0.066900
C441	C44	0.344000	0.404600	0.811200
C451	C45	0.972200	0.163800	0.762000
C461	C46	0.702800	0.173700	0.294700
C471	C47	0.464700	0.176600	0.074200
C481	C48	0.083800	0.967000	0.705500
C491	C49	0.586200	0.995200	0.625400
C501	C50	0.504900	0.099700	0.316500
C511	C51	0.964700	0.323400	0.574200
C521	C52	0.570900	0.909600	0.656100
C531	C53	0.871500	0.090100	0.615000
C541	C54	0.687900	0.685000	0.682000
C551	C55	0.462600	0.786800	0.887400
C561	C56	0.128500	0.909900	0.385000
C571	C57	0.786400	0.714100	0.154800
C581	C58	0.610100	0.219300	0.200800
C591	C59	0.350100	0.714700	0.637900
C601	C60	0.837200	0.815400	0.369300
C611	C61	0.004900	0.400300	0.816500
C621	C62	0.429100	0.090400	0.343900
C631	C63	0.312100	0.315000	0.318000
C641	C64	0.478700	0.821100	0.711400
C651	C65	0.282400	0.960700	0.502000
C661	C66	0.472200	0.336200	0.262000
C671	C67	0.773900	0.883900	0.387800
C681	C68	0.216800	0.654100	0.124800
C691	C69	0.954200	0.682400	0.336000
C701	C70	0.957700	0.252900	0.788500
C711	C71	0.760100	0.828200	0.280100
C721	C72	0.286400	0.785900	0.654800
C731	C73	0.149900	0.214700	0.862100
C741	C74	0.567700	0.021800	0.314500
C751	C75	0.769300	0.116200	0.278500
C761	C76	0.202800	0.326300	0.794700
C771	C77	0.932300	0.521800	0.185500
C781	C78	0.096000	0.221100	0.596500
C791	C79	0.929100	0.409600	0.843900
C801	C80	0.337200	0.684600	0.869300
C811	C81	0.171900	0.954700	0.439400
C821	C82	0.260500	0.427000	0.724400
C831	C83	0.379800	0.240000	0.317500
C841	C84	0.213600	0.285900	0.845200
C851	C85	0.432300	0.978200	0.685500
C861	C86	0.570900	0.606200	0.101100
C871	C87	0.783200	0.345900	0.875200
C881	C88	0.156000	0.904600	0.688800
C891	C89	0.987500	0.395100	0.677900
C901	C90	0.850100	0.785300	0.137900
C911	C91	0.995100	0.599700	0.183500
C921	C92	0.889900	0.719300	0.299200
C931	C93	0.288500	0.308800	0.878700
C941	C94	0.487500	0.104900	0.177900
C951	C95	0.649900	0.285300	0.362100
C961	C96	0.328100	0.454700	0.060600
C971	C97	0.797200	0.673700	0.205300
C981	C98	0.739500	0.573000	0.275600
C991	C99	0.726100	0.383900	0.112200
C1001	C100	0.913800	0.495200	0.874600
C1011	C101	0.297200	0.826300	0.705300
C1021	C102	0.779400	0.669200	0.928100
C1031	C103	0.187900	0.815000	0.182000
C1041	C104	0.389900	0.780700	0.799200
C1051	C105	0.217600	0.460700	0.998000
C1061	C106	0.717600	0.039300	0.498000
C1071	C107	0.413800	0.004800	0.374600
C1081	C108	0.239500	0.927000	0.775600
C1091	C109	0.587400	0.309800	0.040900
C1101	C110	0.912600	0.809800	0.459100
C1111	C111	0.070900	0.893800	0.601100
C1121	C112	0.300400	0.266700	0.933100
C1131	C113	0.831900	0.786000	0.316900
C1141	C114	0.929100	0.106200	0.398900
C1151	C115	0.226100	0.116100	0.612200
C1161	C116	0.521300	0.178900	0.288600
C1171	C117	0.021300	0.321100	0.788600
C1181	C118	0.656000	0.595400	0.188800
C1191	C119	0.027800	0.836200	0.238000
C1201	C120	0.269300	0.383800	0.778500
C1211	C121	0.351400	0.368500	0.862000
C1221	C122	0.331900	0.714000	0.816900
C1231	C123	0.628500	0.590100	0.885000
C1241	C124	0.168100	0.214000	0.683100
C1251	C125	0.535300	0.823400	0.925800
C1261	C126	0.596000	0.278900	0.096500
C1271	C127	0.457700	0.247100	0.288500
C1281	C128	0.365500	0.161000	0.344300
C1291	C129	0.978700	0.678900	0.211400
C1301	C130	0.620200	0.760000	0.682500
C1311	C131	0.148600	0.868500	0.638000
C1321	C132	0.045800	0.317600	0.664000
C1331	C133	0.042300	0.747100	0.211500
C1341	C134	0.542300	0.752900	0.711500
C1351	C135	0.904000	0.778900	0.403500
C1361	C136	0.879800	0.260000	0.817500
C1371	C137	0.454200	0.817600	0.836000
C1381	C138	0.220600	0.330800	0.071900
C1391	C139	0.828100	0.045300	0.560600
C1401	C140	0.545800	0.182400	0.164000
C1411	C141	0.916200	0.033000	0.294500
C1421	C142	0.865500	0.339000	0.844300
C1431	C143	0.782400	0.539300	0.002000
C1441	C144	0.720600	0.169200	0.571900
C1451	C145	0.239900	0.171800	0.719900
C1461	C146	0.537400	0.213200	0.112600
C1471	C147	0.035300	0.676600	0.425800
C1481	C148	0.037400	0.286800	0.612600
N11	N1	0.262900	0.413900	0.048100
N21	N2	0.237100	0.913900	0.451900
N31	N3	0.762900	0.086100	0.548100
N41	N4	0.737100	0.586100	0.951900
O11	O1	0.020100	0.140700	0.526600
O21	O2	0.479900	0.640700	0.973400
O31	O3	0.289300	0.175600	0.423300
O41	O4	0.364700	0.515400	0.042000
O51	O5	0.999600	0.148700	0.393600
O61	O6	0.000400	0.851300	0.606400
O71	O7	0.500400	0.648700	0.106400
O81	O8	0.145100	0.214700	0.510900
O91	O9	0.854900	0.785300	0.489100
O101	O10	0.864700	0.984600	0.542000
O111	O11	0.354900	0.714700	0.989100
O121	O12	0.979900	0.859300	0.473400
O131	O13	0.499600	0.351300	0.893600
O141	O14	0.288500	0.624300	0.146200
O151	O15	0.417140	0.455600	0.931040
O161	O16	0.788500	0.875700	0.646200
O171	O17	0.917140	0.044400	0.431040
O181	O18	0.789300	0.324400	0.923300
O191	O19	0.635300	0.484600	0.958000
O201	O20	0.082860	0.955600	0.568960
O211	O21	0.711500	0.375700	0.853800
O221	O22	0.210700	0.675600	0.076700
O231	O23	0.135300	0.015400	0.458000
O241	O24	0.520100	0.359300	0.026600
O251	O25	0.710700	0.824400	0.576700
O261	O26	0.211500	0.124300	0.353800
O271	O27	0.645100	0.285300	0.010900
O281	O28	0.582860	0.544400	0.068960
