data_ic502643m_si_003_clean_PM
_symmetry_space_group_name_H-M	'P1'
_cell_length_a	10.306000
_cell_length_b	26.232000
_cell_length_c	27.776000
_cell_angle_alpha	90.000000
_cell_angle_beta	90.000000
_cell_angle_gamma	91.840000
_symmetry_Int_Tables_number 1

loop_
_symmetry_equiv_pos_as_xyz
'x,y,z'

loop_
_atom_site_label
_atom_site_type_symbol
_atom_site_fract_x
_atom_site_fract_y
_atom_site_fract_z
Zn11	Zn1	0.314480	0.227390	0.168490
Zn21	Zn2	0.044430	0.372540	0.662910
Zn31	Zn3	0.891930	0.266620	0.663260
Zn41	Zn4	0.040770	0.299930	0.567870
Zn51	Zn5	0.685520	0.772610	0.831510
Zn61	Zn6	0.814480	0.727390	0.331510
Zn71	Zn7	0.955570	0.627460	0.337090
Zn81	Zn8	0.455570	0.127460	0.162910
Zn91	Zn9	0.959230	0.700070	0.432130
Zn101	Zn10	0.185520	0.272610	0.668490
Zn111	Zn11	0.540770	0.799930	0.932130
Zn121	Zn12	0.608070	0.233380	0.163260
Zn131	Zn13	0.544430	0.872540	0.837090
Zn141	Zn14	0.391930	0.766620	0.836740
Zn151	Zn15	0.108070	0.733380	0.336740
Zn161	Zn16	0.459230	0.200070	0.067870
H11	H1	0.207900	0.772500	0.103000
H21	H2	0.547900	0.341900	0.684200
H31	H3	0.861200	0.963000	0.765500
H41	H4	0.341800	0.245400	0.472400
H51	H5	0.292100	0.727500	0.603000
H61	H6	0.363100	0.189600	0.322800
H71	H7	0.635100	0.802800	0.594400
H81	H8	0.271100	0.451300	0.272300
H91	H9	0.251100	0.965100	0.769000
H101	H10	0.024500	0.421700	0.466000
H111	H11	0.364900	0.197200	0.405600
H121	H12	0.796800	0.235800	0.815000
H131	H13	0.900800	0.101100	0.673700
H141	H14	0.731500	0.244000	0.473900
H151	H15	0.728900	0.548700	0.727700
H161	H16	0.107200	0.979500	0.294100
H171	H17	0.514900	0.008300	0.918800
H181	H18	0.864900	0.697200	0.094400
H191	H19	0.475500	0.078300	0.966000
H201	H20	0.158200	0.254600	0.972400
H211	H21	0.734900	0.629900	0.757800
H221	H22	0.768500	0.256000	0.973900
H231	H23	0.135100	0.302800	0.905600
H241	H24	0.231500	0.744000	0.026100
H251	H25	0.524500	0.921700	0.034000
H261	H26	0.952100	0.158100	0.184200
H271	H27	0.047900	0.841900	0.815800
H281	H28	0.535700	0.254700	0.597500
H291	H29	0.099200	0.898900	0.326300
H301	H30	0.658200	0.754600	0.527600
H311	H31	0.296800	0.735800	0.685000
H321	H32	0.771100	0.951300	0.227700
H331	H33	0.985100	0.491700	0.418800
H341	H34	0.400800	0.601100	0.826300
H351	H35	0.975500	0.578300	0.534000
H361	H36	0.863100	0.689600	0.177200
H371	H37	0.638800	0.537000	0.265500
H381	H38	0.765100	0.870100	0.257800
H391	H39	0.751100	0.465100	0.731000
H401	H40	0.136900	0.310400	0.822800
H411	H41	0.841800	0.745400	0.027600
H421	H42	0.392800	0.520500	0.794100
H431	H43	0.599200	0.398900	0.173700
H441	H44	0.138800	0.037000	0.234500
H451	H45	0.636900	0.810400	0.677200
H461	H46	0.607200	0.479500	0.205900
H471	H47	0.203200	0.764200	0.185000
H481	H48	0.452100	0.658100	0.315800
H491	H49	0.964300	0.245300	0.097500
H501	H50	0.248900	0.534900	0.269000
H511	H51	0.228900	0.048700	0.772300
H521	H52	0.265100	0.370100	0.242200
H531	H53	0.485100	0.991700	0.081200
H541	H54	0.792100	0.227500	0.897000
H551	H55	0.892800	0.020500	0.705900
H561	H56	0.268500	0.756000	0.526100
H571	H57	0.703200	0.264200	0.315000
H581	H58	0.014900	0.508300	0.581200
H591	H59	0.464300	0.745300	0.402500
H601	H60	0.748900	0.034900	0.231000
H611	H61	0.707900	0.272500	0.397000
H621	H62	0.035700	0.754700	0.902500
H631	H63	0.234900	0.129900	0.742200
H641	H64	0.361200	0.463000	0.734500
C11	C1	0.294900	0.258890	0.565750
C21	C2	0.862900	0.244100	0.882420
C31	C3	0.987200	0.546750	0.519610
C41	C4	0.151700	0.749510	0.960420
C51	C5	0.165700	0.107830	0.734410
C61	C6	0.419600	0.251550	0.538920
C71	C7	0.536900	0.242480	0.463590
C81	C8	0.993000	0.495700	0.451910
C91	C9	0.776900	0.254180	0.567230
C101	C10	0.080400	0.248450	0.038920
C111	C11	0.848300	0.250490	0.039580
C121	C12	0.665700	0.607830	0.765590
C131	C13	0.332300	0.600060	0.294670
C141	C14	0.561400	0.552870	0.272240
C151	C15	0.566600	0.788700	0.612330
C161	C16	0.579900	0.753650	0.510890
C171	C17	0.427400	0.322050	0.185470
C181	C18	0.464300	0.763270	0.589180
C191	C19	0.580400	0.748450	0.461080
C201	C20	0.789900	0.375430	0.688880
C211	C21	0.031700	0.726300	0.189750
C221	C22	0.468300	0.773700	0.689750
C231	C23	0.338100	0.440990	0.252500
C241	C24	0.205100	0.241110	0.065750
C251	C25	0.550000	0.374610	0.697190
C261	C26	0.834300	0.892170	0.265590
C271	C27	0.919600	0.751550	0.961080
C281	C28	0.964100	0.247690	0.064070
C291	C29	0.068800	0.124420	0.704920
C301	C30	0.289900	0.875430	0.811120
C311	C31	0.972000	0.279230	0.756660
C321	C32	0.667700	0.399940	0.705330
C331	C33	0.533100	0.409110	0.193900
C341	C34	0.920100	0.746350	0.010890
C351	C35	0.967300	0.589200	0.439920
C361	C36	0.963200	0.042250	0.712890
C371	C37	0.968300	0.273700	0.810250
C381	C38	0.035900	0.752310	0.935930
C391	C39	0.507000	0.004300	0.951910
C401	C40	0.036800	0.957750	0.287110
C411	C41	0.134400	0.750800	0.166850
C421	C42	0.061200	0.025040	0.741990
C431	C43	0.847500	0.254820	0.989990
C441	C44	0.515200	0.957240	0.971100
C451	C45	0.934800	0.898150	0.791590
C461	C46	0.651700	0.249510	0.539580
C471	C47	0.420100	0.246350	0.489110
C481	C48	0.690300	0.629790	0.303900
C491	C49	0.365600	0.749200	0.666850
C501	C50	0.434800	0.398150	0.708410
C511	C51	0.838100	0.940990	0.247500
C521	C52	0.963100	0.257520	0.963590
C531	C53	0.056800	0.972910	0.762820
C541	C54	0.472000	0.779230	0.743340
C551	C55	0.572600	0.677950	0.814530
C561	C56	0.079900	0.253650	0.989110
C571	C57	0.933400	0.711300	0.112330
C581	C58	0.012800	0.453250	0.480390
C591	C59	0.067300	0.293400	0.837760
C601	C60	0.167700	0.899940	0.794670
C611	C61	0.637100	0.255900	0.382420
C621	C62	0.466900	0.590890	0.806100
C631	C63	0.334300	0.392170	0.234410
C641	C64	0.652500	0.245180	0.489990
C651	C65	0.223100	0.745820	0.432770
C661	C66	0.438800	0.474960	0.241990
C671	C67	0.561200	0.525040	0.758010
C681	C68	0.431200	0.375580	0.204920
C691	C69	0.137100	0.755900	0.117580
C701	C70	0.065200	0.101850	0.208410
C711	C71	0.432700	0.206600	0.337760
C721	C72	0.865600	0.249200	0.833150
C731	C73	0.532700	0.910800	0.939920
C741	C74	0.210100	0.624570	0.311120
C751	C75	0.171400	0.948540	0.774650
C761	C76	0.463100	0.757520	0.536410
C771	C77	0.931200	0.875580	0.295080
C781	C78	0.671400	0.448540	0.725350
C791	C79	0.567300	0.793400	0.662240
C801	C80	0.832300	0.100060	0.205330
C811	C81	0.938600	0.947130	0.772240
C821	C82	0.061400	0.052870	0.227760
C831	C83	0.152500	0.745180	0.010010
C841	C84	0.568800	0.624420	0.795080
C851	C85	0.487200	0.046750	0.980390
C861	C86	0.493000	0.995700	0.048090
C871	C87	0.050000	0.874610	0.802810
C881	C88	0.710100	0.124570	0.188880
C891	C89	0.705100	0.741110	0.434250
C901	C90	0.007000	0.504300	0.548090
C911	C91	0.927400	0.822050	0.314530
C921	C92	0.309700	0.370210	0.696100
C931	C93	0.463200	0.542250	0.787110
C941	C94	0.565200	0.601850	0.291590
C951	C95	0.531700	0.226300	0.310250
C961	C96	0.347500	0.754820	0.510010
C971	C97	0.943200	0.027090	0.237180
C981	C98	0.556800	0.472910	0.737180
C991	C99	0.528000	0.220770	0.256660
C1001	C100	0.484800	0.042760	0.028900
C1011	C101	0.028000	0.720770	0.243340
C1021	C102	0.828600	0.051460	0.225350
C1031	C103	0.938800	0.974960	0.258010
C1041	C104	0.015200	0.457240	0.528900
C1051	C105	0.634400	0.250800	0.333150
C1061	C106	0.438600	0.447130	0.727760
C1071	C107	0.536800	0.457750	0.212890
C1081	C108	0.362900	0.744100	0.617580
C1091	C109	0.467300	0.089200	0.060080
C1101	C110	0.032700	0.410800	0.560080
C1111	C111	0.036900	0.742480	0.036410
C1121	C112	0.535700	0.236730	0.410820
C1131	C113	0.964300	0.263270	0.910820
C1141	C114	0.723100	0.245820	0.067230
C1151	C115	0.066600	0.288700	0.887670
C1161	C116	0.512800	0.953250	0.019610
C1171	C117	0.450000	0.625390	0.302810
C1181	C118	0.433400	0.211300	0.387670
C1191	C119	0.276900	0.754180	0.932770
C1201	C120	0.443200	0.527090	0.262820
C1211	C121	0.348300	0.750490	0.460420
C1221	C122	0.190300	0.129790	0.196100
C1231	C123	0.950000	0.125390	0.197190
C1241	C124	0.794900	0.758890	0.934250
C1251	C125	0.984800	0.542760	0.471100
C1261	C126	0.464100	0.747690	0.435930
C1271	C127	0.932700	0.706600	0.162240
C1281	C128	0.661900	0.559010	0.747500
C1291	C129	0.328600	0.551460	0.274650
C1301	C130	0.035700	0.736730	0.089180
C1311	C131	0.535900	0.252310	0.564070
C1321	C132	0.161900	0.059010	0.752500
C1331	C133	0.033100	0.909110	0.306100
C1341	C134	0.966900	0.090890	0.693900
C1351	C135	0.809700	0.870210	0.803900
C1361	C136	0.072600	0.177950	0.685470
O11	O1	0.622100	0.233030	0.044240
O21	O2	0.035900	0.368280	0.538960
O31	O3	0.327200	0.295000	0.195730
O41	O4	0.827200	0.795000	0.304270
O51	O5	0.622200	0.240530	0.233450
O61	O6	0.396100	0.899230	0.802750
O71	O7	0.195600	0.269680	0.540940
O81	O8	0.270200	0.745230	0.888520
O91	O9	0.221600	0.665840	0.332680
O101	O10	0.603900	0.100770	0.197250
O111	O11	0.729800	0.254770	0.111480
O121	O12	0.721600	0.165840	0.167320
O131	O13	0.122100	0.733030	0.455760
O141	O14	0.770200	0.245230	0.611480
O151	O15	0.457710	0.195440	0.136620
O161	O16	0.458400	0.082010	0.104140
O171	O17	0.932300	0.699190	0.261960
O181	O18	0.315800	0.323030	0.690610
O191	O19	0.877900	0.266970	0.544240
O201	O20	0.684200	0.676970	0.309390
O211	O21	0.790100	0.603330	0.308650
O221	O22	0.290100	0.103330	0.191350
O231	O23	0.377900	0.766970	0.955760
O241	O24	0.815800	0.823030	0.809390
O251	O25	0.021300	0.807300	0.338230
O261	O26	0.464100	0.131720	0.038960
O271	O27	0.201700	0.245700	0.110040
O281	O28	0.067700	0.300810	0.738040
O291	O29	0.535900	0.868280	0.961040
O301	O30	0.103900	0.600770	0.302750
O311	O31	0.709900	0.896670	0.808650
O321	O32	0.042290	0.304560	0.636620
O331	O33	0.542290	0.804560	0.863380
O341	O34	0.209900	0.396670	0.691350
O351	O35	0.184200	0.176970	0.190610
O361	O36	0.877800	0.259470	0.733450
O371	O37	0.957710	0.695440	0.363380
O381	O38	0.672800	0.705000	0.804270
O391	O39	0.804400	0.730320	0.459060
O401	O40	0.298300	0.254300	0.610040
O411	O41	0.695600	0.769680	0.959060
O421	O42	0.541600	0.917990	0.895860
O431	O43	0.478700	0.692700	0.838230
O441	O44	0.304400	0.230320	0.040940
O451	O45	0.521300	0.307300	0.161770
O461	O46	0.958400	0.582010	0.395860
O471	O47	0.432300	0.199190	0.238040
O481	O48	0.567700	0.800810	0.761960
O491	O49	0.778400	0.334160	0.667320
O501	O50	0.798300	0.754300	0.889960
O511	O51	0.229800	0.754770	0.388520
O521	O52	0.122200	0.740530	0.266550
O531	O53	0.377800	0.759470	0.766550
O541	O54	0.701700	0.745700	0.389960
O551	O55	0.978700	0.192700	0.661770
O561	O56	0.172800	0.205000	0.695730
O571	O57	0.964100	0.631720	0.461040
O581	O58	0.278400	0.834160	0.832680
O591	O59	0.041600	0.417990	0.604140
O601	O60	0.896100	0.399230	0.697250
