data_ic502921j_si_002_clean_PM
_symmetry_space_group_name_H-M	'P1'
_cell_length_a	19.348000
_cell_length_b	19.822100
_cell_length_c	21.110400
_cell_angle_alpha	90.000000
_cell_angle_beta	90.000000
_cell_angle_gamma	90.000000
_symmetry_Int_Tables_number 1

loop_
_symmetry_equiv_pos_as_xyz
'x,y,z'

loop_
_atom_site_label
_atom_site_type_symbol
_atom_site_fract_x
_atom_site_fract_y
_atom_site_fract_z
Cu11	Cu1	0.483090	0.013280	0.940890
Cu21	Cu2	0.400980	0.890120	0.750000
Cu31	Cu3	0.443860	0.560540	0.750000
Cu41	Cu4	0.877080	0.397420	0.250000
Cu51	Cu5	0.341300	0.650060	0.750000
Cu61	Cu6	0.516910	0.986720	0.440890
Cu71	Cu7	0.900980	0.609880	0.750000
Cu81	Cu8	0.056140	0.060540	0.250000
Cu91	Cu9	0.622920	0.897420	0.750000
Cu101	Cu10	0.483090	0.013280	0.559110
Cu111	Cu11	0.516910	0.986720	0.059110
Cu121	Cu12	0.983090	0.486720	0.940890
Cu131	Cu13	0.099020	0.390120	0.250000
Cu141	Cu14	0.016910	0.513280	0.059110
Cu151	Cu15	0.943860	0.939460	0.750000
Cu161	Cu16	0.658700	0.349940	0.250000
Cu171	Cu17	0.377080	0.102580	0.250000
Cu181	Cu18	0.016910	0.513280	0.440890
Cu191	Cu19	0.556140	0.439460	0.250000
Cu201	Cu20	0.841300	0.849940	0.750000
Cu211	Cu21	0.983090	0.486720	0.559110
Cu221	Cu22	0.122920	0.602580	0.750000
Cu231	Cu23	0.599020	0.109880	0.250000
Cu241	Cu24	0.158700	0.150060	0.250000
H11	H1	0.570300	0.781300	0.467800
H21	H2	0.070300	0.718700	0.467800
H31	H3	0.456500	0.374300	0.413400
H41	H4	0.273900	0.920900	0.967700
H51	H5	0.226100	0.420900	0.467700
H61	H6	0.773900	0.579100	0.532300
H71	H7	0.273900	0.920900	0.532300
H81	H8	0.226100	0.420900	0.032300
H91	H9	0.043500	0.874300	0.913400
H101	H10	0.773900	0.579100	0.967700
H111	H11	0.929700	0.281300	0.532200
H121	H12	0.543500	0.625700	0.913400
H131	H13	0.617700	0.557300	0.091000
H141	H14	0.956500	0.125700	0.086600
H151	H15	0.617700	0.557300	0.409000
H161	H16	0.117700	0.942700	0.091000
H171	H17	0.043500	0.874300	0.586600
H181	H18	0.456500	0.374300	0.086600
H191	H19	0.070300	0.718700	0.032200
H201	H20	0.570300	0.781300	0.032200
H211	H21	0.956500	0.125700	0.413400
H221	H22	0.882300	0.057300	0.909000
H231	H23	0.882300	0.057300	0.591000
H241	H24	0.429700	0.218700	0.967800
H251	H25	0.726100	0.079100	0.467700
H261	H26	0.382300	0.442700	0.591000
H271	H27	0.117700	0.942700	0.409000
H281	H28	0.543500	0.625700	0.586600
H291	H29	0.429700	0.218700	0.532200
H301	H30	0.382300	0.442700	0.909000
H311	H31	0.726100	0.079100	0.032300
H321	H32	0.929700	0.281300	0.967800
C11	C1	0.564600	0.697600	0.978300
C21	C2	0.298100	0.498700	0.613200
C31	C3	0.993200	0.302800	0.040700
C41	C4	0.950500	0.827900	0.835900
C51	C5	0.667200	0.463600	0.165500
C61	C6	0.832800	0.963600	0.834500
C71	C7	0.972700	0.725600	0.906300
C81	C8	0.435400	0.302400	0.478300
C91	C9	0.202700	0.480500	0.957800
C101	C10	0.297300	0.980500	0.042200
C111	C11	0.316800	0.060600	0.369100
C121	C12	0.527300	0.225600	0.093700
C131	C13	0.728600	0.988600	0.903900
C141	C14	0.298100	0.498700	0.886800
C151	C15	0.128000	0.490300	0.523900
C161	C16	0.702700	0.019500	0.542200
C171	C17	0.550400	0.763400	0.504200
C181	C18	0.662500	0.547000	0.078200
C191	C19	0.466900	0.330300	0.074600
C201	C20	0.950500	0.827900	0.664100
C211	C21	0.013900	0.207200	0.390100
C221	C22	0.527300	0.225600	0.406300
C231	C23	0.513900	0.292800	0.390100
C241	C24	0.667200	0.463600	0.334500
C251	C25	0.271400	0.011400	0.096100
C261	C26	0.372000	0.990300	0.023900
C271	C27	0.050400	0.736600	0.504200
C281	C28	0.271400	0.011400	0.403900
C291	C29	0.502500	0.876500	0.525900
C301	C30	0.162500	0.953000	0.078200
C311	C31	0.797300	0.519500	0.457800
C321	C32	0.002500	0.623500	0.525900
C331	C33	0.027300	0.274400	0.093700
C341	C34	0.332800	0.536400	0.834500
C351	C35	0.549500	0.327900	0.164100
C361	C36	0.297300	0.980500	0.457800
C371	C37	0.997500	0.376500	0.474100
C381	C38	0.050400	0.736600	0.995800
C391	C39	0.337500	0.453000	0.921800
C401	C40	0.472700	0.774400	0.593700
C411	C41	0.837500	0.047000	0.921800
C421	C42	0.256600	0.938500	0.494700
C431	C43	0.183200	0.560600	0.630900
C441	C44	0.449600	0.236600	0.495800
C451	C45	0.027300	0.274400	0.406300
C461	C46	0.310200	0.422900	0.524700
C471	C47	0.002500	0.623500	0.974100
C481	C48	0.628000	0.009700	0.523900
C491	C49	0.986100	0.792800	0.890100
C501	C50	0.167200	0.036400	0.165500
C511	C51	0.837500	0.047000	0.578200
C521	C52	0.701900	0.501300	0.113200
C531	C53	0.689800	0.577100	0.475300
C541	C54	0.006800	0.697200	0.959300
C551	C55	0.450500	0.672100	0.664100
C561	C56	0.966900	0.169700	0.074600
C571	C57	0.450500	0.672100	0.835900
C581	C58	0.701900	0.501300	0.386800
C591	C59	0.872000	0.509700	0.476100
C601	C60	0.372000	0.990300	0.476100
C611	C61	0.497500	0.123500	0.025900
C621	C62	0.756600	0.561500	0.005300
C631	C63	0.533100	0.669700	0.574600
C641	C64	0.228600	0.511400	0.903900
C651	C65	0.064600	0.802400	0.978300
C661	C66	0.949600	0.263400	0.004200
C671	C67	0.997500	0.376500	0.025900
C681	C68	0.798100	0.001300	0.886800
C691	C69	0.183200	0.560600	0.869100
C701	C70	0.077000	0.316800	0.132900
C711	C71	0.493200	0.197200	0.459300
C721	C72	0.243400	0.438500	0.994700
C731	C73	0.337500	0.453000	0.578200
C741	C74	0.486100	0.707200	0.890100
C751	C75	0.077000	0.316800	0.367100
C761	C76	0.201900	0.998700	0.113200
C771	C77	0.128000	0.490300	0.976100
C781	C78	0.533100	0.669700	0.925400
C791	C79	0.243400	0.438500	0.505300
C801	C80	0.316800	0.060600	0.130900
C811	C81	0.201900	0.998700	0.386800
C821	C82	0.493200	0.197200	0.040700
C831	C83	0.497500	0.123500	0.474100
C841	C84	0.798100	0.001300	0.613200
C851	C85	0.064600	0.802400	0.521700
C861	C86	0.743400	0.061500	0.994700
C871	C87	0.743400	0.061500	0.505300
C881	C88	0.506800	0.802800	0.959300
C891	C89	0.756600	0.561500	0.494700
C901	C90	0.506800	0.802800	0.540700
C911	C91	0.049500	0.172100	0.164100
C921	C92	0.771400	0.488600	0.096100
C931	C93	0.993200	0.302800	0.459300
C941	C94	0.577000	0.183200	0.132900
C951	C95	0.771400	0.488600	0.403900
C961	C96	0.689800	0.577100	0.024700
C971	C97	0.033100	0.830300	0.574600
C981	C98	0.006800	0.697200	0.540700
C991	C99	0.810200	0.077100	0.524700
C1001	C100	0.049500	0.172100	0.335900
C1011	C101	0.935400	0.197600	0.478300
C1021	C102	0.228600	0.511400	0.596100
C1031	C103	0.310200	0.422900	0.975300
C1041	C104	0.033100	0.830300	0.925400
C1051	C105	0.189800	0.922900	0.024700
C1061	C106	0.923000	0.683200	0.867100
C1071	C107	0.966900	0.169700	0.425400
C1081	C108	0.816800	0.439400	0.130900
C1091	C109	0.872000	0.509700	0.023900
C1101	C110	0.423000	0.816800	0.632900
C1111	C111	0.628000	0.009700	0.976100
C1121	C112	0.986100	0.792800	0.609900
C1131	C113	0.513900	0.292800	0.109900
C1141	C114	0.816800	0.439400	0.369100
C1151	C115	0.435400	0.302400	0.021700
C1161	C116	0.949600	0.263400	0.495800
C1171	C117	0.256600	0.938500	0.005300
C1181	C118	0.502500	0.876500	0.974100
C1191	C119	0.013900	0.207200	0.109900
C1201	C120	0.810200	0.077100	0.975300
C1211	C121	0.449600	0.236600	0.004200
C1221	C122	0.564600	0.697600	0.521700
C1231	C123	0.549500	0.327900	0.335900
C1241	C124	0.923000	0.683200	0.632900
C1251	C125	0.466900	0.330300	0.425400
C1261	C126	0.486100	0.707200	0.609900
C1271	C127	0.472700	0.774400	0.906300
C1281	C128	0.189800	0.922900	0.475300
C1291	C129	0.683200	0.939400	0.869100
C1301	C130	0.832800	0.963600	0.665500
C1311	C131	0.972700	0.725600	0.593700
C1321	C132	0.683200	0.939400	0.630900
C1331	C133	0.162500	0.953000	0.421800
C1341	C134	0.423000	0.816800	0.867100
C1351	C135	0.797300	0.519500	0.042200
C1361	C136	0.202700	0.480500	0.542200
C1371	C137	0.167200	0.036400	0.334500
C1381	C138	0.935400	0.197600	0.021700
C1391	C139	0.550400	0.763400	0.995800
C1401	C140	0.332800	0.536400	0.665500
C1411	C141	0.702700	0.019500	0.957800
C1421	C142	0.577000	0.183200	0.367100
C1431	C143	0.728600	0.988600	0.596100
C1441	C144	0.662500	0.547000	0.421800
N11	N1	0.850900	0.120400	0.013500
N21	N2	0.110400	0.841300	0.482700
N31	N3	0.110400	0.841300	0.017300
N41	N4	0.889600	0.158700	0.517300
N51	N5	0.610400	0.658700	0.017300
N61	N6	0.649100	0.620400	0.986500
N71	N7	0.389600	0.341300	0.982700
N81	N8	0.149100	0.879600	0.513500
N91	N9	0.850900	0.120400	0.486500
N101	N10	0.889600	0.158700	0.982700
N111	N11	0.149100	0.879600	0.986500
N121	N12	0.350900	0.379600	0.486500
N131	N13	0.649100	0.620400	0.513500
N141	N14	0.389600	0.341300	0.517300
N151	N15	0.610400	0.658700	0.482700
N161	N16	0.350900	0.379600	0.013500
O11	O1	0.394290	0.696060	0.683380
O21	O2	0.983710	0.392790	0.969910
O31	O3	0.105710	0.196060	0.316620
O41	O4	0.394290	0.696060	0.816620
O51	O5	0.487330	0.915310	0.929670
O61	O6	0.480260	0.620400	0.815820
O71	O7	0.584530	0.018500	0.931750
O81	O8	0.334510	0.111700	0.102150
O91	O9	0.516290	0.892790	0.030090
O101	O10	0.019740	0.120400	0.315820
O111	O11	0.487330	0.915310	0.570330
O121	O12	0.610800	0.487700	0.314010
O131	O13	0.834390	0.455970	0.186850
O141	O14	0.365020	0.831000	0.889400
O151	O15	0.894290	0.803940	0.683380
O161	O16	0.987330	0.584690	0.570330
O171	O17	0.113970	0.503200	0.467580
O181	O18	0.334390	0.044030	0.313150
O191	O19	0.334390	0.044030	0.186850
O201	O20	0.194690	0.090630	0.183740
O211	O21	0.634980	0.169000	0.110600
O221	O22	0.605710	0.303940	0.183380
O231	O23	0.019740	0.120400	0.184180
O241	O24	0.886030	0.496800	0.532420
O251	O25	0.165490	0.611700	0.602150
O261	O26	0.613970	0.996800	0.467580
O271	O27	0.987330	0.584690	0.929670
O281	O28	0.053330	0.335660	0.186310
O291	O29	0.553330	0.164340	0.186310
O301	O30	0.834510	0.388300	0.397850
O311	O31	0.805310	0.909370	0.683740
O321	O32	0.305310	0.590630	0.816260
O331	O33	0.634980	0.169000	0.389400
O341	O34	0.946670	0.664340	0.686310
O351	O35	0.613970	0.996800	0.032420
O361	O36	0.446670	0.835660	0.813690
O371	O37	0.946670	0.664340	0.813690
O381	O38	0.016290	0.607210	0.030090
O391	O39	0.865020	0.669000	0.889400
O401	O40	0.694690	0.409370	0.316260
O411	O41	0.446670	0.835660	0.686310
O421	O42	0.512670	0.084690	0.429670
O431	O43	0.865020	0.669000	0.610600
O441	O44	0.305310	0.590630	0.683740
O451	O45	0.980260	0.879600	0.815820
O461	O46	0.980260	0.879600	0.684180
O471	O47	0.519740	0.379600	0.315820
O481	O48	0.389200	0.512300	0.685990
O491	O49	0.512670	0.084690	0.070330
O501	O50	0.834510	0.388300	0.102150
O511	O51	0.483710	0.107210	0.530090
O521	O52	0.084530	0.481500	0.568250
O531	O53	0.386030	0.003200	0.532420
O541	O54	0.889200	0.987700	0.685990
O551	O55	0.915470	0.518500	0.068250
O561	O56	0.165610	0.544030	0.686850
O571	O57	0.665610	0.955970	0.686850
O581	O58	0.605710	0.303940	0.316620
O591	O59	0.053330	0.335660	0.313690
O601	O60	0.386030	0.003200	0.967580
O611	O61	0.165610	0.544030	0.813150
O621	O62	0.894290	0.803940	0.816620
O631	O63	0.584530	0.018500	0.568250
O641	O64	0.415470	0.981500	0.068250
O651	O65	0.805310	0.909370	0.816260
O661	O66	0.553330	0.164340	0.313690
O671	O67	0.889200	0.987700	0.814010
O681	O68	0.365020	0.831000	0.610600
O691	O69	0.665610	0.955970	0.813150
O701	O70	0.012670	0.415310	0.429670
O711	O71	0.084530	0.481500	0.931750
O721	O72	0.915470	0.518500	0.431750
O731	O73	0.886030	0.496800	0.967580
O741	O74	0.134980	0.331000	0.389400
O751	O75	0.194690	0.090630	0.316260
O761	O76	0.105710	0.196060	0.183380
O771	O77	0.665490	0.888300	0.602150
O781	O78	0.165490	0.611700	0.897850
O791	O79	0.834390	0.455970	0.313150
O801	O80	0.134980	0.331000	0.110600
O811	O81	0.983710	0.392790	0.530090
O821	O82	0.389200	0.512300	0.814010
O831	O83	0.516290	0.892790	0.469910
O841	O84	0.483710	0.107210	0.969910
O851	O85	0.012670	0.415310	0.070330
O861	O86	0.110800	0.012300	0.314010
O871	O87	0.480260	0.620400	0.684180
O881	O88	0.334510	0.111700	0.397850
O891	O89	0.519740	0.379600	0.184180
O901	O90	0.694690	0.409370	0.183740
O911	O91	0.113970	0.503200	0.032420
O921	O92	0.415470	0.981500	0.431750
O931	O93	0.610800	0.487700	0.185990
O941	O94	0.110800	0.012300	0.185990
O951	O95	0.016290	0.607210	0.469910
O961	O96	0.665490	0.888300	0.897850
