data_ic5b01023_si_002_clean_PM
_symmetry_space_group_name_H-M	'P1'
_cell_length_a	24.562100
_cell_length_b	24.562100
_cell_length_c	24.562100
_cell_angle_alpha	60.000000
_cell_angle_beta	60.000000
_cell_angle_gamma	60.000000
_symmetry_Int_Tables_number 1

loop_
_symmetry_equiv_pos_as_xyz
'x,y,z'

loop_
_atom_site_label
_atom_site_type_symbol
_atom_site_fract_x
_atom_site_fract_y
_atom_site_fract_z
Zn11	Zn1	0.755270	0.414910	0.414910
Zn21	Zn2	0.356400	0.356400	0.930800
Zn31	Zn3	0.356400	0.356400	0.356400
Zn41	Zn4	0.414920	0.414910	0.414910
Zn51	Zn5	0.356400	0.930800	0.356400
Zn61	Zn6	0.414920	0.414910	0.755260
Zn71	Zn7	0.930800	0.356400	0.356400
Zn81	Zn8	0.414920	0.755260	0.414910
H11	H1	0.034400	0.760200	0.491000
H21	H2	0.501200	0.937000	0.763600
H31	H3	0.940500	0.355100	0.010500
H41	H4	0.760200	0.491000	0.034400
H51	H5	0.746500	0.662500	0.450500
H61	H6	0.945300	0.375100	0.083300
H71	H7	0.364500	0.183100	0.942100
H81	H8	0.780600	0.943800	0.912400
H91	H9	0.363200	0.943800	0.780600
H101	H10	0.743800	0.240400	0.576200
H111	H11	0.798200	0.501200	0.763600
H121	H12	0.942100	0.183100	0.510300
H131	H13	0.501200	0.798200	0.937000
H141	H14	0.662500	0.450500	0.746500
H151	H15	0.183100	0.510300	0.942100
H161	H16	0.491000	0.034400	0.760200
H171	H17	0.183100	0.364500	0.510300
H181	H18	0.763600	0.501200	0.937000
H191	H19	0.364500	0.510300	0.183100
H201	H20	0.510300	0.183100	0.364500
H211	H21	0.746500	0.450500	0.140500
H221	H22	0.140500	0.450500	0.662500
H231	H23	0.942100	0.510300	0.364500
H241	H24	0.034400	0.491000	0.714400
H251	H25	0.364500	0.942100	0.510300
H261	H26	0.937000	0.501200	0.798200
H271	H27	0.798200	0.937000	0.501200
H281	H28	0.596300	0.375100	0.945300
H291	H29	0.363200	0.912400	0.943800
H301	H30	0.714400	0.491000	0.760200
H311	H31	0.510300	0.364500	0.942100
H321	H32	0.760200	0.034400	0.714400
H331	H33	0.912400	0.363200	0.780600
H341	H34	0.501200	0.763600	0.798200
H351	H35	0.450500	0.662500	0.140500
H361	H36	0.714400	0.760200	0.034400
H371	H37	0.140500	0.662500	0.746500
H381	H38	0.363200	0.780600	0.912400
H391	H39	0.942100	0.364500	0.183100
H401	H40	0.743800	0.576200	0.439600
H411	H41	0.943800	0.912400	0.780600
H421	H42	0.010500	0.693900	0.940500
H431	H43	0.439600	0.576200	0.240400
H441	H44	0.693900	0.355100	0.940500
H451	H45	0.943800	0.363200	0.912400
H461	H46	0.798200	0.763600	0.937000
H471	H47	0.083300	0.945300	0.375100
H481	H48	0.746500	0.140500	0.662500
H491	H49	0.763600	0.937000	0.798200
H501	H50	0.780600	0.363200	0.943800
H511	H51	0.596300	0.083300	0.375100
H521	H52	0.355100	0.940500	0.693900
H531	H53	0.743800	0.439600	0.240400
H541	H54	0.491000	0.714400	0.034400
H551	H55	0.375100	0.083300	0.945300
H561	H56	0.010500	0.940500	0.355100
H571	H57	0.780600	0.912400	0.363200
H581	H58	0.576200	0.240400	0.439600
H591	H59	0.240400	0.439600	0.576200
H601	H60	0.714400	0.034400	0.491000
H611	H61	0.183100	0.942100	0.364500
H621	H62	0.760200	0.714400	0.491000
H631	H63	0.355100	0.693900	0.010500
H641	H64	0.439600	0.743800	0.576200
H651	H65	0.240400	0.743800	0.439600
H661	H66	0.355100	0.010500	0.940500
H671	H67	0.240400	0.576200	0.743800
H681	H68	0.083300	0.375100	0.596300
H691	H69	0.937000	0.798200	0.763600
H701	H70	0.576200	0.743800	0.240400
H711	H71	0.662500	0.140500	0.450500
H721	H72	0.945300	0.596300	0.375100
H731	H73	0.140500	0.746500	0.450500
H741	H74	0.596300	0.945300	0.083300
H751	H75	0.693900	0.940500	0.010500
H761	H76	0.450500	0.746500	0.662500
H771	H77	0.943800	0.780600	0.363200
H781	H78	0.010500	0.355100	0.693900
H791	H79	0.693900	0.010500	0.355100
H801	H80	0.034400	0.714400	0.760200
H811	H81	0.912400	0.780600	0.943800
H821	H82	0.375100	0.596300	0.083300
H831	H83	0.450500	0.140500	0.746500
H841	H84	0.083300	0.596300	0.945300
H851	H85	0.375100	0.945300	0.596300
H861	H86	0.439600	0.240400	0.743800
H871	H87	0.937000	0.763600	0.501200
H881	H88	0.576200	0.439600	0.743800
H891	H89	0.662500	0.746500	0.140500
H901	H90	0.940500	0.010500	0.693900
H911	H91	0.510300	0.942100	0.183100
H921	H92	0.763600	0.798200	0.501200
H931	H93	0.491000	0.760200	0.714400
H941	H94	0.945300	0.083300	0.596300
H951	H95	0.912400	0.943800	0.363200
H961	H96	0.940500	0.693900	0.355100
C11	C1	0.593260	0.115140	0.387460
C21	C2	0.716100	0.383700	0.903700
C31	C3	0.799200	0.952400	0.778200
C41	C4	0.904140	0.387460	0.115140
C51	C5	0.797560	0.464040	0.010560
C61	C6	0.937500	0.767700	0.906100
C71	C7	0.431100	0.915100	0.853100
C81	C8	0.841290	0.222730	0.535670
C91	C9	0.640630	0.100970	0.411310
C101	C10	0.148990	0.432310	0.632610
C111	C11	0.903700	0.383700	0.996500
C121	C12	0.847720	0.036600	0.695400
C131	C13	0.425960	0.784580	0.580500
C141	C14	0.388700	0.767700	0.937500
C151	C15	0.800700	0.853100	0.915100
C161	C16	0.381300	0.174700	0.902700
C171	C17	0.632610	0.148990	0.432310
C181	C18	0.464040	0.010560	0.797560
C191	C19	0.853100	0.431100	0.915100
C201	C20	0.841290	0.535670	0.400310
C211	C21	0.541300	0.174700	0.381300
C221	C22	0.640630	0.847090	0.100970
C231	C23	0.996500	0.383700	0.716100
C241	C24	0.904140	0.593260	0.387460
C251	C25	0.847720	0.695400	0.420280
C261	C26	0.535670	0.400310	0.841290
C271	C27	0.115140	0.387460	0.593260
C281	C28	0.208960	0.580500	0.784580
C291	C29	0.716100	0.903700	0.996500
C301	C30	0.387460	0.593260	0.115140
C311	C31	0.839990	0.287630	0.480170
C321	C32	0.464040	0.727840	0.010560
C331	C33	0.036600	0.847720	0.420280
C341	C34	0.392210	0.480170	0.287630
C351	C35	0.847720	0.420280	0.036600
C361	C36	0.797560	0.010560	0.727840
C371	C37	0.784580	0.425960	0.208960
C381	C38	0.799200	0.778200	0.470200
C391	C39	0.906100	0.767700	0.388700
C401	C40	0.593260	0.387460	0.904140
C411	C41	0.480170	0.839990	0.287630
C421	C42	0.381300	0.902700	0.541300
C431	C43	0.387460	0.904140	0.593260
C441	C44	0.222730	0.841290	0.400310
C451	C45	0.470200	0.799200	0.778200
C461	C46	0.287630	0.480170	0.839990
C471	C47	0.695400	0.420280	0.847720
C481	C48	0.535670	0.841290	0.222730
C491	C49	0.847090	0.100970	0.640630
C501	C50	0.786090	0.632610	0.432310
C511	C51	0.904140	0.115140	0.593260
C521	C52	0.432310	0.148990	0.786090
C531	C53	0.632610	0.786090	0.148990
C541	C54	0.786090	0.432310	0.148990
C551	C55	0.208960	0.784580	0.425960
C561	C56	0.915100	0.800700	0.853100
C571	C57	0.767700	0.388700	0.906100
C581	C58	0.400310	0.222730	0.841290
C591	C59	0.388700	0.906100	0.767700
C601	C60	0.411310	0.640630	0.100970
C611	C61	0.937500	0.388700	0.767700
C621	C62	0.148990	0.632610	0.786090
C631	C63	0.800700	0.431100	0.853100
C641	C64	0.778200	0.952400	0.470200
C651	C65	0.841290	0.400310	0.222730
C661	C66	0.036600	0.695400	0.847720
C671	C67	0.727840	0.797560	0.010560
C681	C68	0.535670	0.222730	0.400310
C691	C69	0.716100	0.996500	0.383700
C701	C70	0.383700	0.996500	0.903700
C711	C71	0.010560	0.464040	0.727840
C721	C72	0.420280	0.695400	0.036600
C731	C73	0.541300	0.902700	0.174700
C741	C74	0.800700	0.915100	0.431100
C751	C75	0.727840	0.464040	0.797560
C761	C76	0.480170	0.392210	0.839990
C771	C77	0.727840	0.010560	0.464040
C781	C78	0.784580	0.208960	0.580500
C791	C79	0.839990	0.480170	0.392210
C801	C80	0.425960	0.580500	0.208960
C811	C81	0.640630	0.411310	0.847090
C821	C82	0.902700	0.541300	0.381300
C831	C83	0.580500	0.425960	0.784580
C841	C84	0.797560	0.727840	0.464040
C851	C85	0.952400	0.470200	0.778200
C861	C86	0.388700	0.937500	0.906100
C871	C87	0.100970	0.411310	0.640630
C881	C88	0.839990	0.392210	0.287630
C891	C89	0.222730	0.400310	0.535670
C901	C90	0.287630	0.839990	0.392210
C911	C91	0.784580	0.580500	0.425960
C921	C92	0.902700	0.381300	0.174700
C931	C93	0.400310	0.535670	0.222730
C941	C94	0.853100	0.800700	0.431100
C951	C95	0.383700	0.903700	0.716100
C961	C96	0.996500	0.903700	0.383700
C971	C97	0.915100	0.431100	0.800700
C981	C98	0.853100	0.915100	0.800700
C991	C99	0.786090	0.148990	0.632610
C1001	C100	0.174700	0.381300	0.541300
C1011	C101	0.767700	0.906100	0.937500
C1021	C102	0.778200	0.799200	0.952400
C1031	C103	0.222730	0.535670	0.841290
C1041	C104	0.148990	0.786090	0.432310
C1051	C105	0.799200	0.470200	0.952400
C1061	C106	0.480170	0.287630	0.392210
C1071	C107	0.847090	0.411310	0.100970
C1081	C108	0.996500	0.716100	0.903700
C1091	C109	0.847090	0.640630	0.411310
C1101	C110	0.411310	0.847090	0.640630
C1111	C111	0.464040	0.797560	0.727840
C1121	C112	0.010560	0.797560	0.464040
C1131	C113	0.906100	0.937500	0.767700
C1141	C114	0.431100	0.800700	0.915100
C1151	C115	0.695400	0.847720	0.036600
C1161	C116	0.952400	0.799200	0.470200
C1171	C117	0.392210	0.287630	0.839990
C1181	C118	0.952400	0.778200	0.799200
C1191	C119	0.383700	0.716100	0.996500
C1201	C120	0.174700	0.902700	0.381300
C1211	C121	0.381300	0.541300	0.174700
C1221	C122	0.400310	0.841290	0.535670
C1231	C123	0.937500	0.906100	0.388700
C1241	C124	0.036600	0.420280	0.695400
C1251	C125	0.593260	0.904140	0.115140
C1261	C126	0.287630	0.392210	0.480170
C1271	C127	0.208960	0.425960	0.580500
C1281	C128	0.115140	0.904140	0.387460
C1291	C129	0.432310	0.632610	0.148990
C1301	C130	0.392210	0.839990	0.480170
C1311	C131	0.420280	0.036600	0.847720
C1321	C132	0.902700	0.174700	0.541300
C1331	C133	0.580500	0.208960	0.425960
C1341	C134	0.432310	0.786090	0.632610
C1351	C135	0.420280	0.847720	0.695400
C1361	C136	0.425960	0.208960	0.784580
C1371	C137	0.541300	0.381300	0.902700
C1381	C138	0.767700	0.937500	0.388700
C1391	C139	0.174700	0.541300	0.902700
C1401	C140	0.411310	0.100970	0.847090
C1411	C141	0.115140	0.593260	0.904140
C1421	C142	0.903700	0.716100	0.383700
C1431	C143	0.903700	0.996500	0.716100
C1441	C144	0.431100	0.853100	0.800700
C1451	C145	0.100970	0.847090	0.411310
C1461	C146	0.906100	0.388700	0.937500
C1471	C147	0.778200	0.470200	0.799200
C1481	C148	0.010560	0.727840	0.797560
C1491	C149	0.580500	0.784580	0.208960
C1501	C150	0.695400	0.036600	0.420280
C1511	C151	0.632610	0.432310	0.786090
C1521	C152	0.470200	0.952400	0.799200
C1531	C153	0.470200	0.778200	0.952400
C1541	C154	0.100970	0.640630	0.847090
C1551	C155	0.387460	0.115140	0.904140
C1561	C156	0.915100	0.853100	0.431100
N11	N1	0.854000	0.854000	0.854000
N21	N2	0.854000	0.438000	0.854000
N31	N3	0.438000	0.854000	0.854000
N41	N4	0.854000	0.854000	0.438000
O11	O1	0.370230	0.893570	0.441630
O21	O2	0.783350	0.327510	0.477790
O31	O3	0.294570	0.893570	0.370230
O41	O4	0.893570	0.294570	0.441630
O51	O5	0.327510	0.783350	0.411350
O61	O6	0.783350	0.477790	0.411350
O71	O7	0.477790	0.411350	0.783350
O81	O8	0.783350	0.411350	0.327510
O91	O9	0.411350	0.477790	0.327510
O101	O10	0.370230	0.441630	0.294570
O111	O11	0.294570	0.441630	0.893570
O121	O12	0.893570	0.370230	0.294570
O131	O13	0.893570	0.441630	0.370230
O141	O14	0.441630	0.370230	0.893570
O151	O15	0.411350	0.327510	0.783350
O161	O16	0.441630	0.893570	0.294570
O171	O17	0.370230	0.294570	0.893570
O181	O18	0.411350	0.783350	0.477790
O191	O19	0.477790	0.783350	0.327510
O201	O20	0.327510	0.477790	0.783350
O211	O21	0.327510	0.411350	0.477790
O221	O22	0.441630	0.294570	0.370230
O231	O23	0.294570	0.370230	0.441630
O241	O24	0.477790	0.327510	0.411350
Zn91	Zn9	0.585080	0.585090	0.585090
Zn101	Zn10	0.643600	0.069200	0.643600
Zn111	Zn11	0.643600	0.643600	0.069200
Zn121	Zn12	0.585080	0.244740	0.585090
Zn131	Zn13	0.585080	0.585090	0.244740
Zn141	Zn14	0.643600	0.643600	0.643600
Zn151	Zn15	0.244730	0.585090	0.585090
Zn161	Zn16	0.069200	0.643600	0.643600
H971	H97	0.636800	0.087600	0.219400
H981	H98	0.859500	0.337500	0.549500
H991	H99	0.965600	0.285600	0.509000
H1001	H100	0.256200	0.560400	0.423800
H1011	H101	0.403700	0.054700	0.624900
H1021	H102	0.063000	0.201800	0.498800
H1031	H103	0.916700	0.054700	0.403700
H1041	H104	0.965600	0.239800	0.285600
H1051	H105	0.054700	0.916700	0.624900
H1061	H106	0.236400	0.063000	0.498800
H1071	H107	0.087600	0.056200	0.219400
H1081	H108	0.087600	0.219400	0.636800
H1091	H109	0.253500	0.549500	0.337500
H1101	H110	0.560400	0.256200	0.759600
H1111	H111	0.916700	0.624900	0.054700
H1121	H112	0.989500	0.644900	0.059500
H1131	H113	0.253500	0.337500	0.859500
H1141	H114	0.056200	0.087600	0.636800
H1151	H115	0.285600	0.509000	0.965600
H1161	H116	0.489700	0.635500	0.816900
H1171	H117	0.636800	0.219400	0.056200
H1181	H118	0.306100	0.644900	0.989500
H1191	H119	0.759600	0.560400	0.256200
H1201	H120	0.337500	0.549500	0.859500
H1211	H121	0.859500	0.253500	0.337500
H1221	H122	0.403700	0.624900	0.916700
H1231	H123	0.759600	0.423800	0.560400
H1241	H124	0.635500	0.816900	0.489700
H1251	H125	0.201800	0.236400	0.498800
H1261	H126	0.509000	0.285600	0.239800
H1271	H127	0.644900	0.059500	0.989500
H1281	H128	0.423800	0.560400	0.759600
H1291	H129	0.498800	0.063000	0.201800
H1301	H130	0.560400	0.423800	0.256200
H1311	H131	0.624900	0.916700	0.403700
H1321	H132	0.056200	0.636800	0.219400
H1331	H133	0.759600	0.256200	0.423800
H1341	H134	0.057900	0.816900	0.635500
H1351	H135	0.285600	0.239800	0.509000
H1361	H136	0.054700	0.624900	0.403700
H1371	H137	0.201800	0.498800	0.063000
H1381	H138	0.087600	0.636800	0.056200
H1391	H139	0.306100	0.059500	0.644900
H1401	H140	0.337500	0.253500	0.549500
H1411	H141	0.201800	0.063000	0.236400
H1421	H142	0.624900	0.054700	0.916700
H1431	H143	0.063000	0.236400	0.201800
H1441	H144	0.549500	0.859500	0.337500
H1451	H145	0.219400	0.087600	0.056200
H1461	H146	0.423800	0.256200	0.560400
H1471	H147	0.560400	0.759600	0.423800
H1481	H148	0.056200	0.219400	0.087600
H1491	H149	0.549500	0.253500	0.859500
H1501	H150	0.644900	0.306100	0.059500
H1511	H151	0.509000	0.239800	0.965600
H1521	H152	0.219400	0.636800	0.087600
H1531	H153	0.236400	0.498800	0.201800
H1541	H154	0.624900	0.403700	0.054700
H1551	H155	0.403700	0.916700	0.054700
H1561	H156	0.239800	0.285600	0.965600
H1571	H157	0.498800	0.236400	0.063000
H1581	H158	0.059500	0.306100	0.989500
H1591	H159	0.989500	0.306100	0.644900
H1601	H160	0.916700	0.403700	0.624900
H1611	H161	0.816900	0.057900	0.489700
H1621	H162	0.219400	0.056200	0.636800
H1631	H163	0.239800	0.965600	0.509000
H1641	H164	0.509000	0.965600	0.285600
H1651	H165	0.989500	0.059500	0.306100
H1661	H166	0.236400	0.201800	0.063000
H1671	H167	0.549500	0.337500	0.253500
H1681	H168	0.635500	0.489700	0.057900
H1691	H169	0.057900	0.489700	0.816900
H1701	H170	0.256200	0.759600	0.560400
H1711	H171	0.423800	0.759600	0.256200
H1721	H172	0.816900	0.489700	0.635500
H1731	H173	0.489700	0.816900	0.057900
H1741	H174	0.859500	0.549500	0.253500
H1751	H175	0.253500	0.859500	0.549500
H1761	H176	0.644900	0.989500	0.306100
H1771	H177	0.239800	0.509000	0.285600
H1781	H178	0.489700	0.057900	0.635500
H1791	H179	0.054700	0.403700	0.916700
H1801	H180	0.965600	0.509000	0.239800
H1811	H181	0.063000	0.498800	0.236400
H1821	H182	0.256200	0.423800	0.759600
H1831	H183	0.285600	0.965600	0.239800
H1841	H184	0.337500	0.859500	0.253500
H1851	H185	0.059500	0.644900	0.306100
H1861	H186	0.306100	0.989500	0.059500
H1871	H187	0.636800	0.056200	0.087600
H1881	H188	0.816900	0.635500	0.057900
H1891	H189	0.057900	0.635500	0.489700
H1901	H190	0.059500	0.989500	0.644900
H1911	H191	0.498800	0.201800	0.236400
H1921	H192	0.635500	0.057900	0.816900
C1571	C157	0.458700	0.618700	0.825300
C1581	C158	0.084900	0.199300	0.568900
C1591	C159	0.213910	0.367390	0.851010
C1601	C160	0.221800	0.200800	0.529800
C1611	C161	0.096300	0.283900	0.003500
C1621	C162	0.419500	0.215420	0.574040
C1631	C163	0.283900	0.003500	0.096300
C1641	C164	0.519830	0.712370	0.160010
C1651	C165	0.611300	0.232300	0.093900
C1661	C166	0.791040	0.419500	0.574040
C1671	C167	0.777270	0.599690	0.158710
C1681	C168	0.084900	0.146900	0.199300
C1691	C169	0.047600	0.200800	0.221800
C1701	C170	0.535960	0.202440	0.989440
C1711	C171	0.588690	0.152910	0.899030
C1721	C172	0.093900	0.062500	0.611300
C1731	C173	0.304600	0.579720	0.963400
C1741	C174	0.232300	0.093900	0.611300
C1751	C175	0.272160	0.202440	0.535960
C1761	C176	0.283900	0.096300	0.616300
C1771	C177	0.612540	0.095860	0.884860
C1781	C178	0.899030	0.588690	0.152910
C1791	C179	0.607790	0.519830	0.160010
C1801	C180	0.777270	0.464330	0.599690
C1811	C181	0.158710	0.777270	0.599690
C1821	C182	0.567690	0.213910	0.851010
C1831	C183	0.096300	0.003500	0.616300
C1841	C184	0.825300	0.618700	0.097300
C1851	C185	0.712370	0.160010	0.519830
C1861	C186	0.963400	0.152280	0.304600
C1871	C187	0.406740	0.612540	0.884860
C1881	C188	0.152280	0.963400	0.579720
C1891	C189	0.607790	0.160010	0.712370
C1901	C190	0.464330	0.777270	0.158710
C1911	C191	0.419500	0.574040	0.791040
C1921	C192	0.096300	0.616300	0.283900
C1931	C193	0.003500	0.616300	0.096300
C1941	C194	0.304600	0.152280	0.579720
C1951	C195	0.616300	0.003500	0.283900
C1961	C196	0.213910	0.851010	0.567690
C1971	C197	0.825300	0.458700	0.618700
C1981	C198	0.199300	0.084900	0.146900
C1991	C199	0.599690	0.777270	0.464330
C2001	C200	0.612540	0.406740	0.095860
C2011	C201	0.283900	0.616300	0.003500
C2021	C202	0.221800	0.529800	0.047600
C2031	C203	0.618700	0.458700	0.097300
C2041	C204	0.160010	0.712370	0.607790
C2051	C205	0.221800	0.047600	0.200800
C2061	C206	0.202440	0.272160	0.989440
C2071	C207	0.519830	0.607790	0.712370
C2081	C208	0.899030	0.359370	0.588690
C2091	C209	0.367390	0.851010	0.213910
C2101	C210	0.047600	0.529800	0.200800
C2111	C211	0.359370	0.588690	0.899030
C2121	C212	0.568900	0.199300	0.146900
C2131	C213	0.202440	0.989440	0.535960
C2141	C214	0.599690	0.158710	0.777270
C2151	C215	0.359370	0.152910	0.588690
C2161	C216	0.851010	0.567690	0.213910
C2171	C217	0.989440	0.272160	0.535960
C2181	C218	0.152280	0.579720	0.304600
C2191	C219	0.152910	0.588690	0.359370
C2201	C220	0.464330	0.158710	0.599690
C2211	C221	0.062500	0.232300	0.611300
C2221	C222	0.989440	0.202440	0.272160
C2231	C223	0.777270	0.158710	0.464330
C2241	C224	0.579720	0.152280	0.963400
C2251	C225	0.607790	0.712370	0.519830
C2261	C226	0.047600	0.221800	0.529800
C2271	C227	0.304600	0.963400	0.152280
C2281	C228	0.588690	0.899030	0.359370
C2291	C229	0.458700	0.825300	0.097300
C2301	C230	0.825300	0.097300	0.458700
C2311	C231	0.003500	0.283900	0.616300
C2321	C232	0.095860	0.612540	0.406740
C2331	C233	0.199300	0.568900	0.084900
C2341	C234	0.367390	0.567690	0.851010
C2351	C235	0.588690	0.359370	0.152910
C2361	C236	0.200800	0.221800	0.047600
C2371	C237	0.160010	0.607790	0.519830
C2381	C238	0.202440	0.535960	0.272160
C2391	C239	0.215420	0.419500	0.791040
C2401	C240	0.611300	0.093900	0.062500
C2411	C241	0.200800	0.047600	0.529800
C2421	C242	0.232300	0.611300	0.062500
C2431	C243	0.215420	0.574040	0.419500
C2441	C244	0.574040	0.419500	0.215420
C2451	C245	0.200800	0.529800	0.221800
C2461	C246	0.232300	0.062500	0.093900
C2471	C247	0.612540	0.884860	0.406740
C2481	C248	0.146900	0.568900	0.199300
C2491	C249	0.160010	0.519830	0.712370
C2501	C250	0.152910	0.359370	0.899030
C2511	C251	0.458700	0.097300	0.618700
C2521	C252	0.567690	0.851010	0.367390
C2531	C253	0.574040	0.215420	0.791040
C2541	C254	0.367390	0.213910	0.567690
C2551	C255	0.093900	0.232300	0.062500
C2561	C256	0.213910	0.567690	0.367390
C2571	C257	0.406740	0.095860	0.612540
C2581	C258	0.084900	0.568900	0.146900
C2591	C259	0.062500	0.093900	0.232300
C2601	C260	0.618700	0.097300	0.825300
C2611	C261	0.095860	0.406740	0.884860
C2621	C262	0.963400	0.304600	0.579720
C2631	C263	0.359370	0.899030	0.152910
C2641	C264	0.406740	0.884860	0.095860
C2651	C265	0.884860	0.406740	0.612540
C2661	C266	0.093900	0.611300	0.232300
C2671	C267	0.568900	0.084900	0.199300
C2681	C268	0.158710	0.464330	0.777270
C2691	C269	0.712370	0.607790	0.160010
C2701	C270	0.899030	0.152910	0.359370
C2711	C271	0.963400	0.579720	0.152280
C2721	C272	0.464330	0.599690	0.777270
C2731	C273	0.419500	0.791040	0.215420
C2741	C274	0.535960	0.272160	0.202440
C2751	C275	0.989440	0.535960	0.202440
C2761	C276	0.618700	0.825300	0.458700
C2771	C277	0.199300	0.146900	0.568900
C2781	C278	0.062500	0.611300	0.093900
C2791	C279	0.791040	0.574040	0.215420
C2801	C280	0.158710	0.599690	0.464330
C2811	C281	0.272160	0.535960	0.989440
C2821	C282	0.095860	0.884860	0.612540
C2831	C283	0.568900	0.146900	0.084900
C2841	C284	0.146900	0.199300	0.084900
C2851	C285	0.152280	0.304600	0.963400
C2861	C286	0.884860	0.612540	0.095860
C2871	C287	0.097300	0.825300	0.618700
C2881	C288	0.529800	0.221800	0.200800
C2891	C289	0.152910	0.899030	0.588690
C2901	C290	0.097300	0.618700	0.458700
C2911	C291	0.851010	0.367390	0.567690
C2921	C292	0.884860	0.095860	0.406740
C2931	C293	0.003500	0.096300	0.283900
C2941	C294	0.599690	0.464330	0.158710
C2951	C295	0.579720	0.963400	0.304600
C2961	C296	0.146900	0.084900	0.568900
C2971	C297	0.529800	0.047600	0.221800
C2981	C298	0.611300	0.062500	0.232300
C2991	C299	0.616300	0.283900	0.096300
C3001	C300	0.567690	0.367390	0.213910
C3011	C301	0.712370	0.519830	0.607790
C3021	C302	0.851010	0.213910	0.367390
C3031	C303	0.579720	0.304600	0.152280
C3041	C304	0.791040	0.215420	0.419500
C3051	C305	0.574040	0.791040	0.419500
C3061	C306	0.535960	0.989440	0.272160
C3071	C307	0.616300	0.096300	0.003500
C3081	C308	0.097300	0.458700	0.825300
C3091	C309	0.529800	0.200800	0.047600
C3101	C310	0.272160	0.989440	0.202440
C3111	C311	0.215420	0.791040	0.574040
C3121	C312	0.519830	0.160010	0.607790
N51	N5	0.146000	0.562000	0.146000
N61	N6	0.146000	0.146000	0.562000
N71	N7	0.146000	0.146000	0.146000
N81	N8	0.562000	0.146000	0.146000
O251	O25	0.705430	0.558370	0.629770
O261	O26	0.106430	0.558370	0.705430
O271	O27	0.672490	0.522210	0.588650
O281	O28	0.558370	0.705430	0.106430
O291	O29	0.705430	0.106430	0.558370
O301	O30	0.558370	0.629770	0.705430
O311	O31	0.522210	0.216650	0.588650
O321	O32	0.705430	0.629770	0.106430
O331	O33	0.672490	0.216650	0.522210
O341	O34	0.106430	0.629770	0.558370
O351	O35	0.216650	0.588650	0.522210
O361	O36	0.216650	0.522210	0.672490
O371	O37	0.672490	0.588650	0.216650
O381	O38	0.629770	0.705430	0.558370
O391	O39	0.216650	0.672490	0.588650
O401	O40	0.629770	0.106430	0.705430
O411	O41	0.588650	0.216650	0.672490
O421	O42	0.588650	0.522210	0.216650
O431	O43	0.588650	0.672490	0.522210
O441	O44	0.558370	0.106430	0.629770
O451	O45	0.522210	0.672490	0.216650
O461	O46	0.629770	0.558370	0.106430
O471	O47	0.522210	0.588650	0.672490
O481	O48	0.106430	0.705430	0.629770
