data_ic5b00217_si_002_clean_PM
_symmetry_space_group_name_H-M	'P1'
_cell_length_a	18.365200
_cell_length_b	18.365200
_cell_length_c	18.365200
_cell_angle_alpha	60.000000
_cell_angle_beta	60.000000
_cell_angle_gamma	60.000000
_symmetry_Int_Tables_number 1

loop_
_symmetry_equiv_pos_as_xyz
'x,y,z'

loop_
_atom_site_label
_atom_site_type_symbol
_atom_site_fract_x
_atom_site_fract_y
_atom_site_fract_z
Yb11	Yb1	0.250000	0.250000	0.250000
Yb21	Yb2	0.750000	0.750000	0.250000
Yb31	Yb3	0.250000	0.750000	0.750000
Yb41	Yb4	0.750000	0.750000	0.750000
Yb51	Yb5	0.250000	0.750000	0.250000
Yb61	Yb6	0.250000	0.250000	0.750000
Yb71	Yb7	0.750000	0.250000	0.750000
Yb81	Yb8	0.750000	0.250000	0.250000
Cd11	Cd1	0.000000	0.500000	0.000000
Cd21	Cd2	0.500000	0.500000	0.500000
Cd31	Cd3	0.000000	0.000000	0.500000
Cd41	Cd4	0.000000	0.000000	0.000000
Cd51	Cd5	0.000000	0.500000	0.500000
Cd61	Cd6	0.500000	0.000000	0.000000
Cd71	Cd7	0.500000	0.000000	0.500000
Cd81	Cd8	0.500000	0.500000	0.000000
H11	H1	0.421200	0.511000	0.220000
H21	H2	0.578800	0.489000	0.780000
H31	H3	0.427200	0.519800	0.348600
H41	H4	0.280000	0.078800	0.489000
H51	H5	0.980200	0.651400	0.072800
H61	H6	0.848600	0.519800	0.704400
H71	H7	0.204400	0.927200	0.348600
H81	H8	0.921200	0.011000	0.347800
H91	H9	0.019800	0.704400	0.348600
H101	H10	0.847800	0.720000	0.421200
H111	H11	0.704400	0.019800	0.848600
H121	H12	0.295600	0.572800	0.980200
H131	H13	0.511000	0.421200	0.720000
H141	H14	0.078800	0.652200	0.280000
H151	H15	0.489000	0.652200	0.578800
H161	H16	0.980200	0.295600	0.651400
H171	H17	0.220000	0.421200	0.347800
H181	H18	0.921200	0.347800	0.720000
H191	H19	0.348600	0.019800	0.427200
H201	H20	0.847800	0.011000	0.720000
H211	H21	0.348600	0.204400	0.019800
H221	H22	0.480200	0.572800	0.151400
H231	H23	0.347800	0.921200	0.220000
H241	H24	0.704400	0.427200	0.019800
H251	H25	0.347800	0.220000	0.511000
H261	H26	0.780000	0.578800	0.652200
H271	H27	0.151400	0.295600	0.072800
H281	H28	0.078800	0.280000	0.989000
H291	H29	0.347800	0.511000	0.921200
H301	H30	0.927200	0.848600	0.019800
H311	H31	0.152200	0.989000	0.280000
H321	H32	0.652200	0.780000	0.489000
H331	H33	0.651400	0.572800	0.795600
H341	H34	0.011000	0.847800	0.220000
H351	H35	0.578800	0.780000	0.152200
H361	H36	0.220000	0.011000	0.421200
H371	H37	0.489000	0.578800	0.280000
H381	H38	0.652200	0.078800	0.780000
H391	H39	0.295600	0.151400	0.572800
H401	H40	0.848600	0.927200	0.519800
H411	H41	0.204400	0.519800	0.927200
H421	H42	0.572800	0.295600	0.480200
H431	H43	0.511000	0.347800	0.421200
H441	H44	0.989000	0.078800	0.152200
H451	H45	0.480200	0.795600	0.572800
H461	H46	0.519800	0.204400	0.427200
H471	H47	0.072800	0.151400	0.980200
H481	H48	0.780000	0.989000	0.578800
H491	H49	0.795600	0.480200	0.072800
H501	H50	0.704400	0.848600	0.427200
H511	H51	0.152200	0.280000	0.578800
H521	H52	0.980200	0.072800	0.295600
H531	H53	0.578800	0.152200	0.489000
H541	H54	0.921200	0.720000	0.011000
H551	H55	0.280000	0.489000	0.152200
H561	H56	0.795600	0.651400	0.480200
H571	H57	0.427200	0.348600	0.704400
H581	H58	0.421200	0.220000	0.847800
H591	H59	0.280000	0.152200	0.078800
H601	H60	0.421200	0.847800	0.511000
H611	H61	0.348600	0.427200	0.204400
H621	H62	0.989000	0.780000	0.078800
H631	H63	0.511000	0.720000	0.347800
H641	H64	0.720000	0.511000	0.847800
H651	H65	0.651400	0.980200	0.572800
H661	H66	0.927200	0.204400	0.848600
H671	H67	0.019800	0.927200	0.704400
H681	H68	0.795600	0.072800	0.651400
H691	H69	0.927200	0.019800	0.204400
H701	H70	0.072800	0.795600	0.151400
H711	H71	0.780000	0.652200	0.989000
H721	H72	0.204400	0.348600	0.519800
H731	H73	0.480200	0.151400	0.795600
H741	H74	0.072800	0.980200	0.795600
H751	H75	0.151400	0.072800	0.480200
H761	H76	0.847800	0.421200	0.011000
H771	H77	0.720000	0.847800	0.921200
H781	H78	0.651400	0.795600	0.980200
H791	H79	0.848600	0.704400	0.927200
H801	H80	0.572800	0.480200	0.651400
H811	H81	0.011000	0.220000	0.921200
H821	H82	0.220000	0.347800	0.011000
H831	H83	0.519800	0.848600	0.204400
H841	H84	0.019800	0.348600	0.927200
H851	H85	0.152200	0.578800	0.989000
H861	H86	0.519800	0.427200	0.848600
H871	H87	0.989000	0.152200	0.780000
H881	H88	0.011000	0.921200	0.847800
H891	H89	0.427200	0.704400	0.519800
H901	H90	0.720000	0.921200	0.511000
H911	H91	0.151400	0.480200	0.295600
H921	H92	0.295600	0.980200	0.151400
H931	H93	0.652200	0.489000	0.078800
H941	H94	0.489000	0.280000	0.652200
H951	H95	0.078800	0.989000	0.652200
H961	H96	0.572800	0.651400	0.295600
C11	C1	0.572300	0.319900	0.419700
C21	C2	0.811900	0.580300	0.680100
C31	C3	0.080300	0.680100	0.311900
C41	C4	0.319900	0.919700	0.188100
C51	C5	0.319900	0.188100	0.572300
C61	C6	0.138000	0.368200	0.879600
C71	C7	0.927700	0.811900	0.080300
C81	C8	0.819900	0.419700	0.072300
C91	C9	0.819900	0.072300	0.688100
C101	C10	0.680100	0.080300	0.811900
C111	C11	0.379600	0.368200	0.614200
C121	C12	0.120400	0.131800	0.862000
C131	C13	0.885800	0.362000	0.120400
C141	C14	0.927700	0.080300	0.180100
C151	C15	0.080300	0.311900	0.927700
C161	C16	0.385800	0.131800	0.620400
C171	C17	0.362000	0.620400	0.131800
C181	C18	0.131800	0.385800	0.120400
C191	C19	0.114200	0.638000	0.879600
C201	C20	0.427700	0.580300	0.311900
C211	C21	0.862000	0.385800	0.631800
C221	C22	0.631800	0.620400	0.885800
C231	C23	0.572300	0.419700	0.688100
C241	C24	0.120400	0.862000	0.885800
C251	C25	0.919700	0.688100	0.072300
C261	C26	0.614200	0.379600	0.138000
C271	C27	0.879600	0.114200	0.868200
C281	C28	0.072300	0.819900	0.188100
C291	C29	0.131800	0.120400	0.362000
C301	C30	0.072300	0.188100	0.919700
C311	C31	0.427700	0.311900	0.680100
C321	C32	0.379600	0.638000	0.368200
C331	C33	0.631800	0.862000	0.620400
C341	C34	0.862000	0.631800	0.120400
C351	C35	0.580300	0.811900	0.180100
C361	C36	0.385800	0.862000	0.131800
C371	C37	0.620400	0.631800	0.385800
C381	C38	0.680100	0.811900	0.427700
C391	C39	0.419700	0.819900	0.572300
C401	C40	0.885800	0.120400	0.631800
C411	C41	0.868200	0.614200	0.879600
C421	C42	0.862000	0.120400	0.385800
C431	C43	0.614200	0.868200	0.379600
C441	C44	0.131800	0.362000	0.385800
C451	C45	0.879600	0.868200	0.138000
C461	C46	0.885800	0.631800	0.362000
C471	C47	0.180100	0.311900	0.580300
C481	C48	0.362000	0.885800	0.620400
C491	C49	0.919700	0.072300	0.319900
C501	C50	0.879600	0.138000	0.114200
C511	C51	0.385800	0.620400	0.862000
C521	C52	0.368200	0.114200	0.138000
C531	C53	0.580300	0.180100	0.427700
C541	C54	0.819900	0.688100	0.419700
C551	C55	0.114200	0.368200	0.638000
C561	C56	0.614200	0.138000	0.868200
C571	C57	0.188100	0.419700	0.319900
C581	C58	0.180100	0.927700	0.311900
C591	C59	0.114200	0.879600	0.368200
C601	C60	0.311900	0.180100	0.080300
C611	C61	0.688100	0.819900	0.919700
C621	C62	0.319900	0.572300	0.919700
C631	C63	0.919700	0.319900	0.688100
C641	C64	0.080300	0.927700	0.680100
C651	C65	0.427700	0.680100	0.580300
C661	C66	0.927700	0.180100	0.811900
C671	C67	0.311900	0.080300	0.427700
C681	C68	0.688100	0.919700	0.572300
C691	C69	0.419700	0.188100	0.819900
C701	C70	0.680100	0.427700	0.080300
C711	C71	0.419700	0.572300	0.188100
C721	C72	0.368200	0.379600	0.114200
C731	C73	0.631800	0.885800	0.862000
C741	C74	0.620400	0.362000	0.631800
C751	C75	0.188100	0.072300	0.419700
C761	C76	0.188100	0.319900	0.072300
C771	C77	0.868200	0.879600	0.638000
C781	C78	0.572300	0.688100	0.319900
C791	C79	0.638000	0.868200	0.114200
C801	C80	0.868200	0.638000	0.614200
C811	C81	0.811900	0.680100	0.927700
C821	C82	0.638000	0.379600	0.868200
C831	C83	0.362000	0.131800	0.885800
C841	C84	0.620400	0.385800	0.362000
C851	C85	0.311900	0.427700	0.180100
C861	C86	0.368200	0.138000	0.379600
C871	C87	0.120400	0.885800	0.131800
C881	C88	0.379600	0.614200	0.638000
C891	C89	0.638000	0.114200	0.379600
C901	C90	0.180100	0.580300	0.927700
C911	C91	0.138000	0.614200	0.368200
C921	C92	0.580300	0.427700	0.811900
C931	C93	0.072300	0.919700	0.819900
C941	C94	0.811900	0.927700	0.580300
C951	C95	0.688100	0.572300	0.819900
C961	C96	0.138000	0.879600	0.614200
O11	O1	0.620900	0.045300	0.406900
O21	O2	0.593100	0.379100	0.573100
O31	O3	0.250000	0.880600	0.250000
O41	O4	0.880600	0.750000	0.119400
O51	O5	0.379100	0.954700	0.593100
O61	O6	0.373600	0.146000	0.685200
O71	O7	0.126400	0.354000	0.704800
O81	O8	0.126400	0.704800	0.814800
O91	O9	0.354000	0.126400	0.204800
O101	O10	0.045300	0.426900	0.620900
O111	O11	0.073100	0.454700	0.093100
O121	O12	0.854000	0.704800	0.626400
O131	O13	0.685200	0.646000	0.373600
O141	O14	0.573100	0.879100	0.593100
O151	O15	0.926900	0.545300	0.906900
O161	O16	0.704800	0.314800	0.854000
O171	O17	0.814800	0.204800	0.126400
O181	O18	0.093100	0.954700	0.073100
O191	O19	0.379100	0.593100	0.073100
O201	O20	0.880600	0.250000	0.750000
O211	O21	0.406900	0.620900	0.426900
O221	O22	0.750000	0.380600	0.119400
O231	O23	0.093100	0.879100	0.954700
O241	O24	0.354000	0.204800	0.314800
O251	O25	0.626400	0.854000	0.314800
O261	O26	0.373600	0.795200	0.146000
O271	O27	0.454700	0.593100	0.879100
O281	O28	0.120900	0.545300	0.426900
O291	O29	0.379100	0.073100	0.954700
O301	O30	0.314800	0.704800	0.354000
O311	O31	0.685200	0.295200	0.646000
O321	O32	0.545300	0.406900	0.120900
O331	O33	0.045300	0.620900	0.906900
O341	O34	0.619400	0.380600	0.750000
O351	O35	0.250000	0.250000	0.619400
O361	O36	0.120900	0.906900	0.545300
O371	O37	0.795200	0.373600	0.646000
O381	O38	0.146000	0.373600	0.185200
O391	O39	0.750000	0.750000	0.880600
O401	O40	0.626400	0.204800	0.854000
O411	O41	0.073100	0.093100	0.379100
O421	O42	0.406900	0.426900	0.545300
O431	O43	0.646000	0.795200	0.685200
O441	O44	0.250000	0.619400	0.880600
O451	O45	0.879100	0.093100	0.454700
O461	O46	0.626400	0.314800	0.204800
O471	O47	0.119400	0.750000	0.250000
O481	O48	0.854000	0.814800	0.704800
O491	O49	0.426900	0.406900	0.045300
O501	O50	0.620900	0.926900	0.045300
O511	O51	0.250000	0.119400	0.380600
O521	O52	0.646000	0.873600	0.795200
O531	O53	0.954700	0.573100	0.379100
O541	O54	0.185200	0.873600	0.146000
O551	O55	0.204800	0.814800	0.626400
O561	O56	0.954700	0.093100	0.573100
O571	O57	0.146000	0.185200	0.295200
O581	O58	0.750000	0.119400	0.750000
O591	O59	0.380600	0.250000	0.750000
O601	O60	0.873600	0.295200	0.185200
O611	O61	0.314800	0.626400	0.704800
O621	O62	0.354000	0.314800	0.126400
O631	O63	0.204800	0.626400	0.354000
O641	O64	0.593100	0.454700	0.379100
O651	O65	0.873600	0.646000	0.295200
O661	O66	0.454700	0.073100	0.593100
O671	O67	0.295200	0.685200	0.146000
O681	O68	0.573100	0.593100	0.954700
O691	O69	0.704800	0.854000	0.126400
O701	O70	0.185200	0.795200	0.873600
O711	O71	0.204800	0.354000	0.814800
O721	O72	0.795200	0.185200	0.373600
O731	O73	0.120900	0.426900	0.906900
O741	O74	0.926900	0.620900	0.545300
O751	O75	0.854000	0.626400	0.814800
O761	O76	0.250000	0.250000	0.119400
O771	O77	0.704800	0.126400	0.314800
O781	O78	0.093100	0.073100	0.879100
O791	O79	0.426900	0.045300	0.120900
O801	O80	0.750000	0.880600	0.619400
O811	O81	0.045300	0.906900	0.426900
O821	O82	0.119400	0.880600	0.750000
O831	O83	0.879100	0.573100	0.093100
O841	O84	0.620900	0.406900	0.926900
O851	O85	0.406900	0.545300	0.620900
O861	O86	0.593100	0.573100	0.454700
O871	O87	0.295200	0.873600	0.685200
O881	O88	0.685200	0.373600	0.295200
O891	O89	0.906900	0.045300	0.926900
O901	O90	0.185200	0.146000	0.795200
O911	O91	0.814800	0.854000	0.204800
O921	O92	0.873600	0.185200	0.646000
O931	O93	0.646000	0.685200	0.873600
O941	O94	0.926900	0.906900	0.620900
O951	O95	0.373600	0.685200	0.795200
O961	O96	0.954700	0.379100	0.093100
O971	O97	0.250000	0.380600	0.250000
O981	O98	0.750000	0.750000	0.380600
O991	O99	0.619400	0.250000	0.380600
O1001	O100	0.073100	0.379100	0.454700
O1011	O101	0.750000	0.619400	0.750000
O1021	O102	0.295200	0.146000	0.873600
O1031	O103	0.314800	0.354000	0.626400
O1041	O104	0.906900	0.926900	0.120900
O1051	O105	0.146000	0.295200	0.373600
O1061	O106	0.126400	0.814800	0.354000
O1071	O107	0.545300	0.120900	0.926900
O1081	O108	0.545300	0.926900	0.406900
O1091	O109	0.380600	0.619400	0.250000
O1101	O110	0.880600	0.119400	0.250000
O1111	O111	0.454700	0.879100	0.073100
O1121	O112	0.814800	0.126400	0.854000
O1131	O113	0.619400	0.750000	0.250000
O1141	O114	0.573100	0.954700	0.879100
O1151	O115	0.426900	0.120900	0.406900
O1161	O116	0.879100	0.454700	0.573100
O1171	O117	0.380600	0.750000	0.619400
O1181	O118	0.795200	0.646000	0.185200
O1191	O119	0.906900	0.120900	0.045300
O1201	O120	0.119400	0.250000	0.880600
