data_ic8004536-file004_clean_PM
_symmetry_space_group_name_H-M	'P1'
_cell_length_a	13.118000
_cell_length_b	14.624000
_cell_length_c	15.193000
_cell_angle_alpha	95.000000
_cell_angle_beta	114.610000
_cell_angle_gamma	111.880000
_symmetry_Int_Tables_number 1

loop_
_symmetry_equiv_pos_as_xyz
'x,y,z'

loop_
_atom_site_label
_atom_site_type_symbol
_atom_site_fract_x
_atom_site_fract_y
_atom_site_fract_z
V11	V1	0.238480	0.002360	0.239500
V21	V2	0.761520	0.997640	0.760500
Cu11	Cu1	0.000000	0.000000	0.000000
Mo11	Mo1	0.666030	0.278220	0.574240
Mo21	Mo2	0.681450	0.982010	0.377950
Mo31	Mo3	0.837330	0.133020	0.632590
Mo41	Mo4	0.523230	0.136770	0.318190
Mo51	Mo5	0.318550	0.017990	0.622050
Mo61	Mo6	0.665280	0.845980	0.558490
Mo71	Mo7	0.476770	0.863230	0.681810
Mo81	Mo8	0.650830	0.149000	0.759280
Mo91	Mo9	0.334720	0.154020	0.441510
Mo101	Mo10	0.349170	0.851000	0.240720
Mo111	Mo11	0.333970	0.721780	0.425760
Mo121	Mo12	0.162670	0.866980	0.367410
P11	P1	0.500000	0.000000	0.500000
H11	H1	0.454200	0.851300	0.049900
H21	H2	0.788000	0.071800	0.977100
H31	H3	0.250100	0.287100	0.833900
H41	H4	0.292200	0.178500	0.141800
H51	H5	0.643300	0.747400	0.125300
H61	H6	0.651900	0.990400	0.138200
H71	H7	0.212000	0.928200	0.022900
H81	H8	0.356700	0.252600	0.874700
H91	H9	0.548200	0.394600	0.925900
H101	H10	0.707800	0.821500	0.858200
H111	H11	0.082200	0.135900	0.226500
H121	H12	0.348100	0.009600	0.861800
H131	H13	0.252000	0.773200	0.919700
H141	H14	0.451800	0.605400	0.074100
H151	H15	0.760200	0.195900	0.179000
H161	H16	0.749900	0.712900	0.166100
H171	H17	0.748000	0.226800	0.080300
H181	H18	0.918600	0.860900	0.140500
H191	H19	0.683400	0.561800	0.991000
H201	H20	0.081400	0.139100	0.859500
H211	H21	0.917800	0.864100	0.773500
H221	H22	0.316600	0.438200	0.009000
H231	H23	0.239800	0.804100	0.821000
H241	H24	0.545800	0.148700	0.950100
C11	C1	0.389500	0.462500	0.003500
C21	C2	0.589700	0.994400	0.081900
C31	C3	0.150700	0.903900	0.955200
C41	C4	0.472200	0.561300	0.044700
C51	C5	0.528800	0.089600	0.971300
C61	C6	0.255500	0.828900	0.888900
C71	C7	0.410300	0.005600	0.918100
C81	C8	0.471200	0.910400	0.028700
C91	C9	0.527800	0.438700	0.955300
C101	C10	0.588400	0.602800	0.046400
C111	C11	0.610500	0.537500	0.996500
C121	C12	0.005400	0.130800	0.179600
C131	C13	0.736400	0.815500	0.923600
C141	C14	0.617400	0.084700	0.052800
C151	C15	0.382600	0.915300	0.947200
C161	C16	0.994600	0.869200	0.820400
C171	C17	0.149500	0.162500	0.924300
C181	C18	0.744500	0.171100	0.111100
C191	C19	0.683500	0.712400	0.105100
C201	C20	0.850500	0.837500	0.075700
C211	C21	0.411600	0.397200	0.953600
C221	C22	0.316500	0.287600	0.894900
C231	C23	0.849300	0.096100	0.044800
C241	C24	0.263600	0.184500	0.076400
N11	N1	0.157000	0.854800	0.882700
N21	N2	0.260900	0.230500	0.949700
N31	N3	0.857000	0.870400	0.998100
N41	N4	0.943000	0.165600	0.204800
N51	N5	0.843000	0.145200	0.117300
N61	N6	0.661700	0.750900	0.954200
N71	N7	0.057000	0.834400	0.795200
N81	N8	0.739100	0.769500	0.050300
N91	N9	0.143000	0.129600	0.001900
N101	N10	0.338300	0.249100	0.045800
N111	N11	0.048100	0.914300	0.920600
N121	N12	0.951900	0.085700	0.079400
O11	O1	0.512100	0.997900	0.398800
O21	O2	0.797100	0.990600	0.650700
O31	O3	0.210200	0.867700	0.255800
O41	O4	0.386500	0.006300	0.482900
O51	O5	0.330200	0.747900	0.303000
O61	O6	0.376200	0.994400	0.233200
O71	O7	0.202900	0.009400	0.349300
O81	O8	0.628700	0.863300	0.675300
O91	O9	0.871500	0.001000	0.867700
O101	O10	0.512600	0.884000	0.278300
O111	O11	0.128500	0.999000	0.132300
O121	O12	0.377800	0.902000	0.420800
O131	O13	0.487400	0.116000	0.721700
O141	O14	0.635100	0.087100	0.330800
O151	O15	0.807500	0.084400	0.505500
O161	O16	0.504600	0.745600	0.477300
O171	O17	0.487900	0.002100	0.601200
O181	O18	0.613500	0.993700	0.517100
O191	O19	0.627500	0.241600	0.436300
O201	O20	0.623800	0.005600	0.766800
O211	O21	0.789800	0.132300	0.744200
O221	O22	0.372500	0.758400	0.563700
O231	O23	0.364900	0.912900	0.669200
O241	O24	0.494900	0.093800	0.472100
O251	O25	0.669800	0.252100	0.697000
O261	O26	0.505100	0.906200	0.527900
O271	O27	0.202400	0.763400	0.392400
O281	O28	0.797600	0.236600	0.607600
O291	O29	0.371300	0.136700	0.324700
O301	O30	0.495400	0.254400	0.522700
O311	O31	0.687100	0.883600	0.451600
O321	O32	0.192500	0.915600	0.494500
O331	O33	0.312900	0.116400	0.548400
O341	O34	0.622200	0.098000	0.579200
