data_ic800131r-file003_clean_PM
_symmetry_space_group_name_H-M	'P1'
_cell_length_a	15.183200
_cell_length_b	15.330800
_cell_length_c	24.749900
_cell_angle_alpha	90.000000
_cell_angle_beta	90.000000
_cell_angle_gamma	111.338000
_symmetry_Int_Tables_number 1

loop_
_symmetry_equiv_pos_as_xyz
'x,y,z'

loop_
_atom_site_label
_atom_site_type_symbol
_atom_site_fract_x
_atom_site_fract_y
_atom_site_fract_z
Co11	Co1	0.397630	0.609710	0.020560
Co21	Co2	0.397630	0.609710	0.479440
Co31	Co3	0.602370	0.390290	0.979440
Co41	Co4	0.602370	0.390290	0.520560
H11	H1	0.475200	0.230900	0.042300
H21	H2	0.539500	0.679800	0.293500
H31	H3	0.751400	0.310600	0.485500
H41	H4	0.738400	0.443600	0.790000
H51	H5	0.468000	0.334400	0.614400
H61	H6	0.374200	0.780400	0.084200
H71	H7	0.625800	0.219600	0.915800
H81	H8	0.588600	0.065400	0.927100
H91	H9	0.944100	0.604200	0.533700
H101	H10	0.055900	0.395800	0.033700
H111	H11	0.625800	0.219600	0.584200
H121	H12	0.524800	0.769100	0.957700
H131	H13	0.563400	0.925100	0.555700
H141	H14	0.783300	0.556100	0.540000
H151	H15	0.738400	0.443600	0.710000
H161	H16	0.248600	0.689400	0.985500
H171	H17	0.374200	0.780400	0.415800
H181	H18	0.411400	0.934600	0.427100
H191	H19	0.460500	0.320200	0.706500
H201	H20	0.475200	0.230900	0.457700
H211	H21	0.735800	0.429500	0.617400
H221	H22	0.086500	0.645400	0.528300
H231	H23	0.751400	0.310600	0.014500
H241	H24	0.944100	0.604200	0.966300
H251	H25	0.532000	0.665600	0.114400
H261	H26	0.264200	0.570500	0.117400
H271	H27	0.913500	0.354600	0.028300
H281	H28	0.563400	0.925100	0.944300
H291	H29	0.216700	0.443900	0.460000
H301	H30	0.524800	0.769100	0.542300
H311	H31	0.539500	0.679800	0.206500
H321	H32	0.216700	0.443900	0.040000
H331	H33	0.735800	0.429500	0.882600
H341	H34	0.532000	0.665600	0.385600
H351	H35	0.913500	0.354600	0.471700
H361	H36	0.468000	0.334400	0.885600
H371	H37	0.261600	0.556400	0.290000
H381	H38	0.588600	0.065400	0.572900
H391	H39	0.261600	0.556400	0.210000
H401	H40	0.460500	0.320200	0.793500
H411	H41	0.086500	0.645400	0.971700
H421	H42	0.436600	0.074900	0.055700
H431	H43	0.436600	0.074900	0.444300
H441	H44	0.783300	0.556100	0.960000
H451	H45	0.411400	0.934600	0.072900
H461	H46	0.248600	0.689400	0.514500
H471	H47	0.055900	0.395800	0.466300
H481	H48	0.264200	0.570500	0.382600
C11	C1	0.523800	0.896600	0.973000
C21	C2	0.565400	0.097700	0.548400
C31	C3	0.524300	0.354900	0.866200
C41	C4	0.190400	0.486100	0.472700
C51	C5	0.475700	0.645100	0.366200
C61	C6	0.453300	0.455500	0.001800
C71	C7	0.491100	0.951300	0.006000
C81	C8	0.889000	0.396400	0.486900
C91	C9	0.499700	0.197700	0.480900
C101	C10	0.491100	0.951300	0.494000
C111	C11	0.434600	0.902300	0.048400
C121	C12	0.318800	0.583500	0.192000
C131	C13	0.412300	0.809500	0.055100
C141	C14	0.401400	0.620600	0.220100
C151	C15	0.546700	0.544500	0.998200
C161	C16	0.052200	0.515000	0.002400
C171	C17	0.681200	0.416500	0.808000
C181	C18	0.681200	0.416500	0.692000
C191	C19	0.889000	0.396400	0.013100
C201	C20	0.190400	0.486100	0.027300
C211	C21	0.481000	0.652600	0.189800
C221	C22	0.519000	0.347400	0.810200
C231	C23	0.678400	0.413000	0.635600
C241	C24	0.565400	0.097700	0.951600
C251	C25	0.809600	0.513900	0.527300
C261	C26	0.508900	0.048700	0.994000
C271	C27	0.412300	0.809500	0.444900
C281	C28	0.790800	0.371000	0.494700
C291	C29	0.052200	0.515000	0.497600
C301	C30	0.209200	0.629000	0.994700
C311	C31	0.906700	0.544000	0.977200
C321	C32	0.476200	0.103400	0.473000
C331	C33	0.401400	0.620600	0.279900
C341	C34	0.906700	0.544000	0.522800
C351	C35	0.678400	0.413000	0.864400
C361	C36	0.434600	0.902300	0.451600
C371	C37	0.209200	0.629000	0.505300
C381	C38	0.500300	0.802300	0.980900
C391	C39	0.500300	0.802300	0.519100
C401	C40	0.790800	0.371000	0.005300
C411	C41	0.453300	0.455500	0.498200
C421	C42	0.318800	0.583500	0.308000
C431	C43	0.321600	0.587000	0.135600
C441	C44	0.499700	0.197700	0.019100
C451	C45	0.587700	0.190500	0.944900
C461	C46	0.111000	0.603600	0.986900
C471	C47	0.809600	0.513900	0.972700
C481	C48	0.587700	0.190500	0.555100
C491	C49	0.947800	0.485000	0.502400
C501	C50	0.093300	0.456000	0.022800
C511	C51	0.321600	0.587000	0.364400
C521	C52	0.508900	0.048700	0.506000
C531	C53	0.093300	0.456000	0.477200
C541	C54	0.598600	0.379400	0.720100
C551	C55	0.598600	0.379400	0.779900
C561	C56	0.524300	0.354900	0.633800
C571	C57	0.475700	0.645100	0.133800
C581	C58	0.546700	0.544500	0.501800
C591	C59	0.476200	0.103400	0.027000
C601	C60	0.111000	0.603600	0.513100
C611	C61	0.519000	0.347400	0.689800
C621	C62	0.481000	0.652600	0.310200
C631	C63	0.947800	0.485000	0.997600
C641	C64	0.523800	0.896600	0.527000
N11	N1	0.396600	0.611000	0.106900
N21	N2	0.557300	0.243700	0.978500
N31	N3	0.557300	0.243700	0.521500
N41	N4	0.442700	0.756300	0.478500
N51	N5	0.752000	0.428500	0.985600
N61	N6	0.248000	0.571500	0.014400
N71	N7	0.603400	0.389000	0.606900
N81	N8	0.442700	0.756300	0.021500
N91	N9	0.603400	0.389000	0.893100
N101	N10	0.752000	0.428500	0.514400
N111	N11	0.396600	0.611000	0.393100
N121	N12	0.248000	0.571500	0.485600
O11	O1	0.380100	0.467300	0.483800
O21	O2	0.461300	0.379500	0.511300
O31	O3	0.380100	0.467300	0.016200
O41	O4	0.538700	0.620500	0.011300
O51	O5	0.461300	0.379500	0.988700
O61	O6	0.538700	0.620500	0.488700
O71	O7	0.619900	0.532700	0.516200
O81	O8	0.619900	0.532700	0.983800
