data_ic9002115_si_001_clean_PM
_symmetry_space_group_name_H-M	'P1'
_cell_length_a	26.137700
_cell_length_b	6.746400
_cell_length_c	25.023500
_cell_angle_alpha	90.000000
_cell_angle_beta	105.916000
_cell_angle_gamma	90.000000
_symmetry_Int_Tables_number 1

loop_
_symmetry_equiv_pos_as_xyz
'x,y,z'

loop_
_atom_site_label
_atom_site_type_symbol
_atom_site_fract_x
_atom_site_fract_y
_atom_site_fract_z
Zn11	Zn1	0.934970	0.885550	0.965760
O11	O1	0.919440	0.052700	0.900590
O21	O2	0.915440	0.767700	0.855890
O31	O3	0.996580	0.751800	0.521940
O41	O4	0.929660	0.946100	0.528340
C11	C1	0.914410	0.065900	0.805200
C21	C2	0.902560	0.264900	0.801580
H11	H1	0.893200	0.327200	0.830700
C31	C3	0.904420	0.373300	0.755540
H21	H2	0.895700	0.507200	0.753800
C41	C4	0.919040	0.287000	0.711700
C51	C5	0.930510	0.084800	0.715300
H31	H3	0.940200	0.022200	0.686400
C61	C6	0.927760	0.976400	0.761120
H41	H4	0.935000	0.841200	0.762400
C71	C7	0.916230	0.949600	0.856900
C81	C8	0.925150	0.408300	0.664080
C91	C9	0.895140	0.578700	0.647310
H51	H5	0.868200	0.611200	0.663500
C101	C10	0.905020	0.700400	0.606760
H61	H6	0.884700	0.814100	0.596000
C111	C11	0.944880	0.654900	0.581890
C121	C12	0.973190	0.480400	0.596720
H71	H7	0.999300	0.445600	0.579600
C131	C13	0.963030	0.358600	0.636510
H81	H8	0.981800	0.240500	0.645300
C141	C14	0.958260	0.793100	0.541570
N11	N1	0.881070	0.679000	0.972400
C151	C15	0.848960	0.709500	0.005190
H91	H9	0.852500	0.826700	0.025400
C161	C16	0.811190	0.575700	0.010180
H101	H10	0.789700	0.602700	0.033400
C171	C17	0.805020	0.399800	0.980520
C181	C18	0.839280	0.367400	0.947460
H111	H11	0.837100	0.250300	0.927400
C191	C19	0.876010	0.507800	0.944600
H121	H12	0.898500	0.483200	0.922300
C201	C20	0.765810	0.247200	0.983600
H131	H13	0.763100	0.137600	0.960500
Zn21	Zn2	0.434970	0.385550	0.965760
O51	O5	0.419440	0.552700	0.900590
O61	O6	0.415440	0.267700	0.855890
O71	O7	0.496580	0.251800	0.521940
O81	O8	0.429660	0.446100	0.528340
C211	C21	0.414410	0.565900	0.805200
C221	C22	0.402560	0.764900	0.801580
H141	H14	0.393200	0.827200	0.830700
C231	C23	0.404420	0.873300	0.755540
H151	H15	0.395700	0.007200	0.753800
C241	C24	0.419040	0.787000	0.711700
C251	C25	0.430510	0.584800	0.715300
H161	H16	0.440200	0.522200	0.686400
C261	C26	0.427760	0.476400	0.761120
H171	H17	0.435000	0.341200	0.762400
C271	C27	0.416230	0.449600	0.856900
C281	C28	0.425150	0.908300	0.664080
C291	C29	0.395140	0.078700	0.647310
H181	H18	0.368200	0.111200	0.663500
C301	C30	0.405020	0.200400	0.606760
H191	H19	0.384700	0.314100	0.596000
C311	C31	0.444880	0.154900	0.581890
C321	C32	0.473190	0.980400	0.596720
H201	H20	0.499300	0.945600	0.579600
C331	C33	0.463030	0.858600	0.636510
H211	H21	0.481800	0.740500	0.645300
C341	C34	0.458260	0.293100	0.541570
N21	N2	0.381070	0.179000	0.972400
C351	C35	0.348960	0.209500	0.005190
H221	H22	0.352500	0.326700	0.025400
C361	C36	0.311190	0.075700	0.010180
H231	H23	0.289700	0.102700	0.033400
C371	C37	0.305020	0.899800	0.980520
C381	C38	0.339280	0.867400	0.947460
H241	H24	0.337100	0.750300	0.927400
C391	C39	0.376010	0.007800	0.944600
H251	H25	0.398500	0.983200	0.922300
C401	C40	0.265810	0.747200	0.983600
H261	H26	0.263100	0.637600	0.960500
Zn31	Zn3	0.065030	0.885550	0.534240
O91	O9	0.080560	0.052700	0.599410
O101	O10	0.084560	0.767700	0.644110
O111	O11	0.003420	0.751800	0.978060
O121	O12	0.070340	0.946100	0.971660
C411	C41	0.085590	0.065900	0.694800
C421	C42	0.097440	0.264900	0.698420
H271	H27	0.106800	0.327200	0.669300
C431	C43	0.095580	0.373300	0.744460
H281	H28	0.104300	0.507200	0.746200
C441	C44	0.080960	0.287000	0.788300
C451	C45	0.069490	0.084800	0.784700
H291	H29	0.059800	0.022200	0.813600
C461	C46	0.072240	0.976400	0.738880
H301	H30	0.065000	0.841200	0.737600
C471	C47	0.083770	0.949600	0.643100
C481	C48	0.074850	0.408300	0.835920
C491	C49	0.104860	0.578700	0.852690
H311	H31	0.131800	0.611200	0.836500
C501	C50	0.094980	0.700400	0.893240
H321	H32	0.115300	0.814100	0.904000
C511	C51	0.055120	0.654900	0.918110
C521	C52	0.026810	0.480400	0.903280
H331	H33	0.000700	0.445600	0.920400
C531	C53	0.036970	0.358600	0.863490
H341	H34	0.018200	0.240500	0.854700
C541	C54	0.041740	0.793100	0.958430
N31	N3	0.118930	0.679000	0.527600
C551	C55	0.151040	0.709500	0.494810
H351	H35	0.147500	0.826700	0.474600
C561	C56	0.188810	0.575700	0.489820
H361	H36	0.210300	0.602700	0.466600
C571	C57	0.194980	0.399800	0.519480
C581	C58	0.160720	0.367400	0.552540
H371	H37	0.162900	0.250300	0.572600
C591	C59	0.123990	0.507800	0.555400
H381	H38	0.101500	0.483200	0.577700
C601	C60	0.234190	0.247200	0.516400
H391	H39	0.236900	0.137600	0.539500
Zn41	Zn4	0.565030	0.385550	0.534240
O131	O13	0.580560	0.552700	0.599410
O141	O14	0.584560	0.267700	0.644110
O151	O15	0.503420	0.251800	0.978060
O161	O16	0.570340	0.446100	0.971660
C611	C61	0.585590	0.565900	0.694800
C621	C62	0.597440	0.764900	0.698420
H401	H40	0.606800	0.827200	0.669300
C631	C63	0.595580	0.873300	0.744460
H411	H41	0.604300	0.007200	0.746200
C641	C64	0.580960	0.787000	0.788300
C651	C65	0.569490	0.584800	0.784700
H421	H42	0.559800	0.522200	0.813600
C661	C66	0.572240	0.476400	0.738880
H431	H43	0.565000	0.341200	0.737600
C671	C67	0.583770	0.449600	0.643100
C681	C68	0.574850	0.908300	0.835920
C691	C69	0.604860	0.078700	0.852690
H441	H44	0.631800	0.111200	0.836500
C701	C70	0.594980	0.200400	0.893240
H451	H45	0.615300	0.314100	0.904000
C711	C71	0.555120	0.154900	0.918110
C721	C72	0.526810	0.980400	0.903280
H461	H46	0.500700	0.945600	0.920400
C731	C73	0.536970	0.858600	0.863490
H471	H47	0.518200	0.740500	0.854700
C741	C74	0.541740	0.293100	0.958430
N41	N4	0.618930	0.179000	0.527600
C751	C75	0.651040	0.209500	0.494810
H481	H48	0.647500	0.326700	0.474600
C761	C76	0.688810	0.075700	0.489820
H491	H49	0.710300	0.102700	0.466600
C771	C77	0.694980	0.899800	0.519480
C781	C78	0.660720	0.867400	0.552540
H501	H50	0.662900	0.750300	0.572600
C791	C79	0.623990	0.007800	0.555400
H511	H51	0.601500	0.983200	0.577700
C801	C80	0.734190	0.747200	0.516400
H521	H52	0.736900	0.637600	0.539500
Zn51	Zn5	0.065030	0.114450	0.034240
O171	O17	0.080560	0.947300	0.099410
O181	O18	0.084560	0.232300	0.144110
O191	O19	0.003420	0.248200	0.478060
O201	O20	0.070340	0.053900	0.471660
C811	C81	0.085590	0.934100	0.194800
C821	C82	0.097440	0.735100	0.198420
H531	H53	0.106800	0.672800	0.169300
C831	C83	0.095580	0.626700	0.244460
H541	H54	0.104300	0.492800	0.246200
C841	C84	0.080960	0.713000	0.288300
C851	C85	0.069490	0.915200	0.284700
H551	H55	0.059800	0.977800	0.313600
C861	C86	0.072240	0.023600	0.238880
H561	H56	0.065000	0.158800	0.237600
C871	C87	0.083770	0.050400	0.143100
C881	C88	0.074850	0.591700	0.335920
C891	C89	0.104860	0.421300	0.352690
H571	H57	0.131800	0.388800	0.336500
C901	C90	0.094980	0.299600	0.393240
H581	H58	0.115300	0.185900	0.404000
C911	C91	0.055120	0.345100	0.418110
C921	C92	0.026810	0.519600	0.403280
H591	H59	0.000700	0.554400	0.420400
C931	C93	0.036970	0.641400	0.363490
H601	H60	0.018200	0.759500	0.354700
C941	C94	0.041740	0.206900	0.458430
N51	N5	0.118930	0.321000	0.027600
C951	C95	0.151040	0.290500	0.994810
H611	H61	0.147500	0.173300	0.974600
C961	C96	0.188810	0.424300	0.989820
H621	H62	0.210300	0.397300	0.966600
C971	C97	0.194980	0.600200	0.019480
C981	C98	0.160720	0.632600	0.052540
H631	H63	0.162900	0.749700	0.072600
C991	C99	0.123990	0.492200	0.055400
H641	H64	0.101500	0.516800	0.077700
C1001	C100	0.234190	0.752800	0.016400
H651	H65	0.236900	0.862400	0.039500
Zn61	Zn6	0.565030	0.614450	0.034240
O211	O21	0.580560	0.447300	0.099410
O221	O22	0.584560	0.732300	0.144110
O231	O23	0.503420	0.748200	0.478060
O241	O24	0.570340	0.553900	0.471660
C1011	C101	0.585590	0.434100	0.194800
C1021	C102	0.597440	0.235100	0.198420
H661	H66	0.606800	0.172800	0.169300
C1031	C103	0.595580	0.126700	0.244460
H671	H67	0.604300	0.992800	0.246200
C1041	C104	0.580960	0.213000	0.288300
C1051	C105	0.569490	0.415200	0.284700
H681	H68	0.559800	0.477800	0.313600
C1061	C106	0.572240	0.523600	0.238880
H691	H69	0.565000	0.658800	0.237600
C1071	C107	0.583770	0.550400	0.143100
C1081	C108	0.574850	0.091700	0.335920
C1091	C109	0.604860	0.921300	0.352690
H701	H70	0.631800	0.888800	0.336500
C1101	C110	0.594980	0.799600	0.393240
H711	H71	0.615300	0.685900	0.404000
C1111	C111	0.555120	0.845100	0.418110
C1121	C112	0.526810	0.019600	0.403280
H721	H72	0.500700	0.054400	0.420400
C1131	C113	0.536970	0.141400	0.363490
H731	H73	0.518200	0.259500	0.354700
C1141	C114	0.541740	0.706900	0.458430
N61	N6	0.618930	0.821000	0.027600
C1151	C115	0.651040	0.790500	0.994810
H741	H74	0.647500	0.673300	0.974600
C1161	C116	0.688810	0.924300	0.989820
H751	H75	0.710300	0.897300	0.966600
C1171	C117	0.694980	0.100200	0.019480
C1181	C118	0.660720	0.132600	0.052540
H761	H76	0.662900	0.249700	0.072600
C1191	C119	0.623990	0.992200	0.055400
H771	H77	0.601500	0.016800	0.077700
C1201	C120	0.734190	0.252800	0.016400
H781	H78	0.736900	0.362400	0.039500
Zn71	Zn7	0.934970	0.114450	0.465760
O251	O25	0.919440	0.947300	0.400590
O261	O26	0.915440	0.232300	0.355890
O271	O27	0.996580	0.248200	0.021940
O281	O28	0.929660	0.053900	0.028340
C1211	C121	0.914410	0.934100	0.305200
C1221	C122	0.902560	0.735100	0.301580
H791	H79	0.893200	0.672800	0.330700
C1231	C123	0.904420	0.626700	0.255540
H801	H80	0.895700	0.492800	0.253800
C1241	C124	0.919040	0.713000	0.211700
C1251	C125	0.930510	0.915200	0.215300
H811	H81	0.940200	0.977800	0.186400
C1261	C126	0.927760	0.023600	0.261120
H821	H82	0.935000	0.158800	0.262400
C1271	C127	0.916230	0.050400	0.356900
C1281	C128	0.925150	0.591700	0.164080
C1291	C129	0.895140	0.421300	0.147310
H831	H83	0.868200	0.388800	0.163500
C1301	C130	0.905020	0.299600	0.106760
H841	H84	0.884700	0.185900	0.096000
C1311	C131	0.944880	0.345100	0.081890
C1321	C132	0.973190	0.519600	0.096720
H851	H85	0.999300	0.554400	0.079600
C1331	C133	0.963030	0.641400	0.136510
H861	H86	0.981800	0.759500	0.145300
C1341	C134	0.958260	0.206900	0.041570
N71	N7	0.881070	0.321000	0.472400
C1351	C135	0.848960	0.290500	0.505190
H871	H87	0.852500	0.173300	0.525400
C1361	C136	0.811190	0.424300	0.510180
H881	H88	0.789700	0.397300	0.533400
C1371	C137	0.805020	0.600200	0.480520
C1381	C138	0.839280	0.632600	0.447460
H891	H89	0.837100	0.749700	0.427400
C1391	C139	0.876010	0.492200	0.444600
H901	H90	0.898500	0.516800	0.422300
C1401	C140	0.765810	0.752800	0.483600
H911	H91	0.763100	0.862400	0.460500
Zn81	Zn8	0.434970	0.614450	0.465760
O291	O29	0.419440	0.447300	0.400590
O301	O30	0.415440	0.732300	0.355890
O311	O31	0.496580	0.748200	0.021940
O321	O32	0.429660	0.553900	0.028340
C1411	C141	0.414410	0.434100	0.305200
C1421	C142	0.402560	0.235100	0.301580
H921	H92	0.393200	0.172800	0.330700
C1431	C143	0.404420	0.126700	0.255540
H931	H93	0.395700	0.992800	0.253800
C1441	C144	0.419040	0.213000	0.211700
C1451	C145	0.430510	0.415200	0.215300
H941	H94	0.440200	0.477800	0.186400
C1461	C146	0.427760	0.523600	0.261120
H951	H95	0.435000	0.658800	0.262400
C1471	C147	0.416230	0.550400	0.356900
C1481	C148	0.425150	0.091700	0.164080
C1491	C149	0.395140	0.921300	0.147310
H961	H96	0.368200	0.888800	0.163500
C1501	C150	0.405020	0.799600	0.106760
H971	H97	0.384700	0.685900	0.096000
C1511	C151	0.444880	0.845100	0.081890
C1521	C152	0.473190	0.019600	0.096720
H981	H98	0.499300	0.054400	0.079600
C1531	C153	0.463030	0.141400	0.136510
H991	H99	0.481800	0.259500	0.145300
C1541	C154	0.458260	0.706900	0.041570
N81	N8	0.381070	0.821000	0.472400
C1551	C155	0.348960	0.790500	0.505190
H1001	H100	0.352500	0.673300	0.525400
C1561	C156	0.311190	0.924300	0.510180
H1011	H101	0.289700	0.897300	0.533400
C1571	C157	0.305020	0.100200	0.480520
C1581	C158	0.339280	0.132600	0.447460
H1021	H102	0.337100	0.249700	0.427400
C1591	C159	0.376010	0.992200	0.444600
H1031	H103	0.398500	0.016800	0.422300
C1601	C160	0.265810	0.252800	0.483600
H1041	H104	0.263100	0.362400	0.460500
