data_ICAQIO_clean_PM
_symmetry_space_group_name_H-M	'P1'
_cell_length_a	27.634000
_cell_length_b	27.634000
_cell_length_c	27.634000
_cell_angle_alpha	90.000000
_cell_angle_beta	90.000000
_cell_angle_gamma	90.000000
_symmetry_Int_Tables_number 1

loop_
_symmetry_equiv_pos_as_xyz
'x,y,z'

loop_
_atom_site_label
_atom_site_type_symbol
_atom_site_fract_x
_atom_site_fract_y
_atom_site_fract_z
Co11	Co1	0.500000	0.000000	0.701500
Co21	Co2	0.500000	0.000000	0.298500
Co31	Co3	0.701500	0.500000	0.000000
Co41	Co4	0.298500	0.500000	0.000000
Co51	Co5	0.000000	0.701500	0.500000
Co61	Co6	0.000000	0.298500	0.500000
Co71	Co7	0.500000	0.000000	0.798500
Co81	Co8	0.500000	0.000000	0.201500
Co91	Co9	0.000000	0.201500	0.500000
Co101	Co10	0.000000	0.798500	0.500000
Co111	Co11	0.201500	0.500000	0.000000
Co121	Co12	0.798500	0.500000	0.000000
H11	H1	0.388700	0.110500	0.677900
H21	H2	0.329700	0.168800	0.678000
H31	H3	0.611300	0.889500	0.677900
H41	H4	0.670300	0.831200	0.678000
H51	H5	0.611300	0.110500	0.322100
H61	H6	0.670300	0.168800	0.322000
H71	H7	0.388700	0.889500	0.322100
H81	H8	0.329700	0.831200	0.322000
H91	H9	0.677900	0.388700	0.110500
H101	H10	0.678000	0.329700	0.168800
H111	H11	0.677900	0.611300	0.889500
H121	H12	0.678000	0.670300	0.831200
H131	H13	0.322100	0.611300	0.110500
H141	H14	0.322000	0.670300	0.168800
H151	H15	0.322100	0.388700	0.889500
H161	H16	0.322000	0.329700	0.831200
H171	H17	0.110500	0.677900	0.388700
H181	H18	0.168800	0.678000	0.329700
H191	H19	0.889500	0.677900	0.611300
H201	H20	0.831200	0.678000	0.670300
H211	H21	0.110500	0.322100	0.611300
H221	H22	0.168800	0.322000	0.670300
H231	H23	0.889500	0.322100	0.388700
H241	H24	0.831200	0.322000	0.329700
H251	H25	0.610500	0.888700	0.822100
H261	H26	0.668800	0.829700	0.822000
H271	H27	0.389500	0.111300	0.822100
H281	H28	0.331200	0.170300	0.822000
H291	H29	0.610500	0.111300	0.177900
H301	H30	0.668800	0.170300	0.178000
H311	H31	0.389500	0.888700	0.177900
H321	H32	0.331200	0.829700	0.178000
H331	H33	0.888700	0.177900	0.389500
H341	H34	0.829700	0.178000	0.331200
H351	H35	0.111300	0.177900	0.610500
H361	H36	0.170300	0.178000	0.668800
H371	H37	0.111300	0.822100	0.389500
H381	H38	0.170300	0.822000	0.331200
H391	H39	0.888700	0.822100	0.610500
H401	H40	0.829700	0.822000	0.668800
H411	H41	0.177900	0.610500	0.111300
H421	H42	0.178000	0.668800	0.170300
H431	H43	0.177900	0.389500	0.888700
H441	H44	0.178000	0.331200	0.829700
H451	H45	0.822100	0.610500	0.888700
H461	H46	0.822000	0.668800	0.829700
H471	H47	0.822100	0.389500	0.111300
H481	H48	0.822000	0.331200	0.170300
H491	H49	0.611300	0.889500	0.322100
H501	H50	0.670300	0.831200	0.322000
H511	H51	0.388700	0.110500	0.322100
H521	H52	0.329700	0.168800	0.322000
H531	H53	0.388700	0.889500	0.677900
H541	H54	0.329700	0.831200	0.678000
H551	H55	0.611300	0.110500	0.677900
H561	H56	0.670300	0.168800	0.678000
H571	H57	0.322100	0.611300	0.889500
H581	H58	0.322000	0.670300	0.831200
H591	H59	0.322100	0.388700	0.110500
H601	H60	0.322000	0.329700	0.168800
H611	H61	0.677900	0.388700	0.889500
H621	H62	0.678000	0.329700	0.831200
H631	H63	0.677900	0.611300	0.110500
H641	H64	0.678000	0.670300	0.168800
H651	H65	0.889500	0.322100	0.611300
H661	H66	0.831200	0.322000	0.670300
H671	H67	0.110500	0.322100	0.388700
H681	H68	0.168800	0.322000	0.329700
H691	H69	0.889500	0.677900	0.388700
H701	H70	0.831200	0.678000	0.329700
H711	H71	0.110500	0.677900	0.611300
H721	H72	0.168800	0.678000	0.670300
H731	H73	0.389500	0.111300	0.177900
H741	H74	0.331200	0.170300	0.178000
H751	H75	0.610500	0.888700	0.177900
H761	H76	0.668800	0.829700	0.178000
H771	H77	0.389500	0.888700	0.822100
H781	H78	0.331200	0.829700	0.822000
H791	H79	0.610500	0.111300	0.822100
H801	H80	0.668800	0.170300	0.822000
H811	H81	0.111300	0.822100	0.610500
H821	H82	0.170300	0.822000	0.668800
H831	H83	0.888700	0.822100	0.389500
H841	H84	0.829700	0.822000	0.331200
H851	H85	0.888700	0.177900	0.610500
H861	H86	0.829700	0.178000	0.668800
H871	H87	0.111300	0.177900	0.389500
H881	H88	0.170300	0.178000	0.331200
H891	H89	0.822100	0.389500	0.888700
H901	H90	0.822000	0.331200	0.829700
H911	H91	0.822100	0.610500	0.111300
H921	H92	0.822000	0.668800	0.170300
H931	H93	0.177900	0.389500	0.111300
H941	H94	0.178000	0.331200	0.170300
H951	H95	0.177900	0.610500	0.888700
H961	H96	0.178000	0.668800	0.829700
H971	H97	0.250000	0.190800	0.690800
H981	H98	0.750000	0.809200	0.690800
H991	H99	0.750000	0.190800	0.309200
H1001	H100	0.250000	0.809200	0.309200
H1011	H101	0.690800	0.250000	0.190800
H1021	H102	0.690800	0.750000	0.809200
H1031	H103	0.309200	0.750000	0.190800
H1041	H104	0.309200	0.250000	0.809200
H1051	H105	0.190800	0.690800	0.250000
H1061	H106	0.809200	0.690800	0.750000
H1071	H107	0.190800	0.309200	0.750000
H1081	H108	0.809200	0.309200	0.250000
H1091	H109	0.750000	0.809200	0.309200
H1101	H110	0.250000	0.190800	0.309200
H1111	H111	0.250000	0.809200	0.690800
H1121	H112	0.750000	0.190800	0.690800
H1131	H113	0.309200	0.750000	0.809200
H1141	H114	0.309200	0.250000	0.190800
H1151	H115	0.690800	0.250000	0.809200
H1161	H116	0.690800	0.750000	0.190800
H1171	H117	0.809200	0.309200	0.750000
H1181	H118	0.190800	0.309200	0.250000
H1191	H119	0.809200	0.690800	0.250000
H1201	H120	0.190800	0.690800	0.750000
H1211	H121	0.429200	0.000000	0.537800
H1221	H122	0.432500	0.000000	0.618900
H1231	H123	0.570800	0.000000	0.537800
H1241	H124	0.567500	0.000000	0.618900
H1251	H125	0.570800	0.000000	0.462200
H1261	H126	0.567500	0.000000	0.381100
H1271	H127	0.429200	0.000000	0.462200
H1281	H128	0.432500	0.000000	0.381100
H1291	H129	0.537800	0.429200	0.000000
H1301	H130	0.618900	0.432500	0.000000
H1311	H131	0.537800	0.570800	0.000000
H1321	H132	0.618900	0.567500	0.000000
H1331	H133	0.462200	0.570800	0.000000
H1341	H134	0.381100	0.567500	0.000000
H1351	H135	0.462200	0.429200	0.000000
H1361	H136	0.381100	0.432500	0.000000
H1371	H137	0.000000	0.537800	0.429200
H1381	H138	0.000000	0.618900	0.432500
H1391	H139	0.000000	0.537800	0.570800
H1401	H140	0.000000	0.618900	0.567500
H1411	H141	0.000000	0.462200	0.570800
H1421	H142	0.000000	0.381100	0.567500
H1431	H143	0.000000	0.462200	0.429200
H1441	H144	0.000000	0.381100	0.432500
H1451	H145	0.500000	0.929200	0.962200
H1461	H146	0.500000	0.932500	0.881100
H1471	H147	0.500000	0.070800	0.962200
H1481	H148	0.500000	0.067500	0.881100
H1491	H149	0.500000	0.070800	0.037800
H1501	H150	0.500000	0.067500	0.118900
H1511	H151	0.500000	0.929200	0.037800
H1521	H152	0.500000	0.932500	0.118900
H1531	H153	0.929200	0.037800	0.500000
H1541	H154	0.932500	0.118900	0.500000
H1551	H155	0.070800	0.037800	0.500000
H1561	H156	0.067500	0.118900	0.500000
H1571	H157	0.070800	0.962200	0.500000
H1581	H158	0.067500	0.881100	0.500000
H1591	H159	0.929200	0.962200	0.500000
H1601	H160	0.932500	0.881100	0.500000
H1611	H161	0.037800	0.500000	0.070800
H1621	H162	0.118900	0.500000	0.067500
H1631	H163	0.037800	0.500000	0.929200
H1641	H164	0.118900	0.500000	0.932500
H1651	H165	0.962200	0.500000	0.929200
H1661	H166	0.881100	0.500000	0.932500
H1671	H167	0.962200	0.500000	0.070800
H1681	H168	0.881100	0.500000	0.067500
C11	C1	0.377070	0.122350	0.707140
C21	C2	0.341740	0.157420	0.707260
C31	C3	0.622930	0.877650	0.707140
C41	C4	0.658260	0.842580	0.707260
C51	C5	0.622930	0.122350	0.292860
C61	C6	0.658260	0.157420	0.292740
C71	C7	0.377070	0.877650	0.292860
C81	C8	0.341740	0.842580	0.292740
C91	C9	0.707140	0.377070	0.122350
C101	C10	0.707260	0.341740	0.157420
C111	C11	0.707140	0.622930	0.877650
C121	C12	0.707260	0.658260	0.842580
C131	C13	0.292860	0.622930	0.122350
C141	C14	0.292740	0.658260	0.157420
C151	C15	0.292860	0.377070	0.877650
C161	C16	0.292740	0.341740	0.842580
C171	C17	0.122350	0.707140	0.377070
C181	C18	0.157420	0.707260	0.341740
C191	C19	0.877650	0.707140	0.622930
C201	C20	0.842580	0.707260	0.658260
C211	C21	0.122350	0.292860	0.622930
C221	C22	0.157420	0.292740	0.658260
C231	C23	0.877650	0.292860	0.377070
C241	C24	0.842580	0.292740	0.341740
C251	C25	0.622350	0.877070	0.792860
C261	C26	0.657420	0.841740	0.792740
C271	C27	0.377650	0.122930	0.792860
C281	C28	0.342580	0.158260	0.792740
C291	C29	0.622350	0.122930	0.207140
C301	C30	0.657420	0.158260	0.207260
C311	C31	0.377650	0.877070	0.207140
C321	C32	0.342580	0.841740	0.207260
C331	C33	0.877070	0.207140	0.377650
C341	C34	0.841740	0.207260	0.342580
C351	C35	0.122930	0.207140	0.622350
C361	C36	0.158260	0.207260	0.657420
C371	C37	0.122930	0.792860	0.377650
C381	C38	0.158260	0.792740	0.342580
C391	C39	0.877070	0.792860	0.622350
C401	C40	0.841740	0.792740	0.657420
C411	C41	0.207140	0.622350	0.122930
C421	C42	0.207260	0.657420	0.158260
C431	C43	0.207140	0.377650	0.877070
C441	C44	0.207260	0.342580	0.841740
C451	C45	0.792860	0.622350	0.877070
C461	C46	0.792740	0.657420	0.841740
C471	C47	0.792860	0.377650	0.122930
C481	C48	0.792740	0.342580	0.158260
C491	C49	0.622930	0.877650	0.292860
C501	C50	0.658260	0.842580	0.292740
C511	C51	0.377070	0.122350	0.292860
C521	C52	0.341740	0.157420	0.292740
C531	C53	0.377070	0.877650	0.707140
C541	C54	0.341740	0.842580	0.707260
C551	C55	0.622930	0.122350	0.707140
C561	C56	0.658260	0.157420	0.707260
C571	C57	0.292860	0.622930	0.877650
C581	C58	0.292740	0.658260	0.842580
C591	C59	0.292860	0.377070	0.122350
C601	C60	0.292740	0.341740	0.157420
C611	C61	0.707140	0.377070	0.877650
C621	C62	0.707260	0.341740	0.842580
C631	C63	0.707140	0.622930	0.122350
C641	C64	0.707260	0.658260	0.157420
C651	C65	0.877650	0.292860	0.622930
C661	C66	0.842580	0.292740	0.658260
C671	C67	0.122350	0.292860	0.377070
C681	C68	0.157420	0.292740	0.341740
C691	C69	0.877650	0.707140	0.377070
C701	C70	0.842580	0.707260	0.341740
C711	C71	0.122350	0.707140	0.622930
C721	C72	0.157420	0.707260	0.658260
C731	C73	0.377650	0.122930	0.207140
C741	C74	0.342580	0.158260	0.207260
C751	C75	0.622350	0.877070	0.207140
C761	C76	0.657420	0.841740	0.207260
C771	C77	0.377650	0.877070	0.792860
C781	C78	0.342580	0.841740	0.792740
C791	C79	0.622350	0.122930	0.792860
C801	C80	0.657420	0.158260	0.792740
C811	C81	0.122930	0.792860	0.622350
C821	C82	0.158260	0.792740	0.657420
C831	C83	0.877070	0.792860	0.377650
C841	C84	0.841740	0.792740	0.342580
C851	C85	0.877070	0.207140	0.622350
C861	C86	0.841740	0.207260	0.657420
C871	C87	0.122930	0.207140	0.377650
C881	C88	0.158260	0.207260	0.342580
C891	C89	0.792860	0.377650	0.877070
C901	C90	0.792740	0.342580	0.841740
C911	C91	0.792860	0.622350	0.122930
C921	C92	0.792740	0.657420	0.158260
C931	C93	0.207140	0.377650	0.122930
C941	C94	0.207260	0.342580	0.158260
C951	C95	0.207140	0.622350	0.877070
C961	C96	0.207260	0.657420	0.841740
C971	C97	0.500000	0.000000	0.526940
C981	C98	0.500000	0.000000	0.473060
C991	C99	0.526940	0.500000	0.000000
C1001	C100	0.473060	0.500000	0.000000
C1011	C101	0.000000	0.526940	0.500000
C1021	C102	0.000000	0.473060	0.500000
C1031	C103	0.500000	0.000000	0.973060
C1041	C104	0.500000	0.000000	0.026940
C1051	C105	0.000000	0.026940	0.500000
C1061	C106	0.000000	0.973060	0.500000
C1071	C107	0.026940	0.500000	0.000000
C1081	C108	0.973060	0.500000	0.000000
C1091	C109	0.433970	0.066030	0.750000
C1101	C110	0.395490	0.104510	0.750000
C1111	C111	0.323890	0.176110	0.750000
C1121	C112	0.285950	0.214050	0.750000
C1131	C113	0.566030	0.933970	0.750000
C1141	C114	0.604510	0.895490	0.750000
C1151	C115	0.676110	0.823890	0.750000
C1161	C116	0.714050	0.785950	0.750000
C1171	C117	0.566030	0.066030	0.250000
C1181	C118	0.604510	0.104510	0.250000
C1191	C119	0.676110	0.176110	0.250000
C1201	C120	0.714050	0.214050	0.250000
C1211	C121	0.433970	0.933970	0.250000
C1221	C122	0.395490	0.895490	0.250000
C1231	C123	0.323890	0.823890	0.250000
C1241	C124	0.285950	0.785950	0.250000
C1251	C125	0.750000	0.433970	0.066030
C1261	C126	0.750000	0.395490	0.104510
C1271	C127	0.750000	0.323890	0.176110
C1281	C128	0.750000	0.285950	0.214050
C1291	C129	0.750000	0.566030	0.933970
C1301	C130	0.750000	0.604510	0.895490
C1311	C131	0.750000	0.676110	0.823890
C1321	C132	0.750000	0.714050	0.785950
C1331	C133	0.250000	0.566030	0.066030
C1341	C134	0.250000	0.604510	0.104510
C1351	C135	0.250000	0.676110	0.176110
C1361	C136	0.250000	0.714050	0.214050
C1371	C137	0.250000	0.433970	0.933970
C1381	C138	0.250000	0.395490	0.895490
C1391	C139	0.250000	0.323890	0.823890
C1401	C140	0.250000	0.285950	0.785950
C1411	C141	0.066030	0.750000	0.433970
C1421	C142	0.104510	0.750000	0.395490
C1431	C143	0.176110	0.750000	0.323890
C1441	C144	0.214050	0.750000	0.285950
C1451	C145	0.933970	0.750000	0.566030
C1461	C146	0.895490	0.750000	0.604510
C1471	C147	0.823890	0.750000	0.676110
C1481	C148	0.785950	0.750000	0.714050
C1491	C149	0.066030	0.250000	0.566030
C1501	C150	0.104510	0.250000	0.604510
C1511	C151	0.176110	0.250000	0.676110
C1521	C152	0.214050	0.250000	0.714050
C1531	C153	0.933970	0.250000	0.433970
C1541	C154	0.895490	0.250000	0.395490
C1551	C155	0.823890	0.250000	0.323890
C1561	C156	0.785950	0.250000	0.285950
C1571	C157	0.566030	0.933970	0.250000
C1581	C158	0.604510	0.895490	0.250000
C1591	C159	0.676110	0.823890	0.250000
C1601	C160	0.714050	0.785950	0.250000
C1611	C161	0.433970	0.066030	0.250000
C1621	C162	0.395490	0.104510	0.250000
C1631	C163	0.323890	0.176110	0.250000
C1641	C164	0.285950	0.214050	0.250000
C1651	C165	0.433970	0.933970	0.750000
C1661	C166	0.395490	0.895490	0.750000
C1671	C167	0.323890	0.823890	0.750000
C1681	C168	0.285950	0.785950	0.750000
C1691	C169	0.566030	0.066030	0.750000
C1701	C170	0.604510	0.104510	0.750000
C1711	C171	0.676110	0.176110	0.750000
C1721	C172	0.714050	0.214050	0.750000
C1731	C173	0.250000	0.566030	0.933970
C1741	C174	0.250000	0.604510	0.895490
C1751	C175	0.250000	0.676110	0.823890
C1761	C176	0.250000	0.714050	0.785950
C1771	C177	0.250000	0.433970	0.066030
C1781	C178	0.250000	0.395490	0.104510
C1791	C179	0.250000	0.323890	0.176110
C1801	C180	0.250000	0.285950	0.214050
C1811	C181	0.750000	0.433970	0.933970
C1821	C182	0.750000	0.395490	0.895490
C1831	C183	0.750000	0.323890	0.823890
C1841	C184	0.750000	0.285950	0.785950
C1851	C185	0.750000	0.566030	0.066030
C1861	C186	0.750000	0.604510	0.104510
C1871	C187	0.750000	0.676110	0.176110
C1881	C188	0.750000	0.714050	0.214050
C1891	C189	0.933970	0.250000	0.566030
C1901	C190	0.895490	0.250000	0.604510
C1911	C191	0.823890	0.250000	0.676110
C1921	C192	0.785950	0.250000	0.714050
C1931	C193	0.066030	0.250000	0.433970
C1941	C194	0.104510	0.250000	0.395490
C1951	C195	0.176110	0.250000	0.323890
C1961	C196	0.214050	0.250000	0.285950
C1971	C197	0.933970	0.750000	0.433970
C1981	C198	0.895490	0.750000	0.395490
C1991	C199	0.823890	0.750000	0.323890
C2001	C200	0.785950	0.750000	0.285950
C2011	C201	0.066030	0.750000	0.566030
C2021	C202	0.104510	0.750000	0.604510
C2031	C203	0.176110	0.750000	0.676110
C2041	C204	0.214050	0.750000	0.714050
C2051	C205	0.250000	0.214600	0.714600
C2061	C206	0.750000	0.785400	0.714600
C2071	C207	0.750000	0.214600	0.285400
C2081	C208	0.250000	0.785400	0.285400
C2091	C209	0.714600	0.250000	0.214600
C2101	C210	0.714600	0.750000	0.785400
C2111	C211	0.285400	0.750000	0.214600
C2121	C212	0.285400	0.250000	0.785400
C2131	C213	0.214600	0.714600	0.250000
C2141	C214	0.785400	0.714600	0.750000
C2151	C215	0.214600	0.285400	0.750000
C2161	C216	0.785400	0.285400	0.250000
C2171	C217	0.750000	0.785400	0.285400
C2181	C218	0.250000	0.214600	0.285400
C2191	C219	0.250000	0.785400	0.714600
C2201	C220	0.750000	0.214600	0.714600
C2211	C221	0.285400	0.750000	0.785400
C2221	C222	0.285400	0.250000	0.214600
C2231	C223	0.714600	0.250000	0.785400
C2241	C224	0.714600	0.750000	0.214600
C2251	C225	0.785400	0.285400	0.750000
C2261	C226	0.214600	0.285400	0.250000
C2271	C227	0.785400	0.714600	0.250000
C2281	C228	0.214600	0.714600	0.750000
C2291	C229	0.459100	0.000000	0.553100
C2301	C230	0.461700	0.000000	0.602130
C2311	C231	0.540900	0.000000	0.553100
C2321	C232	0.538300	0.000000	0.602130
C2331	C233	0.540900	0.000000	0.446900
C2341	C234	0.538300	0.000000	0.397870
C2351	C235	0.459100	0.000000	0.446900
C2361	C236	0.461700	0.000000	0.397870
C2371	C237	0.553100	0.459100	0.000000
C2381	C238	0.602130	0.461700	0.000000
C2391	C239	0.553100	0.540900	0.000000
C2401	C240	0.602130	0.538300	0.000000
C2411	C241	0.446900	0.540900	0.000000
C2421	C242	0.397870	0.538300	0.000000
C2431	C243	0.446900	0.459100	0.000000
C2441	C244	0.397870	0.461700	0.000000
C2451	C245	0.000000	0.553100	0.459100
C2461	C246	0.000000	0.602130	0.461700
C2471	C247	0.000000	0.553100	0.540900
C2481	C248	0.000000	0.602130	0.538300
C2491	C249	0.000000	0.446900	0.540900
C2501	C250	0.000000	0.397870	0.538300
C2511	C251	0.000000	0.446900	0.459100
C2521	C252	0.000000	0.397870	0.461700
C2531	C253	0.500000	0.959100	0.946900
C2541	C254	0.500000	0.961700	0.897870
C2551	C255	0.500000	0.040900	0.946900
C2561	C256	0.500000	0.038300	0.897870
C2571	C257	0.500000	0.040900	0.053100
C2581	C258	0.500000	0.038300	0.102130
C2591	C259	0.500000	0.959100	0.053100
C2601	C260	0.500000	0.961700	0.102130
C2611	C261	0.959100	0.053100	0.500000
C2621	C262	0.961700	0.102130	0.500000
C2631	C263	0.040900	0.053100	0.500000
C2641	C264	0.038300	0.102130	0.500000
C2651	C265	0.040900	0.946900	0.500000
C2661	C266	0.038300	0.897870	0.500000
C2671	C267	0.959100	0.946900	0.500000
C2681	C268	0.961700	0.897870	0.500000
C2691	C269	0.053100	0.500000	0.040900
C2701	C270	0.102130	0.500000	0.038300
C2711	C271	0.053100	0.500000	0.959100
C2721	C272	0.102130	0.500000	0.961700
C2731	C273	0.946900	0.500000	0.959100
C2741	C274	0.897870	0.500000	0.961700
C2751	C275	0.946900	0.500000	0.040900
C2761	C276	0.897870	0.500000	0.038300
N11	N1	0.500000	0.000000	0.627300
N21	N2	0.500000	0.000000	0.372700
N31	N3	0.627300	0.500000	0.000000
N41	N4	0.372700	0.500000	0.000000
N51	N5	0.000000	0.627300	0.500000
N61	N6	0.000000	0.372700	0.500000
N71	N7	0.500000	0.000000	0.872700
N81	N8	0.500000	0.000000	0.127300
N91	N9	0.000000	0.127300	0.500000
N101	N10	0.000000	0.872700	0.500000
N111	N11	0.127300	0.500000	0.000000
N121	N12	0.872700	0.500000	0.000000
O11	O1	0.448400	0.051380	0.709860
O21	O2	0.551600	0.948620	0.709860
O31	O3	0.551600	0.051380	0.290140
O41	O4	0.448400	0.948620	0.290140
O51	O5	0.709860	0.448400	0.051380
O61	O6	0.709860	0.551600	0.948620
O71	O7	0.290140	0.551600	0.051380
O81	O8	0.290140	0.448400	0.948620
O91	O9	0.051380	0.709860	0.448400
O101	O10	0.948620	0.709860	0.551600
O111	O11	0.051380	0.290140	0.551600
O121	O12	0.948620	0.290140	0.448400
O131	O13	0.551380	0.948400	0.790140
O141	O14	0.448620	0.051600	0.790140
O151	O15	0.551380	0.051600	0.209860
O161	O16	0.448620	0.948400	0.209860
O171	O17	0.948400	0.209860	0.448620
O181	O18	0.051600	0.209860	0.551380
O191	O19	0.051600	0.790140	0.448620
O201	O20	0.948400	0.790140	0.551380
O211	O21	0.209860	0.551380	0.051600
O221	O22	0.209860	0.448620	0.948400
O231	O23	0.790140	0.551380	0.948400
O241	O24	0.790140	0.448620	0.051600
O251	O25	0.551600	0.948620	0.290140
O261	O26	0.448400	0.051380	0.290140
O271	O27	0.448400	0.948620	0.709860
O281	O28	0.551600	0.051380	0.709860
O291	O29	0.290140	0.551600	0.948620
O301	O30	0.290140	0.448400	0.051380
O311	O31	0.709860	0.448400	0.948620
O321	O32	0.709860	0.551600	0.051380
O331	O33	0.948620	0.290140	0.551600
O341	O34	0.051380	0.290140	0.448400
O351	O35	0.948620	0.709860	0.448400
O361	O36	0.051380	0.709860	0.551600
O371	O37	0.448620	0.051600	0.209860
O381	O38	0.551380	0.948400	0.209860
O391	O39	0.448620	0.948400	0.790140
O401	O40	0.551380	0.051600	0.790140
O411	O41	0.051600	0.790140	0.551380
O421	O42	0.948400	0.790140	0.448620
O431	O43	0.948400	0.209860	0.551380
O441	O44	0.051600	0.209860	0.448620
O451	O45	0.790140	0.448620	0.948400
O461	O46	0.790140	0.551380	0.051600
O471	O47	0.209860	0.448620	0.051600
O481	O48	0.209860	0.551380	0.948400
