data_ICAWUF_clean_PM
_symmetry_space_group_name_H-M	'P1'
_cell_length_a	6.701700
_cell_length_b	19.065800
_cell_length_c	65.539700
_cell_angle_alpha	89.485300
_cell_angle_beta	87.069900
_cell_angle_gamma	79.877500
_symmetry_Int_Tables_number 1

loop_
_symmetry_equiv_pos_as_xyz
'x,y,z'

loop_
_atom_site_label
_atom_site_type_symbol
_atom_site_fract_x
_atom_site_fract_y
_atom_site_fract_z
Cd11	Cd1	0.848390	0.602540	0.831280
Cd21	Cd2	0.336950	0.650140	0.859360
Cd31	Cd3	0.282210	0.397460	0.168720
Cd41	Cd4	0.846450	0.349860	0.140640
Cd51	Cd5	0.429670	0.102540	0.668720
Cd61	Cd6	0.946310	0.150140	0.640640
Cd71	Cd7	0.200930	0.897460	0.331280
Cd81	Cd8	0.737090	0.849860	0.359360
Cd91	Cd9	0.014300	0.000000	0.000000
Cd101	Cd10	0.764300	0.500000	0.500000
H11	H1	0.036200	0.027600	0.678400
H21	H2	0.854700	0.985800	0.702800
H31	H3	0.229300	0.037200	0.742600
H41	H4	0.388800	0.094000	0.717400
H51	H5	0.990800	0.960800	0.754800
H61	H6	0.717200	0.935400	0.727600
H71	H7	0.449900	0.874000	0.737400
H81	H8	0.298600	0.804400	0.760200
H91	H9	0.725000	0.814800	0.799800
H101	H10	0.871500	0.889200	0.777800
H111	H11	0.449600	0.756200	0.810600
H121	H12	0.189600	0.729800	0.782000
H131	H13	0.009100	0.060000	0.955400
H141	H14	0.807500	0.137400	0.934400
H151	H15	0.335300	0.142200	0.975200
H161	H16	0.543600	0.059600	0.993400
H171	H17	0.479700	0.215800	0.927200
H181	H18	0.176500	0.218200	0.955600
H191	H19	0.304900	0.292600	0.907000
H201	H20	0.095400	0.380800	0.889800
H211	H21	0.651700	0.381400	0.932400
H221	H22	0.863700	0.298200	0.951600
H231	H23	0.621600	0.475800	0.908400
H241	H24	0.874200	0.460200	0.874200
H251	H25	0.819000	0.121400	0.756400
H261	H26	0.641200	0.045200	0.773800
H271	H27	0.198400	0.204000	0.785600
H281	H28	0.352300	0.275000	0.766600
H291	H29	0.386800	0.013200	0.793000
H301	H30	0.052700	0.109200	0.801600
H311	H31	0.261800	0.924800	0.813400
H321	H32	0.079400	0.850200	0.829400
H331	H33	0.581100	0.005200	0.833800
H341	H34	0.783700	0.082800	0.819600
H351	H35	0.556400	0.889200	0.847800
H361	H36	0.862100	0.777400	0.839000
H371	H37	0.017200	0.600400	0.890200
H381	H38	0.709200	0.638200	0.907200
H391	H39	0.792700	0.836600	0.895800
H401	H40	0.087000	0.794000	0.877400
H411	H41	0.504700	0.824000	0.918600
H421	H42	0.407300	0.692600	0.920600
H431	H43	0.094700	0.689000	0.941400
H441	H44	0.795600	0.742600	0.959600
H451	H45	0.910900	0.932400	0.940000
H461	H46	0.211000	0.878600	0.924800
H471	H47	0.600900	0.936400	0.957200
H481	H48	0.490800	0.812200	0.970400
H491	H49	0.742200	0.972400	0.321600
H501	H50	0.543300	0.014200	0.297200
H511	H51	0.009100	0.962800	0.257400
H521	H52	0.200200	0.906000	0.282600
H531	H53	0.706400	0.039200	0.245200
H541	H54	0.380200	0.064600	0.272400
H551	H55	0.061300	0.126000	0.262600
H561	H56	0.863200	0.195600	0.239800
H571	H57	0.339600	0.185200	0.200200
H581	H58	0.538500	0.110800	0.222200
H591	H59	0.016400	0.243800	0.189400
H601	H60	0.701400	0.270200	0.218000
H611	H61	0.024500	0.940000	0.044600
H621	H62	0.879300	0.862600	0.065600
H631	H63	0.452700	0.857800	0.024800
H641	H64	0.596600	0.940400	0.006600
H651	H65	0.622700	0.784200	0.072800
H661	H66	0.350300	0.781800	0.044400
H671	H67	0.504500	0.707400	0.093000
H681	H68	0.366000	0.619200	0.110200
H691	H69	0.965500	0.618600	0.067600
H701	H70	0.113500	0.701800	0.048400
H711	H71	0.005800	0.524200	0.091600
H721	H72	0.208600	0.539800	0.125800
H731	H73	0.696800	0.878600	0.243600
H741	H74	0.460200	0.954800	0.226200
H751	H75	0.188000	0.796000	0.214400
H761	H76	0.393900	0.725000	0.233400
H771	H77	0.193000	0.986800	0.207000
H781	H78	0.963500	0.890800	0.198400
H791	H79	0.000000	0.075200	0.186600
H801	H80	0.759000	0.149800	0.170600
H811	H81	0.420100	0.994800	0.166200
H821	H82	0.686100	0.917200	0.180400
H831	H83	0.293400	0.110800	0.152200
H841	H84	0.478500	0.222600	0.161000
H851	H85	0.507800	0.399600	0.109800
H861	H86	0.254600	0.361800	0.092800
H871	H87	0.525100	0.163400	0.104200
H881	H88	0.758400	0.206000	0.122600
H891	H89	0.247300	0.176000	0.081400
H901	H90	0.020500	0.307400	0.079400
H911	H91	0.725100	0.311000	0.058600
H921	H92	0.497800	0.257400	0.040400
H931	H93	0.783300	0.067600	0.060000
H941	H94	0.014400	0.121400	0.075200
H951	H95	0.494500	0.063600	0.042800
H961	H96	0.273400	0.187800	0.029600
H971	H97	0.464600	0.527600	0.821600
H981	H98	0.307500	0.485800	0.797200
H991	H99	0.721900	0.537200	0.757400
H1001	H100	0.856200	0.594000	0.782600
H1011	H101	0.495600	0.460800	0.745200
H1021	H102	0.194800	0.435400	0.772400
H1031	H103	0.937300	0.374000	0.762600
H1041	H104	0.808800	0.304400	0.739800
H1051	H105	0.274800	0.314800	0.700200
H1061	H106	0.399300	0.389200	0.722200
H1071	H107	0.010200	0.256200	0.689400
H1081	H108	0.721600	0.229800	0.718000
H1091	H109	0.714500	0.560000	0.544600
H1101	H110	0.491900	0.637400	0.565600
H1111	H111	0.060500	0.642200	0.524800
H1121	H112	0.287000	0.559600	0.506600
H1131	H113	0.156900	0.715800	0.572800
H1141	H114	0.882100	0.718200	0.544400
H1151	H115	0.961900	0.792600	0.593000
H1161	H116	0.735200	0.880800	0.610200
H1171	H117	0.334100	0.881400	0.567600
H1181	H118	0.565300	0.798200	0.548400
H1191	H119	0.280000	0.975800	0.591600
H1201	H120	0.498400	0.960200	0.625800
H1211	H121	0.325400	0.621400	0.743600
H1221	H122	0.165000	0.545200	0.726200
H1231	H123	0.734000	0.704000	0.714400
H1241	H124	0.868900	0.775000	0.733400
H1251	H125	0.929800	0.513200	0.707000
H1261	H126	0.604300	0.609200	0.698400
H1271	H127	0.825200	0.424800	0.686600
H1281	H128	0.658800	0.350200	0.670600
H1291	H129	0.164900	0.505200	0.666200
H1301	H130	0.353300	0.582800	0.680400
H1311	H131	0.154200	0.389200	0.652200
H1321	H132	0.451100	0.277400	0.661000
H1331	H133	0.657400	0.100400	0.609800
H1341	H134	0.366400	0.138200	0.592800
H1351	H135	0.438500	0.336600	0.604200
H1361	H136	0.714400	0.294000	0.622600
H1371	H137	0.173300	0.324000	0.581400
H1381	H138	0.077900	0.192600	0.579400
H1391	H139	0.786100	0.189000	0.558600
H1401	H140	0.505200	0.242600	0.540400
H1411	H141	0.600900	0.432400	0.560000
H1421	H142	0.885800	0.378600	0.575200
H1431	H143	0.308100	0.436400	0.542800
H1441	H144	0.211200	0.312200	0.529600
H1451	H145	0.813800	0.472400	0.178400
H1461	H146	0.590500	0.514200	0.202800
H1471	H147	0.016500	0.462800	0.242600
H1481	H148	0.232800	0.406000	0.217400
H1491	H149	0.701600	0.539200	0.254800
H1501	H150	0.402600	0.564600	0.227600
H1511	H151	0.073900	0.626000	0.237400
H1521	H152	0.853000	0.695600	0.260200
H1531	H153	0.289800	0.685200	0.299800
H1541	H154	0.510700	0.610800	0.277800
H1551	H155	0.955800	0.743800	0.310600
H1561	H156	0.669400	0.770200	0.282000
H1571	H157	0.819100	0.440000	0.455400
H1581	H158	0.694900	0.362600	0.434400
H1591	H159	0.227500	0.357800	0.475200
H1601	H160	0.353200	0.440400	0.493400
H1611	H161	0.445500	0.284200	0.427200
H1621	H162	0.144700	0.281800	0.455600
H1631	H163	0.347500	0.207400	0.407000
H1641	H164	0.226200	0.119200	0.389800
H1651	H165	0.783100	0.118600	0.432400
H1661	H166	0.911900	0.201800	0.451600
H1671	H167	0.847400	0.024200	0.408400
H1681	H168	0.084400	0.039800	0.374200
H1691	H169	0.690400	0.378600	0.256400
H1701	H170	0.436400	0.454800	0.273800
H1711	H171	0.152400	0.296000	0.285600
H1721	H172	0.377300	0.225000	0.266600
H1731	H173	0.150000	0.486800	0.293000
H1741	H174	0.911900	0.390800	0.301600
H1751	H175	0.936600	0.575200	0.313400
H1761	H176	0.679600	0.649800	0.329400
H1771	H177	0.336300	0.494800	0.333800
H1781	H178	0.616500	0.417200	0.319600
H1791	H179	0.195600	0.610800	0.347800
H1801	H180	0.389500	0.722600	0.339000
H1811	H181	0.367600	0.899600	0.390200
H1821	H182	0.097400	0.861800	0.407200
H1831	H183	0.379300	0.663400	0.395800
H1841	H184	0.631000	0.706000	0.377400
H1851	H185	0.078700	0.676000	0.418600
H1861	H186	0.849900	0.807400	0.420600
H1871	H187	0.533700	0.811000	0.441400
H1881	H188	0.288200	0.757400	0.459600
H1891	H189	0.593300	0.567600	0.440000
H1901	H190	0.839600	0.621400	0.424800
H1911	H191	0.287300	0.563600	0.457200
H1921	H192	0.053000	0.687800	0.470400
C11	C1	0.073090	0.032000	0.691820
C21	C2	0.970240	0.003400	0.706120
C31	C3	0.028540	0.999200	0.725720
C41	C4	0.187340	0.036000	0.729320
C51	C5	0.284950	0.069800	0.714300
C61	C6	0.934780	0.962400	0.742040
C71	C7	0.774610	0.930600	0.740180
C81	C8	0.676760	0.889000	0.755480
C91	C9	0.503350	0.863200	0.750100
C101	C10	0.414380	0.821600	0.763640
C111	C11	0.492370	0.805000	0.782260
C121	C12	0.668110	0.828400	0.787380
C131	C13	0.757010	0.871800	0.774180
C141	C14	0.395590	0.761000	0.797820
C151	C15	0.241960	0.729200	0.794880
C161	C16	0.149300	0.691000	0.812400
C171	C17	0.873750	0.077200	0.959300
C181	C18	0.752660	0.123800	0.946880
C191	C19	0.550360	0.151000	0.952280
C201	C20	0.469360	0.126600	0.970680
C211	C21	0.598820	0.078600	0.981760
C221	C22	0.419870	0.202800	0.939460
C231	C23	0.235440	0.231800	0.943320
C241	C24	0.097990	0.285400	0.930620
C251	C25	0.174370	0.311000	0.912260
C261	C26	0.049590	0.364600	0.902220
C271	C27	0.861980	0.394000	0.910040
C281	C28	0.786290	0.365600	0.927820
C291	C29	0.908800	0.313400	0.939000
C301	C30	0.733030	0.453400	0.900540
C311	C31	0.757450	0.479200	0.881900
C321	C32	0.612880	0.535800	0.872440
C331	C33	0.687400	0.137600	0.761600
C341	C34	0.580400	0.092600	0.772600
C351	C35	0.388500	0.113000	0.782000
C361	C36	0.321200	0.184400	0.779200
C371	C37	0.414200	0.227600	0.768000
C381	C38	0.305600	0.058000	0.792800
C391	C39	0.131900	0.064000	0.802200
C401	C40	0.039800	0.013000	0.813400
C411	C41	0.126600	0.941400	0.817400
C421	C42	0.018110	0.896800	0.826980
C431	C43	0.810200	0.920200	0.833400
C441	C44	0.717300	0.989400	0.830000
C451	C45	0.840200	0.034800	0.820800
C461	C46	0.684230	0.869200	0.842340
C471	C47	0.731530	0.799600	0.843340
C481	C48	0.580990	0.754800	0.851220
C491	C49	0.966210	0.649000	0.890580
C501	C50	0.783670	0.671200	0.901460
C511	C51	0.715360	0.743600	0.903680
C521	C52	0.832980	0.787600	0.894440
C531	C53	0.010280	0.762200	0.883240
C541	C54	0.524410	0.775400	0.915780
C551	C55	0.385950	0.741600	0.922500
C561	C56	0.192880	0.777000	0.933240
C571	C57	0.061790	0.738400	0.942020
C581	C58	0.876080	0.769600	0.952240
C591	C59	0.818820	0.848000	0.950360
C601	C60	0.946000	0.883200	0.940800
C611	C61	0.128600	0.851000	0.931800
C621	C62	0.624760	0.887400	0.959080
C631	C63	0.482810	0.861200	0.969180
C641	C64	0.308020	0.909200	0.978760
C651	C65	0.796910	0.968000	0.308180
C661	C66	0.679760	0.996600	0.293880
C671	C67	0.753460	0.000800	0.274280
C681	C68	0.952660	0.964000	0.270680
C691	C69	0.069050	0.930200	0.285700
C701	C70	0.639220	0.037600	0.257960
C711	C71	0.445390	0.069400	0.259820
C721	C72	0.321240	0.111000	0.244520
C731	C73	0.116650	0.136800	0.249900
C741	C74	0.999620	0.178400	0.236360
C751	C75	0.079630	0.195000	0.217740
C761	C76	0.283890	0.171600	0.212620
C771	C77	0.402990	0.128200	0.225820
C781	C78	0.954410	0.239000	0.202180
C791	C79	0.766040	0.270800	0.205120
C801	C80	0.652700	0.309000	0.187600
C811	C81	0.910250	0.922800	0.040700
C821	C82	0.823340	0.876200	0.053120
C831	C83	0.653640	0.849000	0.047720
C841	C84	0.566640	0.873400	0.029320
C851	C85	0.659180	0.921400	0.018240
C861	C86	0.562130	0.797200	0.060540
C871	C87	0.410560	0.768200	0.056680
C881	C88	0.314010	0.714600	0.069380
C891	C89	0.397630	0.689000	0.087740
C901	C90	0.316410	0.635400	0.097780
C911	C91	0.166020	0.606000	0.089960
C921	C92	0.079710	0.634400	0.072180
C931	C93	0.161200	0.686600	0.061000
C941	C94	0.086970	0.546600	0.099460
C951	C95	0.118550	0.520800	0.118100
C961	C96	0.021120	0.464200	0.127560
C971	C97	0.586600	0.862400	0.238400
C981	C98	0.445600	0.907400	0.227400
C991	C99	0.283500	0.887000	0.218000
C1001	C100	0.284800	0.815600	0.220800
C1011	C101	0.409800	0.772400	0.232000
C1021	C102	0.156400	0.942000	0.207200
C1031	C103	0.998100	0.936000	0.197800
C1041	C104	0.866200	0.987000	0.186600
C1051	C105	0.885400	0.058600	0.182600
C1061	C106	0.741890	0.103200	0.173020
C1071	C107	0.563800	0.079800	0.166600
C1081	C108	0.536700	0.010600	0.170000
C1091	C109	0.695800	0.965200	0.179200
C1101	C110	0.395770	0.130800	0.157660
C1111	C111	0.374470	0.200400	0.156660
C1121	C112	0.187010	0.245200	0.148780
C1131	C113	0.505790	0.351000	0.109420
C1141	C114	0.356330	0.328800	0.098540
C1151	C115	0.362640	0.256400	0.096320
C1161	C116	0.515020	0.212400	0.105560
C1171	C117	0.655720	0.237800	0.116760
C1181	C118	0.215590	0.224600	0.084220
C1191	C119	0.050050	0.258400	0.077500
C1201	C120	0.903120	0.223000	0.066760
C1211	C121	0.742210	0.261600	0.057980
C1221	C122	0.597920	0.230400	0.047760
C1231	C123	0.617180	0.152000	0.049640
C1241	C124	0.770000	0.116800	0.059200
C1251	C125	0.911400	0.149000	0.068200
C1261	C126	0.471240	0.112600	0.040920
C1271	C127	0.313190	0.138800	0.030820
C1281	C128	0.195980	0.090800	0.021240
C1291	C129	0.514910	0.532000	0.808180
C1301	C130	0.426360	0.503400	0.793880
C1311	C131	0.504260	0.499200	0.774280
C1321	C132	0.666660	0.536000	0.770680
C1331	C133	0.749250	0.569800	0.785700
C1341	C134	0.426820	0.462400	0.757960
C1351	C135	0.264790	0.430600	0.759820
C1361	C136	0.182240	0.389000	0.744520
C1371	C137	0.003450	0.363200	0.749900
C1381	C138	0.928020	0.321600	0.736360
C1391	C139	0.024630	0.305000	0.717740
C1401	C140	0.205490	0.328400	0.712620
C1411	C141	0.281190	0.371800	0.725820
C1421	C142	0.943410	0.261000	0.702180
C1431	C143	0.786840	0.229200	0.705120
C1441	C144	0.711700	0.191000	0.687600
C1451	C145	0.583050	0.577200	0.540700
C1461	C146	0.449540	0.623800	0.553120
C1471	C147	0.252640	0.651000	0.547720
C1481	C148	0.190040	0.626600	0.529320
C1491	C149	0.330580	0.578600	0.518240
C1501	C150	0.109330	0.702800	0.560540
C1511	C151	0.928760	0.731800	0.556680
C1521	C152	0.778610	0.785400	0.569380
C1531	C153	0.836630	0.811000	0.587740
C1541	C154	0.701810	0.864600	0.597780
C1551	C155	0.522020	0.894000	0.589960
C1561	C156	0.464110	0.865600	0.572180
C1571	C157	0.597800	0.813400	0.561000
C1581	C158	0.383570	0.953400	0.599460
C1591	C159	0.389350	0.979200	0.618100
C1601	C160	0.235320	0.035800	0.627560
C1611	C161	0.199000	0.637600	0.738400
C1621	C162	0.103000	0.592600	0.727400
C1631	C163	0.920500	0.613000	0.718000
C1641	C164	0.850400	0.684400	0.720800
C1651	C165	0.932200	0.727600	0.732000
C1661	C166	0.848400	0.558000	0.707200
C1671	C167	0.684100	0.564000	0.697800
C1681	C168	0.603200	0.513000	0.686600
C1691	C169	0.694000	0.441400	0.682600
C1701	C170	0.595090	0.396800	0.673020
C1711	C171	0.393600	0.420200	0.666600
C1721	C172	0.297300	0.489400	0.670000
C1731	C173	0.411000	0.534800	0.679200
C1741	C174	0.276570	0.369200	0.657660
C1751	C175	0.324870	0.299600	0.656660
C1761	C176	0.182210	0.254800	0.648780
C1771	C177	0.606790	0.149000	0.609420
C1781	C178	0.435130	0.171200	0.598540
C1791	C179	0.369040	0.243600	0.596320
C1801	C180	0.477420	0.287600	0.605560
C1811	C181	0.643520	0.262200	0.616760
C1821	C182	0.190190	0.275400	0.584220
C1831	C183	0.058450	0.241600	0.577500
C1841	C184	0.876120	0.277000	0.566760
C1851	C185	0.753810	0.238400	0.557980
C1861	C186	0.578320	0.269600	0.547760
C1871	C187	0.519180	0.348000	0.549640
C1881	C188	0.636800	0.383200	0.559200
C1891	C189	0.810400	0.351000	0.568200
C1901	C190	0.333840	0.387400	0.540920
C1911	C191	0.201990	0.361200	0.530820
C1921	C192	0.036780	0.409200	0.521240
C1931	C193	0.855090	0.468000	0.191820
C1941	C194	0.723640	0.496600	0.206120
C1951	C195	0.777740	0.500800	0.225720
C1961	C196	0.973340	0.464000	0.229320
C1971	C197	0.104750	0.430200	0.214300
C1981	C198	0.647180	0.537600	0.242040
C1991	C199	0.455210	0.569400	0.240180
C2001	C200	0.315760	0.611000	0.255480
C2011	C201	0.116550	0.636800	0.250100
C2021	C202	0.985980	0.678400	0.263640
C2031	C203	0.047370	0.695000	0.282260
C2041	C204	0.246510	0.671600	0.287380
C2051	C205	0.378810	0.628200	0.274180
C2061	C206	0.906590	0.739000	0.297820
C2071	C207	0.721160	0.770800	0.294880
C2081	C208	0.590300	0.809000	0.312400
C2091	C209	0.700950	0.422800	0.459300
C2101	C210	0.626460	0.376200	0.446880
C2111	C211	0.451360	0.349000	0.452280
C2121	C212	0.345960	0.373400	0.470680
C2131	C213	0.427420	0.421400	0.481760
C2141	C214	0.372670	0.297200	0.439460
C2151	C215	0.217240	0.268200	0.443320
C2161	C216	0.133390	0.214600	0.430620
C2171	C217	0.235370	0.189000	0.412260
C2181	C218	0.164190	0.135400	0.402220
C2191	C219	0.005980	0.106000	0.410040
C2201	C220	0.901890	0.134400	0.427820
C2211	C221	0.972200	0.186600	0.439000
C2221	C222	0.936430	0.046600	0.400540
C2231	C223	0.986650	0.020800	0.381900
C2241	C224	0.898680	0.964200	0.372440
C2251	C225	0.575000	0.362400	0.261600
C2261	C226	0.423000	0.407400	0.272600
C2271	C227	0.251500	0.387000	0.282000
C2281	C228	0.255600	0.315600	0.279200
C2291	C229	0.391800	0.272400	0.268000
C2301	C230	0.113600	0.442000	0.292800
C2311	C231	0.945900	0.436000	0.302200
C2321	C232	0.802800	0.487000	0.313400
C2331	C233	0.818000	0.558600	0.317400
C2341	C234	0.664910	0.603200	0.326980
C2351	C235	0.480400	0.579800	0.333400
C2361	C236	0.456700	0.510600	0.330000
C2371	C237	0.625000	0.465200	0.320800
C2381	C238	0.303430	0.630800	0.342340
C2391	C239	0.281130	0.700400	0.343340
C2401	C240	0.085790	0.745200	0.351220
C2411	C241	0.365210	0.851000	0.390580
C2421	C242	0.204870	0.828800	0.401460
C2431	C243	0.208960	0.756400	0.403680
C2441	C244	0.370580	0.712400	0.394440
C2451	C245	0.522480	0.737800	0.383240
C2461	C246	0.049810	0.724600	0.415780
C2471	C247	0.877550	0.758400	0.422500
C2481	C248	0.719880	0.723000	0.433240
C2491	C249	0.550190	0.761600	0.442020
C2501	C250	0.395680	0.730400	0.452240
C2511	C251	0.416820	0.652000	0.450360
C2521	C252	0.579200	0.616800	0.440800
C2531	C253	0.729600	0.649000	0.431800
C2541	C254	0.262160	0.612600	0.459080
C2551	C255	0.094010	0.638800	0.469180
C2561	C256	0.967220	0.590800	0.478760
N11	N1	0.228860	0.067800	0.694480
N21	N2	0.790540	0.057400	0.977520
N31	N3	0.595900	0.205600	0.758600
N41	N4	0.072660	0.692000	0.880680
N51	N5	0.991140	0.932200	0.305520
N61	N6	0.825460	0.942600	0.022480
N71	N7	0.560100	0.794400	0.241400
N81	N8	0.645340	0.308000	0.119320
N91	N9	0.673340	0.567800	0.805520
N101	N10	0.518060	0.557400	0.522480
N111	N11	0.104500	0.705600	0.741400
N121	N12	0.703340	0.192000	0.619320
N131	N13	0.046660	0.432200	0.194480
N141	N14	0.597940	0.442600	0.477520
N151	N15	0.551500	0.294400	0.258600
N161	N16	0.514660	0.808000	0.380680
O11	O1	0.219860	0.687000	0.829280
O21	O2	0.998570	0.664600	0.808260
O31	O3	0.474170	0.571200	0.884460
O41	O4	0.633500	0.688000	0.849000
O51	O5	0.418050	0.780200	0.859700
O61	O6	0.267970	0.973200	0.974860
O71	O7	0.194510	0.883000	0.991980
O81	O8	0.624380	0.547400	0.853840
O91	O9	0.736140	0.313000	0.170720
O101	O10	0.471430	0.335400	0.191740
O111	O11	0.929830	0.428800	0.115540
O121	O12	0.170500	0.312000	0.151000
O131	O13	0.057950	0.219800	0.140300
O141	O14	0.216030	0.026800	0.025140
O151	O15	0.069490	0.117000	0.008020
O161	O16	0.025620	0.452600	0.146160
O171	O17	0.799140	0.187000	0.670720
O181	O18	0.556830	0.164600	0.691740
O191	O19	0.108630	0.071200	0.615540
O201	O20	0.232500	0.188000	0.651000
O211	O21	0.027750	0.280200	0.640300
O221	O22	0.992830	0.473200	0.525140
O231	O23	0.936490	0.383000	0.508020
O241	O24	0.228220	0.047400	0.646160
O251	O25	0.656860	0.813000	0.329280
O261	O26	0.413170	0.835400	0.308260
O271	O27	0.795370	0.928800	0.384460
O281	O28	0.071500	0.812000	0.349000
O291	O29	0.948250	0.719800	0.359700
O301	O30	0.991170	0.526800	0.474860
O311	O31	0.827510	0.617000	0.491980
O321	O32	0.921780	0.952600	0.353840
