data_ICITEU_charged_PM
_symmetry_space_group_name_H-M	'P1'
_cell_length_a	27.230000
_cell_length_b	27.230000
_cell_length_c	27.230000
_cell_angle_alpha	60.000000
_cell_angle_beta	60.000000
_cell_angle_gamma	60.000000
_symmetry_Int_Tables_number 1

loop_
_symmetry_equiv_pos_as_xyz
'x,y,z'

loop_
_atom_site_label
_atom_site_type_symbol
_atom_site_fract_x
_atom_site_fract_y
_atom_site_fract_z
Fe11	Fe1	0.195140	0.520420	0.642220
Fe21	Fe2	0.520420	0.195140	0.642220
Fe31	Fe3	0.642220	0.642220	0.195140
Fe41	Fe4	0.642220	0.642220	0.520420
Fe51	Fe5	0.195140	0.642220	0.642220
Fe61	Fe6	0.520420	0.642220	0.642220
Fe71	Fe7	0.642220	0.195140	0.520420
Fe81	Fe8	0.642220	0.520420	0.195140
Fe91	Fe9	0.195140	0.642220	0.520420
Fe101	Fe10	0.520420	0.642220	0.195140
Fe111	Fe11	0.642220	0.520420	0.642220
Fe121	Fe12	0.642220	0.195140	0.642220
H11	H1	0.049900	0.500900	0.643900
H21	H2	0.966100	0.496500	0.643700
H31	H3	0.191200	0.421000	0.627000
H41	H4	0.203100	0.314700	0.667500
H51	H5	0.500900	0.049900	0.805300
H61	H6	0.496500	0.966100	0.893700
H71	H7	0.421000	0.191200	0.760800
H81	H8	0.314700	0.203100	0.814700
H91	H9	0.643900	0.805300	0.049900
H101	H10	0.643700	0.893700	0.966100
H111	H11	0.627000	0.760800	0.191200
H121	H12	0.667500	0.814700	0.203100
H131	H13	0.805300	0.643900	0.500900
H141	H14	0.893700	0.643700	0.496500
H151	H15	0.760800	0.627000	0.421000
H161	H16	0.814700	0.667500	0.314700
H171	H17	0.049900	0.643900	0.805300
H181	H18	0.966100	0.643700	0.893700
H191	H19	0.191200	0.627000	0.760800
H201	H20	0.203100	0.667500	0.814700
H211	H21	0.500900	0.805300	0.643900
H221	H22	0.496500	0.893700	0.643700
H231	H23	0.421000	0.760800	0.627000
H241	H24	0.314700	0.814700	0.667500
H251	H25	0.643900	0.049900	0.500900
H261	H26	0.643700	0.966100	0.496500
H271	H27	0.627000	0.191200	0.421000
H281	H28	0.667500	0.203100	0.314700
H291	H29	0.805300	0.500900	0.049900
H301	H30	0.893700	0.496500	0.966100
H311	H31	0.760800	0.421000	0.191200
H321	H32	0.814700	0.314700	0.203100
H331	H33	0.049900	0.805300	0.500900
H341	H34	0.966100	0.893700	0.496500
H351	H35	0.191200	0.760800	0.421000
H361	H36	0.203100	0.814700	0.314700
H371	H37	0.500900	0.643900	0.049900
H381	H38	0.496500	0.643700	0.966100
H391	H39	0.421000	0.627000	0.191200
H401	H40	0.314700	0.667500	0.203100
H411	H41	0.643900	0.500900	0.805300
H421	H42	0.643700	0.496500	0.893700
H431	H43	0.627000	0.421000	0.760800
H441	H44	0.667500	0.314700	0.814700
H451	H45	0.805300	0.049900	0.643900
H461	H46	0.893700	0.966100	0.643700
H471	H47	0.760800	0.191200	0.627000
H481	H48	0.814700	0.203100	0.667500
H491	H49	0.049900	0.500900	0.805300
H501	H50	0.966100	0.496500	0.893700
H511	H51	0.191200	0.421000	0.760800
H521	H52	0.203100	0.314700	0.814700
H531	H53	0.500900	0.049900	0.643900
H541	H54	0.496500	0.966100	0.643700
H551	H55	0.421000	0.191200	0.627000
H561	H56	0.314700	0.203100	0.667500
H571	H57	0.643900	0.805300	0.500900
H581	H58	0.643700	0.893700	0.496500
H591	H59	0.627000	0.760800	0.421000
H601	H60	0.667500	0.814700	0.314700
H611	H61	0.805300	0.643900	0.049900
H621	H62	0.893700	0.643700	0.966100
H631	H63	0.760800	0.627000	0.191200
H641	H64	0.814700	0.667500	0.203100
H651	H65	0.049900	0.643900	0.500900
H661	H66	0.966100	0.643700	0.496500
H671	H67	0.191200	0.627000	0.421000
H681	H68	0.203100	0.667500	0.314700
H691	H69	0.500900	0.805300	0.049900
H701	H70	0.496500	0.893700	0.966100
H711	H71	0.421000	0.760800	0.191200
H721	H72	0.314700	0.814700	0.203100
H731	H73	0.643900	0.049900	0.805300
H741	H74	0.643700	0.966100	0.893700
H751	H75	0.627000	0.191200	0.760800
H761	H76	0.667500	0.203100	0.814700
H771	H77	0.805300	0.500900	0.643900
H781	H78	0.893700	0.496500	0.643700
H791	H79	0.760800	0.421000	0.627000
H801	H80	0.814700	0.314700	0.667500
H811	H81	0.049900	0.805300	0.643900
H821	H82	0.966100	0.893700	0.643700
H831	H83	0.191200	0.760800	0.627000
H841	H84	0.203100	0.814700	0.667500
H851	H85	0.500900	0.643900	0.805300
H861	H86	0.496500	0.643700	0.893700
H871	H87	0.421000	0.627000	0.760800
H881	H88	0.314700	0.667500	0.814700
H891	H89	0.643900	0.500900	0.049900
H901	H90	0.643700	0.496500	0.966100
H911	H91	0.627000	0.421000	0.191200
H921	H92	0.667500	0.314700	0.203100
H931	H93	0.805300	0.049900	0.500900
H941	H94	0.893700	0.966100	0.496500
H951	H95	0.760800	0.191200	0.421000
H961	H96	0.814700	0.203100	0.314700
C11	C1	0.033000	0.529800	0.614000
C21	C2	0.981700	0.527300	0.615100
C31	C3	0.193600	0.400200	0.665600
C41	C4	0.198500	0.334700	0.689700
C51	C5	0.529800	0.033000	0.823200
C61	C6	0.527300	0.981700	0.875900
C71	C7	0.400200	0.193600	0.740600
C81	C8	0.334700	0.198500	0.777100
C91	C9	0.614000	0.823200	0.033000
C101	C10	0.615100	0.875900	0.981700
C111	C11	0.665600	0.740600	0.193600
C121	C12	0.689700	0.777100	0.198500
C131	C13	0.823200	0.614000	0.529800
C141	C14	0.875900	0.615100	0.527300
C151	C15	0.740600	0.665600	0.400200
C161	C16	0.777100	0.689700	0.334700
C171	C17	0.033000	0.614000	0.823200
C181	C18	0.981700	0.615100	0.875900
C191	C19	0.193600	0.665600	0.740600
C201	C20	0.198500	0.689700	0.777100
C211	C21	0.529800	0.823200	0.614000
C221	C22	0.527300	0.875900	0.615100
C231	C23	0.400200	0.740600	0.665600
C241	C24	0.334700	0.777100	0.689700
C251	C25	0.614000	0.033000	0.529800
C261	C26	0.615100	0.981700	0.527300
C271	C27	0.665600	0.193600	0.400200
C281	C28	0.689700	0.198500	0.334700
C291	C29	0.823200	0.529800	0.033000
C301	C30	0.875900	0.527300	0.981700
C311	C31	0.740600	0.400200	0.193600
C321	C32	0.777100	0.334700	0.198500
C331	C33	0.033000	0.823200	0.529800
C341	C34	0.981700	0.875900	0.527300
C351	C35	0.193600	0.740600	0.400200
C361	C36	0.198500	0.777100	0.334700
C371	C37	0.529800	0.614000	0.033000
C381	C38	0.527300	0.615100	0.981700
C391	C39	0.400200	0.665600	0.193600
C401	C40	0.334700	0.689700	0.198500
C411	C41	0.614000	0.529800	0.823200
C421	C42	0.615100	0.527300	0.875900
C431	C43	0.665600	0.400200	0.740600
C441	C44	0.689700	0.334700	0.777100
C451	C45	0.823200	0.033000	0.614000
C461	C46	0.875900	0.981700	0.615100
C471	C47	0.740600	0.193600	0.665600
C481	C48	0.777100	0.198500	0.689700
C491	C49	0.033000	0.529800	0.823200
C501	C50	0.981700	0.527300	0.875900
C511	C51	0.193600	0.400200	0.740600
C521	C52	0.198500	0.334700	0.777100
C531	C53	0.529800	0.033000	0.614000
C541	C54	0.527300	0.981700	0.615100
C551	C55	0.400200	0.193600	0.665600
C561	C56	0.334700	0.198500	0.689700
C571	C57	0.614000	0.823200	0.529800
C581	C58	0.615100	0.875900	0.527300
C591	C59	0.665600	0.740600	0.400200
C601	C60	0.689700	0.777100	0.334700
C611	C61	0.823200	0.614000	0.033000
C621	C62	0.875900	0.615100	0.981700
C631	C63	0.740600	0.665600	0.193600
C641	C64	0.777100	0.689700	0.198500
C651	C65	0.033000	0.614000	0.529800
C661	C66	0.981700	0.615100	0.527300
C671	C67	0.193600	0.665600	0.400200
C681	C68	0.198500	0.689700	0.334700
C691	C69	0.529800	0.823200	0.033000
C701	C70	0.527300	0.875900	0.981700
C711	C71	0.400200	0.740600	0.193600
C721	C72	0.334700	0.777100	0.198500
C731	C73	0.614000	0.033000	0.823200
C741	C74	0.615100	0.981700	0.875900
C751	C75	0.665600	0.193600	0.740600
C761	C76	0.689700	0.198500	0.777100
C771	C77	0.823200	0.529800	0.614000
C781	C78	0.875900	0.527300	0.615100
C791	C79	0.740600	0.400200	0.665600
C801	C80	0.777100	0.334700	0.689700
C811	C81	0.033000	0.823200	0.614000
C821	C82	0.981700	0.875900	0.615100
C831	C83	0.193600	0.740600	0.665600
C841	C84	0.198500	0.777100	0.689700
C851	C85	0.529800	0.614000	0.823200
C861	C86	0.527300	0.615100	0.875900
C871	C87	0.400200	0.665600	0.740600
C881	C88	0.334700	0.689700	0.777100
C891	C89	0.614000	0.529800	0.033000
C901	C90	0.615100	0.527300	0.981700
C911	C91	0.665600	0.400200	0.193600
C921	C92	0.689700	0.334700	0.198500
C931	C93	0.823200	0.033000	0.529800
C941	C94	0.875900	0.981700	0.527300
C951	C95	0.740600	0.193600	0.400200
C961	C96	0.777100	0.198500	0.334700
C971	C97	0.195500	0.309500	0.747500
C981	C98	0.196400	0.242400	0.780600
C991	C99	0.309500	0.195500	0.747500
C1001	C100	0.242400	0.196400	0.780600
C1011	C101	0.747500	0.747500	0.195500
C1021	C102	0.780600	0.780600	0.196400
C1031	C103	0.747500	0.747500	0.309500
C1041	C104	0.780600	0.780600	0.242400
C1051	C105	0.195500	0.747500	0.747500
C1061	C106	0.196400	0.780600	0.780600
C1071	C107	0.309500	0.747500	0.747500
C1081	C108	0.242400	0.780600	0.780600
C1091	C109	0.747500	0.195500	0.309500
C1101	C110	0.780600	0.196400	0.242400
C1111	C111	0.747500	0.309500	0.195500
C1121	C112	0.780600	0.242400	0.196400
C1131	C113	0.195500	0.747500	0.309500
C1141	C114	0.196400	0.780600	0.242400
C1151	C115	0.309500	0.747500	0.195500
C1161	C116	0.242400	0.780600	0.196400
C1171	C117	0.747500	0.309500	0.747500
C1181	C118	0.780600	0.242400	0.780600
C1191	C119	0.747500	0.195500	0.747500
C1201	C120	0.780600	0.196400	0.780600
C1211	C121	0.108500	0.575700	0.575700
C1221	C122	0.058300	0.571900	0.571900
C1231	C123	0.956500	0.572100	0.572100
C1241	C124	0.575700	0.108500	0.740100
C1251	C125	0.571900	0.058300	0.797900
C1261	C126	0.572100	0.956500	0.899300
C1271	C127	0.575700	0.740100	0.108500
C1281	C128	0.571900	0.797900	0.058300
C1291	C129	0.572100	0.899300	0.956500
C1301	C130	0.740100	0.575700	0.575700
C1311	C131	0.797900	0.571900	0.571900
C1321	C132	0.899300	0.572100	0.572100
C1331	C133	0.108500	0.575700	0.740100
C1341	C134	0.058300	0.571900	0.797900
C1351	C135	0.956500	0.572100	0.899300
C1361	C136	0.575700	0.740100	0.575700
C1371	C137	0.571900	0.797900	0.571900
C1381	C138	0.572100	0.899300	0.572100
C1391	C139	0.575700	0.108500	0.575700
C1401	C140	0.571900	0.058300	0.571900
C1411	C141	0.572100	0.956500	0.572100
C1421	C142	0.740100	0.575700	0.108500
C1431	C143	0.797900	0.571900	0.058300
C1441	C144	0.899300	0.572100	0.956500
C1451	C145	0.108500	0.740100	0.575700
C1461	C146	0.058300	0.797900	0.571900
C1471	C147	0.956500	0.899300	0.572100
C1481	C148	0.575700	0.575700	0.108500
C1491	C149	0.571900	0.571900	0.058300
C1501	C150	0.572100	0.572100	0.956500
C1511	C151	0.575700	0.575700	0.740100
C1521	C152	0.571900	0.571900	0.797900
C1531	C153	0.572100	0.572100	0.899300
C1541	C154	0.740100	0.108500	0.575700
C1551	C155	0.797900	0.058300	0.571900
C1561	C156	0.899300	0.956500	0.572100
S11	S1	0.273850	0.510090	0.510090
S21	S2	0.510090	0.273850	0.705970
S31	S3	0.510090	0.705970	0.273850
S41	S4	0.705970	0.510090	0.510090
S51	S5	0.273850	0.510090	0.705970
S61	S6	0.510090	0.705970	0.510090
S71	S7	0.510090	0.273850	0.510090
S81	S8	0.705970	0.510090	0.273850
S91	S9	0.273850	0.705970	0.510090
S101	S10	0.510090	0.510090	0.273850
S111	S11	0.510090	0.510090	0.705970
S121	S12	0.705970	0.273850	0.510090
N11	N1	0.192100	0.431300	0.688300
N21	N2	0.431300	0.192100	0.688300
N31	N3	0.688300	0.688300	0.192100
N41	N4	0.688300	0.688300	0.431300
N51	N5	0.192100	0.688300	0.688300
N61	N6	0.431300	0.688300	0.688300
N71	N7	0.688300	0.192100	0.431300
N81	N8	0.688300	0.431300	0.192100
N91	N9	0.192100	0.688300	0.431300
N101	N10	0.431300	0.688300	0.192100
N111	N11	0.688300	0.431300	0.688300
N121	N12	0.688300	0.192100	0.688300
O11	O1	0.129200	0.536400	0.616800
O21	O2	0.258900	0.488300	0.576100
O31	O3	0.536400	0.129200	0.717600
O41	O4	0.488300	0.258900	0.676700
O51	O5	0.616800	0.717600	0.129200
O61	O6	0.576100	0.676700	0.258900
O71	O7	0.717600	0.616800	0.536400
O81	O8	0.676700	0.576100	0.488300
O91	O9	0.129200	0.616800	0.717600
O101	O10	0.258900	0.576100	0.676700
O111	O11	0.536400	0.717600	0.616800
O121	O12	0.488300	0.676700	0.576100
O131	O13	0.616800	0.129200	0.536400
O141	O14	0.576100	0.258900	0.488300
O151	O15	0.717600	0.536400	0.129200
O161	O16	0.676700	0.488300	0.258900
O171	O17	0.129200	0.717600	0.536400
O181	O18	0.258900	0.676700	0.488300
O191	O19	0.536400	0.616800	0.129200
O201	O20	0.488300	0.576100	0.258900
O211	O21	0.616800	0.536400	0.717600
O221	O22	0.576100	0.488300	0.676700
O231	O23	0.717600	0.129200	0.616800
O241	O24	0.676700	0.258900	0.576100
O251	O25	0.129200	0.536400	0.717600
O261	O26	0.258900	0.488300	0.676700
O271	O27	0.536400	0.129200	0.616800
O281	O28	0.488300	0.258900	0.576100
O291	O29	0.616800	0.717600	0.536400
O301	O30	0.576100	0.676700	0.488300
O311	O31	0.717600	0.616800	0.129200
O321	O32	0.676700	0.576100	0.258900
O331	O33	0.129200	0.616800	0.536400
O341	O34	0.258900	0.576100	0.488300
O351	O35	0.536400	0.717600	0.129200
O361	O36	0.488300	0.676700	0.258900
O371	O37	0.616800	0.129200	0.717600
O381	O38	0.576100	0.258900	0.676700
O391	O39	0.717600	0.536400	0.616800
O401	O40	0.676700	0.488300	0.576100
O411	O41	0.129200	0.717600	0.616800
O421	O42	0.258900	0.676700	0.576100
O431	O43	0.536400	0.616800	0.717600
O441	O44	0.488300	0.576100	0.676700
O451	O45	0.616800	0.536400	0.129200
O461	O46	0.576100	0.488300	0.258900
O471	O47	0.717600	0.129200	0.536400
O481	O48	0.676700	0.258900	0.488300
O491	O49	0.196400	0.601200	0.601200
O501	O50	0.601200	0.196400	0.601200
O511	O51	0.601200	0.601200	0.196400
O521	O52	0.601200	0.601200	0.601200
O531	O53	0.337500	0.483100	0.483100
O541	O54	0.238700	0.495900	0.495900
O551	O55	0.483100	0.337500	0.696300
O561	O56	0.495900	0.238700	0.769500
O571	O57	0.483100	0.696300	0.337500
O581	O58	0.495900	0.769500	0.238700
O591	O59	0.696300	0.483100	0.483100
O601	O60	0.769500	0.495900	0.495900
O611	O61	0.337500	0.483100	0.696300
O621	O62	0.238700	0.495900	0.769500
O631	O63	0.483100	0.696300	0.483100
O641	O64	0.495900	0.769500	0.495900
O651	O65	0.483100	0.337500	0.483100
O661	O66	0.495900	0.238700	0.495900
O671	O67	0.696300	0.483100	0.337500
O681	O68	0.769500	0.495900	0.238700
O691	O69	0.337500	0.696300	0.483100
O701	O70	0.238700	0.769500	0.495900
O711	O71	0.483100	0.483100	0.337500
O721	O72	0.495900	0.495900	0.238700
O731	O73	0.483100	0.483100	0.696300
O741	O74	0.495900	0.495900	0.769500
O751	O75	0.696300	0.337500	0.483100
O761	O76	0.769500	0.238700	0.495900
