data_ICIZOL_clean_PM
_symmetry_space_group_name_H-M	'P1'
_cell_length_a	9.316000
_cell_length_b	11.917000
_cell_length_c	25.515000
_cell_angle_alpha	90.000000
_cell_angle_beta	94.663000
_cell_angle_gamma	90.000000
_symmetry_Int_Tables_number 1

loop_
_symmetry_equiv_pos_as_xyz
'x,y,z'

loop_
_atom_site_label
_atom_site_type_symbol
_atom_site_fract_x
_atom_site_fract_y
_atom_site_fract_z
Mn11	Mn1	0.555670	0.919430	0.978740
Mn21	Mn2	0.073560	0.600550	0.294050
Mn31	Mn3	0.555670	0.080570	0.478740
Mn41	Mn4	0.073560	0.399450	0.794050
H11	H1	0.381100	0.312200	0.007900
H21	H2	0.522400	0.452700	0.050500
H31	H3	0.760400	0.481300	0.026200
H41	H4	0.706300	0.236700	0.916600
H51	H5	0.914400	0.254200	0.047700
H61	H6	0.945700	0.235600	0.139100
H71	H7	0.058500	0.370200	0.191300
H81	H8	0.155400	0.540200	0.059700
H91	H9	0.368100	0.562000	0.957000
H101	H10	0.577000	0.620700	0.918000
H111	H11	0.579500	0.593000	0.823100
H121	H12	0.391800	0.503300	0.778000
H131	H13	0.879300	0.974800	0.508300
H141	H14	0.082600	0.921400	0.468800
H151	H15	0.082700	0.925200	0.376900
H161	H16	0.882300	0.006100	0.326800
H171	H17	0.239400	0.004200	0.240700
H181	H18	0.001800	0.021800	0.204000
H191	H19	0.856400	0.163300	0.230200
H201	H20	0.170300	0.276600	0.333300
H211	H21	0.632600	0.995600	0.214500
H221	H22	0.518900	0.177900	0.081900
H231	H23	0.399300	0.305600	0.133300
H241	H24	0.377000	0.277600	0.222000
H251	H25	0.381100	0.687800	0.507900
H261	H26	0.522400	0.547300	0.550500
H271	H27	0.760400	0.518700	0.526200
H281	H28	0.706300	0.763300	0.416600
H291	H29	0.914400	0.745800	0.547700
H301	H30	0.945700	0.764400	0.639100
H311	H31	0.058500	0.629800	0.691300
H321	H32	0.155400	0.459800	0.559700
H331	H33	0.368100	0.438000	0.457000
H341	H34	0.577000	0.379300	0.418000
H351	H35	0.579500	0.407000	0.323100
H361	H36	0.391800	0.496700	0.278000
H371	H37	0.879300	0.025200	0.008300
H381	H38	0.082600	0.078600	0.968800
H391	H39	0.082700	0.074800	0.876900
H401	H40	0.882300	0.993900	0.826800
H411	H41	0.239400	0.995800	0.740700
H421	H42	0.001800	0.978200	0.704000
H431	H43	0.856400	0.836700	0.730200
H441	H44	0.170300	0.723400	0.833300
H451	H45	0.632600	0.004400	0.714500
H461	H46	0.518900	0.822100	0.581900
H471	H47	0.399300	0.694400	0.633300
H481	H48	0.377000	0.722400	0.722000
C11	C1	0.525200	0.265900	0.956000
C21	C2	0.474700	0.327000	0.997400
C31	C3	0.558800	0.409200	0.023400
C41	C4	0.701000	0.426500	0.008300
C51	C5	0.754100	0.366000	0.968500
C61	C6	0.668300	0.282100	0.942700
C71	C7	0.897700	0.384300	0.951900
C81	C8	0.021900	0.413200	0.986500
C91	C9	0.030300	0.400400	0.044100
C101	C10	0.967500	0.308900	0.068200
C111	C11	0.984400	0.299600	0.123100
C121	C12	0.053300	0.377400	0.154100
C131	C13	0.118500	0.471000	0.130200
C141	C14	0.108800	0.479900	0.075700
C151	C15	0.139900	0.452800	0.913500
C161	C16	0.267900	0.497200	0.889200
C171	C17	0.377200	0.550500	0.920600
C181	C18	0.498700	0.586200	0.897900
C191	C19	0.500200	0.567800	0.841200
C201	C20	0.388000	0.514900	0.814700
C211	C21	0.879200	0.980400	0.471200
C221	C22	0.000400	0.947400	0.447900
C231	C23	0.002100	0.952500	0.393600
C241	C24	0.883200	0.998400	0.363800
C251	C25	0.767100	0.032000	0.390800
C261	C26	0.636200	0.077000	0.361800
C271	C27	0.506700	0.113700	0.284700
C281	C28	0.382400	0.131200	0.313600
C291	C29	0.237000	0.143900	0.290400
C301	C30	0.180400	0.063500	0.251500
C311	C31	0.038600	0.073800	0.229900
C321	C32	0.952400	0.157400	0.245600
C331	C33	0.000700	0.232300	0.282700
C341	C34	0.139800	0.225400	0.306200
C351	C35	0.504200	0.130100	0.226600
C361	C36	0.582200	0.057000	0.197900
C371	C37	0.585100	0.076300	0.143000
C381	C38	0.516700	0.166300	0.118700
C391	C39	0.442900	0.241300	0.149800
C401	C40	0.430600	0.227100	0.202300
C411	C41	0.525200	0.734100	0.456000
C421	C42	0.474700	0.673000	0.497400
C431	C43	0.558800	0.590800	0.523400
C441	C44	0.701000	0.573500	0.508300
C451	C45	0.754100	0.634000	0.468500
C461	C46	0.668300	0.717900	0.442700
C471	C47	0.897700	0.615700	0.451900
C481	C48	0.021900	0.586800	0.486500
C491	C49	0.030300	0.599600	0.544100
C501	C50	0.967500	0.691100	0.568200
C511	C51	0.984400	0.700400	0.623100
C521	C52	0.053300	0.622600	0.654100
C531	C53	0.118500	0.529000	0.630200
C541	C54	0.108800	0.520100	0.575700
C551	C55	0.139900	0.547200	0.413500
C561	C56	0.267900	0.502800	0.389200
C571	C57	0.377200	0.449500	0.420600
C581	C58	0.498700	0.413800	0.397900
C591	C59	0.500200	0.432200	0.341200
C601	C60	0.388000	0.485100	0.314700
C611	C61	0.879200	0.019600	0.971200
C621	C62	0.000400	0.052600	0.947900
C631	C63	0.002100	0.047500	0.893600
C641	C64	0.883200	0.001600	0.863800
C651	C65	0.767100	0.968000	0.890800
C661	C66	0.636200	0.923000	0.861800
C671	C67	0.506700	0.886300	0.784700
C681	C68	0.382400	0.868800	0.813600
C691	C69	0.237000	0.856100	0.790400
C701	C70	0.180400	0.936500	0.751500
C711	C71	0.038600	0.926200	0.729900
C721	C72	0.952400	0.842600	0.745600
C731	C73	0.000700	0.767700	0.782700
C741	C74	0.139800	0.774600	0.806200
C751	C75	0.504200	0.869900	0.726600
C761	C76	0.582200	0.943000	0.697900
C771	C77	0.585100	0.923700	0.643000
C781	C78	0.516700	0.833700	0.618700
C791	C79	0.442900	0.758700	0.649800
C801	C80	0.430600	0.772900	0.702300
S11	S1	0.417400	0.162100	0.923170
S21	S2	0.220600	0.567100	0.169480
S31	S3	0.687300	0.983800	0.105830
S41	S4	0.889800	0.344100	0.301830
S51	S5	0.417400	0.837900	0.423170
S61	S6	0.220600	0.432900	0.669480
S71	S7	0.687300	0.016200	0.605830
S81	S8	0.889800	0.655900	0.801830
N11	N1	0.912400	0.374000	0.900600
N21	N2	0.038100	0.401900	0.881200
N31	N3	0.140000	0.453800	0.966500
N41	N4	0.272300	0.477900	0.837100
N51	N5	0.530700	0.114700	0.391100
N61	N6	0.399800	0.139500	0.365100
N71	N7	0.628800	0.083500	0.309100
N81	N8	0.758700	0.020700	0.443300
N91	N9	0.912400	0.626000	0.400600
N101	N10	0.038100	0.598100	0.381200
N111	N11	0.140000	0.546200	0.466500
N121	N12	0.272300	0.522100	0.337100
N131	N13	0.530700	0.885300	0.891100
N141	N14	0.399800	0.860500	0.865100
N151	N15	0.628800	0.916500	0.809100
N161	N16	0.758700	0.979300	0.943300
O11	O1	0.419600	0.067000	0.959700
O21	O2	0.271400	0.211600	0.914200
O31	O3	0.481300	0.135300	0.874800
O41	O4	0.161700	0.569100	0.219500
O51	O5	0.202300	0.671700	0.142700
O61	O6	0.366800	0.523800	0.174400
O71	O7	0.885200	0.336600	0.355200
O81	O8	0.752600	0.330900	0.271500
O91	O9	0.960200	0.444000	0.286900
O101	O10	0.683800	0.876000	0.127900
O111	O11	0.617800	0.990900	0.052300
O121	O12	0.835300	0.024300	0.109800
O131	O13	0.419600	0.933000	0.459700
O141	O14	0.271400	0.788400	0.414200
O151	O15	0.481300	0.864700	0.374800
O161	O16	0.161700	0.430900	0.719500
O171	O17	0.202300	0.328300	0.642700
O181	O18	0.366800	0.476200	0.674400
O191	O19	0.885200	0.663400	0.855200
O201	O20	0.752600	0.669100	0.771500
O211	O21	0.960200	0.556000	0.786900
O221	O22	0.683800	0.124000	0.627900
O231	O23	0.617800	0.009100	0.552300
O241	O24	0.835300	0.975700	0.609800
