data_ICIZAV_clean_PM
_symmetry_space_group_name_H-M	'P1'
_cell_length_a	7.507400
_cell_length_b	9.201200
_cell_length_c	11.613900
_cell_angle_alpha	100.368000
_cell_angle_beta	104.665000
_cell_angle_gamma	94.691000
_symmetry_Int_Tables_number 1

loop_
_symmetry_equiv_pos_as_xyz
'x,y,z'

loop_
_atom_site_label
_atom_site_type_symbol
_atom_site_fract_x
_atom_site_fract_y
_atom_site_fract_z
Cu11	Cu1	0.839500	0.878800	0.488160
Cu21	Cu2	0.358700	0.924740	0.278530
Cu31	Cu3	0.160500	0.121200	0.511840
Cu41	Cu4	0.641300	0.075260	0.721470
P11	P1	0.646800	0.163900	0.475900
P21	P2	0.965500	0.919700	0.260900
P31	P3	0.353200	0.836100	0.524100
P41	P4	0.034500	0.080300	0.739100
H11	H1	0.685000	0.441900	0.652000
H21	H2	0.761200	0.691200	0.650600
H31	H3	0.834900	0.587100	0.325500
H41	H4	0.765300	0.338100	0.319400
H51	H5	0.917700	0.183800	0.162500
H61	H6	0.790100	0.232600	0.973600
H71	H7	0.600500	0.812900	0.840300
H81	H8	0.720700	0.753800	0.025500
H91	H9	0.315000	0.558100	0.348000
H101	H10	0.238800	0.308800	0.349400
H111	H11	0.165100	0.412900	0.674500
H121	H12	0.234700	0.661900	0.680600
H131	H13	0.082300	0.816200	0.837500
H141	H14	0.209900	0.767400	0.026400
H151	H15	0.399500	0.187100	0.159700
H161	H16	0.279300	0.246200	0.974500
C11	C1	0.716200	0.359000	0.483800
C21	C2	0.714900	0.468600	0.584900
C31	C3	0.759500	0.619100	0.582900
C41	C4	0.804000	0.557500	0.391100
C51	C5	0.762000	0.407600	0.387500
C61	C6	0.840400	0.961800	0.117100
C71	C7	0.856000	0.105700	0.098300
C81	C8	0.779000	0.134600	0.983900
C91	C9	0.667000	0.888100	0.905400
C101	C10	0.740000	0.852000	0.017000
C111	C11	0.283800	0.641000	0.516200
C121	C12	0.285100	0.531400	0.415100
C131	C13	0.240500	0.380900	0.417100
C141	C14	0.196000	0.442500	0.608900
C151	C15	0.238000	0.592400	0.612500
C161	C16	0.159600	0.038200	0.882900
C171	C17	0.144000	0.894300	0.901700
C181	C18	0.221000	0.865400	0.016100
C191	C19	0.333000	0.111900	0.094600
C201	C20	0.260000	0.148000	0.983000
N11	N1	0.799400	0.662500	0.488400
N21	N2	0.690100	0.026700	0.887800
N31	N3	0.200600	0.337500	0.511600
N41	N4	0.309900	0.973300	0.112200
O11	O1	0.825500	0.090900	0.493700
O21	O2	0.513700	0.112100	0.349300
O31	O3	0.547800	0.156100	0.576000
O41	O4	0.819200	0.847100	0.310900
O51	O5	0.073500	0.068900	0.333900
O61	O6	0.100700	0.811700	0.231200
O71	O7	0.174500	0.909100	0.506300
O81	O8	0.486300	0.887900	0.650700
O91	O9	0.452200	0.843900	0.424000
O101	O10	0.180800	0.152900	0.689100
O111	O11	0.926500	0.931100	0.666100
O121	O12	0.899300	0.188300	0.768800
