data_ICOYIK_clean_PM
_symmetry_space_group_name_H-M	'P1'
_cell_length_a	10.458800
_cell_length_b	14.995000
_cell_length_c	16.699000
_cell_angle_alpha	65.446000
_cell_angle_beta	83.487000
_cell_angle_gamma	73.305000
_symmetry_Int_Tables_number 1

loop_
_symmetry_equiv_pos_as_xyz
'x,y,z'

loop_
_atom_site_label
_atom_site_type_symbol
_atom_site_fract_x
_atom_site_fract_y
_atom_site_fract_z
La11	La1	0.208320	0.743960	0.290510
La21	La2	0.279100	0.493180	0.871030
La31	La3	0.791680	0.256040	0.709490
La41	La4	0.720900	0.506820	0.128970
H11	H1	0.521200	0.060300	0.685800
H21	H2	0.676100	0.033600	0.795000
H31	H3	0.801100	0.036900	0.665800
H41	H4	0.434500	0.755200	0.837100
H51	H5	0.639100	0.759300	0.620000
H61	H6	0.366200	0.017400	0.785500
H71	H7	0.308500	0.924200	0.840700
H81	H8	0.690200	0.860600	0.082100
H91	H9	0.382600	0.823700	0.988200
H101	H10	0.746600	0.061200	0.902000
H111	H11	0.803500	0.981800	0.995200
H121	H12	0.173700	0.806800	0.796800
H131	H13	0.964300	0.821100	0.008300
H141	H14	0.009000	0.049700	0.646400
H151	H15	0.144300	0.965400	0.660900
H161	H16	0.855500	0.814800	0.506600
H171	H17	0.166400	0.835300	0.609500
H181	H18	0.640000	0.928200	0.499000
H191	H19	0.623000	0.019900	0.525400
H201	H20	0.478800	0.939700	0.314200
H211	H21	0.323900	0.966400	0.205000
H221	H22	0.198900	0.963100	0.334200
H231	H23	0.565500	0.244800	0.162900
H241	H24	0.360900	0.240700	0.380000
H251	H25	0.633800	0.982600	0.214500
H261	H26	0.691500	0.075800	0.159300
H271	H27	0.309800	0.139400	0.917900
H281	H28	0.617400	0.176300	0.011800
H291	H29	0.253400	0.938800	0.098000
H301	H30	0.196500	0.018200	0.004800
H311	H31	0.826300	0.193200	0.203200
H321	H32	0.035700	0.178900	0.991700
H331	H33	0.991000	0.950300	0.353600
H341	H34	0.855700	0.034600	0.339100
H351	H35	0.144500	0.185200	0.493400
H361	H36	0.833600	0.164700	0.390500
H371	H37	0.360000	0.071800	0.501000
H381	H38	0.377000	0.980100	0.474600
C11	C1	0.536300	0.743500	0.731500
C21	C2	0.470700	0.791500	0.784100
C31	C3	0.458100	0.893100	0.758800
C41	C4	0.513200	0.944600	0.678600
C51	C5	0.584700	0.895600	0.627200
C61	C6	0.593800	0.793800	0.654300
C71	C7	0.390200	0.944400	0.818800
C81	C8	0.534900	0.830600	0.046900
C91	C9	0.637500	0.875500	0.034500
C101	C10	0.662200	0.942400	0.952100
C111	C11	0.582100	0.962700	0.882900
C121	C12	0.476400	0.918300	0.895200
C131	C13	0.453300	0.853000	0.978200
C141	C14	0.776300	0.989100	0.938700
C151	C15	0.080300	0.798100	0.910600
C161	C16	0.103300	0.841000	0.821500
C171	C17	0.023300	0.934000	0.768300
C181	C18	0.916400	0.984400	0.805700
C191	C19	0.894100	0.940900	0.896400
C201	C20	0.977500	0.849100	0.947800
C211	C21	0.048800	0.976900	0.670600
C221	C22	0.023500	0.813700	0.555000
C231	C23	0.889300	0.844000	0.536000
C241	C24	0.805200	0.917300	0.560400
C251	C25	0.858100	0.960500	0.603800
C261	C26	0.993700	0.930800	0.622100
C271	C27	0.075300	0.856500	0.597400
C281	C28	0.657200	0.946700	0.545200
C291	C29	0.463700	0.256500	0.268500
C301	C30	0.529300	0.208500	0.215900
C311	C31	0.541900	0.106900	0.241200
C321	C32	0.486800	0.055400	0.321400
C331	C33	0.415300	0.104400	0.372800
C341	C34	0.406200	0.206200	0.345700
C351	C35	0.609800	0.055600	0.181200
C361	C36	0.465100	0.169400	0.953100
C371	C37	0.362500	0.124500	0.965500
C381	C38	0.337800	0.057600	0.047900
C391	C39	0.417900	0.037300	0.117100
C401	C40	0.523600	0.081700	0.104800
C411	C41	0.546700	0.147000	0.021800
C421	C42	0.223700	0.010900	0.061300
C431	C43	0.919700	0.201900	0.089400
C441	C44	0.896700	0.159000	0.178500
C451	C45	0.976700	0.066000	0.231700
C461	C46	0.083600	0.015600	0.194300
C471	C47	0.105900	0.059100	0.103600
C481	C48	0.022500	0.150900	0.052200
C491	C49	0.951200	0.023100	0.329400
C501	C50	0.976500	0.186300	0.445000
C511	C51	0.110700	0.156000	0.464000
C521	C52	0.194800	0.082700	0.439600
C531	C53	0.141900	0.039500	0.396200
C541	C54	0.006300	0.069200	0.377900
C551	C55	0.924700	0.143500	0.402600
C561	C56	0.342800	0.053300	0.454800
S11	S1	0.550770	0.612980	0.767580
S21	S2	0.510650	0.741600	0.151160
S31	S3	0.177570	0.679250	0.978460
S41	S4	0.125640	0.719190	0.524120
S51	S5	0.449230	0.387020	0.232420
S61	S6	0.489350	0.258400	0.848840
S71	S7	0.822430	0.320750	0.021540
S81	S8	0.874360	0.280810	0.475880
N11	N1	0.946800	0.844900	0.196100
N21	N2	0.053200	0.155100	0.803900
O11	O1	0.622100	0.563700	0.850400
O21	O2	0.624200	0.581300	0.703200
O31	O3	0.419400	0.601200	0.778800
O41	O4	0.494500	0.047300	0.648600
O51	O5	0.593500	0.743100	0.212500
O61	O6	0.543700	0.644500	0.144300
O71	O7	0.369500	0.769800	0.170200
O81	O8	0.600500	0.026200	0.799700
O91	O9	0.087600	0.625000	0.036700
O101	O10	0.245400	0.630200	0.921000
O111	O11	0.271700	0.692200	0.024800
O121	O12	0.831800	0.071800	0.754600
O131	O13	0.249100	0.682200	0.572200
O141	O14	0.056600	0.641800	0.545500
O151	O15	0.146400	0.765200	0.430100
O161	O16	0.770500	0.031700	0.625400
O171	O17	0.838900	0.879700	0.162400
O181	O18	0.956500	0.813100	0.278900
O191	O19	0.052100	0.837300	0.154100
O201	O20	0.377900	0.436300	0.149600
O211	O21	0.375800	0.418700	0.296800
O221	O22	0.580600	0.398800	0.221200
O231	O23	0.505500	0.952700	0.351400
O241	O24	0.406500	0.256900	0.787500
O251	O25	0.456300	0.355500	0.855700
O261	O26	0.630500	0.230200	0.829800
O271	O27	0.399500	0.973800	0.200300
O281	O28	0.912400	0.375000	0.963300
O291	O29	0.754600	0.369800	0.079000
O301	O30	0.728300	0.307800	0.975200
O311	O31	0.168200	0.928200	0.245400
O321	O32	0.750900	0.317800	0.427800
O331	O33	0.943400	0.358200	0.454500
O341	O34	0.853600	0.234800	0.569900
O351	O35	0.229500	0.968300	0.374600
O361	O36	0.161100	0.120300	0.837600
O371	O37	0.043500	0.186900	0.721100
O381	O38	0.947900	0.162700	0.845900
