data_IDAZEU_clean_PM
_symmetry_space_group_name_H-M	'P1'
_cell_length_a	8.914200
_cell_length_b	9.180400
_cell_length_c	9.180400
_cell_angle_alpha	76.366300
_cell_angle_beta	60.954500
_cell_angle_gamma	60.954600
_symmetry_Int_Tables_number 1

loop_
_symmetry_equiv_pos_as_xyz
'x,y,z'

loop_
_atom_site_label
_atom_site_type_symbol
_atom_site_fract_x
_atom_site_fract_y
_atom_site_fract_z
Yb11	Yb1	0.875000	0.250000	0.250000
Yb21	Yb2	0.125000	0.750000	0.750000
K11	K1	0.375000	0.250000	0.250000
K21	K2	0.625000	0.750000	0.750000
C11	C1	0.444200	0.471800	0.479400
C21	C2	0.895400	0.028200	0.020600
C31	C3	0.923600	0.520600	0.971800
C41	C4	0.916000	0.979400	0.528200
C51	C5	0.555800	0.528200	0.520600
C61	C6	0.104600	0.971800	0.979400
C71	C7	0.076400	0.479400	0.028200
C81	C8	0.084000	0.020600	0.471800
O11	O1	0.539020	0.358880	0.375680
O21	O2	0.264050	0.547850	0.556850
O31	O3	0.773580	0.141120	0.124320
O41	O4	0.868750	0.952150	0.943150
O51	O5	0.914700	0.624320	0.858880
O61	O6	0.820900	0.443150	0.047850
O71	O7	0.897900	0.875680	0.641120
O81	O8	0.811900	0.056850	0.452150
O91	O9	0.460980	0.641120	0.624320
O101	O10	0.735950	0.452150	0.443150
O111	O11	0.226420	0.858880	0.875680
O121	O12	0.131250	0.047850	0.056850
O131	O13	0.085300	0.375680	0.141120
O141	O14	0.179100	0.556850	0.952150
O151	O15	0.102100	0.124320	0.358880
O161	O16	0.188100	0.943150	0.547850
