data_IDIXAU_clean_PM
_symmetry_space_group_name_H-M	'P1'
_cell_length_a	20.165800
_cell_length_b	18.551800
_cell_length_c	12.158000
_cell_angle_alpha	90.000000
_cell_angle_beta	95.331000
_cell_angle_gamma	90.000000
_symmetry_Int_Tables_number 1

loop_
_symmetry_equiv_pos_as_xyz
'x,y,z'

loop_
_atom_site_label
_atom_site_type_symbol
_atom_site_fract_x
_atom_site_fract_y
_atom_site_fract_z
O11	O1	0.038100	0.999300	0.161500
H11	H1	0.078800	0.990000	0.162000
O21	O2	0.948300	0.900000	0.007900
O31	O3	0.928900	0.864700	0.177300
O41	O4	0.067100	0.861500	0.826800
O51	O5	0.087300	0.944400	0.960100
C11	C1	0.915000	0.867100	0.073000
C21	C2	0.854800	0.825500	0.029000
C31	C3	0.818800	0.786900	0.099000
H21	H2	0.832800	0.785900	0.175800
C41	C4	0.760700	0.748300	0.057900
C51	C5	0.834800	0.826800	0.913500
H31	H3	0.860700	0.852100	0.864700
C61	C6	0.722400	0.708900	0.127100
H41	H4	0.736100	0.706700	0.204000
C71	C7	0.098700	0.885000	0.913500
C81	C8	0.157200	0.841300	0.960300
C91	C9	0.195900	0.864500	0.058000
H51	H5	0.184400	0.907600	0.093800
C101	C10	0.249500	0.824900	0.100500
H61	H6	0.274500	0.840900	0.166000
C111	C11	0.175500	0.779400	0.910100
H71	H7	0.149500	0.763300	0.845600
C121	C12	0.268300	0.761400	0.049700
O61	O6	0.538100	0.499300	0.161500
H81	H8	0.578800	0.490000	0.162000
O71	O7	0.448300	0.400000	0.007900
O81	O8	0.428900	0.364700	0.177300
O91	O9	0.567100	0.361500	0.826800
O101	O10	0.587300	0.444400	0.960100
C131	C13	0.415000	0.367100	0.073000
C141	C14	0.354800	0.325500	0.029000
C151	C15	0.318800	0.286900	0.099000
H91	H9	0.332800	0.285900	0.175800
C161	C16	0.260700	0.248300	0.057900
C171	C17	0.334800	0.326800	0.913500
H101	H10	0.360700	0.352100	0.864700
C181	C18	0.222400	0.208900	0.127100
H111	H11	0.236100	0.206700	0.204000
C191	C19	0.598700	0.385000	0.913500
C201	C20	0.657200	0.341300	0.960300
C211	C21	0.695900	0.364500	0.058000
H121	H12	0.684400	0.407600	0.093800
C221	C22	0.749500	0.324900	0.100500
H131	H13	0.774500	0.340900	0.166000
C231	C23	0.675500	0.279400	0.910100
H141	H14	0.649500	0.263300	0.845600
C241	C24	0.768300	0.261400	0.049700
O111	O11	0.961900	0.999300	0.338500
H151	H15	0.921200	0.990000	0.338000
O121	O12	0.051700	0.900000	0.492100
O131	O13	0.071100	0.864700	0.322700
O141	O14	0.932900	0.861500	0.673200
O151	O15	0.912700	0.944400	0.539900
C251	C25	0.085000	0.867100	0.427000
C261	C26	0.145200	0.825500	0.471000
C271	C27	0.181200	0.786900	0.401000
H161	H16	0.167200	0.785900	0.324200
C281	C28	0.239300	0.748300	0.442100
C291	C29	0.165200	0.826800	0.586500
H171	H17	0.139300	0.852100	0.635300
C301	C30	0.277600	0.708900	0.372900
H181	H18	0.263900	0.706700	0.296000
C311	C31	0.901300	0.885000	0.586500
C321	C32	0.842800	0.841300	0.539700
C331	C33	0.804100	0.864500	0.442000
H191	H19	0.815600	0.907600	0.406200
C341	C34	0.750500	0.824900	0.399500
H201	H20	0.725500	0.840900	0.334000
C351	C35	0.824500	0.779400	0.589900
H211	H21	0.850500	0.763300	0.654400
C361	C36	0.731700	0.761400	0.450300
O161	O16	0.461900	0.499300	0.338500
H221	H22	0.421200	0.490000	0.338000
O171	O17	0.551700	0.400000	0.492100
O181	O18	0.571100	0.364700	0.322700
O191	O19	0.432900	0.361500	0.673200
O201	O20	0.412700	0.444400	0.539900
C371	C37	0.585000	0.367100	0.427000
C381	C38	0.645200	0.325500	0.471000
C391	C39	0.681200	0.286900	0.401000
H231	H23	0.667200	0.285900	0.324200
C401	C40	0.739300	0.248300	0.442100
C411	C41	0.665200	0.326800	0.586500
H241	H24	0.639300	0.352100	0.635300
C421	C42	0.777600	0.208900	0.372900
H251	H25	0.763900	0.206700	0.296000
C431	C43	0.401300	0.385000	0.586500
C441	C44	0.342800	0.341300	0.539700
C451	C45	0.304100	0.364500	0.442000
H261	H26	0.315600	0.407600	0.406200
C461	C46	0.250500	0.324900	0.399500
H271	H27	0.225500	0.340900	0.334000
C471	C47	0.324500	0.279400	0.589900
H281	H28	0.350500	0.263300	0.654400
C481	C48	0.231700	0.261400	0.450300
O211	O21	0.961900	0.000700	0.838500
H291	H29	0.921200	0.010000	0.838000
O221	O22	0.051700	0.100000	0.992100
O231	O23	0.071100	0.135300	0.822700
O241	O24	0.932900	0.138500	0.173200
O251	O25	0.912700	0.055600	0.039900
C491	C49	0.085000	0.132900	0.927000
C501	C50	0.145200	0.174500	0.971000
C511	C51	0.181200	0.213100	0.901000
H301	H30	0.167200	0.214100	0.824200
C521	C52	0.239300	0.251700	0.942100
C531	C53	0.165200	0.173200	0.086500
H311	H31	0.139300	0.147900	0.135300
C541	C54	0.277600	0.291100	0.872900
H321	H32	0.263900	0.293300	0.796000
C551	C55	0.901300	0.115000	0.086500
C561	C56	0.842800	0.158700	0.039700
C571	C57	0.804100	0.135500	0.942000
H331	H33	0.815600	0.092400	0.906200
C581	C58	0.750500	0.175100	0.899500
H341	H34	0.725500	0.159100	0.834000
C591	C59	0.824500	0.220600	0.089900
H351	H35	0.850500	0.236700	0.154400
C601	C60	0.731700	0.238600	0.950300
O261	O26	0.461900	0.500700	0.838500
H361	H36	0.421200	0.510000	0.838000
O271	O27	0.551700	0.600000	0.992100
O281	O28	0.571100	0.635300	0.822700
O291	O29	0.432900	0.638500	0.173200
O301	O30	0.412700	0.555600	0.039900
C611	C61	0.585000	0.632900	0.927000
C621	C62	0.645200	0.674500	0.971000
C631	C63	0.681200	0.713100	0.901000
H371	H37	0.667200	0.714100	0.824200
C641	C64	0.739300	0.751700	0.942100
C651	C65	0.665200	0.673200	0.086500
H381	H38	0.639300	0.647900	0.135300
C661	C66	0.777600	0.791100	0.872900
H391	H39	0.763900	0.793300	0.796000
C671	C67	0.401300	0.615000	0.086500
C681	C68	0.342800	0.658700	0.039700
C691	C69	0.304100	0.635500	0.942000
H401	H40	0.315600	0.592400	0.906200
C701	C70	0.250500	0.675100	0.899500
H411	H41	0.225500	0.659100	0.834000
C711	C71	0.324500	0.720600	0.089900
H421	H42	0.350500	0.736700	0.154400
C721	C72	0.231700	0.738600	0.950300
O311	O31	0.038100	0.000700	0.661500
H431	H43	0.078800	0.010000	0.662000
O321	O32	0.948300	0.100000	0.507900
O331	O33	0.928900	0.135300	0.677300
O341	O34	0.067100	0.138500	0.326800
O351	O35	0.087300	0.055600	0.460100
C731	C73	0.915000	0.132900	0.573000
C741	C74	0.854800	0.174500	0.529000
C751	C75	0.818800	0.213100	0.599000
H441	H44	0.832800	0.214100	0.675800
C761	C76	0.760700	0.251700	0.557900
C771	C77	0.834800	0.173200	0.413500
H451	H45	0.860700	0.147900	0.364700
C781	C78	0.722400	0.291100	0.627100
H461	H46	0.736100	0.293300	0.704000
C791	C79	0.098700	0.115000	0.413500
C801	C80	0.157200	0.158700	0.460300
C811	C81	0.195900	0.135500	0.558000
H471	H47	0.184400	0.092400	0.593800
C821	C82	0.249500	0.175100	0.600500
H481	H48	0.274500	0.159100	0.666000
C831	C83	0.175500	0.220600	0.410100
H491	H49	0.149500	0.236700	0.345600
C841	C84	0.268300	0.238600	0.549700
O361	O36	0.538100	0.500700	0.661500
H501	H50	0.578800	0.510000	0.662000
O371	O37	0.448300	0.600000	0.507900
O381	O38	0.428900	0.635300	0.677300
O391	O39	0.567100	0.638500	0.326800
O401	O40	0.587300	0.555600	0.460100
C851	C85	0.415000	0.632900	0.573000
C861	C86	0.354800	0.674500	0.529000
C871	C87	0.318800	0.713100	0.599000
H511	H51	0.332800	0.714100	0.675800
C881	C88	0.260700	0.751700	0.557900
C891	C89	0.334800	0.673200	0.413500
H521	H52	0.360700	0.647900	0.364700
C901	C90	0.222400	0.791100	0.627100
H531	H53	0.236100	0.793300	0.704000
C911	C91	0.598700	0.615000	0.413500
C921	C92	0.657200	0.658700	0.460300
C931	C93	0.695900	0.635500	0.558000
H541	H54	0.684400	0.592400	0.593800
C941	C94	0.749500	0.675100	0.600500
H551	H55	0.774500	0.659100	0.666000
C951	C95	0.675500	0.720600	0.410100
H561	H56	0.649500	0.736700	0.345600
C961	C96	0.768300	0.738600	0.549700
Zn11	Zn1	0.000000	0.000000	0.000000
Zn21	Zn2	0.500000	0.500000	0.000000
Zn31	Zn3	0.000000	0.000000	0.500000
Zn41	Zn4	0.500000	0.500000	0.500000
Zn51	Zn5	0.000000	0.921230	0.250000
Zn61	Zn6	0.000000	0.077850	0.250000
Zn71	Zn7	0.500000	0.421230	0.250000
Zn81	Zn8	0.500000	0.577850	0.250000
Zn91	Zn9	0.000000	0.078770	0.750000
Zn101	Zn10	0.000000	0.922150	0.750000
Zn111	Zn11	0.500000	0.578770	0.750000
Zn121	Zn12	0.500000	0.422150	0.750000
