data_IFAHEC_clean_PM
_symmetry_space_group_name_H-M	'P1'
_cell_length_a	24.814000
_cell_length_b	18.458000
_cell_length_c	10.257200
_cell_angle_alpha	90.000000
_cell_angle_beta	90.000000
_cell_angle_gamma	90.000000
_symmetry_Int_Tables_number 1

loop_
_symmetry_equiv_pos_as_xyz
'x,y,z'

loop_
_atom_site_label
_atom_site_type_symbol
_atom_site_fract_x
_atom_site_fract_y
_atom_site_fract_z
Ga11	Ga1	0.437500	0.915780	0.112770
Ga21	Ga2	0.338390	0.152860	0.927700
Zn11	Zn1	0.559360	0.930340	0.378610
Ga31	Ga3	0.235360	0.082950	0.601710
Ga41	Ga4	0.346150	0.827210	0.590970
Ga51	Ga5	0.241470	0.893120	0.897620
Ga61	Ga6	0.276310	0.702360	0.918420
Ga71	Ga7	0.231910	0.771910	0.422600
P11	P1	0.232530	0.064900	0.896000
P21	P2	0.437850	0.903920	0.414900
P31	P3	0.435730	0.084280	0.080200
P41	P4	0.234620	0.910300	0.605400
P51	P5	0.360660	0.831740	0.905700
P61	P6	0.645410	0.855110	0.578900
P71	P7	0.300160	0.679900	0.622300
P81	P8	0.291420	0.294510	0.875400
F11	F1	0.246700	0.788300	0.832900
F21	F2	0.237400	0.187800	0.666900
F31	F3	0.307100	0.812300	0.418500
O11	O1	0.291700	0.086000	0.868100
O21	O2	0.204000	0.064100	0.761200
O31	O3	0.232000	0.990000	0.958300
O41	O4	0.202500	0.117700	0.983900
O51	O5	0.496100	0.905000	0.465300
O61	O6	0.412200	0.979500	0.419200
O71	O7	0.436300	0.873100	0.276400
O81	O8	0.408600	0.854100	0.505600
O91	O9	0.404000	0.131300	0.986600
O101	O10	0.428500	0.114400	0.219600
O111	O11	0.413300	0.006500	0.072600
O121	O12	0.494400	0.089900	0.036700
O131	O13	0.206600	0.855400	0.519500
O141	O14	0.294900	0.895200	0.628600
O151	O15	0.228100	0.984200	0.541500
O161	O16	0.207000	0.908600	0.741500
O171	O17	0.345000	0.753900	0.930200
O181	O18	0.406900	0.848700	0.999400
O191	O19	0.380500	0.844100	0.766200
O201	O20	0.314600	0.885900	0.936700
O211	O21	0.692200	0.909200	0.558600
O221	O22	0.661700	0.776600	0.573500
O231	O23	0.619500	0.870000	0.713200
O241	O24	0.604000	0.867500	0.472400
O251	O25	0.350000	0.727900	0.609800
O261	O26	0.250000	0.722500	0.583300
O271	O27	0.308300	0.613400	0.535400
O281	O28	0.294400	0.652600	0.762300
O291	O29	0.283400	0.322700	0.737700
O301	O30	0.342200	0.247300	0.881800
O311	O31	0.300500	0.360300	0.963900
O321	O32	0.243500	0.250100	0.919500
O331	O33	0.300300	0.165800	0.096200
Ga81	Ga8	0.562500	0.084220	0.112770
Ga91	Ga9	0.661610	0.847140	0.927700
Zn21	Zn2	0.440640	0.069660	0.378610
Ga101	Ga10	0.764640	0.917050	0.601710
Ga111	Ga11	0.653850	0.172790	0.590970
Ga121	Ga12	0.758530	0.106880	0.897620
Ga131	Ga13	0.723690	0.297640	0.918420
Ga141	Ga14	0.768090	0.228090	0.422600
P91	P9	0.767470	0.935100	0.896000
P101	P10	0.562150	0.096080	0.414900
P111	P11	0.564270	0.915720	0.080200
P121	P12	0.765380	0.089700	0.605400
P131	P13	0.639340	0.168260	0.905700
P141	P14	0.354590	0.144890	0.578900
P151	P15	0.699840	0.320100	0.622300
P161	P16	0.708580	0.705490	0.875400
F41	F4	0.753300	0.211700	0.832900
F51	F5	0.762600	0.812200	0.666900
F61	F6	0.692900	0.187700	0.418500
O341	O34	0.708300	0.914000	0.868100
O351	O35	0.796000	0.935900	0.761200
O361	O36	0.768000	0.010000	0.958300
O371	O37	0.797500	0.882300	0.983900
O381	O38	0.503900	0.095000	0.465300
O391	O39	0.587800	0.020500	0.419200
O401	O40	0.563700	0.126900	0.276400
O411	O41	0.591400	0.145900	0.505600
O421	O42	0.596000	0.868700	0.986600
O431	O43	0.571500	0.885600	0.219600
O441	O44	0.586700	0.993500	0.072600
O451	O45	0.505600	0.910100	0.036700
O461	O46	0.793400	0.144600	0.519500
O471	O47	0.705100	0.104800	0.628600
O481	O48	0.771900	0.015800	0.541500
O491	O49	0.793000	0.091400	0.741500
O501	O50	0.655000	0.246100	0.930200
O511	O51	0.593100	0.151300	0.999400
O521	O52	0.619500	0.155900	0.766200
O531	O53	0.685400	0.114100	0.936700
O541	O54	0.307800	0.090800	0.558600
O551	O55	0.338300	0.223400	0.573500
O561	O56	0.380500	0.130000	0.713200
O571	O57	0.396000	0.132500	0.472400
O581	O58	0.650000	0.272100	0.609800
O591	O59	0.750000	0.277500	0.583300
O601	O60	0.691700	0.386600	0.535400
O611	O61	0.705600	0.347400	0.762300
O621	O62	0.716600	0.677300	0.737700
O631	O63	0.657800	0.752700	0.881800
O641	O64	0.699500	0.639700	0.963900
O651	O65	0.756500	0.749900	0.919500
O661	O66	0.699700	0.834200	0.096200
Ga151	Ga15	0.062500	0.415780	0.887230
Ga161	Ga16	0.161610	0.652860	0.072300
Zn31	Zn3	0.940640	0.430340	0.621390
Ga171	Ga17	0.264640	0.582950	0.398290
Ga181	Ga18	0.153850	0.327210	0.409030
Ga191	Ga19	0.258530	0.393120	0.102380
Ga201	Ga20	0.223690	0.202360	0.081580
Ga211	Ga21	0.268090	0.271910	0.577400
P171	P17	0.267470	0.564900	0.104000
P181	P18	0.062150	0.403920	0.585100
P191	P19	0.064270	0.584280	0.919800
P201	P20	0.265380	0.410300	0.394600
P211	P21	0.139340	0.331740	0.094300
P221	P22	0.854590	0.355110	0.421100
P231	P23	0.199840	0.179900	0.377700
P241	P24	0.208580	0.794510	0.124600
F71	F7	0.253300	0.288300	0.167100
F81	F8	0.262600	0.687800	0.333100
F91	F9	0.192900	0.312300	0.581500
O671	O67	0.208300	0.586000	0.131900
O681	O68	0.296000	0.564100	0.238800
O691	O69	0.268000	0.490000	0.041700
O701	O70	0.297500	0.617700	0.016100
O711	O71	0.003900	0.405000	0.534700
O721	O72	0.087800	0.479500	0.580800
O731	O73	0.063700	0.373100	0.723600
O741	O74	0.091400	0.354100	0.494400
O751	O75	0.096000	0.631300	0.013400
O761	O76	0.071500	0.614400	0.780400
O771	O77	0.086700	0.506500	0.927400
O781	O78	0.005600	0.589900	0.963300
O791	O79	0.293400	0.355400	0.480500
O801	O80	0.205100	0.395200	0.371400
O811	O81	0.271900	0.484200	0.458500
O821	O82	0.293000	0.408600	0.258500
O831	O83	0.155000	0.253900	0.069800
O841	O84	0.093100	0.348700	0.000600
O851	O85	0.119500	0.344100	0.233800
O861	O86	0.185400	0.385900	0.063300
O871	O87	0.807800	0.409200	0.441400
O881	O88	0.838300	0.276600	0.426500
O891	O89	0.880500	0.370000	0.286800
O901	O90	0.896000	0.367500	0.527600
O911	O91	0.150000	0.227900	0.390200
O921	O92	0.250000	0.222500	0.416700
O931	O93	0.191700	0.113400	0.464600
O941	O94	0.205600	0.152600	0.237700
O951	O95	0.216600	0.822700	0.262300
O961	O96	0.157800	0.747300	0.118200
O971	O97	0.199500	0.860300	0.036100
O981	O98	0.256500	0.750100	0.080500
O991	O99	0.199700	0.665800	0.903800
Ga221	Ga22	0.937500	0.584220	0.887230
Ga231	Ga23	0.838390	0.347140	0.072300
Zn41	Zn4	0.059360	0.569660	0.621390
Ga241	Ga24	0.735360	0.417050	0.398290
Ga251	Ga25	0.846150	0.672790	0.409030
Ga261	Ga26	0.741470	0.606880	0.102380
Ga271	Ga27	0.776310	0.797640	0.081580
Ga281	Ga28	0.731910	0.728090	0.577400
P251	P25	0.732530	0.435100	0.104000
P261	P26	0.937850	0.596080	0.585100
P271	P27	0.935730	0.415720	0.919800
P281	P28	0.734620	0.589700	0.394600
P291	P29	0.860660	0.668260	0.094300
P301	P30	0.145410	0.644890	0.421100
P311	P31	0.800160	0.820100	0.377700
P321	P32	0.791420	0.205490	0.124600
F101	F10	0.746700	0.711700	0.167100
F111	F11	0.737400	0.312200	0.333100
F121	F12	0.807100	0.687700	0.581500
O1001	O100	0.791700	0.414000	0.131900
O1011	O101	0.704000	0.435900	0.238800
O1021	O102	0.732000	0.510000	0.041700
O1031	O103	0.702500	0.382300	0.016100
O1041	O104	0.996100	0.595000	0.534700
O1051	O105	0.912200	0.520500	0.580800
O1061	O106	0.936300	0.626900	0.723600
O1071	O107	0.908600	0.645900	0.494400
O1081	O108	0.904000	0.368700	0.013400
O1091	O109	0.928500	0.385600	0.780400
O1101	O110	0.913300	0.493500	0.927400
O1111	O111	0.994400	0.410100	0.963300
O1121	O112	0.706600	0.644600	0.480500
O1131	O113	0.794900	0.604800	0.371400
O1141	O114	0.728100	0.515800	0.458500
O1151	O115	0.707000	0.591400	0.258500
O1161	O116	0.845000	0.746100	0.069800
O1171	O117	0.906900	0.651300	0.000600
O1181	O118	0.880500	0.655900	0.233800
O1191	O119	0.814600	0.614100	0.063300
O1201	O120	0.192200	0.590800	0.441400
O1211	O121	0.161700	0.723400	0.426500
O1221	O122	0.119500	0.630000	0.286800
O1231	O123	0.104000	0.632500	0.527600
O1241	O124	0.850000	0.772100	0.390200
O1251	O125	0.750000	0.777500	0.416700
O1261	O126	0.808300	0.886600	0.464600
O1271	O127	0.794400	0.847400	0.237700
O1281	O128	0.783400	0.177300	0.262300
O1291	O129	0.842200	0.252700	0.118200
O1301	O130	0.800500	0.139700	0.036100
O1311	O131	0.743500	0.249900	0.080500
O1321	O132	0.800300	0.334200	0.903800
