data_IFAQUC_clean_PM
_symmetry_space_group_name_H-M	'P1'
_cell_length_a	8.907000
_cell_length_b	18.932000
_cell_length_c	28.644000
_cell_angle_alpha	90.000000
_cell_angle_beta	98.641000
_cell_angle_gamma	90.000000
_symmetry_Int_Tables_number 1

loop_
_symmetry_equiv_pos_as_xyz
'x,y,z'

loop_
_atom_site_label
_atom_site_type_symbol
_atom_site_fract_x
_atom_site_fract_y
_atom_site_fract_z
Co11	Co1	0.324360	0.038700	0.780480
Co21	Co2	0.909960	0.776870	0.038060
Co31	Co3	0.175640	0.538700	0.719520
Co41	Co4	0.590040	0.276870	0.461940
Co51	Co5	0.675640	0.961300	0.219520
Co61	Co6	0.090040	0.223130	0.961940
Co71	Co7	0.824360	0.461300	0.280480
Co81	Co8	0.409960	0.723130	0.538060
Mo11	Mo1	0.397310	0.905000	0.864210
Mo21	Mo2	0.567730	0.817710	0.958740
Mo31	Mo3	0.532420	0.629530	0.926390
Mo41	Mo4	0.463380	0.630660	0.807600
Mo51	Mo5	0.356760	0.792550	0.770510
Mo61	Mo6	0.102690	0.405000	0.635790
Mo71	Mo7	0.932270	0.317710	0.541260
Mo81	Mo8	0.967580	0.129530	0.573610
Mo91	Mo9	0.036620	0.130660	0.692400
Mo101	Mo10	0.143240	0.292550	0.729490
Mo111	Mo11	0.602690	0.095000	0.135790
Mo121	Mo12	0.432270	0.182290	0.041260
Mo131	Mo13	0.467580	0.370470	0.073610
Mo141	Mo14	0.536620	0.369340	0.192400
Mo151	Mo15	0.643240	0.207450	0.229490
Mo161	Mo16	0.897310	0.595000	0.364210
Mo171	Mo17	0.067730	0.682290	0.458740
Mo181	Mo18	0.032420	0.870470	0.426390
Mo191	Mo19	0.963380	0.869340	0.307600
Mo201	Mo20	0.856760	0.707450	0.270510
P11	P1	0.267170	0.739150	0.877710
P21	P2	0.670970	0.770110	0.856940
P31	P3	0.232830	0.239150	0.622290
P41	P4	0.829030	0.270110	0.643060
P51	P5	0.732830	0.260850	0.122290
P61	P6	0.329030	0.229890	0.143060
P71	P7	0.767170	0.760850	0.377710
P81	P8	0.170970	0.729890	0.356940
H11	H1	0.095600	0.925400	0.733300
H21	H2	0.847300	0.891600	0.732600
H31	H3	0.706800	0.943700	0.785800
H41	H4	0.823500	0.027500	0.838800
H51	H5	0.584100	0.224000	0.883800
H61	H6	0.804200	0.231800	0.849700
H71	H7	0.819000	0.171700	0.779800
H81	H8	0.619200	0.099600	0.748600
H91	H9	0.222200	0.374600	0.975500
H101	H10	0.346100	0.455900	0.934800
H111	H11	0.424200	0.422300	0.864800
H121	H12	0.390000	0.306600	0.839100
H131	H13	0.963600	0.978700	0.906000
H141	H14	0.802500	0.948900	0.959900
H151	H15	0.734600	0.035200	0.010300
H161	H16	0.841600	0.146400	0.009300
H171	H17	0.070500	0.815800	0.855900
H181	H18	0.046100	0.775300	0.901900
H191	H19	0.845200	0.807500	0.811600
H201	H20	0.772400	0.736500	0.791900
H211	H21	0.007700	0.700400	0.816200
H221	H22	0.934900	0.682700	0.861400
H231	H23	0.404400	0.425400	0.766700
H241	H24	0.652700	0.391600	0.767400
H251	H25	0.793200	0.443700	0.714200
H261	H26	0.676500	0.527500	0.661200
H271	H27	0.915900	0.724000	0.616200
H281	H28	0.695800	0.731800	0.650300
H291	H29	0.681000	0.671700	0.720200
H301	H30	0.880800	0.599600	0.751400
H311	H31	0.277800	0.874600	0.524500
H321	H32	0.153900	0.955900	0.565200
H331	H33	0.075800	0.922300	0.635200
H341	H34	0.110000	0.806600	0.660900
H351	H35	0.536400	0.478700	0.594000
H361	H36	0.697500	0.448900	0.540100
H371	H37	0.765400	0.535200	0.489700
H381	H38	0.658400	0.646400	0.490700
H391	H39	0.429500	0.315800	0.644100
H401	H40	0.453900	0.275300	0.598100
H411	H41	0.654800	0.307500	0.688400
H421	H42	0.727600	0.236500	0.708100
H431	H43	0.492300	0.200400	0.683800
H441	H44	0.565100	0.182700	0.638600
H451	H45	0.904400	0.074600	0.266700
H461	H46	0.152700	0.108400	0.267400
H471	H47	0.293200	0.056300	0.214200
H481	H48	0.176500	0.972500	0.161200
H491	H49	0.415900	0.776000	0.116200
H501	H50	0.195800	0.768200	0.150300
H511	H51	0.181000	0.828300	0.220200
H521	H52	0.380800	0.900400	0.251400
H531	H53	0.777800	0.625400	0.024500
H541	H54	0.653900	0.544100	0.065200
H551	H55	0.575800	0.577700	0.135200
H561	H56	0.610000	0.693400	0.160900
H571	H57	0.036400	0.021300	0.094000
H581	H58	0.197500	0.051100	0.040100
H591	H59	0.265400	0.964800	0.989700
H601	H60	0.158400	0.853600	0.990700
H611	H61	0.929500	0.184200	0.144100
H621	H62	0.953900	0.224700	0.098100
H631	H63	0.154800	0.192500	0.188400
H641	H64	0.227600	0.263500	0.208100
H651	H65	0.992300	0.299600	0.183800
H661	H66	0.065100	0.317300	0.138600
H671	H67	0.595600	0.574600	0.233300
H681	H68	0.347300	0.608400	0.232600
H691	H69	0.206800	0.556300	0.285800
H701	H70	0.323500	0.472500	0.338800
H711	H71	0.084100	0.276000	0.383800
H721	H72	0.304200	0.268200	0.349700
H731	H73	0.319000	0.328300	0.279800
H741	H74	0.119200	0.400400	0.248600
H751	H75	0.722200	0.125400	0.475500
H761	H76	0.846100	0.044100	0.434800
H771	H77	0.924200	0.077700	0.364800
H781	H78	0.890000	0.193400	0.339100
H791	H79	0.463600	0.521300	0.406000
H801	H80	0.302500	0.551100	0.459900
H811	H81	0.234600	0.464800	0.510300
H821	H82	0.341600	0.353600	0.509300
H831	H83	0.570500	0.684200	0.355900
H841	H84	0.546100	0.724700	0.401900
H851	H85	0.345200	0.692500	0.311600
H861	H86	0.272400	0.763500	0.291900
H871	H87	0.507700	0.799600	0.316200
H881	H88	0.434900	0.817300	0.361400
C11	C1	0.040400	0.945370	0.755090
C21	C2	0.891100	0.925240	0.754170
C31	C3	0.807900	0.956000	0.785860
C41	C4	0.877900	0.005300	0.817710
C51	C5	0.029600	0.021210	0.817730
C61	C6	0.116200	0.075600	0.848870
C71	C7	0.322900	0.154120	0.850130
C81	C8	0.471200	0.160930	0.833070
C91	C9	0.591600	0.200600	0.855650
C101	C10	0.722900	0.204600	0.835560
C111	C11	0.732900	0.168100	0.794470
C121	C12	0.611500	0.125960	0.775490
C131	C13	0.081600	0.107700	0.890260
C141	C14	0.257800	0.360550	0.948080
C151	C15	0.330400	0.410040	0.923560
C161	C16	0.378300	0.389700	0.882460
C171	C17	0.358600	0.320830	0.867120
C181	C18	0.291000	0.273180	0.894300
C191	C19	0.256900	0.198270	0.881290
C201	C20	0.983500	0.081830	0.924220
C211	C21	0.933900	0.012700	0.926230
C221	C22	0.839400	0.994800	0.958680
C231	C23	0.800900	0.045600	0.989050
C241	C24	0.862800	0.112800	0.987520
C251	C25	0.075500	0.769650	0.870840
C261	C26	0.816100	0.760650	0.820580
C271	C27	0.961300	0.720920	0.841620
C281	C28	0.459600	0.445370	0.744910
C291	C29	0.608900	0.425240	0.745830
C301	C30	0.692100	0.456000	0.714140
C311	C31	0.622100	0.505300	0.682290
C321	C32	0.470400	0.521210	0.682270
C331	C33	0.383800	0.575600	0.651130
C341	C34	0.177100	0.654120	0.649870
C351	C35	0.028800	0.660930	0.666930
C361	C36	0.908400	0.700600	0.644350
C371	C37	0.777100	0.704600	0.664440
C381	C38	0.767100	0.668100	0.705530
C391	C39	0.888500	0.625960	0.724510
C401	C40	0.418400	0.607700	0.609740
C411	C41	0.242200	0.860550	0.551920
C421	C42	0.169600	0.910040	0.576440
C431	C43	0.121700	0.889700	0.617540
C441	C44	0.141400	0.820830	0.632880
C451	C45	0.209000	0.773180	0.605700
C461	C46	0.243100	0.698270	0.618710
C471	C47	0.516500	0.581830	0.575780
C481	C48	0.566100	0.512700	0.573770
C491	C49	0.660600	0.494800	0.541320
C501	C50	0.699100	0.545600	0.510950
C511	C51	0.637200	0.612800	0.512480
C521	C52	0.424500	0.269650	0.629160
C531	C53	0.683900	0.260650	0.679420
C541	C54	0.538700	0.220920	0.658380
C551	C55	0.959600	0.054630	0.244910
C561	C56	0.108900	0.074760	0.245830
C571	C57	0.192100	0.044000	0.214140
C581	C58	0.122100	0.994700	0.182290
C591	C59	0.970400	0.978790	0.182270
C601	C60	0.883800	0.924400	0.151130
C611	C61	0.677100	0.845880	0.149870
C621	C62	0.528800	0.839070	0.166930
C631	C63	0.408400	0.799400	0.144350
C641	C64	0.277100	0.795400	0.164440
C651	C65	0.267100	0.831900	0.205530
C661	C66	0.388500	0.874040	0.224510
C671	C67	0.918400	0.892300	0.109740
C681	C68	0.742200	0.639450	0.051920
C691	C69	0.669600	0.589960	0.076440
C701	C70	0.621700	0.610300	0.117540
C711	C71	0.641400	0.679170	0.132880
C721	C72	0.709000	0.726820	0.105700
C731	C73	0.743100	0.801730	0.118710
C741	C74	0.016500	0.918170	0.075780
C751	C75	0.066100	0.987300	0.073770
C761	C76	0.160600	0.005200	0.041320
C771	C77	0.199100	0.954400	0.010950
C781	C78	0.137200	0.887200	0.012480
C791	C79	0.924500	0.230350	0.129160
C801	C80	0.183900	0.239350	0.179420
C811	C81	0.038700	0.279080	0.158380
C821	C82	0.540400	0.554630	0.255090
C831	C83	0.391100	0.574760	0.254170
C841	C84	0.307900	0.544000	0.285860
C851	C85	0.377900	0.494700	0.317710
C861	C86	0.529600	0.478790	0.317730
C871	C87	0.616200	0.424400	0.348870
C881	C88	0.822900	0.345880	0.350130
C891	C89	0.971200	0.339070	0.333070
C901	C90	0.091600	0.299400	0.355650
C911	C91	0.222900	0.295400	0.335560
C921	C92	0.232900	0.331900	0.294470
C931	C93	0.111500	0.374040	0.275490
C941	C94	0.581600	0.392300	0.390260
C951	C95	0.757800	0.139450	0.448080
C961	C96	0.830400	0.089960	0.423560
C971	C97	0.878300	0.110300	0.382460
C981	C98	0.858600	0.179170	0.367120
C991	C99	0.791000	0.226820	0.394300
C1001	C100	0.756900	0.301730	0.381290
C1011	C101	0.483500	0.418170	0.424220
C1021	C102	0.433900	0.487300	0.426230
C1031	C103	0.339400	0.505200	0.458680
C1041	C104	0.300900	0.454400	0.489050
C1051	C105	0.362800	0.387200	0.487520
C1061	C106	0.575500	0.730350	0.370840
C1071	C107	0.316100	0.739350	0.320580
C1081	C108	0.461300	0.779080	0.341620
N11	N1	0.109000	0.992430	0.785990
N21	N2	0.243300	0.097310	0.833220
N31	N3	0.484400	0.121940	0.794500
N41	N4	0.237100	0.293730	0.933840
N51	N5	0.146400	0.170260	0.902150
N61	N6	0.952000	0.130930	0.955690
N71	N7	0.391000	0.492430	0.714010
N81	N8	0.256700	0.597310	0.666780
N91	N9	0.015600	0.621940	0.705500
N101	N10	0.262900	0.793730	0.566160
N111	N11	0.353600	0.670260	0.597850
N121	N12	0.548000	0.630930	0.544310
N131	N13	0.891000	0.007570	0.214010
N141	N14	0.756700	0.902690	0.166780
N151	N15	0.515600	0.878060	0.205500
N161	N16	0.762900	0.706270	0.066160
N171	N17	0.853600	0.829740	0.097850
N181	N18	0.048000	0.869070	0.044310
N191	N19	0.609000	0.507570	0.285990
N201	N20	0.743300	0.402690	0.333220
N211	N21	0.984400	0.378060	0.294500
N221	N22	0.737100	0.206270	0.433840
N231	N23	0.646400	0.329740	0.402150
N241	N24	0.452000	0.369070	0.455690
O11	O1	0.461400	0.974790	0.833040
O21	O2	0.545600	0.900830	0.919850
O31	O3	0.369500	0.801430	0.897990
O41	O4	0.554800	0.822810	0.831660
O51	O5	0.733300	0.835660	0.996920
O61	O6	0.734500	0.794800	0.906250
O71	O7	0.565900	0.717930	0.958950
O81	O8	0.293200	0.677400	0.911480
O91	O9	0.449500	0.586600	0.867500
O101	O10	0.598900	0.696090	0.861180
O111	O11	0.304500	0.592260	0.775870
O121	O12	0.302400	0.717840	0.828630
O131	O13	0.481400	0.711110	0.767920
O141	O14	0.280600	0.859240	0.810560
O151	O15	0.038600	0.474790	0.666960
O161	O16	0.954400	0.400830	0.580150
O171	O17	0.130500	0.301430	0.602010
O181	O18	0.945200	0.322810	0.668340
O191	O19	0.766700	0.335660	0.503080
O201	O20	0.765500	0.294800	0.593750
O211	O21	0.934100	0.217930	0.541050
O221	O22	0.206800	0.177400	0.588520
O231	O23	0.050500	0.086600	0.632500
O241	O24	0.901100	0.196090	0.638820
O251	O25	0.195500	0.092260	0.724130
O261	O26	0.197600	0.217840	0.671370
O271	O27	0.018600	0.211110	0.732080
O281	O28	0.219400	0.359240	0.689440
O291	O29	0.538600	0.025210	0.166960
O301	O30	0.454400	0.099170	0.080150
O311	O31	0.630500	0.198570	0.102010
O321	O32	0.445200	0.177190	0.168340
O331	O33	0.266700	0.164340	0.003080
O341	O34	0.265500	0.205200	0.093750
O351	O35	0.434100	0.282070	0.041050
O361	O36	0.706800	0.322600	0.088520
O371	O37	0.550500	0.413400	0.132500
O381	O38	0.401100	0.303910	0.138820
O391	O39	0.695500	0.407740	0.224130
O401	O40	0.697600	0.282160	0.171370
O411	O41	0.518600	0.288890	0.232080
O421	O42	0.719400	0.140760	0.189440
O431	O43	0.961400	0.525210	0.333040
O441	O44	0.045600	0.599170	0.419850
O451	O45	0.869500	0.698570	0.397990
O461	O46	0.054800	0.677190	0.331660
O471	O47	0.233300	0.664340	0.496920
O481	O48	0.234500	0.705200	0.406250
O491	O49	0.065900	0.782070	0.458950
O501	O50	0.793200	0.822600	0.411480
O511	O51	0.949500	0.913400	0.367500
O521	O52	0.098900	0.803910	0.361180
O531	O53	0.804500	0.907740	0.275870
O541	O54	0.802400	0.782160	0.328630
O551	O55	0.981400	0.788890	0.267920
O561	O56	0.780600	0.640760	0.310560
