data_IFENOY_clean_PM
_symmetry_space_group_name_H-M	'P1'
_cell_length_a	5.146200
_cell_length_b	18.979800
_cell_length_c	18.979800
_cell_angle_alpha	88.946900
_cell_angle_beta	82.208400
_cell_angle_gamma	82.208300
_symmetry_Int_Tables_number 1

loop_
_symmetry_equiv_pos_as_xyz
'x,y,z'

loop_
_atom_site_label
_atom_site_type_symbol
_atom_site_fract_x
_atom_site_fract_y
_atom_site_fract_z
Zn11	Zn1	0.198420	0.940870	0.512140
Zn21	Zn2	0.651420	0.059130	0.487860
Zn31	Zn3	0.289450	0.512140	0.059120
Zn41	Zn4	0.860710	0.487860	0.940880
H11	H1	0.446300	0.811500	0.595900
H21	H2	0.180800	0.059600	0.527400
H31	H3	0.706300	0.992500	0.632500
H41	H4	0.299500	0.049100	0.706700
H51	H5	0.027300	0.059700	0.814900
H61	H6	0.134400	0.987800	0.911800
H71	H7	0.504000	0.904000	0.900800
H81	H8	0.893700	0.838800	0.825800
H91	H9	0.460500	0.701200	0.637400
H101	H10	0.607500	0.592600	0.690600
H111	H11	0.477500	0.689500	0.882500
H121	H12	0.338500	0.797600	0.827000
H131	H13	0.853700	0.188500	0.404100
H141	H14	0.767800	0.940400	0.472600
H151	H15	0.331300	0.007500	0.367500
H161	H16	0.055300	0.950900	0.293300
H171	H17	0.901900	0.940300	0.185100
H181	H18	0.034000	0.012200	0.088200
H191	H19	0.308800	0.096000	0.099200
H201	H20	0.558300	0.161200	0.174200
H211	H21	0.799100	0.298800	0.362600
H221	H22	0.890700	0.407400	0.309400
H231	H23	0.049500	0.310500	0.117500
H241	H24	0.963100	0.202400	0.173000
H251	H25	0.957800	0.595900	0.188500
H261	H26	0.291800	0.527400	0.940400
H271	H27	0.661200	0.632500	0.007500
H281	H28	0.993800	0.706700	0.950900
H291	H29	0.157800	0.814900	0.940300
H301	H30	0.953800	0.911800	0.012200
H311	H31	0.595200	0.900800	0.096000
H321	H32	0.280500	0.825800	0.161200
H331	H33	0.902100	0.637400	0.298800
H341	H34	0.701900	0.690600	0.407400
H351	H35	0.640000	0.882500	0.310500
H361	H36	0.834500	0.827000	0.202400
H371	H37	0.742200	0.404100	0.811500
H381	H38	0.759600	0.472600	0.059600
H391	H39	0.301200	0.367500	0.992500
H401	H40	0.651400	0.293300	0.049100
H411	H41	0.913000	0.185100	0.059700
H421	H42	0.877800	0.088200	0.987800
H431	H43	0.592000	0.099200	0.904000
H441	H44	0.267500	0.174200	0.838800
H451	H45	0.838300	0.362600	0.701200
H461	H46	0.799900	0.309400	0.592600
H471	H47	0.833000	0.117500	0.689500
H481	H48	0.863900	0.173000	0.797600
C11	C1	0.301060	0.835510	0.626370
C21	C2	0.956420	0.909800	0.665160
C31	C3	0.742170	0.962080	0.671380
C41	C4	0.577830	0.969100	0.737040
C51	C5	0.343790	0.019700	0.745520
C61	C6	0.182550	0.025890	0.809610
C71	C7	0.246280	0.982340	0.867500
C81	C8	0.464870	0.932750	0.861110
C91	C9	0.636440	0.923350	0.795170
C101	C10	0.854860	0.869590	0.787490
C111	C11	0.009030	0.863420	0.722720
C121	C12	0.352590	0.754550	0.728670
C131	C13	0.455600	0.697900	0.687500
C141	C14	0.555100	0.634500	0.718300
C151	C15	0.576670	0.633900	0.793160
C161	C16	0.480320	0.691430	0.832330
C171	C17	0.383040	0.754900	0.800220
C181	C18	0.659200	0.562400	0.825800
C191	C19	0.762940	0.164490	0.373630
C201	C20	0.531380	0.090200	0.334840
C211	C21	0.375630	0.037920	0.328620
C221	C22	0.283970	0.030900	0.262960
C231	C23	0.109010	0.980300	0.254480
C241	C24	0.018050	0.974110	0.190390
C251	C25	0.096120	0.017660	0.132500
C261	C26	0.258730	0.067250	0.138890
C271	C27	0.354960	0.076650	0.204830
C281	C28	0.511940	0.130410	0.212510
C291	C29	0.595170	0.136580	0.277280
C301	C30	0.835810	0.245450	0.271330
C311	C31	0.841000	0.302100	0.312500
C321	C32	0.907900	0.365500	0.281700
C331	C33	0.003730	0.366100	0.206840
C341	C34	0.004080	0.308570	0.167670
C351	C35	0.938160	0.245100	0.199780
C361	C36	0.047400	0.437600	0.174200
C371	C37	0.072570	0.626370	0.164490
C381	C38	0.378420	0.665160	0.090200
C391	C39	0.586450	0.671380	0.037920
C401	C40	0.685130	0.737040	0.030900
C411	C41	0.910690	0.745520	0.980300
C421	C42	0.007840	0.809610	0.974110
C431	C43	0.886220	0.867500	0.017660
C441	C44	0.674020	0.861110	0.067250
C451	C45	0.568390	0.795170	0.076650
C461	C46	0.357650	0.787490	0.130410
C471	C47	0.268250	0.722720	0.136580
C481	C48	0.918740	0.728670	0.245450
C491	C49	0.856900	0.687500	0.302100
C501	C50	0.726600	0.718300	0.365500
C511	C51	0.630170	0.793160	0.366100
C521	C52	0.687350	0.832330	0.308570
C531	C53	0.816740	0.800220	0.245100
C541	C54	0.515000	0.825800	0.437600
C551	C55	0.863430	0.373630	0.835510
C561	C56	0.133780	0.334840	0.909800
C571	C57	0.295750	0.328620	0.962080
C581	C58	0.453070	0.262960	0.969100
C591	C59	0.636510	0.254480	0.019700
C601	C60	0.791560	0.190390	0.025890
C611	C61	0.771380	0.132500	0.982340
C621	C62	0.602380	0.138890	0.932750
C631	C63	0.440210	0.204830	0.923350
C641	C64	0.275550	0.212510	0.869590
C651	C65	0.127550	0.277280	0.863420
C661	C66	0.892860	0.271330	0.754550
C671	C67	0.846500	0.312500	0.697900
C681	C68	0.810400	0.281700	0.634500
C691	C69	0.789430	0.206840	0.633900
C701	C70	0.828250	0.167670	0.691430
C711	C71	0.862060	0.199780	0.754900
C721	C72	0.778400	0.174200	0.562400
N11	N1	0.147790	0.890020	0.606600
N21	N2	0.232970	0.816080	0.695580
N31	N3	0.644410	0.109980	0.393400
N41	N4	0.744630	0.183920	0.304420
N51	N5	0.245610	0.606600	0.109980
N61	N6	0.071450	0.695580	0.183920
N71	N7	0.962190	0.393400	0.890020
N81	N8	0.950950	0.304420	0.816080
O11	O1	0.323620	0.029540	0.528820
O21	O2	0.635150	0.555410	0.887690
O31	O3	0.774960	0.511930	0.782750
O41	O4	0.881980	0.970460	0.471180
O51	O5	0.078250	0.444590	0.112310
O61	O6	0.069640	0.488070	0.217250
O71	O7	0.147560	0.528820	0.970460
O81	O8	0.477160	0.887690	0.444590
O91	O9	0.442290	0.782750	0.488070
O101	O10	0.646840	0.471180	0.029540
O111	O11	0.809440	0.112310	0.555410
O121	O12	0.713110	0.217250	0.511930
