data_IFEPUG_SL_PM
_symmetry_space_group_name_H-M	'P1'
_cell_length_a	26.772000
_cell_length_b	26.772000
_cell_length_c	5.066200
_cell_angle_alpha	90.000000
_cell_angle_beta	90.000000
_cell_angle_gamma	90.000000
_symmetry_Int_Tables_number 1

loop_
_symmetry_equiv_pos_as_xyz
'x,y,z'

loop_
_atom_site_label
_atom_site_type_symbol
_atom_site_fract_x
_atom_site_fract_y
_atom_site_fract_z
Zn11	Zn1	0.213080	0.229220	0.708290
H21	H2	0.106600	0.207700	0.941900
H31	H3	0.180100	0.312600	0.290500
H41	H4	0.172400	0.378200	0.943700
H51	H5	0.124200	0.435900	0.712200
H61	H6	0.039300	0.447400	0.824300
H71	H7	0.002400	0.400400	0.147500
H81	H8	0.006700	0.331200	0.479100
H91	H9	0.037700	0.222500	0.214200
H101	H10	0.959500	0.200900	0.394300
H111	H11	0.892400	0.237500	0.707600
H121	H12	0.970400	0.256700	0.523800
C131	C13	0.103680	0.233770	0.815700
C141	C14	0.121920	0.288240	0.514600
C151	C15	0.145530	0.316700	0.326200
C161	C16	0.116670	0.352180	0.187600
C171	C17	0.138000	0.382040	0.985900
C181	C18	0.109570	0.416640	0.849400
C191	C19	0.058560	0.423100	0.915600
C201	C20	0.036630	0.395270	0.107000
C211	C21	0.064370	0.358200	0.248700
C221	C22	0.041260	0.327860	0.439400
C231	C23	0.070510	0.293100	0.566400
C241	C24	0.011950	0.242390	0.860600
C251	C25	0.919520	0.213810	0.050600
C261	C26	0.869810	0.198910	0.164400
C271	C27	0.008500	0.225300	0.109300
C281	C28	0.962200	0.211500	0.215900
C291	C29	0.922000	0.232800	0.807700
C301	C30	0.968100	0.245700	0.701700
N311	N31	0.141480	0.250850	0.678600
N321	N32	0.059910	0.257070	0.759200
O331	O33	0.250800	0.281150	0.886100
O341	O34	0.831660	0.219550	0.073900
O351	O35	0.868500	0.183300	0.410600
H361	H36	0.318500	0.756670	0.113900
Zn371	Zn37	0.713080	0.729220	0.208290
H381	H38	0.606600	0.707700	0.441900
H391	H39	0.680100	0.812600	0.790500
H401	H40	0.672400	0.878200	0.443700
H411	H41	0.624200	0.935900	0.212200
H421	H42	0.539300	0.947400	0.324300
H431	H43	0.502400	0.900400	0.647500
H441	H44	0.506700	0.831200	0.979100
H451	H45	0.537700	0.722500	0.714200
H461	H46	0.459500	0.700900	0.894300
H471	H47	0.392400	0.737500	0.207600
H481	H48	0.470400	0.756700	0.023800
C491	C49	0.603680	0.733770	0.315700
C501	C50	0.621920	0.788240	0.014600
C511	C51	0.645530	0.816700	0.826200
C521	C52	0.616670	0.852180	0.687600
C531	C53	0.638000	0.882040	0.485900
C541	C54	0.609570	0.916640	0.349400
C551	C55	0.558560	0.923100	0.415600
C561	C56	0.536630	0.895270	0.607000
C571	C57	0.564370	0.858200	0.748700
C581	C58	0.541260	0.827860	0.939400
C591	C59	0.570510	0.793100	0.066400
C601	C60	0.511950	0.742390	0.360600
C611	C61	0.419520	0.713810	0.550600
C621	C62	0.369810	0.698910	0.664400
C631	C63	0.508500	0.725300	0.609300
C641	C64	0.462200	0.711500	0.715900
C651	C65	0.422000	0.732800	0.307700
C661	C66	0.468100	0.745700	0.201700
N671	N67	0.641480	0.750850	0.178600
N681	N68	0.559910	0.757070	0.259200
O691	O69	0.750800	0.781150	0.386100
O701	O70	0.331660	0.719550	0.573900
O711	O71	0.368500	0.683300	0.910600
H721	H72	0.818500	0.256670	0.613900
Zn731	Zn73	0.786920	0.770780	0.708290
H741	H74	0.893400	0.792300	0.941900
H751	H75	0.819900	0.687400	0.290500
H761	H76	0.827600	0.621800	0.943700
H771	H77	0.875800	0.564100	0.712200
H781	H78	0.960700	0.552600	0.824300
H791	H79	0.997600	0.599600	0.147500
H801	H80	0.993300	0.668800	0.479100
H811	H81	0.962300	0.777500	0.214200
H821	H82	0.040500	0.799100	0.394300
H831	H83	0.107600	0.762500	0.707600
H841	H84	0.029600	0.743300	0.523800
C851	C85	0.896320	0.766230	0.815700
C861	C86	0.878080	0.711760	0.514600
C871	C87	0.854470	0.683300	0.326200
C881	C88	0.883330	0.647820	0.187600
C891	C89	0.862000	0.617960	0.985900
C901	C90	0.890430	0.583360	0.849400
C911	C91	0.941440	0.576900	0.915600
C921	C92	0.963370	0.604730	0.107000
C931	C93	0.935630	0.641800	0.248700
C941	C94	0.958740	0.672140	0.439400
C951	C95	0.929490	0.706900	0.566400
C961	C96	0.988050	0.757610	0.860600
C971	C97	0.080480	0.786190	0.050600
C981	C98	0.130190	0.801090	0.164400
C991	C99	0.991500	0.774700	0.109300
C1001	C100	0.037800	0.788500	0.215900
C1011	C101	0.078000	0.767200	0.807700
C1021	C102	0.031900	0.754300	0.701700
N1031	N103	0.858520	0.749150	0.678600
N1041	N104	0.940090	0.742930	0.759200
O1051	O105	0.749200	0.718850	0.886100
O1061	O106	0.168340	0.780450	0.073900
O1071	O107	0.131500	0.816700	0.410600
H1081	H108	0.681500	0.243330	0.113900
Zn1091	Zn109	0.286920	0.270780	0.208290
H1101	H110	0.393400	0.292300	0.441900
H1111	H111	0.319900	0.187400	0.790500
H1121	H112	0.327600	0.121800	0.443700
H1131	H113	0.375800	0.064100	0.212200
H1141	H114	0.460700	0.052600	0.324300
H1151	H115	0.497600	0.099600	0.647500
H1161	H116	0.493300	0.168800	0.979100
H1171	H117	0.462300	0.277500	0.714200
H1181	H118	0.540500	0.299100	0.894300
H1191	H119	0.607600	0.262500	0.207600
H1201	H120	0.529600	0.243300	0.023800
C1211	C121	0.396320	0.266230	0.315700
C1221	C122	0.378080	0.211760	0.014600
C1231	C123	0.354470	0.183300	0.826200
C1241	C124	0.383330	0.147820	0.687600
C1251	C125	0.362000	0.117960	0.485900
C1261	C126	0.390430	0.083360	0.349400
C1271	C127	0.441440	0.076900	0.415600
C1281	C128	0.463370	0.104730	0.607000
C1291	C129	0.435630	0.141800	0.748700
C1301	C130	0.458740	0.172140	0.939400
C1311	C131	0.429490	0.206900	0.066400
C1321	C132	0.488050	0.257610	0.360600
C1331	C133	0.580480	0.286190	0.550600
C1341	C134	0.630190	0.301090	0.664400
C1351	C135	0.491500	0.274700	0.609300
C1361	C136	0.537800	0.288500	0.715900
C1371	C137	0.578000	0.267200	0.307700
C1381	C138	0.531900	0.254300	0.201700
N1391	N139	0.358520	0.249150	0.178600
N1401	N140	0.440090	0.242930	0.259200
O1411	O141	0.249200	0.218850	0.386100
O1421	O142	0.668340	0.280450	0.573900
O1431	O143	0.631500	0.316700	0.910600
H1441	H144	0.181500	0.743330	0.613900
Zn1451	Zn145	0.229220	0.786920	0.291710
H1461	H146	0.207700	0.893400	0.058100
H1471	H147	0.312600	0.819900	0.709500
H1481	H148	0.378200	0.827600	0.056300
H1491	H149	0.435900	0.875800	0.287800
H1501	H150	0.447400	0.960700	0.175700
H1511	H151	0.400400	0.997600	0.852500
H1521	H152	0.331200	0.993300	0.520900
H1531	H153	0.222500	0.962300	0.785800
H1541	H154	0.200900	0.040500	0.605700
H1551	H155	0.237500	0.107600	0.292400
H1561	H156	0.256700	0.029600	0.476200
C1571	C157	0.233770	0.896320	0.184300
C1581	C158	0.288240	0.878080	0.485400
C1591	C159	0.316700	0.854470	0.673800
C1601	C160	0.352180	0.883330	0.812400
C1611	C161	0.382040	0.862000	0.014100
C1621	C162	0.416640	0.890430	0.150600
C1631	C163	0.423100	0.941440	0.084400
C1641	C164	0.395270	0.963370	0.893000
C1651	C165	0.358200	0.935630	0.751300
C1661	C166	0.327860	0.958740	0.560600
C1671	C167	0.293100	0.929490	0.433600
C1681	C168	0.242390	0.988050	0.139400
C1691	C169	0.213810	0.080480	0.949400
C1701	C170	0.198910	0.130190	0.835600
C1711	C171	0.225300	0.991500	0.890700
C1721	C172	0.211500	0.037800	0.784100
C1731	C173	0.232800	0.078000	0.192300
C1741	C174	0.245700	0.031900	0.298300
N1751	N175	0.250850	0.858520	0.321400
N1761	N176	0.257070	0.940090	0.240800
O1771	O177	0.281150	0.749200	0.113900
O1781	O178	0.219550	0.168340	0.926100
O1791	O179	0.183300	0.131500	0.589400
H1801	H180	0.756670	0.681500	0.886100
Zn1811	Zn181	0.729220	0.286920	0.791710
H1821	H182	0.707700	0.393400	0.558100
H1831	H183	0.812600	0.319900	0.209500
H1841	H184	0.878200	0.327600	0.556300
H1851	H185	0.935900	0.375800	0.787800
H1861	H186	0.947400	0.460700	0.675700
H1871	H187	0.900400	0.497600	0.352500
H1881	H188	0.831200	0.493300	0.020900
H1891	H189	0.722500	0.462300	0.285800
H1901	H190	0.700900	0.540500	0.105700
H1911	H191	0.737500	0.607600	0.792400
H1921	H192	0.756700	0.529600	0.976200
C1931	C193	0.733770	0.396320	0.684300
C1941	C194	0.788240	0.378080	0.985400
C1951	C195	0.816700	0.354470	0.173800
C1961	C196	0.852180	0.383330	0.312400
C1971	C197	0.882040	0.362000	0.514100
C1981	C198	0.916640	0.390430	0.650600
C1991	C199	0.923100	0.441440	0.584400
C2001	C200	0.895270	0.463370	0.393000
C2011	C201	0.858200	0.435630	0.251300
C2021	C202	0.827860	0.458740	0.060600
C2031	C203	0.793100	0.429490	0.933600
C2041	C204	0.742390	0.488050	0.639400
C2051	C205	0.713810	0.580480	0.449400
C2061	C206	0.698910	0.630190	0.335600
C2071	C207	0.725300	0.491500	0.390700
C2081	C208	0.711500	0.537800	0.284100
C2091	C209	0.732800	0.578000	0.692300
C2101	C210	0.745700	0.531900	0.798300
N2111	N211	0.750850	0.358520	0.821400
N2121	N212	0.757070	0.440090	0.740800
O2131	O213	0.781150	0.249200	0.613900
O2141	O214	0.719550	0.668340	0.426100
O2151	O215	0.683300	0.631500	0.089400
H2161	H216	0.256670	0.181500	0.386100
Zn2171	Zn217	0.770780	0.213080	0.291710
H2181	H218	0.792300	0.106600	0.058100
H2191	H219	0.687400	0.180100	0.709500
H2201	H220	0.621800	0.172400	0.056300
H2211	H221	0.564100	0.124200	0.287800
H2221	H222	0.552600	0.039300	0.175700
H2231	H223	0.599600	0.002400	0.852500
H2241	H224	0.668800	0.006700	0.520900
H2251	H225	0.777500	0.037700	0.785800
H2261	H226	0.799100	0.959500	0.605700
H2271	H227	0.762500	0.892400	0.292400
H2281	H228	0.743300	0.970400	0.476200
C2291	C229	0.766230	0.103680	0.184300
C2301	C230	0.711760	0.121920	0.485400
C2311	C231	0.683300	0.145530	0.673800
C2321	C232	0.647820	0.116670	0.812400
C2331	C233	0.617960	0.138000	0.014100
C2341	C234	0.583360	0.109570	0.150600
C2351	C235	0.576900	0.058560	0.084400
C2361	C236	0.604730	0.036630	0.893000
C2371	C237	0.641800	0.064370	0.751300
C2381	C238	0.672140	0.041260	0.560600
C2391	C239	0.706900	0.070510	0.433600
C2401	C240	0.757610	0.011950	0.139400
C2411	C241	0.786190	0.919520	0.949400
C2421	C242	0.801090	0.869810	0.835600
C2431	C243	0.774700	0.008500	0.890700
C2441	C244	0.788500	0.962200	0.784100
C2451	C245	0.767200	0.922000	0.192300
C2461	C246	0.754300	0.968100	0.298300
N2471	N247	0.749150	0.141480	0.321400
N2481	N248	0.742930	0.059910	0.240800
O2491	O249	0.718850	0.250800	0.113900
O2501	O250	0.780450	0.831660	0.926100
O2511	O251	0.816700	0.868500	0.589400
H2521	H252	0.243330	0.318500	0.886100
Zn2531	Zn253	0.270780	0.713080	0.791710
H2541	H254	0.292300	0.606600	0.558100
H2551	H255	0.187400	0.680100	0.209500
H2561	H256	0.121800	0.672400	0.556300
H2571	H257	0.064100	0.624200	0.787800
H2581	H258	0.052600	0.539300	0.675700
H2591	H259	0.099600	0.502400	0.352500
H2601	H260	0.168800	0.506700	0.020900
H2611	H261	0.277500	0.537700	0.285800
H2621	H262	0.299100	0.459500	0.105700
H2631	H263	0.262500	0.392400	0.792400
H2641	H264	0.243300	0.470400	0.976200
C2651	C265	0.266230	0.603680	0.684300
C2661	C266	0.211760	0.621920	0.985400
C2671	C267	0.183300	0.645530	0.173800
C2681	C268	0.147820	0.616670	0.312400
C2691	C269	0.117960	0.638000	0.514100
C2701	C270	0.083360	0.609570	0.650600
C2711	C271	0.076900	0.558560	0.584400
C2721	C272	0.104730	0.536630	0.393000
C2731	C273	0.141800	0.564370	0.251300
C2741	C274	0.172140	0.541260	0.060600
C2751	C275	0.206900	0.570510	0.933600
C2761	C276	0.257610	0.511950	0.639400
C2771	C277	0.286190	0.419520	0.449400
C2781	C278	0.301090	0.369810	0.335600
C2791	C279	0.274700	0.508500	0.390700
C2801	C280	0.288500	0.462200	0.284100
C2811	C281	0.267200	0.422000	0.692300
C2821	C282	0.254300	0.468100	0.798300
N2831	N283	0.249150	0.641480	0.821400
N2841	N284	0.242930	0.559910	0.740800
O2851	O285	0.218850	0.750800	0.613900
O2861	O286	0.280450	0.331660	0.426100
O2871	O287	0.316700	0.368500	0.089400
H2881	H288	0.743330	0.818500	0.386100
