data_IFEQIV_SL_PM
_symmetry_space_group_name_H-M	'P1'
_cell_length_a	5.396000
_cell_length_b	18.715900
_cell_length_c	18.715900
_cell_angle_alpha	88.809300
_cell_angle_beta	81.711900
_cell_angle_gamma	81.711600
_symmetry_Int_Tables_number 1

loop_
_symmetry_equiv_pos_as_xyz
'x,y,z'

loop_
_atom_site_label
_atom_site_type_symbol
_atom_site_fract_x
_atom_site_fract_y
_atom_site_fract_z
Zn11	Zn1	0.661260	0.942310	0.488650
Zn21	Zn2	0.092220	0.057690	0.511350
Zn31	Zn3	0.850090	0.488650	0.057690
Zn41	Zn4	0.396430	0.511350	0.942310
H51	H5	0.744700	0.845400	0.166400
H61	H6	0.423300	0.905300	0.092900
H71	H7	0.003700	0.042400	0.293800
H81	H8	0.195800	0.651000	0.129000
H91	H9	0.659000	0.667500	0.276900
H101	H10	0.040000	0.816600	0.401200
H111	H11	0.845600	0.052600	0.184400
H121	H12	0.328600	0.987700	0.368100
H131	H13	0.907200	0.745200	0.184400
H141	H14	0.379900	0.765500	0.330300
H151	H15	0.060900	0.984700	0.083500
H161	H16	0.756500	0.154600	0.833600
H171	H17	0.421500	0.094700	0.907100
H181	H18	0.339900	0.957600	0.706200
H191	H19	0.975800	0.349000	0.871000
H201	H20	0.603400	0.332500	0.723100
H211	H21	0.257800	0.183400	0.598800
H221	H22	0.082600	0.947400	0.815600
H231	H23	0.684400	0.012300	0.631900
H241	H24	0.836800	0.254800	0.815600
H251	H25	0.475700	0.234500	0.669700
H261	H26	0.129100	0.015300	0.916500
H271	H27	0.088900	0.166400	0.154600
H281	H28	0.483800	0.092900	0.094700
H291	H29	0.702500	0.293800	0.957600
H301	H30	0.675200	0.129000	0.349000
H311	H31	0.064100	0.276900	0.332500
H321	H32	0.558800	0.401200	0.183400
H331	H33	0.970000	0.184400	0.947400
H341	H34	0.303300	0.368100	0.012300
H351	H35	0.908400	0.184400	0.254800
H361	H36	0.289800	0.330300	0.234500
H371	H37	0.855600	0.083500	0.015300
H381	H38	0.409900	0.833600	0.845400
H391	H39	0.671400	0.907100	0.905300
H401	H40	0.953900	0.706200	0.042400
H411	H41	0.153200	0.871000	0.651000
H421	H42	0.673500	0.723100	0.667500
H431	H43	0.143400	0.598800	0.816600
H441	H44	0.101800	0.815600	0.052600
H451	H45	0.683700	0.631900	0.987700
H461	H46	0.347600	0.815600	0.745200
H471	H47	0.854600	0.669700	0.765500
H481	H48	0.954400	0.916500	0.984700
C491	C49	0.113230	0.763280	0.264060
C501	C50	0.658400	0.873210	0.206790
C511	C51	0.631760	0.585230	0.164450
C521	C52	0.741780	0.865450	0.272790
C531	C53	0.441810	0.923330	0.200450
C541	C54	0.339990	0.932420	0.134000
C551	C55	0.089870	0.014300	0.253560
C561	C56	0.619230	0.909280	0.332260
C571	C57	0.313880	0.966150	0.261090
C581	C58	0.230940	0.672820	0.171100
C591	C59	0.449740	0.647580	0.198540
C601	C60	0.505740	0.683120	0.258200
C611	C61	0.926480	0.839330	0.370510
C621	C62	0.996370	0.020620	0.188640
C631	C63	0.408390	0.958960	0.327660
C641	C64	0.059840	0.729500	0.203420
C651	C65	0.338880	0.741220	0.290420
C661	C66	0.124780	0.979510	0.128330
C671	C67	0.140570	0.236720	0.735940
C681	C68	0.738400	0.126790	0.793210
C691	C69	0.381440	0.414770	0.835550
C701	C70	0.880020	0.134550	0.727210
C711	C71	0.565590	0.076670	0.799550
C721	C72	0.406410	0.067580	0.866000
C731	C73	0.357730	0.985700	0.746440
C741	C74	0.860770	0.090720	0.667740
C751	C75	0.541120	0.033850	0.738910
C761	C76	0.074860	0.327180	0.828900
C771	C77	0.295860	0.352420	0.801460
C781	C78	0.447060	0.316880	0.741800
C791	C79	0.136320	0.160670	0.629490
C801	C80	0.205630	0.979380	0.811360
C811	C81	0.695010	0.041040	0.672340
C821	C82	0.992760	0.270500	0.796580
C831	C83	0.370520	0.258780	0.709580
C841	C84	0.232620	0.020490	0.871670
C851	C85	0.622710	0.264060	0.236720
C861	C86	0.134810	0.206790	0.126790
C871	C87	0.203790	0.164450	0.414770
C881	C88	0.985430	0.272790	0.134550
C891	C89	0.357740	0.200450	0.076670
C901	C90	0.526010	0.134000	0.067580
C911	C91	0.656570	0.253560	0.985700
C921	C92	0.048510	0.332260	0.090720
C931	C93	0.425030	0.261090	0.033850
C941	C94	0.597960	0.171100	0.327180
C951	C95	0.351720	0.198540	0.352420
C961	C96	0.236060	0.258200	0.316880
C971	C97	0.703010	0.370510	0.160670
C981	C98	0.814990	0.188640	0.979380
C991	C99	0.263950	0.327660	0.041040
C1001	C100	0.736740	0.203420	0.270500
C1011	C101	0.370700	0.290420	0.258780
C1021	C102	0.746890	0.128330	0.020490
C1031	C103	0.123490	0.735940	0.763280
C1041	C104	0.468390	0.793210	0.873210
C1051	C105	0.783010	0.835550	0.585230
C1061	C106	0.392770	0.727210	0.865450
C1071	C107	0.634860	0.799550	0.923330
C1081	C108	0.727590	0.866000	0.932420
C1091	C109	0.895830	0.746440	0.014300
C1101	C110	0.471490	0.667740	0.909280
C1111	C111	0.719970	0.738910	0.966150
C1121	C112	0.096240	0.828900	0.672820
C1131	C113	0.902680	0.801460	0.647580
C1141	C114	0.811140	0.741800	0.683120
C1151	C115	0.234190	0.629490	0.839330
C1161	C116	0.983010	0.811360	0.020620
C1171	C117	0.632650	0.672340	0.958960
C1181	C118	0.210660	0.796580	0.729500
C1191	C119	0.919900	0.709580	0.741220
C1201	C120	0.895710	0.871670	0.979510
N1211	N121	0.743330	0.891150	0.391990
N1221	N122	0.939440	0.820750	0.299570
N1231	N123	0.026470	0.108850	0.608010
N1241	N124	0.059760	0.179250	0.700430
N1251	N125	0.864680	0.391990	0.108850
N1261	N126	0.760990	0.299570	0.179250
N1271	N127	0.365520	0.608010	0.891150
N1281	N128	0.239810	0.700430	0.820750
O1291	O129	0.306160	0.965580	0.521100
O1301	O130	0.577270	0.558940	0.107720
O1311	O131	0.825380	0.564570	0.192070
O1321	O132	0.792840	0.034420	0.478900
O1331	O133	0.243930	0.441060	0.892280
O1341	O134	0.582020	0.435430	0.807930
O1351	O135	0.172740	0.521100	0.034420
O1361	O136	0.315010	0.107720	0.441060
O1371	O137	0.982550	0.192070	0.435430
O1381	O138	0.728260	0.478900	0.965580
O1391	O139	0.863790	0.892280	0.558940
O1401	O140	0.610050	0.807930	0.564570
H1411	H141	0.728260	0.425460	0.966690
H1421	H142	0.641470	0.083340	0.484170
H1431	H143	0.230470	0.925910	0.525070
H1441	H144	0.172740	0.574540	0.033310
