data_IFEYIB_clean_PM
_symmetry_space_group_name_H-M	'P1'
_cell_length_a	14.829000
_cell_length_b	16.146500
_cell_length_c	19.282000
_cell_angle_alpha	90.000000
_cell_angle_beta	91.270000
_cell_angle_gamma	90.000000
_symmetry_Int_Tables_number 1

loop_
_symmetry_equiv_pos_as_xyz
'x,y,z'

loop_
_atom_site_label
_atom_site_type_symbol
_atom_site_fract_x
_atom_site_fract_y
_atom_site_fract_z
Cd11	Cd1	0.770570	0.374560	0.435070
Cd21	Cd2	0.729070	0.631490	0.939370
Cd31	Cd3	0.229430	0.874560	0.064930
Cd41	Cd4	0.270930	0.131490	0.560630
Cd51	Cd5	0.229430	0.625440	0.564930
Cd61	Cd6	0.270930	0.368510	0.060630
Cd71	Cd7	0.770570	0.125440	0.935070
Cd81	Cd8	0.729070	0.868510	0.439370
Hg11	Hg1	0.630730	0.622280	0.653650
Hg21	Hg2	0.879730	0.378790	0.153940
Hg31	Hg3	0.369270	0.122280	0.846350
Hg41	Hg4	0.120270	0.878790	0.346060
Hg51	Hg5	0.369270	0.377720	0.346350
Hg61	Hg6	0.120270	0.621210	0.846060
Hg71	Hg7	0.630730	0.877720	0.153650
Hg81	Hg8	0.879730	0.121210	0.653940
C11	C1	0.762700	0.273700	0.590700
C21	C2	0.640300	0.528200	0.509000
C31	C3	0.422700	0.675000	0.659500
C41	C4	0.798900	0.472100	0.278900
C51	C5	0.689600	0.523900	0.790000
C61	C6	0.909400	0.657000	0.831700
C71	C7	0.863500	0.479100	0.011600
C81	C8	0.762500	0.754700	0.585000
C91	C9	0.237300	0.773700	0.909300
C101	C10	0.359700	0.028200	0.991000
C111	C11	0.577300	0.175000	0.840500
C121	C12	0.201100	0.972100	0.221100
C131	C13	0.310400	0.023900	0.710000
C141	C14	0.090600	0.157000	0.668300
C151	C15	0.136500	0.979100	0.488400
C161	C16	0.237500	0.254700	0.915000
C171	C17	0.237300	0.726300	0.409300
C181	C18	0.359700	0.471800	0.491000
C191	C19	0.577300	0.325000	0.340500
C201	C20	0.201100	0.527900	0.721100
C211	C21	0.310400	0.476100	0.210000
C221	C22	0.090600	0.343000	0.168300
C231	C23	0.136500	0.520900	0.988400
C241	C24	0.237500	0.245300	0.415000
C251	C25	0.762700	0.226300	0.090700
C261	C26	0.640300	0.971800	0.009000
C271	C27	0.422700	0.825000	0.159500
C281	C28	0.798900	0.027900	0.778900
C291	C29	0.689600	0.976100	0.290000
C301	C30	0.909400	0.843000	0.331700
C311	C31	0.863500	0.020900	0.511600
C321	C32	0.762500	0.745300	0.085000
S11	S1	0.764500	0.717500	0.663800
S21	S2	0.685100	0.487700	0.710450
S31	S3	0.500600	0.685600	0.719870
S41	S4	0.566300	0.593500	0.535920
S51	S5	0.932700	0.403100	0.033570
S61	S6	0.982700	0.649700	0.769050
S71	S7	0.804300	0.509900	0.200200
S81	S8	0.770700	0.239400	0.670500
S91	S9	0.235500	0.217500	0.836200
S101	S10	0.314900	0.987700	0.789550
S111	S11	0.499400	0.185600	0.780130
S121	S12	0.433700	0.093500	0.964080
S131	S13	0.067300	0.903100	0.466430
S141	S14	0.017300	0.149700	0.730950
S151	S15	0.195700	0.009900	0.299800
S161	S16	0.229300	0.739400	0.829500
S171	S17	0.235500	0.282500	0.336200
S181	S18	0.314900	0.512300	0.289550
S191	S19	0.499400	0.314400	0.280130
S201	S20	0.433700	0.406500	0.464080
S211	S21	0.067300	0.596900	0.966430
S221	S22	0.017300	0.350300	0.230950
S231	S23	0.195700	0.490100	0.799800
S241	S24	0.229300	0.760600	0.329500
S251	S25	0.764500	0.782500	0.163800
S261	S26	0.685100	0.012300	0.210450
S271	S27	0.500600	0.814400	0.219870
S281	S28	0.566300	0.906500	0.035920
S291	S29	0.932700	0.096900	0.533570
S301	S30	0.982700	0.850300	0.269050
S311	S31	0.804300	0.990100	0.700200
S321	S32	0.770700	0.260600	0.170500
N11	N1	0.754200	0.295000	0.534700
N21	N2	0.688300	0.480300	0.487300
N31	N3	0.367500	0.664900	0.618600
N41	N4	0.793400	0.448100	0.334400
N51	N5	0.690200	0.549600	0.845300
N61	N6	0.853900	0.661900	0.872600
N71	N7	0.818300	0.532700	0.992900
N81	N8	0.761300	0.780100	0.530700
N91	N9	0.245800	0.795000	0.965300
N101	N10	0.311700	0.980300	0.012700
N111	N11	0.632500	0.164900	0.881400
N121	N12	0.206600	0.948100	0.165600
N131	N13	0.309800	0.049600	0.654700
N141	N14	0.146100	0.161900	0.627400
N151	N15	0.181700	0.032700	0.507100
N161	N16	0.238700	0.280100	0.969300
N171	N17	0.245800	0.705000	0.465300
N181	N18	0.311700	0.519700	0.512700
N191	N19	0.632500	0.335100	0.381400
N201	N20	0.206600	0.551900	0.665600
N211	N21	0.309800	0.450400	0.154700
N221	N22	0.146100	0.338100	0.127400
N231	N23	0.181700	0.467300	0.007100
N241	N24	0.238700	0.219900	0.469300
N251	N25	0.754200	0.205000	0.034700
N261	N26	0.688300	0.019700	0.987300
N271	N27	0.367500	0.835100	0.118600
N281	N28	0.793400	0.051900	0.834400
N291	N29	0.690200	0.950400	0.345300
N301	N30	0.853900	0.838100	0.372600
N311	N31	0.818300	0.967300	0.492900
N321	N32	0.761300	0.719900	0.030700
