data_IGAHAB_clean_PM
_symmetry_space_group_name_H-M	'P1'
_cell_length_a	13.469000
_cell_length_b	13.469000
_cell_length_c	27.510000
_cell_angle_alpha	90.000000
_cell_angle_beta	90.000000
_cell_angle_gamma	120.000000
_symmetry_Int_Tables_number 1

loop_
_symmetry_equiv_pos_as_xyz
'x,y,z'

loop_
_atom_site_label
_atom_site_type_symbol
_atom_site_fract_x
_atom_site_fract_y
_atom_site_fract_z
Cr11	Cr1	0.485500	0.790200	0.750000
Cr21	Cr2	0.304700	0.514500	0.750000
Cr31	Cr3	0.209800	0.695300	0.750000
Cr41	Cr4	0.304700	0.790200	0.250000
Cr51	Cr5	0.209800	0.514500	0.250000
Cr61	Cr6	0.485500	0.695300	0.250000
Cu11	Cu1	0.777800	0.888900	0.000000
Cu21	Cu2	0.111100	0.222200	0.000000
Cu31	Cu3	0.111100	0.888900	0.000000
Cu41	Cu4	0.777800	0.888900	0.500000
Cu51	Cu5	0.111100	0.222200	0.500000
Cu61	Cu6	0.111100	0.888900	0.500000
H11	H1	0.837100	0.850300	0.920600
H21	H2	0.846600	0.774900	0.956200
H31	H3	0.545200	0.424700	0.939500
H41	H4	0.701600	0.588000	0.971700
H51	H5	0.666300	0.781600	0.868800
H61	H6	0.449300	0.439900	0.872000
H71	H7	0.013200	0.162900	0.920600
H81	H8	0.928300	0.153400	0.956200
H91	H9	0.879500	0.454800	0.939500
H101	H10	0.886400	0.298400	0.971700
H111	H11	0.115300	0.333700	0.868800
H121	H12	0.990600	0.550700	0.872000
H131	H13	0.149700	0.986800	0.920600
H141	H14	0.225100	0.071700	0.956200
H151	H15	0.575300	0.120500	0.939500
H161	H16	0.412000	0.113600	0.971700
H171	H17	0.218400	0.884700	0.868800
H181	H18	0.560100	0.009400	0.872000
H191	H19	0.837100	0.850300	0.579400
H201	H20	0.846600	0.774900	0.543800
H211	H21	0.545200	0.424700	0.560500
H221	H22	0.701600	0.588000	0.528300
H231	H23	0.666300	0.781600	0.631200
H241	H24	0.449300	0.439900	0.628000
H251	H25	0.013200	0.162900	0.579400
H261	H26	0.928300	0.153400	0.543800
H271	H27	0.879500	0.454800	0.560500
H281	H28	0.886400	0.298400	0.528300
H291	H29	0.115300	0.333700	0.631200
H301	H30	0.990600	0.550700	0.628000
H311	H31	0.149700	0.986800	0.579400
H321	H32	0.225100	0.071700	0.543800
H331	H33	0.575300	0.120500	0.560500
H341	H34	0.412000	0.113600	0.528300
H351	H35	0.218400	0.884700	0.631200
H361	H36	0.560100	0.009400	0.628000
H371	H37	0.013200	0.850300	0.420600
H381	H38	0.928300	0.774900	0.456200
H391	H39	0.879500	0.424700	0.439500
H401	H40	0.886400	0.588000	0.471700
H411	H41	0.115300	0.781600	0.368800
H421	H42	0.990600	0.439900	0.372000
H431	H43	0.149700	0.162900	0.420600
H441	H44	0.225100	0.153400	0.456200
H451	H45	0.575300	0.454800	0.439500
H461	H46	0.412000	0.298400	0.471700
H471	H47	0.218400	0.333700	0.368800
H481	H48	0.560100	0.550700	0.372000
H491	H49	0.837100	0.986800	0.420600
H501	H50	0.846600	0.071700	0.456200
H511	H51	0.545200	0.120500	0.439500
H521	H52	0.701600	0.113600	0.471700
H531	H53	0.666300	0.884700	0.368800
H541	H54	0.449300	0.009400	0.372000
H551	H55	0.013200	0.850300	0.079400
H561	H56	0.928300	0.774900	0.043800
H571	H57	0.879500	0.424700	0.060500
H581	H58	0.886400	0.588000	0.028300
H591	H59	0.115300	0.781600	0.131200
H601	H60	0.990600	0.439900	0.128000
H611	H61	0.149700	0.162900	0.079400
H621	H62	0.225100	0.153400	0.043800
H631	H63	0.575300	0.454800	0.060500
H641	H64	0.412000	0.298400	0.028300
H651	H65	0.218400	0.333700	0.131200
H661	H66	0.560100	0.550700	0.128000
H671	H67	0.837100	0.986800	0.079400
H681	H68	0.846600	0.071700	0.043800
H691	H69	0.545200	0.120500	0.060500
H701	H70	0.701600	0.113600	0.028300
H711	H71	0.666300	0.884700	0.131200
H721	H72	0.449300	0.009400	0.128000
C11	C1	0.569600	0.496700	0.925300
C21	C2	0.663000	0.594200	0.944500
C31	C3	0.699100	0.700600	0.923400
C41	C4	0.641900	0.709600	0.883100
C51	C5	0.548600	0.612300	0.863900
C61	C6	0.512400	0.505700	0.885000
C71	C7	0.495700	0.628800	0.819200
C81	C8	0.927100	0.430400	0.925300
C91	C9	0.931200	0.337000	0.944500
C101	C10	0.001500	0.300900	0.923400
C111	C11	0.067700	0.358100	0.883100
C121	C12	0.063700	0.451400	0.863900
C131	C13	0.993300	0.487600	0.885000
C141	C14	0.133100	0.504300	0.819200
C151	C15	0.503300	0.072900	0.925300
C161	C16	0.405800	0.068800	0.944500
C171	C17	0.299400	0.998500	0.923400
C181	C18	0.290400	0.932300	0.883100
C191	C19	0.387700	0.936300	0.863900
C201	C20	0.494300	0.006700	0.885000
C211	C21	0.371200	0.866900	0.819200
C221	C22	0.569600	0.496700	0.574700
C231	C23	0.663000	0.594200	0.555500
C241	C24	0.699100	0.700600	0.576600
C251	C25	0.641900	0.709600	0.616900
C261	C26	0.548600	0.612300	0.636100
C271	C27	0.512400	0.505700	0.615000
C281	C28	0.495700	0.628800	0.680800
C291	C29	0.927100	0.430400	0.574700
C301	C30	0.931200	0.337000	0.555500
C311	C31	0.001500	0.300900	0.576600
C321	C32	0.067700	0.358100	0.616900
C331	C33	0.063700	0.451400	0.636100
C341	C34	0.993300	0.487600	0.615000
C351	C35	0.133100	0.504300	0.680800
C361	C36	0.503300	0.072900	0.574700
C371	C37	0.405800	0.068800	0.555500
C381	C38	0.299400	0.998500	0.576600
C391	C39	0.290400	0.932300	0.616900
C401	C40	0.387700	0.936300	0.636100
C411	C41	0.494300	0.006700	0.615000
C421	C42	0.371200	0.866900	0.680800
C431	C43	0.927100	0.496700	0.425300
C441	C44	0.931200	0.594200	0.444500
C451	C45	0.001500	0.700600	0.423400
C461	C46	0.067700	0.709600	0.383100
C471	C47	0.063700	0.612300	0.363900
C481	C48	0.993300	0.505700	0.385000
C491	C49	0.133100	0.628800	0.319200
C501	C50	0.503300	0.430400	0.425300
C511	C51	0.405800	0.337000	0.444500
C521	C52	0.299400	0.300900	0.423400
C531	C53	0.290400	0.358100	0.383100
C541	C54	0.387700	0.451400	0.363900
C551	C55	0.494300	0.487600	0.385000
C561	C56	0.371200	0.504300	0.319200
C571	C57	0.569600	0.072900	0.425300
C581	C58	0.663000	0.068800	0.444500
C591	C59	0.699100	0.998500	0.423400
C601	C60	0.641900	0.932300	0.383100
C611	C61	0.548600	0.936300	0.363900
C621	C62	0.512400	0.006700	0.385000
C631	C63	0.495700	0.866900	0.319200
C641	C64	0.927100	0.496700	0.074700
C651	C65	0.931200	0.594200	0.055500
C661	C66	0.001500	0.700600	0.076600
C671	C67	0.067700	0.709600	0.116900
C681	C68	0.063700	0.612300	0.136100
C691	C69	0.993300	0.505700	0.115000
C701	C70	0.133100	0.628800	0.180800
C711	C71	0.503300	0.430400	0.074700
C721	C72	0.405800	0.337000	0.055500
C731	C73	0.299400	0.300900	0.076600
C741	C74	0.290400	0.358100	0.116900
C751	C75	0.387700	0.451400	0.136100
C761	C76	0.494300	0.487600	0.115000
C771	C77	0.371200	0.504300	0.180800
C781	C78	0.569600	0.072900	0.074700
C791	C79	0.663000	0.068800	0.055500
C801	C80	0.699100	0.998500	0.076600
C811	C81	0.641900	0.932300	0.116900
C821	C82	0.548600	0.936300	0.136100
C831	C83	0.512400	0.006700	0.115000
C841	C84	0.495700	0.866900	0.180800
N11	N1	0.799200	0.799700	0.945000
N21	N2	0.000500	0.200800	0.945000
N31	N3	0.200300	0.999500	0.945000
N41	N4	0.799200	0.799700	0.555000
N51	N5	0.000500	0.200800	0.555000
N61	N6	0.200300	0.999500	0.555000
N71	N7	0.000500	0.799700	0.445000
N81	N8	0.200300	0.200800	0.445000
N91	N9	0.799200	0.999500	0.445000
N101	N10	0.000500	0.799700	0.055000
N111	N11	0.200300	0.200800	0.055000
N121	N12	0.799200	0.999500	0.055000
Cl11	Cl1	0.740000	0.741400	0.053150
Cl21	Cl2	0.001400	0.260000	0.053150
Cl31	Cl3	0.258600	0.998600	0.053150
Cl41	Cl4	0.740000	0.741400	0.446850
Cl51	Cl5	0.001400	0.260000	0.446850
Cl61	Cl6	0.258600	0.998600	0.446850
Cl71	Cl7	0.001400	0.741400	0.553150
Cl81	Cl8	0.258600	0.260000	0.553150
Cl91	Cl9	0.740000	0.998600	0.553150
Cl101	Cl10	0.001400	0.741400	0.946850
Cl111	Cl11	0.258600	0.260000	0.946850
Cl121	Cl12	0.740000	0.998600	0.946850
Cl131	Cl13	0.000000	0.000000	0.000000
Cl141	Cl14	0.000000	0.000000	0.500000
O11	O1	0.534000	0.725500	0.803100
O21	O2	0.417100	0.542700	0.803600
O31	O3	0.191500	0.466000	0.803100
O41	O4	0.125600	0.582900	0.803600
O51	O5	0.274500	0.808500	0.803100
O61	O6	0.457300	0.874400	0.803600
O71	O7	0.534000	0.725500	0.696900
O81	O8	0.417100	0.542700	0.696400
O91	O9	0.191500	0.466000	0.696900
O101	O10	0.125600	0.582900	0.696400
O111	O11	0.274500	0.808500	0.696900
O121	O12	0.457300	0.874400	0.696400
O131	O13	0.191500	0.725500	0.303100
O141	O14	0.125600	0.542700	0.303600
O151	O15	0.274500	0.466000	0.303100
O161	O16	0.457300	0.582900	0.303600
O171	O17	0.534000	0.808500	0.303100
O181	O18	0.417100	0.874400	0.303600
O191	O19	0.191500	0.725500	0.196900
O201	O20	0.125600	0.542700	0.196400
O211	O21	0.274500	0.466000	0.196900
O221	O22	0.457300	0.582900	0.196400
O231	O23	0.534000	0.808500	0.196900
O241	O24	0.417100	0.874400	0.196400
O251	O25	0.333330	0.666660	0.750000
O261	O26	0.333330	0.666660	0.250000
