data_IGAHED_clean_PM
_symmetry_space_group_name_H-M	'P1'
_cell_length_a	6.957500
_cell_length_b	7.438300
_cell_length_c	8.257800
_cell_angle_alpha	90.366500
_cell_angle_beta	109.803000
_cell_angle_gamma	93.239800
_symmetry_Int_Tables_number 1

loop_
_symmetry_equiv_pos_as_xyz
'x,y,z'

loop_
_atom_site_label
_atom_site_type_symbol
_atom_site_fract_x
_atom_site_fract_y
_atom_site_fract_z
Co11	Co1	0.497490	0.500500	0.000400
Co21	Co2	0.000000	0.000000	0.000000
H11	H1	0.419060	0.295480	0.540380
H21	H2	0.571010	0.705310	0.457810
C11	C1	0.459880	0.933700	0.334720
C21	C2	0.449930	0.175390	0.524090
C31	C3	0.414830	0.107990	0.359010
C41	C4	0.348950	0.241180	0.216530
C51	C5	0.419520	0.843790	0.159530
C61	C6	0.532280	0.069100	0.667580
C71	C7	0.579520	0.890910	0.642290
C81	C8	0.541740	0.825710	0.475110
C91	C9	0.644790	0.759220	0.785770
C101	C10	0.571940	0.157710	0.839460
O11	O1	0.508630	0.642850	0.787820
O21	O2	0.482220	0.361850	0.214580
O31	O3	0.440840	0.261650	0.851020
O41	O4	0.552810	0.741350	0.149380
O51	O5	0.731930	0.128250	0.964280
O61	O6	0.826470	0.768660	0.890490
O71	O7	0.165180	0.233440	0.112910
O81	O8	0.257630	0.868650	0.039020
