data_IGIZAA_clean_PM
_symmetry_space_group_name_H-M	'P1'
_cell_length_a	15.199000
_cell_length_b	16.958000
_cell_length_c	19.932000
_cell_angle_alpha	90.000000
_cell_angle_beta	90.927000
_cell_angle_gamma	90.000000
_symmetry_Int_Tables_number 1

loop_
_symmetry_equiv_pos_as_xyz
'x,y,z'

loop_
_atom_site_label
_atom_site_type_symbol
_atom_site_fract_x
_atom_site_fract_y
_atom_site_fract_z
Na11	Na1	0.803800	0.988000	0.493600
Na21	Na2	0.812600	0.844300	0.626600
Na31	Na3	0.016900	0.793100	0.709900
Na41	Na4	0.796500	0.112900	0.353800
Na51	Na5	0.584800	0.043600	0.414800
Na61	Na6	0.004700	0.933300	0.571800
O11	O1	0.735500	0.141000	0.247300
O21	O2	0.923200	0.624500	0.325700
O31	O3	0.803200	0.701700	0.382800
O41	O4	0.784300	0.799100	0.279700
O51	O5	0.919100	0.721600	0.221800
O61	O6	0.971800	0.656000	0.444600
O71	O7	0.125600	0.713800	0.402700
O81	O8	0.069800	0.683300	0.276600
O91	O9	0.073900	0.766500	0.153900
O101	O10	0.118200	0.836500	0.277200
O111	O11	0.965800	0.873400	0.221100
O121	O12	0.076700	0.985900	0.261400
O131	O13	0.062000	0.930200	0.689100
O141	O14	0.834800	0.947800	0.275400
O151	O15	0.734500	0.983300	0.382000
O161	O16	0.690000	0.827000	0.384200
O171	O17	0.667200	0.717200	0.485000
O181	O18	0.743100	0.860800	0.512300
O191	O19	0.960800	0.800800	0.594300
O201	O20	0.091100	0.723100	0.529500
O211	O21	0.147000	0.878400	0.533900
O221	O22	0.169700	0.864000	0.400900
O231	O23	0.849300	0.735400	0.506400
O241	O24	0.962200	0.775300	0.339600
O251	O25	0.996300	0.918600	0.357500
O261	O26	0.001400	0.823100	0.456200
O271	O27	0.856200	0.860800	0.402700
O281	O28	0.140100	0.021000	0.387500
O291	O29	0.655800	0.158900	0.396700
O301	O30	0.154800	0.748000	0.664300
O311	O31	0.881000	0.849000	0.737400
O321	O32	0.660200	0.039700	0.521800
P11	P1	0.953920	0.845060	0.390280
Ru11	Ru1	0.856920	0.590980	0.413010
W11	W1	0.836970	0.704620	0.290260
W21	W2	0.042150	0.652240	0.364640
W31	W3	0.030390	0.783770	0.232310
W41	W4	0.949020	0.988020	0.258170
W51	W5	0.742260	0.903900	0.325100
W61	W6	0.751420	0.779060	0.458960
W71	W7	0.966090	0.722180	0.537280
W81	W8	0.154480	0.799560	0.477610
W91	W9	0.145520	0.939350	0.332960
C11	C1	0.893200	0.475900	0.452700
H11	H1	0.948400	0.454900	0.462400
C21	C2	0.846000	0.520400	0.502700
H21	H2	0.870300	0.526500	0.545500
C31	C3	0.763500	0.552400	0.487600
H31	H3	0.733400	0.580000	0.520400
C41	C4	0.728200	0.543000	0.426600
H41	H4	0.673900	0.566100	0.417400
C51	C5	0.768200	0.501400	0.374000
H51	H5	0.742500	0.495000	0.331700
C61	C6	0.856500	0.467200	0.389900
H61	H6	0.886500	0.438900	0.357500
Na71	Na7	0.999400	0.018400	0.478300
Na81	Na8	0.020900	0.792100	0.037200
Na91	Na9	0.696200	0.488000	0.006400
Na101	Na10	0.687400	0.344300	0.873400
Na111	Na11	0.483100	0.293100	0.790100
Na121	Na12	0.703500	0.612900	0.146200
Na131	Na13	0.915200	0.543600	0.085200
Na141	Na14	0.495300	0.433300	0.928200
O331	O33	0.764500	0.641000	0.252700
O341	O34	0.576800	0.124500	0.174300
O351	O35	0.696800	0.201700	0.117200
O361	O36	0.715700	0.299100	0.220300
O371	O37	0.580900	0.221600	0.278200
O381	O38	0.528200	0.156000	0.055400
O391	O39	0.374400	0.213800	0.097300
O401	O40	0.430200	0.183300	0.223400
O411	O41	0.426100	0.266500	0.346100
O421	O42	0.381800	0.336500	0.222800
O431	O43	0.534200	0.373400	0.278900
O441	O44	0.423300	0.485900	0.238600
O451	O45	0.438000	0.430200	0.810900
O461	O46	0.665200	0.447800	0.224600
O471	O47	0.765500	0.483300	0.118000
O481	O48	0.810000	0.327000	0.115800
O491	O49	0.832800	0.217200	0.015000
O501	O50	0.756900	0.360800	0.987700
O511	O51	0.539200	0.300800	0.905700
O521	O52	0.408900	0.223100	0.970500
O531	O53	0.353000	0.378400	0.966100
O541	O54	0.330300	0.364000	0.099100
O551	O55	0.650700	0.235400	0.993600
O561	O56	0.537800	0.275300	0.160400
O571	O57	0.503700	0.418600	0.142500
O581	O58	0.498600	0.323100	0.043800
O591	O59	0.643800	0.360800	0.097300
O601	O60	0.359900	0.521000	0.112500
O611	O61	0.844200	0.658900	0.103300
O621	O62	0.345200	0.248000	0.835700
O631	O63	0.619000	0.349000	0.762600
O641	O64	0.839800	0.539700	0.978200
P21	P2	0.546080	0.345060	0.109720
Ru21	Ru2	0.643080	0.090980	0.086990
W101	W10	0.663030	0.204620	0.209740
W111	W11	0.457850	0.152240	0.135360
W121	W12	0.469610	0.283770	0.267690
W131	W13	0.550980	0.488020	0.241830
W141	W14	0.757740	0.403900	0.174900
W151	W15	0.748580	0.279060	0.041040
W161	W16	0.533910	0.222180	0.962720
W171	W17	0.345520	0.299560	0.022390
W181	W18	0.354480	0.439350	0.167040
C71	C7	0.606800	0.975900	0.047300
H71	H7	0.551600	0.954900	0.037600
C81	C8	0.654000	0.020400	0.997300
H81	H8	0.629700	0.026500	0.954500
C91	C9	0.736500	0.052400	0.012400
H91	H9	0.766600	0.080000	0.979600
C101	C10	0.771800	0.043000	0.073400
H101	H10	0.826100	0.066100	0.082600
C111	C11	0.731800	0.001400	0.126000
H111	H11	0.757500	0.995000	0.168300
C121	C12	0.643500	0.967200	0.110100
H121	H12	0.613500	0.938900	0.142500
Na151	Na15	0.500600	0.518400	0.021700
Na161	Na16	0.479100	0.292100	0.462800
Na171	Na17	0.196200	0.012000	0.506400
Na181	Na18	0.187400	0.155700	0.373400
Na191	Na19	0.983100	0.206900	0.290100
Na201	Na20	0.203500	0.887100	0.646200
Na211	Na21	0.415200	0.956400	0.585200
Na221	Na22	0.995300	0.066700	0.428200
O651	O65	0.264500	0.859000	0.752700
O661	O66	0.076800	0.375500	0.674300
O671	O67	0.196800	0.298300	0.617200
O681	O68	0.215700	0.200900	0.720300
O691	O69	0.080900	0.278400	0.778200
O701	O70	0.028200	0.344000	0.555400
O711	O71	0.874400	0.286200	0.597300
O721	O72	0.930200	0.316700	0.723400
O731	O73	0.926100	0.233500	0.846100
O741	O74	0.881800	0.163500	0.722800
O751	O75	0.034200	0.126600	0.778900
O761	O76	0.923300	0.014100	0.738600
O771	O77	0.938000	0.069800	0.310900
O781	O78	0.165200	0.052200	0.724600
O791	O79	0.265500	0.016700	0.618000
O801	O80	0.310000	0.173000	0.615800
O811	O81	0.332800	0.282800	0.515000
O821	O82	0.256900	0.139200	0.487700
O831	O83	0.039200	0.199200	0.405700
O841	O84	0.908900	0.276900	0.470500
O851	O85	0.853000	0.121600	0.466100
O861	O86	0.830300	0.136000	0.599100
O871	O87	0.150700	0.264600	0.493600
O881	O88	0.037800	0.224700	0.660400
O891	O89	0.003700	0.081400	0.642500
O901	O90	0.998600	0.176900	0.543800
O911	O91	0.143800	0.139200	0.597300
O921	O92	0.859900	0.979000	0.612500
O931	O93	0.344200	0.841100	0.603300
O941	O94	0.845200	0.252000	0.335700
O951	O95	0.119000	0.151000	0.262600
O961	O96	0.339800	0.960300	0.478200
P31	P3	0.046080	0.154940	0.609720
Ru31	Ru3	0.143080	0.409020	0.586990
W191	W19	0.163030	0.295380	0.709740
W201	W20	0.957850	0.347760	0.635360
W211	W21	0.969610	0.216230	0.767690
W221	W22	0.050980	0.011980	0.741830
W231	W23	0.257740	0.096100	0.674900
W241	W24	0.248580	0.220940	0.541040
W251	W25	0.033910	0.277820	0.462720
W261	W26	0.845520	0.200440	0.522390
W271	W27	0.854480	0.060650	0.667040
C131	C13	0.106800	0.524100	0.547300
H131	H13	0.051600	0.545100	0.537600
C141	C14	0.154000	0.479600	0.497300
H141	H14	0.129700	0.473500	0.454500
C151	C15	0.236500	0.447600	0.512400
H151	H15	0.266600	0.420000	0.479600
C161	C16	0.271800	0.457000	0.573400
H161	H16	0.326100	0.433900	0.582600
C171	C17	0.231800	0.498600	0.626000
H171	H17	0.257500	0.505000	0.668300
C181	C18	0.143500	0.532800	0.610100
H181	H18	0.113500	0.561100	0.642500
Na231	Na23	0.000600	0.981600	0.521700
Na241	Na24	0.979100	0.207900	0.962800
Na251	Na25	0.303800	0.512000	0.993600
Na261	Na26	0.312600	0.655700	0.126600
Na271	Na27	0.516900	0.706900	0.209900
Na281	Na28	0.296500	0.387100	0.853800
Na291	Na29	0.084800	0.456400	0.914800
Na301	Na30	0.504700	0.566700	0.071800
O971	O97	0.235500	0.359000	0.747300
O981	O98	0.423200	0.875500	0.825700
O991	O99	0.303200	0.798300	0.882800
O1001	O100	0.284300	0.700900	0.779700
O1011	O101	0.419100	0.778400	0.721800
O1021	O102	0.471800	0.844000	0.944600
O1031	O103	0.625600	0.786200	0.902700
O1041	O104	0.569800	0.816700	0.776600
O1051	O105	0.573900	0.733500	0.653900
O1061	O106	0.618200	0.663500	0.777200
O1071	O107	0.465800	0.626600	0.721100
O1081	O108	0.576700	0.514100	0.761400
O1091	O109	0.562000	0.569800	0.189100
O1101	O110	0.334800	0.552200	0.775400
O1111	O111	0.234500	0.516700	0.882000
O1121	O112	0.190000	0.673000	0.884200
O1131	O113	0.167200	0.782800	0.985000
O1141	O114	0.243100	0.639200	0.012300
O1151	O115	0.460800	0.699200	0.094300
O1161	O116	0.591100	0.776900	0.029500
O1171	O117	0.647000	0.621600	0.033900
O1181	O118	0.669700	0.636000	0.900900
O1191	O119	0.349300	0.764600	0.006400
O1201	O120	0.462200	0.724700	0.839600
O1211	O121	0.496300	0.581400	0.857500
O1221	O122	0.501400	0.676900	0.956200
O1231	O123	0.356200	0.639200	0.902700
O1241	O124	0.640100	0.479000	0.887500
O1251	O125	0.155800	0.341100	0.896700
O1261	O126	0.654800	0.752000	0.164300
O1271	O127	0.381000	0.651000	0.237400
O1281	O128	0.160200	0.460300	0.021800
P41	P4	0.453920	0.654940	0.890280
Ru41	Ru4	0.356920	0.909020	0.913010
W281	W28	0.336970	0.795380	0.790260
W291	W29	0.542150	0.847760	0.864640
W301	W30	0.530390	0.716230	0.732310
W311	W31	0.449020	0.511980	0.758170
W321	W32	0.242260	0.596100	0.825100
W331	W33	0.251420	0.720940	0.958960
W341	W34	0.466090	0.777820	0.037280
W351	W35	0.654480	0.700440	0.977610
W361	W36	0.645520	0.560650	0.832960
C191	C19	0.393200	0.024100	0.952700
H191	H19	0.448400	0.045100	0.962400
C201	C20	0.346000	0.979600	0.002700
H201	H20	0.370300	0.973500	0.045500
C211	C21	0.263500	0.947600	0.987600
H211	H21	0.233400	0.920000	0.020400
C221	C22	0.228200	0.957000	0.926600
H221	H22	0.173900	0.933900	0.917400
C231	C23	0.268200	0.998600	0.874000
H231	H23	0.242500	0.005000	0.831700
C241	C24	0.356500	0.032800	0.889900
H241	H24	0.386500	0.061100	0.857500
Na311	Na31	0.499400	0.481600	0.978300
Na321	Na32	0.520900	0.707900	0.537200
