data_IGOJEV_clean_PM
_symmetry_space_group_name_H-M	'P1'
_cell_length_a	20.135000
_cell_length_b	15.964000
_cell_length_c	29.307000
_cell_angle_alpha	90.000000
_cell_angle_beta	90.000000
_cell_angle_gamma	90.000000
_symmetry_Int_Tables_number 1

loop_
_symmetry_equiv_pos_as_xyz
'x,y,z'

loop_
_atom_site_label
_atom_site_type_symbol
_atom_site_fract_x
_atom_site_fract_y
_atom_site_fract_z
N11	N1	0.383500	0.085700	0.047820
N21	N2	0.174900	0.081800	0.051600
O11	O1	0.174400	0.029200	0.123470
O21	O2	0.174500	0.132400	0.979150
C11	C1	0.460500	0.271100	0.390200
H11	H1	0.440100	0.237800	0.413500
C21	C2	0.458300	0.247400	0.345100
H21	H2	0.430900	0.201000	0.336200
C31	C3	0.350600	0.015000	0.056100
H31	H3	0.374800	0.966200	0.061200
C41	C4	0.282000	0.010800	0.057600
H41	H4	0.260400	0.960200	0.062700
C51	C5	0.246600	0.083800	0.051300
C61	C6	0.279400	0.157000	0.044000
H51	H5	0.256400	0.207000	0.040000
C71	C7	0.348800	0.155000	0.042800
H61	H6	0.371600	0.205000	0.038200
C81	C8	0.141800	0.051200	0.090800
C91	C9	0.069500	0.049800	0.090300
C101	C10	0.035400	0.020700	0.127100
H71	H7	0.065000	0.998000	0.149000
C111	C11	0.034800	0.078600	0.051400
C121	C12	0.069300	0.108800	0.012500
C131	C13	0.035000	0.137500	0.975000
H81	H8	0.060000	0.155000	0.944000
C141	C14	0.142500	0.110300	0.011900
N31	N3	0.616500	0.414300	0.547820
N41	N4	0.825100	0.418200	0.551600
O31	O3	0.825600	0.470800	0.623470
O41	O4	0.825500	0.367600	0.479150
C151	C15	0.539500	0.228900	0.890200
H91	H9	0.559900	0.262200	0.913500
C161	C16	0.541700	0.252600	0.845100
H101	H10	0.569100	0.299000	0.836200
C171	C17	0.649400	0.485000	0.556100
H111	H11	0.625200	0.533800	0.561200
C181	C18	0.718000	0.489200	0.557600
H121	H12	0.739600	0.539800	0.562700
C191	C19	0.753400	0.416200	0.551300
C201	C20	0.720600	0.343000	0.544000
H131	H13	0.743600	0.293000	0.540000
C211	C21	0.651200	0.345000	0.542800
H141	H14	0.628400	0.295000	0.538200
C221	C22	0.858200	0.448800	0.590800
C231	C23	0.930500	0.450200	0.590300
C241	C24	0.964600	0.479300	0.627100
H151	H15	0.935000	0.502000	0.649000
C251	C25	0.965200	0.421400	0.551400
C261	C26	0.930700	0.391200	0.512500
C271	C27	0.965000	0.362500	0.475000
H161	H16	0.940000	0.345000	0.444000
C281	C28	0.857500	0.389700	0.511900
N51	N5	0.616500	0.585700	0.452180
N61	N6	0.825100	0.581800	0.448400
O51	O5	0.825600	0.529200	0.376530
O61	O6	0.825500	0.632400	0.520850
C291	C29	0.539500	0.771100	0.109800
H171	H17	0.559900	0.737800	0.086500
C301	C30	0.541700	0.747400	0.154900
H181	H18	0.569100	0.701000	0.163800
C311	C31	0.649400	0.515000	0.443900
H191	H19	0.625200	0.466200	0.438800
C321	C32	0.718000	0.510800	0.442400
H201	H20	0.739600	0.460200	0.437300
C331	C33	0.753400	0.583800	0.448700
C341	C34	0.720600	0.657000	0.456000
H211	H21	0.743600	0.707000	0.460000
C351	C35	0.651200	0.655000	0.457200
H221	H22	0.628400	0.705000	0.461800
C361	C36	0.858200	0.551200	0.409200
C371	C37	0.930500	0.549800	0.409700
C381	C38	0.964600	0.520700	0.372900
H231	H23	0.935000	0.498000	0.351000
C391	C39	0.965200	0.578600	0.448600
C401	C40	0.930700	0.608800	0.487500
C411	C41	0.965000	0.637500	0.525000
H241	H24	0.940000	0.655000	0.556000
C421	C42	0.857500	0.610300	0.488100
N71	N7	0.383500	0.914300	0.952180
N81	N8	0.174900	0.918200	0.948400
O71	O7	0.174400	0.970800	0.876530
O81	O8	0.174500	0.867600	0.020850
C431	C43	0.460500	0.728900	0.609800
H251	H25	0.440100	0.762200	0.586500
C441	C44	0.458300	0.752600	0.654900
H261	H26	0.430900	0.799000	0.663800
C451	C45	0.350600	0.985000	0.943900
H271	H27	0.374800	0.033800	0.938800
C461	C46	0.282000	0.989200	0.942400
H281	H28	0.260400	0.039800	0.937300
C471	C47	0.246600	0.916200	0.948700
C481	C48	0.279400	0.843000	0.956000
H291	H29	0.256400	0.793000	0.960000
C491	C49	0.348800	0.845000	0.957200
H301	H30	0.371600	0.795000	0.961800
C501	C50	0.141800	0.948800	0.909200
C511	C51	0.069500	0.950200	0.909700
C521	C52	0.035400	0.979300	0.872900
H311	H31	0.065000	0.002000	0.851000
C531	C53	0.034800	0.921400	0.948600
C541	C54	0.069300	0.891200	0.987500
C551	C55	0.035000	0.862500	0.025000
H321	H32	0.060000	0.845000	0.056000
C561	C56	0.142500	0.889700	0.988100
N91	N9	0.616500	0.914300	0.952180
N101	N10	0.825100	0.918200	0.948400
O91	O9	0.825600	0.970800	0.876530
O101	O10	0.825500	0.867600	0.020850
C571	C57	0.539500	0.728900	0.609800
H331	H33	0.559900	0.762200	0.586500
C581	C58	0.541700	0.752600	0.654900
H341	H34	0.569100	0.799000	0.663800
C591	C59	0.649400	0.985000	0.943900
H351	H35	0.625200	0.033800	0.938800
C601	C60	0.718000	0.989200	0.942400
H361	H36	0.739600	0.039800	0.937300
C611	C61	0.753400	0.916200	0.948700
C621	C62	0.720600	0.843000	0.956000
H371	H37	0.743600	0.793000	0.960000
C631	C63	0.651200	0.845000	0.957200
H381	H38	0.628400	0.795000	0.961800
C641	C64	0.858200	0.948800	0.909200
C651	C65	0.930500	0.950200	0.909700
C661	C66	0.964600	0.979300	0.872900
H391	H39	0.935000	0.002000	0.851000
C671	C67	0.965200	0.921400	0.948600
C681	C68	0.930700	0.891200	0.987500
C691	C69	0.965000	0.862500	0.025000
H401	H40	0.940000	0.845000	0.056000
C701	C70	0.857500	0.889700	0.988100
N111	N11	0.383500	0.585700	0.452180
N121	N12	0.174900	0.581800	0.448400
O111	O11	0.174400	0.529200	0.376530
O121	O12	0.174500	0.632400	0.520850
C711	C71	0.460500	0.771100	0.109800
H411	H41	0.440100	0.737800	0.086500
C721	C72	0.458300	0.747400	0.154900
H421	H42	0.430900	0.701000	0.163800
C731	C73	0.350600	0.515000	0.443900
H431	H43	0.374800	0.466200	0.438800
C741	C74	0.282000	0.510800	0.442400
H441	H44	0.260400	0.460200	0.437300
C751	C75	0.246600	0.583800	0.448700
C761	C76	0.279400	0.657000	0.456000
H451	H45	0.256400	0.707000	0.460000
C771	C77	0.348800	0.655000	0.457200
H461	H46	0.371600	0.705000	0.461800
C781	C78	0.141800	0.551200	0.409200
C791	C79	0.069500	0.549800	0.409700
C801	C80	0.035400	0.520700	0.372900
H471	H47	0.065000	0.498000	0.351000
C811	C81	0.034800	0.578600	0.448600
C821	C82	0.069300	0.608800	0.487500
C831	C83	0.035000	0.637500	0.525000
H481	H48	0.060000	0.655000	0.556000
C841	C84	0.142500	0.610300	0.488100
N131	N13	0.383500	0.414300	0.547820
N141	N14	0.174900	0.418200	0.551600
O131	O13	0.174400	0.470800	0.623470
O141	O14	0.174500	0.367600	0.479150
C851	C85	0.460500	0.228900	0.890200
H491	H49	0.440100	0.262200	0.913500
C861	C86	0.458300	0.252600	0.845100
H501	H50	0.430900	0.299000	0.836200
C871	C87	0.350600	0.485000	0.556100
H511	H51	0.374800	0.533800	0.561200
C881	C88	0.282000	0.489200	0.557600
H521	H52	0.260400	0.539800	0.562700
C891	C89	0.246600	0.416200	0.551300
C901	C90	0.279400	0.343000	0.544000
H531	H53	0.256400	0.293000	0.540000
C911	C91	0.348800	0.345000	0.542800
H541	H54	0.371600	0.295000	0.538200
C921	C92	0.141800	0.448800	0.590800
C931	C93	0.069500	0.450200	0.590300
C941	C94	0.035400	0.479300	0.627100
H551	H55	0.065000	0.502000	0.649000
C951	C95	0.034800	0.421400	0.551400
C961	C96	0.069300	0.391200	0.512500
C971	C97	0.035000	0.362500	0.475000
H561	H56	0.060000	0.345000	0.444000
C981	C98	0.142500	0.389700	0.511900
N151	N15	0.616500	0.085700	0.047820
N161	N16	0.825100	0.081800	0.051600
O151	O15	0.825600	0.029200	0.123470
O161	O16	0.825500	0.132400	0.979150
C991	C99	0.539500	0.271100	0.390200
H571	H57	0.559900	0.237800	0.413500
C1001	C100	0.541700	0.247400	0.345100
H581	H58	0.569100	0.201000	0.336200
C1011	C101	0.649400	0.015000	0.056100
H591	H59	0.625200	0.966200	0.061200
C1021	C102	0.718000	0.010800	0.057600
H601	H60	0.739600	0.960200	0.062700
C1031	C103	0.753400	0.083800	0.051300
C1041	C104	0.720600	0.157000	0.044000
H611	H61	0.743600	0.207000	0.040000
C1051	C105	0.651200	0.155000	0.042800
H621	H62	0.628400	0.205000	0.038200
C1061	C106	0.858200	0.051200	0.090800
C1071	C107	0.930500	0.049800	0.090300
C1081	C108	0.964600	0.020700	0.127100
H631	H63	0.935000	0.998000	0.149000
C1091	C109	0.965200	0.078600	0.051400
C1101	C110	0.930700	0.108800	0.012500
C1111	C111	0.965000	0.137500	0.975000
H641	H64	0.940000	0.155000	0.944000
C1121	C112	0.857500	0.110300	0.011900
Cd11	Cd1	0.500000	0.092570	0.043600
C1131	C113	0.500000	0.170100	0.126100
O171	O17	0.500000	0.317300	0.481200
O181	O18	0.500000	0.445100	0.462070
C1141	C114	0.500000	0.204100	0.173700
O191	O19	0.500000	0.218500	0.092950
C1151	C115	0.500000	0.288000	0.182400
H651	H65	0.500000	0.325400	0.158100
O201	O20	0.500000	0.092100	0.121800
C1161	C116	0.500000	0.318600	0.226200
H661	H66	0.500000	0.376200	0.231000
C1171	C117	0.500000	0.179900	0.254400
H671	H67	0.500000	0.142500	0.278800
C1181	C118	0.500000	0.149000	0.210400
H681	H68	0.500000	0.091500	0.205300
C1191	C119	0.500000	0.264700	0.263300
C1201	C120	0.500000	0.295500	0.310500
C1211	C121	0.500000	0.371500	0.322700
H691	H69	0.500000	0.412100	0.300000
C1221	C122	0.500000	0.398800	0.368400
H701	H70	0.500000	0.456000	0.374300
C1231	C123	0.500000	0.347400	0.402300
C1241	C124	0.500000	0.371300	0.451600
Cd21	Cd2	0.500000	0.407430	0.543600
C1251	C125	0.500000	0.329900	0.626100
O211	O21	0.500000	0.182700	0.981200
O221	O22	0.500000	0.054900	0.962070
C1261	C126	0.500000	0.295900	0.673700
O231	O23	0.500000	0.281500	0.592950
C1271	C127	0.500000	0.212000	0.682400
H711	H71	0.500000	0.174600	0.658100
O241	O24	0.500000	0.407900	0.621800
C1281	C128	0.500000	0.181400	0.726200
H721	H72	0.500000	0.123800	0.731000
C1291	C129	0.500000	0.320100	0.754400
H731	H73	0.500000	0.357500	0.778800
C1301	C130	0.500000	0.351000	0.710400
H741	H74	0.500000	0.408500	0.705300
C1311	C131	0.500000	0.235300	0.763300
C1321	C132	0.500000	0.204500	0.810500
C1331	C133	0.500000	0.128500	0.822700
H751	H75	0.500000	0.087900	0.800000
C1341	C134	0.500000	0.101200	0.868400
H761	H76	0.500000	0.044000	0.874300
C1351	C135	0.500000	0.152600	0.902300
C1361	C136	0.500000	0.128700	0.951600
Cd31	Cd3	0.500000	0.592570	0.456400
C1371	C137	0.500000	0.670100	0.373900
O251	O25	0.500000	0.817300	0.018800
O261	O26	0.500000	0.945100	0.037930
C1381	C138	0.500000	0.704100	0.326300
O271	O27	0.500000	0.718500	0.407050
C1391	C139	0.500000	0.788000	0.317600
H771	H77	0.500000	0.825400	0.341900
O281	O28	0.500000	0.592100	0.378200
C1401	C140	0.500000	0.818600	0.273800
H781	H78	0.500000	0.876200	0.269000
C1411	C141	0.500000	0.679900	0.245600
H791	H79	0.500000	0.642500	0.221200
C1421	C142	0.500000	0.649000	0.289600
H801	H80	0.500000	0.591500	0.294700
C1431	C143	0.500000	0.764700	0.236700
C1441	C144	0.500000	0.795500	0.189500
C1451	C145	0.500000	0.871500	0.177300
H811	H81	0.500000	0.912100	0.200000
C1461	C146	0.500000	0.898800	0.131600
H821	H82	0.500000	0.956000	0.125700
C1471	C147	0.500000	0.847400	0.097700
C1481	C148	0.500000	0.871300	0.048400
Cd41	Cd4	0.500000	0.907430	0.956400
C1491	C149	0.500000	0.829900	0.873900
O291	O29	0.500000	0.682700	0.518800
O301	O30	0.500000	0.554900	0.537930
C1501	C150	0.500000	0.795900	0.826300
O311	O31	0.500000	0.781500	0.907050
C1511	C151	0.500000	0.712000	0.817600
H831	H83	0.500000	0.674600	0.841900
O321	O32	0.500000	0.907900	0.878200
C1521	C152	0.500000	0.681400	0.773800
H841	H84	0.500000	0.623800	0.769000
C1531	C153	0.500000	0.820100	0.745600
H851	H85	0.500000	0.857500	0.721200
C1541	C154	0.500000	0.851000	0.789600
H861	H86	0.500000	0.908500	0.794700
C1551	C155	0.500000	0.735300	0.736700
C1561	C156	0.500000	0.704500	0.689500
C1571	C157	0.500000	0.628500	0.677300
H871	H87	0.500000	0.587900	0.700000
C1581	C158	0.500000	0.601200	0.631600
H881	H88	0.500000	0.544000	0.625700
C1591	C159	0.500000	0.652600	0.597700
C1601	C160	0.500000	0.628700	0.548400
N171	N17	0.883500	0.585700	0.047820
N181	N18	0.674900	0.581800	0.051600
O331	O33	0.674400	0.529200	0.123470
O341	O34	0.674500	0.632400	0.979150
C1611	C161	0.960500	0.771100	0.390200
H891	H89	0.940100	0.737800	0.413500
C1621	C162	0.958300	0.747400	0.345100
H901	H90	0.930900	0.701000	0.336200
C1631	C163	0.850600	0.515000	0.056100
H911	H91	0.874800	0.466200	0.061200
C1641	C164	0.782000	0.510800	0.057600
H921	H92	0.760400	0.460200	0.062700
C1651	C165	0.746600	0.583800	0.051300
C1661	C166	0.779400	0.657000	0.044000
H931	H93	0.756400	0.707000	0.040000
C1671	C167	0.848800	0.655000	0.042800
H941	H94	0.871600	0.705000	0.038200
C1681	C168	0.641800	0.551200	0.090800
C1691	C169	0.569500	0.549800	0.090300
C1701	C170	0.535400	0.520700	0.127100
H951	H95	0.565000	0.498000	0.149000
C1711	C171	0.534800	0.578600	0.051400
C1721	C172	0.569300	0.608800	0.012500
C1731	C173	0.535000	0.637500	0.975000
H961	H96	0.560000	0.655000	0.944000
C1741	C174	0.642500	0.610300	0.011900
N191	N19	0.116500	0.914300	0.547820
N201	N20	0.325100	0.918200	0.551600
O351	O35	0.325600	0.970800	0.623470
O361	O36	0.325500	0.867600	0.479150
C1751	C175	0.039500	0.728900	0.890200
H971	H97	0.059900	0.762200	0.913500
C1761	C176	0.041700	0.752600	0.845100
H981	H98	0.069100	0.799000	0.836200
C1771	C177	0.149400	0.985000	0.556100
H991	H99	0.125200	0.033800	0.561200
C1781	C178	0.218000	0.989200	0.557600
H1001	H100	0.239600	0.039800	0.562700
C1791	C179	0.253400	0.916200	0.551300
C1801	C180	0.220600	0.843000	0.544000
H1011	H101	0.243600	0.793000	0.540000
C1811	C181	0.151200	0.845000	0.542800
H1021	H102	0.128400	0.795000	0.538200
C1821	C182	0.358200	0.948800	0.590800
C1831	C183	0.430500	0.950200	0.590300
C1841	C184	0.464600	0.979300	0.627100
H1031	H103	0.435000	0.002000	0.649000
C1851	C185	0.465200	0.921400	0.551400
C1861	C186	0.430700	0.891200	0.512500
C1871	C187	0.465000	0.862500	0.475000
H1041	H104	0.440000	0.845000	0.444000
C1881	C188	0.357500	0.889700	0.511900
N211	N21	0.116500	0.085700	0.452180
N221	N22	0.325100	0.081800	0.448400
O371	O37	0.325600	0.029200	0.376530
O381	O38	0.325500	0.132400	0.520850
C1891	C189	0.039500	0.271100	0.109800
H1051	H105	0.059900	0.237800	0.086500
C1901	C190	0.041700	0.247400	0.154900
H1061	H106	0.069100	0.201000	0.163800
C1911	C191	0.149400	0.015000	0.443900
H1071	H107	0.125200	0.966200	0.438800
C1921	C192	0.218000	0.010800	0.442400
H1081	H108	0.239600	0.960200	0.437300
C1931	C193	0.253400	0.083800	0.448700
C1941	C194	0.220600	0.157000	0.456000
H1091	H109	0.243600	0.207000	0.460000
C1951	C195	0.151200	0.155000	0.457200
H1101	H110	0.128400	0.205000	0.461800
C1961	C196	0.358200	0.051200	0.409200
C1971	C197	0.430500	0.049800	0.409700
C1981	C198	0.464600	0.020700	0.372900
H1111	H111	0.435000	0.998000	0.351000
C1991	C199	0.465200	0.078600	0.448600
C2001	C200	0.430700	0.108800	0.487500
C2011	C201	0.465000	0.137500	0.525000
H1121	H112	0.440000	0.155000	0.556000
C2021	C202	0.357500	0.110300	0.488100
N231	N23	0.883500	0.414300	0.952180
N241	N24	0.674900	0.418200	0.948400
O391	O39	0.674400	0.470800	0.876530
O401	O40	0.674500	0.367600	0.020850
C2031	C203	0.960500	0.228900	0.609800
H1131	H113	0.940100	0.262200	0.586500
C2041	C204	0.958300	0.252600	0.654900
H1141	H114	0.930900	0.299000	0.663800
C2051	C205	0.850600	0.485000	0.943900
H1151	H115	0.874800	0.533800	0.938800
C2061	C206	0.782000	0.489200	0.942400
H1161	H116	0.760400	0.539800	0.937300
C2071	C207	0.746600	0.416200	0.948700
C2081	C208	0.779400	0.343000	0.956000
H1171	H117	0.756400	0.293000	0.960000
C2091	C209	0.848800	0.345000	0.957200
H1181	H118	0.871600	0.295000	0.961800
C2101	C210	0.641800	0.448800	0.909200
C2111	C211	0.569500	0.450200	0.909700
C2121	C212	0.535400	0.479300	0.872900
H1191	H119	0.565000	0.502000	0.851000
C2131	C213	0.534800	0.421400	0.948600
C2141	C214	0.569300	0.391200	0.987500
C2151	C215	0.535000	0.362500	0.025000
H1201	H120	0.560000	0.345000	0.056000
C2161	C216	0.642500	0.389700	0.988100
N251	N25	0.116500	0.414300	0.952180
N261	N26	0.325100	0.418200	0.948400
O411	O41	0.325600	0.470800	0.876530
O421	O42	0.325500	0.367600	0.020850
C2171	C217	0.039500	0.228900	0.609800
H1211	H121	0.059900	0.262200	0.586500
C2181	C218	0.041700	0.252600	0.654900
H1221	H122	0.069100	0.299000	0.663800
C2191	C219	0.149400	0.485000	0.943900
H1231	H123	0.125200	0.533800	0.938800
C2201	C220	0.218000	0.489200	0.942400
H1241	H124	0.239600	0.539800	0.937300
C2211	C221	0.253400	0.416200	0.948700
C2221	C222	0.220600	0.343000	0.956000
H1251	H125	0.243600	0.293000	0.960000
C2231	C223	0.151200	0.345000	0.957200
H1261	H126	0.128400	0.295000	0.961800
C2241	C224	0.358200	0.448800	0.909200
C2251	C225	0.430500	0.450200	0.909700
C2261	C226	0.464600	0.479300	0.872900
H1271	H127	0.435000	0.502000	0.851000
C2271	C227	0.465200	0.421400	0.948600
C2281	C228	0.430700	0.391200	0.987500
C2291	C229	0.465000	0.362500	0.025000
H1281	H128	0.440000	0.345000	0.056000
C2301	C230	0.357500	0.389700	0.988100
N271	N27	0.883500	0.085700	0.452180
N281	N28	0.674900	0.081800	0.448400
O431	O43	0.674400	0.029200	0.376530
O441	O44	0.674500	0.132400	0.520850
C2311	C231	0.960500	0.271100	0.109800
H1291	H129	0.940100	0.237800	0.086500
C2321	C232	0.958300	0.247400	0.154900
H1301	H130	0.930900	0.201000	0.163800
C2331	C233	0.850600	0.015000	0.443900
H1311	H131	0.874800	0.966200	0.438800
C2341	C234	0.782000	0.010800	0.442400
H1321	H132	0.760400	0.960200	0.437300
C2351	C235	0.746600	0.083800	0.448700
C2361	C236	0.779400	0.157000	0.456000
H1331	H133	0.756400	0.207000	0.460000
C2371	C237	0.848800	0.155000	0.457200
H1341	H134	0.871600	0.205000	0.461800
C2381	C238	0.641800	0.051200	0.409200
C2391	C239	0.569500	0.049800	0.409700
C2401	C240	0.535400	0.020700	0.372900
H1351	H135	0.565000	0.998000	0.351000
C2411	C241	0.534800	0.078600	0.448600
C2421	C242	0.569300	0.108800	0.487500
C2431	C243	0.535000	0.137500	0.525000
H1361	H136	0.560000	0.155000	0.556000
C2441	C244	0.642500	0.110300	0.488100
N291	N29	0.883500	0.914300	0.547820
N301	N30	0.674900	0.918200	0.551600
O451	O45	0.674400	0.970800	0.623470
O461	O46	0.674500	0.867600	0.479150
C2451	C245	0.960500	0.728900	0.890200
H1371	H137	0.940100	0.762200	0.913500
C2461	C246	0.958300	0.752600	0.845100
H1381	H138	0.930900	0.799000	0.836200
C2471	C247	0.850600	0.985000	0.556100
H1391	H139	0.874800	0.033800	0.561200
C2481	C248	0.782000	0.989200	0.557600
H1401	H140	0.760400	0.039800	0.562700
C2491	C249	0.746600	0.916200	0.551300
C2501	C250	0.779400	0.843000	0.544000
H1411	H141	0.756400	0.793000	0.540000
C2511	C251	0.848800	0.845000	0.542800
H1421	H142	0.871600	0.795000	0.538200
C2521	C252	0.641800	0.948800	0.590800
C2531	C253	0.569500	0.950200	0.590300
C2541	C254	0.535400	0.979300	0.627100
H1431	H143	0.565000	0.002000	0.649000
C2551	C255	0.534800	0.921400	0.551400
C2561	C256	0.569300	0.891200	0.512500
C2571	C257	0.535000	0.862500	0.475000
H1441	H144	0.560000	0.845000	0.444000
C2581	C258	0.642500	0.889700	0.511900
N311	N31	0.116500	0.585700	0.047820
N321	N32	0.325100	0.581800	0.051600
O471	O47	0.325600	0.529200	0.123470
O481	O48	0.325500	0.632400	0.979150
C2591	C259	0.039500	0.771100	0.390200
H1451	H145	0.059900	0.737800	0.413500
C2601	C260	0.041700	0.747400	0.345100
H1461	H146	0.069100	0.701000	0.336200
C2611	C261	0.149400	0.515000	0.056100
H1471	H147	0.125200	0.466200	0.061200
C2621	C262	0.218000	0.510800	0.057600
H1481	H148	0.239600	0.460200	0.062700
C2631	C263	0.253400	0.583800	0.051300
C2641	C264	0.220600	0.657000	0.044000
H1491	H149	0.243600	0.707000	0.040000
C2651	C265	0.151200	0.655000	0.042800
H1501	H150	0.128400	0.705000	0.038200
C2661	C266	0.358200	0.551200	0.090800
C2671	C267	0.430500	0.549800	0.090300
C2681	C268	0.464600	0.520700	0.127100
H1511	H151	0.435000	0.498000	0.149000
C2691	C269	0.465200	0.578600	0.051400
C2701	C270	0.430700	0.608800	0.012500
C2711	C271	0.465000	0.637500	0.975000
H1521	H152	0.440000	0.655000	0.944000
C2721	C272	0.357500	0.610300	0.011900
Cd51	Cd5	0.000000	0.592570	0.043600
C2731	C273	0.000000	0.670100	0.126100
O491	O49	0.000000	0.817300	0.481200
O501	O50	0.000000	0.945100	0.462070
C2741	C274	0.000000	0.704100	0.173700
O511	O51	0.000000	0.718500	0.092950
C2751	C275	0.000000	0.788000	0.182400
H1531	H153	0.000000	0.825400	0.158100
O521	O52	0.000000	0.592100	0.121800
C2761	C276	0.000000	0.818600	0.226200
H1541	H154	0.000000	0.876200	0.231000
C2771	C277	0.000000	0.679900	0.254400
H1551	H155	0.000000	0.642500	0.278800
C2781	C278	0.000000	0.649000	0.210400
H1561	H156	0.000000	0.591500	0.205300
C2791	C279	0.000000	0.764700	0.263300
C2801	C280	0.000000	0.795500	0.310500
C2811	C281	0.000000	0.871500	0.322700
H1571	H157	0.000000	0.912100	0.300000
C2821	C282	0.000000	0.898800	0.368400
H1581	H158	0.000000	0.956000	0.374300
C2831	C283	0.000000	0.847400	0.402300
C2841	C284	0.000000	0.871300	0.451600
Cd61	Cd6	0.000000	0.907430	0.543600
C2851	C285	0.000000	0.829900	0.626100
O531	O53	0.000000	0.682700	0.981200
O541	O54	0.000000	0.554900	0.962070
C2861	C286	0.000000	0.795900	0.673700
O551	O55	0.000000	0.781500	0.592950
C2871	C287	0.000000	0.712000	0.682400
H1591	H159	0.000000	0.674600	0.658100
O561	O56	0.000000	0.907900	0.621800
C2881	C288	0.000000	0.681400	0.726200
H1601	H160	0.000000	0.623800	0.731000
C2891	C289	0.000000	0.820100	0.754400
H1611	H161	0.000000	0.857500	0.778800
C2901	C290	0.000000	0.851000	0.710400
H1621	H162	0.000000	0.908500	0.705300
C2911	C291	0.000000	0.735300	0.763300
C2921	C292	0.000000	0.704500	0.810500
C2931	C293	0.000000	0.628500	0.822700
H1631	H163	0.000000	0.587900	0.800000
C2941	C294	0.000000	0.601200	0.868400
H1641	H164	0.000000	0.544000	0.874300
C2951	C295	0.000000	0.652600	0.902300
C2961	C296	0.000000	0.628700	0.951600
Cd71	Cd7	0.000000	0.092570	0.456400
C2971	C297	0.000000	0.170100	0.373900
O571	O57	0.000000	0.317300	0.018800
O581	O58	0.000000	0.445100	0.037930
C2981	C298	0.000000	0.204100	0.326300
O591	O59	0.000000	0.218500	0.407050
C2991	C299	0.000000	0.288000	0.317600
H1651	H165	0.000000	0.325400	0.341900
O601	O60	0.000000	0.092100	0.378200
C3001	C300	0.000000	0.318600	0.273800
H1661	H166	0.000000	0.376200	0.269000
C3011	C301	0.000000	0.179900	0.245600
H1671	H167	0.000000	0.142500	0.221200
C3021	C302	0.000000	0.149000	0.289600
H1681	H168	0.000000	0.091500	0.294700
C3031	C303	0.000000	0.264700	0.236700
C3041	C304	0.000000	0.295500	0.189500
C3051	C305	0.000000	0.371500	0.177300
H1691	H169	0.000000	0.412100	0.200000
C3061	C306	0.000000	0.398800	0.131600
H1701	H170	0.000000	0.456000	0.125700
C3071	C307	0.000000	0.347400	0.097700
C3081	C308	0.000000	0.371300	0.048400
Cd81	Cd8	0.000000	0.407430	0.956400
C3091	C309	0.000000	0.329900	0.873900
O611	O61	0.000000	0.182700	0.518800
O621	O62	0.000000	0.054900	0.537930
C3101	C310	0.000000	0.295900	0.826300
O631	O63	0.000000	0.281500	0.907050
C3111	C311	0.000000	0.212000	0.817600
H1711	H171	0.000000	0.174600	0.841900
O641	O64	0.000000	0.407900	0.878200
C3121	C312	0.000000	0.181400	0.773800
H1721	H172	0.000000	0.123800	0.769000
C3131	C313	0.000000	0.320100	0.745600
H1731	H173	0.000000	0.357500	0.721200
C3141	C314	0.000000	0.351000	0.789600
H1741	H174	0.000000	0.408500	0.794700
C3151	C315	0.000000	0.235300	0.736700
C3161	C316	0.000000	0.204500	0.689500
C3171	C317	0.000000	0.128500	0.677300
H1751	H175	0.000000	0.087900	0.700000
C3181	C318	0.000000	0.101200	0.631600
H1761	H176	0.000000	0.044000	0.625700
C3191	C319	0.000000	0.152600	0.597700
C3201	C320	0.000000	0.128700	0.548400
