data_IGUTUB_clean_PM
_symmetry_space_group_name_H-M	'P1'
_cell_length_a	9.705500
_cell_length_b	17.849800
_cell_length_c	14.784500
_cell_angle_alpha	90.000000
_cell_angle_beta	94.748500
_cell_angle_gamma	90.000000
_symmetry_Int_Tables_number 1

loop_
_symmetry_equiv_pos_as_xyz
'x,y,z'

loop_
_atom_site_label
_atom_site_type_symbol
_atom_site_fract_x
_atom_site_fract_y
_atom_site_fract_z
Cd11	Cd1	0.868330	0.581590	0.519260
O11	O1	0.761900	0.542140	0.384380
O21	O2	0.683800	0.666400	0.530600
O31	O3	0.839700	0.662330	0.646540
O41	O4	0.934400	0.463880	0.403100
N11	N1	0.992900	0.164970	0.050900
N21	N2	0.246400	0.990020	0.905100
C11	C1	0.824500	0.484680	0.363200
C21	C2	0.758100	0.437300	0.287900
C31	C3	0.829600	0.380000	0.249100
H11	H1	0.920300	0.369900	0.270900
C41	C4	0.767500	0.337200	0.177600
C51	C5	0.630400	0.351400	0.148100
H21	H2	0.587400	0.323300	0.100900
C61	C6	0.557700	0.406800	0.188200
H31	H3	0.465100	0.414600	0.169100
C71	C7	0.621100	0.451100	0.256600
H41	H4	0.572500	0.489900	0.281500
C81	C8	0.008800	0.177600	0.139800
H51	H5	0.070500	0.147500	0.174900
C91	C9	0.939300	0.232600	0.183000
H61	H6	0.955700	0.239300	0.245400
C101	C10	0.845700	0.277400	0.134000
C111	C11	0.827200	0.263600	0.042400
H71	H7	0.764200	0.292200	0.006200
C121	C12	0.900900	0.208000	0.003500
H81	H8	0.885800	0.200200	0.941300
C131	C13	0.726400	0.684300	0.609700
C141	C14	0.637700	0.734600	0.662100
C151	C15	0.511900	0.760900	0.624700
H91	H9	0.478500	0.745200	0.567000
C161	C16	0.435300	0.810100	0.671800
H101	H10	0.352800	0.828700	0.644000
C171	C17	0.477100	0.832500	0.758800
C181	C18	0.600700	0.802900	0.797300
H111	H11	0.631900	0.816400	0.856300
C191	C19	0.678100	0.754100	0.750100
H121	H12	0.759100	0.734100	0.778300
C201	C20	0.221400	0.980500	0.815500
H131	H13	0.152800	0.009500	0.785000
C211	C21	0.291300	0.930300	0.766200
H141	H14	0.269500	0.925900	0.704000
C221	C22	0.395400	0.885900	0.809300
C231	C23	0.420600	0.896400	0.901700
H151	H15	0.488400	0.868300	0.934200
C241	C24	0.346600	0.947900	0.945600
H161	H16	0.367400	0.954000	0.007700
Cd21	Cd2	0.131670	0.081590	0.980740
O51	O5	0.238100	0.042140	0.115620
O61	O6	0.316200	0.166400	0.969400
O71	O7	0.160300	0.162330	0.853460
O81	O8	0.065600	0.963880	0.096900
N31	N3	0.007100	0.664970	0.449100
N41	N4	0.753600	0.490020	0.594900
C251	C25	0.175500	0.984680	0.136800
C261	C26	0.241900	0.937300	0.212100
C271	C27	0.170400	0.880000	0.250900
H171	H17	0.079700	0.869900	0.229100
C281	C28	0.232500	0.837200	0.322400
C291	C29	0.369600	0.851400	0.351900
H181	H18	0.412600	0.823300	0.399100
C301	C30	0.442300	0.906800	0.311800
H191	H19	0.534900	0.914600	0.330900
C311	C31	0.378900	0.951100	0.243400
H201	H20	0.427500	0.989900	0.218500
C321	C32	0.991200	0.677600	0.360200
H211	H21	0.929500	0.647500	0.325100
C331	C33	0.060700	0.732600	0.317000
H221	H22	0.044300	0.739300	0.254600
C341	C34	0.154300	0.777400	0.366000
C351	C35	0.172800	0.763600	0.457600
H231	H23	0.235800	0.792200	0.493800
C361	C36	0.099100	0.708000	0.496500
H241	H24	0.114200	0.700200	0.558700
C371	C37	0.273600	0.184300	0.890300
C381	C38	0.362300	0.234600	0.837900
C391	C39	0.488100	0.260900	0.875300
H251	H25	0.521500	0.245200	0.933000
C401	C40	0.564700	0.310100	0.828200
H261	H26	0.647200	0.328700	0.856000
C411	C41	0.522900	0.332500	0.741200
C421	C42	0.399300	0.302900	0.702700
H271	H27	0.368100	0.316400	0.643700
C431	C43	0.321900	0.254100	0.749900
H281	H28	0.240900	0.234100	0.721700
C441	C44	0.778600	0.480500	0.684500
H291	H29	0.847200	0.509500	0.715000
C451	C45	0.708700	0.430300	0.733800
H301	H30	0.730500	0.425900	0.796000
C461	C46	0.604600	0.385900	0.690700
C471	C47	0.579400	0.396400	0.598300
H311	H31	0.511600	0.368300	0.565800
C481	C48	0.653400	0.447900	0.554400
H321	H32	0.632600	0.454000	0.492300
Cd31	Cd3	0.131670	0.418410	0.480740
O91	O9	0.238100	0.457860	0.615620
O101	O10	0.316200	0.333600	0.469400
O111	O11	0.160300	0.337670	0.353460
O121	O12	0.065600	0.536120	0.596900
N51	N5	0.007100	0.835030	0.949100
N61	N6	0.753600	0.009980	0.094900
C491	C49	0.175500	0.515320	0.636800
C501	C50	0.241900	0.562700	0.712100
C511	C51	0.170400	0.620000	0.750900
H331	H33	0.079700	0.630100	0.729100
C521	C52	0.232500	0.662800	0.822400
C531	C53	0.369600	0.648600	0.851900
H341	H34	0.412600	0.676700	0.899100
C541	C54	0.442300	0.593200	0.811800
H351	H35	0.534900	0.585400	0.830900
C551	C55	0.378900	0.548900	0.743400
H361	H36	0.427500	0.510100	0.718500
C561	C56	0.991200	0.822400	0.860200
H371	H37	0.929500	0.852500	0.825100
C571	C57	0.060700	0.767400	0.817000
H381	H38	0.044300	0.760700	0.754600
C581	C58	0.154300	0.722600	0.866000
C591	C59	0.172800	0.736400	0.957600
H391	H39	0.235800	0.707800	0.993800
C601	C60	0.099100	0.792000	0.996500
H401	H40	0.114200	0.799800	0.058700
C611	C61	0.273600	0.315700	0.390300
C621	C62	0.362300	0.265400	0.337900
C631	C63	0.488100	0.239100	0.375300
H411	H41	0.521500	0.254800	0.433000
C641	C64	0.564700	0.189900	0.328200
H421	H42	0.647200	0.171300	0.356000
C651	C65	0.522900	0.167500	0.241200
C661	C66	0.399300	0.197100	0.202700
H431	H43	0.368100	0.183600	0.143700
C671	C67	0.321900	0.245900	0.249900
H441	H44	0.240900	0.265900	0.221700
C681	C68	0.778600	0.019500	0.184500
H451	H45	0.847200	0.990500	0.215000
C691	C69	0.708700	0.069700	0.233800
H461	H46	0.730500	0.074100	0.296000
C701	C70	0.604600	0.114100	0.190700
C711	C71	0.579400	0.103600	0.098300
H471	H47	0.511600	0.131700	0.065800
C721	C72	0.653400	0.052100	0.054400
H481	H48	0.632600	0.046000	0.992300
Cd41	Cd4	0.868330	0.918410	0.019260
O131	O13	0.761900	0.957860	0.884380
O141	O14	0.683800	0.833600	0.030600
O151	O15	0.839700	0.837670	0.146540
O161	O16	0.934400	0.036120	0.903100
N71	N7	0.992900	0.335030	0.550900
N81	N8	0.246400	0.509980	0.405100
C731	C73	0.824500	0.015320	0.863200
C741	C74	0.758100	0.062700	0.787900
C751	C75	0.829600	0.120000	0.749100
H491	H49	0.920300	0.130100	0.770900
C761	C76	0.767500	0.162800	0.677600
C771	C77	0.630400	0.148600	0.648100
H501	H50	0.587400	0.176700	0.600900
C781	C78	0.557700	0.093200	0.688200
H511	H51	0.465100	0.085400	0.669100
C791	C79	0.621100	0.048900	0.756600
H521	H52	0.572500	0.010100	0.781500
C801	C80	0.008800	0.322400	0.639800
H531	H53	0.070500	0.352500	0.674900
C811	C81	0.939300	0.267400	0.683000
H541	H54	0.955700	0.260700	0.745400
C821	C82	0.845700	0.222600	0.634000
C831	C83	0.827200	0.236400	0.542400
H551	H55	0.764200	0.207800	0.506200
C841	C84	0.900900	0.292000	0.503500
H561	H56	0.885800	0.299800	0.441300
C851	C85	0.726400	0.815700	0.109700
C861	C86	0.637700	0.765400	0.162100
C871	C87	0.511900	0.739100	0.124700
H571	H57	0.478500	0.754800	0.067000
C881	C88	0.435300	0.689900	0.171800
H581	H58	0.352800	0.671300	0.144000
C891	C89	0.477100	0.667500	0.258800
C901	C90	0.600700	0.697100	0.297300
H591	H59	0.631900	0.683600	0.356300
C911	C91	0.678100	0.745900	0.250100
H601	H60	0.759100	0.765900	0.278300
C921	C92	0.221400	0.519500	0.315500
H611	H61	0.152800	0.490500	0.285000
C931	C93	0.291300	0.569700	0.266200
H621	H62	0.269500	0.574100	0.204000
C941	C94	0.395400	0.614100	0.309300
C951	C95	0.420600	0.603600	0.401700
H631	H63	0.488400	0.631700	0.434200
C961	C96	0.346600	0.552100	0.445600
H641	H64	0.367400	0.546000	0.507700
