data_IGUTEK_clean_PM
_symmetry_space_group_name_H-M	'P1'
_cell_length_a	13.542000
_cell_length_b	13.542000
_cell_length_c	15.192000
_cell_angle_alpha	90.000000
_cell_angle_beta	90.000000
_cell_angle_gamma	120.000000
_symmetry_Int_Tables_number 1

loop_
_symmetry_equiv_pos_as_xyz
'x,y,z'

loop_
_atom_site_label
_atom_site_type_symbol
_atom_site_fract_x
_atom_site_fract_y
_atom_site_fract_z
Si11	Si1	0.233190	0.999900	0.100230
Al11	Al1	0.233420	0.000570	0.899560
O11	O1	0.273900	0.000300	0.999200
O21	O2	0.334400	0.015100	0.166900
O31	O3	0.205300	0.103700	0.113300
O41	O4	0.120000	0.878800	0.123700
P11	P1	0.333430	0.899960	0.766900
Si21	Si2	0.899860	0.333230	0.433560
Al21	Al2	0.900090	0.333900	0.232890
O51	O5	0.940570	0.333630	0.332530
O61	O6	0.001070	0.348430	0.500230
O71	O7	0.871970	0.437030	0.446630
O81	O8	0.786670	0.212130	0.457030
P21	P2	0.000100	0.233290	0.100230
Si31	Si3	0.566520	0.666570	0.766900
Al31	Al3	0.566750	0.667240	0.566230
O91	O9	0.607230	0.666970	0.665870
O101	O10	0.667730	0.681770	0.833570
O111	O11	0.538630	0.770370	0.779970
O121	O12	0.453330	0.545470	0.790370
P31	P3	0.666770	0.566620	0.433560
Al41	Al4	0.999430	0.232850	0.899560
O131	O13	0.999700	0.273600	0.999200
O141	O14	0.984900	0.319300	0.166900
O151	O15	0.896300	0.101600	0.113300
O161	O16	0.121200	0.241200	0.123700
P41	P4	0.100040	0.433480	0.766900
Al51	Al5	0.666100	0.566180	0.232890
O171	O17	0.666370	0.606930	0.332530
O181	O18	0.651570	0.652630	0.500230
O191	O19	0.562970	0.434930	0.446630
O201	O20	0.787870	0.574530	0.457030
P51	P5	0.766710	0.766810	0.100230
Al61	Al6	0.332760	0.899520	0.566230
O211	O21	0.333030	0.940270	0.665870
O221	O22	0.318230	0.985970	0.833570
O231	O23	0.229630	0.768270	0.779970
O241	O24	0.454530	0.907870	0.790370
P61	P6	0.433380	0.100140	0.433560
Al71	Al7	0.767150	0.766580	0.899560
O251	O25	0.726400	0.726100	0.999200
O261	O26	0.680700	0.665600	0.166900
O271	O27	0.898400	0.794700	0.113300
O281	O28	0.758800	0.880000	0.123700
Al81	Al8	0.433820	0.099910	0.232890
O291	O29	0.393070	0.059430	0.332530
O301	O30	0.347370	0.998930	0.500230
O311	O31	0.565070	0.128030	0.446630
O321	O32	0.425470	0.213330	0.457030
Al91	Al9	0.100480	0.433250	0.566230
O331	O33	0.059730	0.392770	0.665870
O341	O34	0.014030	0.332270	0.833570
O351	O35	0.231730	0.461370	0.779970
O361	O36	0.092130	0.546670	0.790370
Si41	Si4	0.766810	0.000100	0.899770
Al101	Al10	0.766580	0.999430	0.100440
O371	O37	0.726100	0.999700	0.000800
O381	O38	0.665600	0.984900	0.833100
O391	O39	0.794700	0.896300	0.886700
O401	O40	0.880000	0.121200	0.876300
P71	P7	0.666570	0.100040	0.233100
Si51	Si5	0.433480	0.333430	0.233100
Al111	Al11	0.433250	0.332760	0.433770
O411	O41	0.392770	0.333030	0.334130
O421	O42	0.332270	0.318230	0.166430
O431	O43	0.461370	0.229630	0.220030
O441	O44	0.546670	0.454530	0.209630
P81	P8	0.333230	0.433380	0.566440
Si61	Si6	0.100140	0.666770	0.566440
Al121	Al12	0.099910	0.666100	0.767110
O451	O45	0.059430	0.666370	0.667470
O461	O46	0.998930	0.651570	0.499770
O471	O47	0.128030	0.562970	0.553370
O481	O48	0.213330	0.787870	0.542970
P91	P9	0.999900	0.766710	0.899770
Al131	Al13	0.000570	0.767150	0.100440
O491	O49	0.000300	0.726400	0.000800
O501	O50	0.015100	0.680700	0.833100
O511	O51	0.103700	0.898400	0.886700
O521	O52	0.878800	0.758800	0.876300
P101	P10	0.899960	0.566520	0.233100
Al141	Al14	0.667240	0.100480	0.433770
O531	O53	0.666970	0.059730	0.334130
O541	O54	0.681770	0.014030	0.166430
O551	O55	0.770370	0.231730	0.220030
O561	O56	0.545470	0.092130	0.209630
P111	P11	0.566620	0.899860	0.566440
Al151	Al15	0.333900	0.433820	0.767110
O571	O57	0.333630	0.393070	0.667470
O581	O58	0.348430	0.347370	0.499770
O591	O59	0.437030	0.565070	0.553370
O601	O60	0.212130	0.425470	0.542970
P121	P12	0.233290	0.233190	0.899770
Al161	Al16	0.232850	0.233420	0.100440
O611	O61	0.273600	0.273900	0.000800
O621	O62	0.319300	0.334400	0.833100
O631	O63	0.101600	0.205300	0.886700
O641	O64	0.241200	0.120000	0.876300
Al171	Al17	0.899520	0.566750	0.433770
O651	O65	0.940270	0.607230	0.334130
O661	O66	0.985970	0.667730	0.166430
O671	O67	0.768270	0.538630	0.220030
O681	O68	0.907870	0.453330	0.209630
Al181	Al18	0.566180	0.900090	0.767110
O691	O69	0.606930	0.940570	0.667470
O701	O70	0.652630	0.001070	0.499770
O711	O71	0.434930	0.871970	0.553370
O721	O72	0.574530	0.786670	0.542970
