data_IGUVIR_clean_PM
_symmetry_space_group_name_H-M	'P1'
_cell_length_a	9.727000
_cell_length_b	17.020400
_cell_length_c	15.295900
_cell_angle_alpha	90.000000
_cell_angle_beta	96.847700
_cell_angle_gamma	90.000000
_symmetry_Int_Tables_number 1

loop_
_symmetry_equiv_pos_as_xyz
'x,y,z'

loop_
_atom_site_label
_atom_site_type_symbol
_atom_site_fract_x
_atom_site_fract_y
_atom_site_fract_z
Cd11	Cd1	0.866860	0.580260	0.519320
O11	O1	0.744600	0.538900	0.389930
O21	O2	0.683800	0.667760	0.532820
O31	O3	0.845500	0.661520	0.647350
O41	O4	0.931300	0.466020	0.401160
N11	N1	0.996600	0.166060	0.048350
N21	N2	0.244500	0.984270	0.909260
C11	C1	0.813800	0.482670	0.365990
C21	C2	0.746900	0.432950	0.290570
C31	C3	0.823200	0.377530	0.250050
H11	H1	0.917800	0.369300	0.271500
C41	C4	0.762500	0.333740	0.178100
C51	C5	0.621500	0.345500	0.148900
H21	H2	0.578500	0.316200	0.100300
C61	C6	0.544200	0.399600	0.190700
H31	H3	0.448500	0.406200	0.171200
C71	C7	0.606400	0.444100	0.260800
H41	H4	0.553900	0.481900	0.288300
C81	C8	0.013300	0.174590	0.135700
H51	H5	0.079300	0.142100	0.169200
C91	C9	0.940500	0.227670	0.180400
H61	H6	0.956400	0.231000	0.242800
C101	C10	0.843500	0.276360	0.133000
C111	C11	0.825800	0.267300	0.041700
H71	H7	0.760400	0.299000	0.006700
C121	C12	0.902000	0.213100	0.002300
H81	H8	0.887900	0.208300	0.940000
C131	C13	0.729100	0.684600	0.611530
C141	C14	0.640800	0.733800	0.663500
C151	C15	0.510200	0.759600	0.627200
H91	H9	0.475200	0.744300	0.569000
C161	C16	0.431200	0.807200	0.674900
H101	H10	0.342700	0.824300	0.648800
C171	C17	0.479300	0.830370	0.760710
C181	C18	0.609000	0.802600	0.797400
H111	H11	0.643900	0.816900	0.855900
C191	C19	0.686700	0.754800	0.749700
H121	H12	0.773600	0.735800	0.776300
C201	C20	0.215400	0.976300	0.822000
H131	H13	0.140600	0.005900	0.793100
C211	C21	0.286900	0.927820	0.771500
H141	H14	0.262100	0.925200	0.709600
C221	C22	0.396600	0.882400	0.811850
C231	C23	0.425200	0.890000	0.902860
H151	H15	0.497700	0.860000	0.933800
C241	C24	0.349800	0.940100	0.948010
H161	H16	0.372700	0.944200	0.010000
Cd21	Cd2	0.133140	0.080260	0.980680
O51	O5	0.255400	0.038900	0.110070
O61	O6	0.316200	0.167760	0.967180
O71	O7	0.154500	0.161520	0.852650
O81	O8	0.068700	0.966020	0.098840
N31	N3	0.003400	0.666060	0.451650
N41	N4	0.755500	0.484270	0.590740
C251	C25	0.186200	0.982670	0.134010
C261	C26	0.253100	0.932950	0.209430
C271	C27	0.176800	0.877530	0.249950
H171	H17	0.082200	0.869300	0.228500
C281	C28	0.237500	0.833740	0.321900
C291	C29	0.378500	0.845500	0.351100
H181	H18	0.421500	0.816200	0.399700
C301	C30	0.455800	0.899600	0.309300
H191	H19	0.551500	0.906200	0.328800
C311	C31	0.393600	0.944100	0.239200
H201	H20	0.446100	0.981900	0.211700
C321	C32	0.986700	0.674590	0.364300
H211	H21	0.920700	0.642100	0.330800
C331	C33	0.059500	0.727670	0.319600
H221	H22	0.043600	0.731000	0.257200
C341	C34	0.156500	0.776360	0.367000
C351	C35	0.174200	0.767300	0.458300
H231	H23	0.239600	0.799000	0.493300
C361	C36	0.098000	0.713100	0.497700
H241	H24	0.112100	0.708300	0.560000
C371	C37	0.270900	0.184600	0.888470
C381	C38	0.359200	0.233800	0.836500
C391	C39	0.489800	0.259600	0.872800
H251	H25	0.524800	0.244300	0.931000
C401	C40	0.568800	0.307200	0.825100
H261	H26	0.657300	0.324300	0.851200
C411	C41	0.520700	0.330370	0.739290
C421	C42	0.391000	0.302600	0.702600
H271	H27	0.356100	0.316900	0.644100
C431	C43	0.313300	0.254800	0.750300
H281	H28	0.226400	0.235800	0.723700
C441	C44	0.784600	0.476300	0.678000
H291	H29	0.859400	0.505900	0.706900
C451	C45	0.713100	0.427820	0.728500
H301	H30	0.737900	0.425200	0.790400
C461	C46	0.603400	0.382400	0.688150
C471	C47	0.574800	0.390000	0.597140
H311	H31	0.502300	0.360000	0.566200
C481	C48	0.650200	0.440100	0.551990
H321	H32	0.627300	0.444200	0.490000
Cd31	Cd3	0.133140	0.419740	0.480680
O91	O9	0.255400	0.461100	0.610070
O101	O10	0.316200	0.332240	0.467180
O111	O11	0.154500	0.338480	0.352650
O121	O12	0.068700	0.533980	0.598840
N51	N5	0.003400	0.833940	0.951650
N61	N6	0.755500	0.015730	0.090740
C491	C49	0.186200	0.517330	0.634010
C501	C50	0.253100	0.567050	0.709430
C511	C51	0.176800	0.622470	0.749950
H331	H33	0.082200	0.630700	0.728500
C521	C52	0.237500	0.666260	0.821900
C531	C53	0.378500	0.654500	0.851100
H341	H34	0.421500	0.683800	0.899700
C541	C54	0.455800	0.600400	0.809300
H351	H35	0.551500	0.593800	0.828800
C551	C55	0.393600	0.555900	0.739200
H361	H36	0.446100	0.518100	0.711700
C561	C56	0.986700	0.825410	0.864300
H371	H37	0.920700	0.857900	0.830800
C571	C57	0.059500	0.772330	0.819600
H381	H38	0.043600	0.769000	0.757200
C581	C58	0.156500	0.723640	0.867000
C591	C59	0.174200	0.732700	0.958300
H391	H39	0.239600	0.701000	0.993300
C601	C60	0.098000	0.786900	0.997700
H401	H40	0.112100	0.791700	0.060000
C611	C61	0.270900	0.315400	0.388470
C621	C62	0.359200	0.266200	0.336500
C631	C63	0.489800	0.240400	0.372800
H411	H41	0.524800	0.255700	0.431000
C641	C64	0.568800	0.192800	0.325100
H421	H42	0.657300	0.175700	0.351200
C651	C65	0.520700	0.169630	0.239290
C661	C66	0.391000	0.197400	0.202600
H431	H43	0.356100	0.183100	0.144100
C671	C67	0.313300	0.245200	0.250300
H441	H44	0.226400	0.264200	0.223700
C681	C68	0.784600	0.023700	0.178000
H451	H45	0.859400	0.994100	0.206900
C691	C69	0.713100	0.072180	0.228500
H461	H46	0.737900	0.074800	0.290400
C701	C70	0.603400	0.117600	0.188150
C711	C71	0.574800	0.110000	0.097140
H471	H47	0.502300	0.140000	0.066200
C721	C72	0.650200	0.059900	0.051990
H481	H48	0.627300	0.055800	0.990000
Cd41	Cd4	0.866860	0.919740	0.019320
O131	O13	0.744600	0.961100	0.889930
O141	O14	0.683800	0.832240	0.032820
O151	O15	0.845500	0.838480	0.147350
O161	O16	0.931300	0.033980	0.901160
N71	N7	0.996600	0.333940	0.548350
N81	N8	0.244500	0.515730	0.409260
C731	C73	0.813800	0.017330	0.865990
C741	C74	0.746900	0.067050	0.790570
C751	C75	0.823200	0.122470	0.750050
H491	H49	0.917800	0.130700	0.771500
C761	C76	0.762500	0.166260	0.678100
C771	C77	0.621500	0.154500	0.648900
H501	H50	0.578500	0.183800	0.600300
C781	C78	0.544200	0.100400	0.690700
H511	H51	0.448500	0.093800	0.671200
C791	C79	0.606400	0.055900	0.760800
H521	H52	0.553900	0.018100	0.788300
C801	C80	0.013300	0.325410	0.635700
H531	H53	0.079300	0.357900	0.669200
C811	C81	0.940500	0.272330	0.680400
H541	H54	0.956400	0.269000	0.742800
C821	C82	0.843500	0.223640	0.633000
C831	C83	0.825800	0.232700	0.541700
H551	H55	0.760400	0.201000	0.506700
C841	C84	0.902000	0.286900	0.502300
H561	H56	0.887900	0.291700	0.440000
C851	C85	0.729100	0.815400	0.111530
C861	C86	0.640800	0.766200	0.163500
C871	C87	0.510200	0.740400	0.127200
H571	H57	0.475200	0.755700	0.069000
C881	C88	0.431200	0.692800	0.174900
H581	H58	0.342700	0.675700	0.148800
C891	C89	0.479300	0.669630	0.260710
C901	C90	0.609000	0.697400	0.297400
H591	H59	0.643900	0.683100	0.355900
C911	C91	0.686700	0.745200	0.249700
H601	H60	0.773600	0.764200	0.276300
C921	C92	0.215400	0.523700	0.322000
H611	H61	0.140600	0.494100	0.293100
C931	C93	0.286900	0.572180	0.271500
H621	H62	0.262100	0.574800	0.209600
C941	C94	0.396600	0.617600	0.311850
C951	C95	0.425200	0.610000	0.402860
H631	H63	0.497700	0.640000	0.433800
C961	C96	0.349800	0.559900	0.448010
H641	H64	0.372700	0.555800	0.510000
