data_IHAZOH_clean_PM
_symmetry_space_group_name_H-M	'P1'
_cell_length_a	19.210800
_cell_length_b	19.210800
_cell_length_c	19.210800
_cell_angle_alpha	90.000000
_cell_angle_beta	90.000000
_cell_angle_gamma	90.000000
_symmetry_Int_Tables_number 1

loop_
_symmetry_equiv_pos_as_xyz
'x,y,z'

loop_
_atom_site_label
_atom_site_type_symbol
_atom_site_fract_x
_atom_site_fract_y
_atom_site_fract_z
Fe11	Fe1	0.859550	0.257380	0.107400
C11	C1	0.768100	0.443100	0.826900
H11	H1	0.742400	0.480900	0.810900
C21	C2	0.770600	0.429600	0.897200
H21	H2	0.746600	0.457700	0.928500
C31	C3	0.809700	0.373400	0.921000
C41	C4	0.844100	0.330800	0.874400
H31	H3	0.870000	0.293200	0.890500
C51	C5	0.839900	0.344100	0.803300
C61	C6	0.803100	0.401500	0.779800
H41	H4	0.801900	0.411900	0.732500
C71	C7	0.811700	0.357000	0.997100
C81	C8	0.871000	0.293800	0.753300
O11	O1	0.849280	0.306580	0.016170
O21	O2	0.776040	0.394510	0.037610
O31	O3	0.867000	0.308260	0.689330
O41	O4	0.898450	0.239270	0.777140
Fe21	Fe2	0.640450	0.742620	0.607400
C91	C9	0.731900	0.556900	0.326900
H51	H5	0.757600	0.519100	0.310900
C101	C10	0.729400	0.570400	0.397200
H61	H6	0.753400	0.542300	0.428500
C111	C11	0.690300	0.626600	0.421000
C121	C12	0.655900	0.669200	0.374400
H71	H7	0.630000	0.706800	0.390500
C131	C13	0.660100	0.655900	0.303300
C141	C14	0.696900	0.598500	0.279800
H81	H8	0.698100	0.588100	0.232500
C151	C15	0.688300	0.643000	0.497100
C161	C16	0.629000	0.706200	0.253300
O51	O5	0.650720	0.693420	0.516170
O61	O6	0.723960	0.605490	0.537610
O71	O7	0.633000	0.691740	0.189330
O81	O8	0.601550	0.760730	0.277140
Fe31	Fe3	0.140450	0.757380	0.392600
C171	C17	0.231900	0.943100	0.673100
H91	H9	0.257600	0.980900	0.689100
C181	C18	0.229400	0.929600	0.602800
H101	H10	0.253400	0.957700	0.571500
C191	C19	0.190300	0.873400	0.579000
C201	C20	0.155900	0.830800	0.625600
H111	H11	0.130000	0.793200	0.609500
C211	C21	0.160100	0.844100	0.696700
C221	C22	0.196900	0.901500	0.720200
H121	H12	0.198100	0.911900	0.767500
C231	C23	0.188300	0.857000	0.502900
C241	C24	0.129000	0.793800	0.746700
O91	O9	0.150720	0.806580	0.483830
O101	O10	0.223960	0.894510	0.462390
O111	O11	0.133000	0.808260	0.810670
O121	O12	0.101550	0.739270	0.722860
Fe41	Fe4	0.359550	0.242620	0.892600
C251	C25	0.268100	0.056900	0.173100
H131	H13	0.242400	0.019100	0.189100
C261	C26	0.270600	0.070400	0.102800
H141	H14	0.246600	0.042300	0.071500
C271	C27	0.309700	0.126600	0.079000
C281	C28	0.344100	0.169200	0.125600
H151	H15	0.370000	0.206800	0.109500
C291	C29	0.339900	0.155900	0.196700
C301	C30	0.303100	0.098500	0.220200
H161	H16	0.301900	0.088100	0.267500
C311	C31	0.311700	0.143000	0.002900
C321	C32	0.371000	0.206200	0.246700
O131	O13	0.349280	0.193420	0.983830
O141	O14	0.276040	0.105490	0.962390
O151	O15	0.367000	0.191740	0.310670
O161	O16	0.398450	0.260730	0.222860
Fe51	Fe5	0.107400	0.859550	0.257380
C331	C33	0.826900	0.768100	0.443100
H171	H17	0.810900	0.742400	0.480900
C341	C34	0.897200	0.770600	0.429600
H181	H18	0.928500	0.746600	0.457700
C351	C35	0.921000	0.809700	0.373400
C361	C36	0.874400	0.844100	0.330800
H191	H19	0.890500	0.870000	0.293200
C371	C37	0.803300	0.839900	0.344100
C381	C38	0.779800	0.803100	0.401500
H201	H20	0.732500	0.801900	0.411900
C391	C39	0.997100	0.811700	0.357000
C401	C40	0.753300	0.871000	0.293800
O171	O17	0.016170	0.849280	0.306580
O181	O18	0.037610	0.776040	0.394510
O191	O19	0.689330	0.867000	0.308260
O201	O20	0.777140	0.898450	0.239270
Fe61	Fe6	0.607400	0.640450	0.742620
C411	C41	0.326900	0.731900	0.556900
H211	H21	0.310900	0.757600	0.519100
C421	C42	0.397200	0.729400	0.570400
H221	H22	0.428500	0.753400	0.542300
C431	C43	0.421000	0.690300	0.626600
C441	C44	0.374400	0.655900	0.669200
H231	H23	0.390500	0.630000	0.706800
C451	C45	0.303300	0.660100	0.655900
C461	C46	0.279800	0.696900	0.598500
H241	H24	0.232500	0.698100	0.588100
C471	C47	0.497100	0.688300	0.643000
C481	C48	0.253300	0.629000	0.706200
O211	O21	0.516170	0.650720	0.693420
O221	O22	0.537610	0.723960	0.605490
O231	O23	0.189330	0.633000	0.691740
O241	O24	0.277140	0.601550	0.760730
Fe71	Fe7	0.392600	0.140450	0.757380
C491	C49	0.673100	0.231900	0.943100
H251	H25	0.689100	0.257600	0.980900
C501	C50	0.602800	0.229400	0.929600
H261	H26	0.571500	0.253400	0.957700
C511	C51	0.579000	0.190300	0.873400
C521	C52	0.625600	0.155900	0.830800
H271	H27	0.609500	0.130000	0.793200
C531	C53	0.696700	0.160100	0.844100
C541	C54	0.720200	0.196900	0.901500
H281	H28	0.767500	0.198100	0.911900
C551	C55	0.502900	0.188300	0.857000
C561	C56	0.746700	0.129000	0.793800
O251	O25	0.483830	0.150720	0.806580
O261	O26	0.462390	0.223960	0.894510
O271	O27	0.810670	0.133000	0.808260
O281	O28	0.722860	0.101550	0.739270
Fe81	Fe8	0.892600	0.359550	0.242620
C571	C57	0.173100	0.268100	0.056900
H291	H29	0.189100	0.242400	0.019100
C581	C58	0.102800	0.270600	0.070400
H301	H30	0.071500	0.246600	0.042300
C591	C59	0.079000	0.309700	0.126600
C601	C60	0.125600	0.344100	0.169200
H311	H31	0.109500	0.370000	0.206800
C611	C61	0.196700	0.339900	0.155900
C621	C62	0.220200	0.303100	0.098500
H321	H32	0.267500	0.301900	0.088100
C631	C63	0.002900	0.311700	0.143000
C641	C64	0.246700	0.371000	0.206200
O291	O29	0.983830	0.349280	0.193420
O301	O30	0.962390	0.276040	0.105490
O311	O31	0.310670	0.367000	0.191740
O321	O32	0.222860	0.398450	0.260730
Fe91	Fe9	0.257380	0.107400	0.859550
C651	C65	0.443100	0.826900	0.768100
H331	H33	0.480900	0.810900	0.742400
C661	C66	0.429600	0.897200	0.770600
H341	H34	0.457700	0.928500	0.746600
C671	C67	0.373400	0.921000	0.809700
C681	C68	0.330800	0.874400	0.844100
H351	H35	0.293200	0.890500	0.870000
C691	C69	0.344100	0.803300	0.839900
C701	C70	0.401500	0.779800	0.803100
H361	H36	0.411900	0.732500	0.801900
C711	C71	0.357000	0.997100	0.811700
C721	C72	0.293800	0.753300	0.871000
O331	O33	0.306580	0.016170	0.849280
O341	O34	0.394510	0.037610	0.776040
O351	O35	0.308260	0.689330	0.867000
O361	O36	0.239270	0.777140	0.898450
Fe101	Fe10	0.742620	0.607400	0.640450
C731	C73	0.556900	0.326900	0.731900
H371	H37	0.519100	0.310900	0.757600
C741	C74	0.570400	0.397200	0.729400
H381	H38	0.542300	0.428500	0.753400
C751	C75	0.626600	0.421000	0.690300
C761	C76	0.669200	0.374400	0.655900
H391	H39	0.706800	0.390500	0.630000
C771	C77	0.655900	0.303300	0.660100
C781	C78	0.598500	0.279800	0.696900
H401	H40	0.588100	0.232500	0.698100
C791	C79	0.643000	0.497100	0.688300
C801	C80	0.706200	0.253300	0.629000
O371	O37	0.693420	0.516170	0.650720
O381	O38	0.605490	0.537610	0.723960
O391	O39	0.691740	0.189330	0.633000
O401	O40	0.760730	0.277140	0.601550
Fe111	Fe11	0.757380	0.392600	0.140450
C811	C81	0.943100	0.673100	0.231900
H411	H41	0.980900	0.689100	0.257600
C821	C82	0.929600	0.602800	0.229400
H421	H42	0.957700	0.571500	0.253400
C831	C83	0.873400	0.579000	0.190300
C841	C84	0.830800	0.625600	0.155900
H431	H43	0.793200	0.609500	0.130000
C851	C85	0.844100	0.696700	0.160100
C861	C86	0.901500	0.720200	0.196900
H441	H44	0.911900	0.767500	0.198100
C871	C87	0.857000	0.502900	0.188300
C881	C88	0.793800	0.746700	0.129000
O411	O41	0.806580	0.483830	0.150720
O421	O42	0.894510	0.462390	0.223960
O431	O43	0.808260	0.810670	0.133000
O441	O44	0.739270	0.722860	0.101550
Fe121	Fe12	0.242620	0.892600	0.359550
C891	C89	0.056900	0.173100	0.268100
H451	H45	0.019100	0.189100	0.242400
C901	C90	0.070400	0.102800	0.270600
H461	H46	0.042300	0.071500	0.246600
C911	C91	0.126600	0.079000	0.309700
C921	C92	0.169200	0.125600	0.344100
H471	H47	0.206800	0.109500	0.370000
C931	C93	0.155900	0.196700	0.339900
C941	C94	0.098500	0.220200	0.303100
H481	H48	0.088100	0.267500	0.301900
C951	C95	0.143000	0.002900	0.311700
C961	C96	0.206200	0.246700	0.371000
O451	O45	0.193420	0.983830	0.349280
O461	O46	0.105490	0.962390	0.276040
O471	O47	0.191740	0.310670	0.367000
O481	O48	0.260730	0.222860	0.398450
Fe131	Fe13	0.140450	0.742620	0.892600
C971	C97	0.231900	0.556900	0.173100
H491	H49	0.257600	0.519100	0.189100
C981	C98	0.229400	0.570400	0.102800
H501	H50	0.253400	0.542300	0.071500
C991	C99	0.190300	0.626600	0.079000
C1001	C100	0.155900	0.669200	0.125600
H511	H51	0.130000	0.706800	0.109500
C1011	C101	0.160100	0.655900	0.196700
C1021	C102	0.196900	0.598500	0.220200
H521	H52	0.198100	0.588100	0.267500
C1031	C103	0.188300	0.643000	0.002900
C1041	C104	0.129000	0.706200	0.246700
O491	O49	0.150720	0.693420	0.983830
O501	O50	0.223960	0.605490	0.962390
O511	O51	0.133000	0.691740	0.310670
O521	O52	0.101550	0.760730	0.222860
Fe141	Fe14	0.359550	0.257380	0.392600
C1051	C105	0.268100	0.443100	0.673100
H531	H53	0.242400	0.480900	0.689100
C1061	C106	0.270600	0.429600	0.602800
H541	H54	0.246600	0.457700	0.571500
C1071	C107	0.309700	0.373400	0.579000
C1081	C108	0.344100	0.330800	0.625600
H551	H55	0.370000	0.293200	0.609500
C1091	C109	0.339900	0.344100	0.696700
C1101	C110	0.303100	0.401500	0.720200
H561	H56	0.301900	0.411900	0.767500
C1111	C111	0.311700	0.357000	0.502900
C1121	C112	0.371000	0.293800	0.746700
O531	O53	0.349280	0.306580	0.483830
O541	O54	0.276040	0.394510	0.462390
O551	O55	0.367000	0.308260	0.810670
O561	O56	0.398450	0.239270	0.722860
Fe151	Fe15	0.859550	0.242620	0.607400
C1131	C113	0.768100	0.056900	0.326900
H571	H57	0.742400	0.019100	0.310900
C1141	C114	0.770600	0.070400	0.397200
H581	H58	0.746600	0.042300	0.428500
C1151	C115	0.809700	0.126600	0.421000
C1161	C116	0.844100	0.169200	0.374400
H591	H59	0.870000	0.206800	0.390500
C1171	C117	0.839900	0.155900	0.303300
C1181	C118	0.803100	0.098500	0.279800
H601	H60	0.801900	0.088100	0.232500
C1191	C119	0.811700	0.143000	0.497100
C1201	C120	0.871000	0.206200	0.253300
O571	O57	0.849280	0.193420	0.516170
O581	O58	0.776040	0.105490	0.537610
O591	O59	0.867000	0.191740	0.189330
O601	O60	0.898450	0.260730	0.277140
Fe161	Fe16	0.640450	0.757380	0.107400
C1211	C121	0.731900	0.943100	0.826900
H611	H61	0.757600	0.980900	0.810900
C1221	C122	0.729400	0.929600	0.897200
H621	H62	0.753400	0.957700	0.928500
C1231	C123	0.690300	0.873400	0.921000
C1241	C124	0.655900	0.830800	0.874400
H631	H63	0.630000	0.793200	0.890500
C1251	C125	0.660100	0.844100	0.803300
C1261	C126	0.696900	0.901500	0.779800
H641	H64	0.698100	0.911900	0.732500
C1271	C127	0.688300	0.857000	0.997100
C1281	C128	0.629000	0.793800	0.753300
O611	O61	0.650720	0.806580	0.016170
O621	O62	0.723960	0.894510	0.037610
O631	O63	0.633000	0.808260	0.689330
O641	O64	0.601550	0.739270	0.777140
Fe171	Fe17	0.892600	0.140450	0.742620
C1291	C129	0.173100	0.231900	0.556900
H651	H65	0.189100	0.257600	0.519100
C1301	C130	0.102800	0.229400	0.570400
H661	H66	0.071500	0.253400	0.542300
C1311	C131	0.079000	0.190300	0.626600
C1321	C132	0.125600	0.155900	0.669200
H671	H67	0.109500	0.130000	0.706800
C1331	C133	0.196700	0.160100	0.655900
C1341	C134	0.220200	0.196900	0.598500
H681	H68	0.267500	0.198100	0.588100
C1351	C135	0.002900	0.188300	0.643000
C1361	C136	0.246700	0.129000	0.706200
O651	O65	0.983830	0.150720	0.693420
O661	O66	0.962390	0.223960	0.605490
O671	O67	0.310670	0.133000	0.691740
O681	O68	0.222860	0.101550	0.760730
Fe181	Fe18	0.392600	0.359550	0.257380
C1371	C137	0.673100	0.268100	0.443100
H691	H69	0.689100	0.242400	0.480900
C1381	C138	0.602800	0.270600	0.429600
H701	H70	0.571500	0.246600	0.457700
C1391	C139	0.579000	0.309700	0.373400
C1401	C140	0.625600	0.344100	0.330800
H711	H71	0.609500	0.370000	0.293200
C1411	C141	0.696700	0.339900	0.344100
C1421	C142	0.720200	0.303100	0.401500
H721	H72	0.767500	0.301900	0.411900
C1431	C143	0.502900	0.311700	0.357000
C1441	C144	0.746700	0.371000	0.293800
O691	O69	0.483830	0.349280	0.306580
O701	O70	0.462390	0.276040	0.394510
O711	O71	0.810670	0.367000	0.308260
O721	O72	0.722860	0.398450	0.239270
Fe191	Fe19	0.607400	0.859550	0.242620
C1451	C145	0.326900	0.768100	0.056900
H731	H73	0.310900	0.742400	0.019100
C1461	C146	0.397200	0.770600	0.070400
H741	H74	0.428500	0.746600	0.042300
C1471	C147	0.421000	0.809700	0.126600
C1481	C148	0.374400	0.844100	0.169200
H751	H75	0.390500	0.870000	0.206800
C1491	C149	0.303300	0.839900	0.155900
C1501	C150	0.279800	0.803100	0.098500
H761	H76	0.232500	0.801900	0.088100
C1511	C151	0.497100	0.811700	0.143000
C1521	C152	0.253300	0.871000	0.206200
O731	O73	0.516170	0.849280	0.193420
O741	O74	0.537610	0.776040	0.105490
O751	O75	0.189330	0.867000	0.191740
O761	O76	0.277140	0.898450	0.260730
Fe201	Fe20	0.107400	0.640450	0.757380
C1531	C153	0.826900	0.731900	0.943100
H771	H77	0.810900	0.757600	0.980900
C1541	C154	0.897200	0.729400	0.929600
H781	H78	0.928500	0.753400	0.957700
C1551	C155	0.921000	0.690300	0.873400
C1561	C156	0.874400	0.655900	0.830800
H791	H79	0.890500	0.630000	0.793200
C1571	C157	0.803300	0.660100	0.844100
C1581	C158	0.779800	0.696900	0.901500
H801	H80	0.732500	0.698100	0.911900
C1591	C159	0.997100	0.688300	0.857000
C1601	C160	0.753300	0.629000	0.793800
O771	O77	0.016170	0.650720	0.806580
O781	O78	0.037610	0.723960	0.894510
O791	O79	0.689330	0.633000	0.808260
O801	O80	0.777140	0.601550	0.739270
Fe211	Fe21	0.742620	0.892600	0.140450
C1611	C161	0.556900	0.173100	0.231900
H811	H81	0.519100	0.189100	0.257600
C1621	C162	0.570400	0.102800	0.229400
H821	H82	0.542300	0.071500	0.253400
C1631	C163	0.626600	0.079000	0.190300
C1641	C164	0.669200	0.125600	0.155900
H831	H83	0.706800	0.109500	0.130000
C1651	C165	0.655900	0.196700	0.160100
C1661	C166	0.598500	0.220200	0.196900
H841	H84	0.588100	0.267500	0.198100
C1671	C167	0.643000	0.002900	0.188300
C1681	C168	0.706200	0.246700	0.129000
O811	O81	0.693420	0.983830	0.150720
O821	O82	0.605490	0.962390	0.223960
O831	O83	0.691740	0.310670	0.133000
O841	O84	0.760730	0.222860	0.101550
Fe221	Fe22	0.257380	0.392600	0.359550
C1691	C169	0.443100	0.673100	0.268100
H851	H85	0.480900	0.689100	0.242400
C1701	C170	0.429600	0.602800	0.270600
H861	H86	0.457700	0.571500	0.246600
C1711	C171	0.373400	0.579000	0.309700
C1721	C172	0.330800	0.625600	0.344100
H871	H87	0.293200	0.609500	0.370000
C1731	C173	0.344100	0.696700	0.339900
C1741	C174	0.401500	0.720200	0.303100
H881	H88	0.411900	0.767500	0.301900
C1751	C175	0.357000	0.502900	0.311700
C1761	C176	0.293800	0.746700	0.371000
O851	O85	0.306580	0.483830	0.349280
O861	O86	0.394510	0.462390	0.276040
O871	O87	0.308260	0.810670	0.367000
O881	O88	0.239270	0.722860	0.398450
Fe231	Fe23	0.242620	0.607400	0.859550
C1771	C177	0.056900	0.326900	0.768100
H891	H89	0.019100	0.310900	0.742400
C1781	C178	0.070400	0.397200	0.770600
H901	H90	0.042300	0.428500	0.746600
C1791	C179	0.126600	0.421000	0.809700
C1801	C180	0.169200	0.374400	0.844100
H911	H91	0.206800	0.390500	0.870000
C1811	C181	0.155900	0.303300	0.839900
C1821	C182	0.098500	0.279800	0.803100
H921	H92	0.088100	0.232500	0.801900
C1831	C183	0.143000	0.497100	0.811700
C1841	C184	0.206200	0.253300	0.871000
O891	O89	0.193420	0.516170	0.849280
O901	O90	0.105490	0.537610	0.776040
O911	O91	0.191740	0.189330	0.867000
O921	O92	0.260730	0.277140	0.898450
Fe241	Fe24	0.757380	0.107400	0.640450
C1851	C185	0.943100	0.826900	0.731900
H931	H93	0.980900	0.810900	0.757600
C1861	C186	0.929600	0.897200	0.729400
H941	H94	0.957700	0.928500	0.753400
C1871	C187	0.873400	0.921000	0.690300
C1881	C188	0.830800	0.874400	0.655900
H951	H95	0.793200	0.890500	0.630000
C1891	C189	0.844100	0.803300	0.660100
C1901	C190	0.901500	0.779800	0.696900
H961	H96	0.911900	0.732500	0.698100
C1911	C191	0.857000	0.997100	0.688300
C1921	C192	0.793800	0.753300	0.629000
O931	O93	0.806580	0.016170	0.650720
O941	O94	0.894510	0.037610	0.723960
O951	O95	0.808260	0.689330	0.633000
O961	O96	0.739270	0.777140	0.601550
O971	O97	0.836420	0.336420	0.163580
O981	O98	0.663580	0.663580	0.663580
O991	O99	0.163580	0.836420	0.336420
O1001	O100	0.336420	0.163580	0.836420
O1011	O101	0.163580	0.663580	0.836420
O1021	O102	0.336420	0.336420	0.336420
O1031	O103	0.836420	0.163580	0.663580
O1041	O104	0.663580	0.836420	0.163580
