data_IHILUI_clean_PM
_symmetry_space_group_name_H-M	'P1'
_cell_length_a	7.705000
_cell_length_b	11.989300
_cell_length_c	12.182800
_cell_angle_alpha	112.143000
_cell_angle_beta	89.979000
_cell_angle_gamma	99.580000
_symmetry_Int_Tables_number 1

loop_
_symmetry_equiv_pos_as_xyz
'x,y,z'

loop_
_atom_site_label
_atom_site_type_symbol
_atom_site_fract_x
_atom_site_fract_y
_atom_site_fract_z
Gd11	Gd1	0.992400	0.146280	0.854780
Gd21	Gd2	0.492300	0.145710	0.753280
C11	C1	0.641000	0.137000	0.018000
C21	C2	0.772000	0.183000	0.223000
H11	H1	0.742800	0.213600	0.305600
H21	H2	0.859900	0.246300	0.213500
C31	C3	0.852000	0.074000	0.201000
C41	C4	0.641000	0.926000	0.646000
C51	C5	0.719000	0.812000	0.591000
H31	H3	0.633100	0.748400	0.533800
H41	H4	0.748500	0.783600	0.652000
C61	C6	0.758000	0.529000	0.138000
H51	H5	0.885700	0.549700	0.150300
H61	H6	0.715700	0.481400	0.184800
C71	C7	0.684000	0.642000	0.179000
C81	C8	0.856000	0.859000	0.419000
C91	C9	0.898000	0.838000	0.524000
H71	H7	0.977700	0.908400	0.578400
H81	H8	0.956700	0.767600	0.502300
C101	C10	0.706000	0.451000	0.004000
H91	H9	0.582900	0.412000	0.995500
H101	H10	0.717500	0.504500	0.960700
C111	C11	0.816000	0.356000	0.953000
O11	O1	0.776000	0.273500	0.846200
O21	O2	0.956000	0.352000	0.004000
O31	O3	0.759000	0.977000	0.209000
O41	O4	0.012000	0.066000	0.171000
O51	O5	0.540000	0.646000	0.241000
O61	O6	0.722000	0.725000	0.144300
O71	O7	0.509000	0.149000	0.973000
O81	O8	0.775000	0.099000	0.976000
O91	O9	0.988000	0.845000	0.351000
O101	O10	0.724000	0.890000	0.399000
O111	O11	0.733000	0.019000	0.725000
O121	O12	0.489000	0.930000	0.621000
C121	C12	0.606000	0.167000	0.145000
H111	H11	0.518000	0.101700	0.151800
H121	H12	0.557200	0.241600	0.175000
Gd31	Gd3	0.007600	0.853720	0.145220
Gd41	Gd4	0.507700	0.854290	0.246720
C131	C13	0.359000	0.863000	0.982000
C141	C14	0.228000	0.817000	0.777000
H131	H13	0.257200	0.786400	0.694400
H141	H14	0.140100	0.753700	0.786500
C151	C15	0.148000	0.926000	0.799000
C161	C16	0.359000	0.074000	0.354000
C171	C17	0.281000	0.188000	0.409000
H151	H15	0.366900	0.251600	0.466200
H161	H16	0.251500	0.216400	0.348000
C181	C18	0.242000	0.471000	0.862000
H171	H17	0.114300	0.450300	0.849700
H181	H18	0.284300	0.518600	0.815200
C191	C19	0.316000	0.358000	0.821000
C201	C20	0.144000	0.141000	0.581000
C211	C21	0.102000	0.162000	0.476000
H191	H19	0.022300	0.091600	0.421600
H201	H20	0.043300	0.232400	0.497700
C221	C22	0.294000	0.549000	0.996000
H211	H21	0.417100	0.588000	0.004500
H221	H22	0.282500	0.495500	0.039300
C231	C23	0.184000	0.644000	0.047000
O131	O13	0.224000	0.726500	0.153800
O141	O14	0.044000	0.648000	0.996000
O151	O15	0.241000	0.023000	0.791000
O161	O16	0.988000	0.934000	0.829000
O171	O17	0.460000	0.354000	0.759000
O181	O18	0.278000	0.275000	0.855700
O191	O19	0.491000	0.851000	0.027000
O201	O20	0.225000	0.901000	0.024000
O211	O21	0.012000	0.155000	0.649000
O221	O22	0.276000	0.110000	0.601000
O231	O23	0.267000	0.981000	0.275000
O241	O24	0.511000	0.070000	0.379000
C241	C24	0.394000	0.833000	0.855000
H231	H23	0.482000	0.898300	0.848200
H241	H24	0.442800	0.758400	0.825000
