data_IHIMAP_clean_PM
_symmetry_space_group_name_H-M	'P1'
_cell_length_a	7.976000
_cell_length_b	12.006000
_cell_length_c	12.284000
_cell_angle_alpha	112.010000
_cell_angle_beta	90.050000
_cell_angle_gamma	100.580000
_symmetry_Int_Tables_number 1

loop_
_symmetry_equiv_pos_as_xyz
'x,y,z'

loop_
_atom_site_label
_atom_site_type_symbol
_atom_site_fract_x
_atom_site_fract_y
_atom_site_fract_z
C11	C1	0.635200	0.139800	0.022300
C21	C2	0.615300	0.173100	0.152000
H11	H1	0.534500	0.107500	0.162400
H21	H2	0.567200	0.246500	0.181700
C31	C3	0.785400	0.195900	0.227000
H31	H3	0.869900	0.256400	0.211700
H41	H4	0.765200	0.229100	0.309800
C41	C4	0.855600	0.081800	0.201000
C51	C5	0.644300	0.917800	0.638800
C61	C6	0.713400	0.802100	0.580700
H51	H5	0.732600	0.768300	0.638900
H61	H6	0.629000	0.742100	0.520500
C71	C7	0.760100	0.526200	0.146600
H71	H7	0.882900	0.554100	0.163100
H81	H8	0.720300	0.474500	0.189700
C81	C8	0.672900	0.632900	0.181700
C91	C9	0.861900	0.856900	0.418700
C101	C10	0.877400	0.824400	0.525800
H91	H9	0.957000	0.890500	0.584900
H101	H10	0.926300	0.751400	0.503300
C111	C11	0.715800	0.455500	0.015000
H111	H11	0.732100	0.513300	0.976200
H121	H12	0.595500	0.417000	0.002600
C121	C12	0.819700	0.356900	0.956000
La11	La1	0.991120	0.143080	0.853180
La21	La2	0.491330	0.142930	0.750290
O11	O1	0.771400	0.277900	0.850400
O21	O2	0.949000	0.355100	0.010600
O31	O3	0.766500	0.987200	0.208700
O41	O4	0.009900	0.079100	0.175500
O51	O5	0.547700	0.639500	0.243900
O61	O6	0.727200	0.721700	0.144500
O71	O7	0.515800	0.149800	0.961800
O81	O8	0.767700	0.101400	0.979800
O91	O9	0.982800	0.847300	0.350200
O101	O10	0.731000	0.896300	0.405100
O111	O11	0.735200	0.013800	0.716200
O121	O12	0.488800	0.919600	0.616200
C131	C13	0.364800	0.860200	0.977700
C141	C14	0.384700	0.826900	0.848000
H131	H13	0.465500	0.892500	0.837600
H141	H14	0.432800	0.753500	0.818300
C151	C15	0.214600	0.804100	0.773000
H151	H15	0.130100	0.743600	0.788300
H161	H16	0.234800	0.770900	0.690200
C161	C16	0.144400	0.918200	0.799000
C171	C17	0.355700	0.082200	0.361200
C181	C18	0.286600	0.197900	0.419300
H171	H17	0.267400	0.231700	0.361100
H181	H18	0.371000	0.257900	0.479500
C191	C19	0.239900	0.473800	0.853400
H191	H19	0.117100	0.445900	0.836900
H201	H20	0.279700	0.525500	0.810300
C201	C20	0.327100	0.367100	0.818300
C211	C21	0.138100	0.143100	0.581300
C221	C22	0.122600	0.175600	0.474200
H211	H21	0.043000	0.109500	0.415100
H221	H22	0.073700	0.248600	0.496700
C231	C23	0.284200	0.544500	0.985000
H231	H23	0.267900	0.486700	0.023800
H241	H24	0.404500	0.583000	0.997400
C241	C24	0.180300	0.643100	0.044000
La31	La3	0.008880	0.856920	0.146820
La41	La4	0.508670	0.857070	0.249710
O131	O13	0.228600	0.722100	0.149600
O141	O14	0.051000	0.644900	0.989400
O151	O15	0.233500	0.012800	0.791300
O161	O16	0.990100	0.920900	0.824500
O171	O17	0.452300	0.360500	0.756100
O181	O18	0.272800	0.278300	0.855500
O191	O19	0.484200	0.850200	0.038200
O201	O20	0.232300	0.898600	0.020200
O211	O21	0.017200	0.152700	0.649800
O221	O22	0.269000	0.103700	0.594900
O231	O23	0.264800	0.986200	0.283800
O241	O24	0.511200	0.080400	0.383800
