data_IHIWIF_clean_PM
_symmetry_space_group_name_H-M	'P1'
_cell_length_a	10.941300
_cell_length_b	17.595400
_cell_length_c	18.577300
_cell_angle_alpha	88.850000
_cell_angle_beta	85.813000
_cell_angle_gamma	76.546000
_symmetry_Int_Tables_number 1

loop_
_symmetry_equiv_pos_as_xyz
'x,y,z'

loop_
_atom_site_label
_atom_site_type_symbol
_atom_site_fract_x
_atom_site_fract_y
_atom_site_fract_z
Ba11	Ba1	0.598450	0.607560	0.507720
Ba21	Ba2	0.442450	0.465670	0.243340
Ba31	Ba3	0.142720	0.648150	0.032390
Ba41	Ba4	0.202840	0.904520	0.014350
Ba51	Ba5	0.887000	0.040480	0.737350
Ba61	Ba6	0.797780	0.822880	0.541880
Ba71	Ba7	0.401550	0.392440	0.492280
Ba81	Ba8	0.557550	0.534330	0.756660
Ba91	Ba9	0.857280	0.351850	0.967610
Ba101	Ba10	0.797160	0.095480	0.985650
Ba111	Ba11	0.113000	0.959520	0.262650
Ba121	Ba12	0.202220	0.177120	0.458120
Cr11	Cr1	0.889310	0.364750	0.633390
Cr21	Cr2	0.605100	0.677820	0.174550
Cr31	Cr3	0.740520	0.855180	0.874110
Cr41	Cr4	0.255010	0.853780	0.676560
Cr51	Cr5	0.110690	0.635250	0.366610
Cr61	Cr6	0.394900	0.322180	0.825450
Cr71	Cr7	0.259480	0.144820	0.125890
Cr81	Cr8	0.744990	0.146220	0.323440
H11	H1	0.210700	0.424200	0.355600
H21	H2	0.297500	0.342700	0.338200
H31	H3	0.637700	0.404600	0.369500
H41	H4	0.599000	0.329700	0.347300
H51	H5	0.379400	0.880600	0.158500
H61	H6	0.358100	0.969400	0.142000
H71	H7	0.051900	0.829800	0.154300
H81	H8	0.956000	0.906300	0.135900
H91	H9	0.789300	0.575800	0.644400
H101	H10	0.702500	0.657300	0.661800
H111	H11	0.362300	0.595400	0.630500
H121	H12	0.401000	0.670300	0.652700
H131	H13	0.620600	0.119400	0.841500
H141	H14	0.641900	0.030600	0.858000
H151	H15	0.948100	0.170200	0.845700
H161	H16	0.044000	0.093700	0.864100
C11	C1	0.702800	0.408500	0.539550
C21	C2	0.700700	0.323660	0.562430
C31	C3	0.897800	0.649480	0.457740
C41	C4	0.903900	0.576950	0.410790
C51	C5	0.198800	0.618660	0.222860
C61	C6	0.083000	0.688400	0.226460
C71	C7	0.549000	0.614160	0.307290
C81	C8	0.612200	0.681690	0.322620
C91	C9	0.378500	0.732560	0.111580
C101	C10	0.452100	0.661230	0.067400
C111	C11	0.851800	0.618270	0.124600
C121	C12	0.814300	0.703360	0.095590
C131	C13	0.962100	0.821500	0.944210
C141	C14	0.889400	0.903450	0.969140
C151	C15	0.533300	0.847360	0.964310
C161	C16	0.493500	0.921570	0.916730
C171	C17	0.752200	0.796950	0.735110
C181	C18	0.815000	0.867380	0.729150
C191	C19	0.262500	0.845990	0.824910
C201	C20	0.148700	0.913540	0.810260
C211	C21	0.482100	0.886220	0.623720
C221	C22	0.484600	0.802400	0.598950
C231	C23	0.084100	0.782760	0.621300
C241	C24	0.091000	0.853220	0.571320
C251	C25	0.297200	0.591500	0.460450
C261	C26	0.299300	0.676340	0.437570
C271	C27	0.102200	0.350520	0.542260
C281	C28	0.096100	0.423050	0.589210
C291	C29	0.801200	0.381340	0.777140
C301	C30	0.917000	0.311600	0.773540
C311	C31	0.451000	0.385840	0.692710
C321	C32	0.387800	0.318310	0.677380
C331	C33	0.621500	0.267440	0.888420
C341	C34	0.547900	0.338770	0.932600
C351	C35	0.148200	0.381730	0.875400
C361	C36	0.185700	0.296640	0.904410
C371	C37	0.037900	0.178500	0.055790
C381	C38	0.110600	0.096550	0.030860
C391	C39	0.466700	0.152640	0.035690
C401	C40	0.506500	0.078430	0.083270
C411	C41	0.247800	0.203050	0.264890
C421	C42	0.185000	0.132620	0.270850
C431	C43	0.737500	0.154010	0.175090
C441	C44	0.851300	0.086460	0.189740
C451	C45	0.517900	0.113780	0.376280
C461	C46	0.515400	0.197600	0.401050
C471	C47	0.915900	0.217240	0.378700
C481	C48	0.909000	0.146780	0.428680
O11	O1	0.789300	0.435770	0.565340
O21	O2	0.622600	0.445150	0.500880
O31	O3	0.777900	0.296450	0.610980
O41	O4	0.629200	0.290000	0.535900
O51	O5	0.983600	0.686390	0.441870
O61	O6	0.812700	0.668460	0.505650
O71	O7	0.995200	0.563730	0.361940
O81	O8	0.823400	0.538880	0.421980
O91	O9	0.224400	0.585720	0.284700
O101	O10	0.260900	0.598760	0.166070
O111	O11	0.031600	0.704820	0.290600
O121	O12	0.049500	0.722110	0.170530
O131	O13	0.526700	0.609050	0.240780
O141	O14	0.523800	0.570770	0.356350
O151	O15	0.635600	0.721010	0.266990
O161	O16	0.635600	0.692970	0.384710
O171	O17	0.437900	0.750920	0.163950
O181	O18	0.273100	0.766270	0.095400
O191	O19	0.562300	0.631120	0.088270
O201	O20	0.402700	0.637800	0.018210
O211	O21	0.767700	0.599100	0.168590
O221	O22	0.954600	0.575880	0.104740
O231	O23	0.703200	0.740970	0.118710
O241	O24	0.888200	0.728500	0.054400
O251	O25	0.906700	0.789860	0.898640
O261	O26	0.065100	0.793820	0.967830
O271	O27	0.783750	0.929040	0.940700
O281	O28	0.933400	0.940670	0.011120
O291	O29	0.647100	0.808250	0.949210
O301	O30	0.458800	0.831090	0.010820
O311	O31	0.577200	0.929660	0.866650
O321	O32	0.389400	0.965600	0.929140
O331	O33	0.820200	0.900580	0.789730
O341	O34	0.855100	0.888860	0.670610
O351	O35	0.713200	0.782770	0.800090
O361	O36	0.741600	0.762130	0.680670
O371	O37	0.322800	0.812700	0.767710
O381	O38	0.289000	0.826640	0.886440
O391	O39	0.134200	0.927580	0.742090
O401	O40	0.081500	0.947840	0.859970
O411	O41	0.378800	0.919540	0.660130
O421	O42	0.573400	0.914350	0.609890
O431	O43	0.386700	0.777980	0.621460
O441	O44	0.574800	0.764250	0.562050
O451	O45	0.147200	0.778390	0.677440
O461	O46	0.022400	0.736680	0.605080
O471	O47	0.168700	0.892990	0.589550
O481	O48	0.024800	0.866720	0.520030
O491	O49	0.296400	0.394910	0.352190
O501	O50	0.567300	0.383410	0.360360
O511	O51	0.317800	0.926680	0.147270
O521	O52	0.042500	0.884260	0.144010
O531	O53	0.210700	0.564230	0.434660
O541	O54	0.377400	0.554850	0.499120
O551	O55	0.222100	0.703550	0.389020
O561	O56	0.370800	0.710000	0.464100
O571	O57	0.016400	0.313610	0.558130
O581	O58	0.187300	0.331540	0.494350
O591	O59	0.004800	0.436270	0.638060
O601	O60	0.176600	0.461120	0.578020
O611	O61	0.775600	0.414280	0.715300
O621	O62	0.739100	0.401240	0.833930
O631	O63	0.968400	0.295180	0.709400
O641	O64	0.950500	0.277890	0.829470
O651	O65	0.473300	0.390950	0.759220
O661	O66	0.476200	0.429230	0.643650
O671	O67	0.364400	0.278990	0.733010
O681	O68	0.364400	0.307030	0.615290
O691	O69	0.562100	0.249080	0.836050
O701	O70	0.726900	0.233730	0.904600
O711	O71	0.437700	0.368880	0.911730
O721	O72	0.597300	0.362200	0.981790
O731	O73	0.232300	0.400900	0.831410
O741	O74	0.045400	0.424120	0.895260
O751	O75	0.296800	0.259030	0.881290
O761	O76	0.111800	0.271500	0.945600
O771	O77	0.093300	0.210140	0.101360
O781	O78	0.934900	0.206180	0.032170
O791	O79	0.216250	0.070960	0.059300
O801	O80	0.066600	0.059330	0.988880
O811	O81	0.352900	0.191750	0.050790
O821	O82	0.541200	0.168910	0.989180
O831	O83	0.422800	0.070340	0.133350
O841	O84	0.610600	0.034400	0.070860
O851	O85	0.179800	0.099420	0.210270
O861	O86	0.144900	0.111140	0.329390
O871	O87	0.286800	0.217230	0.199910
O881	O88	0.258400	0.237870	0.319330
O891	O89	0.677200	0.187300	0.232290
O901	O90	0.711000	0.173360	0.113560
O911	O91	0.865800	0.072420	0.257910
O921	O92	0.918500	0.052160	0.140030
O931	O93	0.621200	0.080460	0.339870
O941	O94	0.426600	0.085650	0.390110
O951	O95	0.613300	0.222020	0.378540
O961	O96	0.425200	0.235750	0.437950
O971	O97	0.852800	0.221610	0.322560
O981	O98	0.977600	0.263320	0.394920
O991	O99	0.831300	0.107010	0.410450
O1001	O100	0.975200	0.133280	0.479970
O1011	O101	0.703600	0.605090	0.647810
O1021	O102	0.432700	0.616590	0.639640
O1031	O103	0.682200	0.073320	0.852730
O1041	O104	0.957500	0.115740	0.855990
