data_IHOTEG_clean_PM
_symmetry_space_group_name_H-M	'P1'
_cell_length_a	23.193000
_cell_length_b	23.193000
_cell_length_c	12.069000
_cell_angle_alpha	90.000000
_cell_angle_beta	90.000000
_cell_angle_gamma	90.000000
_symmetry_Int_Tables_number 1

loop_
_symmetry_equiv_pos_as_xyz
'x,y,z'

loop_
_atom_site_label
_atom_site_type_symbol
_atom_site_fract_x
_atom_site_fract_y
_atom_site_fract_z
Mg11	Mg1	0.629830	0.542340	0.500100
Mg21	Mg2	0.726070	0.451340	0.460400
O11	O1	0.674140	0.598240	0.607700
O21	O2	0.725600	0.671000	0.672000
O31	O3	0.704070	0.535760	0.400600
O41	O4	0.777900	0.550000	0.290700
O51	O5	0.590700	0.603000	0.408800
O61	O6	0.499200	0.575100	0.413100
O71	O7	0.560590	0.533000	0.615300
O81	O8	0.616100	0.526600	0.765000
O91	O9	0.673200	0.479300	0.577800
H11	H1	0.654000	0.460000	0.582000
C11	C1	0.679700	0.650100	0.628800
C21	C2	0.628400	0.690000	0.608700
H21	H2	0.616900	0.687800	0.530600
H31	H3	0.639300	0.729700	0.626900
H41	H4	0.596100	0.678000	0.655600
C31	C3	0.735800	0.567800	0.342200
C41	C4	0.726600	0.630300	0.341100
H51	H5	0.718800	0.643700	0.416700
H61	H6	0.693600	0.639400	0.293500
H71	H7	0.761200	0.649500	0.312600
C51	C5	0.538700	0.608500	0.384600
C61	C6	0.522300	0.660700	0.319500
H81	H8	0.530900	0.654200	0.241000
H91	H9	0.544300	0.694000	0.346300
H101	H10	0.481000	0.668100	0.328500
C71	C7	0.568600	0.524900	0.720100
C81	C8	0.517400	0.514300	0.789800
H111	H11	0.524900	0.481600	0.839100
H121	H12	0.484300	0.505500	0.742400
H131	H13	0.509100	0.548700	0.834100
Mg31	Mg3	0.129830	0.042340	0.000100
Mg41	Mg4	0.226070	0.951340	0.960400
O101	O10	0.174140	0.098240	0.107700
O111	O11	0.225600	0.171000	0.172000
O121	O12	0.204070	0.035760	0.900600
O131	O13	0.277900	0.050000	0.790700
O141	O14	0.090700	0.103000	0.908800
O151	O15	0.999200	0.075100	0.913100
O161	O16	0.060590	0.033000	0.115300
O171	O17	0.116100	0.026600	0.265000
O181	O18	0.173200	0.979300	0.077800
H141	H14	0.154000	0.960000	0.082000
C91	C9	0.179700	0.150100	0.128800
C101	C10	0.128400	0.190000	0.108700
H151	H15	0.116900	0.187800	0.030600
H161	H16	0.139300	0.229700	0.126900
H171	H17	0.096100	0.178000	0.155600
C111	C11	0.235800	0.067800	0.842200
C121	C12	0.226600	0.130300	0.841100
H181	H18	0.218800	0.143700	0.916700
H191	H19	0.193600	0.139400	0.793500
H201	H20	0.261200	0.149500	0.812600
C131	C13	0.038700	0.108500	0.884600
C141	C14	0.022300	0.160700	0.819500
H211	H21	0.030900	0.154200	0.741000
H221	H22	0.044300	0.194000	0.846300
H231	H23	0.981000	0.168100	0.828500
C151	C15	0.068600	0.024900	0.220100
C161	C16	0.017400	0.014300	0.289800
H241	H24	0.024900	0.981600	0.339100
H251	H25	0.984300	0.005500	0.242400
H261	H26	0.009100	0.048700	0.334100
Mg51	Mg5	0.870170	0.457660	0.000100
Mg61	Mg6	0.773930	0.548660	0.960400
O191	O19	0.825860	0.401760	0.107700
O201	O20	0.774400	0.329000	0.172000
O211	O21	0.795930	0.464240	0.900600
O221	O22	0.722100	0.450000	0.790700
O231	O23	0.909300	0.397000	0.908800
O241	O24	0.000800	0.424900	0.913100
O251	O25	0.939410	0.467000	0.115300
O261	O26	0.883900	0.473400	0.265000
O271	O27	0.826800	0.520700	0.077800
H271	H27	0.846000	0.540000	0.082000
C171	C17	0.820300	0.349900	0.128800
C181	C18	0.871600	0.310000	0.108700
H281	H28	0.883100	0.312200	0.030600
H291	H29	0.860700	0.270300	0.126900
H301	H30	0.903900	0.322000	0.155600
C191	C19	0.764200	0.432200	0.842200
C201	C20	0.773400	0.369700	0.841100
H311	H31	0.781200	0.356300	0.916700
H321	H32	0.806400	0.360600	0.793500
H331	H33	0.738800	0.350500	0.812600
C211	C21	0.961300	0.391500	0.884600
C221	C22	0.977700	0.339300	0.819500
H341	H34	0.969100	0.345800	0.741000
H351	H35	0.955700	0.306000	0.846300
H361	H36	0.019000	0.331900	0.828500
C231	C23	0.931400	0.475100	0.220100
C241	C24	0.982600	0.485700	0.289800
H371	H37	0.975100	0.518400	0.339100
H381	H38	0.015700	0.494500	0.242400
H391	H39	0.990900	0.451300	0.334100
Mg71	Mg7	0.370170	0.957660	0.500100
Mg81	Mg8	0.273930	0.048660	0.460400
O281	O28	0.325860	0.901760	0.607700
O291	O29	0.274400	0.829000	0.672000
O301	O30	0.295930	0.964240	0.400600
O311	O31	0.222100	0.950000	0.290700
O321	O32	0.409300	0.897000	0.408800
O331	O33	0.500800	0.924900	0.413100
O341	O34	0.439410	0.967000	0.615300
O351	O35	0.383900	0.973400	0.765000
O361	O36	0.326800	0.020700	0.577800
H401	H40	0.346000	0.040000	0.582000
C251	C25	0.320300	0.849900	0.628800
C261	C26	0.371600	0.810000	0.608700
H411	H41	0.383100	0.812200	0.530600
H421	H42	0.360700	0.770300	0.626900
H431	H43	0.403900	0.822000	0.655600
C271	C27	0.264200	0.932200	0.342200
C281	C28	0.273400	0.869700	0.341100
H441	H44	0.281200	0.856300	0.416700
H451	H45	0.306400	0.860600	0.293500
H461	H46	0.238800	0.850500	0.312600
C291	C29	0.461300	0.891500	0.384600
C301	C30	0.477700	0.839300	0.319500
H471	H47	0.469100	0.845800	0.241000
H481	H48	0.455700	0.806000	0.346300
H491	H49	0.519000	0.831900	0.328500
C311	C31	0.431400	0.975100	0.720100
C321	C32	0.482600	0.985700	0.789800
H501	H50	0.475100	0.018400	0.839100
H511	H51	0.515700	0.994500	0.742400
H521	H52	0.490900	0.951300	0.834100
Mg91	Mg9	0.207660	0.879830	0.750100
Mg101	Mg10	0.298660	0.976070	0.710400
O371	O37	0.151760	0.924140	0.857700
O381	O38	0.079000	0.975600	0.922000
O391	O39	0.214240	0.954070	0.650600
O401	O40	0.200000	0.027900	0.540700
O411	O41	0.147000	0.840700	0.658800
O421	O42	0.174900	0.749200	0.663100
O431	O43	0.217000	0.810590	0.865300
O441	O44	0.223400	0.866100	0.015000
O451	O45	0.270700	0.923200	0.827800
H531	H53	0.290000	0.904000	0.832000
C331	C33	0.099900	0.929700	0.878800
C341	C34	0.060000	0.878400	0.858700
H541	H54	0.062200	0.866900	0.780600
H551	H55	0.020300	0.889300	0.876900
H561	H56	0.072000	0.846100	0.905600
C351	C35	0.182200	0.985800	0.592200
C361	C36	0.119700	0.976600	0.591100
H571	H57	0.106300	0.968800	0.666700
H581	H58	0.110600	0.943600	0.543500
H591	H59	0.100500	0.011200	0.562600
C371	C37	0.141500	0.788700	0.634600
C381	C38	0.089300	0.772300	0.569500
H601	H60	0.095800	0.780900	0.491000
H611	H61	0.056000	0.794300	0.596300
H621	H62	0.081900	0.731000	0.578500
C391	C39	0.225100	0.818600	0.970100
C401	C40	0.235700	0.767400	0.039800
H631	H63	0.268400	0.774900	0.089100
H641	H64	0.244500	0.734300	0.992400
H651	H65	0.201300	0.759100	0.084100
Mg111	Mg11	0.707660	0.379830	0.250100
Mg121	Mg12	0.798660	0.476070	0.210400
O461	O46	0.651760	0.424140	0.357700
O471	O47	0.579000	0.475600	0.422000
O481	O48	0.714240	0.454070	0.150600
O491	O49	0.700000	0.527900	0.040700
O501	O50	0.647000	0.340700	0.158800
O511	O51	0.674900	0.249200	0.163100
O521	O52	0.717000	0.310590	0.365300
O531	O53	0.723400	0.366100	0.515000
O541	O54	0.770700	0.423200	0.327800
H661	H66	0.790000	0.404000	0.332000
C411	C41	0.599900	0.429700	0.378800
C421	C42	0.560000	0.378400	0.358700
H671	H67	0.562200	0.366900	0.280600
H681	H68	0.520300	0.389300	0.376900
H691	H69	0.572000	0.346100	0.405600
C431	C43	0.682200	0.485800	0.092200
C441	C44	0.619700	0.476600	0.091100
H701	H70	0.606300	0.468800	0.166700
H711	H71	0.610600	0.443600	0.043500
H721	H72	0.600500	0.511200	0.062600
C451	C45	0.641500	0.288700	0.134600
C461	C46	0.589300	0.272300	0.069500
H731	H73	0.595800	0.280900	0.991000
H741	H74	0.556000	0.294300	0.096300
H751	H75	0.581900	0.231000	0.078500
C471	C47	0.725100	0.318600	0.470100
C481	C48	0.735700	0.267400	0.539800
H761	H76	0.768400	0.274900	0.589100
H771	H77	0.744500	0.234300	0.492400
H781	H78	0.701300	0.259100	0.584100
Mg131	Mg13	0.292340	0.120170	0.250100
Mg141	Mg14	0.201340	0.023930	0.210400
O551	O55	0.348240	0.075860	0.357700
O561	O56	0.421000	0.024400	0.422000
O571	O57	0.285760	0.045930	0.150600
O581	O58	0.300000	0.972100	0.040700
O591	O59	0.353000	0.159300	0.158800
O601	O60	0.325100	0.250800	0.163100
O611	O61	0.283000	0.189410	0.365300
O621	O62	0.276600	0.133900	0.515000
O631	O63	0.229300	0.076800	0.327800
H791	H79	0.210000	0.096000	0.332000
C491	C49	0.400100	0.070300	0.378800
C501	C50	0.440000	0.121600	0.358700
H801	H80	0.437800	0.133100	0.280600
H811	H81	0.479700	0.110700	0.376900
H821	H82	0.428000	0.153900	0.405600
C511	C51	0.317800	0.014200	0.092200
C521	C52	0.380300	0.023400	0.091100
H831	H83	0.393700	0.031200	0.166700
H841	H84	0.389400	0.056400	0.043500
H851	H85	0.399500	0.988800	0.062600
C531	C53	0.358500	0.211300	0.134600
C541	C54	0.410700	0.227700	0.069500
H861	H86	0.404200	0.219100	0.991000
H871	H87	0.444000	0.205700	0.096300
H881	H88	0.418100	0.269000	0.078500
C551	C55	0.274900	0.181400	0.470100
C561	C56	0.264300	0.232600	0.539800
H891	H89	0.231600	0.225100	0.589100
H901	H90	0.255500	0.265700	0.492400
H911	H91	0.298700	0.240900	0.584100
Mg151	Mg15	0.792340	0.620170	0.750100
Mg161	Mg16	0.701340	0.523930	0.710400
O641	O64	0.848240	0.575860	0.857700
O651	O65	0.921000	0.524400	0.922000
O661	O66	0.785760	0.545930	0.650600
O671	O67	0.800000	0.472100	0.540700
O681	O68	0.853000	0.659300	0.658800
O691	O69	0.825100	0.750800	0.663100
O701	O70	0.783000	0.689410	0.865300
O711	O71	0.776600	0.633900	0.015000
O721	O72	0.729300	0.576800	0.827800
H921	H92	0.710000	0.596000	0.832000
C571	C57	0.900100	0.570300	0.878800
C581	C58	0.940000	0.621600	0.858700
H931	H93	0.937800	0.633100	0.780600
H941	H94	0.979700	0.610700	0.876900
H951	H95	0.928000	0.653900	0.905600
C591	C59	0.817800	0.514200	0.592200
C601	C60	0.880300	0.523400	0.591100
H961	H96	0.893700	0.531200	0.666700
H971	H97	0.889400	0.556400	0.543500
H981	H98	0.899500	0.488800	0.562600
C611	C61	0.858500	0.711300	0.634600
C621	C62	0.910700	0.727700	0.569500
H991	H99	0.904200	0.719100	0.491000
H1001	H100	0.944000	0.705700	0.596300
H1011	H101	0.918100	0.769000	0.578500
C631	C63	0.774900	0.681400	0.970100
C641	C64	0.764300	0.732600	0.039800
H1021	H102	0.731600	0.725100	0.089100
H1031	H103	0.755500	0.765700	0.992400
H1041	H104	0.798700	0.740900	0.084100
Mg171	Mg17	0.370170	0.457660	0.499900
Mg181	Mg18	0.273930	0.548660	0.539600
O731	O73	0.325860	0.401760	0.392300
O741	O74	0.274400	0.329000	0.328000
O751	O75	0.295930	0.464240	0.599400
O761	O76	0.222100	0.450000	0.709300
O771	O77	0.409300	0.397000	0.591200
O781	O78	0.500800	0.424900	0.586900
O791	O79	0.439410	0.467000	0.384700
O801	O80	0.383900	0.473400	0.235000
O811	O81	0.326800	0.520700	0.422200
H1051	H105	0.346000	0.540000	0.418000
C651	C65	0.320300	0.349900	0.371200
C661	C66	0.371600	0.310000	0.391300
H1061	H106	0.383100	0.312200	0.469400
H1071	H107	0.360700	0.270300	0.373100
H1081	H108	0.403900	0.322000	0.344400
C671	C67	0.264200	0.432200	0.657800
C681	C68	0.273400	0.369700	0.658900
H1091	H109	0.281200	0.356300	0.583300
H1101	H110	0.306400	0.360600	0.706500
H1111	H111	0.238800	0.350500	0.687400
C691	C69	0.461300	0.391500	0.615400
C701	C70	0.477700	0.339300	0.680500
H1121	H112	0.469100	0.345800	0.759000
H1131	H113	0.455700	0.306000	0.653700
H1141	H114	0.519000	0.331900	0.671500
C711	C71	0.431400	0.475100	0.279900
C721	C72	0.482600	0.485700	0.210200
H1151	H115	0.475100	0.518400	0.160900
H1161	H116	0.515700	0.494500	0.257600
H1171	H117	0.490900	0.451300	0.165900
Mg191	Mg19	0.870170	0.957660	0.999900
Mg201	Mg20	0.773930	0.048660	0.039600
O821	O82	0.825860	0.901760	0.892300
O831	O83	0.774400	0.829000	0.828000
O841	O84	0.795930	0.964240	0.099400
O851	O85	0.722100	0.950000	0.209300
O861	O86	0.909300	0.897000	0.091200
O871	O87	0.000800	0.924900	0.086900
O881	O88	0.939410	0.967000	0.884700
O891	O89	0.883900	0.973400	0.735000
O901	O90	0.826800	0.020700	0.922200
H1181	H118	0.846000	0.040000	0.918000
C731	C73	0.820300	0.849900	0.871200
C741	C74	0.871600	0.810000	0.891300
H1191	H119	0.883100	0.812200	0.969400
H1201	H120	0.860700	0.770300	0.873100
H1211	H121	0.903900	0.822000	0.844400
C751	C75	0.764200	0.932200	0.157800
C761	C76	0.773400	0.869700	0.158900
H1221	H122	0.781200	0.856300	0.083300
H1231	H123	0.806400	0.860600	0.206500
H1241	H124	0.738800	0.850500	0.187400
C771	C77	0.961300	0.891500	0.115400
C781	C78	0.977700	0.839300	0.180500
H1251	H125	0.969100	0.845800	0.259000
H1261	H126	0.955700	0.806000	0.153700
H1271	H127	0.019000	0.831900	0.171500
C791	C79	0.931400	0.975100	0.779900
C801	C80	0.982600	0.985700	0.710200
H1281	H128	0.975100	0.018400	0.660900
H1291	H129	0.015700	0.994500	0.757600
H1301	H130	0.990900	0.951300	0.665900
Mg211	Mg21	0.129830	0.542340	0.999900
Mg221	Mg22	0.226070	0.451340	0.039600
O911	O91	0.174140	0.598240	0.892300
O921	O92	0.225600	0.671000	0.828000
O931	O93	0.204070	0.535760	0.099400
O941	O94	0.277900	0.550000	0.209300
O951	O95	0.090700	0.603000	0.091200
O961	O96	0.999200	0.575100	0.086900
O971	O97	0.060590	0.533000	0.884700
O981	O98	0.116100	0.526600	0.735000
O991	O99	0.173200	0.479300	0.922200
H1311	H131	0.154000	0.460000	0.918000
C811	C81	0.179700	0.650100	0.871200
C821	C82	0.128400	0.690000	0.891300
H1321	H132	0.116900	0.687800	0.969400
H1331	H133	0.139300	0.729700	0.873100
H1341	H134	0.096100	0.678000	0.844400
C831	C83	0.235800	0.567800	0.157800
C841	C84	0.226600	0.630300	0.158900
H1351	H135	0.218800	0.643700	0.083300
H1361	H136	0.193600	0.639400	0.206500
H1371	H137	0.261200	0.649500	0.187400
C851	C85	0.038700	0.608500	0.115400
C861	C86	0.022300	0.660700	0.180500
H1381	H138	0.030900	0.654200	0.259000
H1391	H139	0.044300	0.694000	0.153700
H1401	H140	0.981000	0.668100	0.171500
C871	C87	0.068600	0.524900	0.779900
C881	C88	0.017400	0.514300	0.710200
H1411	H141	0.024900	0.481600	0.660900
H1421	H142	0.984300	0.505500	0.757600
H1431	H143	0.009100	0.548700	0.665900
Mg231	Mg23	0.629830	0.042340	0.499900
Mg241	Mg24	0.726070	0.951340	0.539600
O1001	O100	0.674140	0.098240	0.392300
O1011	O101	0.725600	0.171000	0.328000
O1021	O102	0.704070	0.035760	0.599400
O1031	O103	0.777900	0.050000	0.709300
O1041	O104	0.590700	0.103000	0.591200
O1051	O105	0.499200	0.075100	0.586900
O1061	O106	0.560590	0.033000	0.384700
O1071	O107	0.616100	0.026600	0.235000
O1081	O108	0.673200	0.979300	0.422200
H1441	H144	0.654000	0.960000	0.418000
C891	C89	0.679700	0.150100	0.371200
C901	C90	0.628400	0.190000	0.391300
H1451	H145	0.616900	0.187800	0.469400
H1461	H146	0.639300	0.229700	0.373100
H1471	H147	0.596100	0.178000	0.344400
C911	C91	0.735800	0.067800	0.657800
C921	C92	0.726600	0.130300	0.658900
H1481	H148	0.718800	0.143700	0.583300
H1491	H149	0.693600	0.139400	0.706500
H1501	H150	0.761200	0.149500	0.687400
C931	C93	0.538700	0.108500	0.615400
C941	C94	0.522300	0.160700	0.680500
H1511	H151	0.530900	0.154200	0.759000
H1521	H152	0.544300	0.194000	0.653700
H1531	H153	0.481000	0.168100	0.671500
C951	C95	0.568600	0.024900	0.279900
C961	C96	0.517400	0.014300	0.210200
H1541	H154	0.524900	0.981600	0.160900
H1551	H155	0.484300	0.005500	0.257600
H1561	H156	0.509100	0.048700	0.165900
Mg251	Mg25	0.792340	0.120170	0.249900
Mg261	Mg26	0.701340	0.023930	0.289600
O1091	O109	0.848240	0.075860	0.142300
O1101	O110	0.921000	0.024400	0.078000
O1111	O111	0.785760	0.045930	0.349400
O1121	O112	0.800000	0.972100	0.459300
O1131	O113	0.853000	0.159300	0.341200
O1141	O114	0.825100	0.250800	0.336900
O1151	O115	0.783000	0.189410	0.134700
O1161	O116	0.776600	0.133900	0.985000
O1171	O117	0.729300	0.076800	0.172200
H1571	H157	0.710000	0.096000	0.168000
C971	C97	0.900100	0.070300	0.121200
C981	C98	0.940000	0.121600	0.141300
H1581	H158	0.937800	0.133100	0.219400
H1591	H159	0.979700	0.110700	0.123100
H1601	H160	0.928000	0.153900	0.094400
C991	C99	0.817800	0.014200	0.407800
C1001	C100	0.880300	0.023400	0.408900
H1611	H161	0.893700	0.031200	0.333300
H1621	H162	0.889400	0.056400	0.456500
H1631	H163	0.899500	0.988800	0.437400
C1011	C101	0.858500	0.211300	0.365400
C1021	C102	0.910700	0.227700	0.430500
H1641	H164	0.904200	0.219100	0.509000
H1651	H165	0.944000	0.205700	0.403700
H1661	H166	0.918100	0.269000	0.421500
C1031	C103	0.774900	0.181400	0.029900
C1041	C104	0.764300	0.232600	0.960200
H1671	H167	0.731600	0.225100	0.910900
H1681	H168	0.755500	0.265700	0.007600
H1691	H169	0.798700	0.240900	0.915900
Mg271	Mg27	0.292340	0.620170	0.749900
Mg281	Mg28	0.201340	0.523930	0.789600
O1181	O118	0.348240	0.575860	0.642300
O1191	O119	0.421000	0.524400	0.578000
O1201	O120	0.285760	0.545930	0.849400
O1211	O121	0.300000	0.472100	0.959300
O1221	O122	0.353000	0.659300	0.841200
O1231	O123	0.325100	0.750800	0.836900
O1241	O124	0.283000	0.689410	0.634700
O1251	O125	0.276600	0.633900	0.485000
O1261	O126	0.229300	0.576800	0.672200
H1701	H170	0.210000	0.596000	0.668000
C1051	C105	0.400100	0.570300	0.621200
C1061	C106	0.440000	0.621600	0.641300
H1711	H171	0.437800	0.633100	0.719400
H1721	H172	0.479700	0.610700	0.623100
H1731	H173	0.428000	0.653900	0.594400
C1071	C107	0.317800	0.514200	0.907800
C1081	C108	0.380300	0.523400	0.908900
H1741	H174	0.393700	0.531200	0.833300
H1751	H175	0.389400	0.556400	0.956500
H1761	H176	0.399500	0.488800	0.937400
C1091	C109	0.358500	0.711300	0.865400
C1101	C110	0.410700	0.727700	0.930500
H1771	H177	0.404200	0.719100	0.009000
H1781	H178	0.444000	0.705700	0.903700
H1791	H179	0.418100	0.769000	0.921500
C1111	C111	0.274900	0.681400	0.529900
C1121	C112	0.264300	0.732600	0.460200
H1801	H180	0.231600	0.725100	0.410900
H1811	H181	0.255500	0.765700	0.507600
H1821	H182	0.298700	0.740900	0.415900
Mg291	Mg29	0.707660	0.879830	0.749900
Mg301	Mg30	0.798660	0.976070	0.789600
O1271	O127	0.651760	0.924140	0.642300
O1281	O128	0.579000	0.975600	0.578000
O1291	O129	0.714240	0.954070	0.849400
O1301	O130	0.700000	0.027900	0.959300
O1311	O131	0.647000	0.840700	0.841200
O1321	O132	0.674900	0.749200	0.836900
O1331	O133	0.717000	0.810590	0.634700
O1341	O134	0.723400	0.866100	0.485000
O1351	O135	0.770700	0.923200	0.672200
H1831	H183	0.790000	0.904000	0.668000
C1131	C113	0.599900	0.929700	0.621200
C1141	C114	0.560000	0.878400	0.641300
H1841	H184	0.562200	0.866900	0.719400
H1851	H185	0.520300	0.889300	0.623100
H1861	H186	0.572000	0.846100	0.594400
C1151	C115	0.682200	0.985800	0.907800
C1161	C116	0.619700	0.976600	0.908900
H1871	H187	0.606300	0.968800	0.833300
H1881	H188	0.610600	0.943600	0.956500
H1891	H189	0.600500	0.011200	0.937400
C1171	C117	0.641500	0.788700	0.865400
C1181	C118	0.589300	0.772300	0.930500
H1901	H190	0.595800	0.780900	0.009000
H1911	H191	0.556000	0.794300	0.903700
H1921	H192	0.581900	0.731000	0.921500
C1191	C119	0.725100	0.818600	0.529900
C1201	C120	0.735700	0.767400	0.460200
H1931	H193	0.768400	0.774900	0.410900
H1941	H194	0.744500	0.734300	0.507600
H1951	H195	0.701300	0.759100	0.415900
Mg311	Mg31	0.207660	0.379830	0.249900
Mg321	Mg32	0.298660	0.476070	0.289600
O1361	O136	0.151760	0.424140	0.142300
O1371	O137	0.079000	0.475600	0.078000
O1381	O138	0.214240	0.454070	0.349400
O1391	O139	0.200000	0.527900	0.459300
O1401	O140	0.147000	0.340700	0.341200
O1411	O141	0.174900	0.249200	0.336900
O1421	O142	0.217000	0.310590	0.134700
O1431	O143	0.223400	0.366100	0.985000
O1441	O144	0.270700	0.423200	0.172200
H1961	H196	0.290000	0.404000	0.168000
C1211	C121	0.099900	0.429700	0.121200
C1221	C122	0.060000	0.378400	0.141300
H1971	H197	0.062200	0.366900	0.219400
H1981	H198	0.020300	0.389300	0.123100
H1991	H199	0.072000	0.346100	0.094400
C1231	C123	0.182200	0.485800	0.407800
C1241	C124	0.119700	0.476600	0.408900
H2001	H200	0.106300	0.468800	0.333300
H2011	H201	0.110600	0.443600	0.456500
H2021	H202	0.100500	0.511200	0.437400
C1251	C125	0.141500	0.288700	0.365400
C1261	C126	0.089300	0.272300	0.430500
H2031	H203	0.095800	0.280900	0.509000
H2041	H204	0.056000	0.294300	0.403700
H2051	H205	0.081900	0.231000	0.421500
C1271	C127	0.225100	0.318600	0.029900
C1281	C128	0.235700	0.267400	0.960200
H2061	H206	0.268400	0.274900	0.910900
H2071	H207	0.244500	0.234300	0.007600
H2081	H208	0.201300	0.259100	0.915900
Mg331	Mg33	0.500000	0.500000	0.500000
Mg341	Mg34	0.000000	0.000000	0.000000
Mg351	Mg35	0.000000	0.500000	0.000000
Mg361	Mg36	0.500000	0.000000	0.500000
Mg371	Mg37	0.250000	0.750000	0.750000
Mg381	Mg38	0.250000	0.250000	0.250000
Mg391	Mg39	0.750000	0.250000	0.250000
Mg401	Mg40	0.750000	0.750000	0.750000
