data_IHUROS_clean_PM
_symmetry_space_group_name_H-M	'P1'
_cell_length_a	9.636700
_cell_length_b	10.176000
_cell_length_c	12.616400
_cell_angle_alpha	86.302000
_cell_angle_beta	68.880000
_cell_angle_gamma	61.800000
_symmetry_Int_Tables_number 1

loop_
_symmetry_equiv_pos_as_xyz
'x,y,z'

loop_
_atom_site_label
_atom_site_type_symbol
_atom_site_fract_x
_atom_site_fract_y
_atom_site_fract_z
Fe11	Fe1	0.096550	0.150340	0.337130
Fe21	Fe2	0.862910	0.922710	0.167020
Fe31	Fe3	0.261920	0.231580	0.576790
P11	P1	0.476790	0.022340	0.322270
P21	P2	0.891400	0.963350	0.416850
P31	P3	0.004010	0.161910	0.111810
O11	O1	0.615800	0.025600	0.214800
O21	O2	0.340400	0.028900	0.281500
O31	O3	0.408800	0.156500	0.408900
O41	O4	0.539200	0.873300	0.372600
O51	O5	0.041900	0.986300	0.350900
O61	O6	0.925800	0.849100	0.500500
O71	O7	0.837100	0.906900	0.336600
O81	O8	0.739100	0.120900	0.481000
H11	H1	0.635800	0.134800	0.525600
O91	O9	0.114300	0.078900	0.992200
O101	O10	0.876400	0.107700	0.176000
O111	O11	0.118700	0.149800	0.173800
O121	O12	0.889000	0.334100	0.108700
H21	H2	0.935200	0.401700	0.105300
O131	O13	0.133500	0.337600	0.326900
O141	O14	0.986500	0.588000	0.370800
O151	O15	0.849200	0.324500	0.386800
O161	O16	0.696800	0.572100	0.441000
O171	O17	0.873100	0.714900	0.166600
O181	O18	0.061500	0.471200	0.107900
O191	O19	0.116400	0.781900	0.129100
O201	O20	0.307900	0.540400	0.101900
C11	C1	0.999600	0.460300	0.364200
C21	C2	0.832200	0.453100	0.402000
C31	C3	0.020800	0.603100	0.131000
C41	C4	0.163300	0.642700	0.118400
Fe41	Fe4	0.903450	0.849660	0.662870
Fe51	Fe5	0.137090	0.077290	0.832980
Fe61	Fe6	0.738080	0.768420	0.423210
P41	P4	0.523210	0.977660	0.677730
P51	P5	0.108600	0.036650	0.583150
P61	P6	0.995990	0.838090	0.888190
O211	O21	0.384200	0.974400	0.785200
O221	O22	0.659600	0.971100	0.718500
O231	O23	0.591200	0.843500	0.591100
O241	O24	0.460800	0.126700	0.627400
O251	O25	0.958100	0.013700	0.649100
O261	O26	0.074200	0.150900	0.499500
O271	O27	0.162900	0.093100	0.663400
O281	O28	0.260900	0.879100	0.519000
H31	H3	0.364200	0.865200	0.474400
O291	O29	0.885700	0.921100	0.007800
O301	O30	0.123600	0.892300	0.824000
O311	O31	0.881300	0.850200	0.826200
O321	O32	0.111000	0.665900	0.891300
H41	H4	0.064800	0.598300	0.894700
O331	O33	0.866500	0.662400	0.673100
O341	O34	0.013500	0.412000	0.629200
O351	O35	0.150800	0.675500	0.613200
O361	O36	0.303200	0.427900	0.559000
O371	O37	0.126900	0.285100	0.833400
O381	O38	0.938500	0.528800	0.892100
O391	O39	0.883600	0.218100	0.870900
O401	O40	0.692100	0.459600	0.898100
C51	C5	0.000400	0.539700	0.635800
C61	C6	0.167800	0.546900	0.598000
C71	C7	0.979200	0.396900	0.869000
C81	C8	0.836700	0.357300	0.881600
