data_IJASES01_clean_PM
_symmetry_space_group_name_H-M	'P1'
_cell_length_a	8.651400
_cell_length_b	10.153100
_cell_length_c	11.170300
_cell_angle_alpha	65.437000
_cell_angle_beta	71.666000
_cell_angle_gamma	78.421000
_symmetry_Int_Tables_number 1

loop_
_symmetry_equiv_pos_as_xyz
'x,y,z'

loop_
_atom_site_label
_atom_site_type_symbol
_atom_site_fract_x
_atom_site_fract_y
_atom_site_fract_z
Tm11	Tm1	0.132110	0.440270	0.652780
Tm21	Tm2	0.867890	0.559730	0.347220
H11	H1	0.633600	0.111800	0.773100
H21	H2	0.230300	0.070200	0.081100
H31	H3	0.543900	0.354500	0.876900
H41	H4	0.713200	0.618300	0.984700
H51	H5	0.925900	0.782100	0.680100
H61	H6	0.020700	0.027100	0.279500
H71	H7	0.366400	0.888200	0.226900
H81	H8	0.769700	0.929800	0.918900
H91	H9	0.456100	0.645500	0.123100
H101	H10	0.286800	0.381700	0.015300
H111	H11	0.074100	0.217900	0.319900
H121	H12	0.979300	0.972900	0.720500
C11	C1	0.325800	0.231400	0.820900
C21	C2	0.418100	0.111800	0.911000
C31	C3	0.579300	0.067400	0.864400
C41	C4	0.339300	0.042200	0.048100
C51	C5	0.820200	0.461500	0.830900
C61	C6	0.654200	0.482900	0.917400
C71	C7	0.526100	0.412900	0.926600
C81	C8	0.627900	0.570800	0.990900
C91	C9	0.929900	0.766100	0.447600
C101	C10	0.966100	0.886000	0.476400
C111	C11	0.955100	0.869200	0.608000
C121	C12	0.012000	0.016500	0.368100
C131	C13	0.674200	0.768600	0.179100
C141	C14	0.581900	0.888200	0.089000
C151	C15	0.420700	0.932600	0.135600
C161	C16	0.660700	0.957800	0.951900
C171	C17	0.179800	0.538500	0.169100
C181	C18	0.345800	0.517100	0.082600
C191	C19	0.473900	0.587100	0.073400
C201	C20	0.372100	0.429200	0.009100
C211	C21	0.070100	0.233900	0.552400
C221	C22	0.033900	0.114000	0.523600
C231	C23	0.044900	0.130800	0.392000
C241	C24	0.988000	0.983500	0.631900
O11	O1	0.397800	0.298900	0.696100
O21	O2	0.178700	0.265600	0.868500
O31	O3	0.843300	0.381300	0.763700
O41	O4	0.935500	0.523600	0.825100
O51	O5	0.962300	0.634300	0.518900
O61	O6	0.868000	0.799400	0.350000
O71	O7	0.602200	0.701100	0.303900
O81	O8	0.821300	0.734400	0.131500
O91	O9	0.156700	0.618700	0.236300
O101	O10	0.064500	0.476400	0.174900
O111	O11	0.037700	0.365700	0.481100
O121	O12	0.132000	0.200600	0.650000
