data_IJEXUR_clean_PM
_symmetry_space_group_name_H-M	'P1'
_cell_length_a	10.788200
_cell_length_b	12.307200
_cell_length_c	14.289300
_cell_angle_alpha	83.183000
_cell_angle_beta	69.590000
_cell_angle_gamma	65.174000
_symmetry_Int_Tables_number 1

loop_
_symmetry_equiv_pos_as_xyz
'x,y,z'

loop_
_atom_site_label
_atom_site_type_symbol
_atom_site_fract_x
_atom_site_fract_y
_atom_site_fract_z
Zn11	Zn1	0.248430	0.445680	0.961800
Zn21	Zn2	0.210810	0.203920	0.093210
Zn31	Zn3	0.751570	0.554320	0.038200
Zn41	Zn4	0.789190	0.796080	0.906790
Zn51	Zn5	0.500000	0.500000	0.000000
H11	H1	0.501900	0.681400	0.022300
H21	H2	0.074000	0.355200	0.003100
H31	H3	0.454000	0.284700	0.329700
H41	H4	0.493100	0.313600	0.162000
H51	H5	0.328200	0.658600	0.199700
H61	H6	0.380900	0.313100	0.617300
H71	H7	0.860500	0.773800	0.127400
H81	H8	0.202000	0.857500	0.058200
H91	H9	0.224200	0.639800	0.812000
H101	H10	0.284000	0.639200	0.367900
H111	H11	0.125500	0.226400	0.455500
H121	H12	0.012800	0.542600	0.325800
H131	H13	0.792400	0.100500	0.194400
H141	H14	0.197600	0.136300	0.307000
H151	H15	0.349200	0.296900	0.785000
H161	H16	0.249800	0.666800	0.647300
H171	H17	0.091700	0.442900	0.177500
H181	H18	0.498100	0.318600	0.977700
H191	H19	0.926000	0.644800	0.996900
H201	H20	0.546000	0.715300	0.670300
H211	H21	0.506900	0.686400	0.838000
H221	H22	0.671800	0.341400	0.800300
H231	H23	0.619100	0.686900	0.382700
H241	H24	0.139500	0.226200	0.872600
H251	H25	0.798000	0.142500	0.941800
H261	H26	0.775800	0.360200	0.188000
H271	H27	0.716000	0.360800	0.632100
H281	H28	0.874500	0.773600	0.544500
H291	H29	0.987200	0.457400	0.674200
H301	H30	0.207600	0.899500	0.805600
H311	H31	0.802400	0.863700	0.693000
H321	H32	0.650800	0.703100	0.215000
H331	H33	0.750200	0.333200	0.352700
H341	H34	0.908300	0.557100	0.822500
C11	C1	0.157500	0.674200	0.036100
C21	C2	0.429000	0.361400	0.304600
C31	C3	0.451400	0.380500	0.204500
C41	C4	0.047800	0.796400	0.085500
C51	C5	0.354900	0.582500	0.225800
C61	C6	0.347700	0.380800	0.656900
C71	C7	0.897300	0.829800	0.127600
C81	C8	0.103000	0.877400	0.085000
C91	C9	0.004900	0.992900	0.126600
C101	C10	0.254300	0.573500	0.771500
C111	C11	0.801800	0.943500	0.169400
C121	C12	0.060700	0.394700	0.406900
C131	C13	0.328700	0.571400	0.326100
C141	C14	0.117300	0.272000	0.399500
C151	C15	0.062100	0.082200	0.123000
C161	C16	0.050900	0.459400	0.322700
C171	C17	0.317200	0.493600	0.615600
C181	C18	0.854700	0.023600	0.168000
C191	C19	0.160200	0.219500	0.311300
C201	C20	0.327900	0.371800	0.756700
C211	C21	0.368600	0.459700	0.364600
C221	C22	0.270300	0.590800	0.673600
C231	C23	0.097800	0.399500	0.234800
C241	C24	0.842500	0.325800	0.963900
C251	C25	0.571000	0.638600	0.695400
C261	C26	0.548600	0.619500	0.795500
C271	C27	0.952200	0.203600	0.914500
C281	C28	0.645100	0.417500	0.774200
C291	C29	0.652300	0.619200	0.343100
C301	C30	0.102700	0.170200	0.872400
C311	C31	0.897000	0.122600	0.915000
C321	C32	0.995100	0.007100	0.873400
C331	C33	0.745700	0.426500	0.228500
C341	C34	0.198200	0.056500	0.830600
C351	C35	0.939300	0.605300	0.593100
C361	C36	0.671300	0.428600	0.673900
C371	C37	0.882700	0.728000	0.600500
C381	C38	0.937900	0.917800	0.877000
C391	C39	0.949100	0.540600	0.677300
C401	C40	0.682800	0.506400	0.384400
C411	C41	0.145300	0.976400	0.832000
C421	C42	0.839800	0.780500	0.688700
C431	C43	0.672100	0.628200	0.243300
C441	C44	0.631400	0.540300	0.635400
C451	C45	0.729700	0.409200	0.326400
C461	C46	0.902200	0.600500	0.765200
S11	S1	0.603900	0.985700	0.223400
S21	S2	0.396100	0.014300	0.776600
N11	N1	0.418200	0.486800	0.164100
N21	N2	0.279100	0.467400	0.813400
N31	N3	0.152300	0.280600	0.228300
N41	N4	0.332500	0.518400	0.511600
N51	N5	0.352000	0.435700	0.469300
N61	N6	0.016600	0.445600	0.500200
N71	N7	0.581800	0.513200	0.835900
N81	N8	0.720900	0.532600	0.186600
N91	N9	0.847700	0.719400	0.771700
N101	N10	0.667500	0.481600	0.488400
N111	N11	0.648000	0.564300	0.530700
N121	N12	0.983400	0.554400	0.499800
O11	O1	0.578800	0.910400	0.174500
O21	O2	0.572300	0.954100	0.320500
O31	O3	0.535600	0.101900	0.193200
O41	O4	0.102500	0.604300	0.031100
O51	O5	0.291200	0.649500	0.004100
O61	O6	0.575500	0.614800	0.010000
O71	O7	0.155500	0.337300	0.009900
O81	O8	0.199700	0.049400	0.095700
O91	O9	0.978300	0.187600	0.143700
O101	O10	0.421200	0.089600	0.825500
O111	O11	0.427700	0.045900	0.679500
O121	O12	0.464400	0.898100	0.806800
O131	O13	0.897500	0.395700	0.968900
O141	O14	0.708800	0.350500	0.995900
O151	O15	0.424500	0.385200	0.990000
O161	O16	0.844500	0.662700	0.990100
O171	O17	0.800300	0.950600	0.904300
O181	O18	0.021700	0.812400	0.856300
