data_IJEYON_clean_PM
_symmetry_space_group_name_H-M	'P1'
_cell_length_a	8.115600
_cell_length_b	20.386100
_cell_length_c	8.657900
_cell_angle_alpha	90.000000
_cell_angle_beta	91.199000
_cell_angle_gamma	90.000000
_symmetry_Int_Tables_number 1

loop_
_symmetry_equiv_pos_as_xyz
'x,y,z'

loop_
_atom_site_label
_atom_site_type_symbol
_atom_site_fract_x
_atom_site_fract_y
_atom_site_fract_z
C11	C1	0.882200	0.870200	0.688800
H11	H1	0.993500	0.863100	0.721000
C21	C2	0.619000	0.856000	0.642100
H21	H2	0.512500	0.836700	0.635500
C31	C3	0.832200	0.635300	0.845600
H31	H3	0.940200	0.651000	0.827200
C41	C4	0.562800	0.629800	0.858300
H41	H4	0.448700	0.640000	0.850400
C51	C5	0.812700	0.500300	0.210500
H51	H5	0.892400	0.503000	0.132000
C61	C6	0.697000	0.493800	0.436500
H61	H6	0.682400	0.491600	0.545000
N11	N1	0.825500	0.923700	0.626500
N21	N2	0.655800	0.914800	0.597200
N31	N3	0.758600	0.825900	0.701000
N41	N4	0.789400	0.763200	0.756200
N51	N5	0.656900	0.732900	0.759500
N61	N6	0.687800	0.669200	0.814400
N71	N7	0.796300	0.578500	0.904500
N81	N8	0.625000	0.575900	0.912800
N91	N9	0.653000	0.498100	0.188700
N101	N10	0.579200	0.493000	0.333200
N111	N11	0.844800	0.498100	0.366000
N121	N12	0.003100	0.500700	0.427400
C71	C7	0.117800	0.129800	0.311200
H71	H7	0.006500	0.136900	0.279000
C81	C8	0.381000	0.144000	0.357900
H81	H8	0.487500	0.163300	0.364500
C91	C9	0.167800	0.364700	0.154400
H91	H9	0.059800	0.349000	0.172800
C101	C10	0.437200	0.370200	0.141700
H101	H10	0.551300	0.360000	0.149600
C111	C11	0.187300	0.499700	0.789500
H111	H11	0.107600	0.497000	0.868000
C121	C12	0.303000	0.506200	0.563500
H121	H12	0.317600	0.508400	0.455000
N131	N13	0.174500	0.076300	0.373500
N141	N14	0.344200	0.085200	0.402800
N151	N15	0.241400	0.174100	0.299000
N161	N16	0.210600	0.236800	0.243800
N171	N17	0.343100	0.267100	0.240500
N181	N18	0.312200	0.330800	0.185600
N191	N19	0.203700	0.421500	0.095500
N201	N20	0.375000	0.424100	0.087200
N211	N21	0.347000	0.501900	0.811300
N221	N22	0.420800	0.507000	0.666800
N231	N23	0.155200	0.501900	0.634000
N241	N24	0.996900	0.499300	0.572600
Cu11	Cu1	0.500000	0.500000	0.000000
C131	C13	0.617800	0.370200	0.811200
H131	H13	0.506500	0.363100	0.779000
C141	C14	0.881000	0.356000	0.857900
H141	H14	0.987500	0.336700	0.864500
C151	C15	0.667800	0.135300	0.654400
H151	H15	0.559800	0.151000	0.672800
C161	C16	0.937200	0.129800	0.641700
H161	H16	0.051300	0.140000	0.649600
C171	C17	0.687300	0.000300	0.289500
H171	H17	0.607600	0.003000	0.368000
C181	C18	0.803000	0.993800	0.063500
H181	H18	0.817600	0.991600	0.955000
N251	N25	0.674500	0.423700	0.873500
N261	N26	0.844200	0.414800	0.902800
N271	N27	0.741400	0.325900	0.799000
N281	N28	0.710600	0.263200	0.743800
N291	N29	0.843100	0.232900	0.740500
N301	N30	0.812200	0.169200	0.685600
N311	N31	0.703700	0.078500	0.595500
N321	N32	0.875000	0.075900	0.587200
N331	N33	0.847000	0.998100	0.311300
N341	N34	0.920800	0.993000	0.166800
N351	N35	0.655200	0.998100	0.134000
N361	N36	0.496900	0.000700	0.072600
C191	C19	0.382200	0.629800	0.188800
H191	H19	0.493500	0.636900	0.221000
C201	C20	0.119000	0.644000	0.142100
H201	H20	0.012500	0.663300	0.135500
C211	C21	0.332200	0.864700	0.345600
H211	H21	0.440200	0.849000	0.327200
C221	C22	0.062800	0.870200	0.358300
H221	H22	0.948700	0.860000	0.350400
C231	C23	0.312700	0.999700	0.710500
H231	H23	0.392400	0.997000	0.632000
C241	C24	0.197000	0.006200	0.936500
H241	H24	0.182400	0.008400	0.045000
N371	N37	0.325500	0.576300	0.126500
N381	N38	0.155800	0.585200	0.097200
N391	N39	0.258600	0.674100	0.201000
N401	N40	0.289400	0.736800	0.256200
N411	N41	0.156900	0.767100	0.259500
N421	N42	0.187800	0.830800	0.314400
N431	N43	0.296300	0.921500	0.404500
N441	N44	0.125000	0.924100	0.412800
N451	N45	0.153000	0.001900	0.688700
N461	N46	0.079200	0.007000	0.833200
N471	N47	0.344800	0.001900	0.866000
N481	N48	0.503100	0.999300	0.927400
Cu21	Cu2	0.000000	0.000000	0.500000
