data_IJIGOX_clean_PM
_symmetry_space_group_name_H-M	'P1'
_cell_length_a	9.848000
_cell_length_b	12.470000
_cell_length_c	12.603000
_cell_angle_alpha	63.470000
_cell_angle_beta	74.560000
_cell_angle_gamma	76.030000
_symmetry_Int_Tables_number 1

loop_
_symmetry_equiv_pos_as_xyz
'x,y,z'

loop_
_atom_site_label
_atom_site_type_symbol
_atom_site_fract_x
_atom_site_fract_y
_atom_site_fract_z
Ga11	Ga1	0.200200	0.882460	0.518110
Ga21	Ga2	0.097300	0.401440	0.162340
Ga31	Ga3	0.366900	0.161900	0.506000
Co11	Co1	0.392100	0.660200	0.903100
Co21	Co2	0.531400	0.535300	0.310000
P11	P1	0.115700	0.169400	0.400400
P21	P2	0.361600	0.896700	0.685100
P31	P3	0.338700	0.508700	0.170600
P41	P4	0.451800	0.697900	0.451200
P51	P5	0.210200	0.489400	0.883100
O11	O1	0.344900	0.811100	0.433200
O21	O2	0.236700	0.866800	0.660200
O31	O3	0.182800	0.044700	0.414400
O41	O4	0.960800	0.178300	0.463800
O51	O5	0.156900	0.400800	0.010700
O61	O6	0.090900	0.533100	0.811000
O71	O7	0.127100	0.242100	0.264500
O81	O8	0.181400	0.496500	0.199400
O91	O9	0.192800	0.223200	0.452600
O101	O10	0.341900	0.029300	0.655200
O111	O11	0.497600	0.857900	0.615400
O121	O12	0.590900	0.719400	0.462100
O131	O13	0.365400	0.827800	0.821000
O141	O14	0.256400	0.594700	0.884100
O151	O15	0.421600	0.406200	0.137000
O161	O16	0.365600	0.630000	0.066000
O171	O17	0.469200	0.669300	0.342300
O181	O18	0.331600	0.418000	0.827600
O191	O19	0.394000	0.594200	0.562900
O201	O20	0.373700	0.507200	0.281200
Ga41	Ga4	0.799800	0.117540	0.481890
Ga51	Ga5	0.902700	0.598560	0.837660
Ga61	Ga6	0.633100	0.838100	0.494000
Co31	Co3	0.607900	0.339800	0.096900
Co41	Co4	0.468600	0.464700	0.690000
P61	P6	0.884300	0.830600	0.599600
P71	P7	0.638400	0.103300	0.314900
P81	P8	0.661300	0.491300	0.829400
P91	P9	0.548200	0.302100	0.548800
P101	P10	0.789800	0.510600	0.116900
O211	O21	0.655100	0.188900	0.566800
O221	O22	0.763300	0.133200	0.339800
O231	O23	0.817200	0.955300	0.585600
O241	O24	0.039200	0.821700	0.536200
O251	O25	0.843100	0.599200	0.989300
O261	O26	0.909100	0.466900	0.189000
O271	O27	0.872900	0.757900	0.735500
O281	O28	0.818600	0.503500	0.800600
O291	O29	0.807200	0.776800	0.547400
O301	O30	0.658100	0.970700	0.344800
O311	O31	0.502400	0.142100	0.384600
O321	O32	0.409100	0.280600	0.537900
O331	O33	0.634600	0.172200	0.179000
O341	O34	0.743600	0.405300	0.115900
O351	O35	0.578400	0.593800	0.863000
O361	O36	0.634400	0.370000	0.934000
O371	O37	0.530800	0.330700	0.657700
O381	O38	0.668400	0.582000	0.172400
O391	O39	0.606000	0.405800	0.437100
O401	O40	0.626300	0.492800	0.718800
