data_IJISEZ_clean_PM
_symmetry_space_group_name_H-M	'P1'
_cell_length_a	14.493900
_cell_length_b	10.259500
_cell_length_c	18.678200
_cell_angle_alpha	90.000000
_cell_angle_beta	98.991000
_cell_angle_gamma	90.000000
_symmetry_Int_Tables_number 1

loop_
_symmetry_equiv_pos_as_xyz
'x,y,z'

loop_
_atom_site_label
_atom_site_type_symbol
_atom_site_fract_x
_atom_site_fract_y
_atom_site_fract_z
V11	V1	0.154900	0.884000	0.087200
V21	V2	0.737000	0.554300	0.780600
P11	P1	0.217400	0.876400	0.924000
P21	P2	0.835200	0.833400	0.831600
K11	K1	0.343800	0.305900	0.042500
O11	O1	0.208600	0.923900	0.000100
O21	O2	0.757900	0.731000	0.825300
O31	O3	0.820500	0.929000	0.892000
O41	O4	0.214800	0.997700	0.876600
O51	O5	0.838300	0.903600	0.759900
O61	O6	0.307800	0.800100	0.923500
O71	O7	0.044500	0.872300	0.067400
O81	O8	0.189900	0.851000	0.190800
C11	C1	0.120400	0.771700	0.891400
C21	C2	0.945300	0.752700	0.856400
C31	C3	0.028400	0.845500	0.875300
V31	V3	0.654900	0.384000	0.087200
V41	V4	0.237000	0.054300	0.780600
P31	P3	0.717400	0.376400	0.924000
P41	P4	0.335200	0.333400	0.831600
K21	K2	0.843800	0.805900	0.042500
O91	O9	0.708600	0.423900	0.000100
O101	O10	0.257900	0.231000	0.825300
O111	O11	0.320500	0.429000	0.892000
O121	O12	0.714800	0.497700	0.876600
O131	O13	0.338300	0.403600	0.759900
O141	O14	0.807800	0.300100	0.923500
O151	O15	0.544500	0.372300	0.067400
O161	O16	0.689900	0.351000	0.190800
C41	C4	0.620400	0.271700	0.891400
C51	C5	0.445300	0.252700	0.856400
C61	C6	0.528400	0.345500	0.875300
V51	V5	0.845100	0.884000	0.412800
V61	V6	0.263000	0.554300	0.719400
P51	P5	0.782600	0.876400	0.576000
P61	P6	0.164800	0.833400	0.668400
K31	K3	0.656200	0.305900	0.457500
O171	O17	0.791400	0.923900	0.499900
O181	O18	0.242100	0.731000	0.674700
O191	O19	0.179500	0.929000	0.608000
O201	O20	0.785200	0.997700	0.623400
O211	O21	0.161700	0.903600	0.740100
O221	O22	0.692200	0.800100	0.576500
O231	O23	0.955500	0.872300	0.432600
O241	O24	0.810100	0.851000	0.309200
C71	C7	0.879600	0.771700	0.608600
C81	C8	0.054700	0.752700	0.643600
C91	C9	0.971600	0.845500	0.624700
V71	V7	0.345100	0.384000	0.412800
V81	V8	0.763000	0.054300	0.719400
P71	P7	0.282600	0.376400	0.576000
P81	P8	0.664800	0.333400	0.668400
K41	K4	0.156200	0.805900	0.457500
O251	O25	0.291400	0.423900	0.499900
O261	O26	0.742100	0.231000	0.674700
O271	O27	0.679500	0.429000	0.608000
O281	O28	0.285200	0.497700	0.623400
O291	O29	0.661700	0.403600	0.740100
O301	O30	0.192200	0.300100	0.576500
O311	O31	0.455500	0.372300	0.432600
O321	O32	0.310100	0.351000	0.309200
C101	C10	0.379600	0.271700	0.608600
C111	C11	0.554700	0.252700	0.643600
C121	C12	0.471600	0.345500	0.624700
V91	V9	0.845100	0.116000	0.912800
V101	V10	0.263000	0.445700	0.219400
P91	P9	0.782600	0.123600	0.076000
P101	P10	0.164800	0.166600	0.168400
K51	K5	0.656200	0.694100	0.957500
O331	O33	0.791400	0.076100	0.999900
O341	O34	0.242100	0.269000	0.174700
O351	O35	0.179500	0.071000	0.108000
O361	O36	0.785200	0.002300	0.123400
O371	O37	0.161700	0.096400	0.240100
O381	O38	0.692200	0.199900	0.076500
O391	O39	0.955500	0.127700	0.932600
O401	O40	0.810100	0.149000	0.809200
C131	C13	0.879600	0.228300	0.108600
C141	C14	0.054700	0.247300	0.143600
C151	C15	0.971600	0.154500	0.124700
V111	V11	0.345100	0.616000	0.912800
V121	V12	0.763000	0.945700	0.219400
P111	P11	0.282600	0.623600	0.076000
P121	P12	0.664800	0.666600	0.168400
K61	K6	0.156200	0.194100	0.957500
O411	O41	0.291400	0.576100	0.999900
O421	O42	0.742100	0.769000	0.174700
O431	O43	0.679500	0.571000	0.108000
O441	O44	0.285200	0.502300	0.123400
O451	O45	0.661700	0.596400	0.240100
O461	O46	0.192200	0.699900	0.076500
O471	O47	0.455500	0.627700	0.932600
O481	O48	0.310100	0.649000	0.809200
C161	C16	0.379600	0.728300	0.108600
C171	C17	0.554700	0.747300	0.143600
C181	C18	0.471600	0.654500	0.124700
V131	V13	0.154900	0.116000	0.587200
V141	V14	0.737000	0.445700	0.280600
P131	P13	0.217400	0.123600	0.424000
P141	P14	0.835200	0.166600	0.331600
K71	K7	0.343800	0.694100	0.542500
O491	O49	0.208600	0.076100	0.500100
O501	O50	0.757900	0.269000	0.325300
O511	O51	0.820500	0.071000	0.392000
O521	O52	0.214800	0.002300	0.376600
O531	O53	0.838300	0.096400	0.259900
O541	O54	0.307800	0.199900	0.423500
O551	O55	0.044500	0.127700	0.567400
O561	O56	0.189900	0.149000	0.690800
C191	C19	0.120400	0.228300	0.391400
C201	C20	0.945300	0.247300	0.356400
C211	C21	0.028400	0.154500	0.375300
V151	V15	0.654900	0.616000	0.587200
V161	V16	0.237000	0.945700	0.280600
P151	P15	0.717400	0.623600	0.424000
P161	P16	0.335200	0.666600	0.331600
K81	K8	0.843800	0.194100	0.542500
O571	O57	0.708600	0.576100	0.500100
O581	O58	0.257900	0.769000	0.325300
O591	O59	0.320500	0.571000	0.392000
O601	O60	0.714800	0.502300	0.376600
O611	O61	0.338300	0.596400	0.259900
O621	O62	0.807800	0.699900	0.423500
O631	O63	0.544500	0.627700	0.567400
O641	O64	0.689900	0.649000	0.690800
C221	C22	0.620400	0.728300	0.391400
C231	C23	0.445300	0.747300	0.356400
C241	C24	0.528400	0.654500	0.375300
