data_IKEBUV01_clean_PM
_symmetry_space_group_name_H-M	'P1'
_cell_length_a	8.422100
_cell_length_b	8.422100
_cell_length_c	12.049000
_cell_angle_alpha	90.000000
_cell_angle_beta	90.000000
_cell_angle_gamma	90.000000
_symmetry_Int_Tables_number 1

loop_
_symmetry_equiv_pos_as_xyz
'x,y,z'

loop_
_atom_site_label
_atom_site_type_symbol
_atom_site_fract_x
_atom_site_fract_y
_atom_site_fract_z
Cu11	Cu1	0.097450	0.694090	0.891070
Cu21	Cu2	0.902550	0.305910	0.391070
Cu31	Cu3	0.305910	0.097450	0.141070
Cu41	Cu4	0.694090	0.902550	0.641070
H11	H1	0.561400	0.823000	0.890000
H21	H2	0.471500	0.669200	0.926400
H31	H3	0.438600	0.177000	0.390000
H41	H4	0.528500	0.330800	0.426400
H51	H5	0.177000	0.561400	0.140000
H61	H6	0.330800	0.471500	0.176400
H71	H7	0.823000	0.438600	0.640000
H81	H8	0.669200	0.528500	0.676400
C11	C1	0.388100	0.758900	0.779600
C21	C2	0.457100	0.774900	0.896000
C31	C3	0.360400	0.871200	0.977800
C41	C4	0.611900	0.241100	0.279600
C51	C5	0.542900	0.225100	0.396000
C61	C6	0.639600	0.128800	0.477800
C71	C7	0.241100	0.388100	0.029600
C81	C8	0.225100	0.457100	0.146000
C91	C9	0.128800	0.360400	0.227800
C101	C10	0.758900	0.611900	0.529600
C111	C11	0.774900	0.542900	0.646000
C121	C12	0.871200	0.639600	0.727800
O11	O1	0.240600	0.732400	0.769560
O21	O2	0.210700	0.851800	0.982140
O31	O3	0.479100	0.767100	0.698250
O41	O4	0.432900	0.964500	0.040240
O51	O5	0.759400	0.267600	0.269560
O61	O6	0.789300	0.148200	0.482140
O71	O7	0.520900	0.232900	0.198250
O81	O8	0.567100	0.035500	0.540240
O91	O9	0.267600	0.240600	0.019560
O101	O10	0.148200	0.210700	0.232140
O111	O11	0.232900	0.479100	0.948250
O121	O12	0.035500	0.432900	0.290240
O131	O13	0.732400	0.759400	0.519560
O141	O14	0.851800	0.789300	0.732140
O151	O15	0.767100	0.520900	0.448250
O161	O16	0.964500	0.567100	0.790240
