data_IKETIB_clean_PM
_symmetry_space_group_name_H-M	'P1'
_cell_length_a	26.308200
_cell_length_b	26.308200
_cell_length_c	26.308200
_cell_angle_alpha	90.000000
_cell_angle_beta	90.000000
_cell_angle_gamma	90.000000
_symmetry_Int_Tables_number 1

loop_
_symmetry_equiv_pos_as_xyz
'x,y,z'

loop_
_atom_site_label
_atom_site_type_symbol
_atom_site_fract_x
_atom_site_fract_y
_atom_site_fract_z
O11	O1	0.243800	0.051900	0.183700
O21	O2	0.243800	0.551900	0.683700
O31	O3	0.743800	0.051900	0.683700
O41	O4	0.743800	0.551900	0.183700
O51	O5	0.756200	0.948100	0.183700
O61	O6	0.756200	0.448100	0.683700
O71	O7	0.256200	0.948100	0.683700
O81	O8	0.256200	0.448100	0.183700
O91	O9	0.756200	0.051900	0.816300
O101	O10	0.756200	0.551900	0.316300
O111	O11	0.256200	0.051900	0.316300
O121	O12	0.256200	0.551900	0.816300
O131	O13	0.243800	0.948100	0.816300
O141	O14	0.243800	0.448100	0.316300
O151	O15	0.743800	0.948100	0.316300
O161	O16	0.743800	0.448100	0.816300
O171	O17	0.183700	0.243800	0.051900
O181	O18	0.183700	0.743800	0.551900
O191	O19	0.683700	0.243800	0.551900
O201	O20	0.683700	0.743800	0.051900
O211	O21	0.183700	0.756200	0.948100
O221	O22	0.183700	0.256200	0.448100
O231	O23	0.683700	0.756200	0.448100
O241	O24	0.683700	0.256200	0.948100
O251	O25	0.816300	0.756200	0.051900
O261	O26	0.816300	0.256200	0.551900
O271	O27	0.316300	0.756200	0.551900
O281	O28	0.316300	0.256200	0.051900
O291	O29	0.816300	0.243800	0.948100
O301	O30	0.816300	0.743800	0.448100
O311	O31	0.316300	0.243800	0.448100
O321	O32	0.316300	0.743800	0.948100
O331	O33	0.051900	0.183700	0.243800
O341	O34	0.051900	0.683700	0.743800
O351	O35	0.551900	0.183700	0.743800
O361	O36	0.551900	0.683700	0.243800
O371	O37	0.948100	0.183700	0.756200
O381	O38	0.948100	0.683700	0.256200
O391	O39	0.448100	0.183700	0.256200
O401	O40	0.448100	0.683700	0.756200
O411	O41	0.051900	0.816300	0.756200
O421	O42	0.051900	0.316300	0.256200
O431	O43	0.551900	0.816300	0.256200
O441	O44	0.551900	0.316300	0.756200
O451	O45	0.948100	0.816300	0.243800
O461	O46	0.948100	0.316300	0.743800
O471	O47	0.448100	0.816300	0.743800
O481	O48	0.448100	0.316300	0.243800
O491	O49	0.051900	0.243800	0.816300
O501	O50	0.051900	0.743800	0.316300
O511	O51	0.551900	0.243800	0.316300
O521	O52	0.551900	0.743800	0.816300
O531	O53	0.948100	0.756200	0.816300
O541	O54	0.948100	0.256200	0.316300
O551	O55	0.448100	0.756200	0.316300
O561	O56	0.448100	0.256200	0.816300
O571	O57	0.051900	0.756200	0.183700
O581	O58	0.051900	0.256200	0.683700
O591	O59	0.551900	0.756200	0.683700
O601	O60	0.551900	0.256200	0.183700
O611	O61	0.948100	0.243800	0.183700
O621	O62	0.948100	0.743800	0.683700
O631	O63	0.448100	0.243800	0.683700
O641	O64	0.448100	0.743800	0.183700
O651	O65	0.243800	0.183700	0.948100
O661	O66	0.243800	0.683700	0.448100
O671	O67	0.743800	0.183700	0.448100
O681	O68	0.743800	0.683700	0.948100
O691	O69	0.756200	0.183700	0.051900
O701	O70	0.756200	0.683700	0.551900
O711	O71	0.256200	0.183700	0.551900
O721	O72	0.256200	0.683700	0.051900
O731	O73	0.756200	0.816300	0.948100
O741	O74	0.756200	0.316300	0.448100
O751	O75	0.256200	0.816300	0.448100
O761	O76	0.256200	0.316300	0.948100
O771	O77	0.243800	0.816300	0.051900
O781	O78	0.243800	0.316300	0.551900
O791	O79	0.743800	0.816300	0.551900
O801	O80	0.743800	0.316300	0.051900
O811	O81	0.183700	0.051900	0.756200
O821	O82	0.183700	0.551900	0.256200
O831	O83	0.683700	0.051900	0.256200
O841	O84	0.683700	0.551900	0.756200
O851	O85	0.183700	0.948100	0.243800
O861	O86	0.183700	0.448100	0.743800
O871	O87	0.683700	0.948100	0.743800
O881	O88	0.683700	0.448100	0.243800
O891	O89	0.816300	0.051900	0.243800
O901	O90	0.816300	0.551900	0.743800
O911	O91	0.316300	0.051900	0.743800
O921	O92	0.316300	0.551900	0.243800
O931	O93	0.816300	0.948100	0.756200
O941	O94	0.816300	0.448100	0.256200
O951	O95	0.316300	0.948100	0.256200
O961	O96	0.316300	0.448100	0.756200
O971	O97	0.756200	0.948100	0.816300
O981	O98	0.756200	0.448100	0.316300
O991	O99	0.256200	0.948100	0.316300
O1001	O100	0.256200	0.448100	0.816300
O1011	O101	0.243800	0.051900	0.816300
O1021	O102	0.243800	0.551900	0.316300
O1031	O103	0.743800	0.051900	0.316300
O1041	O104	0.743800	0.551900	0.816300
O1051	O105	0.243800	0.948100	0.183700
O1061	O106	0.243800	0.448100	0.683700
O1071	O107	0.743800	0.948100	0.683700
O1081	O108	0.743800	0.448100	0.183700
O1091	O109	0.756200	0.051900	0.183700
O1101	O110	0.756200	0.551900	0.683700
O1111	O111	0.256200	0.051900	0.683700
O1121	O112	0.256200	0.551900	0.183700
O1131	O113	0.816300	0.756200	0.948100
O1141	O114	0.816300	0.256200	0.448100
O1151	O115	0.316300	0.756200	0.448100
O1161	O116	0.316300	0.256200	0.948100
O1171	O117	0.816300	0.243800	0.051900
O1181	O118	0.816300	0.743800	0.551900
O1191	O119	0.316300	0.243800	0.551900
O1201	O120	0.316300	0.743800	0.051900
O1211	O121	0.183700	0.243800	0.948100
O1221	O122	0.183700	0.743800	0.448100
O1231	O123	0.683700	0.243800	0.448100
O1241	O124	0.683700	0.743800	0.948100
O1251	O125	0.183700	0.756200	0.051900
O1261	O126	0.183700	0.256200	0.551900
O1271	O127	0.683700	0.756200	0.551900
O1281	O128	0.683700	0.256200	0.051900
O1291	O129	0.948100	0.816300	0.756200
O1301	O130	0.948100	0.316300	0.256200
O1311	O131	0.448100	0.816300	0.256200
O1321	O132	0.448100	0.316300	0.756200
O1331	O133	0.051900	0.816300	0.243800
O1341	O134	0.051900	0.316300	0.743800
O1351	O135	0.551900	0.816300	0.743800
O1361	O136	0.551900	0.316300	0.243800
O1371	O137	0.948100	0.183700	0.243800
O1381	O138	0.948100	0.683700	0.743800
O1391	O139	0.448100	0.183700	0.743800
O1401	O140	0.448100	0.683700	0.243800
O1411	O141	0.051900	0.183700	0.756200
O1421	O142	0.051900	0.683700	0.256200
O1431	O143	0.551900	0.183700	0.256200
O1441	O144	0.551900	0.683700	0.756200
O1451	O145	0.948100	0.756200	0.183700
O1461	O146	0.948100	0.256200	0.683700
O1471	O147	0.448100	0.756200	0.683700
O1481	O148	0.448100	0.256200	0.183700
O1491	O149	0.051900	0.243800	0.183700
O1501	O150	0.051900	0.743800	0.683700
O1511	O151	0.551900	0.243800	0.683700
O1521	O152	0.551900	0.743800	0.183700
O1531	O153	0.948100	0.243800	0.816300
O1541	O154	0.948100	0.743800	0.316300
O1551	O155	0.448100	0.243800	0.316300
O1561	O156	0.448100	0.743800	0.816300
O1571	O157	0.051900	0.756200	0.816300
O1581	O158	0.051900	0.256200	0.316300
O1591	O159	0.551900	0.756200	0.316300
O1601	O160	0.551900	0.256200	0.816300
O1611	O161	0.756200	0.816300	0.051900
O1621	O162	0.756200	0.316300	0.551900
O1631	O163	0.256200	0.816300	0.551900
O1641	O164	0.256200	0.316300	0.051900
O1651	O165	0.243800	0.816300	0.948100
O1661	O166	0.243800	0.316300	0.448100
O1671	O167	0.743800	0.816300	0.448100
O1681	O168	0.743800	0.316300	0.948100
O1691	O169	0.243800	0.183700	0.051900
O1701	O170	0.243800	0.683700	0.551900
O1711	O171	0.743800	0.183700	0.551900
O1721	O172	0.743800	0.683700	0.051900
O1731	O173	0.756200	0.183700	0.948100
O1741	O174	0.756200	0.683700	0.448100
O1751	O175	0.256200	0.183700	0.448100
O1761	O176	0.256200	0.683700	0.948100
O1771	O177	0.816300	0.948100	0.243800
O1781	O178	0.816300	0.448100	0.743800
O1791	O179	0.316300	0.948100	0.743800
O1801	O180	0.316300	0.448100	0.243800
O1811	O181	0.816300	0.051900	0.756200
O1821	O182	0.816300	0.551900	0.256200
O1831	O183	0.316300	0.051900	0.256200
O1841	O184	0.316300	0.551900	0.756200
O1851	O185	0.183700	0.948100	0.756200
O1861	O186	0.183700	0.448100	0.256200
O1871	O187	0.683700	0.948100	0.256200
O1881	O188	0.683700	0.448100	0.756200
O1891	O189	0.183700	0.051900	0.243800
O1901	O190	0.183700	0.551900	0.743800
O1911	O191	0.683700	0.051900	0.743800
O1921	O192	0.683700	0.551900	0.243800
Cu11	Cu1	0.285200	0.000000	0.214800
Cu21	Cu2	0.285200	0.500000	0.714800
Cu31	Cu3	0.714800	0.000000	0.214800
Cu41	Cu4	0.714800	0.500000	0.714800
Cu51	Cu5	0.214800	0.500000	0.214800
Cu61	Cu6	0.714800	0.000000	0.785210
Cu71	Cu7	0.714800	0.500000	0.285200
Cu81	Cu8	0.214800	0.000000	0.285200
Cu91	Cu9	0.285200	0.000000	0.785210
Cu101	Cu10	0.285200	0.500000	0.285200
Cu111	Cu11	0.214800	0.285200	0.000000
Cu121	Cu12	0.214800	0.785210	0.500000
Cu131	Cu13	0.214800	0.714800	0.000000
Cu141	Cu14	0.214800	0.214800	0.500000
Cu151	Cu15	0.785210	0.714800	0.000000
Cu161	Cu16	0.785210	0.214800	0.500000
Cu171	Cu17	0.285200	0.214800	0.000000
Cu181	Cu18	0.785210	0.285200	0.000000
Cu191	Cu19	0.785210	0.785210	0.500000
Cu201	Cu20	0.285200	0.285200	0.500000
Cu211	Cu21	0.000000	0.214800	0.285200
Cu221	Cu22	0.500000	0.214800	0.785210
Cu231	Cu23	0.000000	0.214800	0.714800
Cu241	Cu24	0.500000	0.214800	0.214800
Cu251	Cu25	0.000000	0.785210	0.714800
Cu261	Cu26	0.000000	0.285200	0.214800
Cu271	Cu27	0.500000	0.785210	0.214800
Cu281	Cu28	0.000000	0.785210	0.285200
Cu291	Cu29	0.500000	0.785210	0.785210
Cu301	Cu30	0.500000	0.285200	0.285200
Cu311	Cu31	0.000000	0.285200	0.785210
Cu321	Cu32	0.000000	0.714800	0.785210
Cu331	Cu33	0.500000	0.714800	0.285200
Cu341	Cu34	0.000000	0.714800	0.214800
Cu351	Cu35	0.500000	0.714800	0.714800
Cu361	Cu36	0.500000	0.285200	0.714800
Cu371	Cu37	0.285200	0.714800	0.500000
Cu381	Cu38	0.714800	0.214800	0.000000
Cu391	Cu39	0.714800	0.714800	0.500000
Cu401	Cu40	0.714800	0.785210	0.000000
Cu411	Cu41	0.714800	0.285200	0.500000
Cu421	Cu42	0.285200	0.785210	0.000000
Cu431	Cu43	0.214800	0.000000	0.714800
Cu441	Cu44	0.214800	0.500000	0.785210
Cu451	Cu45	0.785210	0.000000	0.285200
Cu461	Cu46	0.785210	0.500000	0.785210
Cu471	Cu47	0.785210	0.000000	0.714800
Cu481	Cu48	0.785210	0.500000	0.214800
C11	C1	0.198600	0.133800	0.133800
C21	C2	0.198600	0.633800	0.633800
C31	C3	0.698600	0.133800	0.633800
C41	C4	0.698600	0.633800	0.133800
C51	C5	0.801400	0.866200	0.133800
C61	C6	0.801400	0.366200	0.633800
C71	C7	0.301400	0.866200	0.633800
C81	C8	0.301400	0.366200	0.133800
C91	C9	0.801400	0.133800	0.866200
C101	C10	0.801400	0.633800	0.366200
C111	C11	0.301400	0.133800	0.366200
C121	C12	0.301400	0.633800	0.866200
C131	C13	0.198600	0.866200	0.866200
C141	C14	0.198600	0.366200	0.366200
C151	C15	0.698600	0.866200	0.366200
C161	C16	0.698600	0.366200	0.866200
C171	C17	0.133800	0.198600	0.133800
C181	C18	0.133800	0.698600	0.633800
C191	C19	0.633800	0.198600	0.633800
C201	C20	0.633800	0.698600	0.133800
C211	C21	0.133800	0.801400	0.866200
C221	C22	0.133800	0.301400	0.366200
C231	C23	0.633800	0.801400	0.366200
C241	C24	0.633800	0.301400	0.866200
C251	C25	0.866200	0.801400	0.133800
C261	C26	0.866200	0.301400	0.633800
C271	C27	0.366200	0.801400	0.633800
C281	C28	0.366200	0.301400	0.133800
C291	C29	0.866200	0.198600	0.866200
C301	C30	0.866200	0.698600	0.366200
C311	C31	0.366200	0.198600	0.366200
C321	C32	0.366200	0.698600	0.866200
C331	C33	0.133800	0.133800	0.198600
C341	C34	0.133800	0.633800	0.698600
C351	C35	0.633800	0.133800	0.698600
C361	C36	0.633800	0.633800	0.198600
C371	C37	0.866200	0.133800	0.801400
C381	C38	0.866200	0.633800	0.301400
C391	C39	0.366200	0.133800	0.301400
C401	C40	0.366200	0.633800	0.801400
C411	C41	0.133800	0.866200	0.801400
C421	C42	0.133800	0.366200	0.301400
C431	C43	0.633800	0.866200	0.301400
C441	C44	0.633800	0.366200	0.801400
C451	C45	0.866200	0.866200	0.198600
C461	C46	0.866200	0.366200	0.698600
C471	C47	0.366200	0.866200	0.698600
C481	C48	0.366200	0.366200	0.198600
C491	C49	0.133800	0.198600	0.866200
C501	C50	0.133800	0.698600	0.366200
C511	C51	0.633800	0.198600	0.366200
C521	C52	0.633800	0.698600	0.866200
C531	C53	0.866200	0.801400	0.866200
C541	C54	0.866200	0.301400	0.366200
C551	C55	0.366200	0.801400	0.366200
C561	C56	0.366200	0.301400	0.866200
C571	C57	0.133800	0.801400	0.133800
C581	C58	0.133800	0.301400	0.633800
C591	C59	0.633800	0.801400	0.633800
C601	C60	0.633800	0.301400	0.133800
C611	C61	0.866200	0.198600	0.133800
C621	C62	0.866200	0.698600	0.633800
C631	C63	0.366200	0.198600	0.633800
C641	C64	0.366200	0.698600	0.133800
C651	C65	0.198600	0.133800	0.866200
C661	C66	0.198600	0.633800	0.366200
C671	C67	0.698600	0.133800	0.366200
C681	C68	0.698600	0.633800	0.866200
C691	C69	0.801400	0.133800	0.133800
C701	C70	0.801400	0.633800	0.633800
C711	C71	0.301400	0.133800	0.633800
C721	C72	0.301400	0.633800	0.133800
C731	C73	0.801400	0.866200	0.866200
C741	C74	0.801400	0.366200	0.366200
C751	C75	0.301400	0.866200	0.366200
C761	C76	0.301400	0.366200	0.866200
C771	C77	0.198600	0.866200	0.133800
C781	C78	0.198600	0.366200	0.633800
C791	C79	0.698600	0.866200	0.633800
C801	C80	0.698600	0.366200	0.133800
C811	C81	0.133800	0.133800	0.801400
C821	C82	0.133800	0.633800	0.301400
C831	C83	0.633800	0.133800	0.301400
C841	C84	0.633800	0.633800	0.801400
C851	C85	0.133800	0.866200	0.198600
C861	C86	0.133800	0.366200	0.698600
C871	C87	0.633800	0.866200	0.698600
C881	C88	0.633800	0.366200	0.198600
C891	C89	0.866200	0.133800	0.198600
C901	C90	0.866200	0.633800	0.698600
C911	C91	0.366200	0.133800	0.698600
C921	C92	0.366200	0.633800	0.198600
C931	C93	0.866200	0.866200	0.801400
C941	C94	0.866200	0.366200	0.301400
C951	C95	0.366200	0.866200	0.301400
C961	C96	0.366200	0.366200	0.801400
C971	C97	0.203800	0.068000	0.203800
C981	C98	0.176800	0.110900	0.176800
C991	C99	0.203800	0.568000	0.703800
C1001	C100	0.176800	0.610900	0.676800
C1011	C101	0.703800	0.068000	0.703800
C1021	C102	0.676800	0.110900	0.676800
C1031	C103	0.703800	0.568000	0.203800
C1041	C104	0.676800	0.610900	0.176800
C1051	C105	0.796200	0.932000	0.203800
C1061	C106	0.823200	0.889100	0.176800
C1071	C107	0.796200	0.432000	0.703800
C1081	C108	0.823200	0.389100	0.676800
C1091	C109	0.296200	0.932000	0.703800
C1101	C110	0.323200	0.889100	0.676800
C1111	C111	0.296200	0.432000	0.203800
C1121	C112	0.323200	0.389100	0.176800
C1131	C113	0.796200	0.068000	0.796200
C1141	C114	0.823200	0.110900	0.823200
C1151	C115	0.796200	0.568000	0.296200
C1161	C116	0.823200	0.610900	0.323200
C1171	C117	0.296200	0.068000	0.296200
C1181	C118	0.323200	0.110900	0.323200
C1191	C119	0.296200	0.568000	0.796200
C1201	C120	0.323200	0.610900	0.823200
C1211	C121	0.203800	0.932000	0.796200
C1221	C122	0.176800	0.889100	0.823200
C1231	C123	0.203800	0.432000	0.296200
C1241	C124	0.176800	0.389100	0.323200
C1251	C125	0.703800	0.932000	0.296200
C1261	C126	0.676800	0.889100	0.323200
C1271	C127	0.703800	0.432000	0.796200
C1281	C128	0.676800	0.389100	0.823200
C1291	C129	0.203800	0.203800	0.068000
C1301	C130	0.176800	0.176800	0.110900
C1311	C131	0.203800	0.703800	0.568000
C1321	C132	0.176800	0.676800	0.610900
C1331	C133	0.703800	0.203800	0.568000
C1341	C134	0.676800	0.176800	0.610900
C1351	C135	0.703800	0.703800	0.068000
C1361	C136	0.676800	0.676800	0.110900
C1371	C137	0.203800	0.796200	0.932000
C1381	C138	0.176800	0.823200	0.889100
C1391	C139	0.203800	0.296200	0.432000
C1401	C140	0.176800	0.323200	0.389100
C1411	C141	0.703800	0.796200	0.432000
C1421	C142	0.676800	0.823200	0.389100
C1431	C143	0.703800	0.296200	0.932000
C1441	C144	0.676800	0.323200	0.889100
C1451	C145	0.796200	0.796200	0.068000
C1461	C146	0.823200	0.823200	0.110900
C1471	C147	0.796200	0.296200	0.568000
C1481	C148	0.823200	0.323200	0.610900
C1491	C149	0.296200	0.796200	0.568000
C1501	C150	0.323200	0.823200	0.610900
C1511	C151	0.296200	0.296200	0.068000
C1521	C152	0.323200	0.323200	0.110900
C1531	C153	0.796200	0.203800	0.932000
C1541	C154	0.823200	0.176800	0.889100
C1551	C155	0.796200	0.703800	0.432000
C1561	C156	0.823200	0.676800	0.389100
C1571	C157	0.296200	0.203800	0.432000
C1581	C158	0.323200	0.176800	0.389100
C1591	C159	0.296200	0.703800	0.932000
C1601	C160	0.323200	0.676800	0.889100
C1611	C161	0.068000	0.203800	0.203800
C1621	C162	0.110900	0.176800	0.176800
C1631	C163	0.068000	0.703800	0.703800
C1641	C164	0.110900	0.676800	0.676800
C1651	C165	0.568000	0.203800	0.703800
C1661	C166	0.610900	0.176800	0.676800
C1671	C167	0.568000	0.703800	0.203800
C1681	C168	0.610900	0.676800	0.176800
C1691	C169	0.932000	0.203800	0.796200
C1701	C170	0.889100	0.176800	0.823200
C1711	C171	0.932000	0.703800	0.296200
C1721	C172	0.889100	0.676800	0.323200
C1731	C173	0.432000	0.203800	0.296200
C1741	C174	0.389100	0.176800	0.323200
C1751	C175	0.432000	0.703800	0.796200
C1761	C176	0.389100	0.676800	0.823200
C1771	C177	0.068000	0.796200	0.796200
C1781	C178	0.110900	0.823200	0.823200
C1791	C179	0.068000	0.296200	0.296200
C1801	C180	0.110900	0.323200	0.323200
C1811	C181	0.568000	0.796200	0.296200
C1821	C182	0.610900	0.823200	0.323200
C1831	C183	0.568000	0.296200	0.796200
C1841	C184	0.610900	0.323200	0.823200
C1851	C185	0.932000	0.796200	0.203800
C1861	C186	0.889100	0.823200	0.176800
C1871	C187	0.932000	0.296200	0.703800
C1881	C188	0.889100	0.323200	0.676800
C1891	C189	0.432000	0.796200	0.703800
C1901	C190	0.389100	0.823200	0.676800
C1911	C191	0.432000	0.296200	0.203800
C1921	C192	0.389100	0.323200	0.176800
C1931	C193	0.068000	0.203800	0.796200
C1941	C194	0.110900	0.176800	0.823200
C1951	C195	0.068000	0.703800	0.296200
C1961	C196	0.110900	0.676800	0.323200
C1971	C197	0.568000	0.203800	0.296200
C1981	C198	0.610900	0.176800	0.323200
C1991	C199	0.568000	0.703800	0.796200
C2001	C200	0.610900	0.676800	0.823200
C2011	C201	0.932000	0.796200	0.796200
C2021	C202	0.889100	0.823200	0.823200
C2031	C203	0.932000	0.296200	0.296200
C2041	C204	0.889100	0.323200	0.323200
C2051	C205	0.432000	0.796200	0.296200
C2061	C206	0.389100	0.823200	0.323200
C2071	C207	0.432000	0.296200	0.796200
C2081	C208	0.389100	0.323200	0.823200
C2091	C209	0.068000	0.796200	0.203800
C2101	C210	0.110900	0.823200	0.176800
C2111	C211	0.068000	0.296200	0.703800
C2121	C212	0.110900	0.323200	0.676800
C2131	C213	0.568000	0.796200	0.703800
C2141	C214	0.610900	0.823200	0.676800
C2151	C215	0.568000	0.296200	0.203800
C2161	C216	0.610900	0.323200	0.176800
C2171	C217	0.932000	0.203800	0.203800
C2181	C218	0.889100	0.176800	0.176800
C2191	C219	0.932000	0.703800	0.703800
C2201	C220	0.889100	0.676800	0.676800
C2211	C221	0.432000	0.203800	0.703800
C2221	C222	0.389100	0.176800	0.676800
C2231	C223	0.432000	0.703800	0.203800
C2241	C224	0.389100	0.676800	0.176800
C2251	C225	0.203800	0.203800	0.932000
C2261	C226	0.176800	0.176800	0.889100
C2271	C227	0.203800	0.703800	0.432000
C2281	C228	0.176800	0.676800	0.389100
C2291	C229	0.703800	0.203800	0.432000
C2301	C230	0.676800	0.176800	0.389100
C2311	C231	0.703800	0.703800	0.932000
C2321	C232	0.676800	0.676800	0.889100
C2331	C233	0.796200	0.203800	0.068000
C2341	C234	0.823200	0.176800	0.110900
C2351	C235	0.796200	0.703800	0.568000
C2361	C236	0.823200	0.676800	0.610900
C2371	C237	0.296200	0.203800	0.568000
C2381	C238	0.323200	0.176800	0.610900
C2391	C239	0.296200	0.703800	0.068000
C2401	C240	0.323200	0.676800	0.110900
C2411	C241	0.796200	0.796200	0.932000
C2421	C242	0.823200	0.823200	0.889100
C2431	C243	0.796200	0.296200	0.432000
C2441	C244	0.823200	0.323200	0.389100
C2451	C245	0.296200	0.796200	0.432000
C2461	C246	0.323200	0.823200	0.389100
C2471	C247	0.296200	0.296200	0.932000
C2481	C248	0.323200	0.323200	0.889100
C2491	C249	0.203800	0.796200	0.068000
C2501	C250	0.176800	0.823200	0.110900
C2511	C251	0.203800	0.296200	0.568000
C2521	C252	0.176800	0.323200	0.610900
C2531	C253	0.703800	0.796200	0.568000
C2541	C254	0.676800	0.823200	0.610900
C2551	C255	0.703800	0.296200	0.068000
C2561	C256	0.676800	0.323200	0.110900
C2571	C257	0.203800	0.068000	0.796200
C2581	C258	0.176800	0.110900	0.823200
C2591	C259	0.203800	0.568000	0.296200
C2601	C260	0.176800	0.610900	0.323200
C2611	C261	0.703800	0.068000	0.296200
C2621	C262	0.676800	0.110900	0.323200
C2631	C263	0.703800	0.568000	0.796200
C2641	C264	0.676800	0.610900	0.823200
C2651	C265	0.203800	0.932000	0.203800
C2661	C266	0.176800	0.889100	0.176800
C2671	C267	0.203800	0.432000	0.703800
C2681	C268	0.176800	0.389100	0.676800
C2691	C269	0.703800	0.932000	0.703800
C2701	C270	0.676800	0.889100	0.676800
C2711	C271	0.703800	0.432000	0.203800
C2721	C272	0.676800	0.389100	0.176800
C2731	C273	0.796200	0.068000	0.203800
C2741	C274	0.823200	0.110900	0.176800
C2751	C275	0.796200	0.568000	0.703800
C2761	C276	0.823200	0.610900	0.676800
C2771	C277	0.296200	0.068000	0.703800
C2781	C278	0.323200	0.110900	0.676800
C2791	C279	0.296200	0.568000	0.203800
C2801	C280	0.323200	0.610900	0.176800
C2811	C281	0.796200	0.932000	0.796200
C2821	C282	0.823200	0.889100	0.823200
C2831	C283	0.796200	0.432000	0.296200
C2841	C284	0.823200	0.389100	0.323200
C2851	C285	0.296200	0.932000	0.296200
C2861	C286	0.323200	0.889100	0.323200
C2871	C287	0.296200	0.432000	0.796200
C2881	C288	0.323200	0.389100	0.823200
