data_IKOPEF_clean_PM
_symmetry_space_group_name_H-M	'P1'
_cell_length_a	12.429000
_cell_length_b	12.712000
_cell_length_c	15.821000
_cell_angle_alpha	98.159000
_cell_angle_beta	92.873000
_cell_angle_gamma	93.267000
_symmetry_Int_Tables_number 1

loop_
_symmetry_equiv_pos_as_xyz
'x,y,z'

loop_
_atom_site_label
_atom_site_type_symbol
_atom_site_fract_x
_atom_site_fract_y
_atom_site_fract_z
Cu11	Cu1	0.926230	0.072480	0.506290
Cu21	Cu2	0.849020	0.355860	0.071760
Cu31	Cu3	0.066620	0.509100	0.079500
Cu41	Cu4	0.464090	0.411770	0.067110
O11	O1	0.016500	0.123800	0.420800
O21	O2	0.147700	0.007400	0.411800
O31	O3	0.960200	0.314400	0.158200
O41	O4	0.114600	0.401500	0.144000
O51	O5	0.742600	0.287300	0.136000
O61	O6	0.611700	0.391000	0.107100
O71	O7	0.437100	0.357900	0.308900
O81	O8	0.422500	0.418200	0.183200
O91	O9	0.805600	0.523700	0.094600
O101	O10	0.956800	0.580700	0.173600
O111	O11	0.966700	0.867000	0.401800
O121	O12	0.837200	0.986000	0.412800
O131	O13	0.195100	0.599600	0.132500
O141	O14	0.251700	0.695600	0.032100
O151	O15	0.487900	0.595100	0.050800
O161	O16	0.527500	0.765800	0.042300
O171	O17	0.964700	0.400800	0.006800
H11	H1	0.003300	0.339500	0.982600
C11	C1	0.098800	0.085500	0.387800
C21	C2	0.143100	0.132700	0.317000
C31	C3	0.245400	0.112200	0.289100
H21	H2	0.284800	0.062200	0.312600
C41	C4	0.290700	0.166400	0.225300
C51	C5	0.227700	0.233800	0.187600
H31	H3	0.255700	0.268900	0.145000
C61	C6	0.121300	0.251700	0.211600
C71	C7	0.080800	0.205600	0.279100
H41	H4	0.013900	0.222400	0.299100
C81	C8	0.057600	0.328500	0.166600
C91	C9	0.397300	0.145000	0.191800
C101	C10	0.469200	0.232400	0.184400
C111	C11	0.567200	0.217100	0.145800
C121	C12	0.590300	0.112500	0.113300
H51	H5	0.652500	0.099200	0.084200
C131	C13	0.517700	0.029100	0.125900
H61	H6	0.534600	0.959400	0.107700
C141	C14	0.421600	0.046100	0.164300
H71	H7	0.374400	0.988800	0.170800
C151	C15	0.442700	0.342200	0.228800
C161	C16	0.641700	0.302800	0.126000
C171	C17	0.857500	0.584300	0.153600
C181	C18	0.801700	0.674800	0.202500
C191	C19	0.688800	0.679500	0.194800
H81	H8	0.647300	0.626400	0.159000
C201	C20	0.638700	0.762900	0.240300
C211	C21	0.700000	0.837600	0.296100
H91	H9	0.666700	0.894600	0.325100
C221	C22	0.812200	0.831000	0.310900
C231	C23	0.860100	0.749100	0.262400
H101	H10	0.934100	0.743800	0.270300
C241	C24	0.876900	0.903300	0.380600
C251	C25	0.517700	0.768100	0.238600
C261	C26	0.447200	0.727100	0.166800
C271	C27	0.333500	0.725000	0.177700
C281	C28	0.292200	0.771200	0.249600
H111	H11	0.217900	0.774100	0.252800
C291	C29	0.360000	0.813700	0.317700
H121	H12	0.331600	0.842600	0.368500
C301	C30	0.471000	0.814100	0.312100
H131	H13	0.515700	0.846000	0.358800
C311	C31	0.252400	0.667100	0.107700
C321	C32	0.490800	0.695200	0.081000
Cu51	Cu5	0.073770	0.927520	0.493710
Cu61	Cu6	0.150980	0.644140	0.928240
Cu71	Cu7	0.933380	0.490900	0.920500
Cu81	Cu8	0.535910	0.588230	0.932890
O181	O18	0.983500	0.876200	0.579200
O191	O19	0.852300	0.992600	0.588200
O201	O20	0.039800	0.685600	0.841800
O211	O21	0.885400	0.598500	0.856000
O221	O22	0.257400	0.712700	0.864000
O231	O23	0.388300	0.609000	0.892900
O241	O24	0.562900	0.642100	0.691100
O251	O25	0.577500	0.581800	0.816800
O261	O26	0.194400	0.476300	0.905400
O271	O27	0.043200	0.419300	0.826400
O281	O28	0.033300	0.133000	0.598200
O291	O29	0.162800	0.014000	0.587200
O301	O30	0.804900	0.400400	0.867500
O311	O31	0.748300	0.304400	0.967900
O321	O32	0.512100	0.404900	0.949200
O331	O33	0.472500	0.234200	0.957700
O341	O34	0.035300	0.599200	0.993200
H141	H14	0.996700	0.660500	0.017400
C331	C33	0.901200	0.914500	0.612200
C341	C34	0.856900	0.867300	0.683000
C351	C35	0.754600	0.887800	0.710900
H151	H15	0.715200	0.937800	0.687400
C361	C36	0.709300	0.833600	0.774700
C371	C37	0.772300	0.766200	0.812400
H161	H16	0.744300	0.731100	0.855000
C381	C38	0.878700	0.748300	0.788400
C391	C39	0.919200	0.794400	0.720900
H171	H17	0.986100	0.777600	0.700900
C401	C40	0.942400	0.671500	0.833400
C411	C41	0.602700	0.855000	0.808200
C421	C42	0.530800	0.767600	0.815600
C431	C43	0.432800	0.782900	0.854200
C441	C44	0.409700	0.887500	0.886700
H181	H18	0.347500	0.900800	0.915800
C451	C45	0.482300	0.970900	0.874100
H191	H19	0.465400	0.040600	0.892300
C461	C46	0.578400	0.953900	0.835700
H201	H20	0.625600	0.011200	0.829200
C471	C47	0.557300	0.657800	0.771200
C481	C48	0.358300	0.697200	0.874000
C491	C49	0.142500	0.415700	0.846400
C501	C50	0.198300	0.325200	0.797500
C511	C51	0.311200	0.320500	0.805200
H211	H21	0.352700	0.373600	0.841000
C521	C52	0.361300	0.237100	0.759700
C531	C53	0.300000	0.162400	0.703900
H221	H22	0.333300	0.105400	0.674900
C541	C54	0.187800	0.169000	0.689100
C551	C55	0.139900	0.250900	0.737600
H231	H23	0.065900	0.256200	0.729700
C561	C56	0.123100	0.096700	0.619400
C571	C57	0.482300	0.231900	0.761400
C581	C58	0.552800	0.272900	0.833200
C591	C59	0.666500	0.275000	0.822300
C601	C60	0.707800	0.228800	0.750400
H241	H24	0.782100	0.225900	0.747200
C611	C61	0.640000	0.186300	0.682300
H251	H25	0.668400	0.157400	0.631500
C621	C62	0.529000	0.185900	0.687900
H261	H26	0.484300	0.154000	0.641200
C631	C63	0.747600	0.332900	0.892300
C641	C64	0.509200	0.304800	0.919000
