data_IKOTUZ_clean_PM
_symmetry_space_group_name_H-M	'P1'
_cell_length_a	48.832000
_cell_length_b	48.832000
_cell_length_c	8.483400
_cell_angle_alpha	90.000000
_cell_angle_beta	90.000000
_cell_angle_gamma	120.000000
_symmetry_Int_Tables_number 1

loop_
_symmetry_equiv_pos_as_xyz
'x,y,z'

loop_
_atom_site_label
_atom_site_type_symbol
_atom_site_fract_x
_atom_site_fract_y
_atom_site_fract_z
K11	K1	0.408240	0.914040	0.237400
Sm11	Sm1	0.486130	0.991750	0.548660
S11	S1	0.424630	0.909990	0.605250
S21	S2	0.243650	0.918470	0.768220
O11	O1	0.466160	0.972070	0.810300
O21	O2	0.447500	0.956550	0.048500
O31	O3	0.444620	0.937760	0.506900
O41	O4	0.404000	0.883090	0.506300
O51	O5	0.442370	0.904000	0.720700
O61	O6	0.212210	0.852860	0.382300
O71	O7	0.193610	0.850850	0.620200
O81	O8	0.227890	0.923220	0.637100
O91	O9	0.221630	0.895500	0.882900
O101	O10	0.267550	0.947250	0.844100
C11	C1	0.409650	0.939630	0.842700
C21	C2	0.399150	0.919600	0.713300
C31	C3	0.368120	0.906540	0.663300
H11	H1	0.361600	0.894100	0.573000
C41	C4	0.346260	0.911870	0.747100
C51	C5	0.356650	0.929920	0.879400
H21	H2	0.342500	0.932900	0.939600
C61	C6	0.387970	0.943920	0.926400
H31	H3	0.394500	0.956500	0.016400
C71	C7	0.442870	0.956600	0.905100
C81	C8	0.313220	0.898410	0.688700
C91	C9	0.298680	0.872410	0.591800
H41	H4	0.309700	0.862200	0.562200
C101	C10	0.268360	0.861070	0.537400
H51	H5	0.260000	0.844600	0.464600
C111	C11	0.250190	0.873520	0.588500
C121	C12	0.263580	0.899110	0.689100
C131	C13	0.295550	0.912270	0.734600
H61	H6	0.304900	0.930500	0.796100
C141	C14	0.216600	0.858630	0.527700
K21	K2	0.074910	0.247370	0.570730
Sm21	Sm2	0.152800	0.325080	0.881990
S31	S3	0.091300	0.243320	0.938580
S41	S4	0.910320	0.251800	0.101550
O111	O11	0.132830	0.305400	0.143630
O121	O12	0.114170	0.289880	0.381830
O131	O13	0.111290	0.271090	0.840230
O141	O14	0.070670	0.216420	0.839630
O151	O15	0.109040	0.237330	0.054030
O161	O16	0.878880	0.186190	0.715630
O171	O17	0.860280	0.184180	0.953530
O181	O18	0.894560	0.256550	0.970430
O191	O19	0.888300	0.228830	0.216230
O201	O20	0.934220	0.280580	0.177430
C151	C15	0.076320	0.272960	0.176030
C161	C16	0.065820	0.252930	0.046630
C171	C17	0.034790	0.239870	0.996630
H71	H7	0.028270	0.227430	0.906330
C181	C18	0.012930	0.245200	0.080430
C191	C19	0.023320	0.263250	0.212730
H81	H8	0.009170	0.266230	0.272930
C201	C20	0.054640	0.277250	0.259730
H91	H9	0.061170	0.289830	0.349730
C211	C21	0.109540	0.289930	0.238430
C221	C22	0.979890	0.231740	0.022030
C231	C23	0.965350	0.205740	0.925130
H101	H10	0.976370	0.195530	0.895530
C241	C24	0.935030	0.194400	0.870730
H111	H11	0.926670	0.177930	0.797930
C251	C25	0.916860	0.206850	0.921830
C261	C26	0.930250	0.232440	0.022430
C271	C27	0.962220	0.245600	0.067930
H121	H12	0.971570	0.263830	0.129430
C281	C28	0.883270	0.191960	0.861030
K31	K3	0.741570	0.580710	0.904070
Sm31	Sm3	0.819460	0.658420	0.215330
S51	S5	0.757960	0.576660	0.271920
S61	S6	0.576980	0.585140	0.434890
O211	O21	0.799490	0.638740	0.476970
O221	O22	0.780830	0.623220	0.715170
O231	O23	0.777950	0.604430	0.173570
O241	O24	0.737330	0.549760	0.172970
O251	O25	0.775700	0.570670	0.387370
O261	O26	0.545540	0.519530	0.048970
O271	O27	0.526940	0.517520	0.286870
O281	O28	0.561220	0.589890	0.303770
O291	O29	0.554960	0.562170	0.549570
O301	O30	0.600880	0.613920	0.510770
C291	C29	0.742980	0.606300	0.509370
C301	C30	0.732480	0.586270	0.379970
C311	C31	0.701450	0.573210	0.329970
H131	H13	0.694930	0.560770	0.239670
C321	C32	0.679590	0.578540	0.413770
C331	C33	0.689980	0.596590	0.546070
H141	H14	0.675830	0.599570	0.606270
C341	C34	0.721300	0.610590	0.593070
H151	H15	0.727830	0.623170	0.683070
C351	C35	0.776200	0.623270	0.571770
C361	C36	0.646550	0.565080	0.355370
C371	C37	0.632010	0.539080	0.258470
H161	H16	0.643030	0.528870	0.228870
C381	C38	0.601690	0.527740	0.204070
H171	H17	0.593330	0.511270	0.131270
C391	C39	0.583520	0.540190	0.255170
C401	C40	0.596910	0.565780	0.355770
C411	C41	0.628880	0.578940	0.401270
H181	H18	0.638230	0.597170	0.462770
C421	C42	0.549930	0.525300	0.194370
K41	K4	0.085960	0.494200	0.237400
Sm41	Sm4	0.008250	0.494380	0.548660
S71	S7	0.090010	0.514640	0.605250
S81	S8	0.081530	0.325180	0.768220
O311	O31	0.027930	0.494090	0.810300
O321	O32	0.043450	0.490950	0.048500
O331	O33	0.062240	0.506860	0.506900
O341	O34	0.116910	0.520910	0.506300
O351	O35	0.096000	0.538370	0.720700
O361	O36	0.147140	0.359350	0.382300
O371	O37	0.149150	0.342760	0.620200
O381	O38	0.076780	0.304670	0.637100
O391	O39	0.104500	0.326130	0.882900
O401	O40	0.052750	0.320300	0.844100
C431	C43	0.060370	0.470020	0.842700
C441	C44	0.080400	0.479550	0.713300
C451	C45	0.093460	0.461580	0.663300
H191	H19	0.105900	0.467500	0.573000
C461	C46	0.088130	0.434390	0.747100
C471	C47	0.070080	0.426730	0.879400
H201	H20	0.067100	0.409600	0.939600
C481	C48	0.056080	0.444050	0.926400
H211	H21	0.043500	0.438000	0.016400
C491	C49	0.043400	0.486270	0.905100
C501	C50	0.101590	0.414810	0.688700
C511	C51	0.127590	0.426270	0.591800
H221	H22	0.137800	0.447500	0.562200
C521	C52	0.138930	0.407290	0.537400
H231	H23	0.155400	0.415400	0.464600
C531	C53	0.126480	0.376670	0.588500
C541	C54	0.100890	0.364470	0.689100
C551	C55	0.087730	0.383280	0.734600
H241	H24	0.069500	0.374400	0.796100
C561	C56	0.141370	0.357970	0.527700
K51	K5	0.752630	0.827530	0.570730
Sm51	Sm5	0.674920	0.827710	0.881990
S91	S9	0.756680	0.847970	0.938580
S101	S10	0.748200	0.658510	0.101550
O411	O41	0.694600	0.827420	0.143630
O421	O42	0.710120	0.824280	0.381830
O431	O43	0.728910	0.840190	0.840230
O441	O44	0.783580	0.854240	0.839630
O451	O45	0.762670	0.871700	0.054030
O461	O46	0.813810	0.692680	0.715630
O471	O47	0.815820	0.676090	0.953530
O481	O48	0.743450	0.638000	0.970430
O491	O49	0.771170	0.659460	0.216230
O501	O50	0.719420	0.653630	0.177430
C571	C57	0.727040	0.803350	0.176030
C581	C58	0.747070	0.812880	0.046630
C591	C59	0.760130	0.794910	0.996630
H251	H25	0.772570	0.800830	0.906330
C601	C60	0.754800	0.767720	0.080430
C611	C61	0.736750	0.760060	0.212730
H261	H26	0.733770	0.742930	0.272930
C621	C62	0.722750	0.777380	0.259730
H271	H27	0.710170	0.771330	0.349730
C631	C63	0.710070	0.819600	0.238430
C641	C64	0.768260	0.748140	0.022030
C651	C65	0.794260	0.759600	0.925130
H281	H28	0.804470	0.780830	0.895530
C661	C66	0.805600	0.740620	0.870730
H291	H29	0.822070	0.748730	0.797930
C671	C67	0.793150	0.710000	0.921830
C681	C68	0.767560	0.697800	0.022430
C691	C69	0.754400	0.716610	0.067930
H301	H30	0.736170	0.707730	0.129430
C701	C70	0.808040	0.691300	0.861030
K61	K6	0.419290	0.160870	0.904070
Sm61	Sm6	0.341580	0.161050	0.215330
S111	S11	0.423340	0.181310	0.271920
S121	S12	0.414860	0.991850	0.434890
O511	O51	0.361260	0.160760	0.476970
O521	O52	0.376780	0.157620	0.715170
O531	O53	0.395570	0.173530	0.173570
O541	O54	0.450240	0.187580	0.172970
O551	O55	0.429330	0.205040	0.387370
O561	O56	0.480470	0.026020	0.048970
O571	O57	0.482480	0.009430	0.286870
O581	O58	0.410110	0.971340	0.303770
O591	O59	0.437830	0.992800	0.549570
O601	O60	0.386080	0.986970	0.510770
C711	C71	0.393700	0.136690	0.509370
C721	C72	0.413730	0.146220	0.379970
C731	C73	0.426790	0.128250	0.329970
H311	H31	0.439230	0.134170	0.239670
C741	C74	0.421460	0.101060	0.413770
C751	C75	0.403410	0.093400	0.546070
H321	H32	0.400430	0.076270	0.606270
C761	C76	0.389410	0.110720	0.593070
H331	H33	0.376830	0.104670	0.683070
C771	C77	0.376730	0.152940	0.571770
C781	C78	0.434920	0.081480	0.355370
C791	C79	0.460920	0.092940	0.258470
H341	H34	0.471130	0.114170	0.228870
C801	C80	0.472260	0.073960	0.204070
H351	H35	0.488730	0.082070	0.131270
C811	C81	0.459810	0.043340	0.255170
C821	C82	0.434220	0.031140	0.355770
C831	C83	0.421060	0.049950	0.401270
H361	H36	0.402830	0.041070	0.462770
C841	C84	0.474700	0.024640	0.194370
K71	K7	0.505800	0.591760	0.237400
Sm71	Sm7	0.505620	0.513870	0.548660
S131	S13	0.485360	0.575370	0.605250
S141	S14	0.674820	0.756350	0.768220
O611	O61	0.505910	0.533840	0.810300
O621	O62	0.509050	0.552500	0.048500
O631	O63	0.493140	0.555380	0.506900
O641	O64	0.479090	0.596000	0.506300
O651	O65	0.461630	0.557630	0.720700
O661	O66	0.640650	0.787790	0.382300
O671	O67	0.657240	0.806390	0.620200
O681	O68	0.695330	0.772110	0.637100
O691	O69	0.673870	0.778370	0.882900
O701	O70	0.679700	0.732450	0.844100
C851	C85	0.529980	0.590350	0.842700
C861	C86	0.520450	0.600850	0.713300
C871	C87	0.538420	0.631880	0.663300
H371	H37	0.532500	0.638400	0.573000
C881	C88	0.565610	0.653740	0.747100
C891	C89	0.573270	0.643350	0.879400
H381	H38	0.590400	0.657500	0.939600
C901	C90	0.555950	0.612030	0.926400
H391	H39	0.562000	0.605500	0.016400
C911	C91	0.513730	0.557130	0.905100
C921	C92	0.585190	0.686780	0.688700
C931	C93	0.573730	0.701320	0.591800
H401	H40	0.552500	0.690300	0.562200
C941	C94	0.592710	0.731640	0.537400
H411	H41	0.584600	0.740000	0.464600
C951	C95	0.623330	0.749810	0.588500
C961	C96	0.635530	0.736420	0.689100
C971	C97	0.616720	0.704450	0.734600
H421	H42	0.625600	0.695100	0.796100
C981	C98	0.642030	0.783400	0.527700
K81	K8	0.172470	0.925090	0.570730
Sm81	Sm8	0.172290	0.847200	0.881990
S151	S15	0.152030	0.908700	0.938580
S161	S16	0.341490	0.089680	0.101550
O711	O71	0.172580	0.867170	0.143630
O721	O72	0.175720	0.885830	0.381830
O731	O73	0.159810	0.888710	0.840230
O741	O74	0.145760	0.929330	0.839630
O751	O75	0.128300	0.890960	0.054030
O761	O76	0.307320	0.121120	0.715630
O771	O77	0.323910	0.139720	0.953530
O781	O78	0.362000	0.105440	0.970430
O791	O79	0.340540	0.111700	0.216230
O801	O80	0.346370	0.065780	0.177430
C991	C99	0.196650	0.923680	0.176030
C1001	C100	0.187120	0.934180	0.046630
C1011	C101	0.205090	0.965210	0.996630
H431	H43	0.199170	0.971730	0.906330
C1021	C102	0.232280	0.987070	0.080430
C1031	C103	0.239940	0.976680	0.212730
H441	H44	0.257070	0.990830	0.272930
C1041	C104	0.222620	0.945360	0.259730
H451	H45	0.228670	0.938830	0.349730
C1051	C105	0.180400	0.890460	0.238430
C1061	C106	0.251860	0.020110	0.022030
C1071	C107	0.240400	0.034650	0.925130
H461	H46	0.219170	0.023630	0.895530
C1081	C108	0.259380	0.064970	0.870730
H471	H47	0.251270	0.073330	0.797930
C1091	C109	0.290000	0.083140	0.921830
C1101	C110	0.302200	0.069750	0.022430
C1111	C111	0.283390	0.037780	0.067930
H481	H48	0.292270	0.028430	0.129430
C1121	C112	0.308700	0.116730	0.861030
K91	K9	0.839130	0.258430	0.904070
Sm91	Sm9	0.838950	0.180540	0.215330
S171	S17	0.818690	0.242040	0.271920
S181	S18	0.008150	0.423020	0.434890
O811	O81	0.839240	0.200510	0.476970
O821	O82	0.842380	0.219170	0.715170
O831	O83	0.826470	0.222050	0.173570
O841	O84	0.812420	0.262670	0.172970
O851	O85	0.794960	0.224300	0.387370
O861	O86	0.973980	0.454460	0.048970
O871	O87	0.990570	0.473060	0.286870
O881	O88	0.028660	0.438780	0.303770
O891	O89	0.007200	0.445040	0.549570
O901	O90	0.013030	0.399120	0.510770
C1131	C113	0.863310	0.257020	0.509370
C1141	C114	0.853780	0.267520	0.379970
C1151	C115	0.871750	0.298550	0.329970
H491	H49	0.865830	0.305070	0.239670
C1161	C116	0.898940	0.320410	0.413770
C1171	C117	0.906600	0.310020	0.546070
H501	H50	0.923730	0.324170	0.606270
C1181	C118	0.889280	0.278700	0.593070
H511	H51	0.895330	0.272170	0.683070
C1191	C119	0.847060	0.223800	0.571770
C1201	C120	0.918520	0.353450	0.355370
C1211	C121	0.907060	0.367990	0.258470
H521	H52	0.885830	0.356970	0.228870
C1221	C122	0.926040	0.398310	0.204070
H531	H53	0.917930	0.406670	0.131270
C1231	C123	0.956660	0.416480	0.255170
C1241	C124	0.968860	0.403090	0.355770
C1251	C125	0.950050	0.371120	0.401270
H541	H54	0.958930	0.361770	0.462770
C1261	C126	0.975360	0.450070	0.194370
K101	K10	0.085960	0.591760	0.737400
Sm101	Sm10	0.008250	0.513870	0.048660
S191	S19	0.090010	0.575370	0.105250
S201	S20	0.081530	0.756350	0.268220
O911	O91	0.027930	0.533840	0.310300
O921	O92	0.043450	0.552500	0.548500
O931	O93	0.062240	0.555380	0.006900
O941	O94	0.116910	0.596000	0.006300
O951	O95	0.096000	0.557630	0.220700
O961	O96	0.147140	0.787790	0.882300
O971	O97	0.149150	0.806390	0.120200
O981	O98	0.076780	0.772110	0.137100
O991	O99	0.104500	0.778370	0.382900
O1001	O100	0.052750	0.732450	0.344100
C1271	C127	0.060370	0.590350	0.342700
C1281	C128	0.080400	0.600850	0.213300
C1291	C129	0.093460	0.631880	0.163300
H551	H55	0.105900	0.638400	0.073000
C1301	C130	0.088130	0.653740	0.247100
C1311	C131	0.070080	0.643350	0.379400
H561	H56	0.067100	0.657500	0.439600
C1321	C132	0.056080	0.612030	0.426400
H571	H57	0.043500	0.605500	0.516400
C1331	C133	0.043400	0.557130	0.405100
C1341	C134	0.101590	0.686780	0.188700
C1351	C135	0.127590	0.701320	0.091800
H581	H58	0.137800	0.690300	0.062200
C1361	C136	0.138930	0.731640	0.037400
H591	H59	0.155400	0.740000	0.964600
C1371	C137	0.126480	0.749810	0.088500
C1381	C138	0.100890	0.736420	0.189100
C1391	C139	0.087730	0.704450	0.234600
H601	H60	0.069500	0.695100	0.296100
C1401	C140	0.141370	0.783400	0.027700
K111	K11	0.752630	0.925090	0.070730
Sm111	Sm11	0.674920	0.847200	0.381990
S211	S21	0.756680	0.908700	0.438580
S221	S22	0.748200	0.089680	0.601550
O1011	O101	0.694600	0.867170	0.643630
O1021	O102	0.710120	0.885830	0.881830
O1031	O103	0.728910	0.888710	0.340230
O1041	O104	0.783580	0.929330	0.339630
O1051	O105	0.762670	0.890960	0.554030
O1061	O106	0.813810	0.121120	0.215630
O1071	O107	0.815820	0.139720	0.453530
O1081	O108	0.743450	0.105440	0.470430
O1091	O109	0.771170	0.111700	0.716230
O1101	O110	0.719420	0.065780	0.677430
C1411	C141	0.727040	0.923680	0.676030
C1421	C142	0.747070	0.934180	0.546630
C1431	C143	0.760130	0.965210	0.496630
H611	H61	0.772570	0.971730	0.406330
C1441	C144	0.754800	0.987070	0.580430
C1451	C145	0.736750	0.976680	0.712730
H621	H62	0.733770	0.990830	0.772930
C1461	C146	0.722750	0.945360	0.759730
H631	H63	0.710170	0.938830	0.849730
C1471	C147	0.710070	0.890460	0.738430
C1481	C148	0.768260	0.020110	0.522030
C1491	C149	0.794260	0.034650	0.425130
H641	H64	0.804470	0.023630	0.395530
C1501	C150	0.805600	0.064970	0.370730
H651	H65	0.822070	0.073330	0.297930
C1511	C151	0.793150	0.083140	0.421830
C1521	C152	0.767560	0.069750	0.522430
C1531	C153	0.754400	0.037780	0.567930
H661	H66	0.736170	0.028430	0.629430
C1541	C154	0.808040	0.116730	0.361030
K121	K12	0.419290	0.258430	0.404070
Sm121	Sm12	0.341580	0.180540	0.715330
S231	S23	0.423340	0.242040	0.771920
S241	S24	0.414860	0.423020	0.934890
O1111	O111	0.361260	0.200510	0.976970
O1121	O112	0.376780	0.219170	0.215170
O1131	O113	0.395570	0.222050	0.673570
O1141	O114	0.450240	0.262670	0.672970
O1151	O115	0.429330	0.224300	0.887370
O1161	O116	0.480470	0.454460	0.548970
O1171	O117	0.482480	0.473060	0.786870
O1181	O118	0.410110	0.438780	0.803770
O1191	O119	0.437830	0.445040	0.049570
O1201	O120	0.386080	0.399120	0.010770
C1551	C155	0.393700	0.257020	0.009370
C1561	C156	0.413730	0.267520	0.879970
C1571	C157	0.426790	0.298550	0.829970
H671	H67	0.439230	0.305070	0.739670
C1581	C158	0.421460	0.320410	0.913770
C1591	C159	0.403410	0.310020	0.046070
H681	H68	0.400430	0.324170	0.106270
C1601	C160	0.389410	0.278700	0.093070
H691	H69	0.376830	0.272170	0.183070
C1611	C161	0.376730	0.223800	0.071770
C1621	C162	0.434920	0.353450	0.855370
C1631	C163	0.460920	0.367990	0.758470
H701	H70	0.471130	0.356970	0.728870
C1641	C164	0.472260	0.398310	0.704070
H711	H71	0.488730	0.406670	0.631270
C1651	C165	0.459810	0.416480	0.755170
C1661	C166	0.434220	0.403090	0.855770
C1671	C167	0.421060	0.371120	0.901270
H721	H72	0.402830	0.361770	0.962770
C1681	C168	0.474700	0.450070	0.694370
K131	K13	0.505800	0.914040	0.737400
Sm131	Sm13	0.505620	0.991750	0.048660
S251	S25	0.485360	0.909990	0.105250
S261	S26	0.674820	0.918470	0.268220
O1211	O121	0.505910	0.972070	0.310300
O1221	O122	0.509050	0.956550	0.548500
O1231	O123	0.493140	0.937760	0.006900
O1241	O124	0.479090	0.883090	0.006300
O1251	O125	0.461630	0.904000	0.220700
O1261	O126	0.640650	0.852860	0.882300
O1271	O127	0.657240	0.850850	0.120200
O1281	O128	0.695330	0.923220	0.137100
O1291	O129	0.673870	0.895500	0.382900
O1301	O130	0.679700	0.947250	0.344100
C1691	C169	0.529980	0.939630	0.342700
C1701	C170	0.520450	0.919600	0.213300
C1711	C171	0.538420	0.906540	0.163300
H731	H73	0.532500	0.894100	0.073000
C1721	C172	0.565610	0.911870	0.247100
C1731	C173	0.573270	0.929920	0.379400
H741	H74	0.590400	0.932900	0.439600
C1741	C174	0.555950	0.943920	0.426400
H751	H75	0.562000	0.956500	0.516400
C1751	C175	0.513730	0.956600	0.405100
C1761	C176	0.585190	0.898410	0.188700
C1771	C177	0.573730	0.872410	0.091800
H761	H76	0.552500	0.862200	0.062200
C1781	C178	0.592710	0.861070	0.037400
H771	H77	0.584600	0.844600	0.964600
C1791	C179	0.623330	0.873520	0.088500
C1801	C180	0.635530	0.899110	0.189100
C1811	C181	0.616720	0.912270	0.234600
H781	H78	0.625600	0.930500	0.296100
C1821	C182	0.642030	0.858630	0.027700
K141	K14	0.172470	0.247370	0.070730
Sm141	Sm14	0.172290	0.325080	0.381990
S271	S27	0.152030	0.243320	0.438580
S281	S28	0.341490	0.251800	0.601550
O1311	O131	0.172580	0.305400	0.643630
O1321	O132	0.175720	0.289880	0.881830
O1331	O133	0.159810	0.271090	0.340230
O1341	O134	0.145760	0.216420	0.339630
O1351	O135	0.128300	0.237330	0.554030
O1361	O136	0.307320	0.186190	0.215630
O1371	O137	0.323910	0.184180	0.453530
O1381	O138	0.362000	0.256550	0.470430
O1391	O139	0.340540	0.228830	0.716230
O1401	O140	0.346370	0.280580	0.677430
C1831	C183	0.196650	0.272960	0.676030
C1841	C184	0.187120	0.252930	0.546630
C1851	C185	0.205090	0.239870	0.496630
H791	H79	0.199170	0.227430	0.406330
C1861	C186	0.232280	0.245200	0.580430
C1871	C187	0.239940	0.263250	0.712730
H801	H80	0.257070	0.266230	0.772930
C1881	C188	0.222620	0.277250	0.759730
H811	H81	0.228670	0.289830	0.849730
C1891	C189	0.180400	0.289930	0.738430
C1901	C190	0.251860	0.231740	0.522030
C1911	C191	0.240400	0.205740	0.425130
H821	H82	0.219170	0.195530	0.395530
C1921	C192	0.259380	0.194400	0.370730
H831	H83	0.251270	0.177930	0.297930
C1931	C193	0.290000	0.206850	0.421830
C1941	C194	0.302200	0.232440	0.522430
C1951	C195	0.283390	0.245600	0.567930
H841	H84	0.292270	0.263830	0.629430
C1961	C196	0.308700	0.191960	0.361030
K151	K15	0.839130	0.580710	0.404070
Sm151	Sm15	0.838950	0.658420	0.715330
S291	S29	0.818690	0.576660	0.771920
S301	S30	0.008150	0.585140	0.934890
O1411	O141	0.839240	0.638740	0.976970
O1421	O142	0.842380	0.623220	0.215170
O1431	O143	0.826470	0.604430	0.673570
O1441	O144	0.812420	0.549760	0.672970
O1451	O145	0.794960	0.570670	0.887370
O1461	O146	0.973980	0.519530	0.548970
O1471	O147	0.990570	0.517520	0.786870
O1481	O148	0.028660	0.589890	0.803770
O1491	O149	0.007200	0.562170	0.049570
O1501	O150	0.013030	0.613920	0.010770
C1971	C197	0.863310	0.606300	0.009370
C1981	C198	0.853780	0.586270	0.879970
C1991	C199	0.871750	0.573210	0.829970
H851	H85	0.865830	0.560770	0.739670
C2001	C200	0.898940	0.578540	0.913770
C2011	C201	0.906600	0.596590	0.046070
H861	H86	0.923730	0.599570	0.106270
C2021	C202	0.889280	0.610590	0.093070
H871	H87	0.895330	0.623170	0.183070
C2031	C203	0.847060	0.623270	0.071770
C2041	C204	0.918520	0.565080	0.855370
C2051	C205	0.907060	0.539080	0.758470
H881	H88	0.885830	0.528870	0.728870
C2061	C206	0.926040	0.527740	0.704070
H891	H89	0.917930	0.511270	0.631270
C2071	C207	0.956660	0.540190	0.755170
C2081	C208	0.968860	0.565780	0.855770
C2091	C209	0.950050	0.578940	0.901270
H901	H90	0.958930	0.597170	0.962770
C2101	C210	0.975360	0.525300	0.694370
K161	K16	0.408240	0.494200	0.737400
Sm161	Sm16	0.486130	0.494380	0.048660
S311	S31	0.424630	0.514640	0.105250
S321	S32	0.243650	0.325180	0.268220
O1511	O151	0.466160	0.494090	0.310300
O1521	O152	0.447500	0.490950	0.548500
O1531	O153	0.444620	0.506860	0.006900
O1541	O154	0.404000	0.520910	0.006300
O1551	O155	0.442370	0.538370	0.220700
O1561	O156	0.212210	0.359350	0.882300
O1571	O157	0.193610	0.342760	0.120200
O1581	O158	0.227890	0.304670	0.137100
O1591	O159	0.221630	0.326130	0.382900
O1601	O160	0.267550	0.320300	0.344100
C2111	C211	0.409650	0.470020	0.342700
C2121	C212	0.399150	0.479550	0.213300
C2131	C213	0.368120	0.461580	0.163300
H911	H91	0.361600	0.467500	0.073000
C2141	C214	0.346260	0.434390	0.247100
C2151	C215	0.356650	0.426730	0.379400
H921	H92	0.342500	0.409600	0.439600
C2161	C216	0.387970	0.444050	0.426400
H931	H93	0.394500	0.438000	0.516400
C2171	C217	0.442870	0.486270	0.405100
C2181	C218	0.313220	0.414810	0.188700
C2191	C219	0.298680	0.426270	0.091800
H941	H94	0.309700	0.447500	0.062200
C2201	C220	0.268360	0.407290	0.037400
H951	H95	0.260000	0.415400	0.964600
C2211	C221	0.250190	0.376670	0.088500
C2221	C222	0.263580	0.364470	0.189100
C2231	C223	0.295550	0.383280	0.234600
H961	H96	0.304900	0.374400	0.296100
C2241	C224	0.216600	0.357970	0.027700
K171	K17	0.074910	0.827530	0.070730
Sm171	Sm17	0.152800	0.827710	0.381990
S331	S33	0.091300	0.847970	0.438580
S341	S34	0.910320	0.658510	0.601550
O1611	O161	0.132830	0.827420	0.643630
O1621	O162	0.114170	0.824280	0.881830
O1631	O163	0.111290	0.840190	0.340230
O1641	O164	0.070670	0.854240	0.339630
O1651	O165	0.109040	0.871700	0.554030
O1661	O166	0.878880	0.692680	0.215630
O1671	O167	0.860280	0.676090	0.453530
O1681	O168	0.894560	0.638000	0.470430
O1691	O169	0.888300	0.659460	0.716230
O1701	O170	0.934220	0.653630	0.677430
C2251	C225	0.076320	0.803350	0.676030
C2261	C226	0.065820	0.812880	0.546630
C2271	C227	0.034790	0.794910	0.496630
H971	H97	0.028270	0.800830	0.406330
C2281	C228	0.012930	0.767720	0.580430
C2291	C229	0.023320	0.760060	0.712730
H981	H98	0.009170	0.742930	0.772930
C2301	C230	0.054640	0.777380	0.759730
H991	H99	0.061170	0.771330	0.849730
C2311	C231	0.109540	0.819600	0.738430
C2321	C232	0.979890	0.748140	0.522030
C2331	C233	0.965350	0.759600	0.425130
H1001	H100	0.976370	0.780830	0.395530
C2341	C234	0.935030	0.740620	0.370730
H1011	H101	0.926670	0.748730	0.297930
C2351	C235	0.916860	0.710000	0.421830
C2361	C236	0.930250	0.697800	0.522430
C2371	C237	0.962220	0.716610	0.567930
H1021	H102	0.971570	0.707730	0.629430
C2381	C238	0.883270	0.691300	0.361030
K181	K18	0.741570	0.160870	0.404070
Sm181	Sm18	0.819460	0.161050	0.715330
S351	S35	0.757960	0.181310	0.771920
S361	S36	0.576980	0.991850	0.934890
O1711	O171	0.799490	0.160760	0.976970
O1721	O172	0.780830	0.157620	0.215170
O1731	O173	0.777950	0.173530	0.673570
O1741	O174	0.737330	0.187580	0.672970
O1751	O175	0.775700	0.205040	0.887370
O1761	O176	0.545540	0.026020	0.548970
O1771	O177	0.526940	0.009430	0.786870
O1781	O178	0.561220	0.971340	0.803770
O1791	O179	0.554960	0.992800	0.049570
O1801	O180	0.600880	0.986970	0.010770
C2391	C239	0.742980	0.136690	0.009370
C2401	C240	0.732480	0.146220	0.879970
C2411	C241	0.701450	0.128250	0.829970
H1031	H103	0.694930	0.134170	0.739670
C2421	C242	0.679590	0.101060	0.913770
C2431	C243	0.689980	0.093400	0.046070
H1041	H104	0.675830	0.076270	0.106270
C2441	C244	0.721300	0.110720	0.093070
H1051	H105	0.727830	0.104670	0.183070
C2451	C245	0.776200	0.152940	0.071770
C2461	C246	0.646550	0.081480	0.855370
C2471	C247	0.632010	0.092940	0.758470
H1061	H106	0.643030	0.114170	0.728870
C2481	C248	0.601690	0.073960	0.704070
H1071	H107	0.593330	0.082070	0.631270
C2491	C249	0.583520	0.043340	0.755170
C2501	C250	0.596910	0.031140	0.855770
C2511	C251	0.628880	0.049950	0.901270
H1081	H108	0.638230	0.041070	0.962770
C2521	C252	0.549930	0.024640	0.694370
