data_IKOVEL_clean_PM
_symmetry_space_group_name_H-M	'P1'
_cell_length_a	48.884000
_cell_length_b	48.884000
_cell_length_c	8.563200
_cell_angle_alpha	90.000000
_cell_angle_beta	90.000000
_cell_angle_gamma	120.000000
_symmetry_Int_Tables_number 1

loop_
_symmetry_equiv_pos_as_xyz
'x,y,z'

loop_
_atom_site_label
_atom_site_type_symbol
_atom_site_fract_x
_atom_site_fract_y
_atom_site_fract_z
K11	K1	0.592190	0.087550	0.759000
Pr11	Pr1	0.514780	0.009560	0.450950
S11	S1	0.576900	0.091940	0.392340
S21	S2	0.756010	0.080470	0.237010
O11	O1	0.535090	0.029760	0.190600
O21	O2	0.553900	0.045540	0.954200
O31	O3	0.557230	0.064590	0.492600
O41	O4	0.597920	0.119280	0.491600
O51	O5	0.558900	0.097650	0.278500
O61	O6	0.787790	0.146020	0.621000
O71	O7	0.806360	0.148480	0.383800
O81	O8	0.772020	0.075900	0.368100
O91	O9	0.777610	0.102650	0.122100
O101	O10	0.732480	0.051920	0.166700
C11	C1	0.591470	0.062000	0.157400
C21	C2	0.601640	0.081040	0.289800
C31	C3	0.632740	0.094560	0.338500
H11	H1	0.639200	0.107400	0.426500
C41	C4	0.654830	0.089290	0.257500
C51	C5	0.644610	0.071400	0.122800
H21	H2	0.658900	0.068300	0.064700
C61	C6	0.613310	0.057980	0.071500
H31	H3	0.607100	0.046300	0.979500
C71	C7	0.558090	0.045020	0.099300
C81	C8	0.687700	0.102280	0.312500
C91	C9	0.701850	0.128100	0.412500
H41	H4	0.690800	0.138000	0.445000
C101	C10	0.732590	0.139140	0.463900
H51	H5	0.741500	0.156000	0.533300
C111	C11	0.750070	0.126180	0.416400
C121	C12	0.735950	0.099830	0.312600
C131	C13	0.705170	0.088140	0.267300
H61	H6	0.695600	0.070200	0.204400
C141	C14	0.783210	0.140830	0.478200
K21	K2	0.258860	0.420880	0.092330
Pr21	Pr2	0.181450	0.342890	0.784280
S31	S3	0.243570	0.425270	0.725670
S41	S4	0.422680	0.413800	0.570340
O111	O11	0.201760	0.363090	0.523930
O121	O12	0.220570	0.378870	0.287530
O131	O13	0.223900	0.397920	0.825930
O141	O14	0.264590	0.452610	0.824930
O151	O15	0.225570	0.430980	0.611830
O161	O16	0.454460	0.479350	0.954330
O171	O17	0.473030	0.481810	0.717130
O181	O18	0.438690	0.409230	0.701430
O191	O19	0.444280	0.435980	0.455430
O201	O20	0.399150	0.385250	0.500030
C151	C15	0.258140	0.395330	0.490730
C161	C16	0.268310	0.414370	0.623130
C171	C17	0.299410	0.427890	0.671830
H71	H7	0.305870	0.440730	0.759830
C181	C18	0.321500	0.422620	0.590830
C191	C19	0.311280	0.404730	0.456130
H81	H8	0.325570	0.401630	0.398030
C201	C20	0.279980	0.391310	0.404830
H91	H9	0.273770	0.379630	0.312830
C211	C21	0.224760	0.378350	0.432630
C221	C22	0.354370	0.435610	0.645830
C231	C23	0.368520	0.461430	0.745830
H101	H10	0.357470	0.471330	0.778330
C241	C24	0.399260	0.472470	0.797230
H111	H11	0.408170	0.489330	0.866630
C251	C25	0.416740	0.459510	0.749730
C261	C26	0.402620	0.433160	0.645930
C271	C27	0.371840	0.421470	0.600630
H121	H12	0.362270	0.403530	0.537730
C281	C28	0.449880	0.474160	0.811530
K31	K3	0.925520	0.754220	0.425670
Pr31	Pr3	0.848110	0.676230	0.117620
S51	S5	0.910230	0.758610	0.059010
S61	S6	0.089340	0.747140	0.903680
O211	O21	0.868420	0.696430	0.857270
O221	O22	0.887230	0.712210	0.620870
O231	O23	0.890560	0.731260	0.159270
O241	O24	0.931250	0.785950	0.158270
O251	O25	0.892230	0.764320	0.945170
O261	O26	0.121120	0.812690	0.287670
O271	O27	0.139690	0.815150	0.050470
O281	O28	0.105350	0.742570	0.034770
O291	O29	0.110940	0.769320	0.788770
O301	O30	0.065810	0.718590	0.833370
C291	C29	0.924800	0.728670	0.824070
C301	C30	0.934970	0.747710	0.956470
C311	C31	0.966070	0.761230	0.005170
H131	H13	0.972530	0.774070	0.093170
C321	C32	0.988160	0.755960	0.924170
C331	C33	0.977940	0.738070	0.789470
H141	H14	0.992230	0.734970	0.731370
C341	C34	0.946640	0.724650	0.738170
H151	H15	0.940430	0.712970	0.646170
C351	C35	0.891420	0.711690	0.765970
C361	C36	0.021030	0.768950	0.979170
C371	C37	0.035180	0.794770	0.079170
H161	H16	0.024130	0.804670	0.111670
C381	C38	0.065920	0.805810	0.130570
H171	H17	0.074830	0.822670	0.199970
C391	C39	0.083400	0.792850	0.083070
C401	C40	0.069280	0.766500	0.979270
C411	C41	0.038500	0.754810	0.933970
H181	H18	0.028930	0.736870	0.871070
C421	C42	0.116540	0.807500	0.144870
K41	K4	0.912450	0.504640	0.759000
Pr41	Pr4	0.990440	0.505220	0.450950
S71	S7	0.908060	0.484960	0.392340
S81	S8	0.919530	0.675540	0.237010
O311	O31	0.970240	0.505330	0.190600
O321	O32	0.954460	0.508360	0.954200
O331	O33	0.935410	0.492640	0.492600
O341	O34	0.880720	0.478640	0.491600
O351	O35	0.902350	0.461250	0.278500
O361	O36	0.853980	0.641770	0.621000
O371	O37	0.851520	0.657880	0.383800
O381	O38	0.924100	0.696120	0.368100
O391	O39	0.897350	0.674960	0.122100
O401	O40	0.948080	0.680560	0.166700
C431	C43	0.938000	0.529470	0.157400
C441	C44	0.918960	0.520600	0.289800
C451	C45	0.905440	0.538180	0.338500
H191	H19	0.892600	0.531800	0.426500
C461	C46	0.910710	0.565540	0.257500
C471	C47	0.928600	0.573210	0.122800
H201	H20	0.931700	0.590600	0.064700
C481	C48	0.942020	0.555330	0.071500
H211	H21	0.953700	0.560800	0.979500
C491	C49	0.954980	0.513070	0.099300
C501	C50	0.897720	0.585420	0.312500
C511	C51	0.871900	0.573750	0.412500
H221	H22	0.862000	0.552800	0.445000
C521	C52	0.860860	0.593450	0.463900
H231	H23	0.844000	0.585500	0.533300
C531	C53	0.873820	0.623890	0.416400
C541	C54	0.900170	0.636120	0.312600
C551	C55	0.911860	0.617030	0.267300
H241	H24	0.929800	0.625400	0.204400
C561	C56	0.859170	0.642380	0.478200
K51	K5	0.579120	0.837970	0.092330
Pr51	Pr5	0.657110	0.838550	0.784280
S91	S9	0.574730	0.818290	0.725670
S101	S10	0.586200	0.008870	0.570340
O411	O41	0.636910	0.838660	0.523930
O421	O42	0.621130	0.841690	0.287530
O431	O43	0.602080	0.825970	0.825930
O441	O44	0.547390	0.811970	0.824930
O451	O45	0.569020	0.794580	0.611830
O461	O46	0.520650	0.975100	0.954330
O471	O47	0.518190	0.991210	0.717130
O481	O48	0.590770	0.029450	0.701430
O491	O49	0.564020	0.008290	0.455430
O501	O50	0.614750	0.013890	0.500030
C571	C57	0.604670	0.862800	0.490730
C581	C58	0.585630	0.853930	0.623130
C591	C59	0.572110	0.871510	0.671830
H251	H25	0.559270	0.865130	0.759830
C601	C60	0.577380	0.898870	0.590830
C611	C61	0.595270	0.906540	0.456130
H261	H26	0.598370	0.923930	0.398030
C621	C62	0.608690	0.888660	0.404830
H271	H27	0.620370	0.894130	0.312830
C631	C63	0.621650	0.846400	0.432630
C641	C64	0.564390	0.918750	0.645830
C651	C65	0.538570	0.907080	0.745830
H281	H28	0.528670	0.886130	0.778330
C661	C66	0.527530	0.926780	0.797230
H291	H29	0.510670	0.918830	0.866630
C671	C67	0.540490	0.957220	0.749730
C681	C68	0.566840	0.969450	0.645930
C691	C69	0.578530	0.950360	0.600630
H301	H30	0.596470	0.958730	0.537730
C701	C70	0.525840	0.975710	0.811530
K61	K6	0.245780	0.171310	0.425670
Pr61	Pr6	0.323770	0.171890	0.117620
S111	S11	0.241390	0.151630	0.059010
S121	S12	0.252860	0.342210	0.903680
O511	O51	0.303570	0.172000	0.857270
O521	O52	0.287790	0.175030	0.620870
O531	O53	0.268740	0.159310	0.159270
O541	O54	0.214050	0.145310	0.158270
O551	O55	0.235680	0.127920	0.945170
O561	O56	0.187310	0.308440	0.287670
O571	O57	0.184850	0.324550	0.050470
O581	O58	0.257430	0.362790	0.034770
O591	O59	0.230680	0.341630	0.788770
O601	O60	0.281410	0.347230	0.833370
C711	C71	0.271330	0.196140	0.824070
C721	C72	0.252290	0.187270	0.956470
C731	C73	0.238770	0.204850	0.005170
H311	H31	0.225930	0.198470	0.093170
C741	C74	0.244040	0.232210	0.924170
C751	C75	0.261930	0.239880	0.789470
H321	H32	0.265030	0.257270	0.731370
C761	C76	0.275350	0.222000	0.738170
H331	H33	0.287030	0.227470	0.646170
C771	C77	0.288310	0.179740	0.765970
C781	C78	0.231050	0.252090	0.979170
C791	C79	0.205230	0.240420	0.079170
H341	H34	0.195330	0.219470	0.111670
C801	C80	0.194190	0.260120	0.130570
H351	H35	0.177330	0.252170	0.199970
C811	C81	0.207150	0.290560	0.083070
C821	C82	0.233500	0.302790	0.979270
C831	C83	0.245190	0.283700	0.933970
H361	H36	0.263130	0.292070	0.871070
C841	C84	0.192500	0.309050	0.144870
K71	K7	0.495360	0.407810	0.759000
Pr71	Pr7	0.494780	0.485220	0.450950
S131	S13	0.515040	0.423100	0.392340
S141	S14	0.324460	0.243990	0.237010
O611	O61	0.494670	0.464910	0.190600
O621	O62	0.491640	0.446100	0.954200
O631	O63	0.507360	0.442770	0.492600
O641	O64	0.521360	0.402080	0.491600
O651	O65	0.538750	0.441100	0.278500
O661	O66	0.358230	0.212210	0.621000
O671	O67	0.342120	0.193640	0.383800
O681	O68	0.303880	0.227980	0.368100
O691	O69	0.325040	0.222390	0.122100
O701	O70	0.319440	0.267520	0.166700
C851	C85	0.470530	0.408530	0.157400
C861	C86	0.479400	0.398360	0.289800
C871	C87	0.461820	0.367260	0.338500
H371	H37	0.468200	0.360800	0.426500
C881	C88	0.434460	0.345170	0.257500
C891	C89	0.426790	0.355390	0.122800
H381	H38	0.409400	0.341100	0.064700
C901	C90	0.444670	0.386690	0.071500
H391	H39	0.439200	0.392900	0.979500
C911	C91	0.486930	0.441910	0.099300
C921	C92	0.414580	0.312300	0.312500
C931	C93	0.426250	0.298150	0.412500
H401	H40	0.447200	0.309200	0.445000
C941	C94	0.406550	0.267410	0.463900
H411	H41	0.414500	0.258500	0.533300
C951	C95	0.376110	0.249930	0.416400
C961	C96	0.363880	0.264050	0.312600
C971	C97	0.382970	0.294830	0.267300
H421	H42	0.374600	0.304400	0.204400
C981	C98	0.357620	0.216790	0.478200
K81	K8	0.162030	0.741140	0.092330
Pr81	Pr8	0.161450	0.818550	0.784280
S151	S15	0.181710	0.756430	0.725670
S161	S16	0.991130	0.577320	0.570340
O711	O71	0.161340	0.798240	0.523930
O721	O72	0.158310	0.779430	0.287530
O731	O73	0.174030	0.776100	0.825930
O741	O74	0.188030	0.735410	0.824930
O751	O75	0.205420	0.774430	0.611830
O761	O76	0.024900	0.545540	0.954330
O771	O77	0.008790	0.526970	0.717130
O781	O78	0.970550	0.561310	0.701430
O791	O79	0.991710	0.555720	0.455430
O801	O80	0.986110	0.600850	0.500030
C991	C99	0.137200	0.741860	0.490730
C1001	C100	0.146070	0.731690	0.623130
C1011	C101	0.128490	0.700590	0.671830
H431	H43	0.134870	0.694130	0.759830
C1021	C102	0.101130	0.678500	0.590830
C1031	C103	0.093460	0.688720	0.456130
H441	H44	0.076070	0.674430	0.398030
C1041	C104	0.111340	0.720020	0.404830
H451	H45	0.105870	0.726230	0.312830
C1051	C105	0.153600	0.775240	0.432630
C1061	C106	0.081250	0.645630	0.645830
C1071	C107	0.092920	0.631480	0.745830
H461	H46	0.113870	0.642530	0.778330
C1081	C108	0.073220	0.600740	0.797230
H471	H47	0.081170	0.591830	0.866630
C1091	C109	0.042780	0.583260	0.749730
C1101	C110	0.030550	0.597380	0.645930
C1111	C111	0.049640	0.628160	0.600630
H481	H48	0.041270	0.637730	0.537730
C1121	C112	0.024290	0.550120	0.811530
K91	K9	0.828690	0.074480	0.425670
Pr91	Pr9	0.828110	0.151890	0.117620
S171	S17	0.848370	0.089770	0.059010
S181	S18	0.657790	0.910660	0.903680
O811	O81	0.828000	0.131580	0.857270
O821	O82	0.824970	0.112770	0.620870
O831	O83	0.840690	0.109440	0.159270
O841	O84	0.854690	0.068750	0.158270
O851	O85	0.872080	0.107770	0.945170
O861	O86	0.691560	0.878880	0.287670
O871	O87	0.675450	0.860310	0.050470
O881	O88	0.637210	0.894650	0.034770
O891	O89	0.658370	0.889060	0.788770
O901	O90	0.652770	0.934190	0.833370
C1131	C113	0.803860	0.075200	0.824070
C1141	C114	0.812730	0.065030	0.956470
C1151	C115	0.795150	0.033930	0.005170
H491	H49	0.801530	0.027470	0.093170
C1161	C116	0.767790	0.011840	0.924170
C1171	C117	0.760120	0.022060	0.789470
H501	H50	0.742730	0.007770	0.731370
C1181	C118	0.778000	0.053360	0.738170
H511	H51	0.772530	0.059570	0.646170
C1191	C119	0.820260	0.108580	0.765970
C1201	C120	0.747910	0.978970	0.979170
C1211	C121	0.759580	0.964820	0.079170
H521	H52	0.780530	0.975870	0.111670
C1221	C122	0.739880	0.934080	0.130570
H531	H53	0.747830	0.925170	0.199970
C1231	C123	0.709440	0.916600	0.083070
C1241	C124	0.697210	0.930720	0.979270
C1251	C125	0.716300	0.961500	0.933970
H541	H54	0.707930	0.971070	0.871070
C1261	C126	0.690950	0.883460	0.144870
K101	K10	0.912450	0.407810	0.259000
Pr101	Pr10	0.990440	0.485220	0.950950
S191	S19	0.908060	0.423100	0.892340
S201	S20	0.919530	0.243990	0.737010
O911	O91	0.970240	0.464910	0.690600
O921	O92	0.954460	0.446100	0.454200
O931	O93	0.935410	0.442770	0.992600
O941	O94	0.880720	0.402080	0.991600
O951	O95	0.902350	0.441100	0.778500
O961	O96	0.853980	0.212210	0.121000
O971	O97	0.851520	0.193640	0.883800
O981	O98	0.924100	0.227980	0.868100
O991	O99	0.897350	0.222390	0.622100
O1001	O100	0.948080	0.267520	0.666700
C1271	C127	0.938000	0.408530	0.657400
C1281	C128	0.918960	0.398360	0.789800
C1291	C129	0.905440	0.367260	0.838500
H551	H55	0.892600	0.360800	0.926500
C1301	C130	0.910710	0.345170	0.757500
C1311	C131	0.928600	0.355390	0.622800
H561	H56	0.931700	0.341100	0.564700
C1321	C132	0.942020	0.386690	0.571500
H571	H57	0.953700	0.392900	0.479500
C1331	C133	0.954980	0.441910	0.599300
C1341	C134	0.897720	0.312300	0.812500
C1351	C135	0.871900	0.298150	0.912500
H581	H58	0.862000	0.309200	0.945000
C1361	C136	0.860860	0.267410	0.963900
H591	H59	0.844000	0.258500	0.033300
C1371	C137	0.873820	0.249930	0.916400
C1381	C138	0.900170	0.264050	0.812600
C1391	C139	0.911860	0.294830	0.767300
H601	H60	0.929800	0.304400	0.704400
C1401	C140	0.859170	0.216790	0.978200
K111	K11	0.579120	0.741140	0.592330
Pr111	Pr11	0.657110	0.818550	0.284280
S211	S21	0.574730	0.756430	0.225670
S221	S22	0.586200	0.577320	0.070340
O1011	O101	0.636910	0.798240	0.023930
O1021	O102	0.621130	0.779430	0.787530
O1031	O103	0.602080	0.776100	0.325930
O1041	O104	0.547390	0.735410	0.324930
O1051	O105	0.569020	0.774430	0.111830
O1061	O106	0.520650	0.545540	0.454330
O1071	O107	0.518190	0.526970	0.217130
O1081	O108	0.590770	0.561310	0.201430
O1091	O109	0.564020	0.555720	0.955430
O1101	O110	0.614750	0.600850	0.000030
C1411	C141	0.604670	0.741860	0.990730
C1421	C142	0.585630	0.731690	0.123130
C1431	C143	0.572110	0.700590	0.171830
H611	H61	0.559270	0.694130	0.259830
C1441	C144	0.577380	0.678500	0.090830
C1451	C145	0.595270	0.688720	0.956130
H621	H62	0.598370	0.674430	0.898030
C1461	C146	0.608690	0.720020	0.904830
H631	H63	0.620370	0.726230	0.812830
C1471	C147	0.621650	0.775240	0.932630
C1481	C148	0.564390	0.645630	0.145830
C1491	C149	0.538570	0.631480	0.245830
H641	H64	0.528670	0.642530	0.278330
C1501	C150	0.527530	0.600740	0.297230
H651	H65	0.510670	0.591830	0.366630
C1511	C151	0.540490	0.583260	0.249730
C1521	C152	0.566840	0.597380	0.145930
C1531	C153	0.578530	0.628160	0.100630
H661	H66	0.596470	0.637730	0.037730
C1541	C154	0.525840	0.550120	0.311530
K121	K12	0.245780	0.074480	0.925670
Pr121	Pr12	0.323770	0.151890	0.617620
S231	S23	0.241390	0.089770	0.559010
S241	S24	0.252860	0.910660	0.403680
O1111	O111	0.303570	0.131580	0.357270
O1121	O112	0.287790	0.112770	0.120870
O1131	O113	0.268740	0.109440	0.659270
O1141	O114	0.214050	0.068750	0.658270
O1151	O115	0.235680	0.107770	0.445170
O1161	O116	0.187310	0.878880	0.787670
O1171	O117	0.184850	0.860310	0.550470
O1181	O118	0.257430	0.894650	0.534770
O1191	O119	0.230680	0.889060	0.288770
O1201	O120	0.281410	0.934190	0.333370
C1551	C155	0.271330	0.075200	0.324070
C1561	C156	0.252290	0.065030	0.456470
C1571	C157	0.238770	0.033930	0.505170
H671	H67	0.225930	0.027470	0.593170
C1581	C158	0.244040	0.011840	0.424170
C1591	C159	0.261930	0.022060	0.289470
H681	H68	0.265030	0.007770	0.231370
C1601	C160	0.275350	0.053360	0.238170
H691	H69	0.287030	0.059570	0.146170
C1611	C161	0.288310	0.108580	0.265970
C1621	C162	0.231050	0.978970	0.479170
C1631	C163	0.205230	0.964820	0.579170
H701	H70	0.195330	0.975870	0.611670
C1641	C164	0.194190	0.934080	0.630570
H711	H71	0.177330	0.925170	0.699970
C1651	C165	0.207150	0.916600	0.583070
C1661	C166	0.233500	0.930720	0.479270
C1671	C167	0.245190	0.961500	0.433970
H721	H72	0.263130	0.971070	0.371070
C1681	C168	0.192500	0.883460	0.644870
K131	K13	0.495360	0.087550	0.259000
Pr131	Pr13	0.494780	0.009560	0.950950
S251	S25	0.515040	0.091940	0.892340
S261	S26	0.324460	0.080470	0.737010
O1211	O121	0.494670	0.029760	0.690600
O1221	O122	0.491640	0.045540	0.454200
O1231	O123	0.507360	0.064590	0.992600
O1241	O124	0.521360	0.119280	0.991600
O1251	O125	0.538750	0.097650	0.778500
O1261	O126	0.358230	0.146020	0.121000
O1271	O127	0.342120	0.148480	0.883800
O1281	O128	0.303880	0.075900	0.868100
O1291	O129	0.325040	0.102650	0.622100
O1301	O130	0.319440	0.051920	0.666700
C1691	C169	0.470530	0.062000	0.657400
C1701	C170	0.479400	0.081040	0.789800
C1711	C171	0.461820	0.094560	0.838500
H731	H73	0.468200	0.107400	0.926500
C1721	C172	0.434460	0.089290	0.757500
C1731	C173	0.426790	0.071400	0.622800
H741	H74	0.409400	0.068300	0.564700
C1741	C174	0.444670	0.057980	0.571500
H751	H75	0.439200	0.046300	0.479500
C1751	C175	0.486930	0.045020	0.599300
C1761	C176	0.414580	0.102280	0.812500
C1771	C177	0.426250	0.128100	0.912500
H761	H76	0.447200	0.138000	0.945000
C1781	C178	0.406550	0.139140	0.963900
H771	H77	0.414500	0.156000	0.033300
C1791	C179	0.376110	0.126180	0.916400
C1801	C180	0.363880	0.099830	0.812600
C1811	C181	0.382970	0.088140	0.767300
H781	H78	0.374600	0.070200	0.704400
C1821	C182	0.357620	0.140830	0.978200
K141	K14	0.162030	0.420880	0.592330
Pr141	Pr14	0.161450	0.342890	0.284280
S271	S27	0.181710	0.425270	0.225670
S281	S28	0.991130	0.413800	0.070340
O1311	O131	0.161340	0.363090	0.023930
O1321	O132	0.158310	0.378870	0.787530
O1331	O133	0.174030	0.397920	0.325930
O1341	O134	0.188030	0.452610	0.324930
O1351	O135	0.205420	0.430980	0.111830
O1361	O136	0.024900	0.479350	0.454330
O1371	O137	0.008790	0.481810	0.217130
O1381	O138	0.970550	0.409230	0.201430
O1391	O139	0.991710	0.435980	0.955430
O1401	O140	0.986110	0.385250	0.000030
C1831	C183	0.137200	0.395330	0.990730
C1841	C184	0.146070	0.414370	0.123130
C1851	C185	0.128490	0.427890	0.171830
H791	H79	0.134870	0.440730	0.259830
C1861	C186	0.101130	0.422620	0.090830
C1871	C187	0.093460	0.404730	0.956130
H801	H80	0.076070	0.401630	0.898030
C1881	C188	0.111340	0.391310	0.904830
H811	H81	0.105870	0.379630	0.812830
C1891	C189	0.153600	0.378350	0.932630
C1901	C190	0.081250	0.435610	0.145830
C1911	C191	0.092920	0.461430	0.245830
H821	H82	0.113870	0.471330	0.278330
C1921	C192	0.073220	0.472470	0.297230
H831	H83	0.081170	0.489330	0.366630
C1931	C193	0.042780	0.459510	0.249730
C1941	C194	0.030550	0.433160	0.145930
C1951	C195	0.049640	0.421470	0.100630
H841	H84	0.041270	0.403530	0.037730
C1961	C196	0.024290	0.474160	0.311530
K151	K15	0.828690	0.754220	0.925670
Pr151	Pr15	0.828110	0.676230	0.617620
S291	S29	0.848370	0.758610	0.559010
S301	S30	0.657790	0.747140	0.403680
O1411	O141	0.828000	0.696430	0.357270
O1421	O142	0.824970	0.712210	0.120870
O1431	O143	0.840690	0.731260	0.659270
O1441	O144	0.854690	0.785950	0.658270
O1451	O145	0.872080	0.764320	0.445170
O1461	O146	0.691560	0.812690	0.787670
O1471	O147	0.675450	0.815150	0.550470
O1481	O148	0.637210	0.742570	0.534770
O1491	O149	0.658370	0.769320	0.288770
O1501	O150	0.652770	0.718590	0.333370
C1971	C197	0.803860	0.728670	0.324070
C1981	C198	0.812730	0.747710	0.456470
C1991	C199	0.795150	0.761230	0.505170
H851	H85	0.801530	0.774070	0.593170
C2001	C200	0.767790	0.755960	0.424170
C2011	C201	0.760120	0.738070	0.289470
H861	H86	0.742730	0.734970	0.231370
C2021	C202	0.778000	0.724650	0.238170
H871	H87	0.772530	0.712970	0.146170
C2031	C203	0.820260	0.711690	0.265970
C2041	C204	0.747910	0.768950	0.479170
C2051	C205	0.759580	0.794770	0.579170
H881	H88	0.780530	0.804670	0.611670
C2061	C206	0.739880	0.805810	0.630570
H891	H89	0.747830	0.822670	0.699970
C2071	C207	0.709440	0.792850	0.583070
C2081	C208	0.697210	0.766500	0.479270
C2091	C209	0.716300	0.754810	0.433970
H901	H90	0.707930	0.736870	0.371070
C2101	C210	0.690950	0.807500	0.644870
K161	K16	0.592190	0.504640	0.259000
Pr161	Pr16	0.514780	0.505220	0.950950
S311	S31	0.576900	0.484960	0.892340
S321	S32	0.756010	0.675540	0.737010
O1511	O151	0.535090	0.505330	0.690600
O1521	O152	0.553900	0.508360	0.454200
O1531	O153	0.557230	0.492640	0.992600
O1541	O154	0.597920	0.478640	0.991600
O1551	O155	0.558900	0.461250	0.778500
O1561	O156	0.787790	0.641770	0.121000
O1571	O157	0.806360	0.657880	0.883800
O1581	O158	0.772020	0.696120	0.868100
O1591	O159	0.777610	0.674960	0.622100
O1601	O160	0.732480	0.680560	0.666700
C2111	C211	0.591470	0.529470	0.657400
C2121	C212	0.601640	0.520600	0.789800
C2131	C213	0.632740	0.538180	0.838500
H911	H91	0.639200	0.531800	0.926500
C2141	C214	0.654830	0.565540	0.757500
C2151	C215	0.644610	0.573210	0.622800
H921	H92	0.658900	0.590600	0.564700
C2161	C216	0.613310	0.555330	0.571500
H931	H93	0.607100	0.560800	0.479500
C2171	C217	0.558090	0.513070	0.599300
C2181	C218	0.687700	0.585420	0.812500
C2191	C219	0.701850	0.573750	0.912500
H941	H94	0.690800	0.552800	0.945000
C2201	C220	0.732590	0.593450	0.963900
H951	H95	0.741500	0.585500	0.033300
C2211	C221	0.750070	0.623890	0.916400
C2221	C222	0.735950	0.636120	0.812600
C2231	C223	0.705170	0.617030	0.767300
H961	H96	0.695600	0.625400	0.704400
C2241	C224	0.783210	0.642380	0.978200
K171	K17	0.258860	0.837970	0.592330
Pr171	Pr17	0.181450	0.838550	0.284280
S331	S33	0.243570	0.818290	0.225670
S341	S34	0.422680	0.008870	0.070340
O1611	O161	0.201760	0.838660	0.023930
O1621	O162	0.220570	0.841690	0.787530
O1631	O163	0.223900	0.825970	0.325930
O1641	O164	0.264590	0.811970	0.324930
O1651	O165	0.225570	0.794580	0.111830
O1661	O166	0.454460	0.975100	0.454330
O1671	O167	0.473030	0.991210	0.217130
O1681	O168	0.438690	0.029450	0.201430
O1691	O169	0.444280	0.008290	0.955430
O1701	O170	0.399150	0.013890	0.000030
C2251	C225	0.258140	0.862800	0.990730
C2261	C226	0.268310	0.853930	0.123130
C2271	C227	0.299410	0.871510	0.171830
H971	H97	0.305870	0.865130	0.259830
C2281	C228	0.321500	0.898870	0.090830
C2291	C229	0.311280	0.906540	0.956130
H981	H98	0.325570	0.923930	0.898030
C2301	C230	0.279980	0.888660	0.904830
H991	H99	0.273770	0.894130	0.812830
C2311	C231	0.224760	0.846400	0.932630
C2321	C232	0.354370	0.918750	0.145830
C2331	C233	0.368520	0.907080	0.245830
H1001	H100	0.357470	0.886130	0.278330
C2341	C234	0.399260	0.926780	0.297230
H1011	H101	0.408170	0.918830	0.366630
C2351	C235	0.416740	0.957220	0.249730
C2361	C236	0.402620	0.969450	0.145930
C2371	C237	0.371840	0.950360	0.100630
H1021	H102	0.362270	0.958730	0.037730
C2381	C238	0.449880	0.975710	0.311530
K181	K18	0.925520	0.171310	0.925670
Pr181	Pr18	0.848110	0.171890	0.617620
S351	S35	0.910230	0.151630	0.559010
S361	S36	0.089340	0.342210	0.403680
O1711	O171	0.868420	0.172000	0.357270
O1721	O172	0.887230	0.175030	0.120870
O1731	O173	0.890560	0.159310	0.659270
O1741	O174	0.931250	0.145310	0.658270
O1751	O175	0.892230	0.127920	0.445170
O1761	O176	0.121120	0.308440	0.787670
O1771	O177	0.139690	0.324550	0.550470
O1781	O178	0.105350	0.362790	0.534770
O1791	O179	0.110940	0.341630	0.288770
O1801	O180	0.065810	0.347230	0.333370
C2391	C239	0.924800	0.196140	0.324070
C2401	C240	0.934970	0.187270	0.456470
C2411	C241	0.966070	0.204850	0.505170
H1031	H103	0.972530	0.198470	0.593170
C2421	C242	0.988160	0.232210	0.424170
C2431	C243	0.977940	0.239880	0.289470
H1041	H104	0.992230	0.257270	0.231370
C2441	C244	0.946640	0.222000	0.238170
H1051	H105	0.940430	0.227470	0.146170
C2451	C245	0.891420	0.179740	0.265970
C2461	C246	0.021030	0.252090	0.479170
C2471	C247	0.035180	0.240420	0.579170
H1061	H106	0.024130	0.219470	0.611670
C2481	C248	0.065920	0.260120	0.630570
H1071	H107	0.074830	0.252170	0.699970
C2491	C249	0.083400	0.290560	0.583070
C2501	C250	0.069280	0.302790	0.479270
C2511	C251	0.038500	0.283700	0.433970
H1081	H108	0.028930	0.292070	0.371070
C2521	C252	0.116540	0.309050	0.644870
