data_IKUBUL_clean_PM
_symmetry_space_group_name_H-M	'P1'
_cell_length_a	8.875400
_cell_length_b	16.667000
_cell_length_c	13.864000
_cell_angle_alpha	90.000000
_cell_angle_beta	90.000000
_cell_angle_gamma	90.000000
_symmetry_Int_Tables_number 1

loop_
_symmetry_equiv_pos_as_xyz
'x,y,z'

loop_
_atom_site_label
_atom_site_type_symbol
_atom_site_fract_x
_atom_site_fract_y
_atom_site_fract_z
Zn11	Zn1	0.446890	0.923090	0.106180
P11	P1	0.505440	0.108280	0.111390
P21	P2	0.741700	0.381580	0.220090
O11	O1	0.403200	0.036360	0.102200
O21	O2	0.811600	0.359760	0.315490
O31	O3	0.588100	0.128420	0.018510
O41	O4	0.847900	0.409000	0.143800
O51	O5	0.417700	0.180830	0.149000
O61	O6	0.645900	0.314100	0.180730
H11	H1	0.615000	0.090100	0.174000
H21	H2	0.647000	0.448000	0.239000
Zn21	Zn2	0.053110	0.576910	0.606180
P31	P3	0.994560	0.391720	0.611390
P41	P4	0.758300	0.118420	0.720090
O71	O7	0.096800	0.463640	0.602200
O81	O8	0.688400	0.140240	0.815490
O91	O9	0.911900	0.371580	0.518510
O101	O10	0.652100	0.091000	0.643800
O111	O11	0.082300	0.319170	0.649000
O121	O12	0.854100	0.185900	0.680730
H31	H3	0.885000	0.409900	0.674000
H41	H4	0.853000	0.052000	0.739000
Zn31	Zn3	0.553110	0.923090	0.393820
P51	P5	0.494560	0.108280	0.388610
P61	P6	0.258300	0.381580	0.279910
O131	O13	0.596800	0.036360	0.397800
O141	O14	0.188400	0.359760	0.184510
O151	O15	0.411900	0.128420	0.481490
O161	O16	0.152100	0.409000	0.356200
O171	O17	0.582300	0.180830	0.351000
O181	O18	0.354100	0.314100	0.319270
H51	H5	0.385000	0.090100	0.326000
H61	H6	0.353000	0.448000	0.261000
Zn41	Zn4	0.946890	0.576910	0.893820
P71	P7	0.005440	0.391720	0.888610
P81	P8	0.241700	0.118420	0.779910
O191	O19	0.903200	0.463640	0.897800
O201	O20	0.311600	0.140240	0.684510
O211	O21	0.088100	0.371580	0.981490
O221	O22	0.347900	0.091000	0.856200
O231	O23	0.917700	0.319170	0.851000
O241	O24	0.145900	0.185900	0.819270
H71	H7	0.115000	0.409900	0.826000
H81	H8	0.147000	0.052000	0.761000
Zn51	Zn5	0.553110	0.076910	0.893820
P91	P9	0.494560	0.891720	0.888610
P101	P10	0.258300	0.618420	0.779910
O251	O25	0.596800	0.963640	0.897800
O261	O26	0.188400	0.640240	0.684510
O271	O27	0.411900	0.871580	0.981490
O281	O28	0.152100	0.591000	0.856200
O291	O29	0.582300	0.819170	0.851000
O301	O30	0.354100	0.685900	0.819270
H91	H9	0.385000	0.909900	0.826000
H101	H10	0.353000	0.552000	0.761000
Zn61	Zn6	0.946890	0.423090	0.393820
P111	P11	0.005440	0.608280	0.388610
P121	P12	0.241700	0.881580	0.279910
O311	O31	0.903200	0.536360	0.397800
O321	O32	0.311600	0.859760	0.184510
O331	O33	0.088100	0.628420	0.481490
O341	O34	0.347900	0.909000	0.356200
O351	O35	0.917700	0.680830	0.351000
O361	O36	0.145900	0.814100	0.319270
H111	H11	0.115000	0.590100	0.326000
H121	H12	0.147000	0.948000	0.261000
Zn71	Zn7	0.446890	0.076910	0.606180
P131	P13	0.505440	0.891720	0.611390
P141	P14	0.741700	0.618420	0.720090
O371	O37	0.403200	0.963640	0.602200
O381	O38	0.811600	0.640240	0.815490
O391	O39	0.588100	0.871580	0.518510
O401	O40	0.847900	0.591000	0.643800
O411	O41	0.417700	0.819170	0.649000
O421	O42	0.645900	0.685900	0.680730
H131	H13	0.615000	0.909900	0.674000
H141	H14	0.647000	0.552000	0.739000
Zn81	Zn8	0.053110	0.423090	0.106180
P151	P15	0.994560	0.608280	0.111390
P161	P16	0.758300	0.881580	0.220090
O431	O43	0.096800	0.536360	0.102200
O441	O44	0.688400	0.859760	0.315490
O451	O45	0.911900	0.628420	0.018510
O461	O46	0.652100	0.909000	0.143800
O471	O47	0.082300	0.680830	0.149000
O481	O48	0.854100	0.814100	0.180730
H151	H15	0.885000	0.590100	0.174000
H161	H16	0.853000	0.948000	0.239000
Zn91	Zn9	0.500000	0.250690	0.250000
Zn101	Zn10	0.000000	0.249310	0.750000
Zn111	Zn11	0.500000	0.749310	0.750000
Zn121	Zn12	0.000000	0.750690	0.250000
