data_IKUMAE_clean_PM
_symmetry_space_group_name_H-M	'P1'
_cell_length_a	11.134500
_cell_length_b	11.165900
_cell_length_c	12.691600
_cell_angle_alpha	88.067000
_cell_angle_beta	88.907000
_cell_angle_gamma	65.226000
_symmetry_Int_Tables_number 1

loop_
_symmetry_equiv_pos_as_xyz
'x,y,z'

loop_
_atom_site_label
_atom_site_type_symbol
_atom_site_fract_x
_atom_site_fract_y
_atom_site_fract_z
Cd11	Cd1	0.292680	0.761060	0.824590
O11	O1	0.081700	0.763100	0.882600
O21	O2	0.245500	0.571600	0.844400
N11	N1	0.228600	0.798500	0.648600
N21	N2	0.133100	0.819400	0.494200
N31	N3	0.306100	0.734000	0.173900
N41	N4	0.934100	0.813000	0.211500
N51	N5	0.313100	0.468200	0.300700
N61	N6	0.493400	0.319200	0.228900
N71	N7	0.789500	0.012300	0.162300
N81	N8	0.346000	0.725900	0.002300
C11	C1	0.158500	0.756000	0.589700
H11	H1	0.130500	0.691300	0.610900
C21	C2	0.248200	0.893900	0.588100
H21	H2	0.295300	0.940700	0.609200
C31	C3	0.188900	0.909100	0.494000
H31	H3	0.186000	0.968200	0.439600
C41	C4	0.060000	0.797000	0.407500
H41	H4	0.001600	0.881900	0.376800
H51	H5	0.005300	0.755300	0.436200
C51	C5	0.149000	0.710000	0.318400
C61	C6	0.230300	0.573800	0.371400
H61	H6	0.287300	0.584400	0.423700
H71	H7	0.169600	0.545200	0.408500
C71	C7	0.273200	0.398600	0.232200
H81	H8	0.186700	0.411200	0.219100
C81	C8	0.057200	0.695000	0.235200
H91	H9	0.107000	0.667000	0.170100
H101	H10	0.033000	0.645000	0.259000
C91	C9	0.810500	0.813600	0.220100
H111	H11	0.791000	0.743600	0.242900
C101	C10	0.236500	0.779000	0.274900
H121	H12	0.180700	0.872700	0.267100
H131	H13	0.302200	0.768400	0.327700
C111	C11	0.254900	0.772200	0.076700
H141	H14	0.166100	0.825000	0.063600
C121	C12	0.462800	0.656200	0.055400
H151	H15	0.545100	0.612200	0.023800
C131	C13	0.439200	0.661600	0.160500
H161	H16	0.501400	0.623400	0.213500
C141	C14	0.916200	0.935200	0.177500
H171	H17	0.984300	0.961700	0.166300
C151	C15	0.723000	0.935400	0.189200
H181	H18	0.631800	0.963300	0.186300
C161	C16	0.384900	0.308000	0.187600
H191	H19	0.387800	0.248000	0.137400
C171	C17	0.446400	0.415000	0.297000
H201	H20	0.498600	0.442400	0.337300
C181	C18	0.134400	0.638000	0.884900
C191	C19	0.063700	0.565700	0.942900
C201	C20	0.936100	0.634800	0.982900
H211	H21	0.893300	0.725700	0.971800
C211	C21	0.127000	0.430500	0.961200
H221	H22	0.212400	0.383600	0.935700
Cd21	Cd2	0.707320	0.238940	0.175410
O31	O3	0.918300	0.236900	0.117400
O41	O4	0.754500	0.428400	0.155600
N91	N9	0.771400	0.201500	0.351400
N101	N10	0.866900	0.180600	0.505800
N111	N11	0.693900	0.266000	0.826100
N121	N12	0.065900	0.187000	0.788500
N131	N13	0.686900	0.531800	0.699300
N141	N14	0.506600	0.680800	0.771100
N151	N15	0.210500	0.987700	0.837700
N161	N16	0.654000	0.274100	0.997700
C221	C22	0.841500	0.244000	0.410300
H231	H23	0.869500	0.308700	0.389100
C231	C23	0.751800	0.106100	0.411900
H241	H24	0.704700	0.059300	0.390800
C241	C24	0.811100	0.090900	0.506000
H251	H25	0.814000	0.031800	0.560400
C251	C25	0.940000	0.203000	0.592500
H261	H26	0.998400	0.118100	0.623200
H271	H27	0.994700	0.244700	0.563800
C261	C26	0.851000	0.290000	0.681600
C271	C27	0.769700	0.426200	0.628600
H281	H28	0.712700	0.415600	0.576300
H291	H29	0.830400	0.454800	0.591500
C281	C28	0.726800	0.601400	0.767800
H301	H30	0.813300	0.588800	0.780900
C291	C29	0.942800	0.305000	0.764800
H311	H31	0.893000	0.333000	0.829900
H321	H32	0.967000	0.355000	0.741000
C301	C30	0.189500	0.186400	0.779900
H331	H33	0.209000	0.256400	0.757100
C311	C31	0.763500	0.221000	0.725100
H341	H34	0.819300	0.127300	0.732900
H351	H35	0.697800	0.231600	0.672300
C321	C32	0.745100	0.227800	0.923300
H361	H36	0.833900	0.175000	0.936400
C331	C33	0.537200	0.343800	0.944600
H371	H37	0.454900	0.387800	0.976200
C341	C34	0.560800	0.338400	0.839500
H381	H38	0.498600	0.376600	0.786500
C351	C35	0.083800	0.064800	0.822500
H391	H39	0.015700	0.038300	0.833700
C361	C36	0.277000	0.064600	0.810800
H401	H40	0.368200	0.036700	0.813700
C371	C37	0.615100	0.692000	0.812400
H411	H41	0.612200	0.752000	0.862600
C381	C38	0.553600	0.585000	0.703000
H421	H42	0.501400	0.557600	0.662700
C391	C39	0.865600	0.362000	0.115100
C401	C40	0.936300	0.434300	0.057100
C411	C41	0.063900	0.365200	0.017100
H431	H43	0.106700	0.274300	0.028200
C421	C42	0.873000	0.569500	0.038800
H441	H44	0.787600	0.616400	0.064300
