data_IKUTIT_clean_PM
_symmetry_space_group_name_H-M	'P1'
_cell_length_a	10.585100
_cell_length_b	10.788300
_cell_length_c	12.872700
_cell_angle_alpha	73.878000
_cell_angle_beta	67.677000
_cell_angle_gamma	81.160000
_symmetry_Int_Tables_number 1

loop_
_symmetry_equiv_pos_as_xyz
'x,y,z'

loop_
_atom_site_label
_atom_site_type_symbol
_atom_site_fract_x
_atom_site_fract_y
_atom_site_fract_z
Dy11	Dy1	0.061450	0.034110	0.315580
C11	C1	0.967300	0.242100	0.491300
C21	C2	0.037000	0.256300	0.152200
C31	C3	0.750100	0.979800	0.545200
C41	C4	0.984700	0.376200	0.492900
C51	C5	0.019000	0.382500	0.074200
C61	C6	0.619800	0.989900	0.523900
C71	C7	0.068900	0.462000	0.396000
C81	C8	0.128200	0.464600	0.011900
C91	C9	0.495900	0.954900	0.614600
C101	C10	0.916800	0.416200	0.595400
H11	H1	0.860500	0.359700	0.659400
C111	C11	0.891800	0.418600	0.061700
H21	H2	0.819900	0.364100	0.103000
C121	C12	0.622000	0.034800	0.410600
H31	H3	0.704200	0.058400	0.350800
N11	N1	0.138600	0.430900	0.292710
H41	H4	0.189400	0.486200	0.235600
H51	H5	0.131900	0.356000	0.284500
N21	N2	0.254000	0.435100	0.018900
H61	H6	0.318200	0.487700	0.978700
H71	H7	0.269900	0.363700	0.063600
N31	N3	0.485900	0.910000	0.726610
H81	H8	0.408000	0.888900	0.779500
H91	H9	0.557400	0.902600	0.744800
O11	O1	0.020400	0.212490	0.394230
O21	O2	0.153400	0.222960	0.162490
O31	O3	0.860110	0.000180	0.460720
O41	O4	0.900700	0.167980	0.584510
O51	O5	0.937800	0.183870	0.209150
O61	O6	0.743300	0.950870	0.650140
Dy21	Dy2	0.938550	0.965890	0.684420
C131	C13	0.032700	0.757900	0.508700
C141	C14	0.963000	0.743700	0.847800
C151	C15	0.249900	0.020200	0.454800
C161	C16	0.015300	0.623800	0.507100
C171	C17	0.981000	0.617500	0.925800
C181	C18	0.380200	0.010100	0.476100
C191	C19	0.931100	0.538000	0.604000
C201	C20	0.871800	0.535400	0.988100
C211	C21	0.504100	0.045100	0.385400
C221	C22	0.083200	0.583800	0.404600
H101	H10	0.139500	0.640300	0.340600
C231	C23	0.108200	0.581400	0.938300
H111	H11	0.180100	0.635900	0.897000
C241	C24	0.378000	0.965200	0.589400
H121	H12	0.295800	0.941600	0.649200
N41	N4	0.861400	0.569100	0.707290
H131	H13	0.810600	0.513800	0.764400
H141	H14	0.868100	0.644000	0.715500
N51	N5	0.746000	0.564900	0.981100
H151	H15	0.681800	0.512300	0.021300
H161	H16	0.730100	0.636300	0.936400
N61	N6	0.514100	0.090000	0.273390
H171	H17	0.592000	0.111100	0.220500
H181	H18	0.442600	0.097400	0.255200
O71	O7	0.979600	0.787510	0.605770
O81	O8	0.846600	0.777040	0.837510
O91	O9	0.139890	0.999820	0.539280
O101	O10	0.099300	0.832020	0.415490
O111	O11	0.062200	0.816130	0.790850
O121	O12	0.256700	0.049130	0.349860
