data_IKUTUF_clean_PM
_symmetry_space_group_name_H-M	'P1'
_cell_length_a	24.590700
_cell_length_b	17.881100
_cell_length_c	25.076500
_cell_angle_alpha	90.000000
_cell_angle_beta	104.335000
_cell_angle_gamma	90.000000
_symmetry_Int_Tables_number 1

loop_
_symmetry_equiv_pos_as_xyz
'x,y,z'

loop_
_atom_site_label
_atom_site_type_symbol
_atom_site_fract_x
_atom_site_fract_y
_atom_site_fract_z
Dy11	Dy1	0.408380	0.423560	0.741790
Dy21	Dy2	0.715560	0.809030	0.056280
C11	C1	0.522570	0.593650	0.863470
C21	C2	0.510040	0.269610	0.869170
C31	C3	0.749550	0.564170	0.087440
C41	C4	0.577250	0.618120	0.884310
H11	H1	0.606200	0.595900	0.872100
C51	C5	0.457740	0.260220	0.880290
H21	H2	0.428200	0.291800	0.864200
C61	C6	0.712120	0.578980	0.119520
H31	H3	0.694100	0.625100	0.117000
C71	C7	0.589900	0.675900	0.923580
C81	C8	0.449730	0.203320	0.915680
C91	C9	0.701650	0.524580	0.155490
C101	C10	0.545620	0.708590	0.940940
H41	H4	0.552900	0.746900	0.966800
C111	C11	0.493470	0.155870	0.939720
H51	H5	0.487800	0.117200	0.962600
C121	C12	0.727570	0.455430	0.158610
H61	H6	0.720800	0.419300	0.182900
C131	C13	0.490680	0.684270	0.919720
C141	C14	0.545850	0.166540	0.929350
C151	C15	0.763730	0.440140	0.125320
C161	C16	0.478840	0.625800	0.881760
H71	H7	0.442300	0.608500	0.868800
C171	C17	0.554410	0.224560	0.894440
H81	H8	0.589800	0.232500	0.888400
C181	C18	0.775040	0.494890	0.089930
H91	H9	0.799700	0.484800	0.068000
C191	C19	0.509640	0.530660	0.821950
C201	C20	0.516720	0.326730	0.827170
C211	C21	0.761270	0.622030	0.047910
C221	C22	0.648970	0.701090	0.947300
C231	C23	0.392060	0.192120	0.925280
C241	C24	0.660350	0.539760	0.189690
C251	C25	0.444730	0.719600	0.937090
C261	C26	0.591900	0.117860	0.953370
C271	C27	0.788170	0.366420	0.126120
N11	N1	0.408040	0.745800	0.949930
N21	N2	0.628600	0.078390	0.971520
N31	N3	0.807340	0.307930	0.125860
O11	O1	0.460090	0.507970	0.808640
O21	O2	0.472190	0.348340	0.794580
O31	O3	0.745350	0.688320	0.051690
O41	O4	0.549770	0.507110	0.804090
O51	O5	0.565020	0.346290	0.825690
O61	O6	0.785880	0.600370	0.012160
O71	O7	0.687300	0.667800	0.932240
O81	O8	0.354120	0.238730	0.903560
O91	O9	0.626650	0.593020	0.175610
O101	O10	0.654470	0.754510	0.980260
O111	O11	0.383530	0.138220	0.954360
O121	O12	0.661770	0.499570	0.231520
Dy31	Dy3	0.908380	0.923560	0.741790
Dy41	Dy4	0.215560	0.309030	0.056280
C281	C28	0.022570	0.093650	0.863470
C291	C29	0.010040	0.769610	0.869170
C301	C30	0.249550	0.064170	0.087440
C311	C31	0.077250	0.118120	0.884310
H101	H10	0.106200	0.095900	0.872100
C321	C32	0.957740	0.760220	0.880290
H111	H11	0.928200	0.791800	0.864200
C331	C33	0.212120	0.078980	0.119520
H121	H12	0.194100	0.125100	0.117000
C341	C34	0.089900	0.175900	0.923580
C351	C35	0.949730	0.703320	0.915680
C361	C36	0.201650	0.024580	0.155490
C371	C37	0.045620	0.208590	0.940940
H131	H13	0.052900	0.246900	0.966800
C381	C38	0.993470	0.655870	0.939720
H141	H14	0.987800	0.617200	0.962600
C391	C39	0.227570	0.955430	0.158610
H151	H15	0.220800	0.919300	0.182900
C401	C40	0.990680	0.184270	0.919720
C411	C41	0.045850	0.666540	0.929350
C421	C42	0.263730	0.940140	0.125320
C431	C43	0.978840	0.125800	0.881760
H161	H16	0.942300	0.108500	0.868800
C441	C44	0.054410	0.724560	0.894440
H171	H17	0.089800	0.732500	0.888400
C451	C45	0.275040	0.994890	0.089930
H181	H18	0.299700	0.984800	0.068000
C461	C46	0.009640	0.030660	0.821950
C471	C47	0.016720	0.826730	0.827170
C481	C48	0.261270	0.122030	0.047910
C491	C49	0.148970	0.201090	0.947300
C501	C50	0.892060	0.692120	0.925280
C511	C51	0.160350	0.039760	0.189690
C521	C52	0.944730	0.219600	0.937090
C531	C53	0.091900	0.617860	0.953370
C541	C54	0.288170	0.866420	0.126120
N41	N4	0.908040	0.245800	0.949930
N51	N5	0.128600	0.578390	0.971520
N61	N6	0.307340	0.807930	0.125860
O131	O13	0.960090	0.007970	0.808640
O141	O14	0.972190	0.848340	0.794580
O151	O15	0.245350	0.188320	0.051690
O161	O16	0.049770	0.007110	0.804090
O171	O17	0.065020	0.846290	0.825690
O181	O18	0.285880	0.100370	0.012160
O191	O19	0.187300	0.167800	0.932240
O201	O20	0.854120	0.738730	0.903560
O211	O21	0.126650	0.093020	0.175610
O221	O22	0.154470	0.254510	0.980260
O231	O23	0.883530	0.638220	0.954360
O241	O24	0.161770	0.999570	0.231520
Dy51	Dy5	0.591620	0.423560	0.758210
Dy61	Dy6	0.284440	0.809030	0.443720
C551	C55	0.477430	0.593650	0.636530
C561	C56	0.489960	0.269610	0.630830
C571	C57	0.250450	0.564170	0.412560
C581	C58	0.422750	0.618120	0.615690
H191	H19	0.393800	0.595900	0.627900
C591	C59	0.542260	0.260220	0.619710
H201	H20	0.571800	0.291800	0.635800
C601	C60	0.287880	0.578980	0.380480
H211	H21	0.305900	0.625100	0.383000
C611	C61	0.410100	0.675900	0.576420
C621	C62	0.550270	0.203320	0.584320
C631	C63	0.298350	0.524580	0.344510
C641	C64	0.454380	0.708590	0.559060
H221	H22	0.447100	0.746900	0.533200
C651	C65	0.506530	0.155870	0.560280
H231	H23	0.512200	0.117200	0.537400
C661	C66	0.272430	0.455430	0.341390
H241	H24	0.279200	0.419300	0.317100
C671	C67	0.509320	0.684270	0.580280
C681	C68	0.454150	0.166540	0.570650
C691	C69	0.236270	0.440140	0.374680
C701	C70	0.521160	0.625800	0.618240
H251	H25	0.557700	0.608500	0.631200
C711	C71	0.445590	0.224560	0.605560
H261	H26	0.410200	0.232500	0.611600
C721	C72	0.224960	0.494890	0.410070
H271	H27	0.200300	0.484800	0.432000
C731	C73	0.490360	0.530660	0.678050
C741	C74	0.483280	0.326730	0.672830
C751	C75	0.238730	0.622030	0.452090
C761	C76	0.351030	0.701090	0.552700
C771	C77	0.607940	0.192120	0.574720
C781	C78	0.339650	0.539760	0.310310
C791	C79	0.555270	0.719600	0.562910
C801	C80	0.408100	0.117860	0.546630
C811	C81	0.211830	0.366420	0.373880
N71	N7	0.591960	0.745800	0.550070
N81	N8	0.371400	0.078390	0.528480
N91	N9	0.192660	0.307930	0.374140
O251	O25	0.539910	0.507970	0.691360
O261	O26	0.527810	0.348340	0.705420
O271	O27	0.254650	0.688320	0.448310
O281	O28	0.450230	0.507110	0.695910
O291	O29	0.434980	0.346290	0.674310
O301	O30	0.214120	0.600370	0.487840
O311	O31	0.312700	0.667800	0.567760
O321	O32	0.645880	0.238730	0.596440
O331	O33	0.373350	0.593020	0.324390
O341	O34	0.345530	0.754510	0.519740
O351	O35	0.616470	0.138220	0.545640
O361	O36	0.338230	0.499570	0.268480
Dy71	Dy7	0.091620	0.923560	0.758210
Dy81	Dy8	0.784440	0.309030	0.443720
C821	C82	0.977430	0.093650	0.636530
C831	C83	0.989960	0.769610	0.630830
C841	C84	0.750450	0.064170	0.412560
C851	C85	0.922750	0.118120	0.615690
H281	H28	0.893800	0.095900	0.627900
C861	C86	0.042260	0.760220	0.619710
H291	H29	0.071800	0.791800	0.635800
C871	C87	0.787880	0.078980	0.380480
H301	H30	0.805900	0.125100	0.383000
C881	C88	0.910100	0.175900	0.576420
C891	C89	0.050270	0.703320	0.584320
C901	C90	0.798350	0.024580	0.344510
C911	C91	0.954380	0.208590	0.559060
H311	H31	0.947100	0.246900	0.533200
C921	C92	0.006530	0.655870	0.560280
H321	H32	0.012200	0.617200	0.537400
C931	C93	0.772430	0.955430	0.341390
H331	H33	0.779200	0.919300	0.317100
C941	C94	0.009320	0.184270	0.580280
C951	C95	0.954150	0.666540	0.570650
C961	C96	0.736270	0.940140	0.374680
C971	C97	0.021160	0.125800	0.618240
H341	H34	0.057700	0.108500	0.631200
C981	C98	0.945590	0.724560	0.605560
H351	H35	0.910200	0.732500	0.611600
C991	C99	0.724960	0.994890	0.410070
H361	H36	0.700300	0.984800	0.432000
C1001	C100	0.990360	0.030660	0.678050
C1011	C101	0.983280	0.826730	0.672830
C1021	C102	0.738730	0.122030	0.452090
C1031	C103	0.851030	0.201090	0.552700
C1041	C104	0.107940	0.692120	0.574720
C1051	C105	0.839650	0.039760	0.310310
C1061	C106	0.055270	0.219600	0.562910
C1071	C107	0.908100	0.617860	0.546630
C1081	C108	0.711830	0.866420	0.373880
N101	N10	0.091960	0.245800	0.550070
N111	N11	0.871400	0.578390	0.528480
N121	N12	0.692660	0.807930	0.374140
O371	O37	0.039910	0.007970	0.691360
O381	O38	0.027810	0.848340	0.705420
O391	O39	0.754650	0.188320	0.448310
O401	O40	0.950230	0.007110	0.695910
O411	O41	0.934980	0.846290	0.674310
O421	O42	0.714120	0.100370	0.487840
O431	O43	0.812700	0.167800	0.567760
O441	O44	0.145880	0.738730	0.596440
O451	O45	0.873350	0.093020	0.324390
O461	O46	0.845530	0.254510	0.519740
O471	O47	0.116470	0.638220	0.545640
O481	O48	0.838230	0.999570	0.268480
Dy91	Dy9	0.591620	0.576440	0.258210
Dy101	Dy10	0.284440	0.190970	0.943720
C1091	C109	0.477430	0.406350	0.136530
C1101	C110	0.489960	0.730390	0.130830
C1111	C111	0.250450	0.435830	0.912560
C1121	C112	0.422750	0.381880	0.115690
H371	H37	0.393800	0.404100	0.127900
C1131	C113	0.542260	0.739780	0.119710
H381	H38	0.571800	0.708200	0.135800
C1141	C114	0.287880	0.421020	0.880480
H391	H39	0.305900	0.374900	0.883000
C1151	C115	0.410100	0.324100	0.076420
C1161	C116	0.550270	0.796680	0.084320
C1171	C117	0.298350	0.475420	0.844510
C1181	C118	0.454380	0.291410	0.059060
H401	H40	0.447100	0.253100	0.033200
C1191	C119	0.506530	0.844130	0.060280
H411	H41	0.512200	0.882800	0.037400
C1201	C120	0.272430	0.544570	0.841390
H421	H42	0.279200	0.580700	0.817100
C1211	C121	0.509320	0.315730	0.080280
C1221	C122	0.454150	0.833460	0.070650
C1231	C123	0.236270	0.559860	0.874680
C1241	C124	0.521160	0.374200	0.118240
H431	H43	0.557700	0.391500	0.131200
C1251	C125	0.445590	0.775440	0.105560
H441	H44	0.410200	0.767500	0.111600
C1261	C126	0.224960	0.505110	0.910070
H451	H45	0.200300	0.515200	0.932000
C1271	C127	0.490360	0.469340	0.178050
C1281	C128	0.483280	0.673270	0.172830
C1291	C129	0.238730	0.377970	0.952090
C1301	C130	0.351030	0.298910	0.052700
C1311	C131	0.607940	0.807880	0.074720
C1321	C132	0.339650	0.460240	0.810310
C1331	C133	0.555270	0.280400	0.062910
C1341	C134	0.408100	0.882140	0.046630
C1351	C135	0.211830	0.633580	0.873880
N131	N13	0.591960	0.254200	0.050070
N141	N14	0.371400	0.921610	0.028480
N151	N15	0.192660	0.692070	0.874140
O491	O49	0.539910	0.492030	0.191360
O501	O50	0.527810	0.651660	0.205420
O511	O51	0.254650	0.311680	0.948310
O521	O52	0.450230	0.492890	0.195910
O531	O53	0.434980	0.653710	0.174310
O541	O54	0.214120	0.399630	0.987840
O551	O55	0.312700	0.332200	0.067760
O561	O56	0.645880	0.761270	0.096440
O571	O57	0.373350	0.406980	0.824390
O581	O58	0.345530	0.245490	0.019740
O591	O59	0.616470	0.861780	0.045640
O601	O60	0.338230	0.500430	0.768480
Dy111	Dy11	0.091620	0.076440	0.258210
Dy121	Dy12	0.784440	0.690970	0.943720
C1361	C136	0.977430	0.906350	0.136530
C1371	C137	0.989960	0.230390	0.130830
C1381	C138	0.750450	0.935830	0.912560
C1391	C139	0.922750	0.881880	0.115690
H461	H46	0.893800	0.904100	0.127900
C1401	C140	0.042260	0.239780	0.119710
H471	H47	0.071800	0.208200	0.135800
C1411	C141	0.787880	0.921020	0.880480
H481	H48	0.805900	0.874900	0.883000
C1421	C142	0.910100	0.824100	0.076420
C1431	C143	0.050270	0.296680	0.084320
C1441	C144	0.798350	0.975420	0.844510
C1451	C145	0.954380	0.791410	0.059060
H491	H49	0.947100	0.753100	0.033200
C1461	C146	0.006530	0.344130	0.060280
H501	H50	0.012200	0.382800	0.037400
C1471	C147	0.772430	0.044570	0.841390
H511	H51	0.779200	0.080700	0.817100
C1481	C148	0.009320	0.815730	0.080280
C1491	C149	0.954150	0.333460	0.070650
C1501	C150	0.736270	0.059860	0.874680
C1511	C151	0.021160	0.874200	0.118240
H521	H52	0.057700	0.891500	0.131200
C1521	C152	0.945590	0.275440	0.105560
H531	H53	0.910200	0.267500	0.111600
C1531	C153	0.724960	0.005110	0.910070
H541	H54	0.700300	0.015200	0.932000
C1541	C154	0.990360	0.969340	0.178050
C1551	C155	0.983280	0.173270	0.172830
C1561	C156	0.738730	0.877970	0.952090
C1571	C157	0.851030	0.798910	0.052700
C1581	C158	0.107940	0.307880	0.074720
C1591	C159	0.839650	0.960240	0.810310
C1601	C160	0.055270	0.780400	0.062910
C1611	C161	0.908100	0.382140	0.046630
C1621	C162	0.711830	0.133580	0.873880
N161	N16	0.091960	0.754200	0.050070
N171	N17	0.871400	0.421610	0.028480
N181	N18	0.692660	0.192070	0.874140
O611	O61	0.039910	0.992030	0.191360
O621	O62	0.027810	0.151660	0.205420
O631	O63	0.754650	0.811680	0.948310
O641	O64	0.950230	0.992890	0.195910
O651	O65	0.934980	0.153710	0.174310
O661	O66	0.714120	0.899630	0.987840
O671	O67	0.812700	0.832200	0.067760
O681	O68	0.145880	0.261270	0.096440
O691	O69	0.873350	0.906980	0.824390
O701	O70	0.845530	0.745490	0.019740
O711	O71	0.116470	0.361780	0.045640
O721	O72	0.838230	0.000430	0.768480
Dy131	Dy13	0.408380	0.576440	0.241790
Dy141	Dy14	0.715560	0.190970	0.556280
C1631	C163	0.522570	0.406350	0.363470
C1641	C164	0.510040	0.730390	0.369170
C1651	C165	0.749550	0.435830	0.587440
C1661	C166	0.577250	0.381880	0.384310
H551	H55	0.606200	0.404100	0.372100
C1671	C167	0.457740	0.739780	0.380290
H561	H56	0.428200	0.708200	0.364200
C1681	C168	0.712120	0.421020	0.619520
H571	H57	0.694100	0.374900	0.617000
C1691	C169	0.589900	0.324100	0.423580
C1701	C170	0.449730	0.796680	0.415680
C1711	C171	0.701650	0.475420	0.655490
C1721	C172	0.545620	0.291410	0.440940
H581	H58	0.552900	0.253100	0.466800
C1731	C173	0.493470	0.844130	0.439720
H591	H59	0.487800	0.882800	0.462600
C1741	C174	0.727570	0.544570	0.658610
H601	H60	0.720800	0.580700	0.682900
C1751	C175	0.490680	0.315730	0.419720
C1761	C176	0.545850	0.833460	0.429350
C1771	C177	0.763730	0.559860	0.625320
C1781	C178	0.478840	0.374200	0.381760
H611	H61	0.442300	0.391500	0.368800
C1791	C179	0.554410	0.775440	0.394440
H621	H62	0.589800	0.767500	0.388400
C1801	C180	0.775040	0.505110	0.589930
H631	H63	0.799700	0.515200	0.568000
C1811	C181	0.509640	0.469340	0.321950
C1821	C182	0.516720	0.673270	0.327170
C1831	C183	0.761270	0.377970	0.547910
C1841	C184	0.648970	0.298910	0.447300
C1851	C185	0.392060	0.807880	0.425280
C1861	C186	0.660350	0.460240	0.689690
C1871	C187	0.444730	0.280400	0.437090
C1881	C188	0.591900	0.882140	0.453370
C1891	C189	0.788170	0.633580	0.626120
N191	N19	0.408040	0.254200	0.449930
N201	N20	0.628600	0.921610	0.471520
N211	N21	0.807340	0.692070	0.625860
O731	O73	0.460090	0.492030	0.308640
O741	O74	0.472190	0.651660	0.294580
O751	O75	0.745350	0.311680	0.551690
O761	O76	0.549770	0.492890	0.304090
O771	O77	0.565020	0.653710	0.325690
O781	O78	0.785880	0.399630	0.512160
O791	O79	0.687300	0.332200	0.432240
O801	O80	0.354120	0.761270	0.403560
O811	O81	0.626650	0.406980	0.675610
O821	O82	0.654470	0.245490	0.480260
O831	O83	0.383530	0.861780	0.454360
O841	O84	0.661770	0.500430	0.731520
Dy151	Dy15	0.908380	0.076440	0.241790
Dy161	Dy16	0.215560	0.690970	0.556280
C1901	C190	0.022570	0.906350	0.363470
C1911	C191	0.010040	0.230390	0.369170
C1921	C192	0.249550	0.935830	0.587440
C1931	C193	0.077250	0.881880	0.384310
H641	H64	0.106200	0.904100	0.372100
C1941	C194	0.957740	0.239780	0.380290
H651	H65	0.928200	0.208200	0.364200
C1951	C195	0.212120	0.921020	0.619520
H661	H66	0.194100	0.874900	0.617000
C1961	C196	0.089900	0.824100	0.423580
C1971	C197	0.949730	0.296680	0.415680
C1981	C198	0.201650	0.975420	0.655490
C1991	C199	0.045620	0.791410	0.440940
H671	H67	0.052900	0.753100	0.466800
C2001	C200	0.993470	0.344130	0.439720
H681	H68	0.987800	0.382800	0.462600
C2011	C201	0.227570	0.044570	0.658610
H691	H69	0.220800	0.080700	0.682900
C2021	C202	0.990680	0.815730	0.419720
C2031	C203	0.045850	0.333460	0.429350
C2041	C204	0.263730	0.059860	0.625320
C2051	C205	0.978840	0.874200	0.381760
H701	H70	0.942300	0.891500	0.368800
C2061	C206	0.054410	0.275440	0.394440
H711	H71	0.089800	0.267500	0.388400
C2071	C207	0.275040	0.005110	0.589930
H721	H72	0.299700	0.015200	0.568000
C2081	C208	0.009640	0.969340	0.321950
C2091	C209	0.016720	0.173270	0.327170
C2101	C210	0.261270	0.877970	0.547910
C2111	C211	0.148970	0.798910	0.447300
C2121	C212	0.892060	0.307880	0.425280
C2131	C213	0.160350	0.960240	0.689690
C2141	C214	0.944730	0.780400	0.437090
C2151	C215	0.091900	0.382140	0.453370
C2161	C216	0.288170	0.133580	0.626120
N221	N22	0.908040	0.754200	0.449930
N231	N23	0.128600	0.421610	0.471520
N241	N24	0.307340	0.192070	0.625860
O851	O85	0.960090	0.992030	0.308640
O861	O86	0.972190	0.151660	0.294580
O871	O87	0.245350	0.811680	0.551690
O881	O88	0.049770	0.992890	0.304090
O891	O89	0.065020	0.153710	0.325690
O901	O90	0.285880	0.899630	0.512160
O911	O91	0.187300	0.832200	0.432240
O921	O92	0.854120	0.261270	0.403560
O931	O93	0.126650	0.906980	0.675610
O941	O94	0.154470	0.745490	0.480260
O951	O95	0.883530	0.361780	0.454360
O961	O96	0.161770	0.000430	0.731520
