data_ILASUL_clean_PM
_symmetry_space_group_name_H-M	'P1'
_cell_length_a	13.884800
_cell_length_b	7.902600
_cell_length_c	13.831400
_cell_angle_alpha	90.000000
_cell_angle_beta	108.210000
_cell_angle_gamma	90.000000
_symmetry_Int_Tables_number 1

loop_
_symmetry_equiv_pos_as_xyz
'x,y,z'

loop_
_atom_site_label
_atom_site_type_symbol
_atom_site_fract_x
_atom_site_fract_y
_atom_site_fract_z
N11	N1	0.436600	0.177000	0.436300
N21	N2	0.656000	0.940600	0.301800
N31	N3	0.661000	0.414900	0.403000
C11	C1	0.633400	0.205800	0.040100
C21	C2	0.807500	0.041900	0.061400
C31	C3	0.690000	0.131600	0.876100
N41	N4	0.936600	0.677000	0.436300
N51	N5	0.156000	0.440600	0.301800
N61	N6	0.161000	0.914900	0.403000
C41	C4	0.133400	0.705800	0.040100
C51	C5	0.307500	0.541900	0.061400
C61	C6	0.190000	0.631600	0.876100
N71	N7	0.563400	0.177000	0.063700
N81	N8	0.344000	0.940600	0.198200
N91	N9	0.339000	0.414900	0.097000
C71	C7	0.366600	0.205800	0.459900
C81	C8	0.192500	0.041900	0.438600
C91	C9	0.310000	0.131600	0.623900
N101	N10	0.063400	0.677000	0.063700
N111	N11	0.844000	0.440600	0.198200
N121	N12	0.839000	0.914900	0.097000
C101	C10	0.866600	0.705800	0.459900
C111	C11	0.692500	0.541900	0.438600
C121	C12	0.810000	0.631600	0.623900
N131	N13	0.563400	0.823000	0.563700
N141	N14	0.344000	0.059400	0.698200
N151	N15	0.339000	0.585100	0.597000
C131	C13	0.366600	0.794200	0.959900
C141	C14	0.192500	0.958100	0.938600
C151	C15	0.310000	0.868400	0.123900
N161	N16	0.063400	0.323000	0.563700
N171	N17	0.844000	0.559400	0.698200
N181	N18	0.839000	0.085100	0.597000
C161	C16	0.866600	0.294200	0.959900
C171	C17	0.692500	0.458100	0.938600
C181	C18	0.810000	0.368400	0.123900
N191	N19	0.436600	0.823000	0.936300
N201	N20	0.656000	0.059400	0.801800
N211	N21	0.661000	0.585100	0.903000
C191	C19	0.633400	0.794200	0.540100
C201	C20	0.807500	0.958100	0.561400
C211	C21	0.690000	0.868400	0.376100
N221	N22	0.936600	0.323000	0.936300
N231	N23	0.156000	0.559400	0.801800
N241	N24	0.161000	0.085100	0.903000
C221	C22	0.133400	0.294200	0.540100
C231	C23	0.307500	0.458100	0.561400
C241	C24	0.190000	0.368400	0.376100
Rb11	Rb1	0.500000	0.211320	0.250000
Rb21	Rb2	0.000000	0.711320	0.250000
Rb31	Rb3	0.500000	0.788680	0.750000
Rb41	Rb4	0.000000	0.288680	0.750000
Co11	Co1	0.750000	0.250000	0.000000
Co21	Co2	0.250000	0.250000	0.500000
Co31	Co3	0.250000	0.750000	0.000000
Co41	Co4	0.750000	0.750000	0.500000
