data_ILENOC_clean_PM
_symmetry_space_group_name_H-M	'P1'
_cell_length_a	19.569000
_cell_length_b	9.703400
_cell_length_c	14.927000
_cell_angle_alpha	90.000000
_cell_angle_beta	119.091000
_cell_angle_gamma	90.000000
_symmetry_Int_Tables_number 1

loop_
_symmetry_equiv_pos_as_xyz
'x,y,z'

loop_
_atom_site_label
_atom_site_type_symbol
_atom_site_fract_x
_atom_site_fract_y
_atom_site_fract_z
P11	P1	0.422520	0.260090	0.574300
P21	P2	0.626540	0.700390	0.963680
O11	O1	0.709700	0.647900	0.027800
O21	O2	0.628300	0.859000	0.966300
O31	O3	0.589600	0.653600	0.852700
O41	O4	0.437000	0.339100	0.668300
O51	O5	0.578600	0.655300	0.014300
O61	O6	0.417800	0.350300	0.489400
O71	O7	0.482200	0.147000	0.597800
O81	O8	0.342000	0.192000	0.532100
H11	H1	0.310400	0.248600	0.531000
P31	P3	0.922520	0.760090	0.574300
P41	P4	0.126540	0.200390	0.963680
O91	O9	0.209700	0.147900	0.027800
O101	O10	0.128300	0.359000	0.966300
O111	O11	0.089600	0.153600	0.852700
O121	O12	0.937000	0.839100	0.668300
O131	O13	0.078600	0.155300	0.014300
O141	O14	0.917800	0.850300	0.489400
O151	O15	0.982200	0.647000	0.597800
O161	O16	0.842000	0.692000	0.532100
H21	H2	0.810400	0.748600	0.531000
P51	P5	0.577480	0.260090	0.425700
P61	P6	0.373460	0.700390	0.036320
O171	O17	0.290300	0.647900	0.972200
O181	O18	0.371700	0.859000	0.033700
O191	O19	0.410400	0.653600	0.147300
O201	O20	0.563000	0.339100	0.331700
O211	O21	0.421400	0.655300	0.985700
O221	O22	0.582200	0.350300	0.510600
O231	O23	0.517800	0.147000	0.402200
O241	O24	0.658000	0.192000	0.467900
H31	H3	0.689600	0.248600	0.469000
P71	P7	0.077480	0.760090	0.425700
P81	P8	0.873460	0.200390	0.036320
O251	O25	0.790300	0.147900	0.972200
O261	O26	0.871700	0.359000	0.033700
O271	O27	0.910400	0.153600	0.147300
O281	O28	0.063000	0.839100	0.331700
O291	O29	0.921400	0.155300	0.985700
O301	O30	0.082200	0.850300	0.510600
O311	O31	0.017800	0.647000	0.402200
O321	O32	0.158000	0.692000	0.467900
H41	H4	0.189600	0.748600	0.469000
P91	P9	0.577480	0.739910	0.425700
P101	P10	0.373460	0.299610	0.036320
O331	O33	0.290300	0.352100	0.972200
O341	O34	0.371700	0.141000	0.033700
O351	O35	0.410400	0.346400	0.147300
O361	O36	0.563000	0.660900	0.331700
O371	O37	0.421400	0.344700	0.985700
O381	O38	0.582200	0.649700	0.510600
O391	O39	0.517800	0.853000	0.402200
O401	O40	0.658000	0.808000	0.467900
H51	H5	0.689600	0.751400	0.469000
P111	P11	0.077480	0.239910	0.425700
P121	P12	0.873460	0.799610	0.036320
O411	O41	0.790300	0.852100	0.972200
O421	O42	0.871700	0.641000	0.033700
O431	O43	0.910400	0.846400	0.147300
O441	O44	0.063000	0.160900	0.331700
O451	O45	0.921400	0.844700	0.985700
O461	O46	0.082200	0.149700	0.510600
O471	O47	0.017800	0.353000	0.402200
O481	O48	0.158000	0.308000	0.467900
H61	H6	0.189600	0.251400	0.469000
P131	P13	0.422520	0.739910	0.574300
P141	P14	0.626540	0.299610	0.963680
O491	O49	0.709700	0.352100	0.027800
O501	O50	0.628300	0.141000	0.966300
O511	O51	0.589600	0.346400	0.852700
O521	O52	0.437000	0.660900	0.668300
O531	O53	0.578600	0.344700	0.014300
O541	O54	0.417800	0.649700	0.489400
O551	O55	0.482200	0.853000	0.597800
O561	O56	0.342000	0.808000	0.532100
H71	H7	0.310400	0.751400	0.531000
P151	P15	0.922520	0.239910	0.574300
P161	P16	0.126540	0.799610	0.963680
O571	O57	0.209700	0.852100	0.027800
O581	O58	0.128300	0.641000	0.966300
O591	O59	0.089600	0.846400	0.852700
O601	O60	0.937000	0.160900	0.668300
O611	O61	0.078600	0.844700	0.014300
O621	O62	0.917800	0.149700	0.489400
O631	O63	0.982200	0.353000	0.597800
O641	O64	0.842000	0.308000	0.532100
H81	H8	0.810400	0.251400	0.531000
In11	In1	0.782060	0.500000	0.013920
In21	In2	0.512240	0.500000	0.760730
F11	F1	0.734300	0.500000	0.856700
F21	F2	0.836700	0.500000	0.179500
F31	F3	0.446800	0.500000	0.838100
F41	F4	0.561900	0.500000	0.662100
In31	In3	0.282060	0.000000	0.013920
In41	In4	0.012240	0.000000	0.760730
F51	F5	0.234300	0.000000	0.856700
F61	F6	0.336700	0.000000	0.179500
F71	F7	0.946800	0.000000	0.838100
F81	F8	0.061900	0.000000	0.662100
In51	In5	0.217940	0.500000	0.986080
In61	In6	0.487760	0.500000	0.239270
F91	F9	0.265700	0.500000	0.143300
F101	F10	0.163300	0.500000	0.820500
F111	F11	0.553200	0.500000	0.161900
F121	F12	0.438100	0.500000	0.337900
In71	In7	0.717940	0.000000	0.986080
In81	In8	0.987760	0.000000	0.239270
F131	F13	0.765700	0.000000	0.143300
F141	F14	0.663300	0.000000	0.820500
F151	F15	0.053200	0.000000	0.161900
F161	F16	0.938100	0.000000	0.337900
In91	In9	0.500000	0.500000	0.000000
In101	In10	0.000000	0.000000	0.000000
In111	In11	0.500000	0.500000	0.500000
In121	In12	0.000000	0.000000	0.500000
In131	In13	0.500000	0.000000	0.500000
In141	In14	0.000000	0.500000	0.500000
