data_ILIMOH_clean_PM
_symmetry_space_group_name_H-M	'P1'
_cell_length_a	27.737100
_cell_length_b	27.737100
_cell_length_c	9.622500
_cell_angle_alpha	90.000000
_cell_angle_beta	90.000000
_cell_angle_gamma	120.000000
_symmetry_Int_Tables_number 1

loop_
_symmetry_equiv_pos_as_xyz
'x,y,z'

loop_
_atom_site_label
_atom_site_type_symbol
_atom_site_fract_x
_atom_site_fract_y
_atom_site_fract_z
N11	N1	0.791500	0.720700	0.890000
N21	N2	0.802800	0.680700	0.843200
N31	N3	0.765900	0.653400	0.056000
N41	N4	0.818900	0.596600	0.794900
N51	N5	0.710100	0.792500	0.245200
C11	C1	0.830900	0.556200	0.768300
H11	H1	0.845800	0.555500	0.682200
C21	C2	0.821800	0.515800	0.864400
H21	H2	0.830300	0.488300	0.842500
C31	C3	0.800400	0.516000	0.991200
H31	H3	0.794400	0.488900	0.056800
C41	C4	0.787800	0.556800	0.020900
H41	H4	0.773200	0.557900	0.107100
C51	C5	0.797100	0.595900	0.921600
C61	C6	0.787500	0.642900	0.942000
C71	C7	0.769300	0.701800	0.015300
C81	C8	0.741800	0.813400	0.132600
H51	H5	0.750800	0.848900	0.103900
C91	C9	0.761600	0.785900	0.057800
H61	H6	0.782800	0.802200	0.978500
C101	C10	0.750400	0.733500	0.099100
C111	C11	0.718900	0.712000	0.216300
H71	H7	0.711000	0.677300	0.249100
C121	C12	0.699000	0.741900	0.285600
H81	H8	0.676900	0.726100	0.363800
N61	N6	0.458170	0.054030	0.223330
N71	N7	0.469470	0.014030	0.176530
N81	N8	0.432570	0.986730	0.389330
N91	N9	0.485570	0.929930	0.128230
N101	N10	0.376770	0.125830	0.578530
C131	C13	0.497570	0.889530	0.101630
H91	H9	0.512470	0.888830	0.015530
C141	C14	0.488470	0.849130	0.197730
H101	H10	0.496970	0.821630	0.175830
C151	C15	0.467070	0.849330	0.324530
H111	H11	0.461070	0.822230	0.390130
C161	C16	0.454470	0.890130	0.354230
H121	H12	0.439870	0.891230	0.440430
C171	C17	0.463770	0.929230	0.254930
C181	C18	0.454170	0.976230	0.275330
C191	C19	0.435970	0.035130	0.348630
C201	C20	0.408470	0.146730	0.465930
H131	H13	0.417470	0.182230	0.437230
C211	C21	0.428270	0.119230	0.391130
H141	H14	0.449470	0.135530	0.311830
C221	C22	0.417070	0.066830	0.432430
C231	C23	0.385570	0.045330	0.549630
H151	H15	0.377670	0.010630	0.582430
C241	C24	0.365670	0.075230	0.618930
H161	H16	0.343570	0.059430	0.697130
N111	N11	0.124830	0.387370	0.556670
N121	N12	0.136130	0.347370	0.509870
N131	N13	0.099230	0.320070	0.722670
N141	N14	0.152230	0.263270	0.461570
N151	N15	0.043430	0.459170	0.911870
C251	C25	0.164230	0.222870	0.434970
H171	H17	0.179130	0.222170	0.348870
C261	C26	0.155130	0.182470	0.531070
H181	H18	0.163630	0.154970	0.509170
C271	C27	0.133730	0.182670	0.657870
H191	H19	0.127730	0.155570	0.723470
C281	C28	0.121130	0.223470	0.687570
H201	H20	0.106530	0.224570	0.773770
C291	C29	0.130430	0.262570	0.588270
C301	C30	0.120830	0.309570	0.608670
C311	C31	0.102630	0.368470	0.681970
C321	C32	0.075130	0.480070	0.799270
H211	H21	0.084130	0.515570	0.770570
C331	C33	0.094930	0.452570	0.724470
H221	H22	0.116130	0.468870	0.645170
C341	C34	0.083730	0.400170	0.765770
C351	C35	0.052230	0.378670	0.882970
H231	H23	0.044330	0.343970	0.915770
C361	C36	0.032330	0.408570	0.952270
H241	H24	0.010230	0.392770	0.030470
N161	N16	0.279300	0.070800	0.890000
N171	N17	0.319300	0.122100	0.843200
N181	N18	0.346600	0.112500	0.056000
N191	N19	0.403400	0.222300	0.794900
N201	N20	0.207500	0.917600	0.245200
C371	C37	0.443800	0.274700	0.768300
H251	H25	0.444500	0.290300	0.682200
C381	C38	0.484200	0.306000	0.864400
H261	H26	0.511700	0.342000	0.842500
C391	C39	0.484000	0.284400	0.991200
H271	H27	0.511100	0.305500	0.056800
C401	C40	0.443200	0.231000	0.020900
H281	H28	0.442100	0.215300	0.107100
C411	C41	0.404100	0.201200	0.921600
C421	C42	0.357100	0.144600	0.942000
C431	C43	0.298200	0.067500	0.015300
C441	C44	0.186600	0.928400	0.132600
H291	H29	0.151100	0.901900	0.103900
C451	C45	0.214100	0.975700	0.057800
H301	H30	0.197800	0.980600	0.978500
C461	C46	0.266500	0.016900	0.099100
C471	C47	0.288000	0.006900	0.216300
H311	H31	0.322700	0.033700	0.249100
C481	C48	0.258100	0.957100	0.285600
H321	H32	0.273900	0.950800	0.363800
N211	N21	0.945970	0.404130	0.223330
N221	N22	0.985970	0.455430	0.176530
N231	N23	0.013270	0.445830	0.389330
N241	N24	0.070070	0.555630	0.128230
N251	N25	0.874170	0.250930	0.578530
C491	C49	0.110470	0.608030	0.101630
H331	H33	0.111170	0.623630	0.015530
C501	C50	0.150870	0.639330	0.197730
H341	H34	0.178370	0.675330	0.175830
C511	C51	0.150670	0.617730	0.324530
H351	H35	0.177770	0.638830	0.390130
C521	C52	0.109870	0.564330	0.354230
H361	H36	0.108770	0.548630	0.440430
C531	C53	0.070770	0.534530	0.254930
C541	C54	0.023770	0.477930	0.275330
C551	C55	0.964870	0.400830	0.348630
C561	C56	0.853270	0.261730	0.465930
H371	H37	0.817770	0.235230	0.437230
C571	C57	0.880770	0.309030	0.391130
H381	H38	0.864470	0.313930	0.311830
C581	C58	0.933170	0.350230	0.432430
C591	C59	0.954670	0.340230	0.549630
H391	H39	0.989370	0.367030	0.582430
C601	C60	0.924770	0.290430	0.618930
H401	H40	0.940570	0.284130	0.697130
N261	N26	0.612630	0.737470	0.556670
N271	N27	0.652630	0.788770	0.509870
N281	N28	0.679930	0.779170	0.722670
N291	N29	0.736730	0.888970	0.461570
N301	N30	0.540830	0.584270	0.911870
C611	C61	0.777130	0.941370	0.434970
H411	H41	0.777830	0.956970	0.348870
C621	C62	0.817530	0.972670	0.531070
H421	H42	0.845030	0.008670	0.509170
C631	C63	0.817330	0.951070	0.657870
H431	H43	0.844430	0.972170	0.723470
C641	C64	0.776530	0.897670	0.687570
H441	H44	0.775430	0.881970	0.773770
C651	C65	0.737430	0.867870	0.588270
C661	C66	0.690430	0.811270	0.608670
C671	C67	0.631530	0.734170	0.681970
C681	C68	0.519930	0.595070	0.799270
H451	H45	0.484430	0.568570	0.770570
C691	C69	0.547430	0.642370	0.724470
H461	H46	0.531130	0.647270	0.645170
C701	C70	0.599830	0.683570	0.765770
C711	C71	0.621330	0.673570	0.882970
H471	H47	0.656030	0.700370	0.915770
C721	C72	0.591430	0.623770	0.952270
H481	H48	0.607230	0.617470	0.030470
N311	N31	0.929200	0.208500	0.890000
N321	N32	0.877900	0.197200	0.843200
N331	N33	0.887500	0.234100	0.056000
N341	N34	0.777700	0.181100	0.794900
N351	N35	0.082400	0.289900	0.245200
C731	C73	0.725300	0.169100	0.768300
H491	H49	0.709700	0.154200	0.682200
C741	C74	0.694000	0.178200	0.864400
H501	H50	0.658000	0.169700	0.842500
C751	C75	0.715600	0.199600	0.991200
H511	H51	0.694500	0.205600	0.056800
C761	C76	0.769000	0.212200	0.020900
H521	H52	0.784700	0.226800	0.107100
C771	C77	0.798800	0.202900	0.921600
C781	C78	0.855400	0.212500	0.942000
C791	C79	0.932500	0.230700	0.015300
C801	C80	0.071600	0.258200	0.132600
H531	H53	0.098100	0.249200	0.103900
C811	C81	0.024300	0.238400	0.057800
H541	H54	0.019400	0.217200	0.978500
C821	C82	0.983100	0.249600	0.099100
C831	C83	0.993100	0.281100	0.216300
H551	H55	0.966300	0.289000	0.249100
C841	C84	0.042900	0.301000	0.285600
H561	H56	0.049200	0.323100	0.363800
N361	N36	0.595870	0.541830	0.223330
N371	N37	0.544570	0.530530	0.176530
N381	N38	0.554170	0.567430	0.389330
N391	N39	0.444370	0.514430	0.128230
N401	N40	0.749070	0.623230	0.578530
C851	C85	0.391970	0.502430	0.101630
H571	H57	0.376370	0.487530	0.015530
C861	C86	0.360670	0.511530	0.197730
H581	H58	0.324670	0.503030	0.175830
C871	C87	0.382270	0.532930	0.324530
H591	H59	0.361170	0.538930	0.390130
C881	C88	0.435670	0.545530	0.354230
H601	H60	0.451370	0.560130	0.440430
C891	C89	0.465470	0.536230	0.254930
C901	C90	0.522070	0.545830	0.275330
C911	C91	0.599170	0.564030	0.348630
C921	C92	0.738270	0.591530	0.465930
H611	H61	0.764770	0.582530	0.437230
C931	C93	0.690970	0.571730	0.391130
H621	H62	0.686070	0.550530	0.311830
C941	C94	0.649770	0.582930	0.432430
C951	C95	0.659770	0.614430	0.549630
H631	H63	0.632970	0.622330	0.582430
C961	C96	0.709570	0.634330	0.618930
H641	H64	0.715870	0.656430	0.697130
N411	N41	0.262530	0.875170	0.556670
N421	N42	0.211230	0.863870	0.509870
N431	N43	0.220830	0.900770	0.722670
N441	N44	0.111030	0.847770	0.461570
N451	N45	0.415730	0.956570	0.911870
C971	C97	0.058630	0.835770	0.434970
H651	H65	0.043030	0.820870	0.348870
C981	C98	0.027330	0.844870	0.531070
H661	H66	0.991330	0.836370	0.509170
C991	C99	0.048930	0.866270	0.657870
H671	H67	0.027830	0.872270	0.723470
C1001	C100	0.102330	0.878870	0.687570
H681	H68	0.118030	0.893470	0.773770
C1011	C101	0.132130	0.869570	0.588270
C1021	C102	0.188730	0.879170	0.608670
C1031	C103	0.265830	0.897370	0.681970
C1041	C104	0.404930	0.924870	0.799270
H691	H69	0.431430	0.915870	0.770570
C1051	C105	0.357630	0.905070	0.724470
H701	H70	0.352730	0.883870	0.645170
C1061	C106	0.316430	0.916270	0.765770
C1071	C107	0.326430	0.947770	0.882970
H711	H71	0.299630	0.955670	0.915770
C1081	C108	0.376230	0.967670	0.952270
H721	H72	0.382530	0.989770	0.030470
N461	N46	0.208500	0.279300	0.110000
N471	N47	0.197200	0.319300	0.156800
N481	N48	0.234100	0.346600	0.944000
N491	N49	0.181100	0.403400	0.205100
N501	N50	0.289900	0.207500	0.754800
C1091	C109	0.169100	0.443800	0.231700
H731	H73	0.154200	0.444500	0.317800
C1101	C110	0.178200	0.484200	0.135600
H741	H74	0.169700	0.511700	0.157500
C1111	C111	0.199600	0.484000	0.008800
H751	H75	0.205600	0.511100	0.943200
C1121	C112	0.212200	0.443200	0.979100
H761	H76	0.226800	0.442100	0.892900
C1131	C113	0.202900	0.404100	0.078400
C1141	C114	0.212500	0.357100	0.058000
C1151	C115	0.230700	0.298200	0.984700
C1161	C116	0.258200	0.186600	0.867400
H771	H77	0.249200	0.151100	0.896100
C1171	C117	0.238400	0.214100	0.942200
H781	H78	0.217200	0.197800	0.021500
C1181	C118	0.249600	0.266500	0.900900
C1191	C119	0.281100	0.288000	0.783700
H791	H79	0.289000	0.322700	0.750900
C1201	C120	0.301000	0.258100	0.714400
H801	H80	0.323100	0.273900	0.636200
N511	N51	0.875170	0.612630	0.443330
N521	N52	0.863870	0.652630	0.490130
N531	N53	0.900770	0.679930	0.277330
N541	N54	0.847770	0.736730	0.538430
N551	N55	0.956570	0.540830	0.088130
C1211	C121	0.835770	0.777130	0.565030
H811	H81	0.820870	0.777830	0.651130
C1221	C122	0.844870	0.817530	0.468930
H821	H82	0.836370	0.845030	0.490830
C1231	C123	0.866270	0.817330	0.342130
H831	H83	0.872270	0.844430	0.276530
C1241	C124	0.878870	0.776530	0.312430
H841	H84	0.893470	0.775430	0.226230
C1251	C125	0.869570	0.737430	0.411730
C1261	C126	0.879170	0.690430	0.391330
C1271	C127	0.897370	0.631530	0.318030
C1281	C128	0.924870	0.519930	0.200730
H851	H85	0.915870	0.484430	0.229430
C1291	C129	0.905070	0.547430	0.275530
H861	H86	0.883870	0.531130	0.354830
C1301	C130	0.916270	0.599830	0.234230
C1311	C131	0.947770	0.621330	0.117030
H871	H87	0.955670	0.656030	0.084230
C1321	C132	0.967670	0.591430	0.047730
H881	H88	0.989770	0.607230	0.969530
N561	N56	0.541830	0.945970	0.776670
N571	N57	0.530530	0.985970	0.823470
N581	N58	0.567430	0.013270	0.610670
N591	N59	0.514430	0.070070	0.871770
N601	N60	0.623230	0.874170	0.421470
C1331	C133	0.502430	0.110470	0.898370
H891	H89	0.487530	0.111170	0.984470
C1341	C134	0.511530	0.150870	0.802270
H901	H90	0.503030	0.178370	0.824170
C1351	C135	0.532930	0.150670	0.675470
H911	H91	0.538930	0.177770	0.609870
C1361	C136	0.545530	0.109870	0.645770
H921	H92	0.560130	0.108770	0.559570
C1371	C137	0.536230	0.070770	0.745070
C1381	C138	0.545830	0.023770	0.724670
C1391	C139	0.564030	0.964870	0.651370
C1401	C140	0.591530	0.853270	0.534070
H931	H93	0.582530	0.817770	0.562770
C1411	C141	0.571730	0.880770	0.608870
H941	H94	0.550530	0.864470	0.688170
C1421	C142	0.582930	0.933170	0.567570
C1431	C143	0.614430	0.954670	0.450370
H951	H95	0.622330	0.989370	0.417570
C1441	C144	0.634330	0.924770	0.381070
H961	H96	0.656430	0.940570	0.302870
N611	N61	0.720700	0.929200	0.110000
N621	N62	0.680700	0.877900	0.156800
N631	N63	0.653400	0.887500	0.944000
N641	N64	0.596600	0.777700	0.205100
N651	N65	0.792500	0.082400	0.754800
C1451	C145	0.556200	0.725300	0.231700
H971	H97	0.555500	0.709700	0.317800
C1461	C146	0.515800	0.694000	0.135600
H981	H98	0.488300	0.658000	0.157500
C1471	C147	0.516000	0.715600	0.008800
H991	H99	0.488900	0.694500	0.943200
C1481	C148	0.556800	0.769000	0.979100
H1001	H100	0.557900	0.784700	0.892900
C1491	C149	0.595900	0.798800	0.078400
C1501	C150	0.642900	0.855400	0.058000
C1511	C151	0.701800	0.932500	0.984700
C1521	C152	0.813400	0.071600	0.867400
H1011	H101	0.848900	0.098100	0.896100
C1531	C153	0.785900	0.024300	0.942200
H1021	H102	0.802200	0.019400	0.021500
C1541	C154	0.733500	0.983100	0.900900
C1551	C155	0.712000	0.993100	0.783700
H1031	H103	0.677300	0.966300	0.750900
C1561	C156	0.741900	0.042900	0.714400
H1041	H104	0.726100	0.049200	0.636200
N661	N66	0.387370	0.262530	0.443330
N671	N67	0.347370	0.211230	0.490130
N681	N68	0.320070	0.220830	0.277330
N691	N69	0.263270	0.111030	0.538430
N701	N70	0.459170	0.415730	0.088130
C1571	C157	0.222870	0.058630	0.565030
H1051	H105	0.222170	0.043030	0.651130
C1581	C158	0.182470	0.027330	0.468930
H1061	H106	0.154970	0.991330	0.490830
C1591	C159	0.182670	0.048930	0.342130
H1071	H107	0.155570	0.027830	0.276530
C1601	C160	0.223470	0.102330	0.312430
H1081	H108	0.224570	0.118030	0.226230
C1611	C161	0.262570	0.132130	0.411730
C1621	C162	0.309570	0.188730	0.391330
C1631	C163	0.368470	0.265830	0.318030
C1641	C164	0.480070	0.404930	0.200730
H1091	H109	0.515570	0.431430	0.229430
C1651	C165	0.452570	0.357630	0.275530
H1101	H110	0.468870	0.352730	0.354830
C1661	C166	0.400170	0.316430	0.234230
C1671	C167	0.378670	0.326430	0.117030
H1111	H111	0.343970	0.299630	0.084230
C1681	C168	0.408570	0.376230	0.047730
H1121	H112	0.392770	0.382530	0.969530
N711	N71	0.054030	0.595870	0.776670
N721	N72	0.014030	0.544570	0.823470
N731	N73	0.986730	0.554170	0.610670
N741	N74	0.929930	0.444370	0.871770
N751	N75	0.125830	0.749070	0.421470
C1691	C169	0.889530	0.391970	0.898370
H1131	H113	0.888830	0.376370	0.984470
C1701	C170	0.849130	0.360670	0.802270
H1141	H114	0.821630	0.324670	0.824170
C1711	C171	0.849330	0.382270	0.675470
H1151	H115	0.822230	0.361170	0.609870
C1721	C172	0.890130	0.435670	0.645770
H1161	H116	0.891230	0.451370	0.559570
C1731	C173	0.929230	0.465470	0.745070
C1741	C174	0.976230	0.522070	0.724670
C1751	C175	0.035130	0.599170	0.651370
C1761	C176	0.146730	0.738270	0.534070
H1171	H117	0.182230	0.764770	0.562770
C1771	C177	0.119230	0.690970	0.608870
H1181	H118	0.135530	0.686070	0.688170
C1781	C178	0.066830	0.649770	0.567570
C1791	C179	0.045330	0.659770	0.450370
H1191	H119	0.010630	0.632970	0.417570
C1801	C180	0.075230	0.709570	0.381070
H1201	H120	0.059430	0.715870	0.302870
N761	N76	0.070800	0.791500	0.110000
N771	N77	0.122100	0.802800	0.156800
N781	N78	0.112500	0.765900	0.944000
N791	N79	0.222300	0.818900	0.205100
N801	N80	0.917600	0.710100	0.754800
C1811	C181	0.274700	0.830900	0.231700
H1211	H121	0.290300	0.845800	0.317800
C1821	C182	0.306000	0.821800	0.135600
H1221	H122	0.342000	0.830300	0.157500
C1831	C183	0.284400	0.800400	0.008800
H1231	H123	0.305500	0.794400	0.943200
C1841	C184	0.231000	0.787800	0.979100
H1241	H124	0.215300	0.773200	0.892900
C1851	C185	0.201200	0.797100	0.078400
C1861	C186	0.144600	0.787500	0.058000
C1871	C187	0.067500	0.769300	0.984700
C1881	C188	0.928400	0.741800	0.867400
H1251	H125	0.901900	0.750800	0.896100
C1891	C189	0.975700	0.761600	0.942200
H1261	H126	0.980600	0.782800	0.021500
C1901	C190	0.016900	0.750400	0.900900
C1911	C191	0.006900	0.718900	0.783700
H1271	H127	0.033700	0.711000	0.750900
C1921	C192	0.957100	0.699000	0.714400
H1281	H128	0.950800	0.676900	0.636200
N811	N81	0.737470	0.124830	0.443330
N821	N82	0.788770	0.136130	0.490130
N831	N83	0.779170	0.099230	0.277330
N841	N84	0.888970	0.152230	0.538430
N851	N85	0.584270	0.043430	0.088130
C1931	C193	0.941370	0.164230	0.565030
H1291	H129	0.956970	0.179130	0.651130
C1941	C194	0.972670	0.155130	0.468930
H1301	H130	0.008670	0.163630	0.490830
C1951	C195	0.951070	0.133730	0.342130
H1311	H131	0.972170	0.127730	0.276530
C1961	C196	0.897670	0.121130	0.312430
H1321	H132	0.881970	0.106530	0.226230
C1971	C197	0.867870	0.130430	0.411730
C1981	C198	0.811270	0.120830	0.391330
C1991	C199	0.734170	0.102630	0.318030
C2001	C200	0.595070	0.075130	0.200730
H1331	H133	0.568570	0.084130	0.229430
C2011	C201	0.642370	0.094930	0.275530
H1341	H134	0.647270	0.116130	0.354830
C2021	C202	0.683570	0.083730	0.234230
C2031	C203	0.673570	0.052230	0.117030
H1351	H135	0.700370	0.044330	0.084230
C2041	C204	0.623770	0.032330	0.047730
H1361	H136	0.617470	0.010230	0.969530
N861	N86	0.404130	0.458170	0.776670
N871	N87	0.455430	0.469470	0.823470
N881	N88	0.445830	0.432570	0.610670
N891	N89	0.555630	0.485570	0.871770
N901	N90	0.250930	0.376770	0.421470
C2051	C205	0.608030	0.497570	0.898370
H1371	H137	0.623630	0.512470	0.984470
C2061	C206	0.639330	0.488470	0.802270
H1381	H138	0.675330	0.496970	0.824170
C2071	C207	0.617730	0.467070	0.675470
H1391	H139	0.638830	0.461070	0.609870
C2081	C208	0.564330	0.454470	0.645770
H1401	H140	0.548630	0.439870	0.559570
C2091	C209	0.534530	0.463770	0.745070
C2101	C210	0.477930	0.454170	0.724670
C2111	C211	0.400830	0.435970	0.651370
C2121	C212	0.261730	0.408470	0.534070
H1411	H141	0.235230	0.417470	0.562770
C2131	C213	0.309030	0.428270	0.608870
H1421	H142	0.313930	0.449470	0.688170
C2141	C214	0.350230	0.417070	0.567570
C2151	C215	0.340230	0.385570	0.450370
H1431	H143	0.367030	0.377670	0.417570
C2161	C216	0.290430	0.365670	0.381070
H1441	H144	0.284130	0.343570	0.302870
Ni11	Ni1	0.833330	0.666670	0.666670
Ni21	Ni2	0.500000	0.000000	0.000000
Ni31	Ni3	0.333330	0.166670	0.666670
Ni41	Ni4	0.000000	0.500000	0.000000
Ni51	Ni5	0.833330	0.166670	0.666670
Ni61	Ni6	0.500000	0.500000	0.000000
Ni71	Ni7	0.166670	0.333330	0.333330
Ni81	Ni8	0.666670	0.833330	0.333330
Ni91	Ni9	0.166670	0.833330	0.333330
