data_ILINIC_clean_PM
_symmetry_space_group_name_H-M	'P1'
_cell_length_a	14.997600
_cell_length_b	14.291300
_cell_length_c	16.501600
_cell_angle_alpha	90.000000
_cell_angle_beta	108.701000
_cell_angle_gamma	90.000000
_symmetry_Int_Tables_number 1

loop_
_symmetry_equiv_pos_as_xyz
'x,y,z'

loop_
_atom_site_label
_atom_site_type_symbol
_atom_site_fract_x
_atom_site_fract_y
_atom_site_fract_z
Re11	Re1	0.125100	0.980270	0.058100
Re21	Re2	0.004400	0.110390	0.058120
Re31	Re3	0.968120	0.937020	0.084060
S11	S1	0.089900	0.026230	0.185380
S21	S2	0.082740	0.821430	0.077920
S31	S3	0.858580	0.061920	0.078170
S41	S4	0.149520	0.141780	0.029650
C11	C1	0.268400	0.956300	0.127500
N11	N1	0.344700	0.943400	0.167600
C21	C2	0.011700	0.237700	0.125500
N21	N2	0.017800	0.306600	0.161300
Re41	Re4	0.625100	0.480270	0.058100
Re51	Re5	0.504400	0.610390	0.058120
Re61	Re6	0.468120	0.437020	0.084060
S51	S5	0.589900	0.526230	0.185380
S61	S6	0.582740	0.321430	0.077920
S71	S7	0.358580	0.561920	0.078170
S81	S8	0.649520	0.641780	0.029650
C31	C3	0.768400	0.456300	0.127500
N31	N3	0.844700	0.443400	0.167600
C41	C4	0.511700	0.737700	0.125500
N41	N4	0.517800	0.806600	0.161300
Re71	Re7	0.874900	0.980270	0.441900
Re81	Re8	0.995600	0.110390	0.441880
Re91	Re9	0.031880	0.937020	0.415940
S91	S9	0.910100	0.026230	0.314620
S101	S10	0.917260	0.821430	0.422080
S111	S11	0.141420	0.061920	0.421830
S121	S12	0.850480	0.141780	0.470350
C51	C5	0.731600	0.956300	0.372500
N51	N5	0.655300	0.943400	0.332400
C61	C6	0.988300	0.237700	0.374500
N61	N6	0.982200	0.306600	0.338700
Re101	Re10	0.374900	0.480270	0.441900
Re111	Re11	0.495600	0.610390	0.441880
Re121	Re12	0.531880	0.437020	0.415940
S131	S13	0.410100	0.526230	0.314620
S141	S14	0.417260	0.321430	0.422080
S151	S15	0.641420	0.561920	0.421830
S161	S16	0.350480	0.641780	0.470350
C71	C7	0.231600	0.456300	0.372500
N71	N7	0.155300	0.443400	0.332400
C81	C8	0.488300	0.737700	0.374500
N81	N8	0.482200	0.806600	0.338700
Re131	Re13	0.874900	0.019730	0.941900
Re141	Re14	0.995600	0.889610	0.941880
Re151	Re15	0.031880	0.062980	0.915940
S171	S17	0.910100	0.973770	0.814620
S181	S18	0.917260	0.178570	0.922080
S191	S19	0.141420	0.938080	0.921830
S201	S20	0.850480	0.858220	0.970350
C91	C9	0.731600	0.043700	0.872500
N91	N9	0.655300	0.056600	0.832400
C101	C10	0.988300	0.762300	0.874500
N101	N10	0.982200	0.693400	0.838700
Re161	Re16	0.374900	0.519730	0.941900
Re171	Re17	0.495600	0.389610	0.941880
Re181	Re18	0.531880	0.562980	0.915940
S211	S21	0.410100	0.473770	0.814620
S221	S22	0.417260	0.678570	0.922080
S231	S23	0.641420	0.438080	0.921830
S241	S24	0.350480	0.358220	0.970350
C111	C11	0.231600	0.543700	0.872500
N111	N11	0.155300	0.556600	0.832400
C121	C12	0.488300	0.262300	0.874500
N121	N12	0.482200	0.193400	0.838700
Re191	Re19	0.125100	0.019730	0.558100
Re201	Re20	0.004400	0.889610	0.558120
Re211	Re21	0.968120	0.062980	0.584060
S251	S25	0.089900	0.973770	0.685380
S261	S26	0.082740	0.178570	0.577920
S271	S27	0.858580	0.938080	0.578170
S281	S28	0.149520	0.858220	0.529650
C131	C13	0.268400	0.043700	0.627500
N131	N13	0.344700	0.056600	0.667600
C141	C14	0.011700	0.762300	0.625500
N141	N14	0.017800	0.693400	0.661300
Re221	Re22	0.625100	0.519730	0.558100
Re231	Re23	0.504400	0.389610	0.558120
Re241	Re24	0.468120	0.562980	0.584060
S291	S29	0.589900	0.473770	0.685380
S301	S30	0.582740	0.678570	0.577920
S311	S31	0.358580	0.438080	0.578170
S321	S32	0.649520	0.358220	0.529650
C151	C15	0.768400	0.543700	0.627500
N151	N15	0.844700	0.556600	0.667600
C161	C16	0.511700	0.262300	0.625500
N161	N16	0.517800	0.193400	0.661300
Cd11	Cd1	0.000000	0.423870	0.250000
Cd21	Cd2	0.500000	0.923870	0.250000
Cd31	Cd3	0.000000	0.576130	0.750000
Cd41	Cd4	0.500000	0.076130	0.750000
