data_ILIQIF_clean_PM
_symmetry_space_group_name_H-M	'P1'
_cell_length_a	9.450000
_cell_length_b	9.750000
_cell_length_c	10.290000
_cell_angle_alpha	96.110000
_cell_angle_beta	90.400000
_cell_angle_gamma	116.540000
_symmetry_Int_Tables_number 1

loop_
_symmetry_equiv_pos_as_xyz
'x,y,z'

loop_
_atom_site_label
_atom_site_type_symbol
_atom_site_fract_x
_atom_site_fract_y
_atom_site_fract_z
Cd11	Cd1	0.236040	0.057580	0.029240
O11	O1	0.305400	0.125000	0.260400
O21	O2	0.362700	0.951200	0.154000
O31	O3	0.984000	0.869600	0.081500
O41	O4	0.777500	0.718200	0.950000
N11	N1	0.188600	0.898200	0.836000
C11	C1	0.364000	0.030000	0.259800
C21	C2	0.433000	0.012500	0.383200
C31	C3	0.444000	0.106000	0.498700
C41	C4	0.489000	0.907000	0.387300
C51	C5	0.901000	0.741000	0.014900
C61	C6	0.948700	0.616400	0.008500
C71	C7	0.059000	0.617300	0.103000
C81	C8	0.107000	0.505000	0.094000
C91	C9	0.089000	0.894000	0.739800
C101	C10	0.053000	0.794000	0.625200
C111	C11	0.121000	0.693000	0.608800
C121	C12	0.223000	0.701000	0.707500
C131	C13	0.255000	0.801000	0.818400
C141	C14	0.076000	0.577000	0.488600
H11	H1	0.397500	0.172300	0.497800
H21	H2	0.479300	0.843000	0.308100
H31	H3	0.099600	0.700200	0.174400
H41	H4	0.183800	0.510200	0.158700
H51	H5	0.043900	0.965600	0.748400
H61	H6	0.982800	0.795500	0.555400
H71	H7	0.271000	0.636100	0.697900
H81	H8	0.326500	0.802600	0.887200
H91	H9	0.047700	0.619700	0.416700
H101	H10	0.160900	0.557000	0.464700
Cd21	Cd2	0.763960	0.942420	0.970760
O51	O5	0.694600	0.875000	0.739600
O61	O6	0.637300	0.048800	0.846000
O71	O7	0.016000	0.130400	0.918500
O81	O8	0.222500	0.281800	0.050000
N21	N2	0.811400	0.101800	0.164000
C151	C15	0.636000	0.970000	0.740200
C161	C16	0.567000	0.987500	0.616800
C171	C17	0.556000	0.894000	0.501300
C181	C18	0.511000	0.093000	0.612700
C191	C19	0.099000	0.259000	0.985100
C201	C20	0.051300	0.383600	0.991500
C211	C21	0.941000	0.382700	0.897000
C221	C22	0.893000	0.495000	0.906000
C231	C23	0.911000	0.106000	0.260200
C241	C24	0.947000	0.206000	0.374800
C251	C25	0.879000	0.307000	0.391200
C261	C26	0.777000	0.299000	0.292500
C271	C27	0.745000	0.199000	0.181600
C281	C28	0.924000	0.423000	0.511400
H111	H11	0.602500	0.827700	0.502200
H121	H12	0.520700	0.157000	0.691900
H131	H13	0.900400	0.299800	0.825600
H141	H14	0.816200	0.489800	0.841300
H151	H15	0.956100	0.034400	0.251600
H161	H16	0.017200	0.204500	0.444600
H171	H17	0.729000	0.363900	0.302100
H181	H18	0.673500	0.197400	0.112800
H191	H19	0.952300	0.380300	0.583300
H201	H20	0.839100	0.443000	0.535300
