data_ILIQEB_clean_PM
_symmetry_space_group_name_H-M	'P1'
_cell_length_a	9.750000
_cell_length_b	9.880000
_cell_length_c	9.880000
_cell_angle_alpha	90.360000
_cell_angle_beta	92.730000
_cell_angle_gamma	117.330000
_symmetry_Int_Tables_number 1

loop_
_symmetry_equiv_pos_as_xyz
'x,y,z'

loop_
_atom_site_label
_atom_site_type_symbol
_atom_site_fract_x
_atom_site_fract_y
_atom_site_fract_z
Cd11	Cd1	0.443370	0.274750	0.978130
O11	O1	0.417600	0.221500	0.751400
O21	O2	0.564400	0.136600	0.857900
O31	O3	0.639700	0.523900	0.920900
O41	O4	0.789800	0.723000	0.051900
N11	N1	0.592100	0.323500	0.175400
C11	C1	0.494900	0.149300	0.752300
C21	C2	0.501600	0.074700	0.621000
C31	C3	0.402100	0.064700	0.511800
C41	C4	0.598900	0.009200	0.608200
C51	C5	0.765300	0.602800	0.988100
C61	C6	0.889000	0.551700	0.993100
C71	C7	0.880300	0.441500	0.901100
C81	C8	0.990000	0.389200	0.907500
C91	C9	0.605900	0.428400	0.269100
C101	C10	0.709200	0.467500	0.381800
C111	C11	0.801700	0.396900	0.400500
C121	C12	0.786800	0.288300	0.304800
C131	C13	0.682100	0.254700	0.194200
C141	C14	0.919300	0.440000	0.519600
H11	H1	0.327700	0.112300	0.517800
H21	H2	0.662300	0.012700	0.687200
H31	H3	0.793100	0.400000	0.829700
H41	H4	0.996900	0.326400	0.839600
H51	H5	0.542900	0.478100	0.257900
H61	H6	0.702000	0.542700	0.443300
H71	H7	0.844800	0.233500	0.306700
H81	H8	0.673700	0.179800	0.129200
H91	H9	0.934600	0.341500	0.542700
H101	H10	0.894000	0.491400	0.592500
Cd21	Cd2	0.556630	0.725250	0.021870
O51	O5	0.582400	0.778500	0.248600
O61	O6	0.435600	0.863400	0.142100
O71	O7	0.360300	0.476100	0.079100
O81	O8	0.210200	0.277000	0.948100
N21	N2	0.407900	0.676500	0.824600
C151	C15	0.505100	0.850700	0.247700
C161	C16	0.498400	0.925300	0.379000
C171	C17	0.597900	0.935300	0.488200
C181	C18	0.401100	0.990800	0.391800
C191	C19	0.234700	0.397200	0.011900
C201	C20	0.111000	0.448300	0.006900
C211	C21	0.119700	0.558500	0.098900
C221	C22	0.010000	0.610800	0.092500
C231	C23	0.394100	0.571600	0.730900
C241	C24	0.290800	0.532500	0.618200
C251	C25	0.198300	0.603100	0.599500
C261	C26	0.213200	0.711700	0.695200
C271	C27	0.317900	0.745300	0.805800
C281	C28	0.080700	0.560000	0.480400
H111	H11	0.672300	0.887700	0.482200
H121	H12	0.337700	0.987300	0.312800
H131	H13	0.206900	0.600000	0.170300
H141	H14	0.003100	0.673600	0.160400
H151	H15	0.457100	0.521900	0.742100
H161	H16	0.298000	0.457300	0.556700
H171	H17	0.155200	0.766500	0.693300
H181	H18	0.326300	0.820200	0.870800
H191	H19	0.065400	0.658500	0.457300
H201	H20	0.106000	0.508600	0.407500
