data_ILUJEF_clean_PM
_symmetry_space_group_name_H-M	'P1'
_cell_length_a	15.309200
_cell_length_b	15.309200
_cell_length_c	15.346000
_cell_angle_alpha	90.000000
_cell_angle_beta	90.000000
_cell_angle_gamma	120.000000
_symmetry_Int_Tables_number 1

loop_
_symmetry_equiv_pos_as_xyz
'x,y,z'

loop_
_atom_site_label
_atom_site_type_symbol
_atom_site_fract_x
_atom_site_fract_y
_atom_site_fract_z
Sm11	Sm1	0.333330	0.666660	0.750000
Sm21	Sm2	0.666670	0.333340	0.750000
Sm31	Sm3	0.666670	0.333340	0.250000
Sm41	Sm4	0.333330	0.666660	0.250000
Co11	Co1	0.500000	0.500000	0.500000
Co21	Co2	0.000000	0.500000	0.500000
Co31	Co3	0.500000	0.000000	0.500000
Co41	Co4	0.000000	0.500000	0.000000
Co51	Co5	0.500000	0.500000	0.000000
Co61	Co6	0.500000	0.000000	0.000000
H11	H1	0.233600	0.287100	0.655300
H21	H2	0.053500	0.766400	0.655300
H31	H3	0.712900	0.946500	0.655300
H41	H4	0.766400	0.712900	0.655300
H51	H5	0.946500	0.233600	0.655300
H61	H6	0.287100	0.053500	0.655300
H71	H7	0.946500	0.712900	0.844700
H81	H8	0.287100	0.233600	0.844700
H91	H9	0.766400	0.053500	0.844700
H101	H10	0.053500	0.287100	0.844700
H111	H11	0.712900	0.766400	0.844700
H121	H12	0.233600	0.946500	0.844700
H131	H13	0.766400	0.712900	0.344700
H141	H14	0.946500	0.233600	0.344700
H151	H15	0.287100	0.053500	0.344700
H161	H16	0.233600	0.287100	0.344700
H171	H17	0.053500	0.766400	0.344700
H181	H18	0.712900	0.946500	0.344700
H191	H19	0.053500	0.287100	0.155300
H201	H20	0.712900	0.766400	0.155300
H211	H21	0.233600	0.946500	0.155300
H221	H22	0.946500	0.712900	0.155300
H231	H23	0.287100	0.233600	0.155300
H241	H24	0.766400	0.053500	0.155300
H251	H25	0.100150	0.200300	0.750000
H261	H26	0.100150	0.899850	0.750000
H271	H27	0.799700	0.899850	0.750000
H281	H28	0.899850	0.799700	0.750000
H291	H29	0.899850	0.100150	0.750000
H301	H30	0.200300	0.100150	0.750000
H311	H31	0.899850	0.799700	0.250000
H321	H32	0.899850	0.100150	0.250000
H331	H33	0.200300	0.100150	0.250000
H341	H34	0.100150	0.200300	0.250000
H351	H35	0.100150	0.899850	0.250000
H361	H36	0.799700	0.899850	0.250000
C11	C1	0.354100	0.490000	0.638400
C21	C2	0.264800	0.424800	0.696400
C31	C3	0.214500	0.321400	0.693900
C41	C4	0.135900	0.645900	0.638400
C51	C5	0.160000	0.735200	0.696400
C61	C6	0.106900	0.785500	0.693900
C71	C7	0.510000	0.864100	0.638400
C81	C8	0.575200	0.840000	0.696400
C91	C9	0.678600	0.893100	0.693900
C101	C10	0.645900	0.510000	0.638400
C111	C11	0.735200	0.575200	0.696400
C121	C12	0.785500	0.678600	0.693900
C131	C13	0.864100	0.354100	0.638400
C141	C14	0.840000	0.264800	0.696400
C151	C15	0.893100	0.214500	0.693900
C161	C16	0.490000	0.135900	0.638400
C171	C17	0.424800	0.160000	0.696400
C181	C18	0.321400	0.106900	0.693900
C191	C19	0.864100	0.510000	0.861600
C201	C20	0.840000	0.575200	0.803600
C211	C21	0.893100	0.678600	0.806100
C221	C22	0.490000	0.354100	0.861600
C231	C23	0.424800	0.264800	0.803600
C241	C24	0.321400	0.214500	0.806100
C251	C25	0.645900	0.135900	0.861600
C261	C26	0.735200	0.160000	0.803600
C271	C27	0.785500	0.106900	0.806100
C281	C28	0.135900	0.490000	0.861600
C291	C29	0.160000	0.424800	0.803600
C301	C30	0.106900	0.321400	0.806100
C311	C31	0.510000	0.645900	0.861600
C321	C32	0.575200	0.735200	0.803600
C331	C33	0.678600	0.785500	0.806100
C341	C34	0.354100	0.864100	0.861600
C351	C35	0.264800	0.840000	0.803600
C361	C36	0.214500	0.893100	0.806100
C371	C37	0.645900	0.510000	0.361600
C381	C38	0.735200	0.575200	0.303600
C391	C39	0.785500	0.678600	0.306100
C401	C40	0.864100	0.354100	0.361600
C411	C41	0.840000	0.264800	0.303600
C421	C42	0.893100	0.214500	0.306100
C431	C43	0.490000	0.135900	0.361600
C441	C44	0.424800	0.160000	0.303600
C451	C45	0.321400	0.106900	0.306100
C461	C46	0.354100	0.490000	0.361600
C471	C47	0.264800	0.424800	0.303600
C481	C48	0.214500	0.321400	0.306100
C491	C49	0.135900	0.645900	0.361600
C501	C50	0.160000	0.735200	0.303600
C511	C51	0.106900	0.785500	0.306100
C521	C52	0.510000	0.864100	0.361600
C531	C53	0.575200	0.840000	0.303600
C541	C54	0.678600	0.893100	0.306100
C551	C55	0.135900	0.490000	0.138400
C561	C56	0.160000	0.424800	0.196400
C571	C57	0.106900	0.321400	0.193900
C581	C58	0.510000	0.645900	0.138400
C591	C59	0.575200	0.735200	0.196400
C601	C60	0.678600	0.785500	0.193900
C611	C61	0.354100	0.864100	0.138400
C621	C62	0.264800	0.840000	0.196400
C631	C63	0.214500	0.893100	0.193900
C641	C64	0.864100	0.510000	0.138400
C651	C65	0.840000	0.575200	0.196400
C661	C66	0.893100	0.678600	0.193900
C671	C67	0.490000	0.354100	0.138400
C681	C68	0.424800	0.264800	0.196400
C691	C69	0.321400	0.214500	0.193900
C701	C70	0.645900	0.135900	0.138400
C711	C71	0.735200	0.160000	0.196400
C721	C72	0.785500	0.106900	0.193900
C731	C73	0.134900	0.269800	0.750000
C741	C74	0.134900	0.865100	0.750000
C751	C75	0.730200	0.865100	0.750000
C761	C76	0.865100	0.730200	0.750000
C771	C77	0.865100	0.134900	0.750000
C781	C78	0.269800	0.134900	0.750000
C791	C79	0.865100	0.730200	0.250000
C801	C80	0.865100	0.134900	0.250000
C811	C81	0.269800	0.134900	0.250000
C821	C82	0.134900	0.269800	0.250000
C831	C83	0.134900	0.865100	0.250000
C841	C84	0.730200	0.865100	0.250000
N11	N1	0.237900	0.475800	0.750000
N21	N2	0.237900	0.762100	0.750000
N31	N3	0.524200	0.762100	0.750000
N41	N4	0.762100	0.524200	0.750000
N51	N5	0.762100	0.237900	0.750000
N61	N6	0.475800	0.237900	0.750000
N71	N7	0.762100	0.524200	0.250000
N81	N8	0.762100	0.237900	0.250000
N91	N9	0.475800	0.237900	0.250000
N101	N10	0.237900	0.475800	0.250000
N111	N11	0.237900	0.762100	0.250000
N121	N12	0.524200	0.762100	0.250000
O11	O1	0.387700	0.584600	0.642600
O21	O2	0.387000	0.446300	0.593100
O31	O3	0.196900	0.612300	0.642600
O41	O4	0.059300	0.613000	0.593100
O51	O5	0.415400	0.803100	0.642600
O61	O6	0.553700	0.940700	0.593100
O71	O7	0.612300	0.415400	0.642600
O81	O8	0.613000	0.553700	0.593100
O91	O9	0.803100	0.387700	0.642600
O101	O10	0.940700	0.387000	0.593100
O111	O11	0.584600	0.196900	0.642600
O121	O12	0.446300	0.059300	0.593100
O131	O13	0.803100	0.415400	0.857400
O141	O14	0.940700	0.553700	0.906900
O151	O15	0.584600	0.387700	0.857400
O161	O16	0.446300	0.387000	0.906900
O171	O17	0.612300	0.196900	0.857400
O181	O18	0.613000	0.059300	0.906900
O191	O19	0.196900	0.584600	0.857400
O201	O20	0.059300	0.446300	0.906900
O211	O21	0.415400	0.612300	0.857400
O221	O22	0.553700	0.613000	0.906900
O231	O23	0.387700	0.803100	0.857400
O241	O24	0.387000	0.940700	0.906900
O251	O25	0.612300	0.415400	0.357400
O261	O26	0.613000	0.553700	0.406900
O271	O27	0.803100	0.387700	0.357400
O281	O28	0.940700	0.387000	0.406900
O291	O29	0.584600	0.196900	0.357400
O301	O30	0.446300	0.059300	0.406900
O311	O31	0.387700	0.584600	0.357400
O321	O32	0.387000	0.446300	0.406900
O331	O33	0.196900	0.612300	0.357400
O341	O34	0.059300	0.613000	0.406900
O351	O35	0.415400	0.803100	0.357400
O361	O36	0.553700	0.940700	0.406900
O371	O37	0.196900	0.584600	0.142600
O381	O38	0.059300	0.446300	0.093100
O391	O39	0.415400	0.612300	0.142600
O401	O40	0.553700	0.613000	0.093100
O411	O41	0.387700	0.803100	0.142600
O421	O42	0.387000	0.940700	0.093100
O431	O43	0.803100	0.415400	0.142600
O441	O44	0.940700	0.553700	0.093100
O451	O45	0.584600	0.387700	0.142600
O461	O46	0.446300	0.387000	0.093100
O471	O47	0.612300	0.196900	0.142600
O481	O48	0.613000	0.059300	0.093100
