data_IMACND_clean_PM
_symmetry_space_group_name_H-M	'P1'
_cell_length_a	8.356000
_cell_length_b	14.164000
_cell_length_c	8.424000
_cell_angle_alpha	90.000000
_cell_angle_beta	90.000000
_cell_angle_gamma	90.000000
_symmetry_Int_Tables_number 1

loop_
_symmetry_equiv_pos_as_xyz
'x,y,z'

loop_
_atom_site_label
_atom_site_type_symbol
_atom_site_fract_x
_atom_site_fract_y
_atom_site_fract_z
C11	C1	0.442100	0.989300	0.271100
C21	C2	0.581900	0.921800	0.301800
C31	C3	0.736900	0.851400	0.525100
C41	C4	0.658300	0.765700	0.574300
Nd11	Nd1	0.344600	0.914500	0.634200
N11	N1	0.621100	0.929600	0.478700
O11	O1	0.335900	0.000200	0.372000
O21	O2	0.428900	0.015200	0.124500
O31	O3	0.722600	0.684400	0.561300
O41	O4	0.513900	0.771400	0.627100
C51	C5	0.057900	0.010700	0.771100
C61	C6	0.918100	0.078200	0.801800
C71	C7	0.763100	0.148600	0.025100
C81	C8	0.841700	0.234300	0.074300
Nd21	Nd2	0.155400	0.085500	0.134200
N21	N2	0.878900	0.070400	0.978700
O51	O5	0.164100	0.999800	0.872000
O61	O6	0.071100	0.984800	0.624500
O71	O7	0.777400	0.315600	0.061300
O81	O8	0.986100	0.228600	0.127100
C91	C9	0.557900	0.489300	0.228900
C101	C10	0.418100	0.421800	0.198200
C111	C11	0.263100	0.351400	0.974900
C121	C12	0.341700	0.265700	0.925700
Nd31	Nd3	0.655400	0.414500	0.865800
N31	N3	0.378900	0.429600	0.021300
O91	O9	0.664100	0.500200	0.128000
O101	O10	0.571100	0.515200	0.375500
O111	O11	0.277400	0.184400	0.938700
O121	O12	0.486100	0.271400	0.872900
C131	C13	0.942100	0.510700	0.728900
C141	C14	0.081900	0.578200	0.698200
C151	C15	0.236900	0.648600	0.474900
C161	C16	0.158300	0.734300	0.425700
Nd41	Nd4	0.844600	0.585500	0.365800
N41	N4	0.121100	0.570400	0.521300
O131	O13	0.835900	0.499800	0.628000
O141	O14	0.928900	0.484800	0.875500
O151	O15	0.222600	0.815600	0.438700
O161	O16	0.013900	0.728600	0.372900
