data_IMISIH_clean_PM
_symmetry_space_group_name_H-M	'P1'
_cell_length_a	20.013500
_cell_length_b	20.013500
_cell_length_c	20.013500
_cell_angle_alpha	109.471000
_cell_angle_beta	109.471000
_cell_angle_gamma	109.471000
_symmetry_Int_Tables_number 1

loop_
_symmetry_equiv_pos_as_xyz
'x,y,z'

loop_
_atom_site_label
_atom_site_type_symbol
_atom_site_fract_x
_atom_site_fract_y
_atom_site_fract_z
Cu11	Cu1	0.208000	0.876960	0.248100
Cu21	Cu2	0.128860	0.959900	0.251900
Cu31	Cu3	0.371140	0.623040	0.831040
Cu41	Cu4	0.292000	0.540100	0.668960
Cu51	Cu5	0.331040	0.371140	0.123040
Cu61	Cu6	0.168960	0.292000	0.040100
Cu71	Cu7	0.748100	0.208000	0.376960
Cu81	Cu8	0.751900	0.128860	0.459900
Cu91	Cu9	0.959900	0.751900	0.628860
Cu101	Cu10	0.876960	0.748100	0.708000
Cu111	Cu11	0.540100	0.168960	0.792000
Cu121	Cu12	0.623040	0.331040	0.871140
Cu131	Cu13	0.459900	0.628860	0.751900
Cu141	Cu14	0.376960	0.708000	0.748100
Cu151	Cu15	0.040100	0.792000	0.168960
Cu161	Cu16	0.123040	0.871140	0.331040
Cu171	Cu17	0.708000	0.248100	0.876960
Cu181	Cu18	0.628860	0.251900	0.959900
Cu191	Cu19	0.871140	0.831040	0.623040
Cu201	Cu20	0.792000	0.668960	0.540100
Cu211	Cu21	0.831040	0.123040	0.371140
Cu221	Cu22	0.668960	0.040100	0.292000
Cu231	Cu23	0.248100	0.376960	0.208000
Cu241	Cu24	0.251900	0.459900	0.128860
H11	H1	0.295500	0.977600	0.196900
H21	H2	0.446000	0.852600	0.225800
H31	H3	0.547200	0.018000	0.133200
H41	H4	0.451500	0.977300	0.072000
H51	H5	0.492600	0.046600	0.165000
H61	H6	0.280700	0.098600	0.303100
H71	H7	0.126800	0.220200	0.274200
H81	H8	0.384800	0.414000	0.366800
H91	H9	0.405300	0.379500	0.428000
H101	H10	0.381600	0.327600	0.335000
H111	H11	0.219300	0.522400	0.817900
H121	H12	0.373200	0.647400	0.093400
H131	H13	0.115200	0.482000	0.029200
H141	H14	0.094700	0.522700	0.974200
H151	H15	0.118400	0.453400	0.946000
H161	H16	0.204500	0.401400	0.682100
H171	H17	0.054000	0.279800	0.406600
H181	H18	0.952800	0.086000	0.470800
H191	H19	0.048500	0.120500	0.525800
H201	H20	0.007400	0.172400	0.554000
H211	H21	0.317900	0.219300	0.022400
H221	H22	0.593400	0.373200	0.147400
H231	H23	0.529200	0.115200	0.982000
H241	H24	0.474200	0.094700	0.022700
H251	H25	0.446000	0.118400	0.953400
H261	H26	0.182100	0.204500	0.901400
H271	H27	0.906600	0.054000	0.779800
H281	H28	0.970800	0.952800	0.586000
H291	H29	0.025800	0.048500	0.620500
H301	H30	0.054000	0.007400	0.672400
H311	H31	0.696900	0.295500	0.477600
H321	H32	0.725800	0.446000	0.352600
H331	H33	0.633200	0.547200	0.518000
H341	H34	0.572000	0.451500	0.477300
H351	H35	0.665000	0.492600	0.546600
H361	H36	0.803100	0.280700	0.598600
H371	H37	0.774200	0.126800	0.720200
H381	H38	0.866800	0.384800	0.914000
H391	H39	0.928000	0.405300	0.879500
H401	H40	0.835000	0.381600	0.827600
H411	H41	0.098600	0.803100	0.780700
H421	H42	0.220200	0.774200	0.626800
H431	H43	0.414000	0.866800	0.884800
H441	H44	0.379500	0.928000	0.905300
H451	H45	0.327600	0.835000	0.881600
H461	H46	0.977600	0.696900	0.795500
H471	H47	0.852600	0.725800	0.946000
H481	H48	0.018000	0.633200	0.047200
H491	H49	0.977300	0.572000	0.951500
H501	H50	0.046600	0.665000	0.992600
H511	H51	0.401400	0.182100	0.704500
H521	H52	0.279800	0.906600	0.554000
H531	H53	0.086000	0.970800	0.452800
H541	H54	0.120500	0.025800	0.548500
H551	H55	0.172400	0.054000	0.507400
H561	H56	0.522400	0.317900	0.719300
H571	H57	0.647400	0.593400	0.873200
H581	H58	0.482000	0.529200	0.615200
H591	H59	0.522700	0.474200	0.594700
H601	H60	0.453400	0.446000	0.618400
H611	H61	0.598600	0.780700	0.803100
H621	H62	0.720200	0.626800	0.774200
H631	H63	0.914000	0.884800	0.866800
H641	H64	0.879500	0.905300	0.928000
H651	H65	0.827600	0.881600	0.835000
H661	H66	0.477600	0.795500	0.696900
H671	H67	0.352600	0.946000	0.725800
H681	H68	0.518000	0.047200	0.633200
H691	H69	0.477300	0.951500	0.572000
H701	H70	0.546600	0.992600	0.665000
H711	H71	0.901400	0.704500	0.182100
H721	H72	0.779800	0.554000	0.906600
H731	H73	0.586000	0.452800	0.970800
H741	H74	0.620500	0.548500	0.025800
H751	H75	0.672400	0.507400	0.054000
H761	H76	0.022400	0.719300	0.317900
H771	H77	0.147400	0.873200	0.593400
H781	H78	0.982000	0.615200	0.529200
H791	H79	0.022700	0.594700	0.474200
H801	H80	0.953400	0.618400	0.446000
H811	H81	0.795500	0.196900	0.977600
H821	H82	0.946000	0.225800	0.852600
H831	H83	0.047200	0.133200	0.018000
H841	H84	0.951500	0.072000	0.977300
H851	H85	0.992600	0.165000	0.046600
H861	H86	0.780700	0.303100	0.098600
H871	H87	0.626800	0.274200	0.220200
H881	H88	0.884800	0.366800	0.414000
H891	H89	0.905300	0.428000	0.379500
H901	H90	0.881600	0.335000	0.327600
H911	H91	0.719300	0.817900	0.522400
H921	H92	0.873200	0.093400	0.647400
H931	H93	0.615200	0.029200	0.482000
H941	H94	0.594700	0.974200	0.522700
H951	H95	0.618400	0.946000	0.453400
H961	H96	0.704500	0.682100	0.401400
H971	H97	0.554000	0.406600	0.279800
H981	H98	0.452800	0.470800	0.086000
H991	H99	0.548500	0.525800	0.120500
H1001	H100	0.507400	0.554000	0.172400
H1011	H101	0.817900	0.022400	0.219300
H1021	H102	0.093400	0.147400	0.373200
H1031	H103	0.029200	0.982000	0.115200
H1041	H104	0.974200	0.022700	0.094700
H1051	H105	0.946000	0.953400	0.118400
H1061	H106	0.682100	0.901400	0.204500
H1071	H107	0.406600	0.779800	0.054000
H1081	H108	0.470800	0.586000	0.952800
H1091	H109	0.525800	0.620500	0.048500
H1101	H110	0.554000	0.672400	0.007400
H1111	H111	0.196900	0.477600	0.295500
H1121	H112	0.225800	0.352600	0.446000
H1131	H113	0.133200	0.518000	0.547200
H1141	H114	0.072000	0.477300	0.451500
H1151	H115	0.165000	0.546600	0.492600
H1161	H116	0.303100	0.598600	0.280700
H1171	H117	0.274200	0.720200	0.126800
H1181	H118	0.366800	0.914000	0.384800
H1191	H119	0.428000	0.879500	0.405300
H1201	H120	0.335000	0.827600	0.381600
C11	C1	0.327200	0.951600	0.203200
C21	C2	0.419600	0.926000	0.183600
C31	C3	0.412800	0.877100	0.218700
C41	C4	0.354600	0.865800	0.242800
C51	C5	0.493100	0.999900	0.128600
C61	C6	0.248400	0.124000	0.296800
C71	C7	0.242400	0.236000	0.316400
C81	C8	0.158400	0.194100	0.281300
C91	C9	0.123000	0.111800	0.257200
C101	C10	0.371300	0.364500	0.371400
C111	C11	0.251600	0.548400	0.875600
C121	C12	0.257600	0.574000	0.993600
C131	C13	0.341600	0.622900	0.035700
C141	C14	0.377000	0.634200	0.988800
C151	C15	0.128700	0.500100	0.993200
C161	C16	0.172800	0.376000	0.624400
C171	C17	0.080400	0.264000	0.506400
C181	C18	0.087200	0.305900	0.464300
C191	C19	0.145400	0.388200	0.511200
C201	C20	0.006900	0.135500	0.506800
C211	C21	0.375600	0.251600	0.048400
C221	C22	0.493600	0.257600	0.074000
C231	C23	0.535700	0.341600	0.122900
C241	C24	0.488800	0.377000	0.134200
C251	C25	0.493200	0.128700	0.000100
C261	C26	0.124400	0.172800	0.876000
C271	C27	0.006400	0.080400	0.764000
C281	C28	0.964300	0.087200	0.805900
C291	C29	0.011200	0.145400	0.888200
C301	C30	0.006800	0.006900	0.635500
C311	C31	0.703200	0.327200	0.451600
C321	C32	0.683600	0.419600	0.426000
C331	C33	0.718700	0.412800	0.377100
C341	C34	0.742800	0.354600	0.365800
C351	C35	0.628600	0.493100	0.499900
C361	C36	0.796800	0.248400	0.624000
C371	C37	0.816400	0.242400	0.736000
C381	C38	0.781300	0.158400	0.694100
C391	C39	0.757200	0.123000	0.611800
C401	C40	0.871400	0.371300	0.864500
C411	C41	0.124000	0.796800	0.748400
C421	C42	0.236000	0.816400	0.742400
C431	C43	0.194100	0.781300	0.658400
C441	C44	0.111800	0.757200	0.623000
C451	C45	0.364500	0.871400	0.871300
C461	C46	0.951600	0.703200	0.827200
C471	C47	0.926000	0.683600	0.919600
C481	C48	0.877100	0.718700	0.912800
C491	C49	0.865800	0.742800	0.854600
C501	C50	0.999900	0.628600	0.993100
C511	C51	0.376000	0.124400	0.672800
C521	C52	0.264000	0.006400	0.580400
C531	C53	0.305900	0.964300	0.587200
C541	C54	0.388200	0.011200	0.645400
C551	C55	0.135500	0.006800	0.506900
C561	C56	0.548400	0.375600	0.751600
C571	C57	0.574000	0.493600	0.757600
C581	C58	0.622900	0.535700	0.841600
C591	C59	0.634200	0.488800	0.877000
C601	C60	0.500100	0.493200	0.628700
C611	C61	0.624000	0.748400	0.796800
C621	C62	0.736000	0.742400	0.816400
C631	C63	0.694100	0.658400	0.781300
C641	C64	0.611800	0.623000	0.757200
C651	C65	0.864500	0.871300	0.871400
C661	C66	0.451600	0.827200	0.703200
C671	C67	0.426000	0.919600	0.683600
C681	C68	0.377100	0.912800	0.718700
C691	C69	0.365800	0.854600	0.742800
C701	C70	0.499900	0.993100	0.628600
C711	C71	0.876000	0.672800	0.124400
C721	C72	0.764000	0.580400	0.006400
C731	C73	0.805900	0.587200	0.964300
C741	C74	0.888200	0.645400	0.011200
C751	C75	0.635500	0.506900	0.006800
C761	C76	0.048400	0.751600	0.375600
C771	C77	0.074000	0.757600	0.493600
C781	C78	0.122900	0.841600	0.535700
C791	C79	0.134200	0.877000	0.488800
C801	C80	0.000100	0.628700	0.493200
C811	C81	0.827200	0.203200	0.951600
C821	C82	0.919600	0.183600	0.926000
C831	C83	0.912800	0.218700	0.877100
C841	C84	0.854600	0.242800	0.865800
C851	C85	0.993100	0.128600	0.999900
C861	C86	0.748400	0.296800	0.124000
C871	C87	0.742400	0.316400	0.236000
C881	C88	0.658400	0.281300	0.194100
C891	C89	0.623000	0.257200	0.111800
C901	C90	0.871300	0.371400	0.364500
C911	C91	0.751600	0.875600	0.548400
C921	C92	0.757600	0.993600	0.574000
C931	C93	0.841600	0.035700	0.622900
C941	C94	0.877000	0.988800	0.634200
C951	C95	0.628700	0.993200	0.500100
C961	C96	0.672800	0.624400	0.376000
C971	C97	0.580400	0.506400	0.264000
C981	C98	0.587200	0.464300	0.305900
C991	C99	0.645400	0.511200	0.388200
C1001	C100	0.506900	0.506800	0.135500
C1011	C101	0.875600	0.048400	0.251600
C1021	C102	0.993600	0.074000	0.257600
C1031	C103	0.035700	0.122900	0.341600
C1041	C104	0.988800	0.134200	0.377000
C1051	C105	0.993200	0.000100	0.128700
C1061	C106	0.624400	0.876000	0.172800
C1071	C107	0.506400	0.764000	0.080400
C1081	C108	0.464300	0.805900	0.087200
C1091	C109	0.511200	0.888200	0.145400
C1101	C110	0.506800	0.635500	0.006900
C1111	C111	0.203200	0.451600	0.327200
C1121	C112	0.183600	0.426000	0.419600
C1131	C113	0.218700	0.377100	0.412800
C1141	C114	0.242800	0.365800	0.354600
C1151	C115	0.128600	0.499900	0.493100
C1161	C116	0.296800	0.624000	0.248400
C1171	C117	0.316400	0.736000	0.242400
C1181	C118	0.281300	0.694100	0.158400
C1191	C119	0.257200	0.611800	0.123000
C1201	C120	0.371400	0.864500	0.371300
I11	I1	0.132100	0.738640	0.240280
I21	I2	0.998360	0.891820	0.259720
I31	I3	0.501640	0.761360	0.893460
I41	I4	0.367900	0.608180	0.606540
I51	I5	0.393460	0.501640	0.261360
I61	I6	0.106540	0.367900	0.108180
I71	I7	0.740280	0.132100	0.238640
I81	I8	0.759720	0.998360	0.391820
I91	I9	0.891820	0.759720	0.498360
I101	I10	0.738640	0.740280	0.632100
I111	I11	0.608180	0.106540	0.867900
I121	I12	0.761360	0.393460	0.001640
I131	I13	0.391820	0.498360	0.759720
I141	I14	0.238640	0.632100	0.740280
I151	I15	0.108180	0.867900	0.106540
I161	I16	0.261360	0.001640	0.393460
I171	I17	0.632100	0.240280	0.738640
I181	I18	0.498360	0.259720	0.891820
I191	I19	0.001640	0.893460	0.761360
I201	I20	0.867900	0.606540	0.608180
I211	I21	0.893460	0.261360	0.501640
I221	I22	0.606540	0.108180	0.367900
I231	I23	0.240280	0.238640	0.132100
I241	I24	0.259720	0.391820	0.998360
N11	N1	0.380600	0.966300	0.176700
N21	N2	0.312000	0.905000	0.237600
N31	N3	0.475300	0.937000	0.151900
N41	N4	0.289600	0.203900	0.323300
N51	N5	0.167400	0.074400	0.262400
N61	N6	0.285100	0.323400	0.348100
N71	N7	0.210400	0.533700	0.914300
N81	N8	0.332600	0.595000	0.907000
N91	N9	0.214900	0.563000	0.038300
N101	N10	0.119400	0.296100	0.585700
N111	N11	0.188000	0.425600	0.593000
N121	N12	0.024700	0.176600	0.461700
N131	N13	0.414300	0.210400	0.033700
N141	N14	0.407000	0.332600	0.095000
N151	N15	0.538300	0.214900	0.063000
N161	N16	0.085700	0.119400	0.796100
N171	N17	0.093000	0.188000	0.925600
N181	N18	0.961700	0.024700	0.676600
N191	N19	0.676700	0.380600	0.466300
N201	N20	0.737600	0.312000	0.405000
N211	N21	0.651900	0.475300	0.437000
N221	N22	0.823300	0.289600	0.703900
N231	N23	0.762400	0.167400	0.574400
N241	N24	0.848100	0.285100	0.823400
N251	N25	0.203900	0.823300	0.789600
N261	N26	0.074400	0.762400	0.667400
N271	N27	0.323400	0.848100	0.785100
N281	N28	0.966300	0.676700	0.880600
N291	N29	0.905000	0.737600	0.812000
N301	N30	0.937000	0.651900	0.975300
N311	N31	0.296100	0.085700	0.619400
N321	N32	0.425600	0.093000	0.688000
N331	N33	0.176600	0.961700	0.524700
N341	N34	0.533700	0.414300	0.710400
N351	N35	0.595000	0.407000	0.832600
N361	N36	0.563000	0.538300	0.714900
N371	N37	0.703900	0.789600	0.823300
N381	N38	0.574400	0.667400	0.762400
N391	N39	0.823400	0.785100	0.848100
N401	N40	0.466300	0.880600	0.676700
N411	N41	0.405000	0.812000	0.737600
N421	N42	0.437000	0.975300	0.651900
N431	N43	0.796100	0.619400	0.085700
N441	N44	0.925600	0.688000	0.093000
N451	N45	0.676600	0.524700	0.961700
N461	N46	0.033700	0.710400	0.414300
N471	N47	0.095000	0.832600	0.407000
N481	N48	0.063000	0.714900	0.538300
N491	N49	0.880600	0.176700	0.966300
N501	N50	0.812000	0.237600	0.905000
N511	N51	0.975300	0.151900	0.937000
N521	N52	0.789600	0.323300	0.203900
N531	N53	0.667400	0.262400	0.074400
N541	N54	0.785100	0.348100	0.323400
N551	N55	0.710400	0.914300	0.533700
N561	N56	0.832600	0.907000	0.595000
N571	N57	0.714900	0.038300	0.563000
N581	N58	0.619400	0.585700	0.296100
N591	N59	0.688000	0.593000	0.425600
N601	N60	0.524700	0.461700	0.176600
N611	N61	0.914300	0.033700	0.210400
N621	N62	0.907000	0.095000	0.332600
N631	N63	0.038300	0.063000	0.214900
N641	N64	0.585700	0.796100	0.119400
N651	N65	0.593000	0.925600	0.188000
N661	N66	0.461700	0.676600	0.024700
N671	N67	0.176700	0.466300	0.380600
N681	N68	0.237600	0.405000	0.312000
N691	N69	0.151900	0.437000	0.475300
N701	N70	0.323300	0.703900	0.289600
N711	N71	0.262400	0.574400	0.167400
N721	N72	0.348100	0.823400	0.285100
