data_INEBOT01_clean_PM
_symmetry_space_group_name_H-M	'P1'
_cell_length_a	17.591000
_cell_length_b	22.781000
_cell_length_c	19.058000
_cell_angle_alpha	90.000000
_cell_angle_beta	93.225000
_cell_angle_gamma	90.000000
_symmetry_Int_Tables_number 1

loop_
_symmetry_equiv_pos_as_xyz
'x,y,z'

loop_
_atom_site_label
_atom_site_type_symbol
_atom_site_fract_x
_atom_site_fract_y
_atom_site_fract_z
N11	N1	0.991700	0.497840	0.315270
N21	N2	0.758000	0.304620	0.170880
N31	N3	0.884500	0.309100	0.188700
C11	C1	0.373700	0.334900	0.051700
H11	H1	0.393200	0.354700	0.014000
N41	N4	0.902800	0.397800	0.096540
C21	C2	0.345300	0.367800	0.110400
H21	H2	0.348400	0.408500	0.108900
C31	C3	0.780300	0.253930	0.206400
O11	O1	0.530010	0.450060	0.413640
C41	C4	0.912400	0.421870	0.313500
C51	C5	0.937200	0.470120	0.351800
N51	N5	0.956300	0.266980	0.994540
N61	N6	0.052600	0.434000	0.146700
C61	C6	0.643000	0.359900	0.203300
N71	N7	0.953000	0.419860	0.252590
C71	C7	0.120600	0.526190	0.363100
C81	C8	0.822500	0.335560	0.162700
N81	N8	0.007400	0.306600	0.092400
C91	C9	0.999300	0.465530	0.256500
C101	C10	0.688700	0.230600	0.938400
H31	H3	0.645800	0.236500	0.908300
C111	C11	0.608000	0.171460	0.019700
C121	C12	0.738100	0.206200	0.229700
H41	H4	0.685300	0.204700	0.223300
N91	N9	0.210800	0.361100	0.240000
C131	C13	0.899800	0.209500	0.248900
H51	H5	0.952600	0.209700	0.255000
C141	C14	0.251200	0.551240	0.391000
H61	H6	0.288500	0.580000	0.397200
O21	O2	0.469600	0.421950	0.539400
C151	C15	0.197200	0.321700	0.293700
C161	C16	0.903000	0.362100	0.031200
H71	H7	0.852100	0.347400	0.019800
H81	H8	0.917400	0.386800	0.992600
C171	C17	0.956800	0.312010	0.039300
C181	C18	0.758000	0.250500	0.919600
H91	H9	0.761300	0.270800	0.877500
C191	C19	0.212200	0.450700	0.398400
H101	H10	0.223500	0.411700	0.408700
O31	O3	0.512100	0.518720	0.330690
C201	C20	0.011900	0.227400	0.021800
C211	C21	0.316800	0.344700	0.163200
C221	C22	0.142900	0.370200	0.203800
C231	C23	0.907100	0.483800	0.417900
H111	H11	0.925600	0.515000	0.445400
C241	C24	0.053800	0.479500	0.202500
H121	H12	0.104800	0.482300	0.224600
H131	H13	0.041000	0.517300	0.181600
C251	C25	0.015500	0.456900	0.079100
H141	H14	0.028100	0.431800	0.040400
H151	H15	0.034100	0.496100	0.070000
O41	O4	0.400200	0.186800	0.002700
C261	C26	0.349800	0.475200	0.423900
C271	C27	0.118900	0.310100	0.287200
C281	C28	0.138300	0.467300	0.377900
H161	H16	0.100100	0.439100	0.374100
C291	C29	0.857000	0.163300	0.271400
H171	H17	0.881900	0.131800	0.293400
C301	C30	0.284900	0.382600	0.220300
H181	H18	0.320200	0.382600	0.261300
H191	H19	0.279800	0.422700	0.203600
C311	C31	0.823100	0.400200	0.398900
H201	H20	0.783700	0.377600	0.415100
C321	C32	0.100600	0.223100	0.121600
H211	H21	0.120800	0.238600	0.163800
C331	C33	0.779200	0.161900	0.262600
H221	H22	0.753300	0.129800	0.279500
C341	C34	0.899600	0.257900	0.936900
H231	H23	0.917100	0.227200	0.906400
H241	H24	0.894400	0.293700	0.909500
C351	C35	0.850200	0.449000	0.438200
H251	H25	0.827800	0.457600	0.480000
C361	C36	0.619500	0.385900	0.322000
H261	H26	0.628400	0.379300	0.369900
C371	C37	0.535600	0.469400	0.353300
C381	C38	0.128900	0.408200	0.140600
H271	H27	0.167200	0.438800	0.139500
H281	H28	0.130500	0.385100	0.097900
C391	C39	0.593700	0.404200	0.180100
H291	H29	0.583300	0.410100	0.132200
C401	C40	0.371800	0.277800	0.051800
C411	C41	0.035600	0.173000	0.996700
H301	H30	0.013200	0.155800	0.956300
C421	C42	0.654100	0.350600	0.273500
H311	H31	0.685500	0.320000	0.289500
C431	C43	0.087400	0.271200	0.335200
H321	H32	0.035500	0.263100	0.332500
C441	C44	0.134100	0.245900	0.385000
H331	H33	0.113900	0.219900	0.416700
C451	C45	0.559300	0.440400	0.229500
H341	H34	0.527800	0.471100	0.214100
C461	C46	0.245600	0.295700	0.345400
H351	H35	0.297600	0.303700	0.349100
C471	C47	0.125800	0.171700	0.097000
H361	H36	0.165400	0.152200	0.121600
C481	C48	0.093300	0.147200	0.035100
H371	H37	0.112200	0.111600	0.019700
C491	C49	0.398200	0.240500	0.993400
C501	C50	0.337600	0.254800	0.104700
H381	H38	0.329700	0.214500	0.105100
C511	C51	0.312600	0.288000	0.160300
H391	H39	0.291700	0.268300	0.197400
C521	C52	0.212300	0.258000	0.390100
H401	H40	0.242600	0.239700	0.425200
C531	C53	0.860100	0.256080	0.216400
C541	C54	0.930200	0.458400	0.085000
H411	H41	0.917500	0.483300	0.123900
H421	H42	0.905700	0.474300	0.042200
C551	C55	0.826600	0.395270	0.127800
H431	H43	0.786000	0.399500	0.091500
H441	H44	0.821900	0.426300	0.162100
C561	C56	0.855000	0.385800	0.336300
H451	H45	0.838500	0.353100	0.310400
C571	C57	0.269700	0.493400	0.403400
N101	N10	0.086100	0.341230	0.231000
C581	C58	0.823400	0.241080	0.962100
C591	C59	0.178300	0.567100	0.369700
H461	H46	0.167500	0.606200	0.359500
O51	O5	0.365000	0.421060	0.420100
C601	C60	0.814400	0.215100	0.026700
H471	H47	0.856600	0.210800	0.057900
C611	C61	0.043400	0.252600	0.082200
C621	C62	0.745800	0.195630	0.045700
H481	H48	0.741700	0.177900	0.089300
O61	O6	0.397830	0.515680	0.442720
C631	C63	0.681600	0.201910	0.000900
O71	O7	0.556300	0.170180	0.969480
O81	O8	0.604300	0.149300	0.078550
C641	C64	0.572100	0.430500	0.298600
C651	C65	0.680000	0.321000	0.149700
H491	H49	0.649900	0.285600	0.142700
H501	H50	0.679700	0.341500	0.105100
C661	C66	0.041600	0.546500	0.338700
H511	H51	0.018800	0.566900	0.377000
H521	H52	0.045500	0.574100	0.300400
O91	O9	0.415500	0.264900	0.938700
Ni11	Ni1	0.982250	0.360900	0.175330
Ni21	Ni2	0.460630	0.374710	0.450410
Ni31	Ni3	0.541150	0.415200	0.619210
N111	N11	0.008300	0.997840	0.184730
N121	N12	0.242000	0.804620	0.329120
N131	N13	0.115500	0.809100	0.311300
C671	C67	0.626300	0.834900	0.448300
H531	H53	0.606800	0.854700	0.486000
N141	N14	0.097200	0.897800	0.403460
C681	C68	0.654700	0.867800	0.389600
H541	H54	0.651600	0.908500	0.391100
C691	C69	0.219700	0.753930	0.293600
O101	O10	0.469990	0.950060	0.086360
C701	C70	0.087600	0.921870	0.186500
C711	C71	0.062800	0.970120	0.148200
N151	N15	0.043700	0.766980	0.505460
N161	N16	0.947400	0.934000	0.353300
C721	C72	0.357000	0.859900	0.296700
N171	N17	0.047000	0.919860	0.247410
C731	C73	0.879400	0.026190	0.136900
C741	C74	0.177500	0.835560	0.337300
N181	N18	0.992600	0.806600	0.407600
C751	C75	0.000700	0.965530	0.243500
C761	C76	0.311300	0.730600	0.561600
H551	H55	0.354200	0.736500	0.591700
C771	C77	0.392000	0.671460	0.480300
C781	C78	0.261900	0.706200	0.270300
H561	H56	0.314700	0.704700	0.276700
N191	N19	0.789200	0.861100	0.260000
C791	C79	0.100200	0.709500	0.251100
H571	H57	0.047400	0.709700	0.245000
C801	C80	0.748800	0.051240	0.109000
H581	H58	0.711500	0.080000	0.102800
O111	O11	0.530400	0.921950	0.960600
C811	C81	0.802800	0.821700	0.206300
C821	C82	0.097000	0.862100	0.468800
H591	H59	0.147900	0.847400	0.480200
H601	H60	0.082600	0.886800	0.507400
C831	C83	0.043200	0.812010	0.460700
C841	C84	0.242000	0.750500	0.580400
H611	H61	0.238700	0.770800	0.622500
C851	C85	0.787800	0.950700	0.101600
H621	H62	0.776500	0.911700	0.091300
O121	O12	0.487900	0.018720	0.169310
C861	C86	0.988100	0.727400	0.478200
C871	C87	0.683200	0.844700	0.336800
C881	C88	0.857100	0.870200	0.296200
C891	C89	0.092900	0.983800	0.082100
H631	H63	0.074400	0.015000	0.054600
C901	C90	0.946200	0.979500	0.297500
H641	H64	0.895200	0.982300	0.275400
H651	H65	0.959000	0.017300	0.318400
C911	C91	0.984500	0.956900	0.420900
H661	H66	0.971900	0.931800	0.459600
H671	H67	0.965900	0.996100	0.430000
O131	O13	0.599800	0.686800	0.497300
C921	C92	0.650200	0.975200	0.076100
C931	C93	0.881100	0.810100	0.212800
C941	C94	0.861700	0.967300	0.122100
H681	H68	0.899900	0.939100	0.125900
C951	C95	0.143000	0.663300	0.228600
H691	H69	0.118100	0.631800	0.206600
C961	C96	0.715100	0.882600	0.279700
H701	H70	0.679800	0.882600	0.238700
H711	H71	0.720200	0.922700	0.296400
C971	C97	0.176900	0.900200	0.101100
H721	H72	0.216300	0.877600	0.084900
C981	C98	0.899400	0.723100	0.378400
H731	H73	0.879200	0.738600	0.336200
C991	C99	0.220800	0.661900	0.237400
H741	H74	0.246700	0.629800	0.220500
C1001	C100	0.100400	0.757900	0.563100
H751	H75	0.082900	0.727200	0.593600
H761	H76	0.105600	0.793700	0.590500
C1011	C101	0.149800	0.949000	0.061800
H771	H77	0.172200	0.957600	0.020000
C1021	C102	0.380500	0.885900	0.178000
H781	H78	0.371600	0.879300	0.130100
C1031	C103	0.464400	0.969400	0.146700
C1041	C104	0.871100	0.908200	0.359400
H791	H79	0.832800	0.938800	0.360500
H801	H80	0.869500	0.885100	0.402100
C1051	C105	0.406300	0.904200	0.319900
H811	H81	0.416700	0.910100	0.367800
C1061	C106	0.628200	0.777800	0.448200
C1071	C107	0.964400	0.673000	0.503300
H821	H82	0.986800	0.655800	0.543700
C1081	C108	0.345900	0.850600	0.226500
H831	H83	0.314500	0.820000	0.210500
C1091	C109	0.912600	0.771200	0.164800
H841	H84	0.964500	0.763100	0.167500
C1101	C110	0.865900	0.745900	0.115000
H851	H85	0.886100	0.719900	0.083300
C1111	C111	0.440700	0.940400	0.270500
H861	H86	0.472200	0.971100	0.285900
C1121	C112	0.754400	0.795700	0.154600
H871	H87	0.702400	0.803700	0.150900
C1131	C113	0.874200	0.671700	0.403000
H881	H88	0.834600	0.652200	0.378400
C1141	C114	0.906700	0.647200	0.464900
H891	H89	0.887800	0.611600	0.480300
C1151	C115	0.601800	0.740500	0.506600
C1161	C116	0.662400	0.754800	0.395300
H901	H90	0.670300	0.714500	0.394900
C1171	C117	0.687400	0.788000	0.339700
H911	H91	0.708300	0.768300	0.302600
C1181	C118	0.787700	0.758000	0.109900
H921	H92	0.757400	0.739700	0.074800
C1191	C119	0.139900	0.756080	0.283600
C1201	C120	0.069800	0.958400	0.415000
H931	H93	0.082500	0.983300	0.376100
H941	H94	0.094300	0.974300	0.457800
C1211	C121	0.173400	0.895270	0.372200
H951	H95	0.214000	0.899500	0.408500
H961	H96	0.178100	0.926300	0.337900
C1221	C122	0.145000	0.885800	0.163700
H971	H97	0.161500	0.853100	0.189600
C1231	C123	0.730300	0.993400	0.096600
N201	N20	0.913900	0.841230	0.269000
C1241	C124	0.176600	0.741080	0.537900
C1251	C125	0.821700	0.067100	0.130300
H981	H98	0.832500	0.106200	0.140500
O141	O14	0.635000	0.921060	0.079900
C1261	C126	0.185600	0.715100	0.473300
H991	H99	0.143400	0.710800	0.442100
C1271	C127	0.956600	0.752600	0.417800
C1281	C128	0.254200	0.695630	0.454300
H1001	H100	0.258300	0.677900	0.410700
O151	O15	0.602170	0.015680	0.057280
C1291	C129	0.318400	0.701910	0.499100
O161	O16	0.443700	0.670180	0.530520
O171	O17	0.395700	0.649300	0.421450
C1301	C130	0.427900	0.930500	0.201400
C1311	C131	0.320000	0.821000	0.350300
H1011	H101	0.350100	0.785600	0.357300
H1021	H102	0.320300	0.841500	0.394900
C1321	C132	0.958400	0.046500	0.161300
H1031	H103	0.981200	0.066900	0.123000
H1041	H104	0.954500	0.074100	0.199600
O181	O18	0.584500	0.764900	0.561300
Ni41	Ni4	0.017750	0.860900	0.324670
Ni51	Ni5	0.539370	0.874710	0.049590
Ni61	Ni6	0.458850	0.915200	0.880790
N211	N21	0.008300	0.502160	0.684730
N221	N22	0.242000	0.695380	0.829120
N231	N23	0.115500	0.690900	0.811300
C1331	C133	0.626300	0.665100	0.948300
H1051	H105	0.606800	0.645300	0.986000
N241	N24	0.097200	0.602200	0.903460
C1341	C134	0.654700	0.632200	0.889600
H1061	H106	0.651600	0.591500	0.891100
C1351	C135	0.219700	0.746070	0.793600
O191	O19	0.469990	0.549940	0.586360
C1361	C136	0.087600	0.578130	0.686500
C1371	C137	0.062800	0.529880	0.648200
N251	N25	0.043700	0.733020	0.005460
N261	N26	0.947400	0.566000	0.853300
C1381	C138	0.357000	0.640100	0.796700
N271	N27	0.047000	0.580140	0.747410
C1391	C139	0.879400	0.473810	0.636900
C1401	C140	0.177500	0.664440	0.837300
N281	N28	0.992600	0.693400	0.907600
C1411	C141	0.000700	0.534470	0.743500
C1421	C142	0.311300	0.769400	0.061600
H1071	H107	0.354200	0.763500	0.091700
C1431	C143	0.392000	0.828540	0.980300
C1441	C144	0.261900	0.793800	0.770300
H1081	H108	0.314700	0.795300	0.776700
N291	N29	0.789200	0.638900	0.760000
C1451	C145	0.100200	0.790500	0.751100
H1091	H109	0.047400	0.790300	0.745000
C1461	C146	0.748800	0.448760	0.609000
H1101	H110	0.711500	0.420000	0.602800
O201	O20	0.530400	0.578050	0.460600
C1471	C147	0.802800	0.678300	0.706300
C1481	C148	0.097000	0.637900	0.968800
H1111	H111	0.147900	0.652600	0.980200
H1121	H112	0.082600	0.613200	0.007400
C1491	C149	0.043200	0.687990	0.960700
C1501	C150	0.242000	0.749500	0.080400
H1131	H113	0.238700	0.729200	0.122500
C1511	C151	0.787800	0.549300	0.601600
H1141	H114	0.776500	0.588300	0.591300
O211	O21	0.487900	0.481280	0.669310
C1521	C152	0.988100	0.772600	0.978200
C1531	C153	0.683200	0.655300	0.836800
C1541	C154	0.857100	0.629800	0.796200
C1551	C155	0.092900	0.516200	0.582100
H1151	H115	0.074400	0.485000	0.554600
C1561	C156	0.946200	0.520500	0.797500
H1161	H116	0.895200	0.517700	0.775400
H1171	H117	0.959000	0.482700	0.818400
C1571	C157	0.984500	0.543100	0.920900
H1181	H118	0.971900	0.568200	0.959600
H1191	H119	0.965900	0.503900	0.930000
O221	O22	0.599800	0.813200	0.997300
C1581	C158	0.650200	0.524800	0.576100
C1591	C159	0.881100	0.689900	0.712800
C1601	C160	0.861700	0.532700	0.622100
H1201	H120	0.899900	0.560900	0.625900
C1611	C161	0.143000	0.836700	0.728600
H1211	H121	0.118100	0.868200	0.706600
C1621	C162	0.715100	0.617400	0.779700
H1221	H122	0.679800	0.617400	0.738700
H1231	H123	0.720200	0.577300	0.796400
C1631	C163	0.176900	0.599800	0.601100
H1241	H124	0.216300	0.622400	0.584900
C1641	C164	0.899400	0.776900	0.878400
H1251	H125	0.879200	0.761400	0.836200
C1651	C165	0.220800	0.838100	0.737400
H1261	H126	0.246700	0.870200	0.720500
C1661	C166	0.100400	0.742100	0.063100
H1271	H127	0.082900	0.772800	0.093600
H1281	H128	0.105600	0.706300	0.090500
C1671	C167	0.149800	0.551000	0.561800
H1291	H129	0.172200	0.542400	0.520000
C1681	C168	0.380500	0.614100	0.678000
H1301	H130	0.371600	0.620700	0.630100
C1691	C169	0.464400	0.530600	0.646700
C1701	C170	0.871100	0.591800	0.859400
H1311	H131	0.832800	0.561200	0.860500
H1321	H132	0.869500	0.614900	0.902100
C1711	C171	0.406300	0.595800	0.819900
H1331	H133	0.416700	0.589900	0.867800
C1721	C172	0.628200	0.722200	0.948200
C1731	C173	0.964400	0.827000	0.003300
H1341	H134	0.986800	0.844200	0.043700
C1741	C174	0.345900	0.649400	0.726500
H1351	H135	0.314500	0.680000	0.710500
C1751	C175	0.912600	0.728800	0.664800
H1361	H136	0.964500	0.736900	0.667500
C1761	C176	0.865900	0.754100	0.615000
H1371	H137	0.886100	0.780100	0.583300
C1771	C177	0.440700	0.559600	0.770500
H1381	H138	0.472200	0.528900	0.785900
C1781	C178	0.754400	0.704300	0.654600
H1391	H139	0.702400	0.696300	0.650900
C1791	C179	0.874200	0.828300	0.903000
H1401	H140	0.834600	0.847800	0.878400
C1801	C180	0.906700	0.852800	0.964900
H1411	H141	0.887800	0.888400	0.980300
C1811	C181	0.601800	0.759500	0.006600
C1821	C182	0.662400	0.745200	0.895300
H1421	H142	0.670300	0.785500	0.894900
C1831	C183	0.687400	0.712000	0.839700
H1431	H143	0.708300	0.731700	0.802600
C1841	C184	0.787700	0.742000	0.609900
H1441	H144	0.757400	0.760300	0.574800
C1851	C185	0.139900	0.743920	0.783600
C1861	C186	0.069800	0.541600	0.915000
H1451	H145	0.082500	0.516700	0.876100
H1461	H146	0.094300	0.525700	0.957800
C1871	C187	0.173400	0.604730	0.872200
H1471	H147	0.214000	0.600500	0.908500
H1481	H148	0.178100	0.573700	0.837900
C1881	C188	0.145000	0.614200	0.663700
H1491	H149	0.161500	0.646900	0.689600
C1891	C189	0.730300	0.506600	0.596600
N301	N30	0.913900	0.658770	0.769000
C1901	C190	0.176600	0.758920	0.037900
C1911	C191	0.821700	0.432900	0.630300
H1501	H150	0.832500	0.393800	0.640500
O231	O23	0.635000	0.578940	0.579900
C1921	C192	0.185600	0.784900	0.973300
H1511	H151	0.143400	0.789200	0.942100
C1931	C193	0.956600	0.747400	0.917800
C1941	C194	0.254200	0.804370	0.954300
H1521	H152	0.258300	0.822100	0.910700
O241	O24	0.602170	0.484320	0.557280
C1951	C195	0.318400	0.798090	0.999100
O251	O25	0.443700	0.829820	0.030520
O261	O26	0.395700	0.850700	0.921450
C1961	C196	0.427900	0.569500	0.701400
C1971	C197	0.320000	0.679000	0.850300
H1531	H153	0.350100	0.714400	0.857300
H1541	H154	0.320300	0.658500	0.894900
C1981	C198	0.958400	0.453500	0.661300
H1551	H155	0.981200	0.433100	0.623000
H1561	H156	0.954500	0.425900	0.699600
O271	O27	0.584500	0.735100	0.061300
Ni71	Ni7	0.017750	0.639100	0.824670
Ni81	Ni8	0.539370	0.625290	0.549590
Ni91	Ni9	0.458850	0.584800	0.380790
N311	N31	0.991700	0.002160	0.815270
N321	N32	0.758000	0.195380	0.670880
N331	N33	0.884500	0.190900	0.688700
C1991	C199	0.373700	0.165100	0.551700
H1571	H157	0.393200	0.145300	0.514000
N341	N34	0.902800	0.102200	0.596540
C2001	C200	0.345300	0.132200	0.610400
H1581	H158	0.348400	0.091500	0.608900
C2011	C201	0.780300	0.246070	0.706400
O281	O28	0.530010	0.049940	0.913640
C2021	C202	0.912400	0.078130	0.813500
C2031	C203	0.937200	0.029880	0.851800
N351	N35	0.956300	0.233020	0.494540
N361	N36	0.052600	0.066000	0.646700
C2041	C204	0.643000	0.140100	0.703300
N371	N37	0.953000	0.080140	0.752590
C2051	C205	0.120600	0.973810	0.863100
C2061	C206	0.822500	0.164440	0.662700
N381	N38	0.007400	0.193400	0.592400
C2071	C207	0.999300	0.034470	0.756500
C2081	C208	0.688700	0.269400	0.438400
H1591	H159	0.645800	0.263500	0.408300
C2091	C209	0.608000	0.328540	0.519700
C2101	C210	0.738100	0.293800	0.729700
H1601	H160	0.685300	0.295300	0.723300
N391	N39	0.210800	0.138900	0.740000
C2111	C211	0.899800	0.290500	0.748900
H1611	H161	0.952600	0.290300	0.755000
C2121	C212	0.251200	0.948760	0.891000
H1621	H162	0.288500	0.920000	0.897200
O291	O29	0.469600	0.078050	0.039400
C2131	C213	0.197200	0.178300	0.793700
C2141	C214	0.903000	0.137900	0.531200
H1631	H163	0.852100	0.152600	0.519800
H1641	H164	0.917400	0.113200	0.492600
C2151	C215	0.956800	0.187990	0.539300
C2161	C216	0.758000	0.249500	0.419600
H1651	H165	0.761300	0.229200	0.377500
C2171	C217	0.212200	0.049300	0.898400
H1661	H166	0.223500	0.088300	0.908700
O301	O30	0.512100	0.981280	0.830690
C2181	C218	0.011900	0.272600	0.521800
C2191	C219	0.316800	0.155300	0.663200
C2201	C220	0.142900	0.129800	0.703800
C2211	C221	0.907100	0.016200	0.917900
H1671	H167	0.925600	0.985000	0.945400
C2221	C222	0.053800	0.020500	0.702500
H1681	H168	0.104800	0.017700	0.724600
H1691	H169	0.041000	0.982700	0.681600
C2231	C223	0.015500	0.043100	0.579100
H1701	H170	0.028100	0.068200	0.540400
H1711	H171	0.034100	0.003900	0.570000
O311	O31	0.400200	0.313200	0.502700
C2241	C224	0.349800	0.024800	0.923900
C2251	C225	0.118900	0.189900	0.787200
C2261	C226	0.138300	0.032700	0.877900
H1721	H172	0.100100	0.060900	0.874100
C2271	C227	0.857000	0.336700	0.771400
H1731	H173	0.881900	0.368200	0.793400
C2281	C228	0.284900	0.117400	0.720300
H1741	H174	0.320200	0.117400	0.761300
H1751	H175	0.279800	0.077300	0.703600
C2291	C229	0.823100	0.099800	0.898900
H1761	H176	0.783700	0.122400	0.915100
C2301	C230	0.100600	0.276900	0.621600
H1771	H177	0.120800	0.261400	0.663800
C2311	C231	0.779200	0.338100	0.762600
H1781	H178	0.753300	0.370200	0.779500
C2321	C232	0.899600	0.242100	0.436900
H1791	H179	0.917100	0.272800	0.406400
H1801	H180	0.894400	0.206300	0.409500
C2331	C233	0.850200	0.051000	0.938200
H1811	H181	0.827800	0.042400	0.980000
C2341	C234	0.619500	0.114100	0.822000
H1821	H182	0.628400	0.120700	0.869900
C2351	C235	0.535600	0.030600	0.853300
C2361	C236	0.128900	0.091800	0.640600
H1831	H183	0.167200	0.061200	0.639500
H1841	H184	0.130500	0.114900	0.597900
C2371	C237	0.593700	0.095800	0.680100
H1851	H185	0.583300	0.089900	0.632200
C2381	C238	0.371800	0.222200	0.551800
C2391	C239	0.035600	0.327000	0.496700
H1861	H186	0.013200	0.344200	0.456300
C2401	C240	0.654100	0.149400	0.773500
H1871	H187	0.685500	0.180000	0.789500
C2411	C241	0.087400	0.228800	0.835200
H1881	H188	0.035500	0.236900	0.832500
C2421	C242	0.134100	0.254100	0.885000
H1891	H189	0.113900	0.280100	0.916700
C2431	C243	0.559300	0.059600	0.729500
H1901	H190	0.527800	0.028900	0.714100
C2441	C244	0.245600	0.204300	0.845400
H1911	H191	0.297600	0.196300	0.849100
C2451	C245	0.125800	0.328300	0.597000
H1921	H192	0.165400	0.347800	0.621600
C2461	C246	0.093300	0.352800	0.535100
H1931	H193	0.112200	0.388400	0.519700
C2471	C247	0.398200	0.259500	0.493400
C2481	C248	0.337600	0.245200	0.604700
H1941	H194	0.329700	0.285500	0.605100
C2491	C249	0.312600	0.212000	0.660300
H1951	H195	0.291700	0.231700	0.697400
C2501	C250	0.212300	0.242000	0.890100
H1961	H196	0.242600	0.260300	0.925200
C2511	C251	0.860100	0.243920	0.716400
C2521	C252	0.930200	0.041600	0.585000
H1971	H197	0.917500	0.016700	0.623900
H1981	H198	0.905700	0.025700	0.542200
C2531	C253	0.826600	0.104730	0.627800
H1991	H199	0.786000	0.100500	0.591500
H2001	H200	0.821900	0.073700	0.662100
C2541	C254	0.855000	0.114200	0.836300
H2011	H201	0.838500	0.146900	0.810400
C2551	C255	0.269700	0.006600	0.903400
N401	N40	0.086100	0.158770	0.731000
C2561	C256	0.823400	0.258920	0.462100
C2571	C257	0.178300	0.932900	0.869700
H2021	H202	0.167500	0.893800	0.859500
O321	O32	0.365000	0.078940	0.920100
C2581	C258	0.814400	0.284900	0.526700
H2031	H203	0.856600	0.289200	0.557900
C2591	C259	0.043400	0.247400	0.582200
C2601	C260	0.745800	0.304370	0.545700
H2041	H204	0.741700	0.322100	0.589300
O331	O33	0.397830	0.984320	0.942720
C2611	C261	0.681600	0.298090	0.500900
O341	O34	0.556300	0.329820	0.469480
O351	O35	0.604300	0.350700	0.578550
C2621	C262	0.572100	0.069500	0.798600
C2631	C263	0.680000	0.179000	0.649700
H2051	H205	0.649900	0.214400	0.642700
H2061	H206	0.679700	0.158500	0.605100
C2641	C264	0.041600	0.953500	0.838700
H2071	H207	0.018800	0.933100	0.877000
H2081	H208	0.045500	0.925900	0.800400
O361	O36	0.415500	0.235100	0.438700
Ni101	Ni10	0.982250	0.139100	0.675330
Ni111	Ni11	0.460630	0.125290	0.950410
Ni121	Ni12	0.541150	0.084800	0.119210
Ni131	Ni13	0.500000	0.500000	0.500000
Ni141	Ni14	0.500000	0.000000	0.000000
