data_INEXIK_clean_PM
_symmetry_space_group_name_H-M	'P1'
_cell_length_a	10.230000
_cell_length_b	9.468000
_cell_length_c	28.006000
_cell_angle_alpha	90.000000
_cell_angle_beta	98.048000
_cell_angle_gamma	90.000000
_symmetry_Int_Tables_number 1

loop_
_symmetry_equiv_pos_as_xyz
'x,y,z'

loop_
_atom_site_label
_atom_site_type_symbol
_atom_site_fract_x
_atom_site_fract_y
_atom_site_fract_z
Co11	Co1	0.779730	0.383360	0.693520
Co21	Co2	0.556440	0.439700	0.597200
O11	O1	0.532700	0.246300	0.626400
O21	O2	0.709900	0.186900	0.677800
O31	O3	0.782500	0.652700	0.705900
O41	O4	0.632600	0.518300	0.666000
O51	O5	0.287700	0.878000	0.735000
O61	O6	0.081200	0.848600	0.745200
O71	O7	0.589700	0.625900	0.464200
O81	O8	0.652100	0.538800	0.399200
O91	O9	0.100600	0.607800	0.359000
O101	O10	0.262600	0.610800	0.421900
C11	C1	0.603000	0.159000	0.652000
C21	C2	0.551800	0.010100	0.653300
C31	C3	0.635700	0.898800	0.667800
H11	H1	0.725500	0.914400	0.677000
C41	C4	0.583700	0.762900	0.668700
C51	C5	0.449100	0.741700	0.657900
H21	H2	0.414900	0.651300	0.660100
C61	C6	0.363900	0.853700	0.643700
C71	C7	0.415700	0.984600	0.640300
H31	H3	0.360300	0.059100	0.629300
C81	C8	0.673900	0.639500	0.681100
C91	C9	0.219000	0.824600	0.631400
C101	C10	0.130700	0.825200	0.664900
C111	C11	0.998200	0.791500	0.648700
H41	H4	0.938900	0.792600	0.671000
C121	C12	0.950300	0.756300	0.600800
H51	H5	0.862000	0.733100	0.591600
C131	C13	0.039200	0.757200	0.567400
C141	C14	0.169200	0.792800	0.583800
H61	H6	0.227800	0.795600	0.561200
C151	C15	0.171200	0.852800	0.718000
C161	C16	0.994800	0.713000	0.516600
C171	C17	0.862300	0.681900	0.500500
H71	H7	0.800000	0.696500	0.521200
C181	C18	0.822100	0.630800	0.455300
C191	C19	0.912500	0.608700	0.423200
H81	H8	0.884300	0.572600	0.392600
C201	C20	0.044400	0.640500	0.437000
C211	C21	0.084900	0.689000	0.484400
H91	H9	0.174100	0.705500	0.494400
C221	C22	0.146600	0.615900	0.404200
C231	C23	0.679100	0.595100	0.437900
Co31	Co3	0.220270	0.883360	0.806480
Co41	Co4	0.443560	0.939700	0.902800
O111	O11	0.467300	0.746300	0.873600
O121	O12	0.290100	0.686900	0.822200
O131	O13	0.217500	0.152700	0.794100
O141	O14	0.367400	0.018300	0.834000
O151	O15	0.712300	0.378000	0.765000
O161	O16	0.918800	0.348600	0.754800
O171	O17	0.410300	0.125900	0.035800
O181	O18	0.347900	0.038800	0.100800
O191	O19	0.899400	0.107800	0.141000
O201	O20	0.737400	0.110800	0.078100
C241	C24	0.397000	0.659000	0.848000
C251	C25	0.448200	0.510100	0.846700
C261	C26	0.364300	0.398800	0.832200
H101	H10	0.274500	0.414400	0.823000
C271	C27	0.416300	0.262900	0.831300
C281	C28	0.550900	0.241700	0.842100
H111	H11	0.585100	0.151300	0.839900
C291	C29	0.636100	0.353700	0.856300
C301	C30	0.584300	0.484600	0.859700
H121	H12	0.639700	0.559100	0.870700
C311	C31	0.326100	0.139500	0.818900
C321	C32	0.781000	0.324600	0.868600
C331	C33	0.869300	0.325200	0.835100
C341	C34	0.001800	0.291500	0.851300
H131	H13	0.061100	0.292600	0.829000
C351	C35	0.049700	0.256300	0.899200
H141	H14	0.138000	0.233100	0.908400
C361	C36	0.960800	0.257200	0.932600
C371	C37	0.830800	0.292800	0.916200
H151	H15	0.772200	0.295600	0.938800
C381	C38	0.828800	0.352800	0.782000
C391	C39	0.005200	0.213000	0.983400
C401	C40	0.137700	0.181900	0.999500
H161	H16	0.200000	0.196500	0.978800
C411	C41	0.177900	0.130800	0.044700
C421	C42	0.087500	0.108700	0.076800
H171	H17	0.115700	0.072600	0.107400
C431	C43	0.955600	0.140500	0.063000
C441	C44	0.915100	0.189000	0.015600
H181	H18	0.825900	0.205500	0.005600
C451	C45	0.853400	0.115900	0.095800
C461	C46	0.320900	0.095100	0.062100
Co51	Co5	0.220270	0.616640	0.306480
Co61	Co6	0.443560	0.560300	0.402800
O211	O21	0.467300	0.753700	0.373600
O221	O22	0.290100	0.813100	0.322200
O231	O23	0.217500	0.347300	0.294100
O241	O24	0.367400	0.481700	0.334000
O251	O25	0.712300	0.122000	0.265000
O261	O26	0.918800	0.151400	0.254800
O271	O27	0.410300	0.374100	0.535800
O281	O28	0.347900	0.461200	0.600800
O291	O29	0.899400	0.392200	0.641000
O301	O30	0.737400	0.389200	0.578100
C471	C47	0.397000	0.841000	0.348000
C481	C48	0.448200	0.989900	0.346700
C491	C49	0.364300	0.101200	0.332200
H191	H19	0.274500	0.085600	0.323000
C501	C50	0.416300	0.237100	0.331300
C511	C51	0.550900	0.258300	0.342100
H201	H20	0.585100	0.348700	0.339900
C521	C52	0.636100	0.146300	0.356300
C531	C53	0.584300	0.015400	0.359700
H211	H21	0.639700	0.940900	0.370700
C541	C54	0.326100	0.360500	0.318900
C551	C55	0.781000	0.175400	0.368600
C561	C56	0.869300	0.174800	0.335100
C571	C57	0.001800	0.208500	0.351300
H221	H22	0.061100	0.207400	0.329000
C581	C58	0.049700	0.243700	0.399200
H231	H23	0.138000	0.266900	0.408400
C591	C59	0.960800	0.242800	0.432600
C601	C60	0.830800	0.207200	0.416200
H241	H24	0.772200	0.204400	0.438800
C611	C61	0.828800	0.147200	0.282000
C621	C62	0.005200	0.287000	0.483400
C631	C63	0.137700	0.318100	0.499500
H251	H25	0.200000	0.303500	0.478800
C641	C64	0.177900	0.369200	0.544700
C651	C65	0.087500	0.391300	0.576800
H261	H26	0.115700	0.427400	0.607400
C661	C66	0.955600	0.359500	0.563000
C671	C67	0.915100	0.311000	0.515600
H271	H27	0.825900	0.294500	0.505600
C681	C68	0.853400	0.384100	0.595800
C691	C69	0.320900	0.404900	0.562100
Co71	Co7	0.779730	0.116640	0.193520
Co81	Co8	0.556440	0.060300	0.097200
O311	O31	0.532700	0.253700	0.126400
O321	O32	0.709900	0.313100	0.177800
O331	O33	0.782500	0.847300	0.205900
O341	O34	0.632600	0.981700	0.166000
O351	O35	0.287700	0.622000	0.235000
O361	O36	0.081200	0.651400	0.245200
O371	O37	0.589700	0.874100	0.964200
O381	O38	0.652100	0.961200	0.899200
O391	O39	0.100600	0.892200	0.859000
O401	O40	0.262600	0.889200	0.921900
C701	C70	0.603000	0.341000	0.152000
C711	C71	0.551800	0.489900	0.153300
C721	C72	0.635700	0.601200	0.167800
H281	H28	0.725500	0.585600	0.177000
C731	C73	0.583700	0.737100	0.168700
C741	C74	0.449100	0.758300	0.157900
H291	H29	0.414900	0.848700	0.160100
C751	C75	0.363900	0.646300	0.143700
C761	C76	0.415700	0.515400	0.140300
H301	H30	0.360300	0.440900	0.129300
C771	C77	0.673900	0.860500	0.181100
C781	C78	0.219000	0.675400	0.131400
C791	C79	0.130700	0.674800	0.164900
C801	C80	0.998200	0.708500	0.148700
H311	H31	0.938900	0.707400	0.171000
C811	C81	0.950300	0.743700	0.100800
H321	H32	0.862000	0.766900	0.091600
C821	C82	0.039200	0.742800	0.067400
C831	C83	0.169200	0.707200	0.083800
H331	H33	0.227800	0.704400	0.061200
C841	C84	0.171200	0.647200	0.218000
C851	C85	0.994800	0.787000	0.016600
C861	C86	0.862300	0.818100	0.000500
H341	H34	0.800000	0.803500	0.021200
C871	C87	0.822100	0.869200	0.955300
C881	C88	0.912500	0.891300	0.923200
H351	H35	0.884300	0.927400	0.892600
C891	C89	0.044400	0.859500	0.937000
C901	C90	0.084900	0.811000	0.984400
H361	H36	0.174100	0.794500	0.994400
C911	C91	0.146600	0.884100	0.904200
C921	C92	0.679100	0.904900	0.937900
