data_INIRAY_clean_PM
_symmetry_space_group_name_H-M	'P1'
_cell_length_a	14.228700
_cell_length_b	14.228700
_cell_length_c	16.475000
_cell_angle_alpha	81.379800
_cell_angle_beta	81.379800
_cell_angle_gamma	61.424800
_symmetry_Int_Tables_number 1

loop_
_symmetry_equiv_pos_as_xyz
'x,y,z'

loop_
_atom_site_label
_atom_site_type_symbol
_atom_site_fract_x
_atom_site_fract_y
_atom_site_fract_z
Co11	Co1	0.850880	0.771980	0.413660
Co21	Co2	0.228020	0.149120	0.086340
Co31	Co3	0.149120	0.228020	0.586340
Co41	Co4	0.771980	0.850880	0.913660
Ni11	Ni1	0.944290	0.595630	0.695410
Ni21	Ni2	0.404370	0.055710	0.804590
Ni31	Ni3	0.055710	0.404370	0.304590
Ni41	Ni4	0.595630	0.944290	0.195410
Ni51	Ni5	0.109300	0.890700	0.250000
Ni61	Ni6	0.890700	0.109300	0.750000
H11	H1	0.061000	0.665200	0.735300
H21	H2	0.123400	0.592400	0.664300
H31	H3	0.192800	0.449400	0.748200
H41	H4	0.203200	0.536600	0.786900
H51	H5	0.066100	0.553500	0.873700
H61	H6	0.167400	0.442600	0.881700
H71	H7	0.029800	0.409000	0.899900
H81	H8	0.084500	0.375700	0.812800
H91	H9	0.907900	0.558300	0.848100
H101	H10	0.875800	0.432800	0.877100
H111	H11	0.918400	0.394000	0.789600
H121	H12	0.735700	0.571700	0.825400
H131	H13	0.742900	0.461700	0.815300
H141	H14	0.671600	0.588200	0.707900
H151	H15	0.770700	0.484300	0.679800
H161	H16	0.811800	0.598200	0.610300
H171	H17	0.749400	0.683200	0.673400
H181	H18	0.226900	0.920100	0.330900
H191	H19	0.170100	0.863700	0.390400
H201	H20	0.102100	0.980900	0.443200
H211	H21	0.149700	0.041100	0.378000
H221	H22	0.969000	0.079000	0.427500
H231	H23	0.018000	0.147800	0.375100
H241	H24	0.881700	0.111100	0.342900
H251	H25	0.941700	0.166500	0.286200
H261	H26	0.334800	0.939000	0.764700
H271	H27	0.407600	0.876600	0.835700
H281	H28	0.550600	0.807200	0.751800
H291	H29	0.463400	0.796800	0.713100
H301	H30	0.446500	0.933900	0.626300
H311	H31	0.557400	0.832600	0.618300
H321	H32	0.591000	0.970200	0.600100
H331	H33	0.624300	0.915500	0.687200
H341	H34	0.441700	0.092100	0.651900
H351	H35	0.567200	0.124200	0.622900
H361	H36	0.606000	0.081600	0.710400
H371	H37	0.428300	0.264300	0.674600
H381	H38	0.538300	0.257100	0.684700
H391	H39	0.411800	0.328400	0.792100
H401	H40	0.515700	0.229300	0.820200
H411	H41	0.401800	0.188200	0.889700
H421	H42	0.316800	0.250600	0.826600
H431	H43	0.079900	0.773100	0.169100
H441	H44	0.136300	0.829900	0.109600
H451	H45	0.019100	0.897900	0.056800
H461	H46	0.958900	0.850300	0.122000
H471	H47	0.921000	0.031000	0.072500
H481	H48	0.852200	0.982000	0.124900
H491	H49	0.888900	0.118300	0.157100
H501	H50	0.833500	0.058300	0.213800
H511	H51	0.939000	0.334800	0.264700
H521	H52	0.876600	0.407600	0.335700
H531	H53	0.807200	0.550600	0.251800
H541	H54	0.796800	0.463400	0.213100
H551	H55	0.933900	0.446500	0.126300
H561	H56	0.832600	0.557400	0.118300
H571	H57	0.970200	0.591000	0.100100
H581	H58	0.915500	0.624300	0.187200
H591	H59	0.092100	0.441700	0.151900
H601	H60	0.124200	0.567200	0.122900
H611	H61	0.081600	0.606000	0.210400
H621	H62	0.264300	0.428300	0.174600
H631	H63	0.257100	0.538300	0.184700
H641	H64	0.328400	0.411800	0.292100
H651	H65	0.229300	0.515700	0.320200
H661	H66	0.188200	0.401800	0.389700
H671	H67	0.250600	0.316800	0.326600
H681	H68	0.773100	0.079900	0.669100
H691	H69	0.829900	0.136300	0.609600
H701	H70	0.897900	0.019100	0.556800
H711	H71	0.850300	0.958900	0.622000
H721	H72	0.031000	0.921000	0.572500
H731	H73	0.982000	0.852200	0.624900
H741	H74	0.118300	0.888900	0.657100
H751	H75	0.058300	0.833500	0.713800
H761	H76	0.665200	0.061000	0.235300
H771	H77	0.592400	0.123400	0.164300
H781	H78	0.449400	0.192800	0.248200
H791	H79	0.536600	0.203200	0.286900
H801	H80	0.553500	0.066100	0.373700
H811	H81	0.442600	0.167400	0.381700
H821	H82	0.409000	0.029800	0.399900
H831	H83	0.375700	0.084500	0.312800
H841	H84	0.558300	0.907900	0.348100
H851	H85	0.432800	0.875800	0.377100
H861	H86	0.394000	0.918400	0.289600
H871	H87	0.571700	0.735700	0.325400
H881	H88	0.461700	0.742900	0.315300
H891	H89	0.588200	0.671600	0.207900
H901	H90	0.484300	0.770700	0.179800
H911	H91	0.598200	0.811800	0.110300
H921	H92	0.683200	0.749400	0.173400
H931	H93	0.920100	0.226900	0.830900
H941	H94	0.863700	0.170100	0.890400
H951	H95	0.980900	0.102100	0.943200
H961	H96	0.041100	0.149700	0.878000
H971	H97	0.079000	0.969000	0.927500
H981	H98	0.147800	0.018000	0.875100
H991	H99	0.111100	0.881700	0.842900
H1001	H100	0.166500	0.941700	0.786200
C11	C1	0.909700	0.722300	0.516000
C21	C2	0.966300	0.796900	0.363300
C31	C3	0.923700	0.630700	0.382500
C41	C4	0.777700	0.916900	0.441800
C51	C5	0.732600	0.750400	0.459800
C61	C6	0.785000	0.821200	0.314200
C71	C7	0.154000	0.508000	0.774000
C81	C8	0.118000	0.490000	0.847000
C91	C9	0.042000	0.436000	0.845000
C101	C10	0.860300	0.456300	0.814000
C111	C11	0.752700	0.526700	0.792000
C121	C12	0.749200	0.547200	0.708000
C131	C13	0.100000	0.004000	0.392000
C141	C14	0.008000	0.088000	0.375000
C151	C15	0.938000	0.098000	0.312000
C161	C16	0.277700	0.090300	0.984000
C171	C17	0.203100	0.033700	0.136700
C181	C18	0.369300	0.076300	0.117500
C191	C19	0.083100	0.222300	0.058200
C201	C20	0.249600	0.267400	0.040200
C211	C21	0.178800	0.215000	0.185800
C221	C22	0.492000	0.846000	0.726000
C231	C23	0.510000	0.882000	0.653000
C241	C24	0.564000	0.958000	0.655000
C251	C25	0.543700	0.139700	0.686000
C261	C26	0.473300	0.247300	0.708000
C271	C27	0.452800	0.250800	0.792000
C281	C28	0.996000	0.900000	0.108000
C291	C29	0.912000	0.992000	0.125000
C301	C30	0.902000	0.062000	0.188000
C311	C31	0.090300	0.277700	0.484000
C321	C32	0.033700	0.203100	0.636700
C331	C33	0.076300	0.369300	0.617500
C341	C34	0.222300	0.083100	0.558200
C351	C35	0.267400	0.249600	0.540200
C361	C36	0.215000	0.178800	0.685800
C371	C37	0.846000	0.492000	0.226000
C381	C38	0.882000	0.510000	0.153000
C391	C39	0.958000	0.564000	0.155000
C401	C40	0.139700	0.543700	0.186000
C411	C41	0.247300	0.473300	0.208000
C421	C42	0.250800	0.452800	0.292000
C431	C43	0.900000	0.996000	0.608000
C441	C44	0.992000	0.912000	0.625000
C451	C45	0.062000	0.902000	0.688000
C461	C46	0.722300	0.909700	0.016000
C471	C47	0.796900	0.966300	0.863300
C481	C48	0.630700	0.923700	0.882500
C491	C49	0.916900	0.777700	0.941800
C501	C50	0.750400	0.732600	0.959800
C511	C51	0.821200	0.785000	0.814200
C521	C52	0.508000	0.154000	0.274000
C531	C53	0.490000	0.118000	0.347000
C541	C54	0.436000	0.042000	0.345000
C551	C55	0.456300	0.860300	0.314000
C561	C56	0.526700	0.752700	0.292000
C571	C57	0.547200	0.749200	0.208000
C581	C58	0.004000	0.100000	0.892000
C591	C59	0.088000	0.008000	0.875000
C601	C60	0.098000	0.938000	0.812000
N11	N1	0.941100	0.686900	0.580400
N21	N2	0.031200	0.816200	0.328900
N31	N3	0.969200	0.546800	0.361000
N41	N4	0.735000	0.003600	0.456200
N51	N5	0.661200	0.734000	0.484900
N61	N6	0.736100	0.854500	0.257500
N71	N7	0.083800	0.597600	0.715700
N81	N8	0.941500	0.502700	0.810700
N91	N9	0.800400	0.609600	0.666600
N101	N10	0.159600	0.921000	0.349700
N111	N11	0.313100	0.058900	0.919600
N121	N12	0.183800	0.968800	0.171100
N131	N13	0.453200	0.030800	0.139000
N141	N14	0.996400	0.265000	0.043800
N151	N15	0.266000	0.338800	0.015100
N161	N16	0.145500	0.263900	0.242500
N171	N17	0.402400	0.916200	0.784300
N181	N18	0.497300	0.058500	0.689300
N191	N19	0.390400	0.199600	0.833400
N201	N20	0.079000	0.840400	0.150300
N211	N21	0.058900	0.313100	0.419600
N221	N22	0.968800	0.183800	0.671100
N231	N23	0.030800	0.453200	0.639000
N241	N24	0.265000	0.996400	0.543800
N251	N25	0.338800	0.266000	0.515100
N261	N26	0.263900	0.145500	0.742500
N271	N27	0.916200	0.402400	0.284300
N281	N28	0.058500	0.497300	0.189300
N291	N29	0.199600	0.390400	0.333400
N301	N30	0.840400	0.079000	0.650300
N311	N31	0.686900	0.941100	0.080400
N321	N32	0.816200	0.031200	0.828900
N331	N33	0.546800	0.969200	0.861000
N341	N34	0.003600	0.735000	0.956200
N351	N35	0.734000	0.661200	0.984900
N361	N36	0.854500	0.736100	0.757500
N371	N37	0.597600	0.083800	0.215700
N381	N38	0.502700	0.941500	0.310700
N391	N39	0.609600	0.800400	0.166600
N401	N40	0.921000	0.159600	0.849700
N411	N41	0.966000	0.034000	0.250000
N421	N42	0.034000	0.966000	0.750000
