data_INIRAY01_clean_PM
_symmetry_space_group_name_H-M	'P1'
_cell_length_a	13.933700
_cell_length_b	13.933700
_cell_length_c	16.599000
_cell_angle_alpha	80.804100
_cell_angle_beta	80.804100
_cell_angle_gamma	61.254000
_symmetry_Int_Tables_number 1

loop_
_symmetry_equiv_pos_as_xyz
'x,y,z'

loop_
_atom_site_label
_atom_site_type_symbol
_atom_site_fract_x
_atom_site_fract_y
_atom_site_fract_z
Co11	Co1	0.837510	0.781550	0.417690
Co21	Co2	0.218450	0.162490	0.082310
Co31	Co3	0.162490	0.218450	0.582310
Co41	Co4	0.781550	0.837510	0.917690
Ni11	Ni1	0.955730	0.591630	0.691690
Ni21	Ni2	0.408370	0.044270	0.808310
Ni31	Ni3	0.044270	0.408370	0.308310
Ni41	Ni4	0.591630	0.955730	0.191690
Ni51	Ni5	0.108200	0.891800	0.250000
Ni61	Ni6	0.891800	0.108200	0.750000
H11	H1	0.136600	0.591800	0.645800
H21	H2	0.077600	0.669600	0.714900
H31	H3	0.228400	0.453800	0.728400
H41	H4	0.221700	0.549100	0.770200
H51	H5	0.195600	0.433000	0.861500
H61	H6	0.090500	0.545900	0.858900
H71	H7	0.109200	0.364000	0.809000
H81	H8	0.056500	0.406500	0.894200
H91	H9	0.931200	0.548200	0.842900
H101	H10	0.945200	0.373000	0.798500
H111	H11	0.901300	0.423500	0.881800
H121	H12	0.754800	0.541800	0.837900
H131	H13	0.777600	0.426800	0.818900
H141	H14	0.683300	0.574900	0.723500
H151	H15	0.780700	0.471900	0.687100
H161	H16	0.815300	0.587100	0.616500
H171	H17	0.753100	0.673700	0.679400
H181	H18	0.174400	0.860000	0.389200
H191	H19	0.225400	0.925800	0.331000
H201	H20	0.084200	0.983400	0.446900
H211	H21	0.138800	0.047600	0.391000
H221	H22	0.947600	0.095200	0.423700
H231	H23	0.002300	0.159300	0.367600
H241	H24	0.862800	0.112800	0.338600
H251	H25	0.915200	0.179600	0.283300
H261	H26	0.408200	0.863400	0.854200
H271	H27	0.330400	0.922400	0.785100
H281	H28	0.546200	0.771600	0.771600
H291	H29	0.450900	0.778300	0.729800
H301	H30	0.567000	0.804400	0.638500
H311	H31	0.454100	0.909500	0.641100
H321	H32	0.636000	0.890800	0.691000
H331	H33	0.593500	0.943500	0.605800
H341	H34	0.451800	0.068800	0.657100
H351	H35	0.627000	0.054800	0.701500
H361	H36	0.576500	0.098700	0.618200
H371	H37	0.458200	0.245200	0.662100
H381	H38	0.573200	0.222400	0.681100
H391	H39	0.425100	0.316700	0.776500
H401	H40	0.528100	0.219300	0.812900
H411	H41	0.412900	0.184700	0.883500
H421	H42	0.326300	0.246900	0.820600
H431	H43	0.140000	0.825600	0.110800
H441	H44	0.074200	0.774600	0.169000
H451	H45	0.016600	0.915800	0.053100
H461	H46	0.952400	0.861200	0.109000
H471	H47	0.904800	0.052400	0.076300
H481	H48	0.840700	0.997700	0.132400
H491	H49	0.887200	0.137200	0.161400
H501	H50	0.820400	0.084800	0.216700
H511	H51	0.863400	0.408200	0.354200
H521	H52	0.922400	0.330400	0.285100
H531	H53	0.771600	0.546200	0.271600
H541	H54	0.778300	0.450900	0.229800
H551	H55	0.804400	0.567000	0.138500
H561	H56	0.909500	0.454100	0.141100
H571	H57	0.890800	0.636000	0.191000
H581	H58	0.943500	0.593500	0.105800
H591	H59	0.068800	0.451800	0.157100
H601	H60	0.054800	0.627000	0.201500
H611	H61	0.098700	0.576500	0.118200
H621	H62	0.245200	0.458200	0.162100
H631	H63	0.222400	0.573200	0.181100
H641	H64	0.316700	0.425100	0.276500
H651	H65	0.219300	0.528100	0.312900
H661	H66	0.184700	0.412900	0.383500
H671	H67	0.246900	0.326300	0.320600
H681	H68	0.825600	0.140000	0.610800
H691	H69	0.774600	0.074200	0.669000
H701	H70	0.915800	0.016600	0.553100
H711	H71	0.861200	0.952400	0.609000
H721	H72	0.052400	0.904800	0.576300
H731	H73	0.997700	0.840700	0.632400
H741	H74	0.137200	0.887200	0.661400
H751	H75	0.084800	0.820400	0.716700
H761	H76	0.591800	0.136600	0.145800
H771	H77	0.669600	0.077600	0.214900
H781	H78	0.453800	0.228400	0.228400
H791	H79	0.549100	0.221700	0.270200
H801	H80	0.433000	0.195600	0.361500
H811	H81	0.545900	0.090500	0.358900
H821	H82	0.364000	0.109200	0.309000
H831	H83	0.406500	0.056500	0.394200
H841	H84	0.548200	0.931200	0.342900
H851	H85	0.373000	0.945200	0.298500
H861	H86	0.423500	0.901300	0.381800
H871	H87	0.541800	0.754800	0.337900
H881	H88	0.426800	0.777600	0.318900
H891	H89	0.574900	0.683300	0.223500
H901	H90	0.471900	0.780700	0.187100
H911	H91	0.587100	0.815300	0.116500
H921	H92	0.673700	0.753100	0.179400
H931	H93	0.860000	0.174400	0.889200
H941	H94	0.925800	0.225400	0.831000
H951	H95	0.983400	0.084200	0.946900
H961	H96	0.047600	0.138800	0.891000
H971	H97	0.095200	0.947600	0.923700
H981	H98	0.159300	0.002300	0.867600
H991	H99	0.112800	0.862800	0.838600
H1001	H100	0.179600	0.915200	0.783300
C11	C1	0.898900	0.730900	0.519100
C21	C2	0.957500	0.801300	0.366400
C31	C3	0.911900	0.636100	0.387800
C41	C4	0.764700	0.930700	0.444500
C51	C5	0.716200	0.756800	0.463800
C61	C6	0.772500	0.832900	0.318000
C71	C7	0.183000	0.515000	0.756000
C81	C8	0.138000	0.480000	0.831000
C91	C9	0.074000	0.426000	0.837000
C101	C10	0.900000	0.440000	0.822000
C111	C11	0.791000	0.491000	0.801000
C121	C12	0.755600	0.535600	0.712000
C131	C13	0.095000	0.013000	0.391000
C141	C14	0.993000	0.093000	0.374000
C151	C15	0.932900	0.110900	0.309000
C161	C16	0.269100	0.101100	0.980900
C171	C17	0.198700	0.042500	0.133600
C181	C18	0.363900	0.088100	0.112200
C191	C19	0.069300	0.235300	0.055500
C201	C20	0.243200	0.283800	0.036200
C211	C21	0.167100	0.227500	0.182000
C221	C22	0.485000	0.817000	0.744000
C231	C23	0.520000	0.862000	0.669000
C241	C24	0.574000	0.926000	0.663000
C251	C25	0.560000	0.100000	0.678000
C261	C26	0.509000	0.209000	0.699000
C271	C27	0.464400	0.244400	0.788000
C281	C28	0.987000	0.905000	0.109000
C291	C29	0.907000	0.007000	0.126000
C301	C30	0.889100	0.067100	0.191000
C311	C31	0.101100	0.269100	0.480900
C321	C32	0.042500	0.198700	0.633600
C331	C33	0.088100	0.363900	0.612200
C341	C34	0.235300	0.069300	0.555500
C351	C35	0.283800	0.243200	0.536200
C361	C36	0.227500	0.167100	0.682000
C371	C37	0.817000	0.485000	0.244000
C381	C38	0.862000	0.520000	0.169000
C391	C39	0.926000	0.574000	0.163000
C401	C40	0.100000	0.560000	0.178000
C411	C41	0.209000	0.509000	0.199000
C421	C42	0.244400	0.464400	0.288000
C431	C43	0.905000	0.987000	0.609000
C441	C44	0.007000	0.907000	0.626000
C451	C45	0.067100	0.889100	0.691000
C461	C46	0.730900	0.898900	0.019100
C471	C47	0.801300	0.957500	0.866400
C481	C48	0.636100	0.911900	0.887800
C491	C49	0.930700	0.764700	0.944500
C501	C50	0.756800	0.716200	0.963800
C511	C51	0.832900	0.772500	0.818000
C521	C52	0.515000	0.183000	0.256000
C531	C53	0.480000	0.138000	0.331000
C541	C54	0.426000	0.074000	0.337000
C551	C55	0.440000	0.900000	0.322000
C561	C56	0.491000	0.791000	0.301000
C571	C57	0.535600	0.755600	0.212000
C581	C58	0.013000	0.095000	0.891000
C591	C59	0.093000	0.993000	0.874000
C601	C60	0.110900	0.932900	0.809000
N11	N1	0.934400	0.694400	0.580500
N21	N2	0.028600	0.817400	0.329500
N31	N3	0.957300	0.550500	0.367000
N41	N4	0.721800	0.022000	0.456900
N51	N5	0.643900	0.735100	0.489400
N61	N6	0.726700	0.868100	0.259900
N71	N7	0.100700	0.598700	0.697700
N81	N8	0.967700	0.491700	0.804400
N91	N9	0.806200	0.600800	0.671600
N101	N10	0.159700	0.921700	0.349500
N111	N11	0.305600	0.065600	0.919500
N121	N12	0.182600	0.971400	0.170500
N131	N13	0.449500	0.042700	0.133000
N141	N14	0.978000	0.278200	0.043100
N151	N15	0.264900	0.356100	0.010600
N161	N16	0.131900	0.273300	0.240100
N171	N17	0.401300	0.899300	0.802300
N181	N18	0.508300	0.032300	0.695600
N191	N19	0.399200	0.193800	0.828400
N201	N20	0.078300	0.840300	0.150500
N211	N21	0.065600	0.305600	0.419500
N221	N22	0.971400	0.182600	0.670500
N231	N23	0.042700	0.449500	0.633000
N241	N24	0.278200	0.978000	0.543100
N251	N25	0.356100	0.264900	0.510600
N261	N26	0.273300	0.131900	0.740100
N271	N27	0.899300	0.401300	0.302300
N281	N28	0.032300	0.508300	0.195600
N291	N29	0.193800	0.399200	0.328400
N301	N30	0.840300	0.078300	0.650500
N311	N31	0.694400	0.934400	0.080500
N321	N32	0.817400	0.028600	0.829500
N331	N33	0.550500	0.957300	0.867000
N341	N34	0.022000	0.721800	0.956900
N351	N35	0.735100	0.643900	0.989400
N361	N36	0.868100	0.726700	0.759900
N371	N37	0.598700	0.100700	0.197700
N381	N38	0.491700	0.967700	0.304400
N391	N39	0.600800	0.806200	0.171600
N401	N40	0.921700	0.159700	0.849500
N411	N41	0.958700	0.041300	0.250000
N421	N42	0.041300	0.958700	0.750000
