data_INOMIJ_clean_PM
_symmetry_space_group_name_H-M	'P1'
_cell_length_a	22.650500
_cell_length_b	11.235200
_cell_length_c	12.796100
_cell_angle_alpha	90.000000
_cell_angle_beta	90.000000
_cell_angle_gamma	90.000000
_symmetry_Int_Tables_number 1

loop_
_symmetry_equiv_pos_as_xyz
'x,y,z'

loop_
_atom_site_label
_atom_site_type_symbol
_atom_site_fract_x
_atom_site_fract_y
_atom_site_fract_z
Ca11	Ca1	0.434050	0.622100	0.076900
Ca21	Ca2	0.508570	0.493760	0.312740
S11	S1	0.508790	0.032550	0.226850
S21	S2	0.274890	0.487430	0.407680
C11	C1	0.283000	0.499700	0.207900
H11	H1	0.298500	0.502800	0.138900
C21	C2	0.222390	0.509500	0.231700
H21	H2	0.192500	0.517900	0.180100
O11	O1	0.485100	0.449300	0.992000
O21	O2	0.410510	0.496100	0.217000
C31	C3	0.495550	0.786200	0.235700
C41	C4	0.382050	0.473500	0.299500
O31	O3	0.509290	0.290700	0.252800
O41	O4	0.495040	0.789900	0.136900
O51	O5	0.486400	0.694800	0.289300
O61	O6	0.530300	0.523200	0.129600
C51	C5	0.316800	0.485100	0.295300
O71	O7	0.406580	0.443300	0.383200
O81	O8	0.529250	0.298700	0.422800
O91	O9	0.109310	0.494800	0.326600
O101	O10	0.148910	0.548500	0.480300
C61	C6	0.506830	0.899300	0.293000
C71	C7	0.210890	0.505900	0.336700
C81	C8	0.520900	0.109600	0.341300
C91	C9	0.151500	0.517400	0.386100
C101	C10	0.523400	0.034900	0.426100
H31	H3	0.530100	0.061200	0.495700
C111	C11	0.520700	0.241500	0.338100
C121	C12	0.514800	0.914500	0.398500
H41	H4	0.514600	0.851000	0.447500
C131	C13	0.527440	0.447400	0.056600
C141	C14	0.574200	0.352900	0.046500
H51	H5	0.612700	0.386400	0.065600
H61	H6	0.575500	0.324400	0.974100
H71	H7	0.564800	0.286400	0.093100
Ca31	Ca3	0.565950	0.377900	0.576900
Ca41	Ca4	0.491430	0.506240	0.812740
S31	S3	0.491210	0.967450	0.726850
S41	S4	0.725110	0.512570	0.907680
C151	C15	0.717000	0.500300	0.707900
H81	H8	0.701500	0.497200	0.638900
C161	C16	0.777610	0.490500	0.731700
H91	H9	0.807500	0.482100	0.680100
O111	O11	0.514900	0.550700	0.492000
O121	O12	0.589490	0.503900	0.717000
C171	C17	0.504450	0.213800	0.735700
C181	C18	0.617950	0.526500	0.799500
O131	O13	0.490710	0.709300	0.752800
O141	O14	0.504960	0.210100	0.636900
O151	O15	0.513600	0.305200	0.789300
O161	O16	0.469700	0.476800	0.629600
C191	C19	0.683200	0.514900	0.795300
O171	O17	0.593420	0.556700	0.883200
O181	O18	0.470750	0.701300	0.922800
O191	O19	0.890690	0.505200	0.826600
O201	O20	0.851090	0.451500	0.980300
C201	C20	0.493170	0.100700	0.793000
C211	C21	0.789110	0.494100	0.836700
C221	C22	0.479100	0.890400	0.841300
C231	C23	0.848500	0.482600	0.886100
C241	C24	0.476600	0.965100	0.926100
H101	H10	0.469900	0.938800	0.995700
C251	C25	0.479300	0.758500	0.838100
C261	C26	0.485200	0.085500	0.898500
H111	H11	0.485400	0.149000	0.947500
C271	C27	0.472560	0.552600	0.556600
C281	C28	0.425800	0.647100	0.546500
H121	H12	0.387300	0.613600	0.565600
H131	H13	0.424500	0.675600	0.474100
H141	H14	0.435200	0.713600	0.593100
Ca51	Ca5	0.934050	0.377900	0.076900
Ca61	Ca6	0.008570	0.506240	0.312740
S51	S5	0.008790	0.967450	0.226850
S61	S6	0.774890	0.512570	0.407680
C291	C29	0.783000	0.500300	0.207900
H151	H15	0.798500	0.497200	0.138900
C301	C30	0.722390	0.490500	0.231700
H161	H16	0.692500	0.482100	0.180100
O211	O21	0.985100	0.550700	0.992000
O221	O22	0.910510	0.503900	0.217000
C311	C31	0.995550	0.213800	0.235700
C321	C32	0.882050	0.526500	0.299500
O231	O23	0.009290	0.709300	0.252800
O241	O24	0.995040	0.210100	0.136900
O251	O25	0.986400	0.305200	0.289300
O261	O26	0.030300	0.476800	0.129600
C331	C33	0.816800	0.514900	0.295300
O271	O27	0.906580	0.556700	0.383200
O281	O28	0.029250	0.701300	0.422800
O291	O29	0.609310	0.505200	0.326600
O301	O30	0.648910	0.451500	0.480300
C341	C34	0.006830	0.100700	0.293000
C351	C35	0.710890	0.494100	0.336700
C361	C36	0.020900	0.890400	0.341300
C371	C37	0.651500	0.482600	0.386100
C381	C38	0.023400	0.965100	0.426100
H171	H17	0.030100	0.938800	0.495700
C391	C39	0.020700	0.758500	0.338100
C401	C40	0.014800	0.085500	0.398500
H181	H18	0.014600	0.149000	0.447500
C411	C41	0.027440	0.552600	0.056600
C421	C42	0.074200	0.647100	0.046500
H191	H19	0.112700	0.613600	0.065600
H201	H20	0.075500	0.675600	0.974100
H211	H21	0.064800	0.713600	0.093100
Ca71	Ca7	0.065950	0.622100	0.576900
Ca81	Ca8	0.991430	0.493760	0.812740
S71	S7	0.991210	0.032550	0.726850
S81	S8	0.225110	0.487430	0.907680
C431	C43	0.217000	0.499700	0.707900
H221	H22	0.201500	0.502800	0.638900
C441	C44	0.277610	0.509500	0.731700
H231	H23	0.307500	0.517900	0.680100
O311	O31	0.014900	0.449300	0.492000
O321	O32	0.089490	0.496100	0.717000
C451	C45	0.004450	0.786200	0.735700
C461	C46	0.117950	0.473500	0.799500
O331	O33	0.990710	0.290700	0.752800
O341	O34	0.004960	0.789900	0.636900
O351	O35	0.013600	0.694800	0.789300
O361	O36	0.969700	0.523200	0.629600
C471	C47	0.183200	0.485100	0.795300
O371	O37	0.093420	0.443300	0.883200
O381	O38	0.970750	0.298700	0.922800
O391	O39	0.390690	0.494800	0.826600
O401	O40	0.351090	0.548500	0.980300
C481	C48	0.993170	0.899300	0.793000
C491	C49	0.289110	0.505900	0.836700
C501	C50	0.979100	0.109600	0.841300
C511	C51	0.348500	0.517400	0.886100
C521	C52	0.976600	0.034900	0.926100
H241	H24	0.969900	0.061200	0.995700
C531	C53	0.979300	0.241500	0.838100
C541	C54	0.985200	0.914500	0.898500
H251	H25	0.985400	0.851000	0.947500
C551	C55	0.972560	0.447400	0.556600
C561	C56	0.925800	0.352900	0.546500
H261	H26	0.887300	0.386400	0.565600
H271	H27	0.924500	0.324400	0.474100
H281	H28	0.935200	0.286400	0.593100
