data_INOMOP01_clean_PM
_symmetry_space_group_name_H-M	'P1'
_cell_length_a	6.577100
_cell_length_b	11.122600
_cell_length_c	18.033000
_cell_angle_alpha	90.000000
_cell_angle_beta	97.602000
_cell_angle_gamma	90.000000
_symmetry_Int_Tables_number 1

loop_
_symmetry_equiv_pos_as_xyz
'x,y,z'

loop_
_atom_site_label
_atom_site_type_symbol
_atom_site_fract_x
_atom_site_fract_y
_atom_site_fract_z
Ca11	Ca1	0.252660	0.906630	0.476910
S11	S1	0.117320	0.198980	0.711740
O11	O1	0.095500	0.096200	0.558360
O21	O2	0.424700	0.056750	0.561620
O31	O3	0.324400	0.321800	0.910110
O41	O4	0.005900	0.294000	0.852490
C11	C1	0.194600	0.285900	0.856700
C21	C2	0.275500	0.095300	0.591730
C31	C3	0.313400	0.137400	0.669820
C41	C4	0.492900	0.137200	0.717020
H11	H1	0.615000	0.106100	0.704400
C51	C5	0.474100	0.189100	0.787080
H21	H2	0.582400	0.196000	0.825600
C61	C6	0.279200	0.228200	0.792290
Ca21	Ca2	0.247340	0.406630	0.023090
S21	S2	0.382680	0.698980	0.788260
O51	O5	0.404500	0.596200	0.941640
O61	O6	0.075300	0.556750	0.938380
O71	O7	0.175600	0.821800	0.589890
O81	O8	0.494100	0.794000	0.647510
C71	C7	0.305400	0.785900	0.643300
C81	C8	0.224500	0.595300	0.908270
C91	C9	0.186600	0.637400	0.830180
C101	C10	0.007100	0.637200	0.782980
H31	H3	0.885000	0.606100	0.795600
C111	C11	0.025900	0.689100	0.712920
H41	H4	0.917600	0.696000	0.674400
C121	C12	0.220800	0.728200	0.707710
Ca31	Ca3	0.747340	0.093370	0.523090
S31	S3	0.882680	0.801020	0.288260
O91	O9	0.904500	0.903800	0.441640
O101	O10	0.575300	0.943250	0.438380
O111	O11	0.675600	0.678200	0.089890
O121	O12	0.994100	0.706000	0.147510
C131	C13	0.805400	0.714100	0.143300
C141	C14	0.724500	0.904700	0.408270
C151	C15	0.686600	0.862600	0.330180
C161	C16	0.507100	0.862800	0.282980
H51	H5	0.385000	0.893900	0.295600
C171	C17	0.525900	0.810900	0.212920
H61	H6	0.417600	0.804000	0.174400
C181	C18	0.720800	0.771800	0.207710
Ca41	Ca4	0.752660	0.593370	0.976910
S41	S4	0.617320	0.301020	0.211740
O131	O13	0.595500	0.403800	0.058360
O141	O14	0.924700	0.443250	0.061620
O151	O15	0.824400	0.178200	0.410110
O161	O16	0.505900	0.206000	0.352490
C191	C19	0.694600	0.214100	0.356700
C201	C20	0.775500	0.404700	0.091730
C211	C21	0.813400	0.362600	0.169820
C221	C22	0.992900	0.362800	0.217020
H71	H7	0.115000	0.393900	0.204400
C231	C23	0.974100	0.310900	0.287080
H81	H8	0.082400	0.304000	0.325600
C241	C24	0.779200	0.271800	0.292290
