data_INOMOP_clean_PM
_symmetry_space_group_name_H-M	'P1'
_cell_length_a	6.556200
_cell_length_b	10.642400
_cell_length_c	18.295100
_cell_angle_alpha	90.000000
_cell_angle_beta	98.070000
_cell_angle_gamma	90.000000
_symmetry_Int_Tables_number 1

loop_
_symmetry_equiv_pos_as_xyz
'x,y,z'

loop_
_atom_site_label
_atom_site_type_symbol
_atom_site_fract_x
_atom_site_fract_y
_atom_site_fract_z
Ca11	Ca1	0.247750	0.596340	0.522520
S11	S1	0.115550	0.799010	0.209730
O11	O1	0.097300	0.897880	0.056280
O21	O2	0.428300	0.940560	0.061110
O31	O3	0.320200	0.681660	0.409100
O41	O4	0.999400	0.711500	0.350000
C11	C1	0.276100	0.901400	0.090600
C21	C2	0.190900	0.716800	0.354710
C31	C3	0.472900	0.814200	0.286340
H11	H1	0.583000	0.808200	0.325900
C41	C4	0.313100	0.861500	0.168680
C51	C5	0.277100	0.774100	0.290750
C61	C6	0.493900	0.865700	0.216420
H21	H2	0.618900	0.899300	0.204000
Ca21	Ca2	0.252250	0.096340	0.977480
S21	S2	0.384450	0.299010	0.290270
O51	O5	0.402700	0.397880	0.443720
O61	O6	0.071700	0.440560	0.438890
O71	O7	0.179800	0.181660	0.090900
O81	O8	0.500600	0.211500	0.150000
C71	C7	0.223900	0.401400	0.409400
C81	C8	0.309100	0.216800	0.145290
C91	C9	0.027100	0.314200	0.213660
H31	H3	0.917000	0.308200	0.174100
C101	C10	0.186900	0.361500	0.331320
C111	C11	0.222900	0.274100	0.209250
C121	C12	0.006100	0.365700	0.283580
H41	H4	0.881100	0.399300	0.296000
Ca31	Ca3	0.752250	0.403660	0.477480
S31	S3	0.884450	0.200990	0.790270
O91	O9	0.902700	0.102120	0.943720
O101	O10	0.571700	0.059440	0.938890
O111	O11	0.679800	0.318340	0.590900
O121	O12	0.000600	0.288500	0.650000
C131	C13	0.723900	0.098600	0.909400
C141	C14	0.809100	0.283200	0.645290
C151	C15	0.527100	0.185800	0.713660
H51	H5	0.417000	0.191800	0.674100
C161	C16	0.686900	0.138500	0.831320
C171	C17	0.722900	0.225900	0.709250
C181	C18	0.506100	0.134300	0.783580
H61	H6	0.381100	0.100700	0.796000
Ca41	Ca4	0.747750	0.903660	0.022520
S41	S4	0.615550	0.700990	0.709730
O131	O13	0.597300	0.602120	0.556280
O141	O14	0.928300	0.559440	0.561110
O151	O15	0.820200	0.818340	0.909100
O161	O16	0.499400	0.788500	0.850000
C191	C19	0.776100	0.598600	0.590600
C201	C20	0.690900	0.783200	0.854710
C211	C21	0.972900	0.685800	0.786340
H71	H7	0.083000	0.691800	0.825900
C221	C22	0.813100	0.638500	0.668680
C231	C23	0.777100	0.725900	0.790750
C241	C24	0.993900	0.634300	0.716420
H81	H8	0.118900	0.600700	0.704000
