data_INOVEN_clean_PM
_symmetry_space_group_name_H-M	'P1'
_cell_length_a	13.615900
_cell_length_b	14.479700
_cell_length_c	16.037200
_cell_angle_alpha	116.836000
_cell_angle_beta	96.234000
_cell_angle_gamma	90.000000
_symmetry_Int_Tables_number 1

loop_
_symmetry_equiv_pos_as_xyz
'x,y,z'

loop_
_atom_site_label
_atom_site_type_symbol
_atom_site_fract_x
_atom_site_fract_y
_atom_site_fract_z
Gd11	Gd1	0.465620	0.392050	0.366200
Gd21	Gd2	0.034380	0.025850	0.633800
Gd31	Gd3	0.534380	0.607950	0.633800
Gd41	Gd4	0.965620	0.974150	0.366200
H11	H1	0.906400	0.126500	0.938800
H21	H2	0.955700	0.368000	0.889000
H31	H3	0.926000	0.702700	0.317200
H41	H4	0.783000	0.733500	0.533200
H51	H5	0.903400	0.479100	0.030200
H61	H6	0.730200	0.481200	0.285400
H71	H7	0.851800	0.240000	0.080400
H81	H8	0.593600	0.187700	0.061200
H91	H9	0.544300	0.479000	0.111000
H101	H10	0.574000	0.385500	0.682800
H111	H11	0.717000	0.200300	0.466800
H121	H12	0.596600	0.448900	0.969800
H131	H13	0.769800	0.195800	0.714600
H141	H14	0.648200	0.159600	0.919600
H151	H15	0.093600	0.873500	0.061200
H161	H16	0.044300	0.632000	0.111000
H171	H17	0.074000	0.297300	0.682800
H181	H18	0.217000	0.266500	0.466800
H191	H19	0.096600	0.520900	0.969800
H201	H20	0.269800	0.518800	0.714600
H211	H21	0.148200	0.760000	0.919600
H221	H22	0.406400	0.812300	0.938800
H231	H23	0.455700	0.521000	0.889000
H241	H24	0.426000	0.614500	0.317200
H251	H25	0.283000	0.799700	0.533200
H261	H26	0.403400	0.551100	0.030200
H271	H27	0.230200	0.804200	0.285400
H281	H28	0.351800	0.840400	0.080400
C11	C1	0.666100	0.560800	0.452000
C21	C2	0.973100	0.164800	0.807400
C31	C3	0.935900	0.238100	0.898600
C41	C4	0.905400	0.197100	0.956600
C51	C5	0.934800	0.341400	0.927600
C61	C6	0.916900	0.837900	0.495200
C71	C7	0.861900	0.735300	0.433600
C81	C8	0.881000	0.677200	0.342400
C91	C9	0.794100	0.696000	0.470600
C101	C10	0.743400	0.601500	0.414400
C111	C11	0.833600	0.581800	0.288800
C121	C12	0.874000	0.369500	0.068600
C131	C13	0.903900	0.408300	0.012000
C141	C14	0.763800	0.544900	0.323600
C151	C15	0.873700	0.265600	0.041400
C161	C16	0.833900	0.108800	0.548000
C171	C17	0.526900	0.357400	0.192600
C181	C18	0.564100	0.339500	0.101400
C191	C19	0.594600	0.240500	0.043400
C201	C20	0.565200	0.413800	0.072400
C211	C21	0.583100	0.342700	0.504800
C221	C22	0.638100	0.301700	0.566400
C231	C23	0.619000	0.334800	0.657600
C241	C24	0.705900	0.225400	0.529400
C251	C25	0.756600	0.187100	0.585600
C261	C26	0.666400	0.293000	0.711200
C271	C27	0.626000	0.300900	0.931400
C281	C28	0.596100	0.396300	0.988000
C291	C29	0.736200	0.221300	0.676400
C301	C30	0.626300	0.224200	0.958600
C311	C31	0.333900	0.439200	0.548000
C321	C32	0.026900	0.835200	0.192600
C331	C33	0.064100	0.761900	0.101400
C341	C34	0.094600	0.802900	0.043400
C351	C35	0.065200	0.658600	0.072400
C361	C36	0.083100	0.162100	0.504800
C371	C37	0.138100	0.264700	0.566400
C381	C38	0.119000	0.322800	0.657600
C391	C39	0.205900	0.304000	0.529400
C401	C40	0.256600	0.398500	0.585600
C411	C41	0.166400	0.418200	0.711200
C421	C42	0.126000	0.630500	0.931400
C431	C43	0.096100	0.591700	0.988000
C441	C44	0.236200	0.455100	0.676400
C451	C45	0.126300	0.734400	0.958600
C461	C46	0.166100	0.891200	0.452000
C471	C47	0.473100	0.642600	0.807400
C481	C48	0.435900	0.660500	0.898600
C491	C49	0.405400	0.759500	0.956600
C501	C50	0.434800	0.586200	0.927600
C511	C51	0.416900	0.657300	0.495200
C521	C52	0.361900	0.698300	0.433600
C531	C53	0.381000	0.665200	0.342400
C541	C54	0.294100	0.774600	0.470600
C551	C55	0.243400	0.812900	0.414400
C561	C56	0.333600	0.707000	0.288800
C571	C57	0.374000	0.699100	0.068600
C581	C58	0.403900	0.603700	0.012000
C591	C59	0.263800	0.778700	0.323600
C601	C60	0.373700	0.775800	0.041400
N11	N1	0.862800	0.524600	0.195000
N21	N2	0.844200	0.430400	0.161800
N31	N3	0.637200	0.329600	0.805000
N41	N4	0.655800	0.268600	0.838200
N51	N5	0.137200	0.475400	0.805000
N61	N6	0.155800	0.569600	0.838200
N71	N7	0.362800	0.670400	0.195000
N81	N8	0.344200	0.731400	0.161800
O11	O1	0.626300	0.473700	0.399000
O21	O2	0.648500	0.616710	0.533620
O31	O3	0.964000	0.069400	0.780400
O41	O4	0.012400	0.203100	0.762200
O51	O5	0.930000	0.868710	0.582620
O61	O6	0.950300	0.890100	0.458600
O71	O7	0.873700	0.074700	0.601000
O81	O8	0.851500	0.083090	0.466380
O91	O9	0.536000	0.289000	0.219600
O101	O10	0.487600	0.440900	0.237800
O111	O11	0.570000	0.286090	0.417380
O121	O12	0.549700	0.431500	0.541400
O131	O13	0.373700	0.526300	0.601000
O141	O14	0.351500	0.383290	0.466380
O151	O15	0.036000	0.930600	0.219600
O161	O16	0.987600	0.796900	0.237800
O171	O17	0.070000	0.131290	0.417380
O181	O18	0.049700	0.109900	0.541400
O191	O19	0.126300	0.925300	0.399000
O201	O20	0.148500	0.916910	0.533620
O211	O21	0.464000	0.711000	0.780400
O221	O22	0.512400	0.559100	0.762200
O231	O23	0.430000	0.713910	0.582620
O241	O24	0.450300	0.568500	0.458600
