data_IPICOA_clean_PM
_symmetry_space_group_name_H-M	'P1'
_cell_length_a	9.608300
_cell_length_b	16.036000
_cell_length_c	14.084000
_cell_angle_alpha	90.000000
_cell_angle_beta	90.000000
_cell_angle_gamma	90.000000
_symmetry_Int_Tables_number 1

loop_
_symmetry_equiv_pos_as_xyz
'x,y,z'

loop_
_atom_site_label
_atom_site_type_symbol
_atom_site_fract_x
_atom_site_fract_y
_atom_site_fract_z
Zn11	Zn1	0.040100	0.420210	0.893200
O11	O1	0.848800	0.397800	0.861700
O21	O2	0.648400	0.323500	0.803900
O31	O3	0.835400	0.356870	0.687700
O41	O4	0.079900	0.538100	0.887800
O51	O5	0.912900	0.626600	0.983500
O61	O6	0.059500	0.690190	0.854700
P11	P1	0.758580	0.384310	0.776000
H11	H1	0.720000	0.463000	0.758000
P21	P2	0.982860	0.612160	0.887880
H21	H2	0.876000	0.602000	0.828000
Zn21	Zn2	0.459900	0.079790	0.393200
O71	O7	0.651200	0.102200	0.361700
O81	O8	0.851600	0.176500	0.303900
O91	O9	0.664600	0.143130	0.187700
O101	O10	0.420100	0.961900	0.387800
O111	O11	0.587100	0.873400	0.483500
O121	O12	0.440500	0.809810	0.354700
P31	P3	0.741420	0.115690	0.276000
H31	H3	0.780000	0.037000	0.258000
P41	P4	0.517140	0.887840	0.387880
H41	H4	0.624000	0.898000	0.328000
Zn31	Zn3	0.959900	0.420210	0.606800
O131	O13	0.151200	0.397800	0.638300
O141	O14	0.351600	0.323500	0.696100
O151	O15	0.164600	0.356870	0.812300
O161	O16	0.920100	0.538100	0.612200
O171	O17	0.087100	0.626600	0.516500
O181	O18	0.940500	0.690190	0.645300
P51	P5	0.241420	0.384310	0.724000
H51	H5	0.280000	0.463000	0.742000
P61	P6	0.017140	0.612160	0.612120
H61	H6	0.124000	0.602000	0.672000
Zn41	Zn4	0.540100	0.079790	0.106800
O191	O19	0.348800	0.102200	0.138300
O201	O20	0.148400	0.176500	0.196100
O211	O21	0.335400	0.143130	0.312300
O221	O22	0.579900	0.961900	0.112200
O231	O23	0.412900	0.873400	0.016500
O241	O24	0.559500	0.809810	0.145300
P71	P7	0.258580	0.115690	0.224000
H71	H7	0.220000	0.037000	0.242000
P81	P8	0.482860	0.887840	0.112120
H81	H8	0.376000	0.898000	0.172000
Zn51	Zn5	0.959900	0.579790	0.106800
O251	O25	0.151200	0.602200	0.138300
O261	O26	0.351600	0.676500	0.196100
O271	O27	0.164600	0.643130	0.312300
O281	O28	0.920100	0.461900	0.112200
O291	O29	0.087100	0.373400	0.016500
O301	O30	0.940500	0.309810	0.145300
P91	P9	0.241420	0.615690	0.224000
H91	H9	0.280000	0.537000	0.242000
P101	P10	0.017140	0.387840	0.112120
H101	H10	0.124000	0.398000	0.172000
Zn61	Zn6	0.540100	0.920210	0.606800
O311	O31	0.348800	0.897800	0.638300
O321	O32	0.148400	0.823500	0.696100
O331	O33	0.335400	0.856870	0.812300
O341	O34	0.579900	0.038100	0.612200
O351	O35	0.412900	0.126600	0.516500
O361	O36	0.559500	0.190190	0.645300
P111	P11	0.258580	0.884310	0.724000
H111	H11	0.220000	0.963000	0.742000
P121	P12	0.482860	0.112160	0.612120
H121	H12	0.376000	0.102000	0.672000
Zn71	Zn7	0.040100	0.579790	0.393200
O371	O37	0.848800	0.602200	0.361700
O381	O38	0.648400	0.676500	0.303900
O391	O39	0.835400	0.643130	0.187700
O401	O40	0.079900	0.461900	0.387800
O411	O41	0.912900	0.373400	0.483500
O421	O42	0.059500	0.309810	0.354700
P131	P13	0.758580	0.615690	0.276000
H131	H13	0.720000	0.537000	0.258000
P141	P14	0.982860	0.387840	0.387880
H141	H14	0.876000	0.398000	0.328000
Zn81	Zn8	0.459900	0.920210	0.893200
O431	O43	0.651200	0.897800	0.861700
O441	O44	0.851600	0.823500	0.803900
O451	O45	0.664600	0.856870	0.687700
O461	O46	0.420100	0.038100	0.887800
O471	O47	0.587100	0.126600	0.983500
O481	O48	0.440500	0.190190	0.854700
P151	P15	0.741420	0.884310	0.776000
H151	H15	0.780000	0.963000	0.758000
P161	P16	0.517140	0.112160	0.887880
H161	H16	0.624000	0.102000	0.828000
Zn91	Zn9	0.000000	0.761150	0.750000
Zn101	Zn10	0.500000	0.738850	0.250000
Zn111	Zn11	0.000000	0.238850	0.250000
Zn121	Zn12	0.500000	0.261150	0.750000
