data_IPICUG_charged_PM
_symmetry_space_group_name_H-M	'P1'
_cell_length_a	14.803000
_cell_length_b	14.803000
_cell_length_c	19.901000
_cell_angle_alpha	90.000000
_cell_angle_beta	90.000000
_cell_angle_gamma	90.000000
_symmetry_Int_Tables_number 1

loop_
_symmetry_equiv_pos_as_xyz
'x,y,z'

loop_
_atom_site_label
_atom_site_type_symbol
_atom_site_fract_x
_atom_site_fract_y
_atom_site_fract_z
Cu11	Cu1	0.500000	0.500000	0.000000
Cu21	Cu2	0.000000	0.000000	0.000000
Cu31	Cu3	0.000000	0.500000	0.500000
Cu41	Cu4	0.500000	0.000000	0.500000
Cu51	Cu5	0.250000	0.750000	0.750000
Cu61	Cu6	0.750000	0.250000	0.250000
Cu71	Cu7	0.750000	0.250000	0.750000
Cu81	Cu8	0.250000	0.750000	0.250000
H11	H1	0.439800	0.796200	0.794300
H21	H2	0.549800	0.750100	0.869500
H31	H3	0.310900	0.430600	0.965100
H41	H4	0.195700	0.467300	0.889700
H51	H5	0.210300	0.592700	0.820000
H61	H6	0.060200	0.703800	0.794300
H71	H7	0.950200	0.749900	0.869500
H81	H8	0.189100	0.069400	0.965100
H91	H9	0.304300	0.032700	0.889700
H101	H10	0.289700	0.907300	0.820000
H111	H11	0.703800	0.439800	0.294300
H121	H12	0.749900	0.549800	0.369500
H131	H13	0.069400	0.310900	0.465100
H141	H14	0.032700	0.195700	0.389700
H151	H15	0.907300	0.210300	0.320000
H161	H16	0.796200	0.060200	0.294300
H171	H17	0.750100	0.950200	0.369500
H181	H18	0.430600	0.189100	0.465100
H191	H19	0.467300	0.304300	0.389700
H201	H20	0.592700	0.289700	0.320000
H211	H21	0.560200	0.296200	0.705700
H221	H22	0.450200	0.250100	0.630500
H231	H23	0.689100	0.930600	0.534900
H241	H24	0.804300	0.967300	0.610300
H251	H25	0.789700	0.092700	0.680000
H261	H26	0.939800	0.203800	0.705700
H271	H27	0.049800	0.249900	0.630500
H281	H28	0.810900	0.569400	0.534900
H291	H29	0.695700	0.532700	0.610300
H301	H30	0.710300	0.407300	0.680000
H311	H31	0.296200	0.939800	0.205700
H321	H32	0.250100	0.049800	0.130500
H331	H33	0.930600	0.810900	0.034900
H341	H34	0.967300	0.695700	0.110300
H351	H35	0.092700	0.710300	0.180000
H361	H36	0.203800	0.560200	0.205700
H371	H37	0.249900	0.450200	0.130500
H381	H38	0.569400	0.689100	0.034900
H391	H39	0.532700	0.804300	0.110300
H401	H40	0.407300	0.789700	0.180000
H411	H41	0.560200	0.203800	0.205700
H421	H42	0.450200	0.249900	0.130500
H431	H43	0.689100	0.569400	0.034900
H441	H44	0.804300	0.532700	0.110300
H451	H45	0.789700	0.407300	0.180000
H461	H46	0.939800	0.296200	0.205700
H471	H47	0.049800	0.250100	0.130500
H481	H48	0.810900	0.930600	0.034900
H491	H49	0.695700	0.967300	0.110300
H501	H50	0.710300	0.092700	0.180000
H511	H51	0.296200	0.560200	0.705700
H521	H52	0.250100	0.450200	0.630500
H531	H53	0.930600	0.689100	0.534900
H541	H54	0.967300	0.804300	0.610300
H551	H55	0.092700	0.789700	0.680000
H561	H56	0.203800	0.939800	0.705700
H571	H57	0.249900	0.049800	0.630500
H581	H58	0.569400	0.810900	0.534900
H591	H59	0.532700	0.695700	0.610300
H601	H60	0.407300	0.710300	0.680000
H611	H61	0.439800	0.703800	0.294300
H621	H62	0.549800	0.749900	0.369500
H631	H63	0.310900	0.069400	0.465100
H641	H64	0.195700	0.032700	0.389700
H651	H65	0.210300	0.907300	0.320000
H661	H66	0.060200	0.796200	0.294300
H671	H67	0.950200	0.750100	0.369500
H681	H68	0.189100	0.430600	0.465100
H691	H69	0.304300	0.467300	0.389700
H701	H70	0.289700	0.592700	0.320000
H711	H71	0.703800	0.060200	0.794300
H721	H72	0.749900	0.950200	0.869500
H731	H73	0.069400	0.189100	0.965100
H741	H74	0.032700	0.304300	0.889700
H751	H75	0.907300	0.289700	0.820000
H761	H76	0.796200	0.439800	0.794300
H771	H77	0.750100	0.549800	0.869500
H781	H78	0.430600	0.310900	0.965100
H791	H79	0.467300	0.195700	0.889700
H801	H80	0.592700	0.210300	0.820000
C11	C1	0.428400	0.744600	0.821400
C21	C2	0.495200	0.716600	0.866700
C31	C3	0.318400	0.481200	0.936300
C41	C4	0.248800	0.503300	0.891500
C51	C5	0.257300	0.576800	0.850300
C61	C6	0.337400	0.628700	0.853700
C71	C7	0.404500	0.601300	0.899200
C81	C8	0.071600	0.755400	0.821400
C91	C9	0.004800	0.783400	0.866700
C101	C10	0.181600	0.018800	0.936300
C111	C11	0.251200	0.996700	0.891500
C121	C12	0.242700	0.923200	0.850300
C131	C13	0.162600	0.871300	0.853700
C141	C14	0.095500	0.898700	0.899200
C151	C15	0.755400	0.428400	0.321400
C161	C16	0.783400	0.495200	0.366700
C171	C17	0.018800	0.318400	0.436300
C181	C18	0.996700	0.248800	0.391500
C191	C19	0.923200	0.257300	0.350300
C201	C20	0.871300	0.337400	0.353700
C211	C21	0.898700	0.404500	0.399200
C221	C22	0.744600	0.071600	0.321400
C231	C23	0.716600	0.004800	0.366700
C241	C24	0.481200	0.181600	0.436300
C251	C25	0.503300	0.251200	0.391500
C261	C26	0.576800	0.242700	0.350300
C271	C27	0.628700	0.162600	0.353700
C281	C28	0.601300	0.095500	0.399200
C291	C29	0.571600	0.244600	0.678600
C301	C30	0.504800	0.216600	0.633300
C311	C31	0.681600	0.981200	0.563700
C321	C32	0.751200	0.003300	0.608500
C331	C33	0.742700	0.076800	0.649700
C341	C34	0.662600	0.128700	0.646300
C351	C35	0.595500	0.101300	0.600800
C361	C36	0.928400	0.255400	0.678600
C371	C37	0.995200	0.283400	0.633300
C381	C38	0.818400	0.518800	0.563700
C391	C39	0.748800	0.496700	0.608500
C401	C40	0.757300	0.423200	0.649700
C411	C41	0.837400	0.371300	0.646300
C421	C42	0.904500	0.398700	0.600800
C431	C43	0.244600	0.928400	0.178600
C441	C44	0.216600	0.995200	0.133300
C451	C45	0.981200	0.818400	0.063700
C461	C46	0.003300	0.748800	0.108500
C471	C47	0.076800	0.757300	0.149700
C481	C48	0.128700	0.837400	0.146300
C491	C49	0.101300	0.904500	0.100800
C501	C50	0.255400	0.571600	0.178600
C511	C51	0.283400	0.504800	0.133300
C521	C52	0.518800	0.681600	0.063700
C531	C53	0.496700	0.751200	0.108500
C541	C54	0.423200	0.742700	0.149700
C551	C55	0.371300	0.662600	0.146300
C561	C56	0.398700	0.595500	0.100800
C571	C57	0.571600	0.255400	0.178600
C581	C58	0.504800	0.283400	0.133300
C591	C59	0.681600	0.518800	0.063700
C601	C60	0.751200	0.496700	0.108500
C611	C61	0.742700	0.423200	0.149700
C621	C62	0.662600	0.371300	0.146300
C631	C63	0.595500	0.398700	0.100800
C641	C64	0.928400	0.244600	0.178600
C651	C65	0.995200	0.216600	0.133300
C661	C66	0.818400	0.981200	0.063700
C671	C67	0.748800	0.003300	0.108500
C681	C68	0.757300	0.076800	0.149700
C691	C69	0.837400	0.128700	0.146300
C701	C70	0.904500	0.101300	0.100800
C711	C71	0.244600	0.571600	0.678600
C721	C72	0.216600	0.504800	0.633300
C731	C73	0.981200	0.681600	0.563700
C741	C74	0.003300	0.751200	0.608500
C751	C75	0.076800	0.742700	0.649700
C761	C76	0.128700	0.662600	0.646300
C771	C77	0.101300	0.595500	0.600800
C781	C78	0.255400	0.928400	0.678600
C791	C79	0.283400	0.995200	0.633300
C801	C80	0.518800	0.818400	0.563700
C811	C81	0.496700	0.748800	0.608500
C821	C82	0.423200	0.757300	0.649700
C831	C83	0.371300	0.837400	0.646300
C841	C84	0.398700	0.904500	0.600800
C851	C85	0.428400	0.755400	0.321400
C861	C86	0.495200	0.783400	0.366700
C871	C87	0.318400	0.018800	0.436300
C881	C88	0.248800	0.996700	0.391500
C891	C89	0.257300	0.923200	0.350300
C901	C90	0.337400	0.871300	0.353700
C911	C91	0.404500	0.898700	0.399200
C921	C92	0.071600	0.744600	0.321400
C931	C93	0.004800	0.716600	0.366700
C941	C94	0.181600	0.481200	0.436300
C951	C95	0.251200	0.503300	0.391500
C961	C96	0.242700	0.576800	0.350300
C971	C97	0.162600	0.628700	0.353700
C981	C98	0.095500	0.601300	0.399200
C991	C99	0.755400	0.071600	0.821400
C1001	C100	0.783400	0.004800	0.866700
C1011	C101	0.018800	0.181600	0.936300
C1021	C102	0.996700	0.251200	0.891500
C1031	C103	0.923200	0.242700	0.850300
C1041	C104	0.871300	0.162600	0.853700
C1051	C105	0.898700	0.095500	0.899200
C1061	C106	0.744600	0.428400	0.821400
C1071	C107	0.716600	0.495200	0.866700
C1081	C108	0.481200	0.318400	0.936300
C1091	C109	0.503300	0.248800	0.891500
C1101	C110	0.576800	0.257300	0.850300
C1111	C111	0.628700	0.337400	0.853700
C1121	C112	0.601300	0.404500	0.899200
N11	N1	0.349600	0.702300	0.814400
N21	N2	0.484500	0.644600	0.906000
N31	N3	0.394100	0.528400	0.939700
N41	N4	0.150400	0.797700	0.814400
N51	N5	0.015500	0.855400	0.906000
N61	N6	0.105900	0.971600	0.939700
N71	N7	0.797700	0.349600	0.314400
N81	N8	0.855400	0.484500	0.406000
N91	N9	0.971600	0.394100	0.439700
N101	N10	0.702300	0.150400	0.314400
N111	N11	0.644600	0.015500	0.406000
N121	N12	0.528400	0.105900	0.439700
N131	N13	0.650400	0.202300	0.685600
N141	N14	0.515500	0.144600	0.594000
N151	N15	0.605900	0.028400	0.560300
N161	N16	0.849600	0.297700	0.685600
N171	N17	0.984500	0.355400	0.594000
N181	N18	0.894100	0.471600	0.560300
N191	N19	0.202300	0.849600	0.185600
N201	N20	0.144600	0.984500	0.094000
N211	N21	0.028400	0.894100	0.060300
N221	N22	0.297700	0.650400	0.185600
N231	N23	0.355400	0.515500	0.094000
N241	N24	0.471600	0.605900	0.060300
N251	N25	0.650400	0.297700	0.185600
N261	N26	0.515500	0.355400	0.094000
N271	N27	0.605900	0.471600	0.060300
N281	N28	0.849600	0.202300	0.185600
N291	N29	0.984500	0.144600	0.094000
N301	N30	0.894100	0.028400	0.060300
N311	N31	0.202300	0.650400	0.685600
N321	N32	0.144600	0.515500	0.594000
N331	N33	0.028400	0.605900	0.560300
N341	N34	0.297700	0.849600	0.685600
N351	N35	0.355400	0.984500	0.594000
N361	N36	0.471600	0.894100	0.560300
N371	N37	0.349600	0.797700	0.314400
N381	N38	0.484500	0.855400	0.406000
N391	N39	0.394100	0.971600	0.439700
N401	N40	0.150400	0.702300	0.314400
N411	N41	0.015500	0.644600	0.406000
N421	N42	0.105900	0.528400	0.439700
N431	N43	0.797700	0.150400	0.814400
N441	N44	0.855400	0.015500	0.906000
N451	N45	0.971600	0.105900	0.939700
N461	N46	0.702300	0.349600	0.814400
N471	N47	0.644600	0.484500	0.906000
N481	N48	0.528400	0.394100	0.939700
Cl11	Cl1	0.750000	0.750000	0.980000
O11	O1	0.801800	0.698200	0.030600
O21	O2	0.698200	0.801800	0.030600
O31	O3	0.808600	0.808600	0.949000
O41	O4	0.691400	0.691400	0.949000
Cl21	Cl2	0.750000	0.750000	0.480000
O51	O5	0.801800	0.801800	0.530600
O61	O6	0.698200	0.698200	0.530600
O71	O7	0.691400	0.808600	0.449000
O81	O8	0.808600	0.691400	0.449000
Cl31	Cl3	0.250000	0.250000	0.520000
O91	O9	0.198200	0.198200	0.469400
O101	O10	0.301800	0.301800	0.469400
O111	O11	0.191400	0.308600	0.551000
O121	O12	0.308600	0.191400	0.551000
Cl41	Cl4	0.250000	0.250000	0.020000
O131	O13	0.198200	0.301800	0.969400
O141	O14	0.301800	0.198200	0.969400
O151	O15	0.308600	0.308600	0.051000
O161	O16	0.191400	0.191400	0.051000
Cl51	Cl5	0.486020	0.486020	0.728020
O171	O17	0.462300	0.574300	0.729400
O181	O18	0.574300	0.462300	0.729400
O191	O19	0.452800	0.452800	0.792300
O201	O20	0.434000	0.434000	0.678800
Cl61	Cl6	0.013980	0.013980	0.728020
O211	O21	0.037700	0.925700	0.729400
O221	O22	0.925700	0.037700	0.729400
O231	O23	0.047200	0.047200	0.792300
O241	O24	0.066000	0.066000	0.678800
Cl71	Cl7	0.013980	0.486020	0.228020
O251	O25	0.925700	0.462300	0.229400
O261	O26	0.037700	0.574300	0.229400
O271	O27	0.047200	0.452800	0.292300
O281	O28	0.066000	0.434000	0.178800
Cl81	Cl8	0.486020	0.013980	0.228020
O291	O29	0.574300	0.037700	0.229400
O301	O30	0.462300	0.925700	0.229400
O311	O31	0.452800	0.047200	0.292300
O321	O32	0.434000	0.066000	0.178800
Cl91	Cl9	0.513980	0.986020	0.771980
O331	O33	0.537700	0.074300	0.770600
O341	O34	0.425700	0.962300	0.770600
O351	O35	0.547200	0.952800	0.707700
O361	O36	0.566000	0.934000	0.821200
Cl101	Cl10	0.986020	0.513980	0.771980
O371	O37	0.962300	0.425700	0.770600
O381	O38	0.074300	0.537700	0.770600
O391	O39	0.952800	0.547200	0.707700
O401	O40	0.934000	0.566000	0.821200
Cl111	Cl11	0.986020	0.986020	0.271980
O411	O41	0.074300	0.962300	0.270600
O421	O42	0.962300	0.074300	0.270600
O431	O43	0.952800	0.952800	0.207700
O441	O44	0.934000	0.934000	0.321200
Cl121	Cl12	0.513980	0.513980	0.271980
O451	O45	0.425700	0.537700	0.270600
O461	O46	0.537700	0.425700	0.270600
O471	O47	0.547200	0.547200	0.207700
O481	O48	0.566000	0.566000	0.321200
