data_IPIJUM_clean_PM
_symmetry_space_group_name_H-M	'P1'
_cell_length_a	10.400500
_cell_length_b	10.648600
_cell_length_c	13.632100
_cell_angle_alpha	105.307000
_cell_angle_beta	93.835000
_cell_angle_gamma	108.935000
_symmetry_Int_Tables_number 1

loop_
_symmetry_equiv_pos_as_xyz
'x,y,z'

loop_
_atom_site_label
_atom_site_type_symbol
_atom_site_fract_x
_atom_site_fract_y
_atom_site_fract_z
Er11	Er1	0.476390	0.419940	0.811920
Er21	Er2	0.018630	0.050280	0.186580
Er31	Er3	0.523610	0.580060	0.188080
Er41	Er4	0.981370	0.949720	0.813420
H11	H1	0.687100	0.176900	0.110300
H21	H2	0.798100	0.314600	0.918400
H31	H3	0.099600	0.237600	0.571200
H41	H4	0.312900	0.823100	0.889700
H51	H5	0.201900	0.685400	0.081600
H61	H6	0.900400	0.762400	0.428800
C11	C1	0.520200	0.891200	0.927300
C21	C2	0.633200	0.998800	0.994400
C31	C3	0.611900	0.105500	0.065800
C41	C4	0.530600	0.766000	0.849200
C51	C5	0.776900	0.000400	0.990400
C61	C6	0.994300	0.627200	0.058200
C71	C7	0.872200	0.513300	0.008900
C81	C8	0.879100	0.388900	0.951300
C91	C9	0.990300	0.768400	0.109600
C101	C10	0.732900	0.521700	0.026200
C111	C11	0.093800	0.056600	0.592500
C121	C12	0.059000	0.141500	0.542400
C131	C13	0.034500	0.911300	0.549600
C141	C14	0.197800	0.126100	0.689600
C151	C15	0.066200	0.807700	0.594800
C161	C16	0.479800	0.108800	0.072700
C171	C17	0.366800	0.001200	0.005600
C181	C18	0.388100	0.894500	0.934200
C191	C19	0.469400	0.234000	0.150800
C201	C20	0.223100	0.999600	0.009600
C211	C21	0.005700	0.372800	0.941800
C221	C22	0.127800	0.486700	0.991100
C231	C23	0.120900	0.611100	0.048700
C241	C24	0.009700	0.231600	0.890400
C251	C25	0.267100	0.478300	0.973800
C261	C26	0.906200	0.943400	0.407500
C271	C27	0.941000	0.858500	0.457600
C281	C28	0.965500	0.088700	0.450400
C291	C29	0.802200	0.873900	0.310400
C301	C30	0.933800	0.192300	0.405200
O11	O1	0.861000	0.061600	0.073600
O21	O2	0.804700	0.944500	0.906400
O31	O3	0.539000	0.669100	0.883000
O41	O4	0.519500	0.763300	0.756800
O51	O5	0.644000	0.490100	0.948700
O61	O6	0.714400	0.554500	0.117200
O71	O7	0.922100	0.816800	0.059600
O81	O8	0.061100	0.840900	0.197100
O91	O9	0.179900	0.076300	0.763600
O101	O10	0.298000	0.232600	0.692300
O111	O11	0.032400	0.798900	0.680000
O121	O12	0.116600	0.730100	0.539300
O131	O13	0.139000	0.938400	0.926400
O141	O14	0.195300	0.055500	0.093600
O151	O15	0.461000	0.330900	0.117000
O161	O16	0.480500	0.236700	0.243200
O171	O17	0.356000	0.509900	0.051300
O181	O18	0.285600	0.445500	0.882800
O191	O19	0.077900	0.183200	0.940400
O201	O20	0.938900	0.159100	0.802900
O211	O21	0.820100	0.923700	0.236400
O221	O22	0.702000	0.767400	0.307700
O231	O23	0.967600	0.201100	0.320000
O241	O24	0.883400	0.269900	0.460700
