data_IQECIS_clean_PM
_symmetry_space_group_name_H-M	'P1'
_cell_length_a	23.777300
_cell_length_b	23.777300
_cell_length_c	23.777300
_cell_angle_alpha	90.000000
_cell_angle_beta	90.000000
_cell_angle_gamma	90.000000
_symmetry_Int_Tables_number 1

loop_
_symmetry_equiv_pos_as_xyz
'x,y,z'

loop_
_atom_site_label
_atom_site_type_symbol
_atom_site_fract_x
_atom_site_fract_y
_atom_site_fract_z
Co11	Co1	0.006600	0.559860	0.865870
F11	F1	0.998210	0.589250	0.947880
O11	O1	0.067590	0.619590	0.850010
O21	O2	0.933960	0.481370	0.964570
O31	O3	0.938270	0.508660	0.874300
N11	N1	0.028610	0.520060	0.788270
N21	N2	0.129040	0.446630	0.617910
N31	N3	0.949400	0.623470	0.840200
N41	N4	0.797120	0.770290	0.850170
C11	C1	0.914420	0.484980	0.915490
C21	C2	0.857910	0.458910	0.903270
C31	C3	0.826300	0.433300	0.945210
H11	H1	0.839600	0.432900	0.982000
C41	C4	0.774700	0.408100	0.932900
H21	H2	0.754200	0.391200	0.961600
C51	C5	0.753600	0.408000	0.878600
C61	C6	0.785900	0.434500	0.836200
H31	H3	0.772500	0.435300	0.799500
C71	C7	0.837500	0.459400	0.848900
H41	H4	0.858400	0.476400	0.820500
C81	C8	0.700780	0.377900	0.863400
C91	C9	0.669600	0.393900	0.816400
H51	H5	0.680600	0.425500	0.796000
C101	C10	0.997100	0.480400	0.765800
H61	H6	0.962800	0.472200	0.782700
C111	C11	0.012400	0.450200	0.718400
H71	H7	0.988100	0.423700	0.702900
C121	C12	0.063650	0.459920	0.694680
C131	C13	0.097000	0.500200	0.717700
H81	H8	0.132300	0.508000	0.702600
C141	C14	0.077300	0.529300	0.764400
H91	H9	0.100200	0.557200	0.779600
C151	C15	0.083370	0.427200	0.643840
C161	C16	0.957790	0.659700	0.797740
H101	H10	0.988000	0.653300	0.773700
C171	C17	0.924090	0.705900	0.787700
H111	H11	0.932000	0.730300	0.758100
C181	C18	0.878230	0.715130	0.822520
C191	C19	0.868900	0.678100	0.866800
H121	H12	0.838900	0.683700	0.891300
C201	C20	0.904400	0.633100	0.874000
H131	H13	0.897300	0.608100	0.903200
C211	C21	0.839790	0.764000	0.813120
Co21	Co2	0.493400	0.440140	0.365870
F21	F2	0.501790	0.410750	0.447880
O41	O4	0.432410	0.380410	0.350010
O51	O5	0.566040	0.518630	0.464570
O61	O6	0.561730	0.491340	0.374300
N51	N5	0.471390	0.479940	0.288270
N61	N6	0.370960	0.553370	0.117910
N71	N7	0.550600	0.376530	0.340200
N81	N8	0.702880	0.229710	0.350170
C221	C22	0.585580	0.515020	0.415490
C231	C23	0.642090	0.541090	0.403270
C241	C24	0.673700	0.566700	0.445210
H141	H14	0.660400	0.567100	0.482000
C251	C25	0.725300	0.591900	0.432900
H151	H15	0.745800	0.608800	0.461600
C261	C26	0.746400	0.592000	0.378600
C271	C27	0.714100	0.565500	0.336200
H161	H16	0.727500	0.564700	0.299500
C281	C28	0.662500	0.540600	0.348900
H171	H17	0.641600	0.523600	0.320500
C291	C29	0.799220	0.622100	0.363400
C301	C30	0.830400	0.606100	0.316400
H181	H18	0.819400	0.574500	0.296000
C311	C31	0.502900	0.519600	0.265800
H191	H19	0.537200	0.527800	0.282700
C321	C32	0.487600	0.549800	0.218400
H201	H20	0.511900	0.576300	0.202900
C331	C33	0.436350	0.540080	0.194680
C341	C34	0.403000	0.499800	0.217700
H211	H21	0.367700	0.492000	0.202600
C351	C35	0.422700	0.470700	0.264400
H221	H22	0.399800	0.442800	0.279600
C361	C36	0.416630	0.572800	0.143840
C371	C37	0.542210	0.340300	0.297740
H231	H23	0.512000	0.346700	0.273700
C381	C38	0.575910	0.294100	0.287700
H241	H24	0.568000	0.269700	0.258100
C391	C39	0.621770	0.284870	0.322520
C401	C40	0.631100	0.321900	0.366800
H251	H25	0.661100	0.316300	0.391300
C411	C41	0.595600	0.366900	0.374000
H261	H26	0.602700	0.391900	0.403200
C421	C42	0.660210	0.236000	0.313120
Co31	Co3	0.993400	0.059860	0.634130
F31	F3	0.001790	0.089250	0.552120
O71	O7	0.932410	0.119590	0.649990
O81	O8	0.066040	0.981370	0.535430
O91	O9	0.061730	0.008660	0.625700
N91	N9	0.971390	0.020060	0.711730
N101	N10	0.870960	0.946630	0.882090
N111	N11	0.050600	0.123470	0.659800
N121	N12	0.202880	0.270290	0.649830
C431	C43	0.085580	0.984980	0.584510
C441	C44	0.142090	0.958910	0.596730
C451	C45	0.173700	0.933300	0.554790
H271	H27	0.160400	0.932900	0.518000
C461	C46	0.225300	0.908100	0.567100
H281	H28	0.245800	0.891200	0.538400
C471	C47	0.246400	0.908000	0.621400
C481	C48	0.214100	0.934500	0.663800
H291	H29	0.227500	0.935300	0.700500
C491	C49	0.162500	0.959400	0.651100
H301	H30	0.141600	0.976400	0.679500
C501	C50	0.299220	0.877900	0.636600
C511	C51	0.330400	0.893900	0.683600
H311	H31	0.319400	0.925500	0.704000
C521	C52	0.002900	0.980400	0.734200
H321	H32	0.037200	0.972200	0.717300
C531	C53	0.987600	0.950200	0.781600
H331	H33	0.011900	0.923700	0.797100
C541	C54	0.936350	0.959920	0.805320
C551	C55	0.903000	0.000200	0.782300
H341	H34	0.867700	0.008000	0.797400
C561	C56	0.922700	0.029300	0.735600
H351	H35	0.899800	0.057200	0.720400
C571	C57	0.916630	0.927200	0.856160
C581	C58	0.042210	0.159700	0.702260
H361	H36	0.012000	0.153300	0.726300
C591	C59	0.075910	0.205900	0.712300
H371	H37	0.068000	0.230300	0.741900
C601	C60	0.121770	0.215130	0.677480
C611	C61	0.131100	0.178100	0.633200
H381	H38	0.161100	0.183700	0.608700
C621	C62	0.095600	0.133100	0.626000
H391	H39	0.102700	0.108100	0.596800
C631	C63	0.160210	0.264000	0.686880
Co41	Co4	0.506600	0.940140	0.134130
F41	F4	0.498210	0.910750	0.052120
O101	O10	0.567590	0.880410	0.149990
O111	O11	0.433960	0.018630	0.035430
O121	O12	0.438270	0.991340	0.125700
N131	N13	0.528610	0.979940	0.211730
N141	N14	0.629040	0.053370	0.382090
N151	N15	0.449400	0.876530	0.159800
N161	N16	0.297120	0.729710	0.149830
C641	C64	0.414420	0.015020	0.084510
C651	C65	0.357910	0.041090	0.096730
C661	C66	0.326300	0.066700	0.054790
H401	H40	0.339600	0.067100	0.018000
C671	C67	0.274700	0.091900	0.067100
H411	H41	0.254200	0.108800	0.038400
C681	C68	0.253600	0.092000	0.121400
C691	C69	0.285900	0.065500	0.163800
H421	H42	0.272500	0.064700	0.200500
C701	C70	0.337500	0.040600	0.151100
H431	H43	0.358400	0.023600	0.179500
C711	C71	0.200780	0.122100	0.136600
C721	C72	0.169600	0.106100	0.183600
H441	H44	0.180600	0.074500	0.204000
C731	C73	0.497100	0.019600	0.234200
H451	H45	0.462800	0.027800	0.217300
C741	C74	0.512400	0.049800	0.281600
H461	H46	0.488100	0.076300	0.297100
C751	C75	0.563650	0.040080	0.305320
C761	C76	0.597000	0.999800	0.282300
H471	H47	0.632300	0.992000	0.297400
C771	C77	0.577300	0.970700	0.235600
H481	H48	0.600200	0.942800	0.220400
C781	C78	0.583370	0.072800	0.356160
C791	C79	0.457790	0.840300	0.202260
H491	H49	0.488000	0.846700	0.226300
C801	C80	0.424090	0.794100	0.212300
H501	H50	0.432000	0.769700	0.241900
C811	C81	0.378230	0.784870	0.177480
C821	C82	0.368900	0.821900	0.133200
H511	H51	0.338900	0.816300	0.108700
C831	C83	0.404400	0.866900	0.126000
H521	H52	0.397300	0.891900	0.096800
C841	C84	0.339790	0.736000	0.186880
Co51	Co5	0.865870	0.006600	0.559860
F51	F5	0.947880	0.998210	0.589250
O131	O13	0.850010	0.067590	0.619590
O141	O14	0.964570	0.933960	0.481370
O151	O15	0.874300	0.938270	0.508660
N171	N17	0.788270	0.028610	0.520060
N181	N18	0.617910	0.129040	0.446630
N191	N19	0.840200	0.949400	0.623470
N201	N20	0.850170	0.797120	0.770290
C851	C85	0.915490	0.914420	0.484980
C861	C86	0.903270	0.857910	0.458910
C871	C87	0.945210	0.826300	0.433300
H531	H53	0.982000	0.839600	0.432900
C881	C88	0.932900	0.774700	0.408100
H541	H54	0.961600	0.754200	0.391200
C891	C89	0.878600	0.753600	0.408000
C901	C90	0.836200	0.785900	0.434500
H551	H55	0.799500	0.772500	0.435300
C911	C91	0.848900	0.837500	0.459400
H561	H56	0.820500	0.858400	0.476400
C921	C92	0.863400	0.700780	0.377900
C931	C93	0.816400	0.669600	0.393900
H571	H57	0.796000	0.680600	0.425500
C941	C94	0.765800	0.997100	0.480400
H581	H58	0.782700	0.962800	0.472200
C951	C95	0.718400	0.012400	0.450200
H591	H59	0.702900	0.988100	0.423700
C961	C96	0.694680	0.063650	0.459920
C971	C97	0.717700	0.097000	0.500200
H601	H60	0.702600	0.132300	0.508000
C981	C98	0.764400	0.077300	0.529300
H611	H61	0.779600	0.100200	0.557200
C991	C99	0.643840	0.083370	0.427200
C1001	C100	0.797740	0.957790	0.659700
H621	H62	0.773700	0.988000	0.653300
C1011	C101	0.787700	0.924090	0.705900
H631	H63	0.758100	0.932000	0.730300
C1021	C102	0.822520	0.878230	0.715130
C1031	C103	0.866800	0.868900	0.678100
H641	H64	0.891300	0.838900	0.683700
C1041	C104	0.874000	0.904400	0.633100
H651	H65	0.903200	0.897300	0.608100
C1051	C105	0.813120	0.839790	0.764000
Co61	Co6	0.365870	0.493400	0.440140
F61	F6	0.447880	0.501790	0.410750
O161	O16	0.350010	0.432410	0.380410
O171	O17	0.464570	0.566040	0.518630
O181	O18	0.374300	0.561730	0.491340
N211	N21	0.288270	0.471390	0.479940
N221	N22	0.117910	0.370960	0.553370
N231	N23	0.340200	0.550600	0.376530
N241	N24	0.350170	0.702880	0.229710
C1061	C106	0.415490	0.585580	0.515020
C1071	C107	0.403270	0.642090	0.541090
C1081	C108	0.445210	0.673700	0.566700
H661	H66	0.482000	0.660400	0.567100
C1091	C109	0.432900	0.725300	0.591900
H671	H67	0.461600	0.745800	0.608800
C1101	C110	0.378600	0.746400	0.592000
C1111	C111	0.336200	0.714100	0.565500
H681	H68	0.299500	0.727500	0.564700
C1121	C112	0.348900	0.662500	0.540600
H691	H69	0.320500	0.641600	0.523600
C1131	C113	0.363400	0.799220	0.622100
C1141	C114	0.316400	0.830400	0.606100
H701	H70	0.296000	0.819400	0.574500
C1151	C115	0.265800	0.502900	0.519600
H711	H71	0.282700	0.537200	0.527800
C1161	C116	0.218400	0.487600	0.549800
H721	H72	0.202900	0.511900	0.576300
C1171	C117	0.194680	0.436350	0.540080
C1181	C118	0.217700	0.403000	0.499800
H731	H73	0.202600	0.367700	0.492000
C1191	C119	0.264400	0.422700	0.470700
H741	H74	0.279600	0.399800	0.442800
C1201	C120	0.143840	0.416630	0.572800
C1211	C121	0.297740	0.542210	0.340300
H751	H75	0.273700	0.512000	0.346700
C1221	C122	0.287700	0.575910	0.294100
H761	H76	0.258100	0.568000	0.269700
C1231	C123	0.322520	0.621770	0.284870
C1241	C124	0.366800	0.631100	0.321900
H771	H77	0.391300	0.661100	0.316300
C1251	C125	0.374000	0.595600	0.366900
H781	H78	0.403200	0.602700	0.391900
C1261	C126	0.313120	0.660210	0.236000
Co71	Co7	0.634130	0.993400	0.059860
F71	F7	0.552120	0.001790	0.089250
O191	O19	0.649990	0.932410	0.119590
O201	O20	0.535430	0.066040	0.981370
O211	O21	0.625700	0.061730	0.008660
N251	N25	0.711730	0.971390	0.020060
N261	N26	0.882090	0.870960	0.946630
N271	N27	0.659800	0.050600	0.123470
N281	N28	0.649830	0.202880	0.270290
C1271	C127	0.584510	0.085580	0.984980
C1281	C128	0.596730	0.142090	0.958910
C1291	C129	0.554790	0.173700	0.933300
H791	H79	0.518000	0.160400	0.932900
C1301	C130	0.567100	0.225300	0.908100
H801	H80	0.538400	0.245800	0.891200
C1311	C131	0.621400	0.246400	0.908000
C1321	C132	0.663800	0.214100	0.934500
H811	H81	0.700500	0.227500	0.935300
C1331	C133	0.651100	0.162500	0.959400
H821	H82	0.679500	0.141600	0.976400
C1341	C134	0.636600	0.299220	0.877900
C1351	C135	0.683600	0.330400	0.893900
H831	H83	0.704000	0.319400	0.925500
C1361	C136	0.734200	0.002900	0.980400
H841	H84	0.717300	0.037200	0.972200
C1371	C137	0.781600	0.987600	0.950200
H851	H85	0.797100	0.011900	0.923700
C1381	C138	0.805320	0.936350	0.959920
C1391	C139	0.782300	0.903000	0.000200
H861	H86	0.797400	0.867700	0.008000
C1401	C140	0.735600	0.922700	0.029300
H871	H87	0.720400	0.899800	0.057200
C1411	C141	0.856160	0.916630	0.927200
C1421	C142	0.702260	0.042210	0.159700
H881	H88	0.726300	0.012000	0.153300
C1431	C143	0.712300	0.075910	0.205900
H891	H89	0.741900	0.068000	0.230300
C1441	C144	0.677480	0.121770	0.215130
C1451	C145	0.633200	0.131100	0.178100
H901	H90	0.608700	0.161100	0.183700
C1461	C146	0.626000	0.095600	0.133100
H911	H91	0.596800	0.102700	0.108100
C1471	C147	0.686880	0.160210	0.264000
Co81	Co8	0.134130	0.506600	0.940140
F81	F8	0.052120	0.498210	0.910750
O221	O22	0.149990	0.567590	0.880410
O231	O23	0.035430	0.433960	0.018630
O241	O24	0.125700	0.438270	0.991340
N291	N29	0.211730	0.528610	0.979940
N301	N30	0.382090	0.629040	0.053370
N311	N31	0.159800	0.449400	0.876530
N321	N32	0.149830	0.297120	0.729710
C1481	C148	0.084510	0.414420	0.015020
C1491	C149	0.096730	0.357910	0.041090
C1501	C150	0.054790	0.326300	0.066700
H921	H92	0.018000	0.339600	0.067100
C1511	C151	0.067100	0.274700	0.091900
H931	H93	0.038400	0.254200	0.108800
C1521	C152	0.121400	0.253600	0.092000
C1531	C153	0.163800	0.285900	0.065500
H941	H94	0.200500	0.272500	0.064700
C1541	C154	0.151100	0.337500	0.040600
H951	H95	0.179500	0.358400	0.023600
C1551	C155	0.136600	0.200780	0.122100
C1561	C156	0.183600	0.169600	0.106100
H961	H96	0.204000	0.180600	0.074500
C1571	C157	0.234200	0.497100	0.019600
H971	H97	0.217300	0.462800	0.027800
C1581	C158	0.281600	0.512400	0.049800
H981	H98	0.297100	0.488100	0.076300
C1591	C159	0.305320	0.563650	0.040080
C1601	C160	0.282300	0.597000	0.999800
H991	H99	0.297400	0.632300	0.992000
C1611	C161	0.235600	0.577300	0.970700
H1001	H100	0.220400	0.600200	0.942800
C1621	C162	0.356160	0.583370	0.072800
C1631	C163	0.202260	0.457790	0.840300
H1011	H101	0.226300	0.488000	0.846700
C1641	C164	0.212300	0.424090	0.794100
H1021	H102	0.241900	0.432000	0.769700
C1651	C165	0.177480	0.378230	0.784870
C1661	C166	0.133200	0.368900	0.821900
H1031	H103	0.108700	0.338900	0.816300
C1671	C167	0.126000	0.404400	0.866900
H1041	H104	0.096800	0.397300	0.891900
C1681	C168	0.186880	0.339790	0.736000
Co91	Co9	0.559860	0.865870	0.006600
F91	F9	0.589250	0.947880	0.998210
O251	O25	0.619590	0.850010	0.067590
O261	O26	0.481370	0.964570	0.933960
O271	O27	0.508660	0.874300	0.938270
N331	N33	0.520060	0.788270	0.028610
N341	N34	0.446630	0.617910	0.129040
N351	N35	0.623470	0.840200	0.949400
N361	N36	0.770290	0.850170	0.797120
C1691	C169	0.484980	0.915490	0.914420
C1701	C170	0.458910	0.903270	0.857910
C1711	C171	0.433300	0.945210	0.826300
H1051	H105	0.432900	0.982000	0.839600
C1721	C172	0.408100	0.932900	0.774700
H1061	H106	0.391200	0.961600	0.754200
C1731	C173	0.408000	0.878600	0.753600
C1741	C174	0.434500	0.836200	0.785900
H1071	H107	0.435300	0.799500	0.772500
C1751	C175	0.459400	0.848900	0.837500
H1081	H108	0.476400	0.820500	0.858400
C1761	C176	0.377900	0.863400	0.700780
C1771	C177	0.393900	0.816400	0.669600
H1091	H109	0.425500	0.796000	0.680600
C1781	C178	0.480400	0.765800	0.997100
H1101	H110	0.472200	0.782700	0.962800
C1791	C179	0.450200	0.718400	0.012400
H1111	H111	0.423700	0.702900	0.988100
C1801	C180	0.459920	0.694680	0.063650
C1811	C181	0.500200	0.717700	0.097000
H1121	H112	0.508000	0.702600	0.132300
C1821	C182	0.529300	0.764400	0.077300
H1131	H113	0.557200	0.779600	0.100200
C1831	C183	0.427200	0.643840	0.083370
C1841	C184	0.659700	0.797740	0.957790
H1141	H114	0.653300	0.773700	0.988000
C1851	C185	0.705900	0.787700	0.924090
H1151	H115	0.730300	0.758100	0.932000
C1861	C186	0.715130	0.822520	0.878230
C1871	C187	0.678100	0.866800	0.868900
H1161	H116	0.683700	0.891300	0.838900
C1881	C188	0.633100	0.874000	0.904400
H1171	H117	0.608100	0.903200	0.897300
C1891	C189	0.764000	0.813120	0.839790
Co101	Co10	0.440140	0.365870	0.493400
F101	F10	0.410750	0.447880	0.501790
O281	O28	0.380410	0.350010	0.432410
O291	O29	0.518630	0.464570	0.566040
O301	O30	0.491340	0.374300	0.561730
N371	N37	0.479940	0.288270	0.471390
N381	N38	0.553370	0.117910	0.370960
N391	N39	0.376530	0.340200	0.550600
N401	N40	0.229710	0.350170	0.702880
C1901	C190	0.515020	0.415490	0.585580
C1911	C191	0.541090	0.403270	0.642090
C1921	C192	0.566700	0.445210	0.673700
H1181	H118	0.567100	0.482000	0.660400
C1931	C193	0.591900	0.432900	0.725300
H1191	H119	0.608800	0.461600	0.745800
C1941	C194	0.592000	0.378600	0.746400
C1951	C195	0.565500	0.336200	0.714100
H1201	H120	0.564700	0.299500	0.727500
C1961	C196	0.540600	0.348900	0.662500
H1211	H121	0.523600	0.320500	0.641600
C1971	C197	0.622100	0.363400	0.799220
C1981	C198	0.606100	0.316400	0.830400
H1221	H122	0.574500	0.296000	0.819400
C1991	C199	0.519600	0.265800	0.502900
H1231	H123	0.527800	0.282700	0.537200
C2001	C200	0.549800	0.218400	0.487600
H1241	H124	0.576300	0.202900	0.511900
C2011	C201	0.540080	0.194680	0.436350
C2021	C202	0.499800	0.217700	0.403000
H1251	H125	0.492000	0.202600	0.367700
C2031	C203	0.470700	0.264400	0.422700
H1261	H126	0.442800	0.279600	0.399800
C2041	C204	0.572800	0.143840	0.416630
C2051	C205	0.340300	0.297740	0.542210
H1271	H127	0.346700	0.273700	0.512000
C2061	C206	0.294100	0.287700	0.575910
H1281	H128	0.269700	0.258100	0.568000
C2071	C207	0.284870	0.322520	0.621770
C2081	C208	0.321900	0.366800	0.631100
H1291	H129	0.316300	0.391300	0.661100
C2091	C209	0.366900	0.374000	0.595600
H1301	H130	0.391900	0.403200	0.602700
C2101	C210	0.236000	0.313120	0.660210
Co111	Co11	0.059860	0.634130	0.993400
F111	F11	0.089250	0.552120	0.001790
O311	O31	0.119590	0.649990	0.932410
O321	O32	0.981370	0.535430	0.066040
O331	O33	0.008660	0.625700	0.061730
N411	N41	0.020060	0.711730	0.971390
N421	N42	0.946630	0.882090	0.870960
N431	N43	0.123470	0.659800	0.050600
N441	N44	0.270290	0.649830	0.202880
C2111	C211	0.984980	0.584510	0.085580
C2121	C212	0.958910	0.596730	0.142090
C2131	C213	0.933300	0.554790	0.173700
H1311	H131	0.932900	0.518000	0.160400
C2141	C214	0.908100	0.567100	0.225300
H1321	H132	0.891200	0.538400	0.245800
C2151	C215	0.908000	0.621400	0.246400
C2161	C216	0.934500	0.663800	0.214100
H1331	H133	0.935300	0.700500	0.227500
C2171	C217	0.959400	0.651100	0.162500
H1341	H134	0.976400	0.679500	0.141600
C2181	C218	0.877900	0.636600	0.299220
C2191	C219	0.893900	0.683600	0.330400
H1351	H135	0.925500	0.704000	0.319400
C2201	C220	0.980400	0.734200	0.002900
H1361	H136	0.972200	0.717300	0.037200
C2211	C221	0.950200	0.781600	0.987600
H1371	H137	0.923700	0.797100	0.011900
C2221	C222	0.959920	0.805320	0.936350
C2231	C223	0.000200	0.782300	0.903000
H1381	H138	0.008000	0.797400	0.867700
C2241	C224	0.029300	0.735600	0.922700
H1391	H139	0.057200	0.720400	0.899800
C2251	C225	0.927200	0.856160	0.916630
C2261	C226	0.159700	0.702260	0.042210
H1401	H140	0.153300	0.726300	0.012000
C2271	C227	0.205900	0.712300	0.075910
H1411	H141	0.230300	0.741900	0.068000
C2281	C228	0.215130	0.677480	0.121770
C2291	C229	0.178100	0.633200	0.131100
H1421	H142	0.183700	0.608700	0.161100
C2301	C230	0.133100	0.626000	0.095600
H1431	H143	0.108100	0.596800	0.102700
C2311	C231	0.264000	0.686880	0.160210
Co121	Co12	0.940140	0.134130	0.506600
F121	F12	0.910750	0.052120	0.498210
O341	O34	0.880410	0.149990	0.567590
O351	O35	0.018630	0.035430	0.433960
O361	O36	0.991340	0.125700	0.438270
N451	N45	0.979940	0.211730	0.528610
N461	N46	0.053370	0.382090	0.629040
N471	N47	0.876530	0.159800	0.449400
N481	N48	0.729710	0.149830	0.297120
C2321	C232	0.015020	0.084510	0.414420
C2331	C233	0.041090	0.096730	0.357910
C2341	C234	0.066700	0.054790	0.326300
H1441	H144	0.067100	0.018000	0.339600
C2351	C235	0.091900	0.067100	0.274700
H1451	H145	0.108800	0.038400	0.254200
C2361	C236	0.092000	0.121400	0.253600
C2371	C237	0.065500	0.163800	0.285900
H1461	H146	0.064700	0.200500	0.272500
C2381	C238	0.040600	0.151100	0.337500
H1471	H147	0.023600	0.179500	0.358400
C2391	C239	0.122100	0.136600	0.200780
C2401	C240	0.106100	0.183600	0.169600
H1481	H148	0.074500	0.204000	0.180600
C2411	C241	0.019600	0.234200	0.497100
H1491	H149	0.027800	0.217300	0.462800
C2421	C242	0.049800	0.281600	0.512400
H1501	H150	0.076300	0.297100	0.488100
C2431	C243	0.040080	0.305320	0.563650
C2441	C244	0.999800	0.282300	0.597000
H1511	H151	0.992000	0.297400	0.632300
C2451	C245	0.970700	0.235600	0.577300
H1521	H152	0.942800	0.220400	0.600200
C2461	C246	0.072800	0.356160	0.583370
C2471	C247	0.840300	0.202260	0.457790
H1531	H153	0.846700	0.226300	0.488000
C2481	C248	0.794100	0.212300	0.424090
H1541	H154	0.769700	0.241900	0.432000
C2491	C249	0.784870	0.177480	0.378230
C2501	C250	0.821900	0.133200	0.368900
H1551	H155	0.816300	0.108700	0.338900
C2511	C251	0.866900	0.126000	0.404400
H1561	H156	0.891900	0.096800	0.397300
C2521	C252	0.736000	0.186880	0.339790
Co131	Co13	0.011270	0.511270	0.988730
S11	S1	0.125080	0.625080	0.874920
O371	O37	0.160310	0.660310	0.839690
Co141	Co14	0.488730	0.488730	0.488730
S21	S2	0.374920	0.374920	0.374920
O381	O38	0.339690	0.339690	0.339690
Co151	Co15	0.988730	0.011270	0.511270
S31	S3	0.874920	0.125080	0.625080
O391	O39	0.839690	0.160310	0.660310
Co161	Co16	0.511270	0.988730	0.011270
S41	S4	0.625080	0.874920	0.125080
O401	O40	0.660310	0.839690	0.160310
