data_IQINAZ_clean_PM
_symmetry_space_group_name_H-M	'P1'
_cell_length_a	9.815500
_cell_length_b	10.188400
_cell_length_c	12.871000
_cell_angle_alpha	69.002000
_cell_angle_beta	69.676000
_cell_angle_gamma	63.281000
_symmetry_Int_Tables_number 1

loop_
_symmetry_equiv_pos_as_xyz
'x,y,z'

loop_
_atom_site_label
_atom_site_type_symbol
_atom_site_fract_x
_atom_site_fract_y
_atom_site_fract_z
Cd11	Cd1	0.839290	0.126560	0.417400
C11	C1	0.912700	0.311400	0.218000
C21	C2	0.958100	0.406400	0.107100
C31	C3	0.050000	0.345700	0.013500
H11	H1	0.084000	0.242100	0.021400
C41	C4	0.908200	0.562700	0.091600
H21	H2	0.845800	0.606100	0.153000
C51	C5	0.074500	0.180800	0.536800
C61	C6	0.034500	0.346900	0.518200
C71	C7	0.985600	0.447500	0.423000
H31	H3	0.976900	0.412200	0.369100
C81	C8	0.051600	0.399300	0.595800
H41	H4	0.087800	0.332100	0.660400
C91	C9	0.590600	0.308700	0.606800
H51	H5	0.571700	0.399200	0.551000
C101	C10	0.518000	0.297300	0.716100
H61	H6	0.442800	0.375000	0.750400
C111	C11	0.686100	0.078600	0.685600
H71	H7	0.747900	0.975900	0.697900
C121	C12	0.806600	0.115100	0.003100
H81	H8	0.882200	0.157400	0.978800
C131	C13	0.732600	0.124300	0.926800
H91	H9	0.758800	0.172800	0.850500
C141	C14	0.617500	0.061700	0.961600
C151	C15	0.535900	0.071300	0.886700
C161	C16	0.422300	0.010600	0.920500
C171	C17	0.339200	0.019400	0.845500
H101	H10	0.360500	0.069300	0.769000
C181	C18	0.231600	0.957600	0.882800
H111	H11	0.180800	0.963100	0.831400
N11	N1	0.578200	0.144800	0.767800
N21	N2	0.694700	0.174100	0.586500
O11	O1	0.801800	0.370700	0.293800
O21	O2	0.983400	0.170400	0.233900
O31	O3	0.049100	0.133600	0.470900
O41	O4	0.145100	0.090900	0.611900
Cd21	Cd2	0.160710	0.873440	0.582600
C191	C19	0.087300	0.688600	0.782000
C201	C20	0.041900	0.593600	0.892900
C211	C21	0.950000	0.654300	0.986500
H121	H12	0.916000	0.757900	0.978600
C221	C22	0.091800	0.437300	0.908400
H131	H13	0.154200	0.393900	0.847000
C231	C23	0.925500	0.819200	0.463200
C241	C24	0.965500	0.653100	0.481800
C251	C25	0.014400	0.552500	0.577000
H141	H14	0.023100	0.587800	0.630900
C261	C26	0.948400	0.600700	0.404200
H151	H15	0.912200	0.667900	0.339600
C271	C27	0.409400	0.691300	0.393200
H161	H16	0.428300	0.600800	0.449000
C281	C28	0.482000	0.702700	0.283900
H171	H17	0.557200	0.625000	0.249600
C291	C29	0.313900	0.921400	0.314400
H181	H18	0.252100	0.024100	0.302100
C301	C30	0.193400	0.884900	0.996900
H191	H19	0.117800	0.842600	0.021200
C311	C31	0.267400	0.875700	0.073200
H201	H20	0.241200	0.827200	0.149500
C321	C32	0.382500	0.938300	0.038400
C331	C33	0.464100	0.928700	0.113300
C341	C34	0.577700	0.989400	0.079500
C351	C35	0.660800	0.980600	0.154500
H211	H21	0.639500	0.930700	0.231000
C361	C36	0.768400	0.042400	0.117200
H221	H22	0.819200	0.036900	0.168600
N31	N3	0.421800	0.855200	0.232200
N41	N4	0.305300	0.825900	0.413500
O51	O5	0.198200	0.629300	0.706200
O61	O6	0.016600	0.829600	0.766100
O71	O7	0.950900	0.866400	0.529100
O81	O8	0.854900	0.909100	0.388100
