data_IQOHUT_clean_PM
_symmetry_space_group_name_H-M	'P1'
_cell_length_a	11.286700
_cell_length_b	13.835700
_cell_length_c	14.860800
_cell_angle_alpha	85.209000
_cell_angle_beta	69.742000
_cell_angle_gamma	73.909000
_symmetry_Int_Tables_number 1

loop_
_symmetry_equiv_pos_as_xyz
'x,y,z'

loop_
_atom_site_label
_atom_site_type_symbol
_atom_site_fract_x
_atom_site_fract_y
_atom_site_fract_z
C11	C1	0.479000	0.335300	0.150150
C21	C2	0.535100	0.273700	0.222080
C31	C3	0.474300	0.204400	0.279400
H11	H1	0.396600	0.197600	0.275500
C41	C4	0.529900	0.145400	0.342400
H21	H2	0.488600	0.099800	0.381200
C51	C5	0.646400	0.154300	0.347400
C61	C6	0.706300	0.224100	0.291900
H31	H3	0.784000	0.230800	0.296100
C71	C7	0.650000	0.284300	0.229800
H41	H4	0.689500	0.332000	0.193200
C81	C8	0.496800	0.105000	0.815110
C91	C9	0.548200	0.101300	0.708190
C101	C10	0.492500	0.173700	0.653400
H51	H5	0.419500	0.225400	0.683900
C111	C11	0.543800	0.170100	0.554200
H61	H6	0.505000	0.219100	0.518700
C121	C12	0.654200	0.092600	0.506800
C131	C13	0.709400	0.019100	0.562100
H71	H7	0.781700	0.966700	0.532000
C141	C14	0.657100	0.024100	0.660700
H81	H8	0.695300	0.975000	0.696400
C151	C15	0.231700	0.591700	0.156400
H91	H9	0.222300	0.527100	0.155300
C161	C16	0.125400	0.664900	0.211900
H101	H10	0.046900	0.649600	0.246300
C171	C17	0.138200	0.761600	0.215500
C181	C18	0.259600	0.777900	0.165600
H111	H11	0.274000	0.840400	0.168800
C191	C19	0.358900	0.701100	0.111000
H121	H12	0.438900	0.714300	0.076800
C201	C20	0.026100	0.845000	0.268900
C211	C21	0.899700	0.850300	0.273300
H131	H13	0.884300	0.799300	0.245600
C221	C22	0.795800	0.931300	0.318800
H141	H14	0.711300	0.934200	0.321600
C231	C23	0.818200	0.007200	0.359900
C241	C24	0.943400	0.002700	0.357300
H151	H15	0.958300	0.053600	0.385700
C251	C25	0.046600	0.921700	0.312000
H161	H16	0.130700	0.918500	0.310400
C261	C26	0.209000	0.023000	0.077800
H171	H17	0.219000	0.044800	0.131600
C271	C27	0.085100	0.028500	0.079700
H181	H18	0.013400	0.053800	0.133900
C281	C28	0.066400	0.996400	0.001000
C291	C29	0.178200	0.958300	0.923400
H191	H19	0.171400	0.935300	0.868900
C301	C30	0.299100	0.954800	0.927400
H201	H20	0.372800	0.928100	0.874900
N11	N1	0.710100	0.089770	0.407510
N21	N2	0.347100	0.608900	0.104150
N31	N3	0.316100	0.987660	0.002450
O11	O1	0.387400	0.311700	0.134530
O21	O2	0.528800	0.404740	0.110710
O31	O3	0.404700	0.178780	0.857680
O41	O4	0.550500	0.032420	0.857250
C311	C31	0.521000	0.664700	0.849850
C321	C32	0.464900	0.726300	0.777920
C331	C33	0.525700	0.795600	0.720600
H211	H21	0.603400	0.802400	0.724500
C341	C34	0.470100	0.854600	0.657600
H221	H22	0.511400	0.900200	0.618800
C351	C35	0.353600	0.845700	0.652600
C361	C36	0.293700	0.775900	0.708100
H231	H23	0.216000	0.769200	0.703900
C371	C37	0.350000	0.715700	0.770200
H241	H24	0.310500	0.668000	0.806800
C381	C38	0.503200	0.895000	0.184890
C391	C39	0.451800	0.898700	0.291810
C401	C40	0.507500	0.826300	0.346600
H251	H25	0.580500	0.774600	0.316100
C411	C41	0.456200	0.829900	0.445800
H261	H26	0.495000	0.780900	0.481300
C421	C42	0.345800	0.907400	0.493200
C431	C43	0.290600	0.980900	0.437900
H271	H27	0.218300	0.033300	0.468000
C441	C44	0.342900	0.975900	0.339300
H281	H28	0.304700	0.025000	0.303600
C451	C45	0.768300	0.408300	0.843600
H291	H29	0.777700	0.472900	0.844700
C461	C46	0.874600	0.335100	0.788100
H301	H30	0.953100	0.350400	0.753700
C471	C47	0.861800	0.238400	0.784500
C481	C48	0.740400	0.222100	0.834400
H311	H31	0.726000	0.159600	0.831200
C491	C49	0.641100	0.298900	0.889000
H321	H32	0.561100	0.285700	0.923200
C501	C50	0.973900	0.155000	0.731100
C511	C51	0.100300	0.149700	0.726700
H331	H33	0.115700	0.200700	0.754400
C521	C52	0.204200	0.068700	0.681200
H341	H34	0.288700	0.065800	0.678400
C531	C53	0.181800	0.992800	0.640100
C541	C54	0.056600	0.997300	0.642700
H351	H35	0.041700	0.946400	0.614300
C551	C55	0.953400	0.078300	0.688000
H361	H36	0.869300	0.081500	0.689600
C561	C56	0.791000	0.977000	0.922200
H371	H37	0.781000	0.955200	0.868400
C571	C57	0.914900	0.971500	0.920300
H381	H38	0.986600	0.946200	0.866100
C581	C58	0.933600	0.003600	0.999000
C591	C59	0.821800	0.041700	0.076600
H391	H39	0.828600	0.064700	0.131100
C601	C60	0.700900	0.045200	0.072600
H401	H40	0.627200	0.071900	0.125100
N41	N4	0.289900	0.910230	0.592490
N51	N5	0.652900	0.391100	0.895850
N61	N6	0.683900	0.012340	0.997550
O51	O5	0.612600	0.688300	0.865470
O61	O6	0.471200	0.595260	0.889290
O71	O7	0.595300	0.821220	0.142320
O81	O8	0.449500	0.967580	0.142750
Co11	Co1	0.500000	0.000000	0.000000
Co21	Co2	0.500000	0.500000	0.000000
