data_IQOJAB_clean_PM
_symmetry_space_group_name_H-M	'P1'
_cell_length_a	16.358300
_cell_length_b	18.133600
_cell_length_c	22.591500
_cell_angle_alpha	90.000000
_cell_angle_beta	114.105000
_cell_angle_gamma	90.000000
_symmetry_Int_Tables_number 1

loop_
_symmetry_equiv_pos_as_xyz
'x,y,z'

loop_
_atom_site_label
_atom_site_type_symbol
_atom_site_fract_x
_atom_site_fract_y
_atom_site_fract_z
Zn11	Zn1	0.278450	0.447970	0.720210
Zn21	Zn2	0.119570	0.542630	0.659470
C11	C1	0.126200	0.387050	0.613820
C21	C2	0.080200	0.327140	0.566320
C31	C3	0.998200	0.341040	0.514990
H11	H1	0.969100	0.385600	0.513200
C41	C4	0.959400	0.289190	0.466690
H21	H2	0.905200	0.299200	0.432100
C51	C5	0.002100	0.222130	0.470250
C61	C6	0.082000	0.206150	0.522840
H31	H3	0.109000	0.160300	0.526100
C71	C7	0.120800	0.259030	0.570200
H41	H4	0.174800	0.248800	0.605000
C81	C8	0.157200	0.062500	0.277210
C91	C9	0.111100	0.088460	0.318180
C101	C10	0.142400	0.148720	0.359160
H51	H5	0.196000	0.171000	0.364100
C111	C11	0.094900	0.175870	0.392560
H61	H6	0.116400	0.216700	0.419400
C121	C12	0.014700	0.142790	0.386620
C131	C13	0.985300	0.080010	0.347680
H71	H7	0.934000	0.055500	0.345100
C141	C14	0.031900	0.054270	0.313060
H81	H8	0.010400	0.013700	0.286000
C151	C15	0.442500	0.125300	0.314520
H91	H9	0.408400	0.131600	0.338500
C161	C16	0.531700	0.144900	0.342180
H101	H10	0.556400	0.163900	0.384100
C171	C17	0.584800	0.136530	0.307900
C181	C18	0.541500	0.112600	0.243970
H111	H11	0.572900	0.109300	0.217800
C191	C19	0.451900	0.093800	0.219430
H121	H12	0.424400	0.077700	0.176700
C201	C20	0.682500	0.149680	0.336830
C211	C21	0.727200	0.170100	0.298680
H131	H13	0.694700	0.178800	0.254600
C221	C22	0.819100	0.177900	0.325150
H141	H14	0.847900	0.191800	0.298900
C231	C23	0.868900	0.165090	0.390530
C241	C24	0.824900	0.147400	0.429330
H151	H15	0.857400	0.140600	0.473600
C251	C25	0.732600	0.139700	0.402770
H161	H16	0.703900	0.127600	0.429500
C261	C26	0.255700	0.553770	0.609910
C271	C27	0.303000	0.591800	0.574220
C281	C28	0.284000	0.664880	0.554980
H171	H17	0.240000	0.689800	0.563200
C291	C29	0.329300	0.701030	0.523840
H181	H18	0.315800	0.750000	0.511400
C301	C30	0.394700	0.665000	0.511030
C311	C31	0.414700	0.591900	0.530650
H191	H19	0.458700	0.567100	0.522400
C321	C32	0.369900	0.556200	0.562080
H201	H20	0.384500	0.507600	0.575400
C331	C33	0.262000	0.895670	0.267280
C341	C34	0.309900	0.843560	0.321910
C351	C35	0.397900	0.856900	0.364690
H211	H21	0.427600	0.897900	0.358500
C361	C36	0.442100	0.810000	0.416460
H221	H22	0.501100	0.819700	0.444600
C371	C37	0.398400	0.748640	0.426330
C381	C38	0.310800	0.735260	0.383800
H231	H23	0.281000	0.694300	0.389900
C391	C39	0.266800	0.782470	0.332010
H241	H24	0.207800	0.772800	0.303900
C401	C40	0.930500	0.556470	0.564330
H251	H25	0.949100	0.525200	0.539700
C411	C41	0.842400	0.578900	0.539270
H261	H26	0.803200	0.563100	0.498300
C421	C42	0.812100	0.625000	0.575090
C431	C43	0.874800	0.645700	0.636580
H271	H27	0.857700	0.675900	0.662800
C441	C44	0.961700	0.621330	0.658070
H281	H28	0.002400	0.635700	0.699000
C451	C45	0.718000	0.650120	0.550000
C461	C46	0.665300	0.653630	0.483520
H291	H29	0.690900	0.643500	0.454500
C471	C47	0.575300	0.671900	0.459990
H301	H30	0.541100	0.673600	0.415500
C481	C48	0.536400	0.687700	0.502520
C491	C49	0.589800	0.689900	0.569010
H311	H31	0.565000	0.704300	0.597600
C501	C50	0.679200	0.670800	0.592520
H321	H32	0.714000	0.671600	0.636900
N11	N1	0.963760	0.171040	0.418480
N21	N2	0.402940	0.097570	0.254440
N31	N3	0.443100	0.702080	0.480150
N41	N4	0.990520	0.577790	0.622680
O11	O1	0.091260	0.450200	0.601250
O21	O2	0.196950	0.370240	0.662120
O31	O3	0.237020	0.082590	0.291050
O41	O4	0.111410	0.022880	0.229440
O51	O5	0.288700	0.493890	0.638510
O61	O6	0.187080	0.584750	0.610180
O71	O7	0.306230	0.949520	0.260870
O81	O8	0.181440	0.882130	0.231430
Zn31	Zn3	0.278450	0.052030	0.220210
Zn41	Zn4	0.119570	0.957370	0.159470
C511	C51	0.126200	0.112950	0.113820
C521	C52	0.080200	0.172860	0.066320
C531	C53	0.998200	0.158960	0.014990
H331	H33	0.969100	0.114400	0.013200
C541	C54	0.959400	0.210810	0.966690
H341	H34	0.905200	0.200800	0.932100
C551	C55	0.002100	0.277870	0.970250
C561	C56	0.082000	0.293850	0.022840
H351	H35	0.109000	0.339700	0.026100
C571	C57	0.120800	0.240970	0.070200
H361	H36	0.174800	0.251200	0.105000
C581	C58	0.157200	0.437500	0.777210
C591	C59	0.111100	0.411540	0.818180
C601	C60	0.142400	0.351280	0.859160
H371	H37	0.196000	0.329000	0.864100
C611	C61	0.094900	0.324130	0.892560
H381	H38	0.116400	0.283300	0.919400
C621	C62	0.014700	0.357210	0.886620
C631	C63	0.985300	0.419990	0.847680
H391	H39	0.934000	0.444500	0.845100
C641	C64	0.031900	0.445730	0.813060
H401	H40	0.010400	0.486300	0.786000
C651	C65	0.442500	0.374700	0.814520
H411	H41	0.408400	0.368400	0.838500
C661	C66	0.531700	0.355100	0.842180
H421	H42	0.556400	0.336100	0.884100
C671	C67	0.584800	0.363470	0.807900
C681	C68	0.541500	0.387400	0.743970
H431	H43	0.572900	0.390700	0.717800
C691	C69	0.451900	0.406200	0.719430
H441	H44	0.424400	0.422300	0.676700
C701	C70	0.682500	0.350320	0.836830
C711	C71	0.727200	0.329900	0.798680
H451	H45	0.694700	0.321200	0.754600
C721	C72	0.819100	0.322100	0.825150
H461	H46	0.847900	0.308200	0.798900
C731	C73	0.868900	0.334910	0.890530
C741	C74	0.824900	0.352600	0.929330
H471	H47	0.857400	0.359400	0.973600
C751	C75	0.732600	0.360300	0.902770
H481	H48	0.703900	0.372400	0.929500
C761	C76	0.255700	0.946230	0.109910
C771	C77	0.303000	0.908200	0.074220
C781	C78	0.284000	0.835120	0.054980
H491	H49	0.240000	0.810200	0.063200
C791	C79	0.329300	0.798970	0.023840
H501	H50	0.315800	0.750000	0.011400
C801	C80	0.394700	0.835000	0.011030
C811	C81	0.414700	0.908100	0.030650
H511	H51	0.458700	0.932900	0.022400
C821	C82	0.369900	0.943800	0.062080
H521	H52	0.384500	0.992400	0.075400
C831	C83	0.262000	0.604330	0.767280
C841	C84	0.309900	0.656440	0.821910
C851	C85	0.397900	0.643100	0.864690
H531	H53	0.427600	0.602100	0.858500
C861	C86	0.442100	0.690000	0.916460
H541	H54	0.501100	0.680300	0.944600
C871	C87	0.398400	0.751360	0.926330
C881	C88	0.310800	0.764740	0.883800
H551	H55	0.281000	0.805700	0.889900
C891	C89	0.266800	0.717530	0.832010
H561	H56	0.207800	0.727200	0.803900
C901	C90	0.930500	0.943530	0.064330
H571	H57	0.949100	0.974800	0.039700
C911	C91	0.842400	0.921100	0.039270
H581	H58	0.803200	0.936900	0.998300
C921	C92	0.812100	0.875000	0.075090
C931	C93	0.874800	0.854300	0.136580
H591	H59	0.857700	0.824100	0.162800
C941	C94	0.961700	0.878670	0.158070
H601	H60	0.002400	0.864300	0.199000
C951	C95	0.718000	0.849880	0.050000
C961	C96	0.665300	0.846370	0.983520
H611	H61	0.690900	0.856500	0.954500
C971	C97	0.575300	0.828100	0.959990
H621	H62	0.541100	0.826400	0.915500
C981	C98	0.536400	0.812300	0.002520
C991	C99	0.589800	0.810100	0.069010
H631	H63	0.565000	0.795700	0.097600
C1001	C100	0.679200	0.829200	0.092520
H641	H64	0.714000	0.828400	0.136900
N51	N5	0.963760	0.328960	0.918480
N61	N6	0.402940	0.402430	0.754440
N71	N7	0.443100	0.797920	0.980150
N81	N8	0.990520	0.922210	0.122680
O91	O9	0.091260	0.049800	0.101250
O101	O10	0.196950	0.129760	0.162120
O111	O11	0.237020	0.417410	0.791050
O121	O12	0.111410	0.477120	0.729440
O131	O13	0.288700	0.006110	0.138510
O141	O14	0.187080	0.915250	0.110180
O151	O15	0.306230	0.550480	0.760870
O161	O16	0.181440	0.617870	0.731430
Zn51	Zn5	0.721550	0.947970	0.779790
Zn61	Zn6	0.880430	0.042630	0.840530
C1011	C101	0.873800	0.887050	0.886180
C1021	C102	0.919800	0.827140	0.933680
C1031	C103	0.001800	0.841040	0.985010
H651	H65	0.030900	0.885600	0.986800
C1041	C104	0.040600	0.789190	0.033310
H661	H66	0.094800	0.799200	0.067900
C1051	C105	0.997900	0.722130	0.029750
C1061	C106	0.918000	0.706150	0.977160
H671	H67	0.891000	0.660300	0.973900
C1071	C107	0.879200	0.759030	0.929800
H681	H68	0.825200	0.748800	0.895000
C1081	C108	0.842800	0.562500	0.222790
C1091	C109	0.888900	0.588460	0.181820
C1101	C110	0.857600	0.648720	0.140840
H691	H69	0.804000	0.671000	0.135900
C1111	C111	0.905100	0.675870	0.107440
H701	H70	0.883600	0.716700	0.080600
C1121	C112	0.985300	0.642790	0.113380
C1131	C113	0.014700	0.580010	0.152320
H711	H71	0.066000	0.555500	0.154900
C1141	C114	0.968100	0.554270	0.186940
H721	H72	0.989600	0.513700	0.214000
C1151	C115	0.557500	0.625300	0.185480
H731	H73	0.591600	0.631600	0.161500
C1161	C116	0.468300	0.644900	0.157820
H741	H74	0.443600	0.663900	0.115900
C1171	C117	0.415200	0.636530	0.192100
C1181	C118	0.458500	0.612600	0.256030
H751	H75	0.427100	0.609300	0.282200
C1191	C119	0.548100	0.593800	0.280570
H761	H76	0.575600	0.577700	0.323300
C1201	C120	0.317500	0.649680	0.163170
C1211	C121	0.272800	0.670100	0.201320
H771	H77	0.305300	0.678800	0.245400
C1221	C122	0.180900	0.677900	0.174850
H781	H78	0.152100	0.691800	0.201100
C1231	C123	0.131100	0.665090	0.109470
C1241	C124	0.175100	0.647400	0.070670
H791	H79	0.142600	0.640600	0.026400
C1251	C125	0.267400	0.639700	0.097230
H801	H80	0.296100	0.627600	0.070500
C1261	C126	0.744300	0.053770	0.890090
C1271	C127	0.697000	0.091800	0.925780
C1281	C128	0.716000	0.164880	0.945020
H811	H81	0.760000	0.189800	0.936800
C1291	C129	0.670700	0.201030	0.976160
H821	H82	0.684200	0.250000	0.988600
C1301	C130	0.605300	0.165000	0.988970
C1311	C131	0.585300	0.091900	0.969350
H831	H83	0.541300	0.067100	0.977600
C1321	C132	0.630100	0.056200	0.937920
H841	H84	0.615500	0.007600	0.924600
C1331	C133	0.738000	0.395670	0.232720
C1341	C134	0.690100	0.343560	0.178090
C1351	C135	0.602100	0.356900	0.135310
H851	H85	0.572400	0.397900	0.141500
C1361	C136	0.557900	0.310000	0.083540
H861	H86	0.498900	0.319700	0.055400
C1371	C137	0.601600	0.248640	0.073670
C1381	C138	0.689200	0.235260	0.116200
H871	H87	0.719000	0.194300	0.110100
C1391	C139	0.733200	0.282470	0.167990
H881	H88	0.792200	0.272800	0.196100
C1401	C140	0.069500	0.056470	0.935670
H891	H89	0.050900	0.025200	0.960300
C1411	C141	0.157600	0.078900	0.960730
H901	H90	0.196800	0.063100	0.001700
C1421	C142	0.187900	0.125000	0.924910
C1431	C143	0.125200	0.145700	0.863420
H911	H91	0.142300	0.175900	0.837200
C1441	C144	0.038300	0.121330	0.841930
H921	H92	0.997600	0.135700	0.801000
C1451	C145	0.282000	0.150120	0.950000
C1461	C146	0.334700	0.153630	0.016480
H931	H93	0.309100	0.143500	0.045500
C1471	C147	0.424700	0.171900	0.040010
H941	H94	0.458900	0.173600	0.084500
C1481	C148	0.463600	0.187700	0.997480
C1491	C149	0.410200	0.189900	0.930990
H951	H95	0.435000	0.204300	0.902400
C1501	C150	0.320800	0.170800	0.907480
H961	H96	0.286000	0.171600	0.863100
N91	N9	0.036240	0.671040	0.081520
N101	N10	0.597060	0.597570	0.245560
N111	N11	0.556900	0.202080	0.019850
N121	N12	0.009480	0.077790	0.877320
O171	O17	0.908740	0.950200	0.898750
O181	O18	0.803050	0.870240	0.837880
O191	O19	0.762980	0.582590	0.208950
O201	O20	0.888590	0.522880	0.270560
O211	O21	0.711300	0.993890	0.861490
O221	O22	0.812920	0.084750	0.889820
O231	O23	0.693770	0.449520	0.239130
O241	O24	0.818560	0.382130	0.268570
Zn71	Zn7	0.721550	0.552030	0.279790
Zn81	Zn8	0.880430	0.457370	0.340530
C1511	C151	0.873800	0.612950	0.386180
C1521	C152	0.919800	0.672860	0.433680
C1531	C153	0.001800	0.658960	0.485010
H971	H97	0.030900	0.614400	0.486800
C1541	C154	0.040600	0.710810	0.533310
H981	H98	0.094800	0.700800	0.567900
C1551	C155	0.997900	0.777870	0.529750
C1561	C156	0.918000	0.793850	0.477160
H991	H99	0.891000	0.839700	0.473900
C1571	C157	0.879200	0.740970	0.429800
H1001	H100	0.825200	0.751200	0.395000
C1581	C158	0.842800	0.937500	0.722790
C1591	C159	0.888900	0.911540	0.681820
C1601	C160	0.857600	0.851280	0.640840
H1011	H101	0.804000	0.829000	0.635900
C1611	C161	0.905100	0.824130	0.607440
H1021	H102	0.883600	0.783300	0.580600
C1621	C162	0.985300	0.857210	0.613380
C1631	C163	0.014700	0.919990	0.652320
H1031	H103	0.066000	0.944500	0.654900
C1641	C164	0.968100	0.945730	0.686940
H1041	H104	0.989600	0.986300	0.714000
C1651	C165	0.557500	0.874700	0.685480
H1051	H105	0.591600	0.868400	0.661500
C1661	C166	0.468300	0.855100	0.657820
H1061	H106	0.443600	0.836100	0.615900
C1671	C167	0.415200	0.863470	0.692100
C1681	C168	0.458500	0.887400	0.756030
H1071	H107	0.427100	0.890700	0.782200
C1691	C169	0.548100	0.906200	0.780570
H1081	H108	0.575600	0.922300	0.823300
C1701	C170	0.317500	0.850320	0.663170
C1711	C171	0.272800	0.829900	0.701320
H1091	H109	0.305300	0.821200	0.745400
C1721	C172	0.180900	0.822100	0.674850
H1101	H110	0.152100	0.808200	0.701100
C1731	C173	0.131100	0.834910	0.609470
C1741	C174	0.175100	0.852600	0.570670
H1111	H111	0.142600	0.859400	0.526400
C1751	C175	0.267400	0.860300	0.597230
H1121	H112	0.296100	0.872400	0.570500
C1761	C176	0.744300	0.446230	0.390090
C1771	C177	0.697000	0.408200	0.425780
C1781	C178	0.716000	0.335120	0.445020
H1131	H113	0.760000	0.310200	0.436800
C1791	C179	0.670700	0.298970	0.476160
H1141	H114	0.684200	0.250000	0.488600
C1801	C180	0.605300	0.335000	0.488970
C1811	C181	0.585300	0.408100	0.469350
H1151	H115	0.541300	0.432900	0.477600
C1821	C182	0.630100	0.443800	0.437920
H1161	H116	0.615500	0.492400	0.424600
C1831	C183	0.738000	0.104330	0.732720
C1841	C184	0.690100	0.156440	0.678090
C1851	C185	0.602100	0.143100	0.635310
H1171	H117	0.572400	0.102100	0.641500
C1861	C186	0.557900	0.190000	0.583540
H1181	H118	0.498900	0.180300	0.555400
C1871	C187	0.601600	0.251360	0.573670
C1881	C188	0.689200	0.264740	0.616200
H1191	H119	0.719000	0.305700	0.610100
C1891	C189	0.733200	0.217530	0.667990
H1201	H120	0.792200	0.227200	0.696100
C1901	C190	0.069500	0.443530	0.435670
H1211	H121	0.050900	0.474800	0.460300
C1911	C191	0.157600	0.421100	0.460730
H1221	H122	0.196800	0.436900	0.501700
C1921	C192	0.187900	0.375000	0.424910
C1931	C193	0.125200	0.354300	0.363420
H1231	H123	0.142300	0.324100	0.337200
C1941	C194	0.038300	0.378670	0.341930
H1241	H124	0.997600	0.364300	0.301000
C1951	C195	0.282000	0.349880	0.450000
C1961	C196	0.334700	0.346370	0.516480
H1251	H125	0.309100	0.356500	0.545500
C1971	C197	0.424700	0.328100	0.540010
H1261	H126	0.458900	0.326400	0.584500
C1981	C198	0.463600	0.312300	0.497480
C1991	C199	0.410200	0.310100	0.430990
H1271	H127	0.435000	0.295700	0.402400
C2001	C200	0.320800	0.329200	0.407480
H1281	H128	0.286000	0.328400	0.363100
N131	N13	0.036240	0.828960	0.581520
N141	N14	0.597060	0.902430	0.745560
N151	N15	0.556900	0.297920	0.519850
N161	N16	0.009480	0.422210	0.377320
O251	O25	0.908740	0.549800	0.398750
O261	O26	0.803050	0.629760	0.337880
O271	O27	0.762980	0.917410	0.708950
O281	O28	0.888590	0.977120	0.770560
O291	O29	0.711300	0.506110	0.361490
O301	O30	0.812920	0.415250	0.389820
O311	O31	0.693770	0.050480	0.739130
O321	O32	0.818560	0.117870	0.768570
