data_IQOKIK_clean_PM
_symmetry_space_group_name_H-M	'P1'
_cell_length_a	13.736000
_cell_length_b	22.640000
_cell_length_c	23.010000
_cell_angle_alpha	65.026000
_cell_angle_beta	75.118000
_cell_angle_gamma	87.591000
_symmetry_Int_Tables_number 1

loop_
_symmetry_equiv_pos_as_xyz
'x,y,z'

loop_
_atom_site_label
_atom_site_type_symbol
_atom_site_fract_x
_atom_site_fract_y
_atom_site_fract_z
Mn11	Mn1	0.043560	0.751450	0.342700
O11	O1	0.006800	0.766000	0.426400
O21	O2	0.089600	0.844500	0.274200
O31	O3	0.901800	0.734900	0.331200
O41	O4	0.951600	0.646100	0.396400
O51	O5	0.170700	0.705700	0.359900
C11	C1	0.950900	0.809200	0.432000
C21	C2	0.030700	0.881600	0.244700
Mn21	Mn2	0.821750	0.824020	0.332900
O61	O6	0.897600	0.840800	0.393700
C31	C3	0.953000	0.827300	0.487900
O71	O7	0.940000	0.873100	0.249700
C41	C4	0.083000	0.950100	0.194600
O81	O8	0.710800	0.763500	0.414000
O91	O9	0.739000	0.914700	0.327600
O101	O10	0.731200	0.822800	0.270700
C51	C5	0.907600	0.882600	0.490200
C61	C6	0.992200	0.786000	0.539700
C71	C7	0.040800	0.984400	0.142000
C81	C8	0.163600	0.978900	0.202000
C91	C9	0.621900	0.751100	0.435100
Mn31	Mn3	0.589510	0.887900	0.335950
H11	H1	0.880800	0.910800	0.454800
C101	C10	0.901400	0.896500	0.544300
C111	C11	0.986000	0.800000	0.593800
H21	H2	0.023300	0.748200	0.538200
H31	H3	0.985800	0.964700	0.137000
C121	C12	0.079100	0.047600	0.096900
C131	C13	0.201800	0.042200	0.156900
H41	H4	0.192400	0.955500	0.237900
O111	O11	0.556200	0.796100	0.412600
C141	C14	0.572500	0.690300	0.488200
O121	O12	0.434300	0.907400	0.359000
O131	O13	0.533200	0.996400	0.285900
O141	O14	0.618100	0.890700	0.244100
H51	H5	0.870300	0.934300	0.545800
C151	C15	0.940600	0.855200	0.596100
H61	H6	0.012800	0.771700	0.629200
H71	H7	0.050200	0.071100	0.061000
C161	C16	0.159600	0.076500	0.104300
H81	H8	0.256900	0.061900	0.161900
C171	C17	0.634500	0.639500	0.508500
C181	C18	0.468700	0.679700	0.516300
C191	C19	0.447900	0.965000	0.323000
Si11	Si1	0.924400	0.872440	0.671400
Si21	Si2	0.209000	0.162100	0.038700
H91	H9	0.705400	0.646700	0.489300
C201	C20	0.592600	0.578100	0.556900
C211	C21	0.426900	0.618300	0.564700
H101	H10	0.426400	0.714400	0.502500
C221	C22	0.357700	0.006800	0.319000
C231	C23	0.811000	0.921000	0.679400
C241	C24	0.036700	0.922800	0.663900
C251	C25	0.904700	0.791300	0.744900
C261	C26	0.109500	0.222100	0.037100
C271	C27	0.241400	0.155000	0.956200
C281	C28	0.325700	0.189400	0.051700
H111	H11	0.635000	0.543400	0.570800
C291	C29	0.488800	0.567600	0.585000
H121	H12	0.356000	0.611100	0.583900
C301	C30	0.262800	0.975500	0.356600
C311	C31	0.368300	0.074200	0.282200
C321	C32	0.821600	0.988400	0.642600
C331	C33	0.716000	0.889700	0.717000
C341	C34	0.026800	0.953400	0.706200
C351	C35	0.124900	0.934300	0.613500
C361	C36	0.828400	0.746400	0.755700
C371	C37	0.971900	0.773200	0.784400
C381	C38	0.143800	0.287800	0.003300
C391	C39	0.006500	0.204200	0.060500
C401	C40	0.195300	0.194500	0.907400
C411	C41	0.309000	0.111300	0.944500
C421	C42	0.320100	0.201500	0.106900
C431	C43	0.417700	0.199100	0.004800
Si31	Si3	0.439200	0.484960	0.656100
H131	H13	0.255500	0.929400	0.381700
H141	H14	0.433200	0.095700	0.256500
H151	H15	0.886400	0.009800	0.616900
H161	H16	0.708800	0.843600	0.742100
C441	C44	0.105200	0.995500	0.697900
H171	H17	0.966500	0.945500	0.740600
H181	H18	0.131700	0.913500	0.584700
C451	C45	0.203300	0.976400	0.605300
C461	C46	0.819300	0.683600	0.806000
H191	H19	0.782500	0.758800	0.728700
H201	H20	0.024100	0.803800	0.777000
C471	C47	0.962800	0.710300	0.834700
C481	C48	0.074900	0.335500	0.993000
H211	H21	0.214200	0.300100	0.987300
H221	H22	0.983100	0.159300	0.083500
C491	C49	0.937600	0.251900	0.050200
C501	C50	0.216700	0.190300	0.846900
H231	H23	0.149100	0.224300	0.915500
H241	H24	0.340600	0.084300	0.977900
C511	C51	0.330500	0.107200	0.884000
C521	C52	0.406500	0.223300	0.115100
H251	H25	0.257200	0.194800	0.138900
H261	H26	0.421500	0.190800	0.967100
C531	C53	0.504100	0.220900	0.013100
C541	C54	0.379200	0.493800	0.733800
C551	C55	0.345100	0.438800	0.639600
C561	C56	0.552700	0.434200	0.665800
C571	C57	0.193500	0.007000	0.647500
H271	H27	0.098500	0.016300	0.726800
H281	H28	0.263600	0.984300	0.570800
C581	C58	0.886600	0.665500	0.845600
H291	H29	0.767200	0.652900	0.813400
H301	H30	0.008800	0.698000	0.861700
C591	C59	0.971800	0.317600	0.016400
H311	H31	0.098300	0.380400	0.970000
H321	H32	0.867100	0.239600	0.066200
C601	C60	0.284400	0.146700	0.835200
H331	H33	0.185200	0.217300	0.813600
H341	H34	0.376700	0.077300	0.876000
C611	C61	0.498500	0.233000	0.068200
H351	H35	0.402600	0.231500	0.152800
H361	H36	0.566900	0.227600	0.981000
C621	C62	0.425600	0.533600	0.752700
C631	C63	0.285700	0.460900	0.772600
C641	C64	0.334900	0.371100	0.674300
C651	C65	0.278000	0.470600	0.602300
C661	C66	0.592700	0.411700	0.617700
C671	C67	0.593800	0.417900	0.719400
C681	C68	0.277500	0.053800	0.637600
C691	C69	0.875600	0.596200	0.899200
C701	C70	0.893900	0.369600	0.003700
C711	C71	0.313200	0.144000	0.772100
C721	C72	0.594200	0.256800	0.075400
C731	C73	0.378700	0.540500	0.810500
H371	H37	0.489500	0.556200	0.726200
H381	H38	0.253900	0.433700	0.759700
C741	C74	0.238700	0.467700	0.830400
C751	C75	0.257700	0.335300	0.671800
H391	H39	0.380800	0.349400	0.699800
H401	H40	0.285000	0.516800	0.578500
C761	C76	0.200800	0.434700	0.599800
C771	C77	0.674000	0.372800	0.623100
H411	H41	0.564600	0.422800	0.581100
H421	H42	0.566500	0.433300	0.752300
C781	C78	0.675100	0.379000	0.724900
O151	O15	0.357500	0.060100	0.597300
O161	O16	0.958700	0.578900	0.919100
O171	O17	0.803900	0.560100	0.913600
O181	O18	0.927500	0.428200	0.980800
O191	O19	0.805200	0.351800	0.018500
O201	O20	0.668500	0.276500	0.022800
O211	O21	0.589500	0.262500	0.127000
C791	C79	0.285200	0.507500	0.849300
H431	H43	0.410400	0.567600	0.823500
H441	H44	0.174800	0.445200	0.856900
C801	C80	0.190600	0.367100	0.634500
H451	H45	0.250700	0.289000	0.695600
H461	H46	0.155000	0.456500	0.574300
C811	C81	0.715100	0.356400	0.676700
H471	H47	0.701300	0.357300	0.590200
H481	H48	0.703200	0.367800	0.761500
Mn41	Mn4	0.772150	0.459250	0.968850
C821	C82	0.227100	0.515300	0.910900
C831	C83	0.105300	0.323100	0.637100
C841	C84	0.803600	0.313900	0.684300
O221	O22	0.721900	0.460100	0.062400
O231	O23	0.860000	0.502800	0.064900
O241	O24	0.845600	0.301800	0.726900
Mn51	Mn5	0.956440	0.248550	0.657300
O251	O25	0.993200	0.234000	0.573600
O261	O26	0.910400	0.155500	0.725800
O271	O27	0.098200	0.265100	0.668800
O281	O28	0.048400	0.353900	0.603600
O291	O29	0.829300	0.294300	0.640100
C851	C85	0.049100	0.190800	0.568000
C861	C86	0.969300	0.118400	0.755300
Mn61	Mn6	0.178250	0.175980	0.667100
O301	O30	0.102400	0.159200	0.606300
C871	C87	0.047000	0.172700	0.512100
O311	O31	0.060000	0.126900	0.750300
C881	C88	0.917000	0.049900	0.805400
O321	O32	0.289200	0.236500	0.586000
O331	O33	0.261000	0.085300	0.672400
O341	O34	0.268800	0.177200	0.729300
C891	C89	0.092400	0.117400	0.509800
C901	C90	0.007800	0.214000	0.460300
C911	C91	0.959200	0.015600	0.858000
C921	C92	0.836400	0.021100	0.798000
C931	C93	0.378100	0.248900	0.564900
Mn71	Mn7	0.410490	0.112100	0.664050
H491	H49	0.119200	0.089200	0.545200
C941	C94	0.098600	0.103500	0.455700
C951	C95	0.014000	0.200000	0.406200
H501	H50	0.976700	0.251800	0.461800
H511	H51	0.014200	0.035300	0.863000
C961	C96	0.920900	0.952400	0.903100
C971	C97	0.798200	0.957800	0.843100
H521	H52	0.807600	0.044500	0.762100
O351	O35	0.443800	0.203900	0.587400
C981	C98	0.427500	0.309700	0.511800
O361	O36	0.565700	0.092600	0.641000
O371	O37	0.466800	0.003600	0.714100
O381	O38	0.381900	0.109300	0.755900
H531	H53	0.129700	0.065700	0.454200
C991	C99	0.059400	0.144800	0.403900
H541	H54	0.987200	0.228300	0.370800
H551	H55	0.949800	0.928900	0.939000
C1001	C100	0.840400	0.923500	0.895700
H561	H56	0.743100	0.938100	0.838100
C1011	C101	0.365500	0.360500	0.491500
C1021	C102	0.531300	0.320300	0.483700
C1031	C103	0.552100	0.035000	0.677000
Si41	Si4	0.075600	0.127560	0.328600
Si51	Si5	0.791000	0.837900	0.961300
H571	H57	0.294600	0.353300	0.510700
C1041	C104	0.407400	0.421900	0.443100
C1051	C105	0.573100	0.381700	0.435300
H581	H58	0.573600	0.285600	0.497500
C1061	C106	0.642300	0.993200	0.681000
C1071	C107	0.189000	0.079000	0.320600
C1081	C108	0.963300	0.077200	0.336100
C1091	C109	0.095300	0.208700	0.255100
C1101	C110	0.890500	0.777900	0.962900
C1111	C111	0.758600	0.845000	0.043800
C1121	C112	0.674300	0.810600	0.948300
H591	H59	0.365000	0.456600	0.429200
C1131	C113	0.511200	0.432400	0.415000
H601	H60	0.644000	0.388900	0.416100
C1141	C114	0.737200	0.024500	0.643400
C1151	C115	0.631700	0.925800	0.717800
C1161	C116	0.178400	0.011600	0.357400
C1171	C117	0.284000	0.110300	0.283000
C1181	C118	0.973200	0.046600	0.293800
C1191	C119	0.875100	0.065700	0.386500
C1201	C120	0.171600	0.253600	0.244300
C1211	C121	0.028100	0.226800	0.215600
C1221	C122	0.856200	0.712200	0.996700
C1231	C123	0.993500	0.795800	0.939500
C1241	C124	0.804700	0.805500	0.092600
C1251	C125	0.691000	0.888700	0.055500
C1261	C126	0.679900	0.798500	0.893100
C1271	C127	0.582300	0.800900	0.995200
Si61	Si6	0.560800	0.515040	0.343900
H611	H61	0.744500	0.070600	0.618300
H621	H62	0.566800	0.904300	0.743500
H631	H63	0.113600	0.990200	0.383100
H641	H64	0.291200	0.156400	0.257900
C1281	C128	0.894800	0.004500	0.302100
H651	H65	0.033500	0.054500	0.259400
H661	H66	0.868300	0.086500	0.415300
C1291	C129	0.796700	0.023600	0.394700
C1301	C130	0.180700	0.316400	0.194000
H671	H67	0.217500	0.241200	0.271300
H681	H68	0.975900	0.196200	0.223000
C1311	C131	0.037200	0.289700	0.165300
C1321	C132	0.925100	0.664500	0.007000
H691	H69	0.785800	0.699900	0.012700
H701	H70	0.016900	0.840700	0.916500
C1331	C133	0.062400	0.748100	0.949800
C1341	C134	0.783300	0.809700	0.153100
H711	H71	0.850900	0.775700	0.084500
H721	H72	0.659400	0.915700	0.022100
C1351	C135	0.669500	0.892800	0.116000
C1361	C136	0.593500	0.776700	0.884900
H731	H73	0.742800	0.805200	0.861100
H741	H74	0.578500	0.809200	0.032900
C1371	C137	0.495900	0.779100	0.986900
C1381	C138	0.620800	0.506200	0.266200
C1391	C139	0.654900	0.561200	0.360400
C1401	C140	0.447300	0.565800	0.334200
C1411	C141	0.806500	0.993000	0.352500
H751	H75	0.901500	0.983700	0.273200
H761	H76	0.736400	0.015700	0.429200
C1421	C142	0.113400	0.334500	0.154400
H771	H77	0.232800	0.347100	0.186600
H781	H78	0.991200	0.302000	0.138300
C1431	C143	0.028200	0.682400	0.983600
H791	H79	0.901700	0.619600	0.030000
H801	H80	0.132900	0.760400	0.933800
C1441	C144	0.715600	0.853300	0.164800
H811	H81	0.814800	0.782700	0.186400
H821	H82	0.623300	0.922700	0.124000
C1451	C145	0.501500	0.767000	0.931800
H831	H83	0.597400	0.768500	0.847200
H841	H84	0.433100	0.772400	0.019000
C1461	C146	0.574400	0.466400	0.247300
C1471	C147	0.714300	0.539100	0.227400
C1481	C148	0.665100	0.628900	0.325700
C1491	C149	0.722000	0.529400	0.397700
C1501	C150	0.407300	0.588300	0.382300
C1511	C151	0.406200	0.582100	0.280600
C1521	C152	0.722500	0.946200	0.362400
C1531	C153	0.124400	0.403800	0.100800
C1541	C154	0.106100	0.630400	0.996300
C1551	C155	0.686800	0.856000	0.227900
C1561	C156	0.405800	0.743200	0.924600
C1571	C157	0.621300	0.459500	0.189500
H851	H85	0.510500	0.443800	0.273800
H861	H86	0.746100	0.566300	0.240300
C1581	C158	0.761300	0.532300	0.169600
C1591	C159	0.742300	0.664700	0.328200
H871	H87	0.619200	0.650600	0.300200
H881	H88	0.715000	0.483200	0.421500
C1601	C160	0.799200	0.565300	0.400200
C1611	C161	0.326000	0.627200	0.376900
H891	H89	0.435400	0.577200	0.418900
H901	H90	0.433500	0.566700	0.247700
C1621	C162	0.324900	0.621000	0.275100
O391	O39	0.642500	0.939900	0.402700
O401	O40	0.041300	0.421100	0.080900
O411	O41	0.196100	0.439900	0.086400
O421	O42	0.072500	0.571800	0.019200
O431	O43	0.194800	0.648200	0.981500
O441	O44	0.331500	0.723500	0.977200
O451	O45	0.410500	0.737500	0.873000
C1631	C163	0.714800	0.492500	0.150700
H911	H91	0.589600	0.432400	0.176500
H921	H92	0.825200	0.554800	0.143100
C1641	C164	0.809400	0.632900	0.365500
H931	H93	0.749300	0.711000	0.304400
H941	H94	0.845000	0.543500	0.425700
C1651	C165	0.284900	0.643600	0.323300
H951	H95	0.298700	0.642700	0.409800
H961	H96	0.296800	0.632200	0.238500
Mn81	Mn8	0.227850	0.540750	0.031150
C1661	C166	0.772900	0.484700	0.089100
C1671	C167	0.894700	0.676900	0.362900
C1681	C168	0.196400	0.686100	0.315700
O461	O46	0.278100	0.539900	0.937600
O471	O47	0.140000	0.497200	0.935100
O481	O48	0.154400	0.698200	0.273100
Mn91	Mn9	0.000000	0.500000	0.000000
