data_IQOKEG_clean_PM
_symmetry_space_group_name_H-M	'P1'
_cell_length_a	13.730000
_cell_length_b	14.030000
_cell_length_c	14.100000
_cell_angle_alpha	115.655000
_cell_angle_beta	111.027000
_cell_angle_gamma	100.397000
_symmetry_Int_Tables_number 1

loop_
_symmetry_equiv_pos_as_xyz
'x,y,z'

loop_
_atom_site_label
_atom_site_type_symbol
_atom_site_fract_x
_atom_site_fract_y
_atom_site_fract_z
Mn11	Mn1	0.794800	0.618100	0.621200
Si11	Si1	0.520800	0.849400	0.117100
O11	O1	0.783300	0.774400	0.769300
O21	O2	0.665100	0.593500	0.674800
O31	O3	0.979000	0.705000	0.694900
O41	O4	0.932800	0.637100	0.797000
O51	O5	0.559900	0.629000	0.467900
O61	O6	0.733500	0.659800	0.489700
O71	O7	0.592000	0.411500	0.429000
O81	O8	0.773100	0.448400	0.519500
C11	C1	0.704000	0.699700	0.758000
C21	C2	0.664300	0.737900	0.849900
C31	C3	0.707200	0.853700	0.940100
H11	H1	0.763200	0.909600	0.945300
C41	C4	0.668200	0.887700	0.022800
H21	H2	0.697500	0.966900	0.084500
C51	C5	0.586300	0.806000	0.015200
C61	C6	0.543400	0.690200	0.924900
H31	H3	0.487400	0.634300	0.919700
C71	C7	0.582400	0.656100	0.842300
H41	H4	0.553100	0.577000	0.780600
C81	C8	0.005100	0.685000	0.779000
C91	C9	0.130300	0.724800	0.861300
C101	C10	0.165000	0.713900	0.960300
H51	H5	0.110000	0.683000	0.976600
C111	C11	0.280100	0.748200	0.035500
H61	H6	0.303700	0.740700	0.103100
C121	C12	0.360500	0.793400	0.011600
C131	C13	0.325800	0.804300	0.912600
H71	H7	0.380800	0.835200	0.896400
C141	C14	0.210800	0.770000	0.837500
H81	H8	0.187100	0.777400	0.769800
C151	C15	0.640000	0.661000	0.448000
C161	C16	0.605600	0.700500	0.361500
C171	C17	0.650500	0.684000	0.284300
H91	H9	0.699900	0.644500	0.283200
C181	C18	0.623100	0.725200	0.208900
H101	H10	0.653800	0.713900	0.156100
C191	C19	0.550800	0.782900	0.210600
C201	C20	0.505900	0.799400	0.287700
H111	H11	0.456400	0.838900	0.288900
C211	C21	0.533300	0.758200	0.363200
H121	H12	0.502600	0.769500	0.415900
C221	C22	0.670900	0.374900	0.447000
C231	C23	0.640300	0.247000	0.372400
C241	C24	0.525400	0.176900	0.292200
H131	H13	0.470500	0.209800	0.288600
C251	C25	0.490800	0.058600	0.217100
H141	H14	0.412200	0.010700	0.162300
C261	C26	0.571100	0.010500	0.222300
C271	C27	0.686100	0.080600	0.302600
H151	H15	0.741000	0.047700	0.306100
C281	C28	0.720700	0.198800	0.377600
H161	H16	0.799200	0.246800	0.432400
Mn21	Mn2	0.205200	0.381900	0.378800
Si21	Si2	0.479200	0.150600	0.882900
O91	O9	0.216700	0.225600	0.230700
O101	O10	0.334900	0.406500	0.325200
O111	O11	0.021000	0.295000	0.305100
O121	O12	0.067200	0.362900	0.203000
O131	O13	0.440100	0.371000	0.532100
O141	O14	0.266500	0.340200	0.510300
O151	O15	0.408000	0.588500	0.571000
O161	O16	0.226900	0.551600	0.480500
C291	C29	0.296000	0.300300	0.242000
C301	C30	0.335700	0.262100	0.150100
C311	C31	0.292800	0.146300	0.059900
H171	H17	0.236800	0.090400	0.054700
C321	C32	0.331800	0.112300	0.977200
H181	H18	0.302500	0.033100	0.915500
C331	C33	0.413700	0.194000	0.984800
C341	C34	0.456600	0.309800	0.075100
H191	H19	0.512600	0.365700	0.080300
C351	C35	0.417600	0.343900	0.157700
H201	H20	0.446900	0.423000	0.219400
C361	C36	0.994900	0.315000	0.221000
C371	C37	0.869700	0.275200	0.138700
C381	C38	0.835000	0.286100	0.039700
H211	H21	0.890000	0.317000	0.023400
C391	C39	0.719900	0.251800	0.964500
H221	H22	0.696300	0.259300	0.896900
C401	C40	0.639500	0.206600	0.988400
C411	C41	0.674200	0.195700	0.087400
H231	H23	0.619200	0.164800	0.103600
C421	C42	0.789200	0.230000	0.162500
H241	H24	0.812900	0.222600	0.230200
C431	C43	0.360000	0.339000	0.552000
C441	C44	0.394400	0.299500	0.638500
C451	C45	0.349500	0.316000	0.715700
H251	H25	0.300100	0.355500	0.716800
C461	C46	0.376900	0.274800	0.791100
H261	H26	0.346200	0.286100	0.843900
C471	C47	0.449200	0.217100	0.789400
C481	C48	0.494100	0.200600	0.712300
H271	H27	0.543600	0.161100	0.711100
C491	C49	0.466700	0.241800	0.636800
H281	H28	0.497400	0.230500	0.584100
C501	C50	0.329100	0.625100	0.553000
C511	C51	0.359700	0.753000	0.627600
C521	C52	0.474600	0.823100	0.707800
H291	H29	0.529500	0.790200	0.711400
C531	C53	0.509200	0.941400	0.782900
H301	H30	0.587800	0.989300	0.837700
C541	C54	0.428900	0.989500	0.777700
C551	C55	0.313900	0.919400	0.697400
H311	H31	0.259000	0.952300	0.693900
C561	C56	0.279300	0.801200	0.622400
H321	H32	0.200800	0.753200	0.567600
Mn31	Mn3	0.500000	0.500000	0.500000
