data_IQOZUJ_clean_PM
_symmetry_space_group_name_H-M	'P1'
_cell_length_a	9.263000
_cell_length_b	10.353700
_cell_length_c	13.020100
_cell_angle_alpha	80.844100
_cell_angle_beta	69.162700
_cell_angle_gamma	63.427600
_symmetry_Int_Tables_number 1

loop_
_symmetry_equiv_pos_as_xyz
'x,y,z'

loop_
_atom_site_label
_atom_site_type_symbol
_atom_site_fract_x
_atom_site_fract_y
_atom_site_fract_z
Co11	Co1	0.896650	0.087940	0.369960
Co21	Co2	0.354550	0.912060	0.630040
Co31	Co3	0.016610	0.587940	0.130040
Co41	Co4	0.734590	0.412060	0.869960
H11	H1	0.738900	0.125800	0.645400
H21	H2	0.605100	0.999600	0.439000
H31	H3	0.066900	0.776200	0.268600
H41	H4	0.736600	0.914600	0.107400
H51	H5	0.700200	0.123400	0.198800
H61	H6	0.510100	0.874200	0.354600
H71	H7	0.043700	0.000400	0.561000
H81	H8	0.111700	0.223800	0.731400
H91	H9	0.758600	0.085400	0.892600
H101	H10	0.022400	0.876600	0.801200
H111	H11	0.134300	0.625800	0.854600
H121	H12	0.794100	0.499600	0.061000
H131	H13	0.085500	0.276200	0.231400
H141	H14	0.594000	0.414600	0.392600
H151	H15	0.649000	0.623400	0.301200
H161	H16	0.614700	0.374200	0.145400
H171	H17	0.354700	0.500400	0.939000
H181	H18	0.593100	0.723800	0.768600
H191	H19	0.401200	0.585400	0.607400
H201	H20	0.573600	0.376600	0.698800
C11	C1	0.680200	0.093000	0.615400
C21	C2	0.612100	0.022200	0.505200
C31	C3	0.513000	0.005800	0.602000
C41	C4	0.978800	0.838800	0.238000
C51	C5	0.800900	0.911200	0.152400
C61	C6	0.781500	0.025600	0.202200
C71	C7	0.388600	0.907000	0.384600
C81	C8	0.139500	0.977800	0.494800
C91	C9	0.120800	0.994200	0.398000
C101	C10	0.055600	0.161200	0.762000
C111	C11	0.864500	0.088800	0.847600
C121	C12	0.009300	0.974400	0.797800
C131	C13	0.045600	0.593000	0.884600
C141	C14	0.867300	0.522200	0.994800
C151	C15	0.865000	0.505800	0.898000
C161	C16	0.966800	0.338800	0.262000
C171	C17	0.703300	0.411200	0.347600
C181	C18	0.733700	0.525600	0.297800
C191	C19	0.523200	0.407000	0.115400
C201	C20	0.384300	0.477800	0.005200
C211	C21	0.268800	0.494200	0.102000
C221	C22	0.567600	0.661200	0.738000
C231	C23	0.462100	0.588800	0.652400
C241	C24	0.557100	0.474400	0.702200
N11	N1	0.717400	0.069200	0.507000
N21	N2	0.550600	0.056200	0.676600
N31	N3	0.892100	0.980600	0.259600
N41	N4	0.928400	0.791400	0.173600
N51	N5	0.293600	0.930800	0.493000
N61	N6	0.283400	0.943800	0.323400
N71	N7	0.132300	0.019400	0.740400
N81	N8	0.893400	0.208600	0.826400
N91	N9	0.974400	0.569200	0.993000
N101	N10	0.977200	0.556200	0.823400
N111	N11	0.901700	0.480600	0.240400
N121	N12	0.852000	0.291400	0.326400
N131	N13	0.536600	0.430800	0.007000
N141	N14	0.356800	0.443800	0.176600
N151	N15	0.622700	0.519400	0.759600
N161	N16	0.469800	0.708600	0.673600
