data_IRAJAN_clean_PM
_symmetry_space_group_name_H-M	'P1'
_cell_length_a	8.650300
_cell_length_b	10.187100
_cell_length_c	16.921000
_cell_angle_alpha	90.000000
_cell_angle_beta	94.688000
_cell_angle_gamma	90.000000
_symmetry_Int_Tables_number 1

loop_
_symmetry_equiv_pos_as_xyz
'x,y,z'

loop_
_atom_site_label
_atom_site_type_symbol
_atom_site_fract_x
_atom_site_fract_y
_atom_site_fract_z
Ga11	Ga1	0.232110	0.826790	0.798260
Ga21	Ga2	0.083620	0.851170	0.597040
Ga31	Ga3	0.576160	0.658850	0.768860
P11	P1	0.876280	0.852230	0.741230
P21	P2	0.221960	0.124080	0.836320
P31	P3	0.405090	0.642380	0.927950
O11	O1	0.269800	0.983800	0.859300
O21	O2	0.267300	0.721400	0.892100
O31	O3	0.010200	0.833500	0.805300
O41	O4	0.204600	0.665100	0.737800
F11	F1	0.203800	0.918700	0.696400
F21	F2	0.452800	0.827100	0.779800
O51	O5	0.919800	0.815700	0.658200
O61	O6	0.348000	0.503600	0.949100
O71	O7	0.276100	0.212700	0.907500
O81	O8	0.469400	0.711700	0.003600
O91	O9	0.748900	0.758200	0.761700
O101	O10	0.534400	0.624300	0.872000
O111	O11	0.043300	0.135200	0.825800
O121	O12	0.812700	0.993700	0.739900
N11	N1	0.474000	0.797000	0.016000
Ga41	Ga4	0.267890	0.326790	0.701740
Ga51	Ga5	0.416380	0.351170	0.902960
Ga61	Ga6	0.923840	0.158850	0.731140
P41	P4	0.623720	0.352230	0.758770
P51	P5	0.278040	0.624080	0.663680
P61	P6	0.094910	0.142380	0.572050
O131	O13	0.230200	0.483800	0.640700
O141	O14	0.232700	0.221400	0.607900
O151	O15	0.489800	0.333500	0.694700
O161	O16	0.295400	0.165100	0.762200
F31	F3	0.296200	0.418700	0.803600
F41	F4	0.047200	0.327100	0.720200
O171	O17	0.580200	0.315700	0.841800
O181	O18	0.152000	0.003600	0.550900
O191	O19	0.223900	0.712700	0.592500
O201	O20	0.030600	0.211700	0.496400
O211	O21	0.751100	0.258200	0.738300
O221	O22	0.965600	0.124300	0.628000
O231	O23	0.456700	0.635200	0.674200
O241	O24	0.687300	0.493700	0.760100
N21	N2	0.026000	0.297000	0.484000
Ga71	Ga7	0.767890	0.173210	0.201740
Ga81	Ga8	0.916380	0.148830	0.402960
Ga91	Ga9	0.423840	0.341150	0.231140
P71	P7	0.123720	0.147770	0.258770
P81	P8	0.778040	0.875920	0.163680
P91	P9	0.594910	0.357620	0.072050
O251	O25	0.730200	0.016200	0.140700
O261	O26	0.732700	0.278600	0.107900
O271	O27	0.989800	0.166500	0.194700
O281	O28	0.795400	0.334900	0.262200
F51	F5	0.796200	0.081300	0.303600
F61	F6	0.547200	0.172900	0.220200
O291	O29	0.080200	0.184300	0.341800
O301	O30	0.652000	0.496400	0.050900
O311	O31	0.723900	0.787300	0.092500
O321	O32	0.530600	0.288300	0.996400
O331	O33	0.251100	0.241800	0.238300
O341	O34	0.465600	0.375700	0.128000
O351	O35	0.956700	0.864800	0.174200
O361	O36	0.187300	0.006300	0.260100
N31	N3	0.526000	0.203000	0.984000
Ga101	Ga10	0.732110	0.673210	0.298260
Ga111	Ga11	0.583620	0.648830	0.097040
Ga121	Ga12	0.076160	0.841150	0.268860
P101	P10	0.376280	0.647770	0.241230
P111	P11	0.721960	0.375920	0.336320
P121	P12	0.905090	0.857620	0.427950
O371	O37	0.769800	0.516200	0.359300
O381	O38	0.767300	0.778600	0.392100
O391	O39	0.510200	0.666500	0.305300
O401	O40	0.704600	0.834900	0.237800
F71	F7	0.703800	0.581300	0.196400
F81	F8	0.952800	0.672900	0.279800
O411	O41	0.419800	0.684300	0.158200
O421	O42	0.848000	0.996400	0.449100
O431	O43	0.776100	0.287300	0.407500
O441	O44	0.969400	0.788300	0.503600
O451	O45	0.248900	0.741800	0.261700
O461	O46	0.034400	0.875700	0.372000
O471	O47	0.543300	0.364800	0.325800
O481	O48	0.312700	0.506300	0.239900
N41	N4	0.974000	0.703000	0.516000
