data_IRIPOO_clean_PM
_symmetry_space_group_name_H-M	'P1'
_cell_length_a	15.820600
_cell_length_b	9.029500
_cell_length_c	18.300500
_cell_angle_alpha	90.000000
_cell_angle_beta	90.000000
_cell_angle_gamma	90.000000
_symmetry_Int_Tables_number 1

loop_
_symmetry_equiv_pos_as_xyz
'x,y,z'

loop_
_atom_site_label
_atom_site_type_symbol
_atom_site_fract_x
_atom_site_fract_y
_atom_site_fract_z
V11	V1	0.209140	0.248570	0.163420
V21	V2	0.787520	0.246210	0.087460
P11	P1	0.257590	0.507500	0.035920
P21	P2	0.244520	0.003900	0.286580
P31	P3	0.003800	0.340800	0.108020
O11	O1	0.305100	0.103600	0.329600
O21	O2	0.182700	0.096000	0.239900
O31	O3	0.201200	0.406000	0.082800
O41	O4	0.196900	0.605500	0.992300
O51	O5	0.065700	0.275800	0.161400
O61	O6	0.930900	0.240500	0.088600
O71	O7	0.190200	0.912500	0.339500
O81	O8	0.317100	0.597700	0.084900
O91	O9	0.313700	0.414000	0.984600
O101	O10	0.300200	0.905000	0.240100
O111	O11	0.968500	0.491500	0.140000
H11	H1	0.909100	0.486000	0.150000
O121	O12	0.050700	0.385300	0.036100
H21	H2	0.092000	0.462000	0.029000
Nb11	Nb1	0.290860	0.748570	0.163420
V31	V3	0.290860	0.751430	0.663420
V41	V4	0.712480	0.753790	0.587460
P41	P4	0.242410	0.492500	0.535920
P51	P5	0.255480	0.996100	0.786580
P61	P6	0.496200	0.659200	0.608020
O131	O13	0.194900	0.896400	0.829600
O141	O14	0.317300	0.904000	0.739900
O151	O15	0.298800	0.594000	0.582800
O161	O16	0.303100	0.394500	0.492300
O171	O17	0.434300	0.724200	0.661400
O181	O18	0.569100	0.759500	0.588600
O191	O19	0.309800	0.087500	0.839500
O201	O20	0.182900	0.402300	0.584900
O211	O21	0.186300	0.586000	0.484600
O221	O22	0.199800	0.095000	0.740100
O231	O23	0.531500	0.508500	0.640000
H31	H3	0.590900	0.514000	0.650000
O241	O24	0.449300	0.614700	0.536100
H41	H4	0.408000	0.538000	0.529000
Nb21	Nb2	0.209140	0.251430	0.663420
V51	V5	0.790860	0.748570	0.336580
V61	V6	0.212480	0.746210	0.412540
P71	P7	0.742410	0.007500	0.464080
P81	P8	0.755480	0.503900	0.213420
P91	P9	0.996200	0.840800	0.391980
O251	O25	0.694900	0.603600	0.170400
O261	O26	0.817300	0.596000	0.260100
O271	O27	0.798800	0.906000	0.417200
O281	O28	0.803100	0.105500	0.507700
O291	O29	0.934300	0.775800	0.338600
O301	O30	0.069100	0.740500	0.411400
O311	O31	0.809800	0.412500	0.160500
O321	O32	0.682900	0.097700	0.415100
O331	O33	0.686300	0.914000	0.515400
O341	O34	0.699800	0.405000	0.259900
O351	O35	0.031500	0.991500	0.360000
H51	H5	0.090900	0.986000	0.350000
O361	O36	0.949300	0.885300	0.463900
H61	H6	0.908000	0.962000	0.471000
Nb31	Nb3	0.709140	0.248570	0.336580
V71	V7	0.709140	0.251430	0.836580
V81	V8	0.287520	0.253790	0.912540
P101	P10	0.757590	0.992500	0.964080
P111	P11	0.744520	0.496100	0.713420
P121	P12	0.503800	0.159200	0.891980
O371	O37	0.805100	0.396400	0.670400
O381	O38	0.682700	0.404000	0.760100
O391	O39	0.701200	0.094000	0.917200
O401	O40	0.696900	0.894500	0.007700
O411	O41	0.565700	0.224200	0.838600
O421	O42	0.430900	0.259500	0.911400
O431	O43	0.690200	0.587500	0.660500
O441	O44	0.817100	0.902300	0.915100
O451	O45	0.813700	0.086000	0.015400
O461	O46	0.800200	0.595000	0.759900
O471	O47	0.468500	0.008500	0.860000
H71	H7	0.409100	0.014000	0.850000
O481	O48	0.550700	0.114700	0.963900
H81	H8	0.592000	0.038000	0.971000
Nb41	Nb4	0.790860	0.751430	0.836580
V91	V9	0.212480	0.753790	0.912540
P131	P13	0.742410	0.492500	0.964080
P141	P14	0.755480	0.996100	0.713420
P151	P15	0.996200	0.659200	0.891980
O491	O49	0.694900	0.896400	0.670400
O501	O50	0.817300	0.904000	0.760100
O511	O51	0.798800	0.594000	0.917200
O521	O52	0.803100	0.394500	0.007700
O531	O53	0.934300	0.724200	0.838600
O541	O54	0.069100	0.759500	0.911400
O551	O55	0.809800	0.087500	0.660500
O561	O56	0.682900	0.402300	0.915100
O571	O57	0.686300	0.586000	0.015400
O581	O58	0.699800	0.095000	0.759900
O591	O59	0.031500	0.508500	0.860000
H91	H9	0.090900	0.514000	0.850000
O601	O60	0.949300	0.614700	0.963900
H101	H10	0.908000	0.538000	0.971000
V101	V10	0.287520	0.246210	0.412540
P161	P16	0.757590	0.507500	0.464080
P171	P17	0.744520	0.003900	0.213420
P181	P18	0.503800	0.340800	0.391980
O611	O61	0.805100	0.103600	0.170400
O621	O62	0.682700	0.096000	0.260100
O631	O63	0.701200	0.406000	0.417200
O641	O64	0.696900	0.605500	0.507700
O651	O65	0.565700	0.275800	0.338600
O661	O66	0.430900	0.240500	0.411400
O671	O67	0.690200	0.912500	0.160500
O681	O68	0.817100	0.597700	0.415100
O691	O69	0.813700	0.414000	0.515400
O701	O70	0.800200	0.905000	0.259900
O711	O71	0.468500	0.491500	0.360000
H111	H11	0.409100	0.486000	0.350000
O721	O72	0.550700	0.385300	0.463900
H121	H12	0.592000	0.462000	0.471000
V111	V11	0.787520	0.253790	0.587460
P191	P19	0.257590	0.992500	0.535920
P201	P20	0.244520	0.496100	0.786580
P211	P21	0.003800	0.159200	0.608020
O731	O73	0.305100	0.396400	0.829600
O741	O74	0.182700	0.404000	0.739900
O751	O75	0.201200	0.094000	0.582800
O761	O76	0.196900	0.894500	0.492300
O771	O77	0.065700	0.224200	0.661400
O781	O78	0.930900	0.259500	0.588600
O791	O79	0.190200	0.587500	0.839500
O801	O80	0.317100	0.902300	0.584900
O811	O81	0.313700	0.086000	0.484600
O821	O82	0.300200	0.595000	0.740100
O831	O83	0.968500	0.008500	0.640000
H131	H13	0.909100	0.014000	0.650000
O841	O84	0.050700	0.114700	0.536100
H141	H14	0.092000	0.038000	0.529000
V121	V12	0.712480	0.746210	0.087460
P221	P22	0.242410	0.007500	0.035920
P231	P23	0.255480	0.503900	0.286580
P241	P24	0.496200	0.840800	0.108020
O851	O85	0.194900	0.603600	0.329600
O861	O86	0.317300	0.596000	0.239900
O871	O87	0.298800	0.906000	0.082800
O881	O88	0.303100	0.105500	0.992300
O891	O89	0.434300	0.775800	0.161400
O901	O90	0.569100	0.740500	0.088600
O911	O91	0.309800	0.412500	0.339500
O921	O92	0.182900	0.097700	0.084900
O931	O93	0.186300	0.914000	0.984600
O941	O94	0.199800	0.405000	0.240100
O951	O95	0.531500	0.991500	0.140000
H151	H15	0.590900	0.986000	0.150000
O961	O96	0.449300	0.885300	0.036100
H161	H16	0.408000	0.962000	0.029000
