data_IROHED_clean_PM
_symmetry_space_group_name_H-M	'P1'
_cell_length_a	20.124400
_cell_length_b	12.661900
_cell_length_c	21.151800
_cell_angle_alpha	90.000000
_cell_angle_beta	110.946000
_cell_angle_gamma	90.000000
_symmetry_Int_Tables_number 1

loop_
_symmetry_equiv_pos_as_xyz
'x,y,z'

loop_
_atom_site_label
_atom_site_type_symbol
_atom_site_fract_x
_atom_site_fract_y
_atom_site_fract_z
C11	C1	0.074300	0.990600	0.932800
C21	C2	0.133500	0.919700	0.928300
H11	H1	0.143400	0.865600	0.962200
H21	H2	0.118800	0.887800	0.884300
H31	H3	0.175500	0.961100	0.935600
O11	O1	0.505300	0.129000	0.566500
O21	O2	0.555300	0.838200	0.727800
O31	O3	0.675400	0.856600	0.563200
O41	O4	0.648900	0.055500	0.609500
O51	O5	0.583500	0.046600	0.696700
O61	O6	0.672600	0.900400	0.694300
O71	O7	0.769800	0.025100	0.590800
O81	O8	0.623100	0.262300	0.592400
O91	O9	0.557200	0.254300	0.682000
O101	O10	0.597400	0.004700	0.822800
O111	O11	0.690000	0.852400	0.823800
O121	O12	0.796400	0.863000	0.678100
O131	O13	0.687900	0.210300	0.714200
O141	O14	0.715800	0.044000	0.808900
O151	O15	0.786500	0.050900	0.715600
O161	O16	0.762100	0.224400	0.620200
O171	O17	0.652100	0.402800	0.691300
O181	O18	0.577700	0.423000	0.777300
O191	O19	0.618500	0.210300	0.813000
O201	O20	0.622200	0.131200	0.937300
O211	O21	0.723400	0.989100	0.924700
O221	O22	0.813600	0.815300	0.939900
O231	O23	0.815600	0.881900	0.810200
O241	O24	0.932800	0.819800	0.773300
O251	O25	0.896800	0.007700	0.692500
O261	O26	0.883700	0.214400	0.721200
O271	O27	0.792600	0.360800	0.719700
O281	O28	0.716700	0.349200	0.823500
O291	O29	0.742100	0.198300	0.910900
O301	O30	0.852600	0.013900	0.913600
O311	O31	0.922300	0.015800	0.825600
O321	O32	0.821800	0.203100	0.822500
O331	O33	0.934800	0.420300	0.772100
O341	O34	0.856900	0.389200	0.856600
O351	O35	0.797000	0.397900	0.955900
O361	O36	0.887700	0.241100	0.954800
O371	O37	0.959700	0.247300	0.853500
O381	O38	0.032100	0.957000	0.962000
O391	O39	0.066500	0.079700	0.907100
O401	O40	0.175600	0.103500	0.819100
O411	O41	0.367400	0.198900	0.610400
O421	O42	0.684700	0.878200	0.019700
Na11	Na1	0.407000	0.255500	0.520600
K11	K1	0.809390	0.762900	0.068200
K21	K2	0.471630	0.131500	0.738550
Ge11	Ge1	0.755030	0.128500	0.766950
Y11	Y1	0.953350	0.110490	0.926270
W11	W1	0.586270	0.150860	0.631100
W21	W2	0.623050	0.927230	0.754310
W31	W3	0.715210	0.938710	0.630110
W41	W4	0.838480	0.124900	0.647020
W51	W5	0.711640	0.335490	0.647880
W61	W6	0.630070	0.328540	0.760400
W71	W7	0.662660	0.105570	0.879930
W81	W8	0.784170	0.920350	0.883360
W91	W9	0.874710	0.926140	0.761520
W101	W10	0.889390	0.318110	0.791690
W111	W11	0.808660	0.302780	0.902870
Rb11	Rb1	0.029040	0.118380	0.768640
Rb21	Rb2	0.673090	0.341380	0.989860
C31	C3	0.925700	0.490600	0.567200
C41	C4	0.866500	0.419700	0.571700
H41	H4	0.856600	0.365600	0.537800
H51	H5	0.881200	0.387800	0.615700
H61	H6	0.824500	0.461100	0.564400
O431	O43	0.494700	0.629000	0.933500
O441	O44	0.444700	0.338200	0.772200
O451	O45	0.324600	0.356600	0.936800
O461	O46	0.351100	0.555500	0.890500
O471	O47	0.416500	0.546600	0.803300
O481	O48	0.327400	0.400400	0.805700
O491	O49	0.230200	0.525100	0.909200
O501	O50	0.376900	0.762300	0.907600
O511	O51	0.442800	0.754300	0.818000
O521	O52	0.402600	0.504700	0.677200
O531	O53	0.310000	0.352400	0.676200
O541	O54	0.203600	0.363000	0.821900
O551	O55	0.312100	0.710300	0.785800
O561	O56	0.284200	0.544000	0.691100
O571	O57	0.213500	0.550900	0.784400
O581	O58	0.237900	0.724400	0.879800
O591	O59	0.347900	0.902800	0.808700
O601	O60	0.422300	0.923000	0.722700
O611	O61	0.381500	0.710300	0.687000
O621	O62	0.377800	0.631200	0.562700
O631	O63	0.276600	0.489100	0.575300
O641	O64	0.186400	0.315300	0.560100
O651	O65	0.184400	0.381900	0.689800
O661	O66	0.067200	0.319800	0.726700
O671	O67	0.103200	0.507700	0.807500
O681	O68	0.116300	0.714400	0.778800
O691	O69	0.207400	0.860800	0.780300
O701	O70	0.283300	0.849200	0.676500
O711	O71	0.257900	0.698300	0.589100
O721	O72	0.147400	0.513900	0.586400
O731	O73	0.077700	0.515800	0.674400
O741	O74	0.178200	0.703100	0.677500
O751	O75	0.065200	0.920300	0.727900
O761	O76	0.143100	0.889200	0.643400
O771	O77	0.203000	0.897900	0.544100
O781	O78	0.112300	0.741100	0.545200
O791	O79	0.040300	0.747300	0.646500
O801	O80	0.967900	0.457000	0.538000
O811	O81	0.933500	0.579700	0.592900
O821	O82	0.824400	0.603500	0.680900
O831	O83	0.632600	0.698900	0.889600
O841	O84	0.315300	0.378200	0.480300
Na21	Na2	0.593000	0.755500	0.979400
K31	K3	0.190610	0.262900	0.431800
K41	K4	0.528370	0.631500	0.761450
Ge21	Ge2	0.244970	0.628500	0.733050
Y21	Y2	0.046650	0.610490	0.573730
W121	W12	0.413730	0.650860	0.868900
W131	W13	0.376950	0.427230	0.745690
W141	W14	0.284790	0.438710	0.869890
W151	W15	0.161520	0.624900	0.852980
W161	W16	0.288360	0.835490	0.852120
W171	W17	0.369930	0.828540	0.739600
W181	W18	0.337340	0.605570	0.620070
W191	W19	0.215830	0.420350	0.616640
W201	W20	0.125290	0.426140	0.738480
W211	W21	0.110610	0.818110	0.708310
W221	W22	0.191340	0.802780	0.597130
Rb31	Rb3	0.970960	0.618380	0.731360
Rb41	Rb4	0.326910	0.841380	0.510140
C51	C5	0.925700	0.009400	0.067200
C61	C6	0.866500	0.080300	0.071700
H71	H7	0.856600	0.134400	0.037800
H81	H8	0.881200	0.112200	0.115700
H91	H9	0.824500	0.038900	0.064400
O851	O85	0.494700	0.871000	0.433500
O861	O86	0.444700	0.161800	0.272200
O871	O87	0.324600	0.143400	0.436800
O881	O88	0.351100	0.944500	0.390500
O891	O89	0.416500	0.953400	0.303300
O901	O90	0.327400	0.099600	0.305700
O911	O91	0.230200	0.974900	0.409200
O921	O92	0.376900	0.737700	0.407600
O931	O93	0.442800	0.745700	0.318000
O941	O94	0.402600	0.995300	0.177200
O951	O95	0.310000	0.147600	0.176200
O961	O96	0.203600	0.137000	0.321900
O971	O97	0.312100	0.789700	0.285800
O981	O98	0.284200	0.956000	0.191100
O991	O99	0.213500	0.949100	0.284400
O1001	O100	0.237900	0.775600	0.379800
O1011	O101	0.347900	0.597200	0.308700
O1021	O102	0.422300	0.577000	0.222700
O1031	O103	0.381500	0.789700	0.187000
O1041	O104	0.377800	0.868800	0.062700
O1051	O105	0.276600	0.010900	0.075300
O1061	O106	0.186400	0.184700	0.060100
O1071	O107	0.184400	0.118100	0.189800
O1081	O108	0.067200	0.180200	0.226700
O1091	O109	0.103200	0.992300	0.307500
O1101	O110	0.116300	0.785600	0.278800
O1111	O111	0.207400	0.639200	0.280300
O1121	O112	0.283300	0.650800	0.176500
O1131	O113	0.257900	0.801700	0.089100
O1141	O114	0.147400	0.986100	0.086400
O1151	O115	0.077700	0.984200	0.174400
O1161	O116	0.178200	0.796900	0.177500
O1171	O117	0.065200	0.579700	0.227900
O1181	O118	0.143100	0.610800	0.143400
O1191	O119	0.203000	0.602100	0.044100
O1201	O120	0.112300	0.758900	0.045200
O1211	O121	0.040300	0.752700	0.146500
O1221	O122	0.967900	0.043000	0.038000
O1231	O123	0.933500	0.920300	0.092900
O1241	O124	0.824400	0.896500	0.180900
O1251	O125	0.632600	0.801100	0.389600
O1261	O126	0.315300	0.121800	0.980300
Na31	Na3	0.593000	0.744500	0.479400
K51	K5	0.190610	0.237100	0.931800
K61	K6	0.528370	0.868500	0.261450
Ge31	Ge3	0.244970	0.871500	0.233050
Y31	Y3	0.046650	0.889510	0.073730
W231	W23	0.413730	0.849140	0.368900
W241	W24	0.376950	0.072770	0.245690
W251	W25	0.284790	0.061290	0.369890
W261	W26	0.161520	0.875100	0.352980
W271	W27	0.288360	0.664510	0.352120
W281	W28	0.369930	0.671460	0.239600
W291	W29	0.337340	0.894430	0.120070
W301	W30	0.215830	0.079650	0.116640
W311	W31	0.125290	0.073860	0.238480
W321	W32	0.110610	0.681890	0.208310
W331	W33	0.191340	0.697220	0.097130
Rb51	Rb5	0.970960	0.881620	0.231360
Rb61	Rb6	0.326910	0.658620	0.010140
C71	C7	0.074300	0.509400	0.432800
C81	C8	0.133500	0.580300	0.428300
H101	H10	0.143400	0.634400	0.462200
H111	H11	0.118800	0.612200	0.384300
H121	H12	0.175500	0.538900	0.435600
O1271	O127	0.505300	0.371000	0.066500
O1281	O128	0.555300	0.661800	0.227800
O1291	O129	0.675400	0.643400	0.063200
O1301	O130	0.648900	0.444500	0.109500
O1311	O131	0.583500	0.453400	0.196700
O1321	O132	0.672600	0.599600	0.194300
O1331	O133	0.769800	0.474900	0.090800
O1341	O134	0.623100	0.237700	0.092400
O1351	O135	0.557200	0.245700	0.182000
O1361	O136	0.597400	0.495300	0.322800
O1371	O137	0.690000	0.647600	0.323800
O1381	O138	0.796400	0.637000	0.178100
O1391	O139	0.687900	0.289700	0.214200
O1401	O140	0.715800	0.456000	0.308900
O1411	O141	0.786500	0.449100	0.215600
O1421	O142	0.762100	0.275600	0.120200
O1431	O143	0.652100	0.097200	0.191300
O1441	O144	0.577700	0.077000	0.277300
O1451	O145	0.618500	0.289700	0.313000
O1461	O146	0.622200	0.368800	0.437300
O1471	O147	0.723400	0.510900	0.424700
O1481	O148	0.813600	0.684700	0.439900
O1491	O149	0.815600	0.618100	0.310200
O1501	O150	0.932800	0.680200	0.273300
O1511	O151	0.896800	0.492300	0.192500
O1521	O152	0.883700	0.285600	0.221200
O1531	O153	0.792600	0.139200	0.219700
O1541	O154	0.716700	0.150800	0.323500
O1551	O155	0.742100	0.301700	0.410900
O1561	O156	0.852600	0.486100	0.413600
O1571	O157	0.922300	0.484200	0.325600
O1581	O158	0.821800	0.296900	0.322500
O1591	O159	0.934800	0.079700	0.272100
O1601	O160	0.856900	0.110800	0.356600
O1611	O161	0.797000	0.102100	0.455900
O1621	O162	0.887700	0.258900	0.454800
O1631	O163	0.959700	0.252700	0.353500
O1641	O164	0.032100	0.543000	0.462000
O1651	O165	0.066500	0.420300	0.407100
O1661	O166	0.175600	0.396500	0.319100
O1671	O167	0.367400	0.301100	0.110400
O1681	O168	0.684700	0.621800	0.519700
Na41	Na4	0.407000	0.244500	0.020600
K71	K7	0.809390	0.737100	0.568200
K81	K8	0.471630	0.368500	0.238550
Ge41	Ge4	0.755030	0.371500	0.266950
Y41	Y4	0.953350	0.389510	0.426270
W341	W34	0.586270	0.349140	0.131100
W351	W35	0.623050	0.572770	0.254310
W361	W36	0.715210	0.561290	0.130110
W371	W37	0.838480	0.375100	0.147020
W381	W38	0.711640	0.164510	0.147880
W391	W39	0.630070	0.171460	0.260400
W401	W40	0.662660	0.394430	0.379930
W411	W41	0.784170	0.579650	0.383360
W421	W42	0.874710	0.573860	0.261520
W431	W43	0.889390	0.181890	0.291690
W441	W44	0.808660	0.197220	0.402870
Rb71	Rb7	0.029040	0.381620	0.268640
Rb81	Rb8	0.673090	0.158620	0.489860
