data_IROVES_clean_PM
_symmetry_space_group_name_H-M	'P1'
_cell_length_a	5.221000
_cell_length_b	12.860000
_cell_length_c	14.561000
_cell_angle_alpha	64.701000
_cell_angle_beta	87.327000
_cell_angle_gamma	89.894000
_symmetry_Int_Tables_number 1

loop_
_symmetry_equiv_pos_as_xyz
'x,y,z'

loop_
_atom_site_label
_atom_site_type_symbol
_atom_site_fract_x
_atom_site_fract_y
_atom_site_fract_z
U11	U1	0.167330	0.716300	0.419450
P11	P1	0.357500	0.453600	0.409300
P21	P2	0.483300	0.934900	0.185900
O11	O1	0.302000	0.006400	0.102300
O21	O2	0.731000	0.906300	0.141600
O31	O3	0.384000	0.582900	0.375900
O41	O4	0.451000	0.853500	0.439800
P31	P3	0.677900	0.935000	0.376100
O51	O5	0.609000	0.393500	0.435500
O61	O6	0.899000	0.865100	0.364900
O71	O7	0.160000	0.402500	0.497000
C11	C1	0.219000	0.436600	0.301500
H11	H1	0.063500	0.480700	0.283500
H21	H2	0.339700	0.467600	0.243100
Zn11	Zn1	0.346200	0.845300	0.576100
P41	P4	0.145600	0.288700	0.330700
O81	O8	0.359000	0.825100	0.261100
O91	O9	0.974000	0.240700	0.425400
O101	O10	0.385000	0.223800	0.333000
O111	O11	0.751000	0.010800	0.426100
O121	O12	0.978000	0.294400	0.236800
C21	C2	0.563000	0.021200	0.249600
H31	H3	0.412600	0.062600	0.255800
H41	H4	0.694600	0.077300	0.209200
U21	U2	0.832670	0.283700	0.580550
P51	P5	0.642500	0.546400	0.590700
P61	P6	0.516700	0.065100	0.814100
O131	O13	0.698000	0.993600	0.897700
O141	O14	0.269000	0.093700	0.858400
O151	O15	0.616000	0.417100	0.624100
O161	O16	0.549000	0.146500	0.560200
P71	P7	0.322100	0.065000	0.623900
O171	O17	0.391000	0.606500	0.564500
O181	O18	0.101000	0.134900	0.635100
O191	O19	0.840000	0.597500	0.503000
C31	C3	0.781000	0.563400	0.698500
H51	H5	0.936500	0.519300	0.716500
H61	H6	0.660300	0.532400	0.756900
Zn21	Zn2	0.653800	0.154700	0.423900
P81	P8	0.854400	0.711300	0.669300
O201	O20	0.641000	0.174900	0.738900
O211	O21	0.026000	0.759300	0.574600
O221	O22	0.615000	0.776200	0.667000
O231	O23	0.249000	0.989200	0.573900
O241	O24	0.022000	0.705600	0.763200
C41	C4	0.437000	0.978800	0.750400
H71	H7	0.587400	0.937400	0.744200
H81	H8	0.305400	0.922700	0.790800
U31	U3	0.000000	0.000000	0.000000
