data_ISIKIF_clean_PM
_symmetry_space_group_name_H-M	'P1'
_cell_length_a	13.205200
_cell_length_b	14.120800
_cell_length_c	14.566100
_cell_angle_alpha	90.000000
_cell_angle_beta	114.031000
_cell_angle_gamma	90.000000
_symmetry_Int_Tables_number 1

loop_
_symmetry_equiv_pos_as_xyz
'x,y,z'

loop_
_atom_site_label
_atom_site_type_symbol
_atom_site_fract_x
_atom_site_fract_y
_atom_site_fract_z
Co11	Co1	0.482200	0.602080	0.738930
Co21	Co2	0.662390	0.733070	0.924670
Co31	Co3	0.017800	0.102080	0.761070
Co41	Co4	0.837610	0.233070	0.575330
H11	H1	0.805300	0.452600	0.060000
H21	H2	0.971400	0.185800	0.150300
H31	H3	0.074300	0.253800	0.177800
H41	H4	0.245500	0.419700	0.456700
H51	H5	0.761200	0.397400	0.776300
H61	H6	0.045300	0.215700	0.476700
H71	H7	0.962900	0.235300	0.001900
H81	H8	0.064100	0.172800	0.320700
H91	H9	0.961100	0.237300	0.304900
H101	H10	0.245900	0.355300	0.724200
H111	H11	0.694700	0.952600	0.440000
H121	H12	0.528600	0.685800	0.349700
H131	H13	0.425700	0.753800	0.322200
H141	H14	0.254500	0.919700	0.043300
H151	H15	0.738800	0.897400	0.723700
H161	H16	0.454700	0.715700	0.023300
H171	H17	0.537100	0.735300	0.498100
H181	H18	0.435900	0.672800	0.179300
H191	H19	0.538900	0.737300	0.195100
H201	H20	0.254100	0.855300	0.775800
C11	C1	0.819600	0.416000	0.013600
C21	C2	0.006000	0.243000	0.186300
C31	C3	0.695700	0.523100	0.876300
C41	C4	0.218500	0.383800	0.495400
C51	C5	0.794400	0.383800	0.844700
C61	C6	0.099100	0.261600	0.507100
C71	C7	0.770900	0.440100	0.912000
C81	C8	0.866200	0.308400	0.877900
C91	C9	0.138700	0.315900	0.449800
C101	C10	0.888900	0.338400	0.046300
C111	C11	0.913900	0.285900	0.979400
C121	C12	0.029600	0.233500	0.295400
C131	C13	0.259300	0.399400	0.598200
C141	C14	0.140000	0.275800	0.609900
C151	C15	0.219500	0.345300	0.655300
C161	C16	0.343400	0.473600	0.645900
C171	C17	0.097000	0.218700	0.671100
C181	C18	0.896800	0.252100	0.806600
C191	C19	0.680400	0.916000	0.486400
C201	C20	0.494000	0.743000	0.313700
C211	C21	0.804300	0.023100	0.623700
C221	C22	0.281500	0.883800	0.004600
C231	C23	0.705600	0.883800	0.655300
C241	C24	0.400900	0.761600	0.992900
C251	C25	0.729100	0.940100	0.588000
C261	C26	0.633800	0.808400	0.622100
C271	C27	0.361300	0.815900	0.050200
C281	C28	0.611100	0.838400	0.453700
C291	C29	0.586100	0.785900	0.520600
C301	C30	0.470400	0.733500	0.204600
C311	C31	0.240700	0.899400	0.901800
C321	C32	0.360000	0.775800	0.890100
C331	C33	0.280500	0.845300	0.844700
C341	C34	0.156600	0.973600	0.854100
C351	C35	0.403000	0.718700	0.828900
C361	C36	0.603200	0.752100	0.693400
O11	O1	0.102500	0.309000	0.348200
O21	O2	0.717800	0.594700	0.932400
O31	O3	0.932300	0.322700	0.148900
O41	O4	0.614400	0.516600	0.791400
O51	O5	0.363800	0.501200	0.731800
O61	O6	0.398000	0.508500	0.601700
O71	O7	0.151700	0.209100	0.764300
O81	O8	0.004900	0.174600	0.631100
O91	O9	0.845800	0.266300	0.715600
O101	O10	0.974100	0.192300	0.842500
O111	O11	0.397500	0.809000	0.151800
O121	O12	0.782200	0.094700	0.567600
O131	O13	0.567700	0.822700	0.351100
O141	O14	0.885600	0.016600	0.708600
O151	O15	0.136200	0.001200	0.768200
O161	O16	0.102000	0.008500	0.898300
O171	O17	0.348300	0.709100	0.735700
O181	O18	0.495100	0.674600	0.868900
O191	O19	0.654200	0.766300	0.784400
O201	O20	0.525900	0.692300	0.657500
Co51	Co5	0.517800	0.397920	0.261070
Co61	Co6	0.337610	0.266930	0.075330
Co71	Co7	0.982200	0.897920	0.238930
Co81	Co8	0.162390	0.766930	0.424670
H211	H21	0.194700	0.547400	0.940000
H221	H22	0.028600	0.814200	0.849700
H231	H23	0.925700	0.746200	0.822200
H241	H24	0.754500	0.580300	0.543300
H251	H25	0.238800	0.602600	0.223700
H261	H26	0.954700	0.784300	0.523300
H271	H27	0.037100	0.764700	0.998100
H281	H28	0.935900	0.827200	0.679300
H291	H29	0.038900	0.762700	0.695100
H301	H30	0.754100	0.644700	0.275800
H311	H31	0.305300	0.047400	0.560000
H321	H32	0.471400	0.314200	0.650300
H331	H33	0.574300	0.246200	0.677800
H341	H34	0.745500	0.080300	0.956700
H351	H35	0.261200	0.102600	0.276300
H361	H36	0.545300	0.284300	0.976700
H371	H37	0.462900	0.264700	0.501900
H381	H38	0.564100	0.327200	0.820700
H391	H39	0.461100	0.262700	0.804900
H401	H40	0.745900	0.144700	0.224200
C371	C37	0.180400	0.584000	0.986400
C381	C38	0.994000	0.757000	0.813700
C391	C39	0.304300	0.476900	0.123700
C401	C40	0.781500	0.616200	0.504600
C411	C41	0.205600	0.616200	0.155300
C421	C42	0.900900	0.738400	0.492900
C431	C43	0.229100	0.559900	0.088000
C441	C44	0.133800	0.691600	0.122100
C451	C45	0.861300	0.684100	0.550200
C461	C46	0.111100	0.661600	0.953700
C471	C47	0.086100	0.714100	0.020600
C481	C48	0.970400	0.766500	0.704600
C491	C49	0.740700	0.600600	0.401800
C501	C50	0.860000	0.724200	0.390100
C511	C51	0.780500	0.654700	0.344700
C521	C52	0.656600	0.526400	0.354100
C531	C53	0.903000	0.781300	0.328900
C541	C54	0.103200	0.747900	0.193400
C551	C55	0.319600	0.084000	0.513600
C561	C56	0.506000	0.257000	0.686300
C571	C57	0.195700	0.976900	0.376300
C581	C58	0.718500	0.116200	0.995400
C591	C59	0.294400	0.116200	0.344700
C601	C60	0.599100	0.238400	0.007100
C611	C61	0.270900	0.059900	0.412000
C621	C62	0.366200	0.191600	0.377900
C631	C63	0.638700	0.184100	0.949800
C641	C64	0.388900	0.161600	0.546300
C651	C65	0.413900	0.214100	0.479400
C661	C66	0.529600	0.266500	0.795400
C671	C67	0.759300	0.100600	0.098200
C681	C68	0.640000	0.224200	0.109900
C691	C69	0.719500	0.154700	0.155300
C701	C70	0.843400	0.026400	0.145900
C711	C71	0.597000	0.281300	0.171100
C721	C72	0.396800	0.247900	0.306600
O211	O21	0.897500	0.691000	0.651800
O221	O22	0.282200	0.405300	0.067600
O231	O23	0.067700	0.677300	0.851100
O241	O24	0.385600	0.483400	0.208600
O251	O25	0.636200	0.498800	0.268200
O261	O26	0.602000	0.491500	0.398300
O271	O27	0.848300	0.790900	0.235700
O281	O28	0.995100	0.825400	0.368900
O291	O29	0.154200	0.733700	0.284400
O301	O30	0.025900	0.807700	0.157500
O311	O31	0.602500	0.191000	0.848200
O321	O32	0.217800	0.905300	0.432400
O331	O33	0.432300	0.177300	0.648900
O341	O34	0.114400	0.983400	0.291400
O351	O35	0.863800	0.998800	0.231800
O361	O36	0.898000	0.991500	0.101700
O371	O37	0.651700	0.290900	0.264300
O381	O38	0.504900	0.325400	0.131100
O391	O39	0.345800	0.233700	0.215600
O401	O40	0.474100	0.307700	0.342500
