data_ISISUZ_clean_PM
_symmetry_space_group_name_H-M	'P1'
_cell_length_a	8.407000
_cell_length_b	10.280000
_cell_length_c	17.655000
_cell_angle_alpha	90.000000
_cell_angle_beta	102.800000
_cell_angle_gamma	90.000000
_symmetry_Int_Tables_number 1

loop_
_symmetry_equiv_pos_as_xyz
'x,y,z'

loop_
_atom_site_label
_atom_site_type_symbol
_atom_site_fract_x
_atom_site_fract_y
_atom_site_fract_z
N11	N1	0.166600	0.572900	0.451000
O11	O1	0.469800	0.285500	0.443750
O21	O2	0.420100	0.391500	0.541830
C11	C1	0.484800	0.293700	0.516000
C21	C2	0.962500	0.731300	0.405200
H11	H1	0.893000	0.771400	0.363400
C31	C3	0.165100	0.608300	0.524000
H21	H2	0.233500	0.565200	0.564900
C41	C4	0.066300	0.705700	0.540600
H31	H3	0.069400	0.728600	0.591800
C51	C5	0.576700	0.195300	0.569700
C61	C6	0.587600	0.204700	0.649100
H41	H4	0.535800	0.272000	0.669400
Cu11	Cu1	0.825660	0.057180	0.931930
O31	O3	0.790600	0.036000	0.823360
O41	O4	0.619900	0.203200	0.813070
C71	C7	0.693700	0.121100	0.783900
C81	C8	0.753600	0.012900	0.666500
H51	H5	0.813300	0.951100	0.699500
N21	N2	0.825200	0.899000	0.561300
C91	C9	0.064900	0.634600	0.392700
H61	H6	0.064200	0.610500	0.341900
C101	C10	0.652700	0.095100	0.537500
H71	H7	0.642900	0.089400	0.484100
C111	C11	0.676900	0.112300	0.697600
O51	O5	0.812500	0.959200	0.436780
C121	C12	0.858900	0.884900	0.490900
C131	C13	0.743500	0.003800	0.587600
C141	C14	0.962300	0.769600	0.480400
H81	H8	0.860000	0.845000	0.592000
N31	N3	0.666600	0.927100	0.951000
O61	O6	0.969800	0.214500	0.943750
O71	O7	0.920100	0.108500	0.041830
C151	C15	0.984800	0.206300	0.016000
C161	C16	0.462500	0.768700	0.905200
H91	H9	0.393000	0.728600	0.863400
C171	C17	0.665100	0.891700	0.024000
H101	H10	0.733500	0.934800	0.064900
C181	C18	0.566300	0.794300	0.040600
H111	H11	0.569400	0.771400	0.091800
C191	C19	0.076700	0.304700	0.069700
C201	C20	0.087600	0.295300	0.149100
H121	H12	0.035800	0.228000	0.169400
Cu21	Cu2	0.325660	0.442820	0.431930
O81	O8	0.290600	0.464000	0.323360
O91	O9	0.119900	0.296800	0.313070
C211	C21	0.193700	0.378900	0.283900
C221	C22	0.253600	0.487100	0.166500
H131	H13	0.313300	0.548900	0.199500
N41	N4	0.325200	0.601000	0.061300
C231	C23	0.564900	0.865400	0.892700
H141	H14	0.564200	0.889500	0.841900
C241	C24	0.152700	0.404900	0.037500
H151	H15	0.142900	0.410600	0.984100
C251	C25	0.176900	0.387700	0.197600
O101	O10	0.312500	0.540800	0.936780
C261	C26	0.358900	0.615100	0.990900
C271	C27	0.243500	0.496200	0.087600
C281	C28	0.462300	0.730400	0.980400
H161	H16	0.360000	0.655000	0.092000
N51	N5	0.333400	0.072900	0.049000
O111	O11	0.030200	0.785500	0.056250
O121	O12	0.079900	0.891500	0.958170
C291	C29	0.015200	0.793700	0.984000
C301	C30	0.537500	0.231300	0.094800
H171	H17	0.607000	0.271400	0.136600
C311	C31	0.334900	0.108300	0.976000
H181	H18	0.266500	0.065200	0.935100
C321	C32	0.433700	0.205700	0.959400
H191	H19	0.430600	0.228600	0.908200
C331	C33	0.923300	0.695300	0.930300
C341	C34	0.912400	0.704700	0.850900
H201	H20	0.964200	0.772000	0.830600
Cu31	Cu3	0.674340	0.557180	0.568070
O131	O13	0.709400	0.536000	0.676640
O141	O14	0.880100	0.703200	0.686930
C351	C35	0.806300	0.621100	0.716100
C361	C36	0.746400	0.512900	0.833500
H211	H21	0.686700	0.451100	0.800500
N61	N6	0.674800	0.399000	0.938700
C371	C37	0.435100	0.134600	0.107300
H221	H22	0.435800	0.110500	0.158100
C381	C38	0.847300	0.595100	0.962500
H231	H23	0.857100	0.589400	0.015900
C391	C39	0.823100	0.612300	0.802400
O151	O15	0.687500	0.459200	0.063220
C401	C40	0.641100	0.384900	0.009100
C411	C41	0.756500	0.503800	0.912400
C421	C42	0.537700	0.269600	0.019600
H241	H24	0.640000	0.345000	0.908000
N71	N7	0.833400	0.427100	0.549000
O161	O16	0.530200	0.714500	0.556250
O171	O17	0.579900	0.608500	0.458170
C431	C43	0.515200	0.706300	0.484000
C441	C44	0.037500	0.268700	0.594800
H251	H25	0.107000	0.228600	0.636600
C451	C45	0.834900	0.391700	0.476000
H261	H26	0.766500	0.434800	0.435100
C461	C46	0.933700	0.294300	0.459400
H271	H27	0.930600	0.271400	0.408200
C471	C47	0.423300	0.804700	0.430300
C481	C48	0.412400	0.795300	0.350900
H281	H28	0.464200	0.728000	0.330600
Cu41	Cu4	0.174340	0.942820	0.068070
O181	O18	0.209400	0.964000	0.176640
O191	O19	0.380100	0.796800	0.186930
C491	C49	0.306300	0.878900	0.216100
C501	C50	0.246400	0.987100	0.333500
H291	H29	0.186700	0.048900	0.300500
N81	N8	0.174800	0.101000	0.438700
C511	C51	0.935100	0.365400	0.607300
H301	H30	0.935800	0.389500	0.658100
C521	C52	0.347300	0.904900	0.462500
H311	H31	0.357100	0.910600	0.515900
C531	C53	0.323100	0.887700	0.302400
O201	O20	0.187500	0.040800	0.563220
C541	C54	0.141100	0.115100	0.509100
C551	C55	0.256500	0.996200	0.412400
C561	C56	0.037700	0.230400	0.519600
H321	H32	0.140000	0.155000	0.408000
