data_ISIYOZ01_clean_PM
_symmetry_space_group_name_H-M	'P1'
_cell_length_a	18.126600
_cell_length_b	13.361100
_cell_length_c	8.579100
_cell_angle_alpha	90.000000
_cell_angle_beta	90.000000
_cell_angle_gamma	90.000000
_symmetry_Int_Tables_number 1

loop_
_symmetry_equiv_pos_as_xyz
'x,y,z'

loop_
_atom_site_label
_atom_site_type_symbol
_atom_site_fract_x
_atom_site_fract_y
_atom_site_fract_z
Er11	Er1	0.600930	0.374680	0.253000
Er21	Er2	0.393680	0.124620	0.752750
O11	O1	0.563100	0.299200	0.479400
O21	O2	0.494700	0.210100	0.644200
O31	O3	0.648400	0.204500	0.247900
O41	O4	0.648100	0.040500	0.291900
O51	O5	0.700100	0.385800	0.420800
O61	O6	0.792100	0.382600	0.569700
O71	O7	0.703700	0.365200	0.085900
O81	O8	0.794100	0.369500	0.922100
O91	O9	0.647800	0.540500	0.248400
O101	O10	0.648000	0.705800	0.209000
O111	O11	0.503000	0.470100	0.330400
O121	O12	0.435700	0.549100	0.507200
O131	O13	0.504500	0.280500	0.144000
O141	O14	0.427000	0.209800	0.974000
O151	O15	0.497100	0.037500	0.843500
O161	O16	0.570600	0.966600	0.017000
C11	C1	0.508600	0.248400	0.522800
H11	H1	0.472800	0.239100	0.446500
C21	C2	0.617200	0.129400	0.265000
H21	H2	0.566000	0.131400	0.258300
C31	C3	0.735600	0.356100	0.526600
H31	H3	0.714700	0.303800	0.582900
C41	C4	0.732400	0.394700	0.967000
H41	H4	0.706000	0.439400	0.905400
C51	C5	0.617100	0.630000	0.212700
H51	H5	0.567000	0.630600	0.189200
C61	C6	0.490300	0.508100	0.469200
H61	H6	0.527400	0.502200	0.543400
C71	C7	0.489400	0.246300	0.021300
H71	H7	0.527500	0.245500	0.948600
C81	C8	0.512700	0.999900	0.977600
H81	H8	0.475000	0.998800	0.051000
Er31	Er3	0.399070	0.625320	0.753000
Er41	Er4	0.606320	0.875380	0.252750
O171	O17	0.436900	0.700800	0.979400
O181	O18	0.505300	0.789900	0.144200
O191	O19	0.351600	0.795500	0.747900
O201	O20	0.351900	0.959500	0.791900
O211	O21	0.299900	0.614200	0.920800
O221	O22	0.207900	0.617400	0.069700
O231	O23	0.296300	0.634800	0.585900
O241	O24	0.205900	0.630500	0.422100
O251	O25	0.352200	0.459500	0.748400
O261	O26	0.352000	0.294200	0.709000
O271	O27	0.497000	0.529900	0.830400
O281	O28	0.564300	0.450900	0.007200
O291	O29	0.495500	0.719500	0.644000
O301	O30	0.573000	0.790200	0.474000
O311	O31	0.502900	0.962500	0.343500
O321	O32	0.429400	0.033400	0.517000
C91	C9	0.491400	0.751600	0.022800
H91	H9	0.527200	0.760900	0.946500
C101	C10	0.382800	0.870600	0.765000
H101	H10	0.434000	0.868600	0.758300
C111	C11	0.264400	0.643900	0.026600
H111	H11	0.285300	0.696200	0.082900
C121	C12	0.267600	0.605300	0.467000
H121	H12	0.294000	0.560600	0.405400
C131	C13	0.382900	0.370000	0.712700
H131	H13	0.433000	0.369400	0.689200
C141	C14	0.509700	0.491900	0.969200
H141	H14	0.472600	0.497800	0.043400
C151	C15	0.510600	0.753700	0.521300
H151	H15	0.472500	0.754500	0.448600
C161	C16	0.487300	0.000100	0.477600
H161	H16	0.525000	0.001200	0.551000
Er51	Er5	0.100930	0.125320	0.253000
Er61	Er6	0.893680	0.375380	0.752750
O331	O33	0.063100	0.200800	0.479400
O341	O34	0.994700	0.289900	0.644200
O351	O35	0.148400	0.295500	0.247900
O361	O36	0.148100	0.459500	0.291900
O371	O37	0.200100	0.114200	0.420800
O381	O38	0.292100	0.117400	0.569700
O391	O39	0.203700	0.134800	0.085900
O401	O40	0.294100	0.130500	0.922100
O411	O41	0.147800	0.959500	0.248400
O421	O42	0.148000	0.794200	0.209000
O431	O43	0.003000	0.029900	0.330400
O441	O44	0.935700	0.950900	0.507200
O451	O45	0.004500	0.219500	0.144000
O461	O46	0.927000	0.290200	0.974000
O471	O47	0.997100	0.462500	0.843500
O481	O48	0.070600	0.533400	0.017000
C171	C17	0.008600	0.251600	0.522800
H171	H17	0.972800	0.260900	0.446500
C181	C18	0.117200	0.370600	0.265000
H181	H18	0.066000	0.368600	0.258300
C191	C19	0.235600	0.143900	0.526600
H191	H19	0.214700	0.196200	0.582900
C201	C20	0.232400	0.105300	0.967000
H201	H20	0.206000	0.060600	0.905400
C211	C21	0.117100	0.870000	0.212700
H211	H21	0.067000	0.869400	0.189200
C221	C22	0.990300	0.991900	0.469200
H221	H22	0.027400	0.997800	0.543400
C231	C23	0.989400	0.253700	0.021300
H231	H23	0.027500	0.254500	0.948600
C241	C24	0.012700	0.500100	0.977600
H241	H24	0.975000	0.501200	0.051000
Er71	Er7	0.899070	0.874680	0.753000
Er81	Er8	0.106320	0.624620	0.252750
O491	O49	0.936900	0.799200	0.979400
O501	O50	0.005300	0.710100	0.144200
O511	O51	0.851600	0.704500	0.747900
O521	O52	0.851900	0.540500	0.791900
O531	O53	0.799900	0.885800	0.920800
O541	O54	0.707900	0.882600	0.069700
O551	O55	0.796300	0.865200	0.585900
O561	O56	0.705900	0.869500	0.422100
O571	O57	0.852200	0.040500	0.748400
O581	O58	0.852000	0.205800	0.709000
O591	O59	0.997000	0.970100	0.830400
O601	O60	0.064300	0.049100	0.007200
O611	O61	0.995500	0.780500	0.644000
O621	O62	0.073000	0.709800	0.474000
O631	O63	0.002900	0.537500	0.343500
O641	O64	0.929400	0.466600	0.517000
C251	C25	0.991400	0.748400	0.022800
H251	H25	0.027200	0.739100	0.946500
C261	C26	0.882800	0.629400	0.765000
H261	H26	0.934000	0.631400	0.758300
C271	C27	0.764400	0.856100	0.026600
H271	H27	0.785300	0.803800	0.082900
C281	C28	0.767600	0.894700	0.467000
H281	H28	0.794000	0.939400	0.405400
C291	C29	0.882900	0.130000	0.712700
H291	H29	0.933000	0.130600	0.689200
C301	C30	0.009700	0.008100	0.969200
H301	H30	0.972600	0.002200	0.043400
C311	C31	0.010600	0.746300	0.521300
H311	H31	0.972500	0.745500	0.448600
C321	C32	0.987300	0.499900	0.477600
H321	H32	0.025000	0.498800	0.551000
