data_ISIYOZ_clean_PM
_symmetry_space_group_name_H-M	'P1'
_cell_length_a	18.093900
_cell_length_b	13.311500
_cell_length_c	8.577500
_cell_angle_alpha	90.000000
_cell_angle_beta	90.000000
_cell_angle_gamma	90.000000
_symmetry_Int_Tables_number 1

loop_
_symmetry_equiv_pos_as_xyz
'x,y,z'

loop_
_atom_site_label
_atom_site_type_symbol
_atom_site_fract_x
_atom_site_fract_y
_atom_site_fract_z
Er11	Er1	0.601020	0.374580	0.252640
Er21	Er2	0.393800	0.124910	0.752360
O11	O1	0.563900	0.294100	0.481100
O21	O2	0.497100	0.210800	0.652100
O31	O3	0.648000	0.205700	0.233300
O41	O4	0.647800	0.041500	0.281900
O51	O5	0.703200	0.386400	0.420500
O61	O6	0.795700	0.381100	0.581500
O71	O7	0.701100	0.366000	0.091000
O81	O8	0.791500	0.367800	0.923900
O91	O9	0.647700	0.543300	0.238200
O101	O10	0.647500	0.707600	0.195900
O111	O11	0.503400	0.467100	0.338400
O121	O12	0.434300	0.553200	0.507700
O131	O13	0.501800	0.279800	0.153300
O141	O14	0.427100	0.215900	0.973100
O151	O15	0.497100	0.040600	0.849600
O161	O16	0.571900	0.962800	0.016400
C11	C1	0.510200	0.246800	0.520600
H11	H1	0.473700	0.235700	0.442800
C21	C2	0.615500	0.118600	0.262900
H21	H2	0.563100	0.117500	0.269400
C31	C3	0.732500	0.354200	0.525000
H31	H3	0.707900	0.301200	0.577800
C41	C4	0.733000	0.395200	0.960900
H41	H4	0.707300	0.440500	0.894500
C51	C5	0.616500	0.621700	0.214100
H51	H5	0.564100	0.619800	0.208100
C61	C6	0.493200	0.506900	0.467200
H61	H6	0.532000	0.502800	0.541500
C71	C7	0.488100	0.248600	0.020300
H71	H7	0.527500	0.249600	0.947200
C81	C8	0.510500	0.000900	0.974900
H81	H8	0.471300	0.998300	0.048400
Er31	Er3	0.398980	0.625420	0.752640
Er41	Er4	0.606200	0.875090	0.252360
O171	O17	0.436100	0.705900	0.981100
O181	O18	0.502900	0.789200	0.152100
O191	O19	0.352000	0.794300	0.733300
O201	O20	0.352200	0.958500	0.781900
O211	O21	0.296800	0.613600	0.920500
O221	O22	0.204300	0.618900	0.081500
O231	O23	0.298900	0.634000	0.591000
O241	O24	0.208500	0.632200	0.423900
O251	O25	0.352300	0.456700	0.738200
O261	O26	0.352500	0.292400	0.695900
O271	O27	0.496600	0.532900	0.838400
O281	O28	0.565700	0.446800	0.007700
O291	O29	0.498200	0.720200	0.653300
O301	O30	0.572900	0.784100	0.473100
O311	O31	0.502900	0.959400	0.349600
O321	O32	0.428100	0.037200	0.516400
C91	C9	0.489800	0.753200	0.020600
H91	H9	0.526300	0.764300	0.942800
C101	C10	0.384500	0.881400	0.762900
H101	H10	0.436900	0.882500	0.769400
C111	C11	0.267500	0.645800	0.025000
H111	H11	0.292100	0.698800	0.077800
C121	C12	0.267000	0.604800	0.460900
H121	H12	0.292700	0.559500	0.394500
C131	C13	0.383500	0.378300	0.714100
H131	H13	0.435900	0.380200	0.708100
C141	C14	0.506800	0.493100	0.967200
H141	H14	0.468000	0.497200	0.041500
C151	C15	0.511900	0.751400	0.520300
H151	H15	0.472500	0.750400	0.447200
C161	C16	0.489500	0.999100	0.474900
H161	H16	0.528700	0.001700	0.548400
Er51	Er5	0.101020	0.125420	0.252640
Er61	Er6	0.893800	0.375090	0.752360
O331	O33	0.063900	0.205900	0.481100
O341	O34	0.997100	0.289200	0.652100
O351	O35	0.148000	0.294300	0.233300
O361	O36	0.147800	0.458500	0.281900
O371	O37	0.203200	0.113600	0.420500
O381	O38	0.295700	0.118900	0.581500
O391	O39	0.201100	0.134000	0.091000
O401	O40	0.291500	0.132200	0.923900
O411	O41	0.147700	0.956700	0.238200
O421	O42	0.147500	0.792400	0.195900
O431	O43	0.003400	0.032900	0.338400
O441	O44	0.934300	0.946800	0.507700
O451	O45	0.001800	0.220200	0.153300
O461	O46	0.927100	0.284100	0.973100
O471	O47	0.997100	0.459400	0.849600
O481	O48	0.071900	0.537200	0.016400
C171	C17	0.010200	0.253200	0.520600
H171	H17	0.973700	0.264300	0.442800
C181	C18	0.115500	0.381400	0.262900
H181	H18	0.063100	0.382500	0.269400
C191	C19	0.232500	0.145800	0.525000
H191	H19	0.207900	0.198800	0.577800
C201	C20	0.233000	0.104800	0.960900
H201	H20	0.207300	0.059500	0.894500
C211	C21	0.116500	0.878300	0.214100
H211	H21	0.064100	0.880200	0.208100
C221	C22	0.993200	0.993100	0.467200
H221	H22	0.032000	0.997200	0.541500
C231	C23	0.988100	0.251400	0.020300
H231	H23	0.027500	0.250400	0.947200
C241	C24	0.010500	0.499100	0.974900
H241	H24	0.971300	0.501700	0.048400
Er71	Er7	0.898980	0.874580	0.752640
Er81	Er8	0.106200	0.624910	0.252360
O491	O49	0.936100	0.794100	0.981100
O501	O50	0.002900	0.710800	0.152100
O511	O51	0.852000	0.705700	0.733300
O521	O52	0.852200	0.541500	0.781900
O531	O53	0.796800	0.886400	0.920500
O541	O54	0.704300	0.881100	0.081500
O551	O55	0.798900	0.866000	0.591000
O561	O56	0.708500	0.867800	0.423900
O571	O57	0.852300	0.043300	0.738200
O581	O58	0.852500	0.207600	0.695900
O591	O59	0.996600	0.967100	0.838400
O601	O60	0.065700	0.053200	0.007700
O611	O61	0.998200	0.779800	0.653300
O621	O62	0.072900	0.715900	0.473100
O631	O63	0.002900	0.540600	0.349600
O641	O64	0.928100	0.462800	0.516400
C251	C25	0.989800	0.746800	0.020600
H251	H25	0.026300	0.735700	0.942800
C261	C26	0.884500	0.618600	0.762900
H261	H26	0.936900	0.617500	0.769400
C271	C27	0.767500	0.854200	0.025000
H271	H27	0.792100	0.801200	0.077800
C281	C28	0.767000	0.895200	0.460900
H281	H28	0.792700	0.940500	0.394500
C291	C29	0.883500	0.121700	0.714100
H291	H29	0.935900	0.119800	0.708100
C301	C30	0.006800	0.006900	0.967200
H301	H30	0.968000	0.002800	0.041500
C311	C31	0.011900	0.748600	0.520300
H311	H31	0.972500	0.749600	0.447200
C321	C32	0.989500	0.500900	0.474900
H321	H32	0.028700	0.498300	0.548400
