data_ISUCUV_clean_PM
_symmetry_space_group_name_H-M	'P1'
_cell_length_a	11.218900
_cell_length_b	11.218900
_cell_length_c	21.255000
_cell_angle_alpha	95.738900
_cell_angle_beta	95.738900
_cell_angle_gamma	107.192000
_symmetry_Int_Tables_number 1

loop_
_symmetry_equiv_pos_as_xyz
'x,y,z'

loop_
_atom_site_label
_atom_site_type_symbol
_atom_site_fract_x
_atom_site_fract_y
_atom_site_fract_z
Fe11	Fe1	0.983160	0.500020	0.192410
Fe21	Fe2	0.499980	0.016840	0.307590
Fe31	Fe3	0.016840	0.499980	0.807590
Fe41	Fe4	0.500020	0.983160	0.692410
Fe51	Fe5	0.752960	0.247040	0.250000
Fe61	Fe6	0.247040	0.752960	0.750000
H11	H1	0.007000	0.719200	0.397900
H21	H2	0.031900	0.743100	0.506600
H31	H3	0.954900	0.348700	0.391300
H41	H4	0.904100	0.984300	0.147100
H51	H5	0.938000	0.831000	0.077900
H61	H6	0.011000	0.238000	0.029000
H71	H7	0.481100	0.265900	0.094200
H81	H8	0.342500	0.277500	0.009800
H91	H9	0.713000	0.605400	0.076500
H101	H10	0.280800	0.993000	0.102100
H111	H11	0.256900	0.968100	0.993400
H121	H12	0.651300	0.045100	0.108700
H131	H13	0.015700	0.095900	0.352900
H141	H14	0.169000	0.062000	0.422100
H151	H15	0.762000	0.989000	0.471000
H161	H16	0.734100	0.518900	0.405800
H171	H17	0.722500	0.657500	0.490200
H181	H18	0.394600	0.287000	0.423500
H191	H19	0.993000	0.280800	0.602100
H201	H20	0.968100	0.256900	0.493400
H211	H21	0.045100	0.651300	0.608700
H221	H22	0.095900	0.015700	0.852900
H231	H23	0.062000	0.169000	0.922100
H241	H24	0.989000	0.762000	0.971000
H251	H25	0.518900	0.734100	0.905800
H261	H26	0.657500	0.722500	0.990200
H271	H27	0.287000	0.394600	0.923500
H281	H28	0.719200	0.007000	0.897900
H291	H29	0.743100	0.031900	0.006600
H301	H30	0.348700	0.954900	0.891300
H311	H31	0.984300	0.904100	0.647100
H321	H32	0.831000	0.938000	0.577900
H331	H33	0.238000	0.011000	0.529000
H341	H34	0.265900	0.481100	0.594200
H351	H35	0.277500	0.342500	0.509800
H361	H36	0.605400	0.713000	0.576500
C11	C1	0.966700	0.517500	0.312400
C21	C2	0.977200	0.529400	0.384000
C31	C3	0.001600	0.649600	0.419100
C41	C4	0.017300	0.663700	0.484000
C51	C5	0.012200	0.560400	0.517700
C61	C6	0.970700	0.427500	0.414900
C71	C7	0.923600	0.223200	0.139600
C81	C8	0.952900	0.126900	0.093600
C91	C9	0.931500	0.003700	0.108400
C101	C10	0.950500	0.911500	0.066900
C111	C11	0.993800	0.155600	0.037900
C121	C12	0.988400	0.938400	0.008100
C131	C13	0.704300	0.425100	0.148200
C141	C14	0.612400	0.434400	0.093700
C151	C15	0.499900	0.336700	0.073200
C161	C16	0.416600	0.343400	0.022700
C171	C17	0.443500	0.450900	0.990000
C181	C18	0.639200	0.539600	0.062600
C191	C19	0.482500	0.033300	0.187600
C201	C20	0.470600	0.022800	0.116000
C211	C21	0.350400	0.998400	0.080900
C221	C22	0.336300	0.982700	0.016000
C231	C23	0.439600	0.987800	0.982300
C241	C24	0.572500	0.029300	0.085100
C251	C25	0.776800	0.076400	0.360400
C261	C26	0.873100	0.047100	0.406400
C271	C27	0.996300	0.068500	0.391600
C281	C28	0.088500	0.049500	0.433100
C291	C29	0.844400	0.006200	0.462100
C301	C30	0.061600	0.011600	0.491900
C311	C31	0.574900	0.295700	0.351800
C321	C32	0.565600	0.387600	0.406300
C331	C33	0.663300	0.500100	0.426800
C341	C34	0.656600	0.583400	0.477300
C351	C35	0.549100	0.556500	0.510000
C361	C36	0.460400	0.360800	0.437400
C371	C37	0.033300	0.482500	0.687600
C381	C38	0.022800	0.470600	0.616000
C391	C39	0.998400	0.350400	0.580900
C401	C40	0.982700	0.336300	0.516000
C411	C41	0.987800	0.439600	0.482300
C421	C42	0.029300	0.572500	0.585100
C431	C43	0.076400	0.776800	0.860400
C441	C44	0.047100	0.873100	0.906400
C451	C45	0.068500	0.996300	0.891600
C461	C46	0.049500	0.088500	0.933100
C471	C47	0.006200	0.844400	0.962100
C481	C48	0.011600	0.061600	0.991900
C491	C49	0.295700	0.574900	0.851800
C501	C50	0.387600	0.565600	0.906300
C511	C51	0.500100	0.663300	0.926800
C521	C52	0.583400	0.656600	0.977300
C531	C53	0.556500	0.549100	0.010000
C541	C54	0.360800	0.460400	0.937400
C551	C55	0.517500	0.966700	0.812400
C561	C56	0.529400	0.977200	0.884000
C571	C57	0.649600	0.001600	0.919100
C581	C58	0.663700	0.017300	0.984000
C591	C59	0.560400	0.012200	0.017700
C601	C60	0.427500	0.970700	0.914900
C611	C61	0.223200	0.923600	0.639600
C621	C62	0.126900	0.952900	0.593600
C631	C63	0.003700	0.931500	0.608400
C641	C64	0.911500	0.950500	0.566900
C651	C65	0.155600	0.993800	0.537900
C661	C66	0.938400	0.988400	0.508100
C671	C67	0.425100	0.704300	0.648200
C681	C68	0.434400	0.612400	0.593700
C691	C69	0.336700	0.499900	0.573200
C701	C70	0.343400	0.416600	0.522700
C711	C71	0.450900	0.443500	0.490000
C721	C72	0.539600	0.639200	0.562600
O11	O1	0.006600	0.613000	0.286540
O21	O2	0.922860	0.409140	0.279670
O31	O3	0.961300	0.336100	0.129240
O41	O4	0.863200	0.183200	0.183300
O51	O5	0.808500	0.510300	0.158750
O61	O6	0.670300	0.332100	0.177260
O71	O7	0.387000	0.993400	0.213460
O81	O8	0.590860	0.077140	0.220330
O91	O9	0.663900	0.038700	0.370760
O101	O10	0.816800	0.136800	0.316700
O111	O11	0.489700	0.191500	0.341250
O121	O12	0.667900	0.329700	0.322740
O131	O13	0.993400	0.387000	0.713460
O141	O14	0.077140	0.590860	0.720330
O151	O15	0.038700	0.663900	0.870760
O161	O16	0.136800	0.816800	0.816700
O171	O17	0.191500	0.489700	0.841250
O181	O18	0.329700	0.667900	0.822740
O191	O19	0.613000	0.006600	0.786540
O201	O20	0.409140	0.922860	0.779670
O211	O21	0.336100	0.961300	0.629240
O221	O22	0.183200	0.863200	0.683300
O231	O23	0.510300	0.808500	0.658750
O241	O24	0.332100	0.670300	0.677260
