data_ISUFOS_clean_PM
_symmetry_space_group_name_H-M	'P1'
_cell_length_a	10.998000
_cell_length_b	11.800000
_cell_length_c	12.793000
_cell_angle_alpha	70.090000
_cell_angle_beta	66.740000
_cell_angle_gamma	73.430000
_symmetry_Int_Tables_number 1

loop_
_symmetry_equiv_pos_as_xyz
'x,y,z'

loop_
_atom_site_label
_atom_site_type_symbol
_atom_site_fract_x
_atom_site_fract_y
_atom_site_fract_z
N11	N1	0.200700	0.353100	0.439400
N21	N2	0.367600	0.210500	0.192100
H11	H1	0.403900	0.137600	0.184300
N31	N3	0.113900	0.663800	0.359000
N41	N4	0.465400	0.702600	0.209100
H21	H2	0.509400	0.760400	0.162100
N51	N5	0.928900	0.479700	0.352600
N61	N6	0.826700	0.242000	0.295400
H31	H3	0.823400	0.227200	0.235300
C11	C1	0.237300	0.331300	0.333600
H41	H4	0.194800	0.383800	0.280400
C21	C2	0.335700	0.233800	0.300000
C31	C3	0.397500	0.157700	0.381800
H51	H5	0.464400	0.091600	0.363400
C41	C4	0.359400	0.180400	0.489700
H61	H6	0.400400	0.129800	0.544600
C51	C5	0.260500	0.278000	0.516300
H71	H7	0.234700	0.292100	0.590000
C61	C6	0.341800	0.304300	0.093500
H81	H8	0.246900	0.339400	0.116300
H91	H9	0.361100	0.267000	0.030500
C71	C7	0.422300	0.406300	0.046500
C81	C8	0.362800	0.527900	0.027700
H101	H10	0.270100	0.548600	0.045000
C91	C9	0.561200	0.380400	0.016500
H111	H11	0.604400	0.299200	0.026400
C101	C10	0.248000	0.640200	0.321700
H121	H12	0.290300	0.561400	0.349200
C111	C11	0.328800	0.727700	0.243300
C121	C12	0.262300	0.843500	0.200900
H131	H13	0.311300	0.904300	0.147900
C131	C13	0.126200	0.867600	0.236900
H141	H14	0.081500	0.944400	0.207200
C141	C14	0.053200	0.777000	0.318600
H151	H15	0.959800	0.795800	0.345600
C151	C15	0.538700	0.585100	0.247600
H161	H16	0.633600	0.586200	0.204900
H171	H17	0.513600	0.525700	0.226300
C161	C16	0.518500	0.541500	0.379300
C171	C17	0.500000	0.621300	0.442400
H181	H18	0.500000	0.704000	0.404600
C181	C18	0.518700	0.419100	0.437500
H191	H19	0.531600	0.363100	0.396000
C191	C19	0.887400	0.376900	0.368100
H201	H20	0.870700	0.321700	0.442000
C201	C20	0.867900	0.348500	0.279700
C211	C21	0.891400	0.433900	0.169700
H211	H21	0.880400	0.419000	0.107400
C221	C22	0.931200	0.540100	0.155400
H221	H22	0.945400	0.598900	0.083500
C231	C23	0.949700	0.558900	0.247800
H231	H23	0.978200	0.630600	0.236200
C241	C24	0.789300	0.155000	0.407700
H241	H24	0.739900	0.101700	0.402900
H251	H25	0.728000	0.199300	0.465300
C251	C25	0.900400	0.076100	0.453100
C261	C26	0.868700	0.997600	0.564000
H261	H26	0.778700	0.995400	0.608800
C271	C27	0.035100	0.077000	0.389600
H271	H27	0.060400	0.129100	0.314400
N71	N7	0.799300	0.646900	0.560600
N81	N8	0.632400	0.789500	0.807900
H281	H28	0.596100	0.862400	0.815700
N91	N9	0.886100	0.336200	0.641000
N101	N10	0.534600	0.297400	0.790900
H291	H29	0.490600	0.239600	0.837900
N111	N11	0.071100	0.520300	0.647400
N121	N12	0.173300	0.758000	0.704600
H301	H30	0.176600	0.772800	0.764700
C281	C28	0.762700	0.668700	0.666400
H311	H31	0.805200	0.616200	0.719600
C291	C29	0.664300	0.766200	0.700000
C301	C30	0.602500	0.842300	0.618200
H321	H32	0.535600	0.908400	0.636600
C311	C31	0.640600	0.819600	0.510300
H331	H33	0.599600	0.870200	0.455400
C321	C32	0.739500	0.722000	0.483700
H341	H34	0.765300	0.707900	0.410000
C331	C33	0.658200	0.695700	0.906500
H351	H35	0.753100	0.660600	0.883700
H361	H36	0.638900	0.733000	0.969500
C341	C34	0.577700	0.593700	0.953500
C351	C35	0.637200	0.472100	0.972300
H371	H37	0.729900	0.451400	0.955000
C361	C36	0.438800	0.619600	0.983500
H381	H38	0.395600	0.700800	0.973600
C371	C37	0.752000	0.359800	0.678300
H391	H39	0.709700	0.438600	0.650800
C381	C38	0.671200	0.272300	0.756700
C391	C39	0.737700	0.156500	0.799100
H401	H40	0.688700	0.095700	0.852100
C401	C40	0.873800	0.132400	0.763100
H411	H41	0.918500	0.055600	0.792800
C411	C41	0.946800	0.223000	0.681400
H421	H42	0.040200	0.204200	0.654400
C421	C42	0.461300	0.414900	0.752400
H431	H43	0.366400	0.413800	0.795100
H441	H44	0.486400	0.474300	0.773700
C431	C43	0.481500	0.458500	0.620700
C441	C44	0.500000	0.378700	0.557600
H451	H45	0.500000	0.296000	0.595400
C451	C45	0.481300	0.580900	0.562500
H461	H46	0.468400	0.636900	0.604000
C461	C46	0.112600	0.623100	0.631900
H471	H47	0.129300	0.678300	0.558000
C471	C47	0.132100	0.651500	0.720300
C481	C48	0.108600	0.566100	0.830300
H481	H48	0.119600	0.581000	0.892600
C491	C49	0.068800	0.459900	0.844600
H491	H49	0.054600	0.401100	0.916500
C501	C50	0.050300	0.441100	0.752200
H501	H50	0.021800	0.369400	0.763800
C511	C51	0.210700	0.845000	0.592300
H511	H51	0.260100	0.898300	0.597100
H521	H52	0.272000	0.800700	0.534700
C521	C52	0.099600	0.923900	0.546900
C531	C53	0.131300	0.002400	0.436000
H531	H53	0.221300	0.004600	0.391200
C541	C54	0.964900	0.923000	0.610400
H541	H54	0.939600	0.870900	0.685600
Cd11	Cd1	0.000000	0.500000	0.500000
