data_ITAPAU_clean_PM
_symmetry_space_group_name_H-M	'P1'
_cell_length_a	12.848000
_cell_length_b	13.370000
_cell_length_c	13.967000
_cell_angle_alpha	90.000000
_cell_angle_beta	90.000000
_cell_angle_gamma	90.000000
_symmetry_Int_Tables_number 1

loop_
_symmetry_equiv_pos_as_xyz
'x,y,z'

loop_
_atom_site_label
_atom_site_type_symbol
_atom_site_fract_x
_atom_site_fract_y
_atom_site_fract_z
Cu11	Cu1	0.394720	0.186630	0.636280
Cu21	Cu2	0.548510	0.050780	0.941700
C11	C1	0.463950	0.131690	0.745390
N11	N1	0.494980	0.099730	0.817030
C21	C2	0.456860	0.393500	0.554530
N21	N2	0.426830	0.322220	0.590890
C31	C3	0.276990	0.126840	0.572200
N31	N3	0.195870	0.095340	0.553000
Cu31	Cu3	0.105280	0.813370	0.136280
Cu41	Cu4	0.951490	0.949220	0.441700
C41	C4	0.036050	0.868310	0.245390
N41	N4	0.005020	0.900270	0.317030
C51	C5	0.043140	0.606500	0.054530
N51	N5	0.073170	0.677780	0.090890
C61	C6	0.223010	0.873160	0.072200
N61	N6	0.304130	0.904660	0.053000
Cu51	Cu5	0.605280	0.686630	0.863720
Cu61	Cu6	0.451490	0.550780	0.558300
C71	C7	0.536050	0.631690	0.754610
N71	N7	0.505020	0.599730	0.682970
C81	C8	0.543140	0.893500	0.945470
N81	N8	0.573170	0.822220	0.909110
C91	C9	0.723010	0.626840	0.927800
N91	N9	0.804130	0.595340	0.947000
Cu71	Cu7	0.894720	0.313370	0.363720
Cu81	Cu8	0.048510	0.449220	0.058300
C101	C10	0.963950	0.368310	0.254610
N101	N10	0.994980	0.400270	0.182970
C111	C11	0.956860	0.106500	0.445470
N111	N11	0.926830	0.177780	0.409110
C121	C12	0.776990	0.373160	0.427800
N121	N12	0.695870	0.404660	0.447000
Cu91	Cu9	0.605280	0.813370	0.363720
Cu101	Cu10	0.451490	0.949220	0.058300
C131	C13	0.536050	0.868310	0.254610
N131	N13	0.505020	0.900270	0.182970
C141	C14	0.543140	0.606500	0.445470
N141	N14	0.573170	0.677780	0.409110
C151	C15	0.723010	0.873160	0.427800
N151	N15	0.804130	0.904660	0.447000
Cu111	Cu11	0.894720	0.186630	0.863720
Cu121	Cu12	0.048510	0.050780	0.558300
C161	C16	0.963950	0.131690	0.754610
N161	N16	0.994980	0.099730	0.682970
C171	C17	0.956860	0.393500	0.945470
N171	N17	0.926830	0.322220	0.909110
C181	C18	0.776990	0.126840	0.927800
N181	N18	0.695870	0.095340	0.947000
Cu131	Cu13	0.394720	0.313370	0.136280
Cu141	Cu14	0.548510	0.449220	0.441700
C191	C19	0.463950	0.368310	0.245390
N191	N19	0.494980	0.400270	0.317030
C201	C20	0.456860	0.106500	0.054530
N201	N20	0.426830	0.177780	0.090890
C211	C21	0.276990	0.373160	0.072200
N211	N21	0.195870	0.404660	0.053000
Cu151	Cu15	0.105280	0.686630	0.636280
Cu161	Cu16	0.951490	0.550780	0.941700
C221	C22	0.036050	0.631690	0.745390
N221	N22	0.005020	0.599730	0.817030
C231	C23	0.043140	0.893500	0.554530
N231	N23	0.073170	0.822220	0.590890
C241	C24	0.223010	0.626840	0.572200
N241	N24	0.304130	0.595340	0.553000
