data_ITAPIC_clean_PM
_symmetry_space_group_name_H-M	'P1'
_cell_length_a	16.215000
_cell_length_b	13.977000
_cell_length_c	14.176000
_cell_angle_alpha	90.000000
_cell_angle_beta	114.555000
_cell_angle_gamma	90.000000
_symmetry_Int_Tables_number 1

loop_
_symmetry_equiv_pos_as_xyz
'x,y,z'

loop_
_atom_site_label
_atom_site_type_symbol
_atom_site_fract_x
_atom_site_fract_y
_atom_site_fract_z
Cu11	Cu1	0.146830	0.810200	0.863840
Cu21	Cu2	0.455120	0.954160	0.035510
Cu31	Cu3	0.415630	0.286120	0.121910
Cu41	Cu4	0.148150	0.453860	0.864200
C11	C1	0.256300	0.878800	0.921300
N11	N1	0.326100	0.917400	0.958500
N21	N2	0.149700	0.673100	0.870400
C21	C2	0.150000	0.591200	0.866200
C31	C3	0.470700	0.099300	0.049300
N31	N3	0.451900	0.168900	0.079600
C41	C4	0.244200	0.377300	0.954600
N41	N4	0.303300	0.333700	0.013300
N51	N5	0.501100	0.889000	0.170100
C51	C5	0.528800	0.850700	0.252000
N61	N6	0.961200	0.894100	0.736600
C61	C6	0.030700	0.863000	0.791200
Cu51	Cu5	0.853170	0.310200	0.636160
Cu61	Cu6	0.544880	0.454160	0.464490
Cu71	Cu7	0.584370	0.786120	0.378090
Cu81	Cu8	0.851850	0.953860	0.635800
C71	C7	0.743700	0.378800	0.578700
N71	N7	0.673900	0.417400	0.541500
N81	N8	0.850300	0.173100	0.629600
C81	C8	0.850000	0.091200	0.633800
C91	C9	0.529300	0.599300	0.450700
N91	N9	0.548100	0.668900	0.420400
C101	C10	0.755800	0.877300	0.545400
N101	N10	0.696700	0.833700	0.486700
N111	N11	0.498900	0.389000	0.329900
C111	C11	0.471200	0.350700	0.248000
N121	N12	0.038800	0.394100	0.763400
C121	C12	0.969300	0.363000	0.708800
Cu91	Cu9	0.853170	0.189800	0.136160
Cu101	Cu10	0.544880	0.045840	0.964490
Cu111	Cu11	0.584370	0.713880	0.878090
Cu121	Cu12	0.851850	0.546140	0.135800
C131	C13	0.743700	0.121200	0.078700
N131	N13	0.673900	0.082600	0.041500
N141	N14	0.850300	0.326900	0.129600
C141	C14	0.850000	0.408800	0.133800
C151	C15	0.529300	0.900700	0.950700
N151	N15	0.548100	0.831100	0.920400
C161	C16	0.755800	0.622700	0.045400
N161	N16	0.696700	0.666300	0.986700
N171	N17	0.498900	0.111000	0.829900
C171	C17	0.471200	0.149300	0.748000
N181	N18	0.038800	0.105900	0.263400
C181	C18	0.969300	0.137000	0.208800
Cu131	Cu13	0.146830	0.689800	0.363840
Cu141	Cu14	0.455120	0.545840	0.535510
Cu151	Cu15	0.415630	0.213880	0.621910
Cu161	Cu16	0.148150	0.046140	0.364200
C191	C19	0.256300	0.621200	0.421300
N191	N19	0.326100	0.582600	0.458500
N201	N20	0.149700	0.826900	0.370400
C201	C20	0.150000	0.908800	0.366200
C211	C21	0.470700	0.400700	0.549300
N211	N21	0.451900	0.331100	0.579600
C221	C22	0.244200	0.122700	0.454600
N221	N22	0.303300	0.166300	0.513300
N231	N23	0.501100	0.611000	0.670100
C231	C23	0.528800	0.649300	0.752000
N241	N24	0.961200	0.605900	0.236600
C241	C24	0.030700	0.637000	0.291200
