data_ITETEH_clean_PM
_symmetry_space_group_name_H-M	'P1'
_cell_length_a	8.671600
_cell_length_b	8.671600
_cell_length_c	10.865000
_cell_angle_alpha	90.000000
_cell_angle_beta	90.000000
_cell_angle_gamma	120.000000
_symmetry_Int_Tables_number 1

loop_
_symmetry_equiv_pos_as_xyz
'x,y,z'

loop_
_atom_site_label
_atom_site_type_symbol
_atom_site_fract_x
_atom_site_fract_y
_atom_site_fract_z
Fe11	Fe1	0.941820	0.000000	0.500000
Fe21	Fe2	0.058180	0.058180	0.166670
Fe31	Fe3	0.000000	0.941820	0.833330
H11	H1	0.390800	0.488200	0.490200
H21	H2	0.097400	0.609200	0.156870
H31	H3	0.511800	0.902600	0.823530
H41	H4	0.902600	0.511800	0.509800
H51	H5	0.488200	0.390800	0.843130
H61	H6	0.609200	0.097400	0.176470
C11	C1	0.624600	0.685200	0.562500
C21	C2	0.465100	0.524300	0.560900
C31	C3	0.060600	0.375400	0.229170
C41	C4	0.059200	0.534900	0.227570
C51	C5	0.314800	0.939400	0.895830
C61	C6	0.475700	0.940800	0.894230
C71	C7	0.939400	0.314800	0.437500
C81	C8	0.940800	0.475700	0.439100
C91	C9	0.685200	0.624600	0.770830
C101	C10	0.524300	0.465100	0.772430
C111	C11	0.375400	0.060600	0.104170
C121	C12	0.534900	0.059200	0.105770
C131	C13	0.730600	0.730600	0.666670
C141	C14	0.416400	0.416400	0.666670
C151	C15	0.245300	0.245300	0.666670
C161	C16	0.000000	0.269400	0.333330
C171	C17	0.000000	0.583600	0.333330
C181	C18	0.000000	0.754700	0.333330
C191	C19	0.269400	0.000000	0.000000
C201	C20	0.583600	0.000000	0.000000
C211	C21	0.754700	0.000000	0.000000
O11	O1	0.687100	0.807500	0.470300
O21	O2	0.189100	0.166400	0.564700
O31	O3	0.120400	0.312900	0.136970
O41	O4	0.977300	0.810900	0.231370
O51	O5	0.192500	0.879600	0.803630
O61	O6	0.833600	0.022700	0.898030
O71	O7	0.879600	0.192500	0.529700
O81	O8	0.022700	0.833600	0.435300
O91	O9	0.807500	0.687100	0.863030
O101	O10	0.166400	0.189100	0.768630
O111	O11	0.312900	0.120400	0.196370
O121	O12	0.810900	0.977300	0.101970
O131	O13	0.887400	0.887400	0.666670
O141	O14	0.000000	0.112600	0.333330
O151	O15	0.112600	0.000000	0.000000
