data_ITIBOD_clean_PM
_symmetry_space_group_name_H-M	'P1'
_cell_length_a	11.179000
_cell_length_b	11.179000
_cell_length_c	17.065000
_cell_angle_alpha	81.364300
_cell_angle_beta	81.364300
_cell_angle_gamma	84.917300
_symmetry_Int_Tables_number 1

loop_
_symmetry_equiv_pos_as_xyz
'x,y,z'

loop_
_atom_site_label
_atom_site_type_symbol
_atom_site_fract_x
_atom_site_fract_y
_atom_site_fract_z
Cd11	Cd1	0.322330	0.225890	0.518000
Cd21	Cd2	0.068030	0.429450	0.848970
Cd31	Cd3	0.507280	0.021740	0.119940
Cd41	Cd4	0.774110	0.677670	0.982000
Cd51	Cd5	0.570550	0.931970	0.651030
Cd61	Cd6	0.978260	0.492720	0.380060
Cd71	Cd7	0.677670	0.774110	0.482000
Cd81	Cd8	0.931970	0.570550	0.151030
Cd91	Cd9	0.492720	0.978260	0.880060
Cd101	Cd10	0.225890	0.322330	0.018000
Cd111	Cd11	0.429450	0.068030	0.348970
Cd121	Cd12	0.021740	0.507280	0.619940
Cd131	Cd13	0.834040	0.165960	0.750000
Cd141	Cd14	0.165960	0.834040	0.250000
H11	H1	0.383200	0.481200	0.402800
H21	H2	0.334800	0.521800	0.486500
H31	H3	0.545500	0.331500	0.587700
H41	H4	0.437400	0.428200	0.602800
H51	H5	0.518800	0.616800	0.097200
H61	H6	0.478200	0.665200	0.013500
H71	H7	0.668500	0.454500	0.912300
H81	H8	0.571800	0.562600	0.897200
H91	H9	0.616800	0.518800	0.597200
H101	H10	0.665200	0.478200	0.513500
H111	H11	0.454500	0.668500	0.412300
H121	H12	0.562600	0.571800	0.397200
H131	H13	0.481200	0.383200	0.902800
H141	H14	0.521800	0.334800	0.986500
H151	H15	0.331500	0.545500	0.087700
H161	H16	0.428200	0.437400	0.102800
C11	C1	0.704000	0.215600	0.085500
C21	C2	0.773000	0.196200	0.930900
C31	C3	0.329000	0.185800	0.782800
C41	C4	0.705800	0.173200	0.006000
C51	C5	0.407100	0.495100	0.452900
C61	C6	0.302400	0.216000	0.866700
C71	C7	0.290400	0.227400	0.709100
C81	C8	0.879500	0.267100	0.898300
C91	C9	0.505100	0.405500	0.564000
C101	C10	0.198200	0.323000	0.678100
C111	C11	0.784400	0.296000	0.414500
C121	C12	0.803800	0.227000	0.569100
C131	C13	0.814200	0.671000	0.717200
C141	C14	0.826800	0.294200	0.494000
C151	C15	0.504900	0.592900	0.047100
C161	C16	0.784000	0.697600	0.633300
C171	C17	0.772600	0.709600	0.790900
C181	C18	0.732900	0.120500	0.601700
C191	C19	0.594500	0.494900	0.936000
C201	C20	0.677000	0.801800	0.821900
C211	C21	0.296000	0.784400	0.914500
C221	C22	0.227000	0.803800	0.069100
C231	C23	0.671000	0.814200	0.217200
C241	C24	0.294200	0.826800	0.994000
C251	C25	0.592900	0.504900	0.547100
C261	C26	0.697600	0.784000	0.133300
C271	C27	0.709600	0.772600	0.290900
C281	C28	0.120500	0.732900	0.101700
C291	C29	0.494900	0.594500	0.436000
C301	C30	0.801800	0.677000	0.321900
C311	C31	0.215600	0.704000	0.585500
C321	C32	0.196200	0.773000	0.430900
C331	C33	0.185800	0.329000	0.282800
C341	C34	0.173200	0.705800	0.506000
C351	C35	0.495100	0.407100	0.952900
C361	C36	0.216000	0.302400	0.366700
C371	C37	0.227400	0.290400	0.209100
C381	C38	0.267100	0.879500	0.398300
C391	C39	0.405500	0.505100	0.064000
C401	C40	0.323000	0.198200	0.178100
N11	N1	0.355900	0.163300	0.654600
N21	N2	0.631900	0.080700	0.923500
N31	N3	0.430400	0.084000	0.693800
N41	N4	0.458100	0.381500	0.492200
N51	N5	0.724300	0.138700	0.880700
N61	N6	0.416000	0.096400	0.770200
N71	N7	0.618300	0.100700	0.999200
N81	N8	0.836700	0.644100	0.845400
N91	N9	0.919300	0.368100	0.576500
N101	N10	0.916000	0.569600	0.806200
N111	N11	0.618500	0.541900	0.007800
N121	N12	0.861300	0.275700	0.619300
N131	N13	0.903600	0.584000	0.729800
N141	N14	0.899300	0.381700	0.500800
N151	N15	0.644100	0.836700	0.345400
N161	N16	0.368100	0.919300	0.076500
N171	N17	0.569600	0.916000	0.306200
N181	N18	0.541900	0.618500	0.507800
N191	N19	0.275700	0.861300	0.119300
N201	N20	0.584000	0.903600	0.229800
N211	N21	0.381700	0.899300	0.000800
N221	N22	0.163300	0.355900	0.154600
N231	N23	0.080700	0.631900	0.423500
N241	N24	0.084000	0.430400	0.193800
N251	N25	0.381500	0.458100	0.992200
N261	N26	0.138700	0.724300	0.380700
N271	N27	0.096400	0.416000	0.270200
N281	N28	0.100700	0.618300	0.499200
O11	O1	0.637200	0.160600	0.143200
O21	O2	0.226300	0.300300	0.884200
O31	O3	0.121100	0.378500	0.723100
O41	O4	0.910800	0.283000	0.823400
O51	O5	0.361500	0.155300	0.917100
O61	O6	0.761400	0.304400	0.089300
O71	O7	0.103710	0.486110	0.966230
O81	O8	0.201200	0.345600	0.602900
O91	O9	0.936000	0.311400	0.944000
O101	O10	0.839400	0.362800	0.356800
O111	O11	0.699700	0.773700	0.615800
O121	O12	0.621500	0.878900	0.776900
O131	O13	0.717000	0.089200	0.676600
O141	O14	0.844700	0.638500	0.582900
O151	O15	0.695600	0.238600	0.410700
O161	O16	0.513890	0.896290	0.533770
O171	O17	0.654400	0.798800	0.897100
O181	O18	0.688600	0.064000	0.556000
O191	O19	0.362800	0.839400	0.856800
O201	O20	0.773700	0.699700	0.115800
O211	O21	0.878900	0.621500	0.276900
O221	O22	0.089200	0.717000	0.176600
O231	O23	0.638500	0.844700	0.082900
O241	O24	0.238600	0.695600	0.910700
O251	O25	0.896290	0.513890	0.033770
O261	O26	0.798800	0.654400	0.397100
O271	O27	0.064000	0.688600	0.056000
O281	O28	0.160600	0.637200	0.643200
O291	O29	0.300300	0.226300	0.384200
O301	O30	0.378500	0.121100	0.223100
O311	O31	0.283000	0.910800	0.323400
O321	O32	0.155300	0.361500	0.417100
O331	O33	0.304400	0.761400	0.589300
O341	O34	0.486110	0.103710	0.466230
O351	O35	0.345600	0.201200	0.102900
O361	O36	0.311400	0.936000	0.444000
