data_ITIPAE_clean_PM
_symmetry_space_group_name_H-M	'P1'
_cell_length_a	11.418000
_cell_length_b	10.037000
_cell_length_c	18.546000
_cell_angle_alpha	90.000000
_cell_angle_beta	126.680000
_cell_angle_gamma	90.000000
_symmetry_Int_Tables_number 1

loop_
_symmetry_equiv_pos_as_xyz
'x,y,z'

loop_
_atom_site_label
_atom_site_type_symbol
_atom_site_fract_x
_atom_site_fract_y
_atom_site_fract_z
Zn11	Zn1	0.935380	0.878230	0.694670
Zn21	Zn2	0.876890	0.571080	0.631880
O11	O1	0.712300	0.863200	0.607920
O21	O2	0.667900	0.647020	0.569660
O31	O3	0.946900	0.686910	0.749420
O41	O4	0.059400	0.545400	0.865470
O51	O5	0.958300	0.747870	0.614320
O61	O6	0.988300	0.705000	0.507590
O71	O7	0.836000	0.473900	0.522010
O81	O8	0.607100	0.404900	0.455420
O91	O9	0.843000	0.410990	0.691970
O101	O10	0.603600	0.373200	0.610610
O111	O11	0.084000	0.479800	0.713340
O121	O12	0.175100	0.487500	0.636070
C11	C1	0.630500	0.766100	0.569200
H11	H1	0.530800	0.782300	0.536100
C21	C2	0.012100	0.656600	0.831400
H21	H2	0.025700	0.724700	0.869700
C31	C3	0.983000	0.780800	0.558100
H31	H3	0.998700	0.870800	0.554900
C41	C4	0.722600	0.406300	0.464600
H41	H4	0.728100	0.352600	0.425800
C51	C5	0.730900	0.350600	0.673800
H51	H5	0.746800	0.282000	0.712400
C61	C6	0.184800	0.470000	0.704400
H61	H6	0.276600	0.446800	0.755600
Zn31	Zn3	0.064620	0.378230	0.805330
Zn41	Zn4	0.123110	0.071080	0.868120
O131	O13	0.287700	0.363200	0.892080
O141	O14	0.332100	0.147020	0.930340
O151	O15	0.053100	0.186910	0.750580
O161	O16	0.940600	0.045400	0.634530
O171	O17	0.041700	0.247870	0.885680
O181	O18	0.011700	0.205000	0.992410
O191	O19	0.164000	0.973900	0.977990
O201	O20	0.392900	0.904900	0.044580
O211	O21	0.157000	0.910990	0.808030
O221	O22	0.396400	0.873200	0.889390
O231	O23	0.916000	0.979800	0.786660
O241	O24	0.824900	0.987500	0.863930
C71	C7	0.369500	0.266100	0.930800
H71	H7	0.469200	0.282300	0.963900
C81	C8	0.987900	0.156600	0.668600
H81	H8	0.974300	0.224700	0.630300
C91	C9	0.017000	0.280800	0.941900
H91	H9	0.001300	0.370800	0.945100
C101	C10	0.277400	0.906300	0.035400
H101	H10	0.271900	0.852600	0.074200
C111	C11	0.269100	0.850600	0.826200
H111	H11	0.253200	0.782000	0.787600
C121	C12	0.815200	0.970000	0.795600
H121	H12	0.723400	0.946800	0.744400
Zn51	Zn5	0.064620	0.121770	0.305330
Zn61	Zn6	0.123110	0.428920	0.368120
O251	O25	0.287700	0.136800	0.392080
O261	O26	0.332100	0.352980	0.430340
O271	O27	0.053100	0.313090	0.250580
O281	O28	0.940600	0.454600	0.134530
O291	O29	0.041700	0.252130	0.385680
O301	O30	0.011700	0.295000	0.492410
O311	O31	0.164000	0.526100	0.477990
O321	O32	0.392900	0.595100	0.544580
O331	O33	0.157000	0.589010	0.308030
O341	O34	0.396400	0.626800	0.389390
O351	O35	0.916000	0.520200	0.286660
O361	O36	0.824900	0.512500	0.363930
C131	C13	0.369500	0.233900	0.430800
H131	H13	0.469200	0.217700	0.463900
C141	C14	0.987900	0.343400	0.168600
H141	H14	0.974300	0.275300	0.130300
C151	C15	0.017000	0.219200	0.441900
H151	H15	0.001300	0.129200	0.445100
C161	C16	0.277400	0.593700	0.535400
H161	H16	0.271900	0.647400	0.574200
C171	C17	0.269100	0.649400	0.326200
H171	H17	0.253200	0.718000	0.287600
C181	C18	0.815200	0.530000	0.295600
H181	H18	0.723400	0.553200	0.244400
Zn71	Zn7	0.935380	0.621770	0.194670
Zn81	Zn8	0.876890	0.928920	0.131880
O371	O37	0.712300	0.636800	0.107920
O381	O38	0.667900	0.852980	0.069660
O391	O39	0.946900	0.813090	0.249420
O401	O40	0.059400	0.954600	0.365470
O411	O41	0.958300	0.752130	0.114320
O421	O42	0.988300	0.795000	0.007590
O431	O43	0.836000	0.026100	0.022010
O441	O44	0.607100	0.095100	0.955420
O451	O45	0.843000	0.089010	0.191970
O461	O46	0.603600	0.126800	0.110610
O471	O47	0.084000	0.020200	0.213340
O481	O48	0.175100	0.012500	0.136070
C191	C19	0.630500	0.733900	0.069200
H191	H19	0.530800	0.717700	0.036100
C201	C20	0.012100	0.843400	0.331400
H201	H20	0.025700	0.775300	0.369700
C211	C21	0.983000	0.719200	0.058100
H211	H21	0.998700	0.629200	0.054900
C221	C22	0.722600	0.093700	0.964600
H221	H22	0.728100	0.147400	0.925800
C231	C23	0.730900	0.149400	0.173800
H231	H23	0.746800	0.218000	0.212400
C241	C24	0.184800	0.030000	0.204400
H241	H24	0.276600	0.053200	0.255600
Zn91	Zn9	0.000000	0.500000	0.500000
Zn101	Zn10	0.000000	0.000000	0.000000
Zn111	Zn11	0.500000	0.500000	0.500000
Zn121	Zn12	0.500000	0.000000	0.000000
