data_IVEHEW_manual_PM
_symmetry_space_group_name_H-M	'P1'
_cell_length_a	11.083700
_cell_length_b	11.149600
_cell_length_c	16.937000
_cell_angle_alpha	90.000000
_cell_angle_beta	97.534000
_cell_angle_gamma	90.000000
_symmetry_Int_Tables_number 1

loop_
_symmetry_equiv_pos_as_xyz
'x,y,z'

loop_
_atom_site_label
_atom_site_type_symbol
_atom_site_fract_x
_atom_site_fract_y
_atom_site_fract_z
Cu11	Cu1	0.500000	0.542090	0.250000
Cu21	Cu2	0.500000	0.457910	0.750000
H11	H1	0.277100	0.451000	0.155100
H21	H2	0.066600	0.434200	0.155100
H31	H3	0.114900	0.622300	0.361500
H41	H4	0.326900	0.638400	0.354000
H51	H5	0.360800	0.741500	0.168200
H61	H6	0.355000	0.949300	0.164000
H71	H7	0.576400	0.137000	0.149300
H81	H8	0.581200	0.339700	0.153000
H91	H9	0.722900	0.451000	0.344900
H101	H10	0.933400	0.434200	0.344900
H111	H11	0.885100	0.622300	0.138500
H121	H12	0.673100	0.638400	0.146000
H131	H13	0.639200	0.741500	0.331800
H141	H14	0.645000	0.949300	0.336000
H151	H15	0.423600	0.137000	0.350700
H161	H16	0.418800	0.339700	0.347000
H171	H17	0.722900	0.549000	0.844900
H181	H18	0.933400	0.565800	0.844900
H191	H19	0.885100	0.377700	0.638500
H201	H20	0.673100	0.361600	0.646000
H211	H21	0.396500	0.256300	0.836800
H221	H22	0.391300	0.044200	0.838400
H231	H23	0.423600	0.863000	0.850700
H241	H24	0.418800	0.660300	0.847000
H251	H25	0.277100	0.549000	0.655100
H261	H26	0.066600	0.565800	0.655100
H271	H27	0.114900	0.377700	0.861500
H281	H28	0.326900	0.361600	0.854000
H291	H29	0.603500	0.256300	0.663200
H301	H30	0.608700	0.044200	0.661600
H311	H31	0.576400	0.863000	0.649300
H321	H32	0.581200	0.660300	0.653000
C11	C1	0.240500	0.489200	0.196200
C21	C2	0.117500	0.478900	0.193900
C31	C3	0.078000	0.539500	0.253000
C41	C4	0.149600	0.592200	0.317100
C51	C5	0.273100	0.599300	0.313800
C61	C6	0.418400	0.787700	0.201900
C71	C7	0.414500	0.908100	0.199400
C81	C8	0.545100	0.176300	0.192000
C91	C9	0.547000	0.295600	0.192600
C101	C10	0.759500	0.489200	0.303800
C111	C11	0.882500	0.478900	0.306100
C121	C12	0.922000	0.539500	0.247000
C131	C13	0.850400	0.592200	0.182900
C141	C14	0.726900	0.599300	0.186200
C151	C15	0.581600	0.787700	0.298100
C161	C16	0.585500	0.908100	0.300600
C171	C17	0.454900	0.176300	0.308000
C181	C18	0.453000	0.295600	0.307400
C191	C19	0.759500	0.510800	0.803800
C201	C20	0.882500	0.521100	0.806100
C211	C21	0.922000	0.460500	0.747000
C221	C22	0.850400	0.407800	0.682900
C231	C23	0.726900	0.400700	0.686200
C241	C24	0.438100	0.210500	0.801600
C251	C25	0.435100	0.087400	0.803100
C261	C26	0.454900	0.823700	0.808000
C271	C27	0.453000	0.704400	0.807400
C281	C28	0.240500	0.510800	0.696200
C291	C29	0.117500	0.521100	0.693900
C301	C30	0.078000	0.460500	0.753000
C311	C31	0.149600	0.407800	0.817100
C321	C32	0.273100	0.400700	0.813800
C331	C33	0.561900	0.210500	0.698400
C341	C34	0.564900	0.087400	0.696900
C351	C35	0.545100	0.823700	0.692000
C361	C36	0.547000	0.704400	0.692600
C371	C37	0.500000	0.969100	0.250000
C381	C38	0.500000	0.103300	0.250000
C391	C39	0.500000	0.030900	0.750000
C401	C40	0.500000	0.896700	0.750000
S11	S1	0.455100	0.552300	0.030200
S21	S2	0.544900	0.552300	0.469800
S31	S3	0.544900	0.447700	0.969800
S41	S4	0.455100	0.447700	0.530200
N11	N1	0.312500	0.548000	0.250900
N21	N2	0.687500	0.548000	0.249100
N31	N3	0.687500	0.452000	0.749100
N41	N4	0.312500	0.452000	0.750900
N51	N5	0.500000	0.736300	0.250000
N61	N6	0.500000	0.350000	0.250000
N71	N7	0.500000	0.263700	0.750000
N81	N8	0.500000	0.650000	0.750000
O11	O1	0.467900	0.546600	0.108400
O21	O2	0.335000	0.582200	0.984700
O31	O3	0.510100	0.669900	0.010300
O41	O4	0.532100	0.546600	0.391600
O51	O5	0.665000	0.582200	0.515300
O61	O6	0.489900	0.669900	0.489700
O71	O7	0.532100	0.453400	0.891600
O81	O8	0.665000	0.417800	0.015300
O91	O9	0.489900	0.330100	0.989700
O101	O10	0.467900	0.453400	0.608400
O111	O11	0.335000	0.417800	0.484700
O121	O12	0.510100	0.330100	0.510300
