data_IVEQEG_clean_PM
_symmetry_space_group_name_H-M	'P1'
_cell_length_a	18.947000
_cell_length_b	6.915000
_cell_length_c	11.295000
_cell_angle_alpha	90.000000
_cell_angle_beta	90.450000
_cell_angle_gamma	90.000000
_symmetry_Int_Tables_number 1

loop_
_symmetry_equiv_pos_as_xyz
'x,y,z'

loop_
_atom_site_label
_atom_site_type_symbol
_atom_site_fract_x
_atom_site_fract_y
_atom_site_fract_z
O11	O1	0.322000	0.175000	0.620000
O21	O2	0.314000	0.162000	0.365000
C11	C1	0.469000	0.176000	0.455000
N11	N1	0.248000	0.154000	0.885000
C21	C2	0.317000	0.201000	0.946000
C31	C3	0.186000	0.142000	0.966000
O31	O3	0.822000	0.675000	0.620000
O41	O4	0.814000	0.662000	0.365000
C41	C4	0.969000	0.676000	0.455000
N21	N2	0.748000	0.654000	0.885000
C51	C5	0.817000	0.701000	0.946000
C61	C6	0.686000	0.642000	0.966000
O51	O5	0.678000	0.175000	0.380000
O61	O6	0.686000	0.162000	0.635000
C71	C7	0.531000	0.176000	0.545000
N31	N3	0.752000	0.154000	0.115000
C81	C8	0.683000	0.201000	0.054000
C91	C9	0.814000	0.142000	0.034000
O71	O7	0.178000	0.675000	0.380000
O81	O8	0.186000	0.662000	0.635000
C101	C10	0.031000	0.676000	0.545000
N41	N4	0.252000	0.654000	0.115000
C111	C11	0.183000	0.701000	0.054000
C121	C12	0.314000	0.642000	0.034000
O91	O9	0.678000	0.825000	0.380000
O101	O10	0.686000	0.838000	0.635000
C131	C13	0.531000	0.824000	0.545000
N51	N5	0.752000	0.846000	0.115000
C141	C14	0.683000	0.799000	0.054000
C151	C15	0.814000	0.858000	0.034000
O111	O11	0.178000	0.325000	0.380000
O121	O12	0.186000	0.338000	0.635000
C161	C16	0.031000	0.324000	0.545000
N61	N6	0.252000	0.346000	0.115000
C171	C17	0.183000	0.299000	0.054000
C181	C18	0.314000	0.358000	0.034000
O131	O13	0.322000	0.825000	0.620000
O141	O14	0.314000	0.838000	0.365000
C191	C19	0.469000	0.824000	0.455000
N71	N7	0.248000	0.846000	0.885000
C201	C20	0.317000	0.799000	0.946000
C211	C21	0.186000	0.858000	0.966000
O151	O15	0.822000	0.325000	0.620000
O161	O16	0.814000	0.338000	0.365000
C221	C22	0.969000	0.324000	0.455000
N81	N8	0.748000	0.346000	0.885000
C231	C23	0.817000	0.299000	0.946000
C241	C24	0.686000	0.358000	0.966000
P11	P1	0.332000	0.000000	0.705000
P21	P2	0.340000	0.000000	0.305000
O171	O17	0.215000	0.000000	0.541000
O181	O18	0.411000	0.000000	0.730000
O191	O19	0.300000	0.000000	0.193000
N91	N9	0.474000	0.000000	0.378000
C251	C25	0.431000	0.000000	0.262000
C261	C26	0.251000	0.000000	0.794000
P31	P3	0.832000	0.500000	0.705000
P41	P4	0.840000	0.500000	0.305000
O201	O20	0.715000	0.500000	0.541000
O211	O21	0.911000	0.500000	0.730000
O221	O22	0.800000	0.500000	0.193000
N101	N10	0.974000	0.500000	0.378000
C271	C27	0.931000	0.500000	0.262000
C281	C28	0.751000	0.500000	0.794000
P51	P5	0.668000	0.000000	0.295000
P61	P6	0.660000	0.000000	0.695000
O231	O23	0.785000	0.000000	0.459000
O241	O24	0.589000	0.000000	0.270000
O251	O25	0.700000	0.000000	0.807000
N111	N11	0.526000	0.000000	0.622000
C291	C29	0.569000	0.000000	0.738000
C301	C30	0.749000	0.000000	0.206000
P71	P7	0.168000	0.500000	0.295000
P81	P8	0.160000	0.500000	0.695000
O261	O26	0.285000	0.500000	0.459000
O271	O27	0.089000	0.500000	0.270000
O281	O28	0.200000	0.500000	0.807000
N121	N12	0.026000	0.500000	0.622000
C311	C31	0.069000	0.500000	0.738000
C321	C32	0.249000	0.500000	0.206000
Al11	Al1	0.250000	0.250000	0.500000
Al21	Al2	0.750000	0.250000	0.500000
Al31	Al3	0.750000	0.750000	0.500000
Al41	Al4	0.250000	0.750000	0.500000
