data_IVIKAA_clean_PM
_symmetry_space_group_name_H-M	'P1'
_cell_length_a	20.835000
_cell_length_b	10.177000
_cell_length_c	16.014000
_cell_angle_alpha	90.000000
_cell_angle_beta	106.120000
_cell_angle_gamma	90.000000
_symmetry_Int_Tables_number 1

loop_
_symmetry_equiv_pos_as_xyz
'x,y,z'

loop_
_atom_site_label
_atom_site_type_symbol
_atom_site_fract_x
_atom_site_fract_y
_atom_site_fract_z
Cd11	Cd1	0.059600	0.107350	0.577430
O11	O1	0.054680	0.976200	0.698600
O21	O2	0.011970	0.090500	0.426000
N11	N1	0.969100	0.227500	0.582400
N21	N2	0.152500	0.001200	0.563600
C11	C1	0.011400	0.898600	0.655800
C21	C2	0.990100	0.786900	0.701500
C31	C3	0.976000	0.653700	0.654400
C41	C4	0.048900	0.605400	0.681800
C51	C5	0.926000	0.595700	0.718400
C61	C6	0.919900	0.727300	0.669400
C71	C7	0.942500	0.320500	0.526900
H11	H1	0.967400	0.350600	0.489100
C81	C8	0.881600	0.377700	0.519300
H21	H2	0.865200	0.443100	0.476400
C91	C9	0.844600	0.340400	0.573400
C101	C10	0.871200	0.241700	0.631700
H31	H3	0.846600	0.208400	0.668900
C111	C11	0.932700	0.191700	0.636100
H41	H4	0.950900	0.127900	0.679500
C121	C12	0.777600	0.398100	0.568800
C131	C13	0.744300	0.479900	0.503700
H51	H5	0.763600	0.503300	0.458500
C141	C14	0.183000	0.028300	0.503800
H61	H6	0.161100	0.085200	0.457700
C151	C15	0.185700	0.923800	0.627100
H71	H7	0.165700	0.904100	0.672200
C161	C16	0.746900	0.369900	0.632800
H81	H8	0.767900	0.313900	0.680000
Cd21	Cd2	0.559600	0.607350	0.577430
O31	O3	0.554680	0.476200	0.698600
O41	O4	0.511970	0.590500	0.426000
N31	N3	0.469100	0.727500	0.582400
N41	N4	0.652500	0.501200	0.563600
C171	C17	0.511400	0.398600	0.655800
C181	C18	0.490100	0.286900	0.701500
C191	C19	0.476000	0.153700	0.654400
C201	C20	0.548900	0.105400	0.681800
C211	C21	0.426000	0.095700	0.718400
C221	C22	0.419900	0.227300	0.669400
C231	C23	0.442500	0.820500	0.526900
H91	H9	0.467400	0.850600	0.489100
C241	C24	0.381600	0.877700	0.519300
H101	H10	0.365200	0.943100	0.476400
C251	C25	0.344600	0.840400	0.573400
C261	C26	0.371200	0.741700	0.631700
H111	H11	0.346600	0.708400	0.668900
C271	C27	0.432700	0.691700	0.636100
H121	H12	0.450900	0.627900	0.679500
C281	C28	0.277600	0.898100	0.568800
C291	C29	0.244300	0.979900	0.503700
H131	H13	0.263600	0.003300	0.458500
C301	C30	0.683000	0.528300	0.503800
H141	H14	0.661100	0.585200	0.457700
C311	C31	0.685700	0.423800	0.627100
H151	H15	0.665700	0.404100	0.672200
C321	C32	0.246900	0.869900	0.632800
H161	H16	0.267900	0.813900	0.680000
Cd31	Cd3	0.940400	0.107350	0.922570
O51	O5	0.945320	0.976200	0.801400
O61	O6	0.988030	0.090500	0.074000
N51	N5	0.030900	0.227500	0.917600
N61	N6	0.847500	0.001200	0.936400
C331	C33	0.988600	0.898600	0.844200
C341	C34	0.009900	0.786900	0.798500
C351	C35	0.024000	0.653700	0.845600
C361	C36	0.951100	0.605400	0.818200
C371	C37	0.074000	0.595700	0.781600
C381	C38	0.080100	0.727300	0.830600
C391	C39	0.057500	0.320500	0.973100
H171	H17	0.032600	0.350600	0.010900
C401	C40	0.118400	0.377700	0.980700
H181	H18	0.134800	0.443100	0.023600
C411	C41	0.155400	0.340400	0.926600
C421	C42	0.128800	0.241700	0.868300
H191	H19	0.153400	0.208400	0.831100
C431	C43	0.067300	0.191700	0.863900
H201	H20	0.049100	0.127900	0.820500
C441	C44	0.222400	0.398100	0.931200
C451	C45	0.255700	0.479900	0.996300
H211	H21	0.236400	0.503300	0.041500
C461	C46	0.817000	0.028300	0.996200
H221	H22	0.838900	0.085200	0.042300
C471	C47	0.814300	0.923800	0.872900
H231	H23	0.834300	0.904100	0.827800
C481	C48	0.253100	0.369900	0.867200
H241	H24	0.232100	0.313900	0.820000
Cd41	Cd4	0.440400	0.607350	0.922570
O71	O7	0.445320	0.476200	0.801400
O81	O8	0.488030	0.590500	0.074000
N71	N7	0.530900	0.727500	0.917600
N81	N8	0.347500	0.501200	0.936400
C491	C49	0.488600	0.398600	0.844200
C501	C50	0.509900	0.286900	0.798500
C511	C51	0.524000	0.153700	0.845600
C521	C52	0.451100	0.105400	0.818200
C531	C53	0.574000	0.095700	0.781600
C541	C54	0.580100	0.227300	0.830600
C551	C55	0.557500	0.820500	0.973100
H251	H25	0.532600	0.850600	0.010900
C561	C56	0.618400	0.877700	0.980700
H261	H26	0.634800	0.943100	0.023600
C571	C57	0.655400	0.840400	0.926600
C581	C58	0.628800	0.741700	0.868300
H271	H27	0.653400	0.708400	0.831100
C591	C59	0.567300	0.691700	0.863900
H281	H28	0.549100	0.627900	0.820500
C601	C60	0.722400	0.898100	0.931200
C611	C61	0.755700	0.979900	0.996300
H291	H29	0.736400	0.003300	0.041500
C621	C62	0.317000	0.528300	0.996200
H301	H30	0.338900	0.585200	0.042300
C631	C63	0.314300	0.423800	0.872900
H311	H31	0.334300	0.404100	0.827800
C641	C64	0.753100	0.869900	0.867200
H321	H32	0.732100	0.813900	0.820000
Cd51	Cd5	0.940400	0.892650	0.422570
O91	O9	0.945320	0.023800	0.301400
O101	O10	0.988030	0.909500	0.574000
N91	N9	0.030900	0.772500	0.417600
N101	N10	0.847500	0.998800	0.436400
C651	C65	0.988600	0.101400	0.344200
C661	C66	0.009900	0.213100	0.298500
C671	C67	0.024000	0.346300	0.345600
C681	C68	0.951100	0.394600	0.318200
C691	C69	0.074000	0.404300	0.281600
C701	C70	0.080100	0.272700	0.330600
C711	C71	0.057500	0.679500	0.473100
H331	H33	0.032600	0.649400	0.510900
C721	C72	0.118400	0.622300	0.480700
H341	H34	0.134800	0.556900	0.523600
C731	C73	0.155400	0.659600	0.426600
C741	C74	0.128800	0.758300	0.368300
H351	H35	0.153400	0.791600	0.331100
C751	C75	0.067300	0.808300	0.363900
H361	H36	0.049100	0.872100	0.320500
C761	C76	0.222400	0.601900	0.431200
C771	C77	0.255700	0.520100	0.496300
H371	H37	0.236400	0.496700	0.541500
C781	C78	0.817000	0.971700	0.496200
H381	H38	0.838900	0.914800	0.542300
C791	C79	0.814300	0.076200	0.372900
H391	H39	0.834300	0.095900	0.327800
C801	C80	0.253100	0.630100	0.367200
H401	H40	0.232100	0.686100	0.320000
Cd61	Cd6	0.440400	0.392650	0.422570
O111	O11	0.445320	0.523800	0.301400
O121	O12	0.488030	0.409500	0.574000
N111	N11	0.530900	0.272500	0.417600
N121	N12	0.347500	0.498800	0.436400
C811	C81	0.488600	0.601400	0.344200
C821	C82	0.509900	0.713100	0.298500
C831	C83	0.524000	0.846300	0.345600
C841	C84	0.451100	0.894600	0.318200
C851	C85	0.574000	0.904300	0.281600
C861	C86	0.580100	0.772700	0.330600
C871	C87	0.557500	0.179500	0.473100
H411	H41	0.532600	0.149400	0.510900
C881	C88	0.618400	0.122300	0.480700
H421	H42	0.634800	0.056900	0.523600
C891	C89	0.655400	0.159600	0.426600
C901	C90	0.628800	0.258300	0.368300
H431	H43	0.653400	0.291600	0.331100
C911	C91	0.567300	0.308300	0.363900
H441	H44	0.549100	0.372100	0.320500
C921	C92	0.722400	0.101900	0.431200
C931	C93	0.755700	0.020100	0.496300
H451	H45	0.736400	0.996700	0.541500
C941	C94	0.317000	0.471700	0.496200
H461	H46	0.338900	0.414800	0.542300
C951	C95	0.314300	0.576200	0.372900
H471	H47	0.334300	0.595900	0.327800
C961	C96	0.753100	0.130100	0.367200
H481	H48	0.732100	0.186100	0.320000
Cd71	Cd7	0.059600	0.892650	0.077430
O131	O13	0.054680	0.023800	0.198600
O141	O14	0.011970	0.909500	0.926000
N131	N13	0.969100	0.772500	0.082400
N141	N14	0.152500	0.998800	0.063600
C971	C97	0.011400	0.101400	0.155800
C981	C98	0.990100	0.213100	0.201500
C991	C99	0.976000	0.346300	0.154400
C1001	C100	0.048900	0.394600	0.181800
C1011	C101	0.926000	0.404300	0.218400
C1021	C102	0.919900	0.272700	0.169400
C1031	C103	0.942500	0.679500	0.026900
H491	H49	0.967400	0.649400	0.989100
C1041	C104	0.881600	0.622300	0.019300
H501	H50	0.865200	0.556900	0.976400
C1051	C105	0.844600	0.659600	0.073400
C1061	C106	0.871200	0.758300	0.131700
H511	H51	0.846600	0.791600	0.168900
C1071	C107	0.932700	0.808300	0.136100
H521	H52	0.950900	0.872100	0.179500
C1081	C108	0.777600	0.601900	0.068800
C1091	C109	0.744300	0.520100	0.003700
H531	H53	0.763600	0.496700	0.958500
C1101	C110	0.183000	0.971700	0.003800
H541	H54	0.161100	0.914800	0.957700
C1111	C111	0.185700	0.076200	0.127100
H551	H55	0.165700	0.095900	0.172200
C1121	C112	0.746900	0.630100	0.132800
H561	H56	0.767900	0.686100	0.180000
Cd81	Cd8	0.559600	0.392650	0.077430
O151	O15	0.554680	0.523800	0.198600
O161	O16	0.511970	0.409500	0.926000
N151	N15	0.469100	0.272500	0.082400
N161	N16	0.652500	0.498800	0.063600
C1131	C113	0.511400	0.601400	0.155800
C1141	C114	0.490100	0.713100	0.201500
C1151	C115	0.476000	0.846300	0.154400
C1161	C116	0.548900	0.894600	0.181800
C1171	C117	0.426000	0.904300	0.218400
C1181	C118	0.419900	0.772700	0.169400
C1191	C119	0.442500	0.179500	0.026900
H571	H57	0.467400	0.149400	0.989100
C1201	C120	0.381600	0.122300	0.019300
H581	H58	0.365200	0.056900	0.976400
C1211	C121	0.344600	0.159600	0.073400
C1221	C122	0.371200	0.258300	0.131700
H591	H59	0.346600	0.291600	0.168900
C1231	C123	0.432700	0.308300	0.136100
H601	H60	0.450900	0.372100	0.179500
C1241	C124	0.277600	0.101900	0.068800
C1251	C125	0.244300	0.020100	0.003700
H611	H61	0.263600	0.996700	0.958500
C1261	C126	0.683000	0.471700	0.003800
H621	H62	0.661100	0.414800	0.957700
C1271	C127	0.685700	0.576200	0.127100
H631	H63	0.665700	0.595900	0.172200
C1281	C128	0.246900	0.130100	0.132800
H641	H64	0.267900	0.186100	0.180000
