data_IVOCON_clean_PM
_symmetry_space_group_name_H-M	'P1'
_cell_length_a	13.705000
_cell_length_b	10.733700
_cell_length_c	15.877800
_cell_angle_alpha	90.000000
_cell_angle_beta	90.000000
_cell_angle_gamma	90.000000
_symmetry_Int_Tables_number 1

loop_
_symmetry_equiv_pos_as_xyz
'x,y,z'

loop_
_atom_site_label
_atom_site_type_symbol
_atom_site_fract_x
_atom_site_fract_y
_atom_site_fract_z
Zn11	Zn1	0.662760	0.658600	0.429760
P11	P1	0.840210	0.862570	0.416480
H11	H1	0.912300	0.860700	0.470200
O11	O1	0.774700	0.763700	0.450100
O21	O2	0.883200	0.828300	0.333200
O31	O3	0.792600	0.987900	0.416400
O41	O4	0.591800	0.676900	0.535700
O51	O5	0.591000	0.718900	0.333400
Zn21	Zn2	0.162760	0.158600	0.429760
P21	P2	0.340210	0.362570	0.416480
H21	H2	0.412300	0.360700	0.470200
O61	O6	0.274700	0.263700	0.450100
O71	O7	0.383200	0.328300	0.333200
O81	O8	0.292600	0.487900	0.416400
O91	O9	0.091800	0.176900	0.535700
O101	O10	0.091000	0.218900	0.333400
Zn31	Zn3	0.337240	0.341400	0.929760
P31	P3	0.159790	0.137430	0.916480
H31	H3	0.087700	0.139300	0.970200
O111	O11	0.225300	0.236300	0.950100
O121	O12	0.116800	0.171700	0.833200
O131	O13	0.207400	0.012100	0.916400
O141	O14	0.408200	0.323100	0.035700
O151	O15	0.409000	0.281100	0.833400
Zn41	Zn4	0.837240	0.841400	0.929760
P41	P4	0.659790	0.637430	0.916480
H41	H4	0.587700	0.639300	0.970200
O161	O16	0.725300	0.736300	0.950100
O171	O17	0.616800	0.671700	0.833200
O181	O18	0.707400	0.512100	0.916400
O191	O19	0.908200	0.823100	0.035700
O201	O20	0.909000	0.781100	0.833400
Zn51	Zn5	0.662760	0.341400	0.929760
P51	P5	0.840210	0.137430	0.916480
H51	H5	0.912300	0.139300	0.970200
O211	O21	0.774700	0.236300	0.950100
O221	O22	0.883200	0.171700	0.833200
O231	O23	0.792600	0.012100	0.916400
O241	O24	0.591800	0.323100	0.035700
O251	O25	0.591000	0.281100	0.833400
Zn61	Zn6	0.162760	0.841400	0.929760
P61	P6	0.340210	0.637430	0.916480
H61	H6	0.412300	0.639300	0.970200
O261	O26	0.274700	0.736300	0.950100
O271	O27	0.383200	0.671700	0.833200
O281	O28	0.292600	0.512100	0.916400
O291	O29	0.091800	0.823100	0.035700
O301	O30	0.091000	0.781100	0.833400
Zn71	Zn7	0.337240	0.658600	0.429760
P71	P7	0.159790	0.862570	0.416480
H71	H7	0.087700	0.860700	0.470200
O311	O31	0.225300	0.763700	0.450100
O321	O32	0.116800	0.828300	0.333200
O331	O33	0.207400	0.987900	0.416400
O341	O34	0.408200	0.676900	0.535700
O351	O35	0.409000	0.718900	0.333400
Zn81	Zn8	0.837240	0.158600	0.429760
P81	P8	0.659790	0.362570	0.416480
H81	H8	0.587700	0.360700	0.470200
O361	O36	0.725300	0.263700	0.450100
O371	O37	0.616800	0.328300	0.333200
O381	O38	0.707400	0.487900	0.416400
O391	O39	0.908200	0.176900	0.535700
O401	O40	0.909000	0.218900	0.333400
Zn91	Zn9	0.500000	0.381610	0.275720
P91	P9	0.500000	0.644800	0.580890
H91	H9	0.500000	0.527300	0.601100
P101	P10	0.500000	0.683200	0.288370
H101	H10	0.500000	0.747600	0.219100
O411	O41	0.500000	0.708300	0.666800
O421	O42	0.500000	0.557200	0.251400
Zn101	Zn10	0.000000	0.881610	0.275720
P111	P11	0.000000	0.144800	0.580890
H111	H11	0.000000	0.027300	0.601100
P121	P12	0.000000	0.183200	0.288370
H121	H12	0.000000	0.247600	0.219100
O431	O43	0.000000	0.208300	0.666800
O441	O44	0.000000	0.057200	0.251400
Zn111	Zn11	0.500000	0.618390	0.775720
P131	P13	0.500000	0.355200	0.080890
H131	H13	0.500000	0.472700	0.101100
P141	P14	0.500000	0.316800	0.788370
H141	H14	0.500000	0.252400	0.719100
O451	O45	0.500000	0.291700	0.166800
O461	O46	0.500000	0.442800	0.751400
Zn121	Zn12	0.000000	0.118390	0.775720
P151	P15	0.000000	0.855200	0.080890
H151	H15	0.000000	0.972700	0.101100
P161	P16	0.000000	0.816800	0.788370
H161	H16	0.000000	0.752400	0.719100
O471	O47	0.000000	0.791700	0.166800
O481	O48	0.000000	0.942800	0.751400
