data_IVUVIG_clean_PM
_symmetry_space_group_name_H-M	'P1'
_cell_length_a	11.038000
_cell_length_b	11.249000
_cell_length_c	16.132000
_cell_angle_alpha	75.240000
_cell_angle_beta	82.800000
_cell_angle_gamma	75.260000
_symmetry_Int_Tables_number 1

loop_
_symmetry_equiv_pos_as_xyz
'x,y,z'

loop_
_atom_site_label
_atom_site_type_symbol
_atom_site_fract_x
_atom_site_fract_y
_atom_site_fract_z
O11	O1	0.758500	0.153300	0.217600
C11	C1	0.716200	0.250000	0.246100
C21	C2	0.762200	0.365900	0.200000
N11	N1	0.975000	0.455100	0.014600
O21	O2	0.851600	0.932000	0.007600
C31	C3	0.904900	0.925000	0.934800
O31	O3	0.020700	0.924100	0.915400
O41	O4	0.424700	0.005300	0.758700
O51	O5	0.429000	0.981100	0.897800
C41	C4	0.486400	0.977900	0.825900
C51	C5	0.625600	0.938900	0.816500
C61	C6	0.698300	0.940400	0.881200
H11	H1	0.659860	0.957770	0.932840
C71	C7	0.830100	0.915600	0.867500
O61	O6	0.388000	0.881400	0.459800
O71	O7	0.379400	0.815000	0.343500
C81	C8	0.327300	0.843800	0.412100
C91	C9	0.194800	0.837300	0.437900
C101	C10	0.146700	0.836900	0.521000
H21	H2	0.199050	0.835680	0.562290
C111	C11	0.117200	0.839900	0.376600
H31	H3	0.150140	0.838530	0.320780
Sm11	Sm1	0.587540	0.839870	0.373400
Sm21	Sm2	0.792830	0.004950	0.134420
O81	O8	0.935200	0.902800	0.250900
O91	O9	0.640900	0.712900	0.273500
O101	O10	0.775900	0.795100	0.174700
N21	N2	0.978400	0.848100	0.630400
O111	O11	0.641800	0.254500	0.310500
C121	C12	0.766100	0.585500	0.185000
O121	O12	0.797100	0.832700	0.354000
N31	N3	0.862000	0.859300	0.645400
C131	C13	0.724900	0.707400	0.212900
C141	C14	0.940200	0.843300	0.480800
H41	H4	0.855480	0.845650	0.494920
C151	C15	0.845200	0.361800	0.129500
H51	H5	0.872540	0.287640	0.110160
C161	C16	0.721800	0.479600	0.228100
H61	H6	0.665240	0.483680	0.275740
C171	C17	0.991000	0.844400	0.397100
C181	C18	0.814000	0.879600	0.728500
C191	C19	0.901000	0.860600	0.327900
C201	C20	0.020900	0.838400	0.543800
C211	C21	0.685300	0.905700	0.741600
H71	H7	0.637310	0.901070	0.699550
C221	C22	0.889100	0.470100	0.086400
C231	C23	0.848700	0.580100	0.112500
H81	H8	0.875970	0.651690	0.082070
C241	C24	0.887400	0.888000	0.791800
H91	H9	0.974090	0.874940	0.782170
O131	O13	0.241500	0.846700	0.782400
C251	C25	0.283800	0.750000	0.753900
C261	C26	0.237800	0.634100	0.800000
N41	N4	0.025000	0.544900	0.985400
O141	O14	0.148400	0.068000	0.992400
C271	C27	0.095100	0.075000	0.065200
O151	O15	0.979300	0.075900	0.084600
O161	O16	0.575300	0.994700	0.241300
O171	O17	0.571000	0.018900	0.102200
C281	C28	0.513600	0.022100	0.174100
C291	C29	0.374400	0.061100	0.183500
C301	C30	0.301700	0.059600	0.118800
H101	H10	0.340140	0.042230	0.067160
C311	C31	0.169900	0.084400	0.132500
O181	O18	0.612000	0.118600	0.540200
O191	O19	0.620600	0.185000	0.656500
C321	C32	0.672700	0.156200	0.587900
C331	C33	0.805200	0.162700	0.562100
C341	C34	0.853300	0.163100	0.479000
H111	H11	0.800950	0.164320	0.437710
C351	C35	0.882800	0.160100	0.623400
H121	H12	0.849860	0.161470	0.679220
Sm31	Sm3	0.412460	0.160130	0.626600
Sm41	Sm4	0.207170	0.995050	0.865580
O201	O20	0.064800	0.097200	0.749100
O211	O21	0.359100	0.287100	0.726500
O221	O22	0.224100	0.204900	0.825300
N51	N5	0.021600	0.151900	0.369600
O231	O23	0.358200	0.745500	0.689500
C361	C36	0.233900	0.414500	0.815000
O241	O24	0.202900	0.167300	0.646000
N61	N6	0.138000	0.140700	0.354600
C371	C37	0.275100	0.292600	0.787100
C381	C38	0.059800	0.156700	0.519200
H131	H13	0.144520	0.154350	0.505080
C391	C39	0.154800	0.638200	0.870500
H141	H14	0.127460	0.712360	0.889840
C401	C40	0.278200	0.520400	0.771900
H151	H15	0.334760	0.516320	0.724260
C411	C41	0.009000	0.155600	0.602900
C421	C42	0.186000	0.120400	0.271500
C431	C43	0.099000	0.139400	0.672100
C441	C44	0.979100	0.161600	0.456200
C451	C45	0.314700	0.094300	0.258400
H161	H16	0.362690	0.098930	0.300450
C461	C46	0.110900	0.529900	0.913600
C471	C47	0.151300	0.419900	0.887500
H171	H17	0.124030	0.348310	0.917930
C481	C48	0.112600	0.112000	0.208200
H181	H18	0.025910	0.125060	0.217830
