data_IWAYAG_clean_PM
_symmetry_space_group_name_H-M	'P1'
_cell_length_a	14.817300
_cell_length_b	14.817300
_cell_length_c	14.817300
_cell_angle_alpha	90.000000
_cell_angle_beta	90.000000
_cell_angle_gamma	90.000000
_symmetry_Int_Tables_number 1

loop_
_symmetry_equiv_pos_as_xyz
'x,y,z'

loop_
_atom_site_label
_atom_site_type_symbol
_atom_site_fract_x
_atom_site_fract_y
_atom_site_fract_z
Ca11	Ca1	0.250000	0.000000	0.500000
Ca21	Ca2	0.750000	0.000000	0.500000
Ca31	Ca3	0.250000	0.500000	0.000000
Ca41	Ca4	0.500000	0.250000	0.000000
Ca51	Ca5	0.500000	0.750000	0.000000
Ca61	Ca6	0.000000	0.500000	0.250000
Ca71	Ca7	0.000000	0.500000	0.750000
Ca81	Ca8	0.500000	0.000000	0.250000
Ca91	Ca9	0.000000	0.250000	0.500000
Ca101	Ca10	0.000000	0.750000	0.500000
Ca111	Ca11	0.750000	0.500000	0.000000
Ca121	Ca12	0.500000	0.000000	0.750000
C11	C1	0.319000	0.000000	0.319000
O11	O1	0.380300	0.000000	0.380300
C21	C2	0.819000	0.500000	0.819000
O21	O2	0.880300	0.500000	0.880300
C31	C3	0.681000	0.000000	0.319000
O31	O3	0.619700	0.000000	0.380300
C41	C4	0.181000	0.500000	0.819000
O41	O4	0.119700	0.500000	0.880300
C51	C5	0.681000	0.000000	0.681000
O51	O5	0.619700	0.000000	0.619700
C61	C6	0.181000	0.500000	0.181000
O61	O6	0.119700	0.500000	0.119700
C71	C7	0.319000	0.000000	0.681000
O71	O7	0.380300	0.000000	0.619700
C81	C8	0.819000	0.500000	0.181000
O81	O8	0.880300	0.500000	0.119700
C91	C9	0.319000	0.319000	0.000000
O91	O9	0.380300	0.380300	0.000000
C101	C10	0.819000	0.819000	0.500000
O101	O10	0.880300	0.880300	0.500000
C111	C11	0.319000	0.681000	0.000000
O111	O11	0.380300	0.619700	0.000000
C121	C12	0.819000	0.181000	0.500000
O121	O12	0.880300	0.119700	0.500000
C131	C13	0.681000	0.681000	0.000000
O131	O13	0.619700	0.619700	0.000000
C141	C14	0.181000	0.181000	0.500000
O141	O14	0.119700	0.119700	0.500000
C151	C15	0.681000	0.319000	0.000000
O151	O15	0.619700	0.380300	0.000000
C161	C16	0.181000	0.819000	0.500000
O161	O16	0.119700	0.880300	0.500000
C171	C17	0.000000	0.319000	0.319000
O171	O17	0.000000	0.380300	0.380300
C181	C18	0.500000	0.819000	0.819000
O181	O18	0.500000	0.880300	0.880300
C191	C19	0.000000	0.319000	0.681000
O191	O19	0.000000	0.380300	0.619700
C201	C20	0.500000	0.819000	0.181000
O201	O20	0.500000	0.880300	0.119700
C211	C21	0.000000	0.681000	0.681000
O211	O21	0.000000	0.619700	0.619700
C221	C22	0.500000	0.181000	0.181000
O221	O22	0.500000	0.119700	0.119700
C231	C23	0.000000	0.681000	0.319000
O231	O23	0.000000	0.619700	0.380300
C241	C24	0.500000	0.181000	0.819000
O241	O24	0.500000	0.119700	0.880300
O251	O25	0.235600	0.000000	0.342200
O261	O26	0.735600	0.500000	0.842200
O271	O27	0.764400	0.000000	0.342200
O281	O28	0.264400	0.500000	0.842200
O291	O29	0.764400	0.000000	0.657800
O301	O30	0.264400	0.500000	0.157800
O311	O31	0.235600	0.000000	0.657800
O321	O32	0.735600	0.500000	0.157800
O331	O33	0.342200	0.235600	0.000000
O341	O34	0.842200	0.735600	0.500000
O351	O35	0.342200	0.764400	0.000000
O361	O36	0.842200	0.264400	0.500000
O371	O37	0.657800	0.764400	0.000000
O381	O38	0.157800	0.264400	0.500000
O391	O39	0.657800	0.235600	0.000000
O401	O40	0.157800	0.735600	0.500000
O411	O41	0.000000	0.342200	0.235600
O421	O42	0.500000	0.842200	0.735600
O431	O43	0.000000	0.342200	0.764400
O441	O44	0.500000	0.842200	0.264400
O451	O45	0.000000	0.657800	0.764400
O461	O46	0.500000	0.157800	0.264400
O471	O47	0.000000	0.657800	0.235600
O481	O48	0.500000	0.157800	0.735600
O491	O49	0.000000	0.235600	0.657800
O501	O50	0.500000	0.735600	0.157800
O511	O51	0.000000	0.764400	0.657800
O521	O52	0.500000	0.264400	0.157800
O531	O53	0.000000	0.764400	0.342200
O541	O54	0.500000	0.264400	0.842200
O551	O55	0.000000	0.235600	0.342200
O561	O56	0.500000	0.735600	0.842200
O571	O57	0.235600	0.342200	0.000000
O581	O58	0.735600	0.842200	0.500000
O591	O59	0.764400	0.342200	0.000000
O601	O60	0.264400	0.842200	0.500000
O611	O61	0.764400	0.657800	0.000000
O621	O62	0.264400	0.157800	0.500000
O631	O63	0.235600	0.657800	0.000000
O641	O64	0.735600	0.157800	0.500000
O651	O65	0.342200	0.000000	0.764400
O661	O66	0.842200	0.500000	0.264400
O671	O67	0.342200	0.000000	0.235600
O681	O68	0.842200	0.500000	0.735600
O691	O69	0.657800	0.000000	0.235600
O701	O70	0.157800	0.500000	0.735600
O711	O71	0.657800	0.000000	0.764400
O721	O72	0.157800	0.500000	0.264400
K11	K1	0.000000	0.000000	0.437500
O731	O73	0.000000	0.000000	0.361000
K21	K2	0.500000	0.500000	0.937500
O741	O74	0.500000	0.500000	0.861000
K31	K3	0.000000	0.000000	0.562500
O751	O75	0.000000	0.000000	0.639000
K41	K4	0.500000	0.500000	0.062500
O761	O76	0.500000	0.500000	0.139000
K51	K5	0.437500	0.000000	0.000000
O771	O77	0.361000	0.000000	0.000000
K61	K6	0.937500	0.500000	0.500000
O781	O78	0.861000	0.500000	0.500000
K71	K7	0.562500	0.000000	0.000000
O791	O79	0.639000	0.000000	0.000000
K81	K8	0.062500	0.500000	0.500000
O801	O80	0.139000	0.500000	0.500000
K91	K9	0.000000	0.437500	0.000000
O811	O81	0.000000	0.361000	0.000000
K101	K10	0.500000	0.937500	0.500000
O821	O82	0.500000	0.861000	0.500000
K111	K11	0.000000	0.562500	0.000000
O831	O83	0.000000	0.639000	0.000000
K121	K12	0.500000	0.062500	0.500000
O841	O84	0.500000	0.139000	0.500000
