data_IWAZIP_clean_PM
_symmetry_space_group_name_H-M	'P1'
_cell_length_a	14.749300
_cell_length_b	14.749300
_cell_length_c	14.749300
_cell_angle_alpha	90.000000
_cell_angle_beta	90.000000
_cell_angle_gamma	90.000000
_symmetry_Int_Tables_number 1

loop_
_symmetry_equiv_pos_as_xyz
'x,y,z'

loop_
_atom_site_label
_atom_site_type_symbol
_atom_site_fract_x
_atom_site_fract_y
_atom_site_fract_z
Cd11	Cd1	0.500000	0.000000	0.250000
Cd21	Cd2	0.500000	0.000000	0.750000
Cd31	Cd3	0.250000	0.500000	0.000000
Cd41	Cd4	0.750000	0.500000	0.000000
Cd51	Cd5	0.000000	0.250000	0.500000
Cd61	Cd6	0.000000	0.750000	0.500000
Cd71	Cd7	0.500000	0.250000	0.000000
Cd81	Cd8	0.000000	0.500000	0.750000
Cd91	Cd9	0.000000	0.500000	0.250000
Cd101	Cd10	0.500000	0.750000	0.000000
Cd111	Cd11	0.250000	0.000000	0.500000
Cd121	Cd12	0.750000	0.000000	0.500000
O11	O1	0.500000	0.845900	0.261000
O21	O2	0.000000	0.345900	0.761000
O31	O3	0.500000	0.154100	0.261000
O41	O4	0.000000	0.654100	0.761000
O51	O5	0.500000	0.845900	0.739000
O61	O6	0.000000	0.345900	0.239000
O71	O7	0.500000	0.154100	0.739000
O81	O8	0.000000	0.654100	0.239000
O91	O9	0.261000	0.500000	0.845900
O101	O10	0.761000	0.000000	0.345900
O111	O11	0.261000	0.500000	0.154100
O121	O12	0.761000	0.000000	0.654100
O131	O13	0.739000	0.500000	0.845900
O141	O14	0.239000	0.000000	0.345900
O151	O15	0.739000	0.500000	0.154100
O161	O16	0.239000	0.000000	0.654100
O171	O17	0.845900	0.261000	0.500000
O181	O18	0.345900	0.761000	0.000000
O191	O19	0.154100	0.261000	0.500000
O201	O20	0.654100	0.761000	0.000000
O211	O21	0.845900	0.739000	0.500000
O221	O22	0.345900	0.239000	0.000000
O231	O23	0.154100	0.739000	0.500000
O241	O24	0.654100	0.239000	0.000000
O251	O25	0.845900	0.500000	0.739000
O261	O26	0.345900	0.000000	0.239000
O271	O27	0.154100	0.500000	0.739000
O281	O28	0.654100	0.000000	0.239000
O291	O29	0.845900	0.500000	0.261000
O301	O30	0.345900	0.000000	0.761000
O311	O31	0.154100	0.500000	0.261000
O321	O32	0.654100	0.000000	0.761000
O331	O33	0.500000	0.261000	0.154100
O341	O34	0.000000	0.761000	0.654100
O351	O35	0.500000	0.261000	0.845900
O361	O36	0.000000	0.761000	0.345900
O371	O37	0.500000	0.739000	0.154100
O381	O38	0.000000	0.239000	0.654100
O391	O39	0.500000	0.739000	0.845900
O401	O40	0.000000	0.239000	0.345900
O411	O41	0.261000	0.845900	0.500000
O421	O42	0.761000	0.345900	0.000000
O431	O43	0.261000	0.154100	0.500000
O441	O44	0.761000	0.654100	0.000000
O451	O45	0.739000	0.845900	0.500000
O461	O46	0.239000	0.345900	0.000000
O471	O47	0.739000	0.154100	0.500000
O481	O48	0.239000	0.654100	0.000000
O491	O49	0.500000	0.884900	0.115100
C11	C1	0.500000	0.824000	0.176000
O501	O50	0.000000	0.384900	0.615100
C21	C2	0.000000	0.324000	0.676000
O511	O51	0.500000	0.115100	0.115100
C31	C3	0.500000	0.176000	0.176000
O521	O52	0.000000	0.615100	0.615100
C41	C4	0.000000	0.676000	0.676000
O531	O53	0.500000	0.884900	0.884900
C51	C5	0.500000	0.824000	0.824000
O541	O54	0.000000	0.384900	0.384900
C61	C6	0.000000	0.324000	0.324000
O551	O55	0.500000	0.115100	0.884900
C71	C7	0.500000	0.176000	0.824000
O561	O56	0.000000	0.615100	0.384900
C81	C8	0.000000	0.676000	0.324000
O571	O57	0.115100	0.500000	0.884900
C91	C9	0.176000	0.500000	0.824000
O581	O58	0.615100	0.000000	0.384900
C101	C10	0.676000	0.000000	0.324000
O591	O59	0.115100	0.500000	0.115100
C111	C11	0.176000	0.500000	0.176000
O601	O60	0.615100	0.000000	0.615100
C121	C12	0.676000	0.000000	0.676000
O611	O61	0.884900	0.500000	0.884900
C131	C13	0.824000	0.500000	0.824000
O621	O62	0.384900	0.000000	0.384900
C141	C14	0.324000	0.000000	0.324000
O631	O63	0.884900	0.500000	0.115100
C151	C15	0.824000	0.500000	0.176000
O641	O64	0.384900	0.000000	0.615100
C161	C16	0.324000	0.000000	0.676000
O651	O65	0.884900	0.115100	0.500000
C171	C17	0.824000	0.176000	0.500000
O661	O66	0.384900	0.615100	0.000000
C181	C18	0.324000	0.676000	0.000000
O671	O67	0.115100	0.115100	0.500000
C191	C19	0.176000	0.176000	0.500000
O681	O68	0.615100	0.615100	0.000000
C201	C20	0.676000	0.676000	0.000000
O691	O69	0.884900	0.884900	0.500000
C211	C21	0.824000	0.824000	0.500000
O701	O70	0.384900	0.384900	0.000000
C221	C22	0.324000	0.324000	0.000000
O711	O71	0.115100	0.884900	0.500000
C231	C23	0.176000	0.824000	0.500000
O721	O72	0.615100	0.384900	0.000000
C241	C24	0.676000	0.324000	0.000000
Na11	Na1	0.500000	0.000000	0.500000
Na21	Na2	0.000000	0.500000	0.000000
Na31	Na3	0.500000	0.500000	0.000000
Na41	Na4	0.000000	0.000000	0.500000
Na51	Na5	0.000000	0.500000	0.500000
Na61	Na6	0.500000	0.000000	0.000000
