data_IWELIG_clean_PM
_symmetry_space_group_name_H-M	'P1'
_cell_length_a	8.468200
_cell_length_b	15.274400
_cell_length_c	15.274400
_cell_angle_alpha	85.593000
_cell_angle_beta	73.906800
_cell_angle_gamma	73.906800
_symmetry_Int_Tables_number 1

loop_
_symmetry_equiv_pos_as_xyz
'x,y,z'

loop_
_atom_site_label
_atom_site_type_symbol
_atom_site_fract_x
_atom_site_fract_y
_atom_site_fract_z
Co11	Co1	0.404070	0.960530	0.949810
Co21	Co2	0.814410	0.539470	0.550190
Co31	Co3	0.353880	0.050190	0.460530
Co41	Co4	0.364600	0.449810	0.039470
Co51	Co5	0.595930	0.039470	0.050190
Co61	Co6	0.185590	0.460530	0.449810
Co71	Co7	0.646120	0.949810	0.539470
Co81	Co8	0.635400	0.550190	0.960530
Co91	Co9	0.000000	0.000000	0.000000
Co101	Co10	0.500000	0.500000	0.500000
Co111	Co11	0.000000	0.000000	0.500000
Co121	Co12	0.000000	0.500000	0.000000
H11	H1	0.933400	0.975600	0.193200
H21	H2	0.864000	0.979500	0.341100
H31	H3	0.542300	0.078100	0.252900
H41	H4	0.602200	0.524400	0.306800
H51	H5	0.684600	0.520500	0.158900
H61	H6	0.373300	0.421900	0.247100
H71	H7	0.126600	0.806800	0.475600
H81	H8	0.205100	0.658900	0.479500
H91	H9	0.795200	0.747100	0.578100
H101	H10	0.909000	0.693200	0.024400
H111	H11	0.843500	0.841100	0.020500
H121	H12	0.620400	0.752900	0.921900
H131	H13	0.066600	0.024400	0.806800
H141	H14	0.136000	0.020500	0.658900
H151	H15	0.457700	0.921900	0.747100
H161	H16	0.397800	0.475600	0.693200
H171	H17	0.315400	0.479500	0.841100
H181	H18	0.626700	0.578100	0.752900
H191	H19	0.873400	0.193200	0.524400
H201	H20	0.794900	0.341100	0.520500
H211	H21	0.204800	0.252900	0.421900
H221	H22	0.091000	0.306800	0.975600
H231	H23	0.156500	0.158900	0.979500
H241	H24	0.379600	0.247100	0.078100
C11	C1	0.966900	0.990700	0.308500
C21	C2	0.209300	0.026000	0.300200
C31	C3	0.261100	0.021900	0.204700
C41	C4	0.156800	0.999100	0.158500
C51	C5	0.445600	0.060800	0.252400
C61	C6	0.766100	0.509300	0.191500
C71	C7	0.035500	0.474000	0.199800
C81	C8	0.987700	0.478100	0.295300
C91	C9	0.814400	0.500900	0.341500
C101	C10	0.258800	0.439200	0.247600
C111	C11	0.275400	0.691500	0.490700
C121	C12	0.509500	0.699800	0.526000
C131	C13	0.465800	0.795300	0.521900
C141	C14	0.315300	0.841500	0.499100
C151	C15	0.698000	0.747600	0.560800
C161	C16	0.957600	0.808500	0.009300
C171	C17	0.235300	0.800200	0.974000
C181	C18	0.283000	0.704700	0.978100
C191	C19	0.155900	0.658500	0.000900
C201	C20	0.506400	0.752400	0.939200
C211	C21	0.033100	0.009300	0.691500
C221	C22	0.790700	0.974000	0.699800
C231	C23	0.738900	0.978100	0.795300
C241	C24	0.843200	0.000900	0.841500
C251	C25	0.554400	0.939200	0.747600
C261	C26	0.233900	0.490700	0.808500
C271	C27	0.964500	0.526000	0.800200
C281	C28	0.012300	0.521900	0.704700
C291	C29	0.185600	0.499100	0.658500
C301	C30	0.741200	0.560800	0.752400
C311	C31	0.724600	0.308500	0.509300
C321	C32	0.490500	0.300200	0.474000
C331	C33	0.534200	0.204700	0.478100
C341	C34	0.684700	0.158500	0.500900
C351	C35	0.302000	0.252400	0.439200
C361	C36	0.042400	0.191500	0.990700
C371	C37	0.764700	0.199800	0.026000
C381	C38	0.717000	0.295300	0.021900
C391	C39	0.844100	0.341500	0.999100
C401	C40	0.493600	0.247600	0.060800
N11	N1	0.006500	0.986600	0.217200
N21	N2	0.062000	0.009200	0.354600
N31	N3	0.414300	0.045100	0.175500
N41	N4	0.327800	0.050000	0.330200
N51	N5	0.710300	0.513400	0.282800
N61	N6	0.925800	0.490800	0.145400
N71	N7	0.134900	0.454900	0.324500
N81	N8	0.208000	0.450000	0.169800
N91	N9	0.223700	0.782800	0.486600
N101	N10	0.416600	0.645400	0.509200
N111	N11	0.589800	0.824500	0.545100
N121	N12	0.658000	0.669800	0.550000
N131	N13	0.993100	0.717200	0.013400
N141	N14	0.071200	0.854600	0.990800
N151	N15	0.459400	0.675500	0.954900
N161	N16	0.377800	0.830200	0.950000
N171	N17	0.993500	0.013400	0.782800
N181	N18	0.938000	0.990800	0.645400
N191	N19	0.585700	0.954900	0.824500
N201	N20	0.672200	0.950000	0.669800
N211	N21	0.289700	0.486600	0.717200
N221	N22	0.074200	0.509200	0.854600
N231	N23	0.865100	0.545100	0.675500
N241	N24	0.792000	0.550000	0.830200
N251	N25	0.776300	0.217200	0.513400
N261	N26	0.583400	0.354600	0.490800
N271	N27	0.410200	0.175500	0.454900
N281	N28	0.342000	0.330200	0.450000
N291	N29	0.006900	0.282800	0.986600
N301	N30	0.928800	0.145400	0.009200
N311	N31	0.540600	0.324500	0.045100
N321	N32	0.622200	0.169800	0.050000
O11	O1	0.425500	0.083600	0.973800
O21	O2	0.200000	0.008000	0.894400
O31	O3	0.182000	0.990700	0.073100
O41	O4	0.982900	0.416400	0.526200
O51	O5	0.602400	0.492000	0.605600
O61	O6	0.745800	0.509300	0.426900
O71	O7	0.399300	0.026200	0.583600
O81	O8	0.094400	0.105600	0.508000
O91	O9	0.255100	0.926900	0.490700
O101	O10	0.509100	0.473800	0.916400
O111	O11	0.208000	0.394400	0.992000
O121	O12	0.172700	0.573100	0.009300
O131	O13	0.574500	0.916400	0.026200
O141	O14	0.800000	0.992000	0.105600
O151	O15	0.818000	0.009300	0.926900
O161	O16	0.017100	0.583600	0.473800
O171	O17	0.397600	0.508000	0.394400
O181	O18	0.254200	0.490700	0.573100
O191	O19	0.600700	0.973800	0.416400
O201	O20	0.905600	0.894400	0.492000
O211	O21	0.744900	0.073100	0.509300
O221	O22	0.490900	0.526200	0.083600
O231	O23	0.792000	0.605600	0.008000
O241	O24	0.827300	0.426900	0.990700
